YDY.pdb
 OpenBabel07022419203D

 57 58  0  0  1  0  0  0  0  0999 V2000
    1.6540    3.7620    5.9290 O   0  0  0  0  0  0  0  0  0  0  0  0
    2.3380    2.9980    4.9800 C   0  0  0  0  0  0  0  0  0  0  0  0
    2.0740    1.6720    4.8280 C   0  0  0  0  0  0  0  0  0  0  0  0
    2.7620    0.9110    3.8760 C   0  0  0  0  0  0  0  0  0  0  0  0
    3.7210    1.4740    3.0650 C   0  0  0  0  0  0  0  0  0  0  0  0
    4.3980    0.6300    2.0930 C   0  0  0  0  0  0  0  0  0  0  0  0
    3.8120    0.5470    0.7350 C   0  0  2  0  0  0  0  0  0  0  0  0
    3.7110    1.7740    0.0290 N   0  0  0  0  0  0  0  0  0  0  0  0
    2.4890   -0.1180    0.7990 C   0  0  0  0  0  0  0  0  0  0  0  0
    2.4290   -1.2500    1.3680 O   0  0  0  0  0  0  0  0  0  0  0  0
    3.9850    2.8310    3.2260 C   0  0  0  0  0  0  0  0  0  0  0  0
    3.3120    3.5860    4.1630 C   0  0  0  0  0  0  0  0  0  0  0  0
    1.7170    3.4520    6.8920 H   0  0  0  0  0  0  0  0  0  0  0  0
    1.3130    1.2180    5.4680 H   0  0  0  0  0  0  0  0  0  0  0  0
    2.4700   -0.1280    3.8490 H   0  0  0  0  0  0  0  0  0  0  0  0
    5.4570    1.0090    1.9860 H   0  0  0  0  0  0  0  0  0  0  0  0
    4.5140   -0.3930    2.5320 H   0  0  0  0  0  0  0  0  0  0  0  0
    4.4470   -0.1510    0.1100 H   0  0  0  0  0  0  0  0  0  0  0  0
    3.1510    2.4430    0.5950 H   0  0  0  0  0  0  0  0  0  0  0  0
    4.5730    2.1510   -0.3700 H   0  0  0  0  0  0  0  0  0  0  0  0
    4.7380    3.3090    2.6010 H   0  0  0  0  0  0  0  0  0  0  0  0
    3.5270    4.6360    4.2760 H   0  0  0  0  0  0  0  0  0  0  0  0
    1.3120    0.4090    0.2810 N   0  0  0  0  0  0  0  0  0  0  0  0
   -0.0090   -0.3100    0.3730 C   0  0  1  0  0  0  0  0  0  0  0  0
   -0.8040    0.6620    1.2170 C   0  0  0  0  0  0  0  0  0  0  0  0
   -2.1540    0.3270    1.5750 C   0  0  0  0  0  0  0  0  0  0  0  0
   -2.7320   -0.7240    1.3290 O   0  0  0  0  0  0  0  0  0  0  0  0
   -0.5140   -0.4670   -1.0000 C   0  0  0  0  0  0  0  0  0  0  0  0
    0.0280    0.2800   -1.9010 O   0  0  0  0  0  0  0  0  0  0  0  0
   -2.8980    1.2950    2.2790 O   0  0  0  0  0  0  0  0  0  0  0  0
    1.2810    1.3130   -0.1900 H   0  0  0  0  0  0  0  0  0  0  0  0
    0.0840   -1.2480    0.8980 H   0  0  0  0  0  0  0  0  0  0  0  0
   -0.1460    0.8130    2.1400 H   0  0  0  0  0  0  0  0  0  0  0  0
   -0.7110    1.6480    0.6770 H   0  0  0  0  0  0  0  0  0  0  0  0
   -3.8480    1.1310    2.5130 H   0  0  0  0  0  0  0  0  0  0  0  0
   -4.0640   -7.1040   -0.6490 O   0  0  0  0  0  0  0  0  0  0  0  0
   -3.4480   -6.0450   -1.3010 C   0  0  0  0  0  0  0  0  0  0  0  0
   -2.2330   -5.5260   -0.9040 C   0  0  0  0  0  0  0  0  0  0  0  0
   -1.6100   -4.4830   -1.5330 C   0  0  0  0  0  0  0  0  0  0  0  0
   -2.2090   -3.8910   -2.6370 C   0  0  0  0  0  0  0  0  0  0  0  0
   -1.5740   -2.7620   -3.3570 C   0  0  0  0  0  0  0  0  0  0  0  0
   -1.9480   -1.4140   -2.8280 C   0  0  2  0  0  0  0  0  0  0  0  0
   -1.5260   -1.3600   -1.4110 N   0  0  0  0  0  0  0  0  0  0  0  0
   -3.4110   -1.2020   -2.9310 C   0  0  0  0  0  0  0  0  0  0  0  0
   -3.9720   -1.2050   -4.0540 O   0  0  0  0  0  0  0  0  0  0  0  0
   -3.4220   -4.3960   -3.0480 C   0  0  0  0  0  0  0  0  0  0  0  0
   -4.0320   -5.4470   -2.4000 C   0  0  0  0  0  0  0  0  0  0  0  0
   -4.2230   -0.9950   -1.8190 O   0  0  0  0  0  0  0  0  0  0  0  0
   -4.0080   -7.0830    0.3780 H   0  0  0  0  0  0  0  0  0  0  0  0
   -1.7640   -5.9840   -0.0440 H   0  0  0  0  0  0  0  0  0  0  0  0
   -0.6470   -4.0830   -1.2070 H   0  0  0  0  0  0  0  0  0  0  0  0
   -0.4660   -2.8900   -3.3650 H   0  0  0  0  0  0  0  0  0  0  0  0
   -1.9040   -2.8530   -4.4250 H   0  0  0  0  0  0  0  0  0  0  0  0
   -1.3670   -0.6650   -3.4060 H   0  0  0  0  0  0  0  0  0  0  0  0
   -1.9630   -2.0040   -0.7300 H   0  0  0  0  0  0  0  0  0  0  0  0
   -3.9150   -3.9430   -3.9230 H   0  0  0  0  0  0  0  0  0  0  0  0
   -4.9980   -5.8170   -2.7610 H   0  0  0  0  0  0  0  0  0  0  0  0
  1 13  1  0  0  0  0
  2  1  1  0  0  0  0
  3  2  1  0  0  0  0
  3 14  1  0  0  0  0
  4  3  2  0  0  0  0
  5 11  2  0  0  0  0
  5  4  1  0  0  0  0
  6 17  1  0  0  0  0
  6  5  1  0  0  0  0
  7 18  1  6  0  0  0
  7  9  1  0  0  0  0
  7  6  1  0  0  0  0
  8 19  1  0  0  0  0
  8  7  1  0  0  0  0
  9 10  2  0  0  0  0
 11 12  1  0  0  0  0
 12 22  1  0  0  0  0
 12  2  2  0  0  0  0
 15  4  1  0  0  0  0
 16  6  1  0  0  0  0
 20  8  1  0  0  0  0
 21 11  1  0  0  0  0
 23 24  1  0  0  0  0
 23  9  1  0  0  0  0
 24 32  1  1  0  0  0
 24 25  1  0  0  0  0
 25 26  1  0  0  0  0
 25 33  1  0  0  0  0
 26 30  1  0  0  0  0
 27 26  2  0  0  0  0
 28 24  1  0  0  0  0
 29 28  2  0  0  0  0
 30 35  1  0  0  0  0
 31 23  1  0  0  0  0
 34 25  1  0  0  0  0
 36 49  1  0  0  0  0
 37 38  1  0  0  0  0
 37 36  1  0  0  0  0
 38 50  1  0  0  0  0
 39 51  1  0  0  0  0
 39 38  2  0  0  0  0
 40 39  1  0  0  0  0
 41 42  1  0  0  0  0
 41 40  1  0  0  0  0
 42 54  1  6  0  0  0
 42 43  1  0  0  0  0
 43 28  1  0  0  0  0
 43 55  1  0  0  0  0
 44 42  1  0  0  0  0
 44 48  1  0  0  0  0
 45 44  2  0  0  0  0
 46 40  2  0  0  0  0
 46 47  1  0  0  0  0
 47 37  2  0  0  0  0
 52 41  1  0  0  0  0
 53 41  1  0  0  0  0
 56 46  1  0  0  0  0
 57 47  1  0  0  0  0
M  END
$$$$
