YED.pdb
 OpenBabel07022419203D

 52 52  0  0  1  0  0  0  0  0999 V2000
   -0.3040    1.4870    5.6470 O   0  0  0  0  0  0  0  0  0  0  0  0
    0.6600    1.5110    4.6600 C   0  0  0  0  0  0  0  0  0  0  0  0
    1.3960    0.4020    4.3040 C   0  0  0  0  0  0  0  0  0  0  0  0
    2.3440    0.4870    3.3110 C   0  0  0  0  0  0  0  0  0  0  0  0
    2.6050    1.6570    2.6320 C   0  0  0  0  0  0  0  0  0  0  0  0
    3.6160    1.7910    1.5550 C   0  0  0  0  0  0  0  0  0  0  0  0
    2.9740    1.5120    0.2150 C   0  0  2  0  0  0  0  0  0  0  0  0
    1.9030    2.4960    0.0530 N   0  0  0  0  0  0  0  0  0  0  0  0
    2.4170    0.1360    0.2570 C   0  0  0  0  0  0  0  0  0  0  0  0
    3.2130   -0.8290    0.3740 O   0  0  0  0  0  0  0  0  0  0  0  0
    1.8650    2.7790    2.9860 C   0  0  0  0  0  0  0  0  0  0  0  0
    0.9060    2.6930    3.9910 C   0  0  0  0  0  0  0  0  0  0  0  0
   -0.0930    1.1550    6.5740 H   0  0  0  0  0  0  0  0  0  0  0  0
    1.2130   -0.5280    4.8200 H   0  0  0  0  0  0  0  0  0  0  0  0
    2.8950   -0.3950    3.0650 H   0  0  0  0  0  0  0  0  0  0  0  0
    4.0830    2.8120    1.5710 H   0  0  0  0  0  0  0  0  0  0  0  0
    4.4000    1.0030    1.7420 H   0  0  0  0  0  0  0  0  0  0  0  0
    3.7180    1.6320   -0.6000 H   0  0  0  0  0  0  0  0  0  0  0  0
    2.3570    3.4370    0.0970 H   0  0  0  0  0  0  0  0  0  0  0  0
    1.5640    2.4020   -0.9470 H   0  0  0  0  0  0  0  0  0  0  0  0
    2.0300    3.7200    2.4870 H   0  0  0  0  0  0  0  0  0  0  0  0
    0.3420    3.5760    4.2520 H   0  0  0  0  0  0  0  0  0  0  0  0
    1.0330   -0.1480    0.1730 N   0  0  0  0  0  0  0  0  0  0  0  0
    0.4720   -1.4850    0.2120 C   0  0  1  0  0  0  0  0  0  0  0  0
   -0.3640   -1.6360    1.4680 C   0  0  0  0  0  0  0  0  0  0  0  0
   -1.4860   -0.6460    1.5020 C   0  0  0  0  0  0  0  0  0  0  0  0
   -2.2720   -0.8320    2.7440 C   0  0  0  0  0  0  0  0  0  0  0  0
   -1.9490   -1.7180    3.5720 O   0  0  0  0  0  0  0  0  0  0  0  0
   -0.3600   -1.6650   -0.9980 C   0  0  0  0  0  0  0  0  0  0  0  0
   -0.5090   -0.7540   -1.8710 O   0  0  0  0  0  0  0  0  0  0  0  0
   -3.3830   -0.0420    3.0360 O   0  0  0  0  0  0  0  0  0  0  0  0
    0.3900    0.6690    0.0780 H   0  0  0  0  0  0  0  0  0  0  0  0
    1.2890   -2.2310    0.3010 H   0  0  0  0  0  0  0  0  0  0  0  0
   -0.6910   -2.6760    1.6120 H   0  0  0  0  0  0  0  0  0  0  0  0
    0.3160   -1.4070    2.3170 H   0  0  0  0  0  0  0  0  0  0  0  0
   -1.0180    0.3820    1.5250 H   0  0  0  0  0  0  0  0  0  0  0  0
   -2.1600   -0.7430    0.6250 H   0  0  0  0  0  0  0  0  0  0  0  0
   -3.5870    0.2180    3.9990 H   0  0  0  0  0  0  0  0  0  0  0  0
   -1.0640   -2.8600   -1.2970 N   0  0  0  0  0  0  0  0  0  0  0  0
   -1.8730   -3.0380   -2.4700 C   0  0  1  0  0  0  0  0  0  0  0  0
   -1.4800   -4.1840   -3.3290 C   0  0  0  0  0  0  0  0  0  0  0  0
   -2.2920   -4.3410   -4.5470 C   0  0  0  0  0  0  0  0  0  0  0  0
   -2.2490   -5.4150   -5.2020 O   0  0  0  0  0  0  0  0  0  0  0  0
   -3.2640   -3.2480   -1.9960 C   0  0  0  0  0  0  0  0  0  0  0  0
   -4.2480   -3.4320   -2.7450 O   0  0  0  0  0  0  0  0  0  0  0  0
   -3.1220   -3.3480   -5.0310 O   0  0  0  0  0  0  0  0  0  0  0  0
   -3.5230   -3.2440   -0.6350 O   0  0  0  0  0  0  0  0  0  0  0  0
   -1.0090   -3.6720   -0.6440 H   0  0  0  0  0  0  0  0  0  0  0  0
   -1.8500   -2.1120   -3.0600 H   0  0  0  0  0  0  0  0  0  0  0  0
   -1.6800   -5.1140   -2.7110 H   0  0  0  0  0  0  0  0  0  0  0  0
   -0.3880   -4.2410   -3.5310 H   0  0  0  0  0  0  0  0  0  0  0  0
   -3.7500   -3.4910   -5.8300 H   0  0  0  0  0  0  0  0  0  0  0  0
  1 13  1  0  0  0  0
  2  1  1  0  0  0  0
  3  2  1  0  0  0  0
  3 14  1  0  0  0  0
  4  3  2  0  0  0  0
  5 11  2  0  0  0  0
  5  4  1  0  0  0  0
  6 16  1  0  0  0  0
  6 17  1  0  0  0  0
  6  5  1  0  0  0  0
  7 18  1  6  0  0  0
  7  9  1  0  0  0  0
  7  6  1  0  0  0  0
  8 19  1  0  0  0  0
  8  7  1  0  0  0  0
  9 10  2  0  0  0  0
 11 12  1  0  0  0  0
 12 22  1  0  0  0  0
 12  2  2  0  0  0  0
 15  4  1  0  0  0  0
 20  8  1  0  0  0  0
 21 11  1  0  0  0  0
 23 24  1  0  0  0  0
 23  9  1  0  0  0  0
 24 33  1  1  0  0  0
 24 25  1  0  0  0  0
 25 26  1  0  0  0  0
 25 34  1  0  0  0  0
 25 35  1  0  0  0  0
 26 36  1  0  0  0  0
 26 27  1  0  0  0  0
 27 31  1  0  0  0  0
 27 28  2  0  0  0  0
 29 24  1  0  0  0  0
 30 29  2  0  0  0  0
 31 38  1  0  0  0  0
 32 23  1  0  0  0  0
 37 26  1  0  0  0  0
 39 29  1  0  0  0  0
 39 48  1  0  0  0  0
 40 49  1  6  0  0  0
 40 44  1  0  0  0  0
 40 39  1  0  0  0  0
 41 50  1  0  0  0  0
 41 40  1  0  0  0  0
 42 41  1  0  0  0  0
 43 42  2  0  0  0  0
 44 47  1  0  0  0  0
 45 44  2  0  0  0  0
 46 42  1  0  0  0  0
 51 41  1  0  0  0  0
 52 46  1  0  0  0  0
M  END
$$$$
