YEE.pdb
 OpenBabel07022419203D

 55 55  0  0  1  0  0  0  0  0999 V2000
   -0.6430    2.9740    5.9230 O   0  0  0  0  0  0  0  0  0  0  0  0
    0.3030    2.2610    5.1750 C   0  0  0  0  0  0  0  0  0  0  0  0
    0.1170    0.9030    4.9720 C   0  0  0  0  0  0  0  0  0  0  0  0
    1.0480    0.2140    4.2390 C   0  0  0  0  0  0  0  0  0  0  0  0
    2.1500    0.8160    3.7020 C   0  0  0  0  0  0  0  0  0  0  0  0
    3.1550    0.0690    2.9180 C   0  0  0  0  0  0  0  0  0  0  0  0
    2.8790    0.0820    1.4510 C   0  0  2  0  0  0  0  0  0  0  0  0
    2.8610    1.4840    1.0040 N   0  0  0  0  0  0  0  0  0  0  0  0
    1.6700   -0.6250    1.0380 C   0  0  0  0  0  0  0  0  0  0  0  0
    1.5180   -1.8240    1.3980 O   0  0  0  0  0  0  0  0  0  0  0  0
    2.3400    2.1910    3.9060 C   0  0  0  0  0  0  0  0  0  0  0  0
    1.4100    2.8760    4.6380 C   0  0  0  0  0  0  0  0  0  0  0  0
   -0.8910    2.6260    6.8610 H   0  0  0  0  0  0  0  0  0  0  0  0
   -0.7580    0.3910    5.3950 H   0  0  0  0  0  0  0  0  0  0  0  0
    0.9230   -0.8710    4.0610 H   0  0  0  0  0  0  0  0  0  0  0  0
    4.1460    0.5820    3.0550 H   0  0  0  0  0  0  0  0  0  0  0  0
    3.2120   -0.9650    3.3200 H   0  0  0  0  0  0  0  0  0  0  0  0
    3.7920   -0.3320    0.9040 H   0  0  0  0  0  0  0  0  0  0  0  0
    2.8220    1.5170   -0.0390 H   0  0  0  0  0  0  0  0  0  0  0  0
    1.9130    1.8450    1.3290 H   0  0  0  0  0  0  0  0  0  0  0  0
    3.2160    2.6640    3.4790 H   0  0  0  0  0  0  0  0  0  0  0  0
    1.5140    3.9420    4.8230 H   0  0  0  0  0  0  0  0  0  0  0  0
    0.6400   -0.0620    0.2490 N   0  0  0  0  0  0  0  0  0  0  0  0
   -0.5090   -0.7970   -0.1490 C   0  0  1  0  0  0  0  0  0  0  0  0
   -1.7990   -0.2320    0.3850 C   0  0  0  0  0  0  0  0  0  0  0  0
   -1.8970   -0.2020    1.8810 C   0  0  0  0  0  0  0  0  0  0  0  0
   -1.8360   -1.5160    2.5240 C   0  0  0  0  0  0  0  0  0  0  0  0
   -1.7370   -2.6280    1.9410 O   0  0  0  0  0  0  0  0  0  0  0  0
   -0.5950   -0.9970   -1.6190 C   0  0  0  0  0  0  0  0  0  0  0  0
    0.2570   -0.5820   -2.4330 O   0  0  0  0  0  0  0  0  0  0  0  0
   -1.8900   -1.5930    3.9290 O   0  0  0  0  0  0  0  0  0  0  0  0
    0.7230    0.9360   -0.0590 H   0  0  0  0  0  0  0  0  0  0  0  0
   -0.3910   -1.8330    0.2880 H   0  0  0  0  0  0  0  0  0  0  0  0
   -1.8880    0.8370    0.0250 H   0  0  0  0  0  0  0  0  0  0  0  0
   -2.6870   -0.7290   -0.0860 H   0  0  0  0  0  0  0  0  0  0  0  0
   -2.7950    0.3950    2.2030 H   0  0  0  0  0  0  0  0  0  0  0  0
   -1.0020    0.3900    2.2320 H   0  0  0  0  0  0  0  0  0  0  0  0
   -1.6070   -2.4230    4.4300 H   0  0  0  0  0  0  0  0  0  0  0  0
   -1.7080   -1.6990   -2.1320 N   0  0  0  0  0  0  0  0  0  0  0  0
   -1.8080   -1.9090   -3.5940 C   0  0  1  0  0  0  0  0  0  0  0  0
   -1.9310   -3.3960   -3.7700 C   0  0  0  0  0  0  0  0  0  0  0  0
   -0.7600   -4.1340   -3.2190 C   0  0  0  0  0  0  0  0  0  0  0  0
    0.4780   -3.7820   -3.9270 C   0  0  0  0  0  0  0  0  0  0  0  0
    0.4640   -3.0360   -4.9140 O   0  0  0  0  0  0  0  0  0  0  0  0
   -3.0690   -1.2910   -4.0940 C   0  0  0  0  0  0  0  0  0  0  0  0
   -3.8300   -0.7190   -3.2940 O   0  0  0  0  0  0  0  0  0  0  0  0
    1.7300   -4.2620   -3.5340 O   0  0  0  0  0  0  0  0  0  0  0  0
   -3.3830   -1.3560   -5.4240 O   0  0  0  0  0  0  0  0  0  0  0  0
   -2.4910   -2.0990   -1.5700 H   0  0  0  0  0  0  0  0  0  0  0  0
   -0.9330   -1.5290   -4.1050 H   0  0  0  0  0  0  0  0  0  0  0  0
   -2.0440   -3.6870   -4.8390 H   0  0  0  0  0  0  0  0  0  0  0  0
   -2.8790   -3.7430   -3.2700 H   0  0  0  0  0  0  0  0  0  0  0  0
   -0.8970   -5.2500   -3.3710 H   0  0  0  0  0  0  0  0  0  0  0  0
   -0.6550   -3.9740   -2.1030 H   0  0  0  0  0  0  0  0  0  0  0  0
    2.5640   -4.1150   -4.1110 H   0  0  0  0  0  0  0  0  0  0  0  0
  1 13  1  0  0  0  0
  2  1  1  0  0  0  0
  3  2  1  0  0  0  0
  3 14  1  0  0  0  0
  4  3  2  0  0  0  0
  5 11  2  0  0  0  0
  5  4  1  0  0  0  0
  6 16  1  0  0  0  0
  6 17  1  0  0  0  0
  6  5  1  0  0  0  0
  7 18  1  6  0  0  0
  7  6  1  0  0  0  0
  8 20  1  0  0  0  0
  8  7  1  0  0  0  0
  9 10  2  0  0  0  0
  9  7  1  0  0  0  0
 11 12  1  0  0  0  0
 12 22  1  0  0  0  0
 12  2  2  0  0  0  0
 15  4  1  0  0  0  0
 19  8  1  0  0  0  0
 21 11  1  0  0  0  0
 23  9  1  0  0  0  0
 24 23  1  0  0  0  0
 24 33  1  1  0  0  0
 24 25  1  0  0  0  0
 25 26  1  0  0  0  0
 26 36  1  0  0  0  0
 26 37  1  0  0  0  0
 26 27  1  0  0  0  0
 27 31  1  0  0  0  0
 28 27  2  0  0  0  0
 29 24  1  0  0  0  0
 30 29  2  0  0  0  0
 31 38  1  0  0  0  0
 32 23  1  0  0  0  0
 34 25  1  0  0  0  0
 35 25  1  0  0  0  0
 39 29  1  0  0  0  0
 39 49  1  0  0  0  0
 40 50  1  6  0  0  0
 40 39  1  0  0  0  0
 41 40  1  0  0  0  0
 41 52  1  0  0  0  0
 41 42  1  0  0  0  0
 42 54  1  0  0  0  0
 43 47  1  0  0  0  0
 43 42  1  0  0  0  0
 44 43  2  0  0  0  0
 45 40  1  0  0  0  0
 45 46  1  0  0  0  0
 48 45  2  0  0  0  0
 51 41  1  0  0  0  0
 53 42  1  0  0  0  0
 55 47  1  0  0  0  0
M  END
$$$$
