YEF.pdb
 OpenBabel07022419203D

 59 60  0  0  1  0  0  0  0  0999 V2000
    2.2280   -0.4380    7.1540 O   0  0  0  0  0  0  0  0  0  0  0  0
    2.5740   -0.1090    5.8470 C   0  0  0  0  0  0  0  0  0  0  0  0
    3.7410   -0.5880    5.3010 C   0  0  0  0  0  0  0  0  0  0  0  0
    4.0740   -0.2540    4.0020 C   0  0  0  0  0  0  0  0  0  0  0  0
    3.2630    0.5510    3.2310 C   0  0  0  0  0  0  0  0  0  0  0  0
    3.6020    0.9330    1.8600 C   0  0  0  0  0  0  0  0  0  0  0  0
    3.1580   -0.0140    0.7870 C   0  0  2  0  0  0  0  0  0  0  0  0
    3.5470    0.4650   -0.5340 N   0  0  0  0  0  0  0  0  0  0  0  0
    1.7010   -0.2140    0.8860 C   0  0  0  0  0  0  0  0  0  0  0  0
    1.2420   -0.7430    1.9250 O   0  0  0  0  0  0  0  0  0  0  0  0
    2.1000    1.0170    3.8020 C   0  0  0  0  0  0  0  0  0  0  0  0
    1.7590    0.6920    5.0900 C   0  0  0  0  0  0  0  0  0  0  0  0
    1.3190   -0.7880    7.4000 H   0  0  0  0  0  0  0  0  0  0  0  0
    4.4080   -1.2250    5.8760 H   0  0  0  0  0  0  0  0  0  0  0  0
    5.0070   -0.6570    3.6160 H   0  0  0  0  0  0  0  0  0  0  0  0
    4.7100    1.0500    1.7720 H   0  0  0  0  0  0  0  0  0  0  0  0
    3.1780    1.9360    1.5750 H   0  0  0  0  0  0  0  0  0  0  0  0
    3.6330   -1.0270    0.9120 H   0  0  0  0  0  0  0  0  0  0  0  0
    3.2690   -0.2490   -1.2160 H   0  0  0  0  0  0  0  0  0  0  0  0
    3.0450    1.3560   -0.6920 H   0  0  0  0  0  0  0  0  0  0  0  0
    1.4030    1.6620    3.2510 H   0  0  0  0  0  0  0  0  0  0  0  0
    0.8450    1.0630    5.5260 H   0  0  0  0  0  0  0  0  0  0  0  0
    0.7660    0.1520   -0.1180 N   0  0  0  0  0  0  0  0  0  0  0  0
   -0.6300   -0.0640    0.0260 C   0  0  1  0  0  0  0  0  0  0  0  0
   -1.4770    1.0790    0.4530 C   0  0  0  0  0  0  0  0  0  0  0  0
   -1.5090    2.2950   -0.3710 C   0  0  0  0  0  0  0  0  0  0  0  0
   -0.2580    3.0390   -0.4520 C   0  0  0  0  0  0  0  0  0  0  0  0
    0.7310    2.8000    0.2660 O   0  0  0  0  0  0  0  0  0  0  0  0
   -1.1950   -0.7280   -1.1770 C   0  0  0  0  0  0  0  0  0  0  0  0
   -0.4590   -0.9810   -2.1800 O   0  0  0  0  0  0  0  0  0  0  0  0
   -0.1060    4.0930   -1.3720 O   0  0  0  0  0  0  0  0  0  0  0  0
    1.1890    0.5730   -0.9980 H   0  0  0  0  0  0  0  0  0  0  0  0
   -0.7260   -0.8070    0.8980 H   0  0  0  0  0  0  0  0  0  0  0  0
   -2.5370    0.6880    0.5130 H   0  0  0  0  0  0  0  0  0  0  0  0
   -1.2310    1.3610    1.5130 H   0  0  0  0  0  0  0  0  0  0  0  0
   -1.8650    2.0250   -1.3990 H   0  0  0  0  0  0  0  0  0  0  0  0
   -2.3290    2.9560    0.0560 H   0  0  0  0  0  0  0  0  0  0  0  0
    0.6660    4.7340   -1.2610 H   0  0  0  0  0  0  0  0  0  0  0  0
   -2.5520   -1.1050   -1.2620 N   0  0  0  0  0  0  0  0  0  0  0  0
   -3.0650   -1.7590   -2.4750 C   0  0  1  0  0  0  0  0  0  0  0  0
   -3.5600   -3.1650   -2.1180 C   0  0  0  0  0  0  0  0  0  0  0  0
   -2.4910   -3.9890   -1.5670 C   0  0  0  0  0  0  0  0  0  0  0  0
   -1.7030   -4.7630   -2.3880 C   0  0  0  0  0  0  0  0  0  0  0  0
   -0.6750   -5.5510   -1.8660 C   0  0  0  0  0  0  0  0  0  0  0  0
   -0.4560   -5.5440   -0.4890 C   0  0  0  0  0  0  0  0  0  0  0  0
   -1.2370   -4.7770    0.3350 C   0  0  0  0  0  0  0  0  0  0  0  0
   -2.2480   -4.0030   -0.1920 C   0  0  0  0  0  0  0  0  0  0  0  0
   -4.2180   -1.0020   -3.0200 C   0  0  0  0  0  0  0  0  0  0  0  0
   -4.6210    0.0370   -2.4540 O   0  0  0  0  0  0  0  0  0  0  0  0
   -4.8390   -1.4670   -4.1680 O   0  0  0  0  0  0  0  0  0  0  0  0
   -3.1940   -0.9210   -0.4550 H   0  0  0  0  0  0  0  0  0  0  0  0
   -2.2350   -1.8230   -3.1880 H   0  0  0  0  0  0  0  0  0  0  0  0
   -4.4320   -3.0310   -1.4520 H   0  0  0  0  0  0  0  0  0  0  0  0
   -3.9550   -3.5800   -3.0880 H   0  0  0  0  0  0  0  0  0  0  0  0
   -1.8480   -4.7900   -3.4630 H   0  0  0  0  0  0  0  0  0  0  0  0
   -0.0920   -6.1320   -2.5390 H   0  0  0  0  0  0  0  0  0  0  0  0
    0.3470   -6.1680   -0.1310 H   0  0  0  0  0  0  0  0  0  0  0  0
   -1.0780   -4.7640    1.3910 H   0  0  0  0  0  0  0  0  0  0  0  0
   -2.8960   -3.3770    0.4050 H   0  0  0  0  0  0  0  0  0  0  0  0
  1 13  1  0  0  0  0
  2  1  1  0  0  0  0
  3  2  1  0  0  0  0
  3 14  1  0  0  0  0
  4  3  2  0  0  0  0
  5 11  2  0  0  0  0
  5  4  1  0  0  0  0
  6  5  1  0  0  0  0
  7  9  1  0  0  0  0
  7 18  1  1  0  0  0
  7  6  1  0  0  0  0
  8  7  1  0  0  0  0
  9 10  2  0  0  0  0
 11 12  1  0  0  0  0
 12 22  1  0  0  0  0
 12  2  2  0  0  0  0
 15  4  1  0  0  0  0
 16  6  1  0  0  0  0
 17  6  1  0  0  0  0
 19  8  1  0  0  0  0
 20  8  1  0  0  0  0
 21 11  1  0  0  0  0
 23 24  1  0  0  0  0
 23  9  1  0  0  0  0
 24 25  1  0  0  0  0
 24 33  1  1  0  0  0
 25 34  1  0  0  0  0
 25 35  1  0  0  0  0
 26 37  1  0  0  0  0
 26 25  1  0  0  0  0
 27 26  1  0  0  0  0
 27 28  2  0  0  0  0
 29 24  1  0  0  0  0
 30 29  2  0  0  0  0
 31 38  1  0  0  0  0
 31 27  1  0  0  0  0
 32 23  1  0  0  0  0
 36 26  1  0  0  0  0
 39 29  1  0  0  0  0
 39 51  1  0  0  0  0
 40 52  1  6  0  0  0
 40 41  1  0  0  0  0
 40 39  1  0  0  0  0
 41 42  1  0  0  0  0
 41 53  1  0  0  0  0
 42 47  1  0  0  0  0
 43 44  1  0  0  0  0
 43 42  2  0  0  0  0
 44 45  2  0  0  0  0
 45 57  1  0  0  0  0
 45 46  1  0  0  0  0
 46 58  1  0  0  0  0
 47 46  2  0  0  0  0
 47 59  1  0  0  0  0
 48 40  1  0  0  0  0
 48 49  1  0  0  0  0
 50 48  2  0  0  0  0
 54 41  1  0  0  0  0
 55 43  1  0  0  0  0
 56 44  1  0  0  0  0
M  END
$$$$
