YEG.pdb
 OpenBabel07022419203D

 46 46  0  0  1  0  0  0  0  0999 V2000
    4.9510   -4.1710    2.8910 O   0  0  0  0  0  0  0  0  0  0  0  0
    4.4390   -3.1640    2.0720 C   0  0  0  0  0  0  0  0  0  0  0  0
    3.7340   -2.0900    2.5660 C   0  0  0  0  0  0  0  0  0  0  0  0
    3.2460   -1.1160    1.7290 C   0  0  0  0  0  0  0  0  0  0  0  0
    3.4580   -1.2030    0.3610 C   0  0  0  0  0  0  0  0  0  0  0  0
    2.9570   -0.1600   -0.5680 C   0  0  0  0  0  0  0  0  0  0  0  0
    1.5880   -0.3950   -1.0990 C   0  0  2  0  0  0  0  0  0  0  0  0
    1.2940    0.7410   -1.9880 N   0  0  0  0  0  0  0  0  0  0  0  0
    0.5200   -0.4660   -0.0740 C   0  0  0  0  0  0  0  0  0  0  0  0
    0.5090   -1.3580    0.8110 O   0  0  0  0  0  0  0  0  0  0  0  0
    4.1700   -2.2890   -0.1350 C   0  0  0  0  0  0  0  0  0  0  0  0
    4.6540   -3.2590    0.7140 C   0  0  0  0  0  0  0  0  0  0  0  0
    4.4590   -5.0290    2.9470 H   0  0  0  0  0  0  0  0  0  0  0  0
    3.5750   -2.0380    3.6570 H   0  0  0  0  0  0  0  0  0  0  0  0
    2.7000   -0.2850    2.1250 H   0  0  0  0  0  0  0  0  0  0  0  0
    3.6530   -0.1750   -1.4510 H   0  0  0  0  0  0  0  0  0  0  0  0
    3.0330    0.8560   -0.1160 H   0  0  0  0  0  0  0  0  0  0  0  0
    1.5840   -1.3310   -1.7030 H   0  0  0  0  0  0  0  0  0  0  0  0
    0.3860    0.5600   -2.4510 H   0  0  0  0  0  0  0  0  0  0  0  0
    1.3140    1.6330   -1.4650 H   0  0  0  0  0  0  0  0  0  0  0  0
    4.3350   -2.3550   -1.2230 H   0  0  0  0  0  0  0  0  0  0  0  0
    5.2180   -4.1090    0.2920 H   0  0  0  0  0  0  0  0  0  0  0  0
   -0.5370    0.4820   -0.0630 N   0  0  0  0  0  0  0  0  0  0  0  0
   -1.5680    0.3870    0.9440 C   0  0  1  0  0  0  0  0  0  0  0  0
   -1.7920    1.7210    1.5630 C   0  0  0  0  0  0  0  0  0  0  0  0
   -0.6460    2.3540    2.2550 C   0  0  0  0  0  0  0  0  0  0  0  0
   -0.0810    1.6230    3.3880 C   0  0  0  0  0  0  0  0  0  0  0  0
    0.2980    0.4330    3.2980 O   0  0  0  0  0  0  0  0  0  0  0  0
   -2.8280   -0.0550    0.2270 C   0  0  0  0  0  0  0  0  0  0  0  0
   -2.7980   -0.2890   -0.9940 O   0  0  0  0  0  0  0  0  0  0  0  0
    0.0600    2.2390    4.6480 O   0  0  0  0  0  0  0  0  0  0  0  0
   -0.5620    1.2480   -0.7920 H   0  0  0  0  0  0  0  0  0  0  0  0
   -1.2940   -0.4030    1.6740 H   0  0  0  0  0  0  0  0  0  0  0  0
   -2.6420    1.6250    2.2920 H   0  0  0  0  0  0  0  0  0  0  0  0
   -2.1720    2.4490    0.8060 H   0  0  0  0  0  0  0  0  0  0  0  0
   -0.9950    3.3720    2.6020 H   0  0  0  0  0  0  0  0  0  0  0  0
    0.1580    2.6060    1.5140 H   0  0  0  0  0  0  0  0  0  0  0  0
   -0.1420    1.7120    5.5200 H   0  0  0  0  0  0  0  0  0  0  0  0
   -4.0560   -0.2130    0.9020 N   0  0  0  0  0  0  0  0  0  0  0  0
   -5.2720   -0.6310    0.2390 C   0  0  0  0  0  0  0  0  0  0  0  0
   -5.0460   -1.9690   -0.3520 C   0  0  0  0  0  0  0  0  0  0  0  0
   -5.9440   -2.5750   -0.9990 O   0  0  0  0  0  0  0  0  0  0  0  0
   -3.8230   -2.6120   -0.2120 O   0  0  0  0  0  0  0  0  0  0  0  0
   -4.0790   -0.0210    1.9170 H   0  0  0  0  0  0  0  0  0  0  0  0
   -6.1260   -0.6920    0.9390 H   0  0  0  0  0  0  0  0  0  0  0  0
   -5.5430    0.0670   -0.5820 H   0  0  0  0  0  0  0  0  0  0  0  0
  1 13  1  0  0  0  0
  2  3  1  0  0  0  0
  2  1  1  0  0  0  0
  3 14  1  0  0  0  0
  4 15  1  0  0  0  0
  4  3  2  0  0  0  0
  5  4  1  0  0  0  0
  6 17  1  0  0  0  0
  6  5  1  0  0  0  0
  7 18  1  6  0  0  0
  7  6  1  0  0  0  0
  7  9  1  0  0  0  0
  8 20  1  0  0  0  0
  8  7  1  0  0  0  0
  9 23  1  0  0  0  0
  9 10  2  0  0  0  0
 11  5  2  0  0  0  0
 11 12  1  0  0  0  0
 12  2  2  0  0  0  0
 16  6  1  0  0  0  0
 19  8  1  0  0  0  0
 21 11  1  0  0  0  0
 22 12  1  0  0  0  0
 23 24  1  0  0  0  0
 24 25  1  0  0  0  0
 24 33  1  1  0  0  0
 25 26  1  0  0  0  0
 25 34  1  0  0  0  0
 26 36  1  0  0  0  0
 26 27  1  0  0  0  0
 27 31  1  0  0  0  0
 28 27  2  0  0  0  0
 29 39  1  0  0  0  0
 29 24  1  0  0  0  0
 30 29  2  0  0  0  0
 31 38  1  0  0  0  0
 32 23  1  0  0  0  0
 35 25  1  0  0  0  0
 37 26  1  0  0  0  0
 39 44  1  0  0  0  0
 40 39  1  0  0  0  0
 40 45  1  0  0  0  0
 41 43  1  0  0  0  0
 41 40  1  0  0  0  0
 42 41  2  0  0  0  0
 46 40  1  0  0  0  0
M  END
$$$$
