YEH.pdb
 OpenBabel07022419203D

 56 57  0  0  1  0  0  0  0  0999 V2000
    3.1960   -3.8840    4.1590 O   0  0  0  0  0  0  0  0  0  0  0  0
    3.2150   -2.5880    3.6160 C   0  0  0  0  0  0  0  0  0  0  0  0
    3.8790   -1.5480    4.2370 C   0  0  0  0  0  0  0  0  0  0  0  0
    3.9160   -0.2670    3.7290 C   0  0  0  0  0  0  0  0  0  0  0  0
    3.2650    0.0090    2.5500 C   0  0  0  0  0  0  0  0  0  0  0  0
    3.3260    1.4000    2.0330 C   0  0  0  0  0  0  0  0  0  0  0  0
    2.1890    2.2540    2.5520 C   0  0  2  0  0  0  0  0  0  0  0  0
    2.2910    2.2680    3.9930 N   0  0  0  0  0  0  0  0  0  0  0  0
    0.8870    1.7440    2.0950 C   0  0  0  0  0  0  0  0  0  0  0  0
    0.0680    1.3330    2.9850 O   0  0  0  0  0  0  0  0  0  0  0  0
    2.5980   -1.0050    1.9150 C   0  0  0  0  0  0  0  0  0  0  0  0
    2.5730   -2.2760    2.4360 C   0  0  0  0  0  0  0  0  0  0  0  0
    2.5870   -4.5460    3.7180 H   0  0  0  0  0  0  0  0  0  0  0  0
    4.3870   -1.8050    5.1760 H   0  0  0  0  0  0  0  0  0  0  0  0
    4.4650    0.5050    4.2810 H   0  0  0  0  0  0  0  0  0  0  0  0
    3.3570    1.3710    0.9170 H   0  0  0  0  0  0  0  0  0  0  0  0
    4.2900    1.8490    2.3480 H   0  0  0  0  0  0  0  0  0  0  0  0
    2.3810    3.3020    2.1910 H   0  0  0  0  0  0  0  0  0  0  0  0
    3.0000    2.9490    4.3400 H   0  0  0  0  0  0  0  0  0  0  0  0
    1.3840    2.5220    4.4600 H   0  0  0  0  0  0  0  0  0  0  0  0
    2.0860   -0.8070    0.9930 H   0  0  0  0  0  0  0  0  0  0  0  0
    2.0470   -3.0830    1.9380 H   0  0  0  0  0  0  0  0  0  0  0  0
    0.4720    1.6750    0.7610 N   0  0  0  0  0  0  0  0  0  0  0  0
   -0.8660    1.1430    0.4290 C   0  0  1  0  0  0  0  0  0  0  0  0
   -1.6650    2.3050   -0.1150 C   0  0  0  0  0  0  0  0  0  0  0  0
   -3.0700    1.9830   -0.5100 C   0  0  0  0  0  0  0  0  0  0  0  0
   -3.9320    1.4900    0.5800 C   0  0  0  0  0  0  0  0  0  0  0  0
   -3.5070    1.3960    1.7360 O   0  0  0  0  0  0  0  0  0  0  0  0
   -0.6960    0.0370   -0.5670 C   0  0  0  0  0  0  0  0  0  0  0  0
    0.4490   -0.1700   -1.1010 O   0  0  0  0  0  0  0  0  0  0  0  0
   -5.2380    1.1260    0.3000 O   0  0  0  0  0  0  0  0  0  0  0  0
    1.1040    1.9970   -0.0020 H   0  0  0  0  0  0  0  0  0  0  0  0
   -1.3330    0.8140    1.3640 H   0  0  0  0  0  0  0  0  0  0  0  0
   -1.7240    3.0460    0.7300 H   0  0  0  0  0  0  0  0  0  0  0  0
   -1.1590    2.7710   -0.9950 H   0  0  0  0  0  0  0  0  0  0  0  0
   -3.5530    2.9660   -0.8370 H   0  0  0  0  0  0  0  0  0  0  0  0
   -3.1200    1.3590   -1.4320 H   0  0  0  0  0  0  0  0  0  0  0  0
   -5.9420    0.9930    1.0250 H   0  0  0  0  0  0  0  0  0  0  0  0
   -1.7130   -0.8270   -0.9830 N   0  0  0  0  0  0  0  0  0  0  0  0
   -1.4890   -1.8960   -1.9720 C   0  0  1  0  0  0  0  0  0  0  0  0
   -1.6220   -3.2250   -1.2410 C   0  0  0  0  0  0  0  0  0  0  0  0
   -1.4090   -4.3580   -2.1660 C   0  0  0  0  0  0  0  0  0  0  0  0
   -2.3580   -5.0320   -2.9040 C   0  0  0  0  0  0  0  0  0  0  0  0
   -1.7770   -6.0130   -3.6210 N   0  0  0  0  0  0  0  0  0  0  0  0
   -0.4600   -5.9740   -3.3500 C   0  0  0  0  0  0  0  0  0  0  0  0
   -0.2350   -4.9760   -2.4720 N   0  0  0  0  0  0  0  0  0  0  0  0
   -2.3840   -1.7550   -3.1190 C   0  0  0  0  0  0  0  0  0  0  0  0
   -3.2190   -0.8190   -3.1340 O   0  0  0  0  0  0  0  0  0  0  0  0
   -2.3400   -2.6220   -4.1890 O   0  0  0  0  0  0  0  0  0  0  0  0
   -2.6740   -0.7730   -0.6080 H   0  0  0  0  0  0  0  0  0  0  0  0
   -0.4160   -1.8250   -2.2520 H   0  0  0  0  0  0  0  0  0  0  0  0
   -2.6210   -3.3110   -0.7550 H   0  0  0  0  0  0  0  0  0  0  0  0
   -0.8170   -3.2850   -0.4780 H   0  0  0  0  0  0  0  0  0  0  0  0
   -3.4210   -4.7870   -2.8890 H   0  0  0  0  0  0  0  0  0  0  0  0
   -2.2630   -6.6740   -4.2640 H   0  0  0  0  0  0  0  0  0  0  0  0
    0.2670   -6.6570   -3.7920 H   0  0  0  0  0  0  0  0  0  0  0  0
  2  1  1  0  0  0  0
  2  3  1  0  0  0  0
  3 14  1  0  0  0  0
  4  3  2  0  0  0  0
  4 15  1  0  0  0  0
  5  4  1  0  0  0  0
  6 17  1  0  0  0  0
  6  5  1  0  0  0  0
  6  7  1  0  0  0  0
  7 18  1  6  0  0  0
  7  8  1  0  0  0  0
  8 19  1  0  0  0  0
  8 20  1  0  0  0  0
  9  7  1  0  0  0  0
  9 10  2  0  0  0  0
 11 12  1  0  0  0  0
 11  5  2  0  0  0  0
 12  2  2  0  0  0  0
 13  1  1  0  0  0  0
 16  6  1  0  0  0  0
 21 11  1  0  0  0  0
 22 12  1  0  0  0  0
 23  9  1  0  0  0  0
 24 23  1  0  0  0  0
 24 33  1  1  0  0  0
 25 24  1  0  0  0  0
 25 34  1  0  0  0  0
 26 25  1  0  0  0  0
 26 27  1  0  0  0  0
 27 28  2  0  0  0  0
 29 24  1  0  0  0  0
 30 29  2  0  0  0  0
 31 27  1  0  0  0  0
 31 38  1  0  0  0  0
 32 23  1  0  0  0  0
 35 25  1  0  0  0  0
 36 26  1  0  0  0  0
 37 26  1  0  0  0  0
 39 50  1  0  0  0  0
 39 29  1  0  0  0  0
 40 51  1  6  0  0  0
 40 41  1  0  0  0  0
 40 39  1  0  0  0  0
 41 52  1  0  0  0  0
 41 53  1  0  0  0  0
 42 41  1  0  0  0  0
 43 54  1  0  0  0  0
 43 42  2  0  0  0  0
 44 45  1  0  0  0  0
 44 43  1  0  0  0  0
 45 46  2  0  0  0  0
 46 42  1  0  0  0  0
 47 40  1  0  0  0  0
 48 47  1  0  0  0  0
 49 47  2  0  0  0  0
 55 44  1  0  0  0  0
 56 45  1  0  0  0  0
M  END
$$$$
