YEI.pdb
 OpenBabel07022419203D

 58 58  0  0  1  0  0  0  0  0999 V2000
    1.0740    4.1850    3.1310 O   0  0  0  0  0  0  0  0  0  0  0  0
    1.7110    2.9400    3.0090 C   0  0  0  0  0  0  0  0  0  0  0  0
    1.2720    1.8380    3.7110 C   0  0  0  0  0  0  0  0  0  0  0  0
    1.8660    0.5980    3.6230 C   0  0  0  0  0  0  0  0  0  0  0  0
    2.9500    0.4540    2.7920 C   0  0  0  0  0  0  0  0  0  0  0  0
    3.6600   -0.8520    2.6260 C   0  0  0  0  0  0  0  0  0  0  0  0
    3.0310   -1.6080    1.4750 C   0  0  2  0  0  0  0  0  0  0  0  0
    3.1760   -0.7880    0.3060 N   0  0  0  0  0  0  0  0  0  0  0  0
    1.6300   -1.8830    1.8290 C   0  0  0  0  0  0  0  0  0  0  0  0
    1.3790   -2.6260    2.8380 O   0  0  0  0  0  0  0  0  0  0  0  0
    3.3960    1.5520    2.0850 C   0  0  0  0  0  0  0  0  0  0  0  0
    2.7990    2.7890    2.1770 C   0  0  0  0  0  0  0  0  0  0  0  0
    0.9520    4.6320    4.0320 H   0  0  0  0  0  0  0  0  0  0  0  0
    0.4030    1.9410    4.3810 H   0  0  0  0  0  0  0  0  0  0  0  0
    1.4940   -0.2530    4.1940 H   0  0  0  0  0  0  0  0  0  0  0  0
    4.7350   -0.6820    2.4060 H   0  0  0  0  0  0  0  0  0  0  0  0
    3.5670   -1.4440    3.5480 H   0  0  0  0  0  0  0  0  0  0  0  0
    3.5900   -2.5540    1.2660 H   0  0  0  0  0  0  0  0  0  0  0  0
    4.1610   -0.5730    0.1170 H   0  0  0  0  0  0  0  0  0  0  0  0
    2.5710    0.0440    0.2950 H   0  0  0  0  0  0  0  0  0  0  0  0
    4.2580    1.4620    1.4170 H   0  0  0  0  0  0  0  0  0  0  0  0
    3.1680    3.6530    1.6070 H   0  0  0  0  0  0  0  0  0  0  0  0
    0.5100   -1.3890    1.1370 N   0  0  0  0  0  0  0  0  0  0  0  0
   -0.8770   -1.6910    1.5280 C   0  0  1  0  0  0  0  0  0  0  0  0
   -1.4550   -0.3600    1.9490 C   0  0  0  0  0  0  0  0  0  0  0  0
   -2.8890   -0.4370    2.3960 C   0  0  0  0  0  0  0  0  0  0  0  0
   -3.3950    0.8890    2.8000 C   0  0  0  0  0  0  0  0  0  0  0  0
   -4.5680    1.0160    3.2010 O   0  0  0  0  0  0  0  0  0  0  0  0
   -1.6070   -2.3220    0.4160 C   0  0  0  0  0  0  0  0  0  0  0  0
   -2.8040   -2.6950    0.4920 O   0  0  0  0  0  0  0  0  0  0  0  0
   -2.5680    1.9870    2.7340 O   0  0  0  0  0  0  0  0  0  0  0  0
    0.6660   -0.7780    0.3080 H   0  0  0  0  0  0  0  0  0  0  0  0
   -0.8880   -2.3440    2.4280 H   0  0  0  0  0  0  0  0  0  0  0  0
   -0.8540    0.0960    2.7610 H   0  0  0  0  0  0  0  0  0  0  0  0
   -1.3930    0.3800    1.0990 H   0  0  0  0  0  0  0  0  0  0  0  0
   -3.0330   -1.1880    3.1860 H   0  0  0  0  0  0  0  0  0  0  0  0
   -3.4970   -0.7200    1.4860 H   0  0  0  0  0  0  0  0  0  0  0  0
   -2.8730    2.9420    2.8590 H   0  0  0  0  0  0  0  0  0  0  0  0
    0.0510   -0.7160   -3.0910 C   0  0  0  0  0  0  0  0  0  0  0  0
   -0.6660   -1.8140   -3.8170 C   0  0  0  0  0  0  0  0  0  0  0  0
   -1.9050   -2.3160   -3.1510 C   0  0  2  0  0  0  0  0  0  0  0  0
   -2.9410   -1.2410   -2.9500 C   0  0  0  0  0  0  0  0  0  0  0  0
   -1.7020   -3.1810   -1.9560 C   0  0  2  0  0  0  0  0  0  0  0  0
   -0.9830   -2.5610   -0.8650 N   0  0  0  0  0  0  0  0  0  0  0  0
   -1.0000   -4.4470   -2.2970 C   0  0  0  0  0  0  0  0  0  0  0  0
   -1.4080   -5.2070   -3.2220 O   0  0  0  0  0  0  0  0  0  0  0  0
    0.1340   -4.8410   -1.6070 O   0  0  0  0  0  0  0  0  0  0  0  0
    0.2770    0.1360   -3.7750 H   0  0  0  0  0  0  0  0  0  0  0  0
   -0.6040   -0.3730   -2.2440 H   0  0  0  0  0  0  0  0  0  0  0  0
    1.0250   -1.0770   -2.7390 H   0  0  0  0  0  0  0  0  0  0  0  0
    0.0530   -2.6600   -3.9820 H   0  0  0  0  0  0  0  0  0  0  0  0
   -0.8740   -1.4510   -4.8650 H   0  0  0  0  0  0  0  0  0  0  0  0
   -2.3830   -3.0100   -3.9280 H   0  0  0  0  0  0  0  0  0  0  0  0
   -3.2640   -0.8770   -3.9440 H   0  0  0  0  0  0  0  0  0  0  0  0
   -2.6390   -0.4460   -2.2550 H   0  0  0  0  0  0  0  0  0  0  0  0
   -3.8210   -1.7490   -2.4580 H   0  0  0  0  0  0  0  0  0  0  0  0
   -2.7250   -3.5030   -1.6220 H   0  0  0  0  0  0  0  0  0  0  0  0
    0.0080   -2.2750   -0.9650 H   0  0  0  0  0  0  0  0  0  0  0  0
  1 13  1  0  0  0  0
  2  1  1  0  0  0  0
  2  3  1  0  0  0  0
  3 14  1  0  0  0  0
  4  3  2  0  0  0  0
  4 15  1  0  0  0  0
  5  4  1  0  0  0  0
  6  5  1  0  0  0  0
  6 17  1  0  0  0  0
  7 18  1  6  0  0  0
  7  9  1  0  0  0  0
  7  6  1  0  0  0  0
  8  7  1  0  0  0  0
  9 10  2  0  0  0  0
 11 12  1  0  0  0  0
 11  5  2  0  0  0  0
 12  2  2  0  0  0  0
 16  6  1  0  0  0  0
 19  8  1  0  0  0  0
 20  8  1  0  0  0  0
 21 11  1  0  0  0  0
 22 12  1  0  0  0  0
 23 24  1  0  0  0  0
 23  9  1  0  0  0  0
 24 25  1  0  0  0  0
 24 33  1  1  0  0  0
 25 26  1  0  0  0  0
 25 34  1  0  0  0  0
 26 27  1  0  0  0  0
 26 36  1  0  0  0  0
 27 28  2  0  0  0  0
 29 30  2  0  0  0  0
 29 24  1  0  0  0  0
 31 27  1  0  0  0  0
 31 38  1  0  0  0  0
 32 23  1  0  0  0  0
 35 25  1  0  0  0  0
 37 26  1  0  0  0  0
 39 50  1  0  0  0  0
 39 49  1  0  0  0  0
 40 41  1  0  0  0  0
 40 39  1  0  0  0  0
 41 53  1  6  0  0  0
 41 42  1  0  0  0  0
 41 43  1  0  0  0  0
 42 56  1  0  0  0  0
 42 55  1  0  0  0  0
 43 57  1  1  0  0  0
 43 44  1  0  0  0  0
 44 29  1  0  0  0  0
 45 43  1  0  0  0  0
 45 47  1  0  0  0  0
 46 45  2  0  0  0  0
 48 39  1  0  0  0  0
 51 40  1  0  0  0  0
 52 40  1  0  0  0  0
 54 42  1  0  0  0  0
 58 44  1  0  0  0  0
M  END
$$$$
