YEL.pdb
 OpenBabel07022419203D

 58 58  0  0  1  0  0  0  0  0999 V2000
    1.1880    1.3070    6.1620 O   0  0  0  0  0  0  0  0  0  0  0  0
    1.8230    1.5750    4.9580 C   0  0  0  0  0  0  0  0  0  0  0  0
    2.4500    0.6300    4.1930 C   0  0  0  0  0  0  0  0  0  0  0  0
    3.0700    0.9380    3.0000 C   0  0  0  0  0  0  0  0  0  0  0  0
    3.0850    2.2340    2.5180 C   0  0  0  0  0  0  0  0  0  0  0  0
    3.7400    2.6030    1.2380 C   0  0  0  0  0  0  0  0  0  0  0  0
    2.7770    2.5130    0.0590 C   0  0  2  0  0  0  0  0  0  0  0  0
    1.6990    3.4410    0.3610 N   0  0  0  0  0  0  0  0  0  0  0  0
    2.2760    1.1180    0.0180 C   0  0  0  0  0  0  0  0  0  0  0  0
    3.0720    0.1840   -0.2520 O   0  0  0  0  0  0  0  0  0  0  0  0
    2.4420    3.1980    3.3040 C   0  0  0  0  0  0  0  0  0  0  0  0
    1.8270    2.8730    4.4940 C   0  0  0  0  0  0  0  0  0  0  0  0
    1.2900    0.4600    6.6850 H   0  0  0  0  0  0  0  0  0  0  0  0
    2.4590   -0.3940    4.5360 H   0  0  0  0  0  0  0  0  0  0  0  0
    3.5490    0.1370    2.4470 H   0  0  0  0  0  0  0  0  0  0  0  0
    4.0980    3.6440    1.3540 H   0  0  0  0  0  0  0  0  0  0  0  0
    4.6330    1.9650    1.0750 H   0  0  0  0  0  0  0  0  0  0  0  0
    3.3210    2.7970   -0.8480 H   0  0  0  0  0  0  0  0  0  0  0  0
    0.9520    3.3580   -0.3810 H   0  0  0  0  0  0  0  0  0  0  0  0
    2.0970    4.4110    0.2390 H   0  0  0  0  0  0  0  0  0  0  0  0
    2.4580    4.2200    2.9170 H   0  0  0  0  0  0  0  0  0  0  0  0
    1.3480    3.6640    5.0540 H   0  0  0  0  0  0  0  0  0  0  0  0
    0.9200    0.7630    0.2720 N   0  0  0  0  0  0  0  0  0  0  0  0
    0.4590   -0.6110    0.2260 C   0  0  1  0  0  0  0  0  0  0  0  0
   -0.0430   -1.0840    1.5550 C   0  0  0  0  0  0  0  0  0  0  0  0
   -1.1870   -0.3010    2.0930 C   0  0  0  0  0  0  0  0  0  0  0  0
   -1.5900   -0.8620    3.4040 C   0  0  0  0  0  0  0  0  0  0  0  0
   -0.9720   -1.8500    3.8700 O   0  0  0  0  0  0  0  0  0  0  0  0
   -0.5500   -0.8020   -0.8590 C   0  0  0  0  0  0  0  0  0  0  0  0
   -0.9080    0.1490   -1.6020 O   0  0  0  0  0  0  0  0  0  0  0  0
   -2.6350   -0.3400    4.1540 O   0  0  0  0  0  0  0  0  0  0  0  0
    0.2620    1.5410    0.4960 H   0  0  0  0  0  0  0  0  0  0  0  0
    1.3410   -1.2600   -0.0330 H   0  0  0  0  0  0  0  0  0  0  0  0
   -0.3680   -2.1360    1.4340 H   0  0  0  0  0  0  0  0  0  0  0  0
    0.8000   -0.9940    2.2740 H   0  0  0  0  0  0  0  0  0  0  0  0
   -0.8770    0.7650    2.3010 H   0  0  0  0  0  0  0  0  0  0  0  0
   -2.0860   -0.3150    1.4480 H   0  0  0  0  0  0  0  0  0  0  0  0
   -2.7520   -0.6610    5.1080 H   0  0  0  0  0  0  0  0  0  0  0  0
   -0.9870   -5.2910   -4.1340 C   0  0  0  0  0  0  0  0  0  0  0  0
   -1.3970   -4.5610   -2.8430 C   0  0  0  0  0  0  0  0  0  0  0  0
   -2.6230   -5.3170   -2.3520 C   0  0  0  0  0  0  0  0  0  0  0  0
   -1.7090   -3.1620   -3.2420 C   0  0  0  0  0  0  0  0  0  0  0  0
   -2.1300   -2.2360   -2.1630 C   0  0  2  0  0  0  0  0  0  0  0  0
   -1.1580   -2.0600   -1.1130 N   0  0  0  0  0  0  0  0  0  0  0  0
   -3.4570   -2.5610   -1.6190 C   0  0  0  0  0  0  0  0  0  0  0  0
   -4.4130   -2.7490   -2.4140 O   0  0  0  0  0  0  0  0  0  0  0  0
   -3.7460   -2.6800   -0.2610 O   0  0  0  0  0  0  0  0  0  0  0  0
   -1.8930   -5.7000   -4.6250 H   0  0  0  0  0  0  0  0  0  0  0  0
   -0.3440   -6.1560   -3.8780 H   0  0  0  0  0  0  0  0  0  0  0  0
   -0.5110   -4.5830   -4.8410 H   0  0  0  0  0  0  0  0  0  0  0  0
   -0.5930   -4.6800   -2.1190 H   0  0  0  0  0  0  0  0  0  0  0  0
   -3.4690   -5.2340   -3.0640 H   0  0  0  0  0  0  0  0  0  0  0  0
   -2.4110   -6.4210   -2.3110 H   0  0  0  0  0  0  0  0  0  0  0  0
   -2.8820   -5.0500   -1.3130 H   0  0  0  0  0  0  0  0  0  0  0  0
   -0.9100   -2.7130   -3.8950 H   0  0  0  0  0  0  0  0  0  0  0  0
   -2.5900   -3.2310   -3.9510 H   0  0  0  0  0  0  0  0  0  0  0  0
   -2.2660   -1.2280   -2.6700 H   0  0  0  0  0  0  0  0  0  0  0  0
   -0.8990   -2.8950   -0.5250 H   0  0  0  0  0  0  0  0  0  0  0  0
  1 13  1  0  0  0  0
  2  1  1  0  0  0  0
  3 14  1  0  0  0  0
  3  2  2  0  0  0  0
  4  3  1  0  0  0  0
  5  4  2  0  0  0  0
  5 11  1  0  0  0  0
  6 16  1  0  0  0  0
  6  5  1  0  0  0  0
  7 18  1  6  0  0  0
  7  8  1  0  0  0  0
  7  6  1  0  0  0  0
  9  7  1  0  0  0  0
  9 23  1  0  0  0  0
 10  9  2  0  0  0  0
 11 12  2  0  0  0  0
 12  2  1  0  0  0  0
 12 22  1  0  0  0  0
 15  4  1  0  0  0  0
 17  6  1  0  0  0  0
 19  8  1  0  0  0  0
 20  8  1  0  0  0  0
 21 11  1  0  0  0  0
 23 32  1  0  0  0  0
 24 33  1  6  0  0  0
 24 23  1  0  0  0  0
 24 25  1  0  0  0  0
 25 26  1  0  0  0  0
 25 35  1  0  0  0  0
 26 36  1  0  0  0  0
 26 27  1  0  0  0  0
 27 28  2  0  0  0  0
 27 31  1  0  0  0  0
 29 24  1  0  0  0  0
 30 29  2  0  0  0  0
 31 38  1  0  0  0  0
 34 25  1  0  0  0  0
 37 26  1  0  0  0  0
 39 49  1  0  0  0  0
 39 40  1  0  0  0  0
 40 41  1  0  0  0  0
 40 51  1  0  0  0  0
 41 53  1  0  0  0  0
 41 54  1  0  0  0  0
 42 40  1  0  0  0  0
 42 43  1  0  0  0  0
 43 57  1  6  0  0  0
 43 45  1  0  0  0  0
 43 44  1  0  0  0  0
 44 29  1  0  0  0  0
 44 58  1  0  0  0  0
 45 47  1  0  0  0  0
 46 45  2  0  0  0  0
 48 39  1  0  0  0  0
 50 39  1  0  0  0  0
 52 41  1  0  0  0  0
 55 42  1  0  0  0  0
 56 42  1  0  0  0  0
M  END
$$$$
