YEN.pdb
 OpenBabel07022419203D

 53 53  0  0  1  0  0  0  0  0999 V2000
   -0.2130   -0.9980    6.7030 O   0  0  0  0  0  0  0  0  0  0  0  0
    0.7560   -0.7810    5.7600 C   0  0  0  0  0  0  0  0  0  0  0  0
    1.0390   -1.7290    4.8180 C   0  0  0  0  0  0  0  0  0  0  0  0
    2.0280   -1.4920    3.8650 C   0  0  0  0  0  0  0  0  0  0  0  0
    2.7440   -0.3140    3.8390 C   0  0  0  0  0  0  0  0  0  0  0  0
    3.8030   -0.0190    2.8440 C   0  0  0  0  0  0  0  0  0  0  0  0
    3.2410    0.6620    1.6130 C   0  0  2  0  0  0  0  0  0  0  0  0
    2.6050    1.9030    1.9190 N   0  0  0  0  0  0  0  0  0  0  0  0
    2.3010   -0.2930    0.9290 C   0  0  0  0  0  0  0  0  0  0  0  0
    2.6760   -1.4260    0.5510 O   0  0  0  0  0  0  0  0  0  0  0  0
    2.4420    0.6300    4.7990 C   0  0  0  0  0  0  0  0  0  0  0  0
    1.4710    0.3950    5.7330 C   0  0  0  0  0  0  0  0  0  0  0  0
   -1.1950   -1.1170    6.4820 H   0  0  0  0  0  0  0  0  0  0  0  0
    0.5270   -2.6880    4.7610 H   0  0  0  0  0  0  0  0  0  0  0  0
    2.2410   -2.2490    3.1310 H   0  0  0  0  0  0  0  0  0  0  0  0
    4.2600   -0.9740    2.4990 H   0  0  0  0  0  0  0  0  0  0  0  0
    4.6000    0.5670    3.3040 H   0  0  0  0  0  0  0  0  0  0  0  0
    4.0860    0.8290    0.9190 H   0  0  0  0  0  0  0  0  0  0  0  0
    3.2370    2.4360    2.5570 H   0  0  0  0  0  0  0  0  0  0  0  0
    2.5520    2.4620    1.0230 H   0  0  0  0  0  0  0  0  0  0  0  0
    2.9680    1.5880    4.8410 H   0  0  0  0  0  0  0  0  0  0  0  0
    1.2310    1.1410    6.4920 H   0  0  0  0  0  0  0  0  0  0  0  0
    0.9450    0.0480    0.6820 N   0  0  0  0  0  0  0  0  0  0  0  0
   -0.0220   -0.8090    0.0340 C   0  0  1  0  0  0  0  0  0  0  0  0
   -1.0630   -1.2980    0.9700 C   0  0  0  0  0  0  0  0  0  0  0  0
   -1.8790   -0.3130    1.7020 C   0  0  0  0  0  0  0  0  0  0  0  0
   -2.7010    0.6330    1.0120 C   0  0  0  0  0  0  0  0  0  0  0  0
   -3.3530    1.4790    1.7200 O   0  0  0  0  0  0  0  0  0  0  0  0
   -0.4790   -0.3440   -1.2820 C   0  0  0  0  0  0  0  0  0  0  0  0
   -0.1480    0.7730   -1.7360 O   0  0  0  0  0  0  0  0  0  0  0  0
   -2.8830    0.7510   -0.3340 O   0  0  0  0  0  0  0  0  0  0  0  0
    0.6310    0.9910    0.9970 H   0  0  0  0  0  0  0  0  0  0  0  0
    0.6000   -1.7560   -0.2030 H   0  0  0  0  0  0  0  0  0  0  0  0
   -0.5310   -1.9860    1.7030 H   0  0  0  0  0  0  0  0  0  0  0  0
   -1.6940   -2.0410    0.3860 H   0  0  0  0  0  0  0  0  0  0  0  0
   -2.5440   -0.9200    2.4120 H   0  0  0  0  0  0  0  0  0  0  0  0
   -1.1820    0.1850    2.4680 H   0  0  0  0  0  0  0  0  0  0  0  0
   -3.5090    1.4180   -0.7820 H   0  0  0  0  0  0  0  0  0  0  0  0
   -1.3960   -4.1870   -5.1470 N   0  0  0  0  0  0  0  0  0  0  0  0
   -1.7680   -3.1480   -4.2420 C   0  0  0  0  0  0  0  0  0  0  0  0
   -2.4820   -3.4810   -3.2640 O   0  0  0  0  0  0  0  0  0  0  0  0
   -1.3140   -1.7560   -4.4770 C   0  0  0  0  0  0  0  0  0  0  0  0
   -1.8100   -0.8190   -3.3680 C   0  0  2  0  0  0  0  0  0  0  0  0
   -1.3270   -1.1990   -2.0710 N   0  0  0  0  0  0  0  0  0  0  0  0
   -3.2820   -0.9610   -3.3860 C   0  0  0  0  0  0  0  0  0  0  0  0
   -3.8610   -1.3690   -2.3550 O   0  0  0  0  0  0  0  0  0  0  0  0
   -4.0570   -0.6610   -4.4960 O   0  0  0  0  0  0  0  0  0  0  0  0
   -1.5640   -4.0840   -6.1670 H   0  0  0  0  0  0  0  0  0  0  0  0
   -0.9550   -5.0560   -4.8090 H   0  0  0  0  0  0  0  0  0  0  0  0
   -1.6760   -1.3440   -5.4360 H   0  0  0  0  0  0  0  0  0  0  0  0
   -0.2100   -1.7550   -4.5260 H   0  0  0  0  0  0  0  0  0  0  0  0
   -1.4970    0.2080   -3.6570 H   0  0  0  0  0  0  0  0  0  0  0  0
   -1.5700   -2.1140   -1.6420 H   0  0  0  0  0  0  0  0  0  0  0  0
  2  1  1  0  0  0  0
  3  2  2  0  0  0  0
  4  3  1  0  0  0  0
  5  4  2  0  0  0  0
  5 11  1  0  0  0  0
  6 17  1  0  0  0  0
  6  5  1  0  0  0  0
  7 18  1  6  0  0  0
  7  8  1  0  0  0  0
  7  6  1  0  0  0  0
  8 19  1  0  0  0  0
  9  7  1  0  0  0  0
 10  9  2  0  0  0  0
 11 21  1  0  0  0  0
 11 12  2  0  0  0  0
 12  2  1  0  0  0  0
 12 22  1  0  0  0  0
 13  1  1  0  0  0  0
 14  3  1  0  0  0  0
 15  4  1  0  0  0  0
 16  6  1  0  0  0  0
 20  8  1  0  0  0  0
 23  9  1  0  0  0  0
 23 32  1  0  0  0  0
 24 33  1  6  0  0  0
 24 23  1  0  0  0  0
 24 25  1  0  0  0  0
 25 26  1  0  0  0  0
 25 34  1  0  0  0  0
 26 36  1  0  0  0  0
 26 37  1  0  0  0  0
 27 26  1  0  0  0  0
 27 28  2  0  0  0  0
 29 24  1  0  0  0  0
 30 29  2  0  0  0  0
 31 27  1  0  0  0  0
 35 25  1  0  0  0  0
 38 31  1  0  0  0  0
 39 49  1  0  0  0  0
 39 40  1  0  0  0  0
 40 41  2  0  0  0  0
 42 40  1  0  0  0  0
 42 43  1  0  0  0  0
 43 52  1  6  0  0  0
 43 44  1  0  0  0  0
 44 53  1  0  0  0  0
 44 29  1  0  0  0  0
 45 43  1  0  0  0  0
 45 46  1  0  0  0  0
 47 45  2  0  0  0  0
 48 39  1  0  0  0  0
 50 42  1  0  0  0  0
 51 42  1  0  0  0  0
M  END
$$$$
