YER.pdb
 OpenBabel07022419203D

 62 62  0  0  1  0  0  0  0  0999 V2000
    2.2200    0.9310    7.1750 O   0  0  0  0  0  0  0  0  0  0  0  0
    2.6350    1.2240    5.8880 C   0  0  0  0  0  0  0  0  0  0  0  0
    3.5940    0.4790    5.2380 C   0  0  0  0  0  0  0  0  0  0  0  0
    4.0080    0.7650    3.9610 C   0  0  0  0  0  0  0  0  0  0  0  0
    3.4600    1.8500    3.2520 C   0  0  0  0  0  0  0  0  0  0  0  0
    3.9300    2.2100    1.9310 C   0  0  0  0  0  0  0  0  0  0  0  0
    3.5300    1.4450    0.7580 C   0  0  2  0  0  0  0  0  0  0  0  0
    4.1380    1.9910   -0.4770 N   0  0  0  0  0  0  0  0  0  0  0  0
    2.1560    1.0230    0.5070 C   0  0  0  0  0  0  0  0  0  0  0  0
    1.7490    1.1150   -0.7040 O   0  0  0  0  0  0  0  0  0  0  0  0
    2.5010    2.6000    3.8980 C   0  0  0  0  0  0  0  0  0  0  0  0
    2.1040    2.2830    5.1930 C   0  0  0  0  0  0  0  0  0  0  0  0
    1.5470    0.1930    7.3300 H   0  0  0  0  0  0  0  0  0  0  0  0
    4.0120   -0.3600    5.7990 H   0  0  0  0  0  0  0  0  0  0  0  0
    4.7630    0.1620    3.4760 H   0  0  0  0  0  0  0  0  0  0  0  0
    5.0730    2.1770    1.9690 H   0  0  0  0  0  0  0  0  0  0  0  0
    3.6360    3.2920    1.7520 H   0  0  0  0  0  0  0  0  0  0  0  0
    4.1030    0.4390    0.8390 H   0  0  0  0  0  0  0  0  0  0  0  0
    3.9650    3.0130   -0.4900 H   0  0  0  0  0  0  0  0  0  0  0  0
    3.5790    1.5750   -1.2560 H   0  0  0  0  0  0  0  0  0  0  0  0
    2.0430    3.4670    3.4190 H   0  0  0  0  0  0  0  0  0  0  0  0
    1.3400    2.8890    5.6900 H   0  0  0  0  0  0  0  0  0  0  0  0
    1.2020    0.5180    1.4110 N   0  0  0  0  0  0  0  0  0  0  0  0
   -0.1270    0.0720    1.1490 C   0  0  1  0  0  0  0  0  0  0  0  0
   -1.2710    0.9650    1.1610 C   0  0  0  0  0  0  0  0  0  0  0  0
   -1.4020    2.1000    0.2410 C   0  0  0  0  0  0  0  0  0  0  0  0
   -0.4330    3.1910    0.3250 C   0  0  0  0  0  0  0  0  0  0  0  0
   -0.3090    3.9370   -0.7030 O   0  0  0  0  0  0  0  0  0  0  0  0
   -0.1680   -0.9130   -0.0020 C   0  0  0  0  0  0  0  0  0  0  0  0
    0.9360   -1.2520   -0.4820 O   0  0  0  0  0  0  0  0  0  0  0  0
    0.3450    3.4800    1.4040 O   0  0  0  0  0  0  0  0  0  0  0  0
    1.5890    0.4680    2.4220 H   0  0  0  0  0  0  0  0  0  0  0  0
   -0.3220   -0.6800    2.0180 H   0  0  0  0  0  0  0  0  0  0  0  0
   -2.2130    0.3300    1.1940 H   0  0  0  0  0  0  0  0  0  0  0  0
   -1.3050    1.4250    2.2190 H   0  0  0  0  0  0  0  0  0  0  0  0
   -2.4090    2.5850    0.4800 H   0  0  0  0  0  0  0  0  0  0  0  0
   -1.5510    1.7960   -0.8330 H   0  0  0  0  0  0  0  0  0  0  0  0
    0.5910    4.4640    1.5880 H   0  0  0  0  0  0  0  0  0  0  0  0
   -6.0070   -4.8060   -1.7520 N   0  0  0  0  0  0  0  0  0  0  0  0
   -4.8590   -5.3470   -2.3810 C   0  0  0  0  0  0  0  0  0  0  0  0
   -4.6100   -6.5910   -2.3020 N   0  0  0  0  0  0  0  0  0  0  0  0
   -3.9550   -4.5170   -3.1180 N   0  0  0  0  0  0  0  0  0  0  0  0
   -2.5910   -4.9470   -3.2670 C   0  0  0  0  0  0  0  0  0  0  0  0
   -1.8780   -4.9090   -1.9630 C   0  0  0  0  0  0  0  0  0  0  0  0
   -1.8340   -3.6820   -1.1970 C   0  0  0  0  0  0  0  0  0  0  0  0
   -1.2370   -2.4150   -1.6800 C   0  0  2  0  0  0  0  0  0  0  0  0
   -1.3400   -1.4360   -0.5250 N   0  0  0  0  0  0  0  0  0  0  0  0
   -1.9870   -1.7620   -2.7690 C   0  0  0  0  0  0  0  0  0  0  0  0
   -2.7010   -0.7330   -2.4320 O   0  0  0  0  0  0  0  0  0  0  0  0
   -2.0030   -2.1220   -4.0900 O   0  0  0  0  0  0  0  0  0  0  0  0
   -5.9360   -4.4180   -0.8040 H   0  0  0  0  0  0  0  0  0  0  0  0
   -6.9160   -4.8050   -2.2490 H   0  0  0  0  0  0  0  0  0  0  0  0
   -5.2490   -7.2130   -1.7750 H   0  0  0  0  0  0  0  0  0  0  0  0
   -4.3150   -3.6280   -3.5230 H   0  0  0  0  0  0  0  0  0  0  0  0
   -2.0300   -4.5560   -4.1020 H   0  0  0  0  0  0  0  0  0  0  0  0
   -2.7160   -6.0970   -3.5240 H   0  0  0  0  0  0  0  0  0  0  0  0
   -0.8220   -5.2810   -2.1920 H   0  0  0  0  0  0  0  0  0  0  0  0
   -2.2810   -5.7890   -1.3380 H   0  0  0  0  0  0  0  0  0  0  0  0
   -1.4100   -3.9240   -0.1420 H   0  0  0  0  0  0  0  0  0  0  0  0
   -2.9260   -3.4440   -0.8740 H   0  0  0  0  0  0  0  0  0  0  0  0
   -0.1860   -2.5580   -1.9540 H   0  0  0  0  0  0  0  0  0  0  0  0
   -2.2590   -1.1720   -0.1450 H   0  0  0  0  0  0  0  0  0  0  0  0
  1 13  1  0  0  0  0
  2  1  1  0  0  0  0
  3 14  1  0  0  0  0
  3  2  1  0  0  0  0
  4  3  2  0  0  0  0
  5 11  2  0  0  0  0
  5  4  1  0  0  0  0
  6 16  1  0  0  0  0
  6  5  1  0  0  0  0
  7 18  1  1  0  0  0
  7  6  1  0  0  0  0
  8  7  1  0  0  0  0
  9  7  1  0  0  0  0
  9 23  1  0  0  0  0
 10  9  2  0  0  0  0
 11 12  1  0  0  0  0
 12 22  1  0  0  0  0
 12  2  2  0  0  0  0
 15  4  1  0  0  0  0
 17  6  1  0  0  0  0
 19  8  1  0  0  0  0
 20  8  1  0  0  0  0
 21 11  1  0  0  0  0
 23 32  1  0  0  0  0
 24 25  1  0  0  0  0
 24 23  1  0  0  0  0
 24 33  1  1  0  0  0
 25 34  1  0  0  0  0
 25 35  1  0  0  0  0
 26 27  1  0  0  0  0
 26 36  1  0  0  0  0
 26 25  1  0  0  0  0
 27 31  1  0  0  0  0
 28 27  2  0  0  0  0
 29 24  1  0  0  0  0
 30 29  2  0  0  0  0
 31 38  1  0  0  0  0
 37 26  1  0  0  0  0
 39 51  1  0  0  0  0
 40 41  2  0  0  0  0
 40 39  1  0  0  0  0
 41 53  1  0  0  0  0
 42 40  1  0  0  0  0
 43 42  1  0  0  0  0
 43 44  1  0  0  0  0
 44 58  1  0  0  0  0
 44 45  1  0  0  0  0
 45 60  1  0  0  0  0
 45 59  1  0  0  0  0
 46 61  1  6  0  0  0
 46 45  1  0  0  0  0
 46 47  1  0  0  0  0
 47 62  1  0  0  0  0
 47 29  1  0  0  0  0
 48 49  1  0  0  0  0
 48 46  1  0  0  0  0
 50 48  2  0  0  0  0
 52 39  1  0  0  0  0
 54 42  1  0  0  0  0
 55 43  1  0  0  0  0
 56 43  1  0  0  0  0
 57 44  1  0  0  0  0
M  END
$$$$
