YES.pdb
 OpenBabel07022419203D

 50 50  0  0  1  0  0  0  0  0999 V2000
    6.3930   -3.2460    2.7310 O   0  0  0  0  0  0  0  0  0  0  0  0
    5.5940   -2.0990    2.5870 C   0  0  0  0  0  0  0  0  0  0  0  0
    6.0710   -0.9580    1.9630 C   0  0  0  0  0  0  0  0  0  0  0  0
    5.3090    0.1740    1.8100 C   0  0  0  0  0  0  0  0  0  0  0  0
    4.0350    0.1970    2.2830 C   0  0  0  0  0  0  0  0  0  0  0  0
    3.1230    1.3600    2.1770 C   0  0  0  0  0  0  0  0  0  0  0  0
    2.3010    1.3860    0.9390 C   0  0  2  0  0  0  0  0  0  0  0  0
    1.4700    2.5900    1.0070 N   0  0  0  0  0  0  0  0  0  0  0  0
    1.4390    0.2290    0.7200 C   0  0  0  0  0  0  0  0  0  0  0  0
    1.9420   -0.9190    0.6160 O   0  0  0  0  0  0  0  0  0  0  0  0
    3.5210   -0.9160    2.9110 C   0  0  0  0  0  0  0  0  0  0  0  0
    4.3010   -2.0430    3.0550 C   0  0  0  0  0  0  0  0  0  0  0  0
    6.6620   -3.4800    3.6900 H   0  0  0  0  0  0  0  0  0  0  0  0
    7.1000   -0.9640    1.5750 H   0  0  0  0  0  0  0  0  0  0  0  0
    5.7110    1.0500    1.3170 H   0  0  0  0  0  0  0  0  0  0  0  0
    2.4710    1.4510    3.0890 H   0  0  0  0  0  0  0  0  0  0  0  0
    3.7630    2.2670    2.1820 H   0  0  0  0  0  0  0  0  0  0  0  0
    2.9630    1.5130    0.0580 H   0  0  0  0  0  0  0  0  0  0  0  0
    1.3850    2.9410    1.9870 H   0  0  0  0  0  0  0  0  0  0  0  0
    1.9080    3.3780    0.4630 H   0  0  0  0  0  0  0  0  0  0  0  0
    2.4890   -0.9240    3.3060 H   0  0  0  0  0  0  0  0  0  0  0  0
    3.9080   -2.9390    3.5520 H   0  0  0  0  0  0  0  0  0  0  0  0
    0.0270    0.3350    0.6170 N   0  0  0  0  0  0  0  0  0  0  0  0
   -0.7580   -0.8380    0.4030 C   0  0  1  0  0  0  0  0  0  0  0  0
   -1.7130   -1.0720    1.5520 C   0  0  0  0  0  0  0  0  0  0  0  0
   -2.6340    0.0950    1.6860 C   0  0  0  0  0  0  0  0  0  0  0  0
   -3.6040   -0.0650    2.7940 C   0  0  0  0  0  0  0  0  0  0  0  0
   -3.6490   -1.0740    3.5420 O   0  0  0  0  0  0  0  0  0  0  0  0
   -1.5640   -0.7110   -0.8670 C   0  0  0  0  0  0  0  0  0  0  0  0
   -1.5000    0.3180   -1.5870 O   0  0  0  0  0  0  0  0  0  0  0  0
   -4.5200    0.9490    3.0310 O   0  0  0  0  0  0  0  0  0  0  0  0
   -0.4460    1.2860    0.6970 H   0  0  0  0  0  0  0  0  0  0  0  0
   -0.0920   -1.7150    0.3320 H   0  0  0  0  0  0  0  0  0  0  0  0
   -1.0960   -1.2560    2.4520 H   0  0  0  0  0  0  0  0  0  0  0  0
   -2.2860   -1.9880    1.3500 H   0  0  0  0  0  0  0  0  0  0  0  0
   -2.0700    1.0270    1.8890 H   0  0  0  0  0  0  0  0  0  0  0  0
   -3.1830    0.2270    0.7520 H   0  0  0  0  0  0  0  0  0  0  0  0
   -5.0370    0.9830    3.9040 H   0  0  0  0  0  0  0  0  0  0  0  0
   -3.6460   -2.6130   -4.6160 O   0  0  0  0  0  0  0  0  0  0  0  0
   -2.8470   -2.7640   -3.4850 C   0  0  0  0  0  0  0  0  0  0  0  0
   -3.2150   -1.6650   -2.5110 C   0  0  2  0  0  0  0  0  0  0  0  0
   -2.4230   -1.7490   -1.2970 N   0  0  0  0  0  0  0  0  0  0  0  0
   -4.6440   -1.7330   -2.1340 C   0  0  0  0  0  0  0  0  0  0  0  0
   -5.5320   -1.6800   -3.0150 O   0  0  0  0  0  0  0  0  0  0  0  0
   -5.0390   -1.8560   -0.8160 O   0  0  0  0  0  0  0  0  0  0  0  0
   -3.9300   -1.6770   -4.7570 H   0  0  0  0  0  0  0  0  0  0  0  0
   -1.7970   -2.5700   -3.8300 H   0  0  0  0  0  0  0  0  0  0  0  0
   -2.9110   -3.7680   -3.0650 H   0  0  0  0  0  0  0  0  0  0  0  0
   -3.0630   -0.7090   -3.0430 H   0  0  0  0  0  0  0  0  0  0  0  0
   -2.4960   -2.6140   -0.7200 H   0  0  0  0  0  0  0  0  0  0  0  0
  1 13  1  0  0  0  0
  2  1  1  0  0  0  0
  2 12  1  0  0  0  0
  3  2  2  0  0  0  0
  4  3  1  0  0  0  0
  4  5  2  0  0  0  0
  5 11  1  0  0  0  0
  6 17  1  0  0  0  0
  6  5  1  0  0  0  0
  6 16  1  0  0  0  0
  7 18  1  6  0  0  0
  7  8  1  0  0  0  0
  7  6  1  0  0  0  0
  8 19  1  0  0  0  0
  9  7  1  0  0  0  0
 10  9  2  0  0  0  0
 11 12  2  0  0  0  0
 11 21  1  0  0  0  0
 12 22  1  0  0  0  0
 14  3  1  0  0  0  0
 15  4  1  0  0  0  0
 20  8  1  0  0  0  0
 23 32  1  0  0  0  0
 23  9  1  0  0  0  0
 24 33  1  6  0  0  0
 24 23  1  0  0  0  0
 24 25  1  0  0  0  0
 25 26  1  0  0  0  0
 25 34  1  0  0  0  0
 26 36  1  0  0  0  0
 26 27  1  0  0  0  0
 27 31  1  0  0  0  0
 27 28  2  0  0  0  0
 29 24  1  0  0  0  0
 30 29  2  0  0  0  0
 31 38  1  0  0  0  0
 35 25  1  0  0  0  0
 37 26  1  0  0  0  0
 39 40  1  0  0  0  0
 40 48  1  0  0  0  0
 40 41  1  0  0  0  0
 41 49  1  6  0  0  0
 41 43  1  0  0  0  0
 41 42  1  0  0  0  0
 42 29  1  0  0  0  0
 42 50  1  0  0  0  0
 43 45  1  0  0  0  0
 44 43  2  0  0  0  0
 46 39  1  0  0  0  0
 47 40  1  0  0  0  0
M  END
$$$$
