YEW.pdb
 OpenBabel07022419203D

 63 65  0  0  1  0  0  0  0  0999 V2000
   -2.3260    2.2000    6.8900 O   0  0  0  0  0  0  0  0  0  0  0  0
   -1.2700    1.7750    6.0760 C   0  0  0  0  0  0  0  0  0  0  0  0
   -0.0330    2.3810    6.0750 C   0  0  0  0  0  0  0  0  0  0  0  0
    1.0130    1.9840    5.2910 C   0  0  0  0  0  0  0  0  0  0  0  0
    0.8440    0.8950    4.4230 C   0  0  0  0  0  0  0  0  0  0  0  0
    1.9350    0.3950    3.5920 C   0  0  0  0  0  0  0  0  0  0  0  0
    2.1230    1.1580    2.3520 C   0  0  2  0  0  0  0  0  0  0  0  0
    2.4230    2.5760    2.5330 N   0  0  0  0  0  0  0  0  0  0  0  0
    1.2270    0.9870    1.2270 C   0  0  0  0  0  0  0  0  0  0  0  0
    1.1940    1.9560    0.3810 O   0  0  0  0  0  0  0  0  0  0  0  0
   -0.3820    0.2830    4.4140 C   0  0  0  0  0  0  0  0  0  0  0  0
   -1.4200    0.7060    5.2180 C   0  0  0  0  0  0  0  0  0  0  0  0
   -2.6630    1.5000    7.5580 H   0  0  0  0  0  0  0  0  0  0  0  0
    0.1000    3.2240    6.7460 H   0  0  0  0  0  0  0  0  0  0  0  0
    1.9930    2.4610    5.2880 H   0  0  0  0  0  0  0  0  0  0  0  0
    1.8880   -0.7130    3.4410 H   0  0  0  0  0  0  0  0  0  0  0  0
    2.8750    0.5090    4.2250 H   0  0  0  0  0  0  0  0  0  0  0  0
    3.1570    0.7890    1.9080 H   0  0  0  0  0  0  0  0  0  0  0  0
    3.2880    2.6320    3.1170 H   0  0  0  0  0  0  0  0  0  0  0  0
    2.6680    2.9460    1.5910 H   0  0  0  0  0  0  0  0  0  0  0  0
   -0.5780   -0.5790    3.7630 H   0  0  0  0  0  0  0  0  0  0  0  0
   -2.3820    0.1850    5.1760 H   0  0  0  0  0  0  0  0  0  0  0  0
    0.3820   -0.1060    0.9310 N   0  0  0  0  0  0  0  0  0  0  0  0
   -0.4220   -0.1620   -0.2290 C   0  0  1  0  0  0  0  0  0  0  0  0
   -1.4310    0.8210   -0.5860 C   0  0  0  0  0  0  0  0  0  0  0  0
   -2.5500    0.9630    0.3740 C   0  0  0  0  0  0  0  0  0  0  0  0
   -2.3330    1.5270    1.6910 C   0  0  0  0  0  0  0  0  0  0  0  0
   -1.3700    2.1860    2.1160 O   0  0  0  0  0  0  0  0  0  0  0  0
    0.4690   -0.5700   -1.3800 C   0  0  0  0  0  0  0  0  0  0  0  0
    1.6820   -0.7690   -1.1390 O   0  0  0  0  0  0  0  0  0  0  0  0
   -3.3720    1.2940    2.6310 O   0  0  0  0  0  0  0  0  0  0  0  0
    0.4170   -0.8880    1.6620 H   0  0  0  0  0  0  0  0  0  0  0  0
   -1.0680   -1.1340   -0.0490 H   0  0  0  0  0  0  0  0  0  0  0  0
   -1.9030    0.5070   -1.5570 H   0  0  0  0  0  0  0  0  0  0  0  0
   -1.0220    1.8440   -0.8290 H   0  0  0  0  0  0  0  0  0  0  0  0
   -3.0470   -0.0600    0.5600 H   0  0  0  0  0  0  0  0  0  0  0  0
   -3.4230    1.5290   -0.0810 H   0  0  0  0  0  0  0  0  0  0  0  0
   -3.4300    1.8550    3.4730 H   0  0  0  0  0  0  0  0  0  0  0  0
    0.0110   -0.7390   -2.6950 N   0  0  0  0  0  0  0  0  0  0  0  0
    0.8690   -1.1420   -3.7950 C   0  0  1  0  0  0  0  0  0  0  0  0
    0.4380   -2.4900   -4.3040 C   0  0  0  0  0  0  0  0  0  0  0  0
    0.4810   -3.5710   -3.3130 C   0  0  0  0  0  0  0  0  0  0  0  0
    1.5180   -4.4760   -3.0780 C   0  0  0  0  0  0  0  0  0  0  0  0
    1.2010   -5.2820   -2.0580 N   0  0  0  0  0  0  0  0  0  0  0  0
   -0.0320   -4.9070   -1.6310 C   0  0  0  0  0  0  0  0  0  0  0  0
   -0.8380   -5.4160   -0.6080 C   0  0  0  0  0  0  0  0  0  0  0  0
   -2.0830   -4.9000   -0.3340 C   0  0  0  0  0  0  0  0  0  0  0  0
   -2.5270   -3.8420   -1.1150 C   0  0  0  0  0  0  0  0  0  0  0  0
   -1.7490   -3.3390   -2.1150 C   0  0  0  0  0  0  0  0  0  0  0  0
   -0.5080   -3.8560   -2.3820 C   0  0  0  0  0  0  0  0  0  0  0  0
    0.8780   -0.1700   -4.8920 C   0  0  0  0  0  0  0  0  0  0  0  0
    0.2040    0.8790   -4.8180 O   0  0  0  0  0  0  0  0  0  0  0  0
    1.6330   -0.4040   -6.0210 O   0  0  0  0  0  0  0  0  0  0  0  0
   -0.9930   -0.5550   -2.8920 H   0  0  0  0  0  0  0  0  0  0  0  0
    1.9240   -1.2690   -3.4690 H   0  0  0  0  0  0  0  0  0  0  0  0
   -0.5740   -2.4650   -4.7700 H   0  0  0  0  0  0  0  0  0  0  0  0
    1.1300   -2.7560   -5.1330 H   0  0  0  0  0  0  0  0  0  0  0  0
    2.4380   -4.5210   -3.6350 H   0  0  0  0  0  0  0  0  0  0  0  0
    1.7720   -6.0650   -1.6400 H   0  0  0  0  0  0  0  0  0  0  0  0
   -0.4380   -6.2400   -0.0340 H   0  0  0  0  0  0  0  0  0  0  0  0
   -2.7060   -5.2950    0.4580 H   0  0  0  0  0  0  0  0  0  0  0  0
   -3.5280   -3.4430   -0.8820 H   0  0  0  0  0  0  0  0  0  0  0  0
   -2.1400   -2.5340   -2.7020 H   0  0  0  0  0  0  0  0  0  0  0  0
  1 13  1  0  0  0  0
  2  1  1  0  0  0  0
  3  2  1  0  0  0  0
  3 14  1  0  0  0  0
  4  3  2  0  0  0  0
  5  4  1  0  0  0  0
  6 17  1  0  0  0  0
  6  5  1  0  0  0  0
  7 18  1  6  0  0  0
  7  8  1  0  0  0  0
  7  6  1  0  0  0  0
  8 19  1  0  0  0  0
  9  7  1  0  0  0  0
 10  9  2  0  0  0  0
 11  5  2  0  0  0  0
 11 12  1  0  0  0  0
 12  2  2  0  0  0  0
 15  4  1  0  0  0  0
 16  6  1  0  0  0  0
 20  8  1  0  0  0  0
 21 11  1  0  0  0  0
 22 12  1  0  0  0  0
 23  9  1  0  0  0  0
 23 32  1  0  0  0  0
 24 33  1  1  0  0  0
 24 23  1  0  0  0  0
 25 24  1  0  0  0  0
 25 26  1  0  0  0  0
 26 36  1  0  0  0  0
 26 27  1  0  0  0  0
 27 28  2  0  0  0  0
 27 31  1  0  0  0  0
 29 30  2  0  0  0  0
 29 24  1  0  0  0  0
 31 38  1  0  0  0  0
 34 25  1  0  0  0  0
 35 25  1  0  0  0  0
 37 26  1  0  0  0  0
 39 29  1  0  0  0  0
 40 55  1  1  0  0  0
 40 39  1  0  0  0  0
 41 40  1  0  0  0  0
 41 42  1  0  0  0  0
 42 43  2  0  0  0  0
 42 50  1  0  0  0  0
 43 44  1  0  0  0  0
 44 59  1  0  0  0  0
 44 45  1  0  0  0  0
 45 46  1  0  0  0  0
 46 47  2  0  0  0  0
 46 60  1  0  0  0  0
 47 61  1  0  0  0  0
 48 62  1  0  0  0  0
 48 47  1  0  0  0  0
 49 48  2  0  0  0  0
 50 49  1  0  0  0  0
 50 45  2  0  0  0  0
 51 52  1  0  0  0  0
 51 40  1  0  0  0  0
 53 51  2  0  0  0  0
 54 39  1  0  0  0  0
 56 41  1  0  0  0  0
 57 41  1  0  0  0  0
 58 43  1  0  0  0  0
 63 49  1  0  0  0  0
M  END
$$$$
