YFA.pdb
 OpenBabel07022419223D

 53 54  0  0  1  0  0  0  0  0999 V2000
    0.3910   -0.8170    7.4090 O   0  0  0  0  0  0  0  0  0  0  0  0
    1.0760   -0.7020    6.1940 C   0  0  0  0  0  0  0  0  0  0  0  0
    2.1160   -1.5540    5.8770 C   0  0  0  0  0  0  0  0  0  0  0  0
    2.7700   -1.4230    4.6860 C   0  0  0  0  0  0  0  0  0  0  0  0
    2.4110   -0.4420    3.7740 C   0  0  0  0  0  0  0  0  0  0  0  0
    3.1830   -0.3690    2.5340 C   0  0  0  0  0  0  0  0  0  0  0  0
    2.6310   -1.2960    1.4810 C   0  0  2  0  0  0  0  0  0  0  0  0
    3.4310   -1.1930    0.2560 N   0  0  0  0  0  0  0  0  0  0  0  0
    1.2240   -0.9820    1.2320 C   0  0  0  0  0  0  0  0  0  0  0  0
    0.3410   -1.1230    2.1130 O   0  0  0  0  0  0  0  0  0  0  0  0
    1.3790    0.3980    4.0960 C   0  0  0  0  0  0  0  0  0  0  0  0
    0.7300    0.2640    5.2860 C   0  0  0  0  0  0  0  0  0  0  0  0
   -0.1610   -1.6500    7.5290 H   0  0  0  0  0  0  0  0  0  0  0  0
    2.4140   -2.3330    6.5830 H   0  0  0  0  0  0  0  0  0  0  0  0
    3.5800   -2.1060    4.4690 H   0  0  0  0  0  0  0  0  0  0  0  0
    3.2630    0.6740    2.1350 H   0  0  0  0  0  0  0  0  0  0  0  0
    4.2530   -0.6450    2.7720 H   0  0  0  0  0  0  0  0  0  0  0  0
    2.7970   -2.3370    1.8570 H   0  0  0  0  0  0  0  0  0  0  0  0
    4.4230   -0.9470    0.4870 H   0  0  0  0  0  0  0  0  0  0  0  0
    3.4750   -2.1090   -0.2510 H   0  0  0  0  0  0  0  0  0  0  0  0
    1.0800    1.1860    3.3860 H   0  0  0  0  0  0  0  0  0  0  0  0
   -0.0820    0.9310    5.5320 H   0  0  0  0  0  0  0  0  0  0  0  0
    0.7430   -0.4920   -0.0300 N   0  0  0  0  0  0  0  0  0  0  0  0
   -0.6540   -0.1800   -0.2790 C   0  0  1  0  0  0  0  0  0  0  0  0
   -0.8460    1.2310   -0.7080 C   0  0  0  0  0  0  0  0  0  0  0  0
   -2.2770    1.5080   -0.9520 C   0  0  0  0  0  0  0  0  0  0  0  0
   -3.1250    1.8650    0.1060 C   0  0  0  0  0  0  0  0  0  0  0  0
   -4.4570    2.1560   -0.0810 C   0  0  0  0  0  0  0  0  0  0  0  0
   -5.0240    2.1070   -1.3360 C   0  0  0  0  0  0  0  0  0  0  0  0
   -4.2110    1.7580   -2.3930 C   0  0  0  0  0  0  0  0  0  0  0  0
   -2.8770    1.4680   -2.1980 C   0  0  0  0  0  0  0  0  0  0  0  0
   -1.1710   -1.1080   -1.3040 C   0  0  0  0  0  0  0  0  0  0  0  0
   -2.3710   -1.1390   -1.6950 O   0  0  0  0  0  0  0  0  0  0  0  0
    1.4510   -0.3640   -0.7780 H   0  0  0  0  0  0  0  0  0  0  0  0
   -1.2740   -0.3460    0.6300 H   0  0  0  0  0  0  0  0  0  0  0  0
   -0.3900    1.9690   -0.0110 H   0  0  0  0  0  0  0  0  0  0  0  0
   -0.3060    1.3570   -1.6710 H   0  0  0  0  0  0  0  0  0  0  0  0
   -2.6690    1.9020    1.0940 H   0  0  0  0  0  0  0  0  0  0  0  0
   -5.1080    2.4340    0.7480 H   0  0  0  0  0  0  0  0  0  0  0  0
   -6.0760    2.3330   -1.5100 H   0  0  0  0  0  0  0  0  0  0  0  0
   -4.6700    1.7240   -3.3750 H   0  0  0  0  0  0  0  0  0  0  0  0
   -2.2600    1.2020   -3.0600 H   0  0  0  0  0  0  0  0  0  0  0  0
   -0.0790   -2.7190   -4.2500 C   0  0  0  0  0  0  0  0  0  0  0  0
   -0.8050   -2.9560   -2.9240 C   0  0  2  0  0  0  0  0  0  0  0  0
   -0.2870   -2.0510   -1.9190 N   0  0  0  0  0  0  0  0  0  0  0  0
   -0.5070   -4.3360   -2.4600 C   0  0  0  0  0  0  0  0  0  0  0  0
   -0.8760   -5.2870   -3.1950 O   0  0  0  0  0  0  0  0  0  0  0  0
    0.1450   -4.6130   -1.2810 O   0  0  0  0  0  0  0  0  0  0  0  0
   -0.6620   -3.2730   -5.0210 H   0  0  0  0  0  0  0  0  0  0  0  0
   -0.0140   -1.6530   -4.5030 H   0  0  0  0  0  0  0  0  0  0  0  0
    0.9690   -3.0930   -4.1830 H   0  0  0  0  0  0  0  0  0  0  0  0
   -1.8680   -2.8000   -3.0990 H   0  0  0  0  0  0  0  0  0  0  0  0
    0.7050   -2.0500   -1.6170 H   0  0  0  0  0  0  0  0  0  0  0  0
  1 13  1  0  0  0  0
  2  1  1  0  0  0  0
  3  2  1  0  0  0  0
  3 14  1  0  0  0  0
  4  3  2  0  0  0  0
  5 11  2  0  0  0  0
  5  4  1  0  0  0  0
  6 17  1  0  0  0  0
  6  5  1  0  0  0  0
  7 18  1  1  0  0  0
  7  6  1  0  0  0  0
  8 19  1  0  0  0  0
  8  7  1  0  0  0  0
  9  7  1  0  0  0  0
  9 10  2  0  0  0  0
 11 12  1  0  0  0  0
 12 22  1  0  0  0  0
 12  2  2  0  0  0  0
 15  4  1  0  0  0  0
 16  6  1  0  0  0  0
 20  8  1  0  0  0  0
 21 11  1  0  0  0  0
 23  9  1  0  0  0  0
 24 23  1  0  0  0  0
 24 35  1  1  0  0  0
 25 24  1  0  0  0  0
 25 36  1  0  0  0  0
 26 25  1  0  0  0  0
 26 27  1  0  0  0  0
 27 38  1  0  0  0  0
 28 27  2  0  0  0  0
 28 39  1  0  0  0  0
 29 28  1  0  0  0  0
 30 31  1  0  0  0  0
 30 29  2  0  0  0  0
 31 26  2  0  0  0  0
 32 24  1  0  0  0  0
 33 32  2  0  0  0  0
 34 23  1  0  0  0  0
 37 25  1  0  0  0  0
 40 29  1  0  0  0  0
 41 30  1  0  0  0  0
 42 31  1  0  0  0  0
 43 51  1  0  0  0  0
 43 44  1  0  0  0  0
 44 52  1  6  0  0  0
 44 46  1  0  0  0  0
 44 45  1  0  0  0  0
 45 53  1  0  0  0  0
 45 32  1  0  0  0  0
 46 48  1  0  0  0  0
 47 46  2  0  0  0  0
 49 43  1  0  0  0  0
 50 43  1  0  0  0  0
M  END
$$$$
