YFC.pdb
 OpenBabel07022419223D

 54 55  0  0  1  0  0  0  0  0999 V2000
    1.4850   -0.5880    6.6500 O   0  0  0  0  0  0  0  0  0  0  0  0
    1.9620   -0.5280    5.3490 C   0  0  0  0  0  0  0  0  0  0  0  0
    1.1650   -0.9110    4.2830 C   0  0  0  0  0  0  0  0  0  0  0  0
    1.6220   -0.8570    2.9970 C   0  0  0  0  0  0  0  0  0  0  0  0
    2.8980   -0.4190    2.6960 C   0  0  0  0  0  0  0  0  0  0  0  0
    3.2760   -0.4150    1.2800 C   0  0  0  0  0  0  0  0  0  0  0  0
    2.8980    0.8260    0.5290 C   0  0  2  0  0  0  0  0  0  0  0  0
    3.4960    2.0170    1.0920 N   0  0  0  0  0  0  0  0  0  0  0  0
    1.4440    0.9650    0.3320 C   0  0  0  0  0  0  0  0  0  0  0  0
    0.8240    1.9470    0.8100 O   0  0  0  0  0  0  0  0  0  0  0  0
    3.6940   -0.0380    3.7310 C   0  0  0  0  0  0  0  0  0  0  0  0
    3.2390   -0.0900    5.0330 C   0  0  0  0  0  0  0  0  0  0  0  0
    0.7260   -1.2610    6.8270 H   0  0  0  0  0  0  0  0  0  0  0  0
    0.1480   -1.2630    4.4940 H   0  0  0  0  0  0  0  0  0  0  0  0
    0.9320   -1.1680    2.2040 H   0  0  0  0  0  0  0  0  0  0  0  0
    4.3610   -0.5560    1.1860 H   0  0  0  0  0  0  0  0  0  0  0  0
    2.7850   -1.2810    0.7950 H   0  0  0  0  0  0  0  0  0  0  0  0
    3.3420    0.7250   -0.4850 H   0  0  0  0  0  0  0  0  0  0  0  0
    3.6250    2.7850    0.4310 H   0  0  0  0  0  0  0  0  0  0  0  0
    4.3520    1.7590    1.6290 H   0  0  0  0  0  0  0  0  0  0  0  0
    4.6760    0.3000    3.5150 H   0  0  0  0  0  0  0  0  0  0  0  0
    3.8900    0.2170    5.8400 H   0  0  0  0  0  0  0  0  0  0  0  0
    0.6980    0.0040   -0.4020 N   0  0  0  0  0  0  0  0  0  0  0  0
   -0.7270    0.2100   -0.5530 C   0  0  1  0  0  0  0  0  0  0  0  0
   -1.0220    0.7070   -1.9660 C   0  0  0  0  0  0  0  0  0  0  0  0
   -2.4600    0.9230   -2.1440 C   0  0  0  0  0  0  0  0  0  0  0  0
   -3.0320    2.1390   -1.7520 C   0  0  0  0  0  0  0  0  0  0  0  0
   -4.3710    2.4020   -1.9210 C   0  0  0  0  0  0  0  0  0  0  0  0
   -5.1580    1.4370   -2.4940 C   0  0  0  0  0  0  0  0  0  0  0  0
   -4.6100    0.2210   -2.8920 C   0  0  0  0  0  0  0  0  0  0  0  0
   -3.2750   -0.0460   -2.7240 C   0  0  0  0  0  0  0  0  0  0  0  0
   -1.4470   -1.0410   -0.3250 C   0  0  0  0  0  0  0  0  0  0  0  0
   -2.7240   -1.1090   -0.3190 O   0  0  0  0  0  0  0  0  0  0  0  0
    1.1680   -0.8150   -0.8240 H   0  0  0  0  0  0  0  0  0  0  0  0
   -1.0670    1.0600    0.0970 H   0  0  0  0  0  0  0  0  0  0  0  0
   -0.7150   -0.1190   -2.6670 H   0  0  0  0  0  0  0  0  0  0  0  0
   -0.3920    1.5700   -2.2330 H   0  0  0  0  0  0  0  0  0  0  0  0
   -2.3590    2.8740   -1.3000 H   0  0  0  0  0  0  0  0  0  0  0  0
   -4.7530    3.3650   -1.5950 H   0  0  0  0  0  0  0  0  0  0  0  0
   -6.2070    1.6640   -2.6180 H   0  0  0  0  0  0  0  0  0  0  0  0
   -5.2720   -0.4990   -3.3340 H   0  0  0  0  0  0  0  0  0  0  0  0
   -2.8390   -1.0080   -3.0430 H   0  0  0  0  0  0  0  0  0  0  0  0
   -0.7700   -2.2630   -0.1010 N   0  0  0  0  0  0  0  0  0  0  0  0
   -1.5760   -3.4740    0.1040 C   0  0  1  0  0  0  0  0  0  0  0  0
   -1.2840   -4.3340   -1.1340 C   0  0  0  0  0  0  0  0  0  0  0  0
    0.5020   -4.6540   -1.1330 S   0  0  0  0  0  0  0  0  0  0  0  0
   -1.1250   -4.1600    1.3190 C   0  0  0  0  0  0  0  0  0  0  0  0
   -1.6980   -5.2270    1.6950 O   0  0  0  0  0  0  0  0  0  0  0  0
   -0.0770   -3.6670    2.0740 O   0  0  0  0  0  0  0  0  0  0  0  0
    0.2520   -2.3790   -0.0640 H   0  0  0  0  0  0  0  0  0  0  0  0
   -2.6510   -3.2570    0.1250 H   0  0  0  0  0  0  0  0  0  0  0  0
   -1.5680   -3.7100   -2.0160 H   0  0  0  0  0  0  0  0  0  0  0  0
   -1.8720   -5.2680   -1.1160 H   0  0  0  0  0  0  0  0  0  0  0  0
    0.9870   -4.3670   -2.4220 H   0  0  0  0  0  0  0  0  0  0  0  0
  1 13  1  0  0  0  0
  2  1  1  0  0  0  0
  3 14  1  0  0  0  0
  3  2  2  0  0  0  0
  4  3  1  0  0  0  0
  5  4  2  0  0  0  0
  5 11  1  0  0  0  0
  6  5  1  0  0  0  0
  7 18  1  6  0  0  0
  7  8  1  0  0  0  0
  7  6  1  0  0  0  0
  8 20  1  0  0  0  0
  9  7  1  0  0  0  0
  9 10  2  0  0  0  0
 11 12  2  0  0  0  0
 12  2  1  0  0  0  0
 12 22  1  0  0  0  0
 15  4  1  0  0  0  0
 16  6  1  0  0  0  0
 17  6  1  0  0  0  0
 19  8  1  0  0  0  0
 21 11  1  0  0  0  0
 23  9  1  0  0  0  0
 24 23  1  0  0  0  0
 24 32  1  0  0  0  0
 24 35  1  1  0  0  0
 25 24  1  0  0  0  0
 26 25  1  0  0  0  0
 26 27  1  0  0  0  0
 27 38  1  0  0  0  0
 28 27  2  0  0  0  0
 28 39  1  0  0  0  0
 29 28  1  0  0  0  0
 30 31  1  0  0  0  0
 30 29  2  0  0  0  0
 31 26  2  0  0  0  0
 32 33  2  0  0  0  0
 32 43  1  0  0  0  0
 34 23  1  0  0  0  0
 36 25  1  0  0  0  0
 37 25  1  0  0  0  0
 40 29  1  0  0  0  0
 41 30  1  0  0  0  0
 42 31  1  0  0  0  0
 43 50  1  0  0  0  0
 43 44  1  0  0  0  0
 44 51  1  1  0  0  0
 44 47  1  0  0  0  0
 45 46  1  0  0  0  0
 45 53  1  0  0  0  0
 45 44  1  0  0  0  0
 47 48  2  0  0  0  0
 47 49  1  0  0  0  0
 52 45  1  0  0  0  0
 54 46  1  0  0  0  0
M  END
$$$$
