YFN.pdb
 OpenBabel07022419223D

 57 58  0  0  1  0  0  0  0  0999 V2000
   -0.7680    0.1370    6.9470 O   0  0  0  0  0  0  0  0  0  0  0  0
    0.1400   -0.4820    6.0730 C   0  0  0  0  0  0  0  0  0  0  0  0
    1.4850   -0.1890    6.1340 C   0  0  0  0  0  0  0  0  0  0  0  0
    2.4220   -0.7660    5.3020 C   0  0  0  0  0  0  0  0  0  0  0  0
    2.0090   -1.6810    4.3580 C   0  0  0  0  0  0  0  0  0  0  0  0
    3.0290   -2.2970    3.4700 C   0  0  0  0  0  0  0  0  0  0  0  0
    3.2610   -1.5140    2.2080 C   0  0  2  0  0  0  0  0  0  0  0  0
    3.7140   -0.1860    2.4290 N   0  0  0  0  0  0  0  0  0  0  0  0
    2.0550   -1.6170    1.3600 C   0  0  0  0  0  0  0  0  0  0  0  0
    1.6180   -2.7880    1.1420 O   0  0  0  0  0  0  0  0  0  0  0  0
    0.6660   -1.9830    4.2870 C   0  0  0  0  0  0  0  0  0  0  0  0
   -0.2580   -1.3980    5.1260 C   0  0  0  0  0  0  0  0  0  0  0  0
   -0.7620   -0.1460    7.9320 H   0  0  0  0  0  0  0  0  0  0  0  0
    1.8420    0.5380    6.8770 H   0  0  0  0  0  0  0  0  0  0  0  0
    3.4600   -0.4740    5.4220 H   0  0  0  0  0  0  0  0  0  0  0  0
    2.6790   -3.3240    3.2470 H   0  0  0  0  0  0  0  0  0  0  0  0
    4.0180   -2.3990    3.9930 H   0  0  0  0  0  0  0  0  0  0  0  0
    4.0740   -2.0620    1.6560 H   0  0  0  0  0  0  0  0  0  0  0  0
    3.2090    0.3380    3.1680 H   0  0  0  0  0  0  0  0  0  0  0  0
    3.7670    0.3190    1.5290 H   0  0  0  0  0  0  0  0  0  0  0  0
    0.3140   -2.6940    3.5600 H   0  0  0  0  0  0  0  0  0  0  0  0
   -1.3060   -1.6460    5.0560 H   0  0  0  0  0  0  0  0  0  0  0  0
    1.3700   -0.5510    0.7910 N   0  0  0  0  0  0  0  0  0  0  0  0
    0.1750   -0.7220   -0.0440 C   0  0  1  0  0  0  0  0  0  0  0  0
   -0.9590   -0.1520    0.7440 C   0  0  0  0  0  0  0  0  0  0  0  0
   -2.2930   -0.2100    0.1140 C   0  0  0  0  0  0  0  0  0  0  0  0
   -3.0720   -1.3580    0.1950 C   0  0  0  0  0  0  0  0  0  0  0  0
   -4.3200   -1.3680   -0.3600 C   0  0  0  0  0  0  0  0  0  0  0  0
   -4.8490   -0.2760   -1.0060 C   0  0  0  0  0  0  0  0  0  0  0  0
   -4.0850    0.8740   -1.0950 C   0  0  0  0  0  0  0  0  0  0  0  0
   -2.8340    0.8780   -0.5360 C   0  0  0  0  0  0  0  0  0  0  0  0
    0.3900   -0.2550   -1.3920 C   0  0  0  0  0  0  0  0  0  0  0  0
    1.4840    0.3410   -1.7210 O   0  0  0  0  0  0  0  0  0  0  0  0
    1.6890    0.4230    0.9410 H   0  0  0  0  0  0  0  0  0  0  0  0
    0.0030   -1.8350   -0.0710 H   0  0  0  0  0  0  0  0  0  0  0  0
   -0.7580    0.9380    0.9720 H   0  0  0  0  0  0  0  0  0  0  0  0
   -1.0430   -0.6170    1.7560 H   0  0  0  0  0  0  0  0  0  0  0  0
   -2.6580   -2.2150    0.7010 H   0  0  0  0  0  0  0  0  0  0  0  0
   -4.9610   -2.2620   -0.3130 H   0  0  0  0  0  0  0  0  0  0  0  0
   -5.8390   -0.3080   -1.4370 H   0  0  0  0  0  0  0  0  0  0  0  0
   -4.4710    1.7500   -1.5960 H   0  0  0  0  0  0  0  0  0  0  0  0
   -2.2220    1.7920   -0.6040 H   0  0  0  0  0  0  0  0  0  0  0  0
    1.4450   -2.2320   -3.4990 N   0  0  0  0  0  0  0  0  0  0  0  0
    0.5510   -2.1760   -4.5910 C   0  0  0  0  0  0  0  0  0  0  0  0
    0.5320   -3.1320   -5.4000 O   0  0  0  0  0  0  0  0  0  0  0  0
   -0.3530   -1.0400   -4.8110 C   0  0  0  0  0  0  0  0  0  0  0  0
   -0.2430    0.0570   -3.7760 C   0  0  2  0  0  0  0  0  0  0  0  0
   -0.5370   -0.4060   -2.4490 N   0  0  0  0  0  0  0  0  0  0  0  0
   -1.0700    1.1740   -4.2360 C   0  0  0  0  0  0  0  0  0  0  0  0
   -0.9130    1.6820   -5.3980 O   0  0  0  0  0  0  0  0  0  0  0  0
   -2.0540    1.7440   -3.4700 O   0  0  0  0  0  0  0  0  0  0  0  0
    2.2830   -1.6180   -3.4750 H   0  0  0  0  0  0  0  0  0  0  0  0
    1.2410   -2.9010   -2.7250 H   0  0  0  0  0  0  0  0  0  0  0  0
   -0.0350   -0.5630   -5.7850 H   0  0  0  0  0  0  0  0  0  0  0  0
   -1.4050   -1.3420   -4.9730 H   0  0  0  0  0  0  0  0  0  0  0  0
    0.8320    0.4080   -3.7990 H   0  0  0  0  0  0  0  0  0  0  0  0
   -1.4780   -0.8750   -2.3080 H   0  0  0  0  0  0  0  0  0  0  0  0
  1 13  1  0  0  0  0
  2  3  1  0  0  0  0
  2  1  1  0  0  0  0
  3 14  1  0  0  0  0
  4 15  1  0  0  0  0
  4  3  2  0  0  0  0
  5  4  1  0  0  0  0
  6 17  1  0  0  0  0
  6  5  1  0  0  0  0
  7 18  1  6  0  0  0
  7  8  1  0  0  0  0
  7  6  1  0  0  0  0
  8 19  1  0  0  0  0
  9  7  1  0  0  0  0
 10  9  2  0  0  0  0
 11  5  2  0  0  0  0
 11 12  1  0  0  0  0
 12  2  2  0  0  0  0
 16  6  1  0  0  0  0
 20  8  1  0  0  0  0
 21 11  1  0  0  0  0
 22 12  1  0  0  0  0
 23 34  1  0  0  0  0
 23  9  1  0  0  0  0
 24 35  1  6  0  0  0
 24 25  1  0  0  0  0
 24 23  1  0  0  0  0
 25 36  1  0  0  0  0
 25 37  1  0  0  0  0
 26 27  1  0  0  0  0
 26 25  1  0  0  0  0
 27 38  1  0  0  0  0
 28 39  1  0  0  0  0
 28 27  2  0  0  0  0
 29 28  1  0  0  0  0
 30 29  2  0  0  0  0
 30 31  1  0  0  0  0
 31 26  2  0  0  0  0
 32 24  1  0  0  0  0
 33 32  2  0  0  0  0
 40 29  1  0  0  0  0
 41 30  1  0  0  0  0
 42 31  1  0  0  0  0
 43 52  1  0  0  0  0
 43 53  1  0  0  0  0
 44 43  1  0  0  0  0
 45 44  2  0  0  0  0
 46 44  1  0  0  0  0
 46 47  1  0  0  0  0
 47 56  1  6  0  0  0
 47 48  1  0  0  0  0
 48 57  1  0  0  0  0
 48 32  1  0  0  0  0
 49 47  1  0  0  0  0
 49 51  1  0  0  0  0
 50 49  2  0  0  0  0
 54 46  1  0  0  0  0
 55 46  1  0  0  0  0
M  END
$$$$
