YFP.pdb
 OpenBabel07022419223D

 57 59  0  0  1  0  0  0  0  0999 V2000
   -0.2190    2.5160    5.8750 O   0  0  0  0  0  0  0  0  0  0  0  0
    0.6650    1.5860    5.3380 C   0  0  0  0  0  0  0  0  0  0  0  0
    0.2560    0.3070    5.0180 C   0  0  0  0  0  0  0  0  0  0  0  0
    1.1910   -0.5600    4.4890 C   0  0  0  0  0  0  0  0  0  0  0  0
    2.5130   -0.2130    4.2640 C   0  0  0  0  0  0  0  0  0  0  0  0
    3.4560   -1.2020    3.6920 C   0  0  0  0  0  0  0  0  0  0  0  0
    3.5150   -1.1720    2.1850 C   0  0  2  0  0  0  0  0  0  0  0  0
    3.9390    0.1280    1.6920 N   0  0  0  0  0  0  0  0  0  0  0  0
    2.2290   -1.5870    1.5600 C   0  0  0  0  0  0  0  0  0  0  0  0
    1.7220   -2.6950    1.8720 O   0  0  0  0  0  0  0  0  0  0  0  0
    2.9180    1.0670    4.5850 C   0  0  0  0  0  0  0  0  0  0  0  0
    1.9920    1.9410    5.1140 C   0  0  0  0  0  0  0  0  0  0  0  0
   -0.2190    2.6210    6.8910 H   0  0  0  0  0  0  0  0  0  0  0  0
   -0.7770   -0.0180    5.1760 H   0  0  0  0  0  0  0  0  0  0  0  0
    0.8690   -1.5820    4.2320 H   0  0  0  0  0  0  0  0  0  0  0  0
    4.4650   -0.9990    4.0930 H   0  0  0  0  0  0  0  0  0  0  0  0
    3.0990   -2.2070    3.9920 H   0  0  0  0  0  0  0  0  0  0  0  0
    4.3030   -1.8950    1.8860 H   0  0  0  0  0  0  0  0  0  0  0  0
    3.2790    0.8800    1.9120 H   0  0  0  0  0  0  0  0  0  0  0  0
    4.9120    0.2770    2.0250 H   0  0  0  0  0  0  0  0  0  0  0  0
    3.9570    1.3660    4.4170 H   0  0  0  0  0  0  0  0  0  0  0  0
    2.2950    2.9600    5.3750 H   0  0  0  0  0  0  0  0  0  0  0  0
    1.5410   -0.7850    0.6220 N   0  0  0  0  0  0  0  0  0  0  0  0
    0.2500   -1.2190    0.0070 C   0  0  1  0  0  0  0  0  0  0  0  0
   -0.7460   -0.1930    0.4850 C   0  0  0  0  0  0  0  0  0  0  0  0
   -2.1370   -0.3430    0.0700 C   0  0  0  0  0  0  0  0  0  0  0  0
   -3.0500   -1.0870    0.7860 C   0  0  0  0  0  0  0  0  0  0  0  0
   -4.3420   -1.1830    0.3810 C   0  0  0  0  0  0  0  0  0  0  0  0
   -4.8230   -0.5520   -0.7600 C   0  0  0  0  0  0  0  0  0  0  0  0
   -3.8940    0.1890   -1.4630 C   0  0  0  0  0  0  0  0  0  0  0  0
   -2.5840    0.2990   -1.0710 C   0  0  0  0  0  0  0  0  0  0  0  0
    0.4290   -1.3020   -1.4420 C   0  0  0  0  0  0  0  0  0  0  0  0
    1.4510   -0.6650   -1.9110 O   0  0  0  0  0  0  0  0  0  0  0  0
    1.9300    0.1300    0.3430 H   0  0  0  0  0  0  0  0  0  0  0  0
    0.0120   -2.1870    0.4260 H   0  0  0  0  0  0  0  0  0  0  0  0
   -0.7550   -0.1950    1.6160 H   0  0  0  0  0  0  0  0  0  0  0  0
   -0.3970    0.8480    0.2320 H   0  0  0  0  0  0  0  0  0  0  0  0
   -2.7250   -1.5930    1.6740 H   0  0  0  0  0  0  0  0  0  0  0  0
   -5.0940   -1.7680    0.9290 H   0  0  0  0  0  0  0  0  0  0  0  0
   -5.8580   -0.6400   -1.0680 H   0  0  0  0  0  0  0  0  0  0  0  0
   -4.2540    0.6940   -2.3650 H   0  0  0  0  0  0  0  0  0  0  0  0
   -1.8880    0.9120   -1.6730 H   0  0  0  0  0  0  0  0  0  0  0  0
   -0.3590   -1.9910   -2.3980 N   0  0  0  0  0  0  0  0  0  0  0  0
   -1.5140   -2.8350   -2.1900 C   0  0  0  0  0  0  0  0  0  0  0  0
   -2.3720   -2.5910   -3.4180 C   0  0  0  0  0  0  0  0  0  0  0  0
   -1.2780   -2.5640   -4.4930 C   0  0  0  0  0  0  0  0  0  0  0  0
   -0.0830   -1.9630   -3.8130 C   0  0  1  0  0  0  0  0  0  0  0  0
    0.1210   -0.6030   -4.3690 C   0  0  0  0  0  0  0  0  0  0  0  0
    0.4580   -0.4540   -5.5720 O   0  0  0  0  0  0  0  0  0  0  0  0
   -0.0490    0.5070   -3.6120 O   0  0  0  0  0  0  0  0  0  0  0  0
   -1.1420   -3.8950   -2.3090 H   0  0  0  0  0  0  0  0  0  0  0  0
   -2.0110   -2.7850   -1.2480 H   0  0  0  0  0  0  0  0  0  0  0  0
   -2.8720   -1.6290   -3.4420 H   0  0  0  0  0  0  0  0  0  0  0  0
   -3.0570   -3.4120   -3.6530 H   0  0  0  0  0  0  0  0  0  0  0  0
   -1.0600   -3.5980   -4.8400 H   0  0  0  0  0  0  0  0  0  0  0  0
   -1.5850   -1.9110   -5.3260 H   0  0  0  0  0  0  0  0  0  0  0  0
    0.8320   -2.6010   -3.9990 H   0  0  0  0  0  0  0  0  0  0  0  0
  1 13  1  0  0  0  0
  2  1  1  0  0  0  0
  3 14  1  0  0  0  0
  3  2  2  0  0  0  0
  4  3  1  0  0  0  0
  5  4  2  0  0  0  0
  5 11  1  0  0  0  0
  6 17  1  0  0  0  0
  6 16  1  0  0  0  0
  6  5  1  0  0  0  0
  7 18  1  6  0  0  0
  7  6  1  0  0  0  0
  8 19  1  0  0  0  0
  8 20  1  0  0  0  0
  8  7  1  0  0  0  0
  9 10  2  0  0  0  0
  9  7  1  0  0  0  0
 11 12  2  0  0  0  0
 12  2  1  0  0  0  0
 12 22  1  0  0  0  0
 15  4  1  0  0  0  0
 21 11  1  0  0  0  0
 23  9  1  0  0  0  0
 24 35  1  1  0  0  0
 24 25  1  0  0  0  0
 24 23  1  0  0  0  0
 25 36  1  0  0  0  0
 26 25  1  0  0  0  0
 26 27  1  0  0  0  0
 27 38  1  0  0  0  0
 28 27  2  0  0  0  0
 28 39  1  0  0  0  0
 29 28  1  0  0  0  0
 30 31  1  0  0  0  0
 30 29  2  0  0  0  0
 31 26  2  0  0  0  0
 32 24  1  0  0  0  0
 33 32  2  0  0  0  0
 34 23  1  0  0  0  0
 37 25  1  0  0  0  0
 40 29  1  0  0  0  0
 41 30  1  0  0  0  0
 42 31  1  0  0  0  0
 43 44  1  0  0  0  0
 43 32  1  0  0  0  0
 44 52  1  0  0  0  0
 45 44  1  0  0  0  0
 46 47  1  0  0  0  0
 46 45  1  0  0  0  0
 47 57  1  6  0  0  0
 47 43  1  0  0  0  0
 48 47  1  0  0  0  0
 48 50  1  0  0  0  0
 49 48  2  0  0  0  0
 51 44  1  0  0  0  0
 53 45  1  0  0  0  0
 54 45  1  0  0  0  0
 55 46  1  0  0  0  0
 56 46  1  0  0  0  0
M  END
$$$$
