YFQ.pdb
 OpenBabel07022419223D

 60 61  0  0  1  0  0  0  0  0999 V2000
    5.6430    0.1180    3.6020 O   0  0  0  0  0  0  0  0  0  0  0  0
    4.7580    0.6850    2.6670 C   0  0  0  0  0  0  0  0  0  0  0  0
    4.0960   -0.0940    1.7480 C   0  0  0  0  0  0  0  0  0  0  0  0
    3.2350    0.4900    0.8370 C   0  0  0  0  0  0  0  0  0  0  0  0
    3.0030    1.8360    0.8050 C   0  0  0  0  0  0  0  0  0  0  0  0
    2.0930    2.4530   -0.1510 C   0  0  0  0  0  0  0  0  0  0  0  0
    0.6910    2.6700    0.2690 C   0  0  2  0  0  0  0  0  0  0  0  0
    0.5980    3.4960    1.4800 N   0  0  0  0  0  0  0  0  0  0  0  0
   -0.2590    1.5710    0.2230 C   0  0  0  0  0  0  0  0  0  0  0  0
   -0.5600    0.9720   -0.8700 O   0  0  0  0  0  0  0  0  0  0  0  0
    3.6710    2.6210    1.7330 C   0  0  0  0  0  0  0  0  0  0  0  0
    4.5210    2.0380    2.6300 C   0  0  0  0  0  0  0  0  0  0  0  0
    5.3430   -0.7480    4.0410 H   0  0  0  0  0  0  0  0  0  0  0  0
    4.2990   -1.1710    1.7790 H   0  0  0  0  0  0  0  0  0  0  0  0
    2.7430   -0.1960    0.1190 H   0  0  0  0  0  0  0  0  0  0  0  0
    2.5130    3.4490   -0.4410 H   0  0  0  0  0  0  0  0  0  0  0  0
    2.0730    1.8780   -1.1090 H   0  0  0  0  0  0  0  0  0  0  0  0
    0.2810    3.4100   -0.5330 H   0  0  0  0  0  0  0  0  0  0  0  0
    1.2790    4.2800    1.3220 H   0  0  0  0  0  0  0  0  0  0  0  0
   -0.3550    3.9810    1.4280 H   0  0  0  0  0  0  0  0  0  0  0  0
    3.5300    3.6770    1.7540 H   0  0  0  0  0  0  0  0  0  0  0  0
    5.0720    2.6140    3.3830 H   0  0  0  0  0  0  0  0  0  0  0  0
   -0.9000    1.1270    1.4390 N   0  0  0  0  0  0  0  0  0  0  0  0
   -1.8730    0.0900    1.4970 C   0  0  1  0  0  0  0  0  0  0  0  0
   -3.1370    0.5070    0.7270 C   0  0  0  0  0  0  0  0  0  0  0  0
   -4.1790   -0.5190    0.7330 C   0  0  0  0  0  0  0  0  0  0  0  0
   -5.0900   -0.6480    1.7550 C   0  0  0  0  0  0  0  0  0  0  0  0
   -6.0850   -1.5940    1.7710 C   0  0  0  0  0  0  0  0  0  0  0  0
   -6.1730   -2.4540    0.7060 C   0  0  0  0  0  0  0  0  0  0  0  0
   -5.2730   -2.3620   -0.3520 C   0  0  0  0  0  0  0  0  0  0  0  0
   -4.3000   -1.4130   -0.3300 C   0  0  0  0  0  0  0  0  0  0  0  0
   -1.4610   -1.2690    1.1530 C   0  0  0  0  0  0  0  0  0  0  0  0
   -2.2720   -2.2560    1.2430 O   0  0  0  0  0  0  0  0  0  0  0  0
   -0.5910    1.6400    2.3290 H   0  0  0  0  0  0  0  0  0  0  0  0
   -2.2510    0.0860    2.5760 H   0  0  0  0  0  0  0  0  0  0  0  0
   -3.5410    1.4580    1.1070 H   0  0  0  0  0  0  0  0  0  0  0  0
   -2.8020    0.6920   -0.3090 H   0  0  0  0  0  0  0  0  0  0  0  0
   -4.9980    0.0540    2.5960 H   0  0  0  0  0  0  0  0  0  0  0  0
   -6.7890   -1.6820    2.5790 H   0  0  0  0  0  0  0  0  0  0  0  0
   -6.9390   -3.2220    0.6680 H   0  0  0  0  0  0  0  0  0  0  0  0
   -5.3890   -3.0700   -1.1750 H   0  0  0  0  0  0  0  0  0  0  0  0
   -3.5810   -1.3120   -1.1460 H   0  0  0  0  0  0  0  0  0  0  0  0
    0.8480   -5.4350   -4.0420 N   0  0  0  0  0  0  0  0  0  0  0  0
    0.5950   -4.3100   -3.2190 C   0  0  0  0  0  0  0  0  0  0  0  0
    0.3550   -3.1950   -3.7790 O   0  0  0  0  0  0  0  0  0  0  0  0
    0.5910   -4.3500   -1.7410 C   0  0  0  0  0  0  0  0  0  0  0  0
    0.2380   -3.0160   -1.1660 C   0  0  0  0  0  0  0  0  0  0  0  0
    0.1890   -2.9900    0.3510 C   0  0  2  0  0  0  0  0  0  0  0  0
   -0.1680   -1.6150    0.7010 N   0  0  0  0  0  0  0  0  0  0  0  0
    1.4020   -3.4530    1.0090 C   0  0  0  0  0  0  0  0  0  0  0  0
    1.9980   -2.6360    1.7720 O   0  0  0  0  0  0  0  0  0  0  0  0
    1.9950   -4.6980    0.9010 O   0  0  0  0  0  0  0  0  0  0  0  0
    0.9070   -6.4080   -3.6610 H   0  0  0  0  0  0  0  0  0  0  0  0
    0.9840   -5.2970   -5.0650 H   0  0  0  0  0  0  0  0  0  0  0  0
    1.5620   -4.7470   -1.3370 H   0  0  0  0  0  0  0  0  0  0  0  0
   -0.1710   -5.1160   -1.4320 H   0  0  0  0  0  0  0  0  0  0  0  0
   -0.7990   -2.7370   -1.4960 H   0  0  0  0  0  0  0  0  0  0  0  0
    0.9130   -2.2240   -1.5460 H   0  0  0  0  0  0  0  0  0  0  0  0
   -0.6860   -3.6260    0.6570 H   0  0  0  0  0  0  0  0  0  0  0  0
    0.5840   -0.9150    0.6080 H   0  0  0  0  0  0  0  0  0  0  0  0
  1 13  1  0  0  0  0
  2  1  1  0  0  0  0
  3 14  1  0  0  0  0
  3  2  2  0  0  0  0
  4  3  1  0  0  0  0
  5  4  2  0  0  0  0
  5 11  1  0  0  0  0
  6  7  1  0  0  0  0
  6  5  1  0  0  0  0
  7 18  1  6  0  0  0
  7  8  1  0  0  0  0
  9  7  1  0  0  0  0
  9 23  1  0  0  0  0
 10  9  2  0  0  0  0
 11 21  1  0  0  0  0
 11 12  2  0  0  0  0
 12  2  1  0  0  0  0
 12 22  1  0  0  0  0
 15  4  1  0  0  0  0
 16  6  1  0  0  0  0
 17  6  1  0  0  0  0
 19  8  1  0  0  0  0
 20  8  1  0  0  0  0
 23 24  1  0  0  0  0
 23 34  1  0  0  0  0
 24 35  1  1  0  0  0
 25 26  1  0  0  0  0
 25 36  1  0  0  0  0
 25 24  1  0  0  0  0
 26 27  1  0  0  0  0
 27 28  2  0  0  0  0
 27 38  1  0  0  0  0
 28 39  1  0  0  0  0
 29 28  1  0  0  0  0
 30 31  1  0  0  0  0
 30 29  2  0  0  0  0
 31 26  2  0  0  0  0
 32 33  2  0  0  0  0
 32 24  1  0  0  0  0
 37 25  1  0  0  0  0
 40 29  1  0  0  0  0
 41 30  1  0  0  0  0
 42 31  1  0  0  0  0
 43 53  1  0  0  0  0
 43 44  1  0  0  0  0
 44 46  1  0  0  0  0
 45 44  2  0  0  0  0
 46 56  1  0  0  0  0
 46 55  1  0  0  0  0
 46 47  1  0  0  0  0
 47 48  1  0  0  0  0
 48 59  1  1  0  0  0
 48 49  1  0  0  0  0
 48 50  1  0  0  0  0
 49 32  1  0  0  0  0
 50 51  1  0  0  0  0
 52 50  2  0  0  0  0
 54 43  1  0  0  0  0
 57 47  1  0  0  0  0
 58 47  1  0  0  0  0
 60 49  1  0  0  0  0
M  END
$$$$
