YFS.pdb
 OpenBabel07022419223D

 54 55  0  0  1  0  0  0  0  0999 V2000
    0.9820    3.5440    4.5380 O   0  0  0  0  0  0  0  0  0  0  0  0
    1.4620    2.2710    4.1950 C   0  0  0  0  0  0  0  0  0  0  0  0
    0.6740    1.1590    4.3530 C   0  0  0  0  0  0  0  0  0  0  0  0
    1.1640   -0.0940    4.0090 C   0  0  0  0  0  0  0  0  0  0  0  0
    2.4350   -0.2640    3.5060 C   0  0  0  0  0  0  0  0  0  0  0  0
    2.9620   -1.5880    3.1370 C   0  0  0  0  0  0  0  0  0  0  0  0
    2.7210   -1.9810    1.7080 C   0  0  2  0  0  0  0  0  0  0  0  0
    3.3200   -1.0610    0.7700 N   0  0  0  0  0  0  0  0  0  0  0  0
    1.2540   -2.0740    1.4990 C   0  0  0  0  0  0  0  0  0  0  0  0
    0.5630   -2.8490    2.2030 O   0  0  0  0  0  0  0  0  0  0  0  0
    3.2130    0.8650    3.3550 C   0  0  0  0  0  0  0  0  0  0  0  0
    2.7290    2.1290    3.6980 C   0  0  0  0  0  0  0  0  0  0  0  0
    1.0150    3.9020    5.4640 H   0  0  0  0  0  0  0  0  0  0  0  0
   -0.3210    1.2850    4.7460 H   0  0  0  0  0  0  0  0  0  0  0  0
    0.5040   -0.9330    4.1550 H   0  0  0  0  0  0  0  0  0  0  0  0
    4.0400   -1.6470    3.4180 H   0  0  0  0  0  0  0  0  0  0  0  0
    2.4650   -2.3780    3.7680 H   0  0  0  0  0  0  0  0  0  0  0  0
    3.2250   -2.9590    1.5570 H   0  0  0  0  0  0  0  0  0  0  0  0
    3.0030   -0.0840    0.8800 H   0  0  0  0  0  0  0  0  0  0  0  0
    4.3550   -1.1680    0.8400 H   0  0  0  0  0  0  0  0  0  0  0  0
    4.2220    0.8360    2.9690 H   0  0  0  0  0  0  0  0  0  0  0  0
    3.3580    2.9980    3.5700 H   0  0  0  0  0  0  0  0  0  0  0  0
    0.5680   -1.3130    0.5190 N   0  0  0  0  0  0  0  0  0  0  0  0
   -0.8660   -1.3910    0.3010 C   0  0  1  0  0  0  0  0  0  0  0  0
   -1.4050   -0.0340    0.6960 C   0  0  0  0  0  0  0  0  0  0  0  0
   -2.8580    0.1060    0.5460 C   0  0  0  0  0  0  0  0  0  0  0  0
   -3.6480   -0.2690    1.6090 C   0  0  0  0  0  0  0  0  0  0  0  0
   -5.0130   -0.1380    1.4880 C   0  0  0  0  0  0  0  0  0  0  0  0
   -5.5910    0.3560    0.3380 C   0  0  0  0  0  0  0  0  0  0  0  0
   -4.7720    0.7240   -0.7100 C   0  0  0  0  0  0  0  0  0  0  0  0
   -3.4120    0.6000   -0.6080 C   0  0  0  0  0  0  0  0  0  0  0  0
   -1.1980   -1.6730   -1.1050 C   0  0  0  0  0  0  0  0  0  0  0  0
   -2.3890   -1.8040   -1.4820 O   0  0  0  0  0  0  0  0  0  0  0  0
    1.1440   -0.6700   -0.0640 H   0  0  0  0  0  0  0  0  0  0  0  0
   -1.3420   -2.1230    1.0020 H   0  0  0  0  0  0  0  0  0  0  0  0
   -1.1190    0.1380    1.7560 H   0  0  0  0  0  0  0  0  0  0  0  0
   -0.8630    0.7700    0.1190 H   0  0  0  0  0  0  0  0  0  0  0  0
   -3.1990   -0.6640    2.5300 H   0  0  0  0  0  0  0  0  0  0  0  0
   -5.6620   -0.4310    2.3230 H   0  0  0  0  0  0  0  0  0  0  0  0
   -6.6720    0.4690    0.2210 H   0  0  0  0  0  0  0  0  0  0  0  0
   -5.2170    1.1160   -1.6250 H   0  0  0  0  0  0  0  0  0  0  0  0
   -2.7610    0.8980   -1.4450 H   0  0  0  0  0  0  0  0  0  0  0  0
    1.3990   -1.0290   -4.2570 O   0  0  0  0  0  0  0  0  0  0  0  0
    0.0010   -1.0230   -4.4320 C   0  0  0  0  0  0  0  0  0  0  0  0
   -0.5380   -2.0940   -3.5050 C   0  0  2  0  0  0  0  0  0  0  0  0
   -0.2010   -1.8160   -2.1230 N   0  0  0  0  0  0  0  0  0  0  0  0
    0.1180   -3.3730   -3.8870 C   0  0  0  0  0  0  0  0  0  0  0  0
   -0.0410   -3.8100   -5.0550 O   0  0  0  0  0  0  0  0  0  0  0  0
    0.8980   -4.1050   -3.0080 O   0  0  0  0  0  0  0  0  0  0  0  0
    1.6600   -1.9810   -4.2410 H   0  0  0  0  0  0  0  0  0  0  0  0
   -0.1610   -1.2890   -5.4950 H   0  0  0  0  0  0  0  0  0  0  0  0
   -0.3870   -0.0240   -4.1670 H   0  0  0  0  0  0  0  0  0  0  0  0
   -1.6520   -2.1610   -3.5660 H   0  0  0  0  0  0  0  0  0  0  0  0
    0.7910   -1.7130   -1.8440 H   0  0  0  0  0  0  0  0  0  0  0  0
  1 13  1  0  0  0  0
  2  3  1  0  0  0  0
  2  1  1  0  0  0  0
  3 14  1  0  0  0  0
  4 15  1  0  0  0  0
  4  3  2  0  0  0  0
  5  4  1  0  0  0  0
  6 16  1  0  0  0  0
  6  5  1  0  0  0  0
  6 17  1  0  0  0  0
  7 18  1  6  0  0  0
  7  6  1  0  0  0  0
  8 20  1  0  0  0  0
  8 19  1  0  0  0  0
  8  7  1  0  0  0  0
  9  7  1  0  0  0  0
  9 10  2  0  0  0  0
 11  5  2  0  0  0  0
 11 12  1  0  0  0  0
 12  2  2  0  0  0  0
 21 11  1  0  0  0  0
 22 12  1  0  0  0  0
 23  9  1  0  0  0  0
 24 23  1  0  0  0  0
 24 25  1  0  0  0  0
 24 35  1  1  0  0  0
 25 36  1  0  0  0  0
 26 25  1  0  0  0  0
 26 27  1  0  0  0  0
 27 38  1  0  0  0  0
 28 27  2  0  0  0  0
 28 39  1  0  0  0  0
 29 28  1  0  0  0  0
 30 31  1  0  0  0  0
 30 29  2  0  0  0  0
 31 26  2  0  0  0  0
 32 24  1  0  0  0  0
 33 32  2  0  0  0  0
 34 23  1  0  0  0  0
 37 25  1  0  0  0  0
 40 29  1  0  0  0  0
 41 30  1  0  0  0  0
 42 31  1  0  0  0  0
 43 50  1  0  0  0  0
 44 43  1  0  0  0  0
 44 52  1  0  0  0  0
 44 45  1  0  0  0  0
 45 53  1  6  0  0  0
 45 46  1  0  0  0  0
 46 54  1  0  0  0  0
 46 32  1  0  0  0  0
 47 45  1  0  0  0  0
 47 49  1  0  0  0  0
 48 47  2  0  0  0  0
 51 44  1  0  0  0  0
M  END
$$$$
