YFY.pdb
 OpenBabel07022419223D

 64 66  0  0  1  0  0  0  0  0999 V2000
   -1.1840    1.6040    6.6430 O   0  0  0  0  0  0  0  0  0  0  0  0
   -0.0950    1.1090    5.9310 C   0  0  0  0  0  0  0  0  0  0  0  0
    1.0350    1.9090    5.8270 C   0  0  0  0  0  0  0  0  0  0  0  0
    2.0850    1.3720    5.1110 C   0  0  0  0  0  0  0  0  0  0  0  0
    2.0530    0.1330    4.5240 C   0  0  0  0  0  0  0  0  0  0  0  0
    3.2280   -0.3420    3.7850 C   0  0  0  0  0  0  0  0  0  0  0  0
    3.2140    0.0330    2.3190 C   0  0  2  0  0  0  0  0  0  0  0  0
    3.1740    1.4780    2.2480 N   0  0  0  0  0  0  0  0  0  0  0  0
    2.0180   -0.5950    1.7050 C   0  0  0  0  0  0  0  0  0  0  0  0
    1.9360   -1.8370    1.6890 O   0  0  0  0  0  0  0  0  0  0  0  0
    0.9200   -0.6300    4.6460 C   0  0  0  0  0  0  0  0  0  0  0  0
   -0.1450   -0.1310    5.3510 C   0  0  0  0  0  0  0  0  0  0  0  0
   -1.3560    1.3960    7.6130 H   0  0  0  0  0  0  0  0  0  0  0  0
    1.0800    2.8990    6.2880 H   0  0  0  0  0  0  0  0  0  0  0  0
    2.9750    2.0140    5.0350 H   0  0  0  0  0  0  0  0  0  0  0  0
    3.3090   -1.4650    3.8210 H   0  0  0  0  0  0  0  0  0  0  0  0
    4.1670    0.0460    4.2310 H   0  0  0  0  0  0  0  0  0  0  0  0
    4.1540   -0.2910    1.8580 H   0  0  0  0  0  0  0  0  0  0  0  0
    2.3530    1.8970    2.7180 H   0  0  0  0  0  0  0  0  0  0  0  0
    3.3530    1.8390    1.2900 H   0  0  0  0  0  0  0  0  0  0  0  0
    0.8420   -1.6290    4.1960 H   0  0  0  0  0  0  0  0  0  0  0  0
   -1.0440   -0.7220    5.4540 H   0  0  0  0  0  0  0  0  0  0  0  0
    0.9820    0.1990    1.1450 N   0  0  0  0  0  0  0  0  0  0  0  0
   -0.2210   -0.3960    0.5270 C   0  0  1  0  0  0  0  0  0  0  0  0
   -1.3500    0.0090    1.4360 C   0  0  0  0  0  0  0  0  0  0  0  0
   -2.6850   -0.4520    1.0550 C   0  0  0  0  0  0  0  0  0  0  0  0
   -3.1010   -1.7080    1.4580 C   0  0  0  0  0  0  0  0  0  0  0  0
   -4.3650   -2.1630    1.1430 C   0  0  0  0  0  0  0  0  0  0  0  0
   -5.1800   -1.3170    0.4180 C   0  0  0  0  0  0  0  0  0  0  0  0
   -4.7750   -0.0720    0.0150 C   0  0  0  0  0  0  0  0  0  0  0  0
   -3.5060    0.3840    0.3320 C   0  0  0  0  0  0  0  0  0  0  0  0
   -0.3410    0.0030   -0.8710 C   0  0  0  0  0  0  0  0  0  0  0  0
    0.5050    0.8700   -1.2990 O   0  0  0  0  0  0  0  0  0  0  0  0
    1.1040    1.2310    1.1860 H   0  0  0  0  0  0  0  0  0  0  0  0
   -0.1560   -1.5100    0.5840 H   0  0  0  0  0  0  0  0  0  0  0  0
   -1.0630   -0.3850    2.4560 H   0  0  0  0  0  0  0  0  0  0  0  0
   -1.3130    1.1360    1.5600 H   0  0  0  0  0  0  0  0  0  0  0  0
   -2.4490   -2.3750    2.0330 H   0  0  0  0  0  0  0  0  0  0  0  0
   -4.6690   -3.1390    1.4640 H   0  0  0  0  0  0  0  0  0  0  0  0
   -6.1720   -1.6590    0.1630 H   0  0  0  0  0  0  0  0  0  0  0  0
   -5.4200    0.6020   -0.5600 H   0  0  0  0  0  0  0  0  0  0  0  0
   -3.1900    1.3770    0.0080 H   0  0  0  0  0  0  0  0  0  0  0  0
    3.7020   -4.0140   -3.1190 O   0  0  0  0  0  0  0  0  0  0  0  0
    2.5080   -3.3240   -3.3570 C   0  0  0  0  0  0  0  0  0  0  0  0
    1.3460   -3.6250   -2.6740 C   0  0  0  0  0  0  0  0  0  0  0  0
    0.1760   -2.9420   -2.9140 C   0  0  0  0  0  0  0  0  0  0  0  0
    0.1250   -1.9290   -3.8490 C   0  0  0  0  0  0  0  0  0  0  0  0
   -1.1510   -1.2390   -4.0590 C   0  0  0  0  0  0  0  0  0  0  0  0
   -1.3450   -0.0350   -3.1660 C   0  0  2  0  0  0  0  0  0  0  0  0
   -1.2980   -0.4760   -1.8000 N   0  0  0  0  0  0  0  0  0  0  0  0
   -2.6060    0.6130   -3.5690 C   0  0  0  0  0  0  0  0  0  0  0  0
   -3.6050    0.8090   -2.8700 O   0  0  0  0  0  0  0  0  0  0  0  0
    1.2820   -1.6230   -4.5330 C   0  0  0  0  0  0  0  0  0  0  0  0
    2.4630   -2.3090   -4.2940 C   0  0  0  0  0  0  0  0  0  0  0  0
   -2.6930    1.0620   -4.9030 O   0  0  0  0  0  0  0  0  0  0  0  0
    3.7730   -4.6630   -2.3660 H   0  0  0  0  0  0  0  0  0  0  0  0
    1.3790   -4.4130   -1.9460 H   0  0  0  0  0  0  0  0  0  0  0  0
   -0.6980   -3.2300   -2.3440 H   0  0  0  0  0  0  0  0  0  0  0  0
   -1.2870   -0.9220   -5.1150 H   0  0  0  0  0  0  0  0  0  0  0  0
   -1.9760   -1.9470   -3.8450 H   0  0  0  0  0  0  0  0  0  0  0  0
   -0.5290    0.7200   -3.3660 H   0  0  0  0  0  0  0  0  0  0  0  0
   -1.9840   -1.1850   -1.4750 H   0  0  0  0  0  0  0  0  0  0  0  0
    1.2410   -0.8350   -5.2600 H   0  0  0  0  0  0  0  0  0  0  0  0
    3.3800   -2.0920   -4.8130 H   0  0  0  0  0  0  0  0  0  0  0  0
  1 13  1  0  0  0  0
  2  1  1  0  0  0  0
  3  2  1  0  0  0  0
  3 14  1  0  0  0  0
  4  3  2  0  0  0  0
  5 11  2  0  0  0  0
  5  4  1  0  0  0  0
  6 16  1  0  0  0  0
  6 17  1  0  0  0  0
  6  5  1  0  0  0  0
  7 18  1  6  0  0  0
  7  6  1  0  0  0  0
  8  7  1  0  0  0  0
  8 19  1  0  0  0  0
  9  7  1  0  0  0  0
 10  9  2  0  0  0  0
 11 12  1  0  0  0  0
 12 22  1  0  0  0  0
 12  2  2  0  0  0  0
 15  4  1  0  0  0  0
 20  8  1  0  0  0  0
 21 11  1  0  0  0  0
 23 34  1  0  0  0  0
 23  9  1  0  0  0  0
 24 35  1  1  0  0  0
 24 23  1  0  0  0  0
 24 25  1  0  0  0  0
 25 37  1  0  0  0  0
 25 36  1  0  0  0  0
 26 25  1  0  0  0  0
 26 27  1  0  0  0  0
 27 38  1  0  0  0  0
 28 27  2  0  0  0  0
 28 39  1  0  0  0  0
 29 28  1  0  0  0  0
 30 31  1  0  0  0  0
 30 29  2  0  0  0  0
 31 26  2  0  0  0  0
 32 24  1  0  0  0  0
 33 32  2  0  0  0  0
 40 29  1  0  0  0  0
 41 30  1  0  0  0  0
 42 31  1  0  0  0  0
 43 56  1  0  0  0  0
 44 43  1  0  0  0  0
 44 45  1  0  0  0  0
 45 57  1  0  0  0  0
 46 45  2  0  0  0  0
 46 58  1  0  0  0  0
 47 46  1  0  0  0  0
 48 47  1  0  0  0  0
 48 60  1  0  0  0  0
 48 49  1  0  0  0  0
 49 61  1  6  0  0  0
 49 50  1  0  0  0  0
 50 62  1  0  0  0  0
 50 32  1  0  0  0  0
 51 49  1  0  0  0  0
 51 52  1  0  0  0  0
 53 54  1  0  0  0  0
 53 47  2  0  0  0  0
 54 44  2  0  0  0  0
 55 51  2  0  0  0  0
 59 48  1  0  0  0  0
 63 53  1  0  0  0  0
 64 54  1  0  0  0  0
M  END
$$$$
