YGD.pdb
 OpenBabel07022419203D

 43 43  0  0  1  0  0  0  0  0999 V2000
    7.3680   -4.4300    1.5030 O   0  0  0  0  0  0  0  0  0  0  0  0
    6.2110   -3.6930    1.2320 C   0  0  0  0  0  0  0  0  0  0  0  0
    5.1130   -3.8560    2.0450 C   0  0  0  0  0  0  0  0  0  0  0  0
    3.9720   -3.1320    1.7820 C   0  0  0  0  0  0  0  0  0  0  0  0
    3.8970   -2.2490    0.7280 C   0  0  0  0  0  0  0  0  0  0  0  0
    2.6280   -1.5060    0.5120 C   0  0  0  0  0  0  0  0  0  0  0  0
    2.6210   -0.1930    1.2660 C   0  0  2  0  0  0  0  0  0  0  0  0
    2.7610   -0.3700    2.6770 N   0  0  0  0  0  0  0  0  0  0  0  0
    1.3770    0.5520    0.9440 C   0  0  0  0  0  0  0  0  0  0  0  0
    1.0700    0.8100   -0.2460 O   0  0  0  0  0  0  0  0  0  0  0  0
    4.9960   -2.0920   -0.0780 C   0  0  0  0  0  0  0  0  0  0  0  0
    6.1390   -2.8110    0.1780 C   0  0  0  0  0  0  0  0  0  0  0  0
    7.3020   -5.3410    1.9560 H   0  0  0  0  0  0  0  0  0  0  0  0
    5.1650   -4.5600    2.8890 H   0  0  0  0  0  0  0  0  0  0  0  0
    3.1130   -3.2900    2.4560 H   0  0  0  0  0  0  0  0  0  0  0  0
    2.4560   -1.3480   -0.5710 H   0  0  0  0  0  0  0  0  0  0  0  0
    1.8020   -2.1440    0.8780 H   0  0  0  0  0  0  0  0  0  0  0  0
    3.5050    0.3940    0.9130 H   0  0  0  0  0  0  0  0  0  0  0  0
    2.1050   -1.0660    3.0560 H   0  0  0  0  0  0  0  0  0  0  0  0
    3.7520   -0.6420    2.8800 H   0  0  0  0  0  0  0  0  0  0  0  0
    4.9570   -1.4010   -0.9130 H   0  0  0  0  0  0  0  0  0  0  0  0
    7.0310   -2.6970   -0.4590 H   0  0  0  0  0  0  0  0  0  0  0  0
    0.4840    1.0040    1.9510 N   0  0  0  0  0  0  0  0  0  0  0  0
   -0.7310    1.7310    1.6440 C   0  0  0  0  0  0  0  0  0  0  0  0
   -1.6090    0.9090    0.7930 C   0  0  0  0  0  0  0  0  0  0  0  0
   -1.2430   -0.2440    0.4490 O   0  0  0  0  0  0  0  0  0  0  0  0
    0.7480    0.7830    2.9460 H   0  0  0  0  0  0  0  0  0  0  0  0
   -1.2090    2.0320    2.5950 H   0  0  0  0  0  0  0  0  0  0  0  0
   -0.4120    2.6750    1.1480 H   0  0  0  0  0  0  0  0  0  0  0  0
   -2.8750    1.3400    0.3210 N   0  0  0  0  0  0  0  0  0  0  0  0
   -3.7280    0.5160   -0.5190 C   0  0  1  0  0  0  0  0  0  0  0  0
   -5.0530    0.2230    0.1040 C   0  0  0  0  0  0  0  0  0  0  0  0
   -5.8670    1.3990    0.4090 C   0  0  0  0  0  0  0  0  0  0  0  0
   -5.4520    2.5460    0.1490 O   0  0  0  0  0  0  0  0  0  0  0  0
   -3.8660    1.1900   -1.8270 C   0  0  0  0  0  0  0  0  0  0  0  0
   -4.5670    0.6560   -2.7240 O   0  0  0  0  0  0  0  0  0  0  0  0
   -7.1070    1.2380    0.9900 O   0  0  0  0  0  0  0  0  0  0  0  0
   -3.2550    2.3990   -2.1240 O   0  0  0  0  0  0  0  0  0  0  0  0
   -3.1800    2.2950    0.6050 H   0  0  0  0  0  0  0  0  0  0  0  0
   -3.2450   -0.4740   -0.7270 H   0  0  0  0  0  0  0  0  0  0  0  0
   -4.8680   -0.4250    0.9910 H   0  0  0  0  0  0  0  0  0  0  0  0
   -5.6090   -0.4370   -0.6160 H   0  0  0  0  0  0  0  0  0  0  0  0
   -7.6010    1.9790    1.4770 H   0  0  0  0  0  0  0  0  0  0  0  0
  1 13  1  0  0  0  0
  2  1  1  0  0  0  0
  2  3  1  0  0  0  0
  3 14  1  0  0  0  0
  4  3  2  0  0  0  0
  4 15  1  0  0  0  0
  5  4  1  0  0  0  0
  6  5  1  0  0  0  0
  6 17  1  0  0  0  0
  6  7  1  0  0  0  0
  7 18  1  6  0  0  0
  7  8  1  0  0  0  0
  8 20  1  0  0  0  0
  8 19  1  0  0  0  0
  9  7  1  0  0  0  0
  9 23  1  0  0  0  0
 10  9  2  0  0  0  0
 11 12  1  0  0  0  0
 11  5  2  0  0  0  0
 12  2  2  0  0  0  0
 16  6  1  0  0  0  0
 21 11  1  0  0  0  0
 22 12  1  0  0  0  0
 23 27  1  0  0  0  0
 24 23  1  0  0  0  0
 24 28  1  0  0  0  0
 25 24  1  0  0  0  0
 26 25  2  0  0  0  0
 29 24  1  0  0  0  0
 30 39  1  0  0  0  0
 30 25  1  0  0  0  0
 31 40  1  6  0  0  0
 31 32  1  0  0  0  0
 31 30  1  0  0  0  0
 32 33  1  0  0  0  0
 32 41  1  0  0  0  0
 33 37  1  0  0  0  0
 34 33  2  0  0  0  0
 35 31  1  0  0  0  0
 36 35  2  0  0  0  0
 37 43  1  0  0  0  0
 38 35  1  0  0  0  0
 42 32  1  0  0  0  0
M  END
$$$$
