YGF.pdb
 OpenBabel07022419203D

 50 51  0  0  1  0  0  0  0  0999 V2000
    1.0920   -3.8750    4.7050 O   0  0  0  0  0  0  0  0  0  0  0  0
    1.9620   -3.2240    3.8250 C   0  0  0  0  0  0  0  0  0  0  0  0
    3.0840   -2.5700    4.2880 C   0  0  0  0  0  0  0  0  0  0  0  0
    3.9500   -1.9240    3.4320 C   0  0  0  0  0  0  0  0  0  0  0  0
    3.7260   -1.9040    2.0520 C   0  0  0  0  0  0  0  0  0  0  0  0
    4.6790   -1.2130    1.1700 C   0  0  0  0  0  0  0  0  0  0  0  0
    4.4040    0.2500    0.9640 C   0  0  2  0  0  0  0  0  0  0  0  0
    4.4380    0.9600    2.2290 N   0  0  0  0  0  0  0  0  0  0  0  0
    3.2140    0.5690    0.1770 C   0  0  0  0  0  0  0  0  0  0  0  0
    2.3370    1.4090    0.5490 O   0  0  0  0  0  0  0  0  0  0  0  0
    2.6010   -2.5620    1.6100 C   0  0  0  0  0  0  0  0  0  0  0  0
    1.7340   -3.2090    2.4650 C   0  0  0  0  0  0  0  0  0  0  0  0
    0.9780   -3.6080    5.6630 H   0  0  0  0  0  0  0  0  0  0  0  0
    3.2780   -2.5710    5.3490 H   0  0  0  0  0  0  0  0  0  0  0  0
    4.8370   -1.4050    3.7850 H   0  0  0  0  0  0  0  0  0  0  0  0
    4.6040   -1.6880    0.1460 H   0  0  0  0  0  0  0  0  0  0  0  0
    5.7090   -1.4010    1.5350 H   0  0  0  0  0  0  0  0  0  0  0  0
    5.3110    0.6400    0.4040 H   0  0  0  0  0  0  0  0  0  0  0  0
    4.3310    1.9840    2.0240 H   0  0  0  0  0  0  0  0  0  0  0  0
    5.4030    0.7780    2.6370 H   0  0  0  0  0  0  0  0  0  0  0  0
    2.3950   -2.5720    0.5390 H   0  0  0  0  0  0  0  0  0  0  0  0
    0.8550   -3.7190    2.0860 H   0  0  0  0  0  0  0  0  0  0  0  0
    2.9670   -0.0470   -1.0650 N   0  0  0  0  0  0  0  0  0  0  0  0
    1.8240    0.2180   -1.9100 C   0  0  0  0  0  0  0  0  0  0  0  0
    0.5910   -0.1050   -1.1560 C   0  0  0  0  0  0  0  0  0  0  0  0
    0.6600   -0.5290    0.0190 O   0  0  0  0  0  0  0  0  0  0  0  0
    3.6770   -0.7620   -1.4060 H   0  0  0  0  0  0  0  0  0  0  0  0
    1.8950   -0.3850   -2.8450 H   0  0  0  0  0  0  0  0  0  0  0  0
    1.7710    1.3180   -2.1670 H   0  0  0  0  0  0  0  0  0  0  0  0
   -0.7100    0.0580   -1.7480 N   0  0  0  0  0  0  0  0  0  0  0  0
   -1.9420   -0.2430   -1.0530 C   0  0  1  0  0  0  0  0  0  0  0  0
   -2.7820    0.9680   -0.8230 C   0  0  0  0  0  0  0  0  0  0  0  0
   -4.0460    0.6710   -0.1120 C   0  0  0  0  0  0  0  0  0  0  0  0
   -4.1210    0.6620    1.2780 C   0  0  0  0  0  0  0  0  0  0  0  0
   -5.3020    0.3980    1.9260 C   0  0  0  0  0  0  0  0  0  0  0  0
   -6.4540    0.1340    1.2530 C   0  0  0  0  0  0  0  0  0  0  0  0
   -6.4140    0.1350   -0.1260 C   0  0  0  0  0  0  0  0  0  0  0  0
   -5.2350    0.3980   -0.7800 C   0  0  0  0  0  0  0  0  0  0  0  0
   -2.6490   -1.3460   -1.7180 C   0  0  0  0  0  0  0  0  0  0  0  0
   -2.1610   -1.8470   -2.7670 O   0  0  0  0  0  0  0  0  0  0  0  0
   -3.8360   -1.8850   -1.2640 O   0  0  0  0  0  0  0  0  0  0  0  0
   -0.7170    0.4120   -2.7230 H   0  0  0  0  0  0  0  0  0  0  0  0
   -1.6240   -0.6020   -0.0290 H   0  0  0  0  0  0  0  0  0  0  0  0
   -2.1730    1.7240   -0.2450 H   0  0  0  0  0  0  0  0  0  0  0  0
   -3.0620    1.4970   -1.7570 H   0  0  0  0  0  0  0  0  0  0  0  0
   -3.2030    0.8730    1.8170 H   0  0  0  0  0  0  0  0  0  0  0  0
   -5.3210    0.4000    3.0220 H   0  0  0  0  0  0  0  0  0  0  0  0
   -7.3870   -0.0750    1.7580 H   0  0  0  0  0  0  0  0  0  0  0  0
   -7.3340   -0.0760   -0.6860 H   0  0  0  0  0  0  0  0  0  0  0  0
   -5.2560    0.3890   -1.8540 H   0  0  0  0  0  0  0  0  0  0  0  0
  1 13  1  0  0  0  0
  2  3  1  0  0  0  0
  2  1  1  0  0  0  0
  3 14  1  0  0  0  0
  4 15  1  0  0  0  0
  4  3  2  0  0  0  0
  5  4  1  0  0  0  0
  6 17  1  0  0  0  0
  6  5  1  0  0  0  0
  7 18  1  6  0  0  0
  7  6  1  0  0  0  0
  7  8  1  0  0  0  0
  8 20  1  0  0  0  0
  9 10  2  0  0  0  0
  9  7  1  0  0  0  0
 11  5  2  0  0  0  0
 11 12  1  0  0  0  0
 12  2  2  0  0  0  0
 16  6  1  0  0  0  0
 19  8  1  0  0  0  0
 21 11  1  0  0  0  0
 22 12  1  0  0  0  0
 23  9  1  0  0  0  0
 24 25  1  0  0  0  0
 24 23  1  0  0  0  0
 25 26  2  0  0  0  0
 27 23  1  0  0  0  0
 28 24  1  0  0  0  0
 29 24  1  0  0  0  0
 30 25  1  0  0  0  0
 30 31  1  0  0  0  0
 31 32  1  0  0  0  0
 31 43  1  1  0  0  0
 32 44  1  0  0  0  0
 32 33  1  0  0  0  0
 33 34  1  0  0  0  0
 34 46  1  0  0  0  0
 34 35  2  0  0  0  0
 35 47  1  0  0  0  0
 36 48  1  0  0  0  0
 36 35  1  0  0  0  0
 37 36  2  0  0  0  0
 38 37  1  0  0  0  0
 38 33  2  0  0  0  0
 39 41  1  0  0  0  0
 39 31  1  0  0  0  0
 40 39  2  0  0  0  0
 42 30  1  0  0  0  0
 45 32  1  0  0  0  0
 49 37  1  0  0  0  0
 50 38  1  0  0  0  0
M  END
$$$$
