YGH.pdb
 OpenBabel07022419203D

 47 48  0  0  1  0  0  0  0  0999 V2000
    4.7840   -2.1510    3.3500 O   0  0  0  0  0  0  0  0  0  0  0  0
    4.4830   -1.2000    2.3710 C   0  0  0  0  0  0  0  0  0  0  0  0
    5.0290    0.0450    2.4360 C   0  0  0  0  0  0  0  0  0  0  0  0
    4.7310    0.9770    1.4730 C   0  0  0  0  0  0  0  0  0  0  0  0
    3.8910    0.7340    0.4080 C   0  0  0  0  0  0  0  0  0  0  0  0
    3.5620    1.6950   -0.6330 C   0  0  0  0  0  0  0  0  0  0  0  0
    2.4030    2.5890   -0.3870 C   0  0  2  0  0  0  0  0  0  0  0  0
    2.5730    3.4030    0.7880 N   0  0  0  0  0  0  0  0  0  0  0  0
    1.1180    1.9010   -0.4560 C   0  0  0  0  0  0  0  0  0  0  0  0
    0.9060    1.1290   -1.4260 O   0  0  0  0  0  0  0  0  0  0  0  0
    3.3420   -0.5330    0.3500 C   0  0  0  0  0  0  0  0  0  0  0  0
    3.6380   -1.4850    1.3240 C   0  0  0  0  0  0  0  0  0  0  0  0
    4.1550   -2.9100    3.4980 H   0  0  0  0  0  0  0  0  0  0  0  0
    5.6920    0.2850    3.2500 H   0  0  0  0  0  0  0  0  0  0  0  0
    5.1790    1.9420    1.5590 H   0  0  0  0  0  0  0  0  0  0  0  0
    3.4690    1.2180   -1.6510 H   0  0  0  0  0  0  0  0  0  0  0  0
    4.4660    2.3650   -0.7540 H   0  0  0  0  0  0  0  0  0  0  0  0
    2.4000    3.3300   -1.2490 H   0  0  0  0  0  0  0  0  0  0  0  0
    3.5510    3.6150    1.0100 H   0  0  0  0  0  0  0  0  0  0  0  0
    1.9520    4.2180    0.8400 H   0  0  0  0  0  0  0  0  0  0  0  0
    2.6780   -0.8470   -0.4260 H   0  0  0  0  0  0  0  0  0  0  0  0
    3.2030   -2.4820    1.2730 H   0  0  0  0  0  0  0  0  0  0  0  0
    0.0880    2.0650    0.5260 N   0  0  0  0  0  0  0  0  0  0  0  0
   -1.1690    1.3700    0.4130 C   0  0  0  0  0  0  0  0  0  0  0  0
   -1.0210   -0.1120    0.4120 C   0  0  0  0  0  0  0  0  0  0  0  0
    0.1120   -0.6490    0.5060 O   0  0  0  0  0  0  0  0  0  0  0  0
    0.3080    2.7200    1.3250 H   0  0  0  0  0  0  0  0  0  0  0  0
   -1.7730    1.6360    1.3100 H   0  0  0  0  0  0  0  0  0  0  0  0
   -1.7600    1.7110   -0.4620 H   0  0  0  0  0  0  0  0  0  0  0  0
   -2.1370   -0.9850    0.3070 N   0  0  0  0  0  0  0  0  0  0  0  0
   -1.9390   -2.3960    0.3110 C   0  0  1  0  0  0  0  0  0  0  0  0
   -2.6270   -3.1160    1.4350 C   0  0  0  0  0  0  0  0  0  0  0  0
   -4.1020   -2.9280    1.4110 C   0  0  0  0  0  0  0  0  0  0  0  0
   -4.9910   -3.4610    2.3040 C   0  0  0  0  0  0  0  0  0  0  0  0
   -6.2260   -3.0760    1.9630 N   0  0  0  0  0  0  0  0  0  0  0  0
   -6.0920   -2.3110    0.8660 C   0  0  0  0  0  0  0  0  0  0  0  0
   -4.8000   -2.2180    0.5250 N   0  0  0  0  0  0  0  0  0  0  0  0
   -2.3800   -2.9750   -0.9740 C   0  0  0  0  0  0  0  0  0  0  0  0
   -2.3020   -4.1960   -1.2010 O   0  0  0  0  0  0  0  0  0  0  0  0
   -2.8900   -2.1370   -1.9420 O   0  0  0  0  0  0  0  0  0  0  0  0
   -3.0870   -0.5630    0.2280 H   0  0  0  0  0  0  0  0  0  0  0  0
   -0.8470   -2.6730    0.4040 H   0  0  0  0  0  0  0  0  0  0  0  0
   -2.2170   -2.8150    2.4040 H   0  0  0  0  0  0  0  0  0  0  0  0
   -2.4360   -4.2010    1.3030 H   0  0  0  0  0  0  0  0  0  0  0  0
   -4.7520   -4.0900    3.1490 H   0  0  0  0  0  0  0  0  0  0  0  0
   -7.1430   -3.3170    2.4510 H   0  0  0  0  0  0  0  0  0  0  0  0
   -6.9290   -1.8480    0.3510 H   0  0  0  0  0  0  0  0  0  0  0  0
  1 13  1  0  0  0  0
  2  3  1  0  0  0  0
  2  1  1  0  0  0  0
  3 14  1  0  0  0  0
  4 15  1  0  0  0  0
  4  3  2  0  0  0  0
  5  4  1  0  0  0  0
  6  7  1  0  0  0  0
  6  5  1  0  0  0  0
  7 18  1  6  0  0  0
  7  8  1  0  0  0  0
  8 20  1  0  0  0  0
  8 19  1  0  0  0  0
  9  7  1  0  0  0  0
  9 23  1  0  0  0  0
 10  9  2  0  0  0  0
 11  5  2  0  0  0  0
 11 12  1  0  0  0  0
 12  2  2  0  0  0  0
 16  6  1  0  0  0  0
 17  6  1  0  0  0  0
 21 11  1  0  0  0  0
 22 12  1  0  0  0  0
 23 27  1  0  0  0  0
 24 23  1  0  0  0  0
 24 28  1  0  0  0  0
 25 24  1  0  0  0  0
 25 26  2  0  0  0  0
 29 24  1  0  0  0  0
 30 31  1  0  0  0  0
 30 25  1  0  0  0  0
 31 42  1  1  0  0  0
 31 32  1  0  0  0  0
 32 43  1  0  0  0  0
 33 32  1  0  0  0  0
 33 34  2  0  0  0  0
 34 45  1  0  0  0  0
 35 34  1  0  0  0  0
 35 46  1  0  0  0  0
 36 35  1  0  0  0  0
 37 36  2  0  0  0  0
 37 33  1  0  0  0  0
 38 31  1  0  0  0  0
 39 38  1  0  0  0  0
 40 38  2  0  0  0  0
 41 30  1  0  0  0  0
 44 32  1  0  0  0  0
 47 36  1  0  0  0  0
M  END
$$$$
