YGK.pdb
 OpenBabel07022419203D

 51 51  0  0  1  0  0  0  0  0999 V2000
    1.9640   -2.7400   -3.3040 O   0  0  0  0  0  0  0  0  0  0  0  0
    2.2010   -1.5490   -2.6460 C   0  0  0  0  0  0  0  0  0  0  0  0
    1.2080   -0.7780   -2.0820 C   0  0  0  0  0  0  0  0  0  0  0  0
    1.4700    0.4010   -1.4340 C   0  0  0  0  0  0  0  0  0  0  0  0
    2.7540    0.8520   -1.3270 C   0  0  0  0  0  0  0  0  0  0  0  0
    3.0820    2.1030   -0.6440 C   0  0  0  0  0  0  0  0  0  0  0  0
    3.4040    1.9820    0.8140 C   0  0  2  0  0  0  0  0  0  0  0  0
    4.5340    1.1240    1.0850 N   0  0  0  0  0  0  0  0  0  0  0  0
    2.2290    1.6430    1.6460 C   0  0  0  0  0  0  0  0  0  0  0  0
    2.3780    0.7110    2.5040 O   0  0  0  0  0  0  0  0  0  0  0  0
    3.7730    0.1080   -1.8780 C   0  0  0  0  0  0  0  0  0  0  0  0
    3.5070   -1.0780   -2.5300 C   0  0  0  0  0  0  0  0  0  0  0  0
    2.4600   -3.5910   -3.1550 H   0  0  0  0  0  0  0  0  0  0  0  0
    0.1730   -1.1580   -2.1780 H   0  0  0  0  0  0  0  0  0  0  0  0
    0.6290    0.9400   -1.0230 H   0  0  0  0  0  0  0  0  0  0  0  0
    3.9750    2.6070   -1.1180 H   0  0  0  0  0  0  0  0  0  0  0  0
    2.2480    2.8270   -0.7850 H   0  0  0  0  0  0  0  0  0  0  0  0
    3.7620    3.0220    1.1240 H   0  0  0  0  0  0  0  0  0  0  0  0
    4.3450    0.1890    0.6640 H   0  0  0  0  0  0  0  0  0  0  0  0
    5.3760    1.5090    0.6020 H   0  0  0  0  0  0  0  0  0  0  0  0
    4.8230    0.4210   -1.8220 H   0  0  0  0  0  0  0  0  0  0  0  0
    4.2860   -1.6740   -2.9670 H   0  0  0  0  0  0  0  0  0  0  0  0
    0.9650    2.2490    1.5840 N   0  0  0  0  0  0  0  0  0  0  0  0
   -0.1690    1.9180    2.4100 C   0  0  0  0  0  0  0  0  0  0  0  0
   -0.5230    0.4670    2.2090 C   0  0  0  0  0  0  0  0  0  0  0  0
    0.1510   -0.2090    1.4290 O   0  0  0  0  0  0  0  0  0  0  0  0
    0.8410    3.0120    0.8690 H   0  0  0  0  0  0  0  0  0  0  0  0
   -1.0250    2.5650    2.1400 H   0  0  0  0  0  0  0  0  0  0  0  0
    0.0470    2.0620    3.4950 H   0  0  0  0  0  0  0  0  0  0  0  0
   -1.5930   -0.1320    2.8840 N   0  0  0  0  0  0  0  0  0  0  0  0
   -2.1050   -1.4390    2.8350 C   0  0  1  0  0  0  0  0  0  0  0  0
   -1.7350   -2.3160    1.6730 C   0  0  0  0  0  0  0  0  0  0  0  0
   -2.2200   -1.8300    0.3390 C   0  0  0  0  0  0  0  0  0  0  0  0
   -3.7570   -1.7440    0.3090 C   0  0  0  0  0  0  0  0  0  0  0  0
   -4.3270   -3.1010    0.5690 C   0  0  0  0  0  0  0  0  0  0  0  0
   -3.8860   -4.0670   -0.4350 N   0  0  0  0  0  0  0  0  0  0  0  0
   -1.8470   -2.1570    4.0800 C   0  0  0  0  0  0  0  0  0  0  0  0
   -1.2440   -1.6810    5.0790 O   0  0  0  0  0  0  0  0  0  0  0  0
   -2.2960   -3.4700    4.1870 O   0  0  0  0  0  0  0  0  0  0  0  0
   -2.1110    0.5270    3.5550 H   0  0  0  0  0  0  0  0  0  0  0  0
   -3.2630   -1.3780    2.6870 H   0  0  0  0  0  0  0  0  0  0  0  0
   -0.6390   -2.5490    1.6580 H   0  0  0  0  0  0  0  0  0  0  0  0
   -2.2020   -3.3070    1.8590 H   0  0  0  0  0  0  0  0  0  0  0  0
   -1.9000   -0.8200    0.0520 H   0  0  0  0  0  0  0  0  0  0  0  0
   -1.9970   -2.5810   -0.4740 H   0  0  0  0  0  0  0  0  0  0  0  0
   -3.9760   -1.4970   -0.7720 H   0  0  0  0  0  0  0  0  0  0  0  0
   -4.1510   -0.9430    0.9290 H   0  0  0  0  0  0  0  0  0  0  0  0
   -5.4510   -3.0580    0.4190 H   0  0  0  0  0  0  0  0  0  0  0  0
   -4.1880   -3.4890    1.5830 H   0  0  0  0  0  0  0  0  0  0  0  0
   -4.3950   -4.9580   -0.2240 H   0  0  0  0  0  0  0  0  0  0  0  0
   -4.2680   -3.7280   -1.3660 H   0  0  0  0  0  0  0  0  0  0  0  0
  1 13  1  0  0  0  0
  1  2  1  0  0  0  0
  2 12  2  0  0  0  0
  2  3  1  0  0  0  0
  3  4  2  0  0  0  0
  4  5  1  0  0  0  0
  4 15  1  0  0  0  0
  5  6  1  0  0  0  0
  6  7  1  0  0  0  0
  7  8  1  0  0  0  0
  7 18  1  1  0  0  0
  7  9  1  0  0  0  0
  9 10  2  0  0  0  0
 11 21  1  0  0  0  0
 11  5  2  0  0  0  0
 12 11  1  0  0  0  0
 14  3  1  0  0  0  0
 16  6  1  0  0  0  0
 17  6  1  0  0  0  0
 19  8  1  0  0  0  0
 20  8  1  0  0  0  0
 22 12  1  0  0  0  0
 23  9  1  0  0  0  0
 23 24  1  0  0  0  0
 24 29  1  0  0  0  0
 25 24  1  0  0  0  0
 25 30  1  0  0  0  0
 26 25  2  0  0  0  0
 27 23  1  0  0  0  0
 28 24  1  0  0  0  0
 30 40  1  0  0  0  0
 31 41  1  6  0  0  0
 31 30  1  0  0  0  0
 31 37  1  0  0  0  0
 32 43  1  0  0  0  0
 32 31  1  0  0  0  0
 33 32  1  0  0  0  0
 34 33  1  0  0  0  0
 34 35  1  0  0  0  0
 34 47  1  0  0  0  0
 35 49  1  0  0  0  0
 36 50  1  0  0  0  0
 36 35  1  0  0  0  0
 37 39  2  0  0  0  0
 37 38  1  0  0  0  0
 42 32  1  0  0  0  0
 44 33  1  0  0  0  0
 45 33  1  0  0  0  0
 46 34  1  0  0  0  0
 48 35  1  0  0  0  0
 51 36  1  0  0  0  0
M  END
$$$$
