YGN.pdb
 OpenBabel07022419203D

 44 44  0  0  1  0  0  0  0  0999 V2000
    1.2880   -1.7920    5.6140 O   0  0  0  0  0  0  0  0  0  0  0  0
    2.0350   -1.5660    4.4600 C   0  0  0  0  0  0  0  0  0  0  0  0
    1.6420   -2.1210    3.2610 C   0  0  0  0  0  0  0  0  0  0  0  0
    2.3770   -1.9010    2.1160 C   0  0  0  0  0  0  0  0  0  0  0  0
    3.5160   -1.1270    2.1290 C   0  0  0  0  0  0  0  0  0  0  0  0
    4.3090   -0.8830    0.9180 C   0  0  0  0  0  0  0  0  0  0  0  0
    3.9460    0.3500    0.1510 C   0  0  2  0  0  0  0  0  0  0  0  0
    4.1140    1.5040    1.0150 N   0  0  0  0  0  0  0  0  0  0  0  0
    2.5890    0.3160   -0.4380 C   0  0  0  0  0  0  0  0  0  0  0  0
    2.2200   -0.6270   -1.1730 O   0  0  0  0  0  0  0  0  0  0  0  0
    3.9260   -0.5620    3.3210 C   0  0  0  0  0  0  0  0  0  0  0  0
    3.1800   -0.7930    4.4520 C   0  0  0  0  0  0  0  0  0  0  0  0
    0.3090   -1.4830    5.6780 H   0  0  0  0  0  0  0  0  0  0  0  0
    0.7320   -2.7350    3.2660 H   0  0  0  0  0  0  0  0  0  0  0  0
    2.0370   -2.3600    1.1690 H   0  0  0  0  0  0  0  0  0  0  0  0
    4.1880   -1.8040    0.2730 H   0  0  0  0  0  0  0  0  0  0  0  0
    5.4100   -0.8780    1.1390 H   0  0  0  0  0  0  0  0  0  0  0  0
    4.6710    0.4810   -0.7040 H   0  0  0  0  0  0  0  0  0  0  0  0
    3.9740    2.4090    0.5130 H   0  0  0  0  0  0  0  0  0  0  0  0
    3.4000    1.4650    1.7830 H   0  0  0  0  0  0  0  0  0  0  0  0
    4.8280    0.0610    3.3740 H   0  0  0  0  0  0  0  0  0  0  0  0
    3.5000   -0.3470    5.4020 H   0  0  0  0  0  0  0  0  0  0  0  0
    1.6340    1.3580   -0.2010 N   0  0  0  0  0  0  0  0  0  0  0  0
    0.3260    1.3120   -0.7970 C   0  0  0  0  0  0  0  0  0  0  0  0
   -0.4780    0.1300   -0.4210 C   0  0  0  0  0  0  0  0  0  0  0  0
   -0.0020   -0.7070    0.3480 O   0  0  0  0  0  0  0  0  0  0  0  0
    1.9470    2.1540    0.4340 H   0  0  0  0  0  0  0  0  0  0  0  0
   -0.2290    2.2220   -0.4180 H   0  0  0  0  0  0  0  0  0  0  0  0
    0.3690    1.4470   -1.9070 H   0  0  0  0  0  0  0  0  0  0  0  0
   -5.9720    0.4590    0.0470 N   0  0  0  0  0  0  0  0  0  0  0  0
   -4.7510    0.0210   -0.5100 C   0  0  0  0  0  0  0  0  0  0  0  0
   -4.4610    0.4250   -1.6560 O   0  0  0  0  0  0  0  0  0  0  0  0
   -3.8440   -0.8700    0.2080 C   0  0  0  0  0  0  0  0  0  0  0  0
   -2.5930   -1.2110   -0.5710 C   0  0  2  0  0  0  0  0  0  0  0  0
   -1.7960   -0.0830   -0.9160 N   0  0  0  0  0  0  0  0  0  0  0  0
   -2.8950   -2.1020   -1.7230 C   0  0  0  0  0  0  0  0  0  0  0  0
   -2.4890   -1.8870   -2.8950 O   0  0  0  0  0  0  0  0  0  0  0  0
   -3.6610   -3.2530   -1.5770 O   0  0  0  0  0  0  0  0  0  0  0  0
   -6.1750    1.4240    0.3600 H   0  0  0  0  0  0  0  0  0  0  0  0
   -6.7410   -0.2640    0.1520 H   0  0  0  0  0  0  0  0  0  0  0  0
   -4.3200   -1.8670    0.4520 H   0  0  0  0  0  0  0  0  0  0  0  0
   -3.5890   -0.4400    1.1990 H   0  0  0  0  0  0  0  0  0  0  0  0
   -1.9730   -1.8450    0.1330 H   0  0  0  0  0  0  0  0  0  0  0  0
   -2.1420    0.6720   -1.5700 H   0  0  0  0  0  0  0  0  0  0  0  0
  1 13  1  0  0  0  0
  2  1  1  0  0  0  0
  3 14  1  0  0  0  0
  3  2  2  0  0  0  0
  4  5  2  0  0  0  0
  4  3  1  0  0  0  0
  5 11  1  0  0  0  0
  6 17  1  0  0  0  0
  6  5  1  0  0  0  0
  7 18  1  6  0  0  0
  7  6  1  0  0  0  0
  7  8  1  0  0  0  0
  8 20  1  0  0  0  0
  9 23  1  0  0  0  0
  9  7  1  0  0  0  0
 10  9  2  0  0  0  0
 11 21  1  0  0  0  0
 11 12  2  0  0  0  0
 12  2  1  0  0  0  0
 12 22  1  0  0  0  0
 15  4  1  0  0  0  0
 16  6  1  0  0  0  0
 19  8  1  0  0  0  0
 23 27  1  0  0  0  0
 24 25  1  0  0  0  0
 24 28  1  0  0  0  0
 24 23  1  0  0  0  0
 25 26  2  0  0  0  0
 29 24  1  0  0  0  0
 30 40  1  0  0  0  0
 30 39  1  0  0  0  0
 31 30  1  0  0  0  0
 31 33  1  0  0  0  0
 32 31  2  0  0  0  0
 33 41  1  0  0  0  0
 33 42  1  0  0  0  0
 34 43  1  1  0  0  0
 34 33  1  0  0  0  0
 35 34  1  0  0  0  0
 35 25  1  0  0  0  0
 36 38  1  0  0  0  0
 36 34  1  0  0  0  0
 37 36  2  0  0  0  0
 44 35  1  0  0  0  0
M  END
$$$$
