YGP.pdb
 OpenBabel07022419203D

 44 45  0  0  1  0  0  0  0  0999 V2000
   -1.6550   -4.7020    1.7020 O   0  0  0  0  0  0  0  0  0  0  0  0
   -0.9480   -3.8930    0.7970 C   0  0  0  0  0  0  0  0  0  0  0  0
    0.4030   -3.6860    0.9120 C   0  0  0  0  0  0  0  0  0  0  0  0
    1.0560   -2.8750   -0.0120 C   0  0  0  0  0  0  0  0  0  0  0  0
    0.4100   -2.2570   -1.0530 C   0  0  0  0  0  0  0  0  0  0  0  0
    1.1640   -1.4060   -1.9580 C   0  0  0  0  0  0  0  0  0  0  0  0
    1.1740    0.0310   -1.8640 C   0  0  2  0  0  0  0  0  0  0  0  0
    2.0320    0.5680   -2.9680 N   0  0  0  0  0  0  0  0  0  0  0  0
    1.6250    0.7580   -0.6890 C   0  0  0  0  0  0  0  0  0  0  0  0
    1.1840    1.9750   -0.5870 O   0  0  0  0  0  0  0  0  0  0  0  0
   -0.9490   -2.4720   -1.1600 C   0  0  0  0  0  0  0  0  0  0  0  0
   -1.5880   -3.2680   -0.2520 C   0  0  0  0  0  0  0  0  0  0  0  0
   -2.6230   -4.5290    1.9210 H   0  0  0  0  0  0  0  0  0  0  0  0
    0.9240   -4.1670    1.7290 H   0  0  0  0  0  0  0  0  0  0  0  0
    2.1390   -2.8020    0.1700 H   0  0  0  0  0  0  0  0  0  0  0  0
    0.7980   -1.6980   -2.9960 H   0  0  0  0  0  0  0  0  0  0  0  0
    2.2190   -1.8220   -1.9840 H   0  0  0  0  0  0  0  0  0  0  0  0
    0.1810    0.5140   -2.1710 H   0  0  0  0  0  0  0  0  0  0  0  0
    1.9200    1.6020   -2.8830 H   0  0  0  0  0  0  0  0  0  0  0  0
    1.5560    0.2290   -3.8340 H   0  0  0  0  0  0  0  0  0  0  0  0
   -1.4570   -1.9970   -1.9650 H   0  0  0  0  0  0  0  0  0  0  0  0
   -2.6720   -3.4590   -0.3120 H   0  0  0  0  0  0  0  0  0  0  0  0
    2.4890    0.2950    0.3470 N   0  0  0  0  0  0  0  0  0  0  0  0
    2.8560    1.1040    1.4610 C   0  0  0  0  0  0  0  0  0  0  0  0
    1.8780    1.5350    2.4200 C   0  0  0  0  0  0  0  0  0  0  0  0
    2.3430    2.3540    3.3340 O   0  0  0  0  0  0  0  0  0  0  0  0
    2.8660   -0.6600    0.2600 H   0  0  0  0  0  0  0  0  0  0  0  0
    3.7000    0.5560    2.0160 H   0  0  0  0  0  0  0  0  0  0  0  0
    3.4020    2.0060    1.0400 H   0  0  0  0  0  0  0  0  0  0  0  0
    0.5280    1.2360    2.5580 N   0  0  0  0  0  0  0  0  0  0  0  0
   -0.3580    1.8350    3.5920 C   0  0  0  0  0  0  0  0  0  0  0  0
   -0.9220    0.5990    4.2340 C   0  0  0  0  0  0  0  0  0  0  0  0
   -1.0060   -0.3680    3.0970 C   0  0  0  0  0  0  0  0  0  0  0  0
   -0.3450    0.3180    1.8840 C   0  0  1  0  0  0  0  0  0  0  0  0
   -1.3650    0.9370    1.0310 C   0  0  0  0  0  0  0  0  0  0  0  0
   -1.5140    2.1700    0.8690 O   0  0  0  0  0  0  0  0  0  0  0  0
   -2.2340    0.1010    0.3490 O   0  0  0  0  0  0  0  0  0  0  0  0
   -1.1650    2.4310    3.1330 H   0  0  0  0  0  0  0  0  0  0  0  0
    0.2390    2.4480    4.3000 H   0  0  0  0  0  0  0  0  0  0  0  0
   -0.1740    0.2740    5.0120 H   0  0  0  0  0  0  0  0  0  0  0  0
   -1.8880    0.7680    4.7440 H   0  0  0  0  0  0  0  0  0  0  0  0
   -0.3940   -1.2430    3.3430 H   0  0  0  0  0  0  0  0  0  0  0  0
   -2.0310   -0.6590    2.8160 H   0  0  0  0  0  0  0  0  0  0  0  0
    0.1890   -0.4770    1.3120 H   0  0  0  0  0  0  0  0  0  0  0  0
  1 13  1  0  0  0  0
  2  3  1  0  0  0  0
  2  1  1  0  0  0  0
  3 14  1  0  0  0  0
  4 15  1  0  0  0  0
  4  3  2  0  0  0  0
  5  4  1  0  0  0  0
  6  7  1  0  0  0  0
  6  5  1  0  0  0  0
  7 18  1  6  0  0  0
  7  9  1  0  0  0  0
  8 19  1  0  0  0  0
  8  7  1  0  0  0  0
  9 10  2  0  0  0  0
  9 23  1  0  0  0  0
 11  5  2  0  0  0  0
 11 12  1  0  0  0  0
 12  2  2  0  0  0  0
 16  6  1  0  0  0  0
 17  6  1  0  0  0  0
 20  8  1  0  0  0  0
 21 11  1  0  0  0  0
 22 12  1  0  0  0  0
 23 24  1  0  0  0  0
 24 28  1  0  0  0  0
 24 25  1  0  0  0  0
 25 30  1  0  0  0  0
 25 26  2  0  0  0  0
 27 23  1  0  0  0  0
 29 24  1  0  0  0  0
 30 31  1  0  0  0  0
 31 32  1  0  0  0  0
 31 39  1  0  0  0  0
 32 41  1  0  0  0  0
 32 40  1  0  0  0  0
 33 42  1  0  0  0  0
 33 32  1  0  0  0  0
 34 44  1  6  0  0  0
 34 30  1  0  0  0  0
 34 33  1  0  0  0  0
 35 34  1  0  0  0  0
 36 35  1  0  0  0  0
 37 35  2  0  0  0  0
 38 31  1  0  0  0  0
 43 33  1  0  0  0  0
M  END
$$$$
