YGS.pdb
 OpenBabel07022419203D

 41 41  0  0  1  0  0  0  0  0999 V2000
   -4.3830    4.7660    0.5430 O   0  0  0  0  0  0  0  0  0  0  0  0
   -3.5840    3.6550    0.2520 C   0  0  0  0  0  0  0  0  0  0  0  0
   -2.6400    3.2550    1.1730 C   0  0  0  0  0  0  0  0  0  0  0  0
   -1.8420    2.1760    0.9260 C   0  0  0  0  0  0  0  0  0  0  0  0
   -1.9780    1.4770   -0.2530 C   0  0  0  0  0  0  0  0  0  0  0  0
   -1.1030    0.3190   -0.4880 C   0  0  0  0  0  0  0  0  0  0  0  0
    0.1860    0.7450   -1.1950 C   0  0  2  0  0  0  0  0  0  0  0  0
   -0.2120    1.3370   -2.4520 N   0  0  0  0  0  0  0  0  0  0  0  0
    0.9610   -0.4770   -1.4480 C   0  0  0  0  0  0  0  0  0  0  0  0
    1.1820   -0.8570   -2.6140 O   0  0  0  0  0  0  0  0  0  0  0  0
   -2.9150    1.8560   -1.1900 C   0  0  0  0  0  0  0  0  0  0  0  0
   -3.7140    2.9450   -0.9300 C   0  0  0  0  0  0  0  0  0  0  0  0
   -5.1160    5.0650   -0.0870 H   0  0  0  0  0  0  0  0  0  0  0  0
   -2.5210    3.7940    2.1020 H   0  0  0  0  0  0  0  0  0  0  0  0
   -1.0940    1.8750    1.6760 H   0  0  0  0  0  0  0  0  0  0  0  0
   -1.6200   -0.3610   -1.2170 H   0  0  0  0  0  0  0  0  0  0  0  0
   -0.8040   -0.2080    0.4150 H   0  0  0  0  0  0  0  0  0  0  0  0
    0.7320    1.5060   -0.6230 H   0  0  0  0  0  0  0  0  0  0  0  0
   -0.6090    2.2870   -2.3530 H   0  0  0  0  0  0  0  0  0  0  0  0
    0.4810    1.2350   -3.2050 H   0  0  0  0  0  0  0  0  0  0  0  0
   -3.0300    1.3020   -2.1330 H   0  0  0  0  0  0  0  0  0  0  0  0
   -4.4560    3.2490   -1.6660 H   0  0  0  0  0  0  0  0  0  0  0  0
    1.4930   -1.2830   -0.3740 N   0  0  0  0  0  0  0  0  0  0  0  0
    2.2490   -2.4770   -0.6770 C   0  0  0  0  0  0  0  0  0  0  0  0
    2.7400   -3.2160    0.4760 C   0  0  0  0  0  0  0  0  0  0  0  0
    3.4070   -4.2690    0.2460 O   0  0  0  0  0  0  0  0  0  0  0  0
    1.2790   -0.9200    0.5750 H   0  0  0  0  0  0  0  0  0  0  0  0
    3.1440   -2.1360   -1.2710 H   0  0  0  0  0  0  0  0  0  0  0  0
    1.5920   -3.0950   -1.3320 H   0  0  0  0  0  0  0  0  0  0  0  0
    4.5530   -3.7490    4.7460 O   0  0  0  0  0  0  0  0  0  0  0  0
    4.0420   -2.9080    3.7730 C   0  0  0  0  0  0  0  0  0  0  0  0
    3.1100   -3.7280    2.8860 C   0  0  2  0  0  0  0  0  0  0  0  0
    2.5420   -2.8670    1.8350 N   0  0  0  0  0  0  0  0  0  0  0  0
    1.9890   -4.2500    3.7100 C   0  0  0  0  0  0  0  0  0  0  0  0
    0.7970   -3.9580    3.4780 O   0  0  0  0  0  0  0  0  0  0  0  0
    2.2510   -5.0940    4.7790 O   0  0  0  0  0  0  0  0  0  0  0  0
    5.1240   -4.4630    4.4020 H   0  0  0  0  0  0  0  0  0  0  0  0
    4.8840   -2.5220    3.1680 H   0  0  0  0  0  0  0  0  0  0  0  0
    3.4920   -2.1000    4.2760 H   0  0  0  0  0  0  0  0  0  0  0  0
    3.6380   -4.5720    2.4470 H   0  0  0  0  0  0  0  0  0  0  0  0
    2.0020   -2.0120    2.0850 H   0  0  0  0  0  0  0  0  0  0  0  0
  2  1  1  0  0  0  0
  2  3  1  0  0  0  0
  3 14  1  0  0  0  0
  4  3  2  0  0  0  0
  4 15  1  0  0  0  0
  5  4  1  0  0  0  0
  6  5  1  0  0  0  0
  6 17  1  0  0  0  0
  7 18  1  1  0  0  0
  7  6  1  0  0  0  0
  8 19  1  0  0  0  0
  8  7  1  0  0  0  0
  9  7  1  0  0  0  0
  9 23  1  0  0  0  0
 10  9  2  0  0  0  0
 11 12  1  0  0  0  0
 11  5  2  0  0  0  0
 12  2  2  0  0  0  0
 13  1  1  0  0  0  0
 16  6  1  0  0  0  0
 20  8  1  0  0  0  0
 21 11  1  0  0  0  0
 22 12  1  0  0  0  0
 23 27  1  0  0  0  0
 24 23  1  0  0  0  0
 24 25  1  0  0  0  0
 25 33  1  0  0  0  0
 26 25  2  0  0  0  0
 28 24  1  0  0  0  0
 29 24  1  0  0  0  0
 31 39  1  0  0  0  0
 31 30  1  0  0  0  0
 32 40  1  6  0  0  0
 32 34  1  0  0  0  0
 32 31  1  0  0  0  0
 33 41  1  0  0  0  0
 33 32  1  0  0  0  0
 34 36  1  0  0  0  0
 35 34  2  0  0  0  0
 37 30  1  0  0  0  0
 38 31  1  0  0  0  0
M  END
$$$$
