YGT.pdb
 OpenBabel07022419213D

 44 44  0  0  1  0  0  0  0  0999 V2000
   -2.4320   -3.7400    4.4600 O   0  0  0  0  0  0  0  0  0  0  0  0
   -1.1600   -3.4700    3.9560 C   0  0  0  0  0  0  0  0  0  0  0  0
   -0.2450   -4.4890    3.8030 C   0  0  0  0  0  0  0  0  0  0  0  0
    1.0030   -4.2030    3.3040 C   0  0  0  0  0  0  0  0  0  0  0  0
    1.4060   -2.9170    2.9360 C   0  0  0  0  0  0  0  0  0  0  0  0
    2.7760   -2.7010    2.4130 C   0  0  0  0  0  0  0  0  0  0  0  0
    2.8800   -2.8710    0.9270 C   0  0  2  0  0  0  0  0  0  0  0  0
    4.2590   -2.6370    0.5410 N   0  0  0  0  0  0  0  0  0  0  0  0
    1.9350   -2.0560    0.1450 C   0  0  0  0  0  0  0  0  0  0  0  0
    0.7090   -2.1830    0.3780 O   0  0  0  0  0  0  0  0  0  0  0  0
    0.4700   -1.9210    3.1000 C   0  0  0  0  0  0  0  0  0  0  0  0
   -0.8020   -2.1870    3.6030 C   0  0  0  0  0  0  0  0  0  0  0  0
   -2.6310   -4.4930    5.0930 H   0  0  0  0  0  0  0  0  0  0  0  0
   -0.5460   -5.4990    4.0870 H   0  0  0  0  0  0  0  0  0  0  0  0
    1.6930   -5.0490    3.2030 H   0  0  0  0  0  0  0  0  0  0  0  0
    3.4240   -3.4290    2.9420 H   0  0  0  0  0  0  0  0  0  0  0  0
    3.0480   -1.6510    2.7100 H   0  0  0  0  0  0  0  0  0  0  0  0
    2.6530   -3.9440    0.6920 H   0  0  0  0  0  0  0  0  0  0  0  0
    4.8130   -3.4250    0.9880 H   0  0  0  0  0  0  0  0  0  0  0  0
    4.3480   -2.7950   -0.4840 H   0  0  0  0  0  0  0  0  0  0  0  0
    0.7700   -0.9250    2.8200 H   0  0  0  0  0  0  0  0  0  0  0  0
   -1.4840   -1.3510    3.7040 H   0  0  0  0  0  0  0  0  0  0  0  0
    2.3230   -1.1330   -0.8620 N   0  0  0  0  0  0  0  0  0  0  0  0
    1.3940   -0.3320   -1.6320 C   0  0  0  0  0  0  0  0  0  0  0  0
    0.5830    0.5560   -0.7530 C   0  0  0  0  0  0  0  0  0  0  0  0
    0.7860    0.5140    0.4850 O   0  0  0  0  0  0  0  0  0  0  0  0
    3.3590   -1.0520   -1.0300 H   0  0  0  0  0  0  0  0  0  0  0  0
    1.9480    0.2600   -2.3610 H   0  0  0  0  0  0  0  0  0  0  0  0
    0.7310   -1.0200   -2.1930 H   0  0  0  0  0  0  0  0  0  0  0  0
   -1.2970    4.1550   -1.9510 C   0  0  0  0  0  0  0  0  0  0  0  0
   -0.9200    3.7460   -0.5590 C   0  0  1  0  0  0  0  0  0  0  0  0
   -1.6860    4.4460    0.3790 O   0  0  0  0  0  0  0  0  0  0  0  0
   -1.1450    2.2740   -0.3010 C   0  0  2  0  0  0  0  0  0  0  0  0
   -0.3970    1.4410   -1.2180 N   0  0  0  0  0  0  0  0  0  0  0  0
   -2.5750    1.9090   -0.4300 C   0  0  0  0  0  0  0  0  0  0  0  0
   -2.9380    1.0160   -1.2330 O   0  0  0  0  0  0  0  0  0  0  0  0
   -3.5740    2.5250    0.3180 O   0  0  0  0  0  0  0  0  0  0  0  0
   -2.2150    4.7770   -1.9010 H   0  0  0  0  0  0  0  0  0  0  0  0
   -1.5340    3.3060   -2.6180 H   0  0  0  0  0  0  0  0  0  0  0  0
   -0.5040    4.8230   -2.3750 H   0  0  0  0  0  0  0  0  0  0  0  0
    0.1360    3.9670   -0.3440 H   0  0  0  0  0  0  0  0  0  0  0  0
   -2.5990    4.6390    0.0480 H   0  0  0  0  0  0  0  0  0  0  0  0
   -0.8270    2.0990    0.7610 H   0  0  0  0  0  0  0  0  0  0  0  0
   -0.6000    1.5100   -2.2370 H   0  0  0  0  0  0  0  0  0  0  0  0
  1 13  1  0  0  0  0
  2  1  1  0  0  0  0
  3  2  1  0  0  0  0
  3 14  1  0  0  0  0
  4  3  2  0  0  0  0
  5 11  2  0  0  0  0
  5  4  1  0  0  0  0
  6 17  1  0  0  0  0
  6  5  1  0  0  0  0
  6 16  1  0  0  0  0
  7 18  1  6  0  0  0
  7  6  1  0  0  0  0
  8  7  1  0  0  0  0
  8 19  1  0  0  0  0
  9 10  2  0  0  0  0
  9  7  1  0  0  0  0
 11 12  1  0  0  0  0
 12 22  1  0  0  0  0
 12  2  2  0  0  0  0
 15  4  1  0  0  0  0
 20  8  1  0  0  0  0
 21 11  1  0  0  0  0
 23  9  1  0  0  0  0
 24 23  1  0  0  0  0
 24 25  1  0  0  0  0
 25 26  2  0  0  0  0
 27 23  1  0  0  0  0
 28 24  1  0  0  0  0
 29 24  1  0  0  0  0
 30 38  1  0  0  0  0
 30 31  1  0  0  0  0
 31 41  1  1  0  0  0
 31 33  1  0  0  0  0
 31 32  1  0  0  0  0
 33 43  1  1  0  0  0
 34 25  1  0  0  0  0
 34 33  1  0  0  0  0
 35 33  1  0  0  0  0
 35 37  1  0  0  0  0
 36 35  2  0  0  0  0
 39 30  1  0  0  0  0
 40 30  1  0  0  0  0
 42 32  1  0  0  0  0
 44 34  1  0  0  0  0
M  END
$$$$
