YGW.pdb
 OpenBabel07022419213D

 54 56  0  0  1  0  0  0  0  0999 V2000
    2.6330    0.1260    6.8630 O   0  0  0  0  0  0  0  0  0  0  0  0
    2.9100   -0.2330    5.5500 C   0  0  0  0  0  0  0  0  0  0  0  0
    1.9860   -0.9640    4.8120 C   0  0  0  0  0  0  0  0  0  0  0  0
    2.2840   -1.3100    3.5060 C   0  0  0  0  0  0  0  0  0  0  0  0
    3.4640   -0.9670    2.8820 C   0  0  0  0  0  0  0  0  0  0  0  0
    3.7800   -1.3420    1.4810 C   0  0  0  0  0  0  0  0  0  0  0  0
    3.2990   -0.2630    0.5100 C   0  0  2  0  0  0  0  0  0  0  0  0
    3.9590    0.9870    0.8220 N   0  0  0  0  0  0  0  0  0  0  0  0
    1.8240   -0.1290    0.5690 C   0  0  0  0  0  0  0  0  0  0  0  0
    1.0620   -1.1020    0.3370 O   0  0  0  0  0  0  0  0  0  0  0  0
    4.3740   -0.2350    3.6430 C   0  0  0  0  0  0  0  0  0  0  0  0
    4.0970    0.1210    4.9460 C   0  0  0  0  0  0  0  0  0  0  0  0
    2.3950   -0.5520    7.5790 H   0  0  0  0  0  0  0  0  0  0  0  0
    1.0530   -1.2370    5.2990 H   0  0  0  0  0  0  0  0  0  0  0  0
    1.5600   -1.8760    2.9440 H   0  0  0  0  0  0  0  0  0  0  0  0
    4.8500   -1.5200    1.3720 H   0  0  0  0  0  0  0  0  0  0  0  0
    3.2430   -2.2940    1.2260 H   0  0  0  0  0  0  0  0  0  0  0  0
    3.6360   -0.6110   -0.5040 H   0  0  0  0  0  0  0  0  0  0  0  0
    3.6190    1.7010    0.1440 H   0  0  0  0  0  0  0  0  0  0  0  0
    3.6360    1.2820    1.7680 H   0  0  0  0  0  0  0  0  0  0  0  0
    5.3270    0.0700    3.2140 H   0  0  0  0  0  0  0  0  0  0  0  0
    4.7990    0.6880    5.5390 H   0  0  0  0  0  0  0  0  0  0  0  0
    1.2320    1.0970    0.8890 N   0  0  0  0  0  0  0  0  0  0  0  0
   -0.2050    1.3070    0.9660 C   0  0  0  0  0  0  0  0  0  0  0  0
   -0.8590    1.0120   -0.3360 C   0  0  0  0  0  0  0  0  0  0  0  0
   -0.1280    0.6380   -1.2860 O   0  0  0  0  0  0  0  0  0  0  0  0
    1.8360    1.9380    1.0900 H   0  0  0  0  0  0  0  0  0  0  0  0
   -0.5930    0.5350    1.6860 H   0  0  0  0  0  0  0  0  0  0  0  0
   -0.4600    2.2770    1.3860 H   0  0  0  0  0  0  0  0  0  0  0  0
   -2.2600    1.1460   -0.5090 N   0  0  0  0  0  0  0  0  0  0  0  0
   -2.8470    0.8530   -1.7770 C   0  0  1  0  0  0  0  0  0  0  0  0
   -3.9720   -0.1560   -1.6930 C   0  0  0  0  0  0  0  0  0  0  0  0
   -3.5350   -1.4460   -1.1470 C   0  0  0  0  0  0  0  0  0  0  0  0
   -3.7630   -1.9380    0.1220 C   0  0  0  0  0  0  0  0  0  0  0  0
   -3.1910   -3.1620    0.2160 N   0  0  0  0  0  0  0  0  0  0  0  0
   -2.6050   -3.4830   -0.9340 C   0  0  0  0  0  0  0  0  0  0  0  0
   -1.9020   -4.6210   -1.3070 C   0  0  0  0  0  0  0  0  0  0  0  0
   -1.3900   -4.6960   -2.5870 C   0  0  0  0  0  0  0  0  0  0  0  0
   -1.5820   -3.6530   -3.4590 C   0  0  0  0  0  0  0  0  0  0  0  0
   -2.2810   -2.5360   -3.0670 C   0  0  0  0  0  0  0  0  0  0  0  0
   -2.8100   -2.4250   -1.7920 C   0  0  0  0  0  0  0  0  0  0  0  0
   -3.4980    2.1250   -2.2610 C   0  0  0  0  0  0  0  0  0  0  0  0
   -4.1000    2.1570   -3.3700 O   0  0  0  0  0  0  0  0  0  0  0  0
   -3.4630    3.2940   -1.5190 O   0  0  0  0  0  0  0  0  0  0  0  0
   -2.8170    1.4640    0.3280 H   0  0  0  0  0  0  0  0  0  0  0  0
   -2.0730    0.5310   -2.4790 H   0  0  0  0  0  0  0  0  0  0  0  0
   -4.8200    0.2650   -1.1440 H   0  0  0  0  0  0  0  0  0  0  0  0
   -4.3220   -0.3150   -2.7440 H   0  0  0  0  0  0  0  0  0  0  0  0
   -4.3040   -1.4570    0.9390 H   0  0  0  0  0  0  0  0  0  0  0  0
   -3.1970   -3.7850    1.0630 H   0  0  0  0  0  0  0  0  0  0  0  0
   -1.7400   -5.4510   -0.6350 H   0  0  0  0  0  0  0  0  0  0  0  0
   -0.8370   -5.5770   -2.8970 H   0  0  0  0  0  0  0  0  0  0  0  0
   -1.1760   -3.7140   -4.4690 H   0  0  0  0  0  0  0  0  0  0  0  0
   -2.4490   -1.7000   -3.7300 H   0  0  0  0  0  0  0  0  0  0  0  0
  1 13  1  0  0  0  0
  2  1  1  0  0  0  0
  3 14  1  0  0  0  0
  3  2  2  0  0  0  0
  4  3  1  0  0  0  0
  5  4  2  0  0  0  0
  5 11  1  0  0  0  0
  6  5  1  0  0  0  0
  7 18  1  6  0  0  0
  7  9  1  0  0  0  0
  7  8  1  0  0  0  0
  7  6  1  0  0  0  0
  8 20  1  0  0  0  0
  9 23  1  0  0  0  0
 10  9  2  0  0  0  0
 11 12  2  0  0  0  0
 12 22  1  0  0  0  0
 12  2  1  0  0  0  0
 15  4  1  0  0  0  0
 16  6  1  0  0  0  0
 17  6  1  0  0  0  0
 19  8  1  0  0  0  0
 21 11  1  0  0  0  0
 23 24  1  0  0  0  0
 23 27  1  0  0  0  0
 24 29  1  0  0  0  0
 24 28  1  0  0  0  0
 25 24  1  0  0  0  0
 26 25  2  0  0  0  0
 30 25  1  0  0  0  0
 30 45  1  0  0  0  0
 31 46  1  6  0  0  0
 31 32  1  0  0  0  0
 31 30  1  0  0  0  0
 32 33  1  0  0  0  0
 32 47  1  0  0  0  0
 33 34  2  0  0  0  0
 34 35  1  0  0  0  0
 34 49  1  0  0  0  0
 35 50  1  0  0  0  0
 36 35  1  0  0  0  0
 37 36  1  0  0  0  0
 37 51  1  0  0  0  0
 38 37  2  0  0  0  0
 39 40  2  0  0  0  0
 39 38  1  0  0  0  0
 40 41  1  0  0  0  0
 41 33  1  0  0  0  0
 41 36  2  0  0  0  0
 42 31  1  0  0  0  0
 42 44  1  0  0  0  0
 43 42  2  0  0  0  0
 48 32  1  0  0  0  0
 52 38  1  0  0  0  0
 53 39  1  0  0  0  0
 54 40  1  0  0  0  0
M  END
$$$$
