YHK.pdb
 OpenBabel07022419213D

 61 62  0  0  1  0  0  0  0  0999 V2000
    1.8250   -0.7240    6.8640 O   0  0  0  0  0  0  0  0  0  0  0  0
    2.3660   -0.3360    5.6360 C   0  0  0  0  0  0  0  0  0  0  0  0
    2.5990    0.9840    5.3110 C   0  0  0  0  0  0  0  0  0  0  0  0
    3.1340    1.3650    4.0970 C   0  0  0  0  0  0  0  0  0  0  0  0
    3.4610    0.4190    3.1510 C   0  0  0  0  0  0  0  0  0  0  0  0
    4.0350    0.8340    1.8510 C   0  0  0  0  0  0  0  0  0  0  0  0
    2.9560    1.0850    0.8160 C   0  0  2  0  0  0  0  0  0  0  0  0
    2.0940    2.1230    1.2830 N   0  0  0  0  0  0  0  0  0  0  0  0
    2.2540   -0.1850    0.5350 C   0  0  0  0  0  0  0  0  0  0  0  0
    2.9220   -1.1560    0.1210 O   0  0  0  0  0  0  0  0  0  0  0  0
    3.2340   -0.9030    3.4650 C   0  0  0  0  0  0  0  0  0  0  0  0
    2.6950   -1.2860    4.6850 C   0  0  0  0  0  0  0  0  0  0  0  0
    2.2910   -1.4090    7.4600 H   0  0  0  0  0  0  0  0  0  0  0  0
    2.3500    1.7460    6.0360 H   0  0  0  0  0  0  0  0  0  0  0  0
    3.2920    2.4290    3.9050 H   0  0  0  0  0  0  0  0  0  0  0  0
    4.6510   -0.0140    1.4470 H   0  0  0  0  0  0  0  0  0  0  0  0
    4.7210    1.6880    1.9380 H   0  0  0  0  0  0  0  0  0  0  0  0
    3.4560    1.4430   -0.1060 H   0  0  0  0  0  0  0  0  0  0  0  0
    1.6630    1.9720    2.2000 H   0  0  0  0  0  0  0  0  0  0  0  0
    2.4080    3.0750    1.0750 H   0  0  0  0  0  0  0  0  0  0  0  0
    3.4700   -1.6890    2.7630 H   0  0  0  0  0  0  0  0  0  0  0  0
    2.5100   -2.3200    4.9480 H   0  0  0  0  0  0  0  0  0  0  0  0
    0.8590   -0.3740    0.7070 N   0  0  0  0  0  0  0  0  0  0  0  0
    0.1900   -1.6270    0.4260 C   0  0  1  0  0  0  0  0  0  0  0  0
   -0.4310   -2.1490    1.7030 C   0  0  0  0  0  0  0  0  0  0  0  0
   -1.4150   -1.2370    2.2840 C   0  0  0  0  0  0  0  0  0  0  0  0
   -1.2130   -0.2250    3.1990 C   0  0  0  0  0  0  0  0  0  0  0  0
   -2.3940    0.3640    3.4600 N   0  0  0  0  0  0  0  0  0  0  0  0
   -3.3390   -0.2550    2.7270 C   0  0  0  0  0  0  0  0  0  0  0  0
   -2.7330   -1.2240    2.0190 N   0  0  0  0  0  0  0  0  0  0  0  0
   -0.8800   -1.4400   -0.6280 C   0  0  0  0  0  0  0  0  0  0  0  0
   -1.5750   -2.4180   -0.9970 O   0  0  0  0  0  0  0  0  0  0  0  0
    0.3050    0.4280    1.0520 H   0  0  0  0  0  0  0  0  0  0  0  0
    0.9070   -2.4080    0.0840 H   0  0  0  0  0  0  0  0  0  0  0  0
   -0.8730   -3.1650    1.5430 H   0  0  0  0  0  0  0  0  0  0  0  0
    0.4230   -2.3280    2.4100 H   0  0  0  0  0  0  0  0  0  0  0  0
   -0.2680    0.0840    3.6630 H   0  0  0  0  0  0  0  0  0  0  0  0
   -2.5600    1.1620    4.1130 H   0  0  0  0  0  0  0  0  0  0  0  0
   -4.4020    0.0100    2.7340 H   0  0  0  0  0  0  0  0  0  0  0  0
   -1.1090   -0.1810   -1.2030 N   0  0  0  0  0  0  0  0  0  0  0  0
   -2.0440    0.1850   -2.2130 C   0  0  1  0  0  0  0  0  0  0  0  0
   -2.6230   -0.9710   -3.0170 C   0  0  0  0  0  0  0  0  0  0  0  0
   -1.5440   -1.6510   -3.7860 C   0  0  0  0  0  0  0  0  0  0  0  0
   -2.0520   -2.8240   -4.6040 C   0  0  0  0  0  0  0  0  0  0  0  0
   -2.6660   -3.8400   -3.6840 C   0  0  0  0  0  0  0  0  0  0  0  0
   -3.1450   -4.9490   -4.5210 N   0  0  0  0  0  0  0  0  0  0  0  0
   -3.0360    1.1790   -1.8960 C   0  0  0  0  0  0  0  0  0  0  0  0
   -3.8670    1.5110   -2.7790 O   0  0  0  0  0  0  0  0  0  0  0  0
   -3.1530    1.8160   -0.6640 O   0  0  0  0  0  0  0  0  0  0  0  0
   -0.4780    0.6000   -0.8130 H   0  0  0  0  0  0  0  0  0  0  0  0
   -1.3490    0.6400   -3.0420 H   0  0  0  0  0  0  0  0  0  0  0  0
   -3.2590   -1.6210   -2.4070 H   0  0  0  0  0  0  0  0  0  0  0  0
   -3.3150   -0.4790   -3.7590 H   0  0  0  0  0  0  0  0  0  0  0  0
   -1.2690   -0.8810   -4.6140 H   0  0  0  0  0  0  0  0  0  0  0  0
   -0.6020   -1.8140   -3.2810 H   0  0  0  0  0  0  0  0  0  0  0  0
   -2.8100   -2.4410   -5.3340 H   0  0  0  0  0  0  0  0  0  0  0  0
   -1.2420   -3.2900   -5.1930 H   0  0  0  0  0  0  0  0  0  0  0  0
   -1.9050   -4.2500   -2.9910 H   0  0  0  0  0  0  0  0  0  0  0  0
   -3.5580   -3.4800   -3.1500 H   0  0  0  0  0  0  0  0  0  0  0  0
   -2.2890   -5.4350   -4.9140 H   0  0  0  0  0  0  0  0  0  0  0  0
   -3.6620   -5.5840   -3.8730 H   0  0  0  0  0  0  0  0  0  0  0  0
  1 13  1  0  0  0  0
  2  1  1  0  0  0  0
  3  2  1  0  0  0  0
  3 14  1  0  0  0  0
  4  3  2  0  0  0  0
  5 11  2  0  0  0  0
  5  4  1  0  0  0  0
  6 17  1  0  0  0  0
  6  5  1  0  0  0  0
  7 18  1  6  0  0  0
  7  8  1  0  0  0  0
  7  6  1  0  0  0  0
  8 19  1  0  0  0  0
  9 23  1  0  0  0  0
  9  7  1  0  0  0  0
 10  9  2  0  0  0  0
 11 12  1  0  0  0  0
 12 22  1  0  0  0  0
 12  2  2  0  0  0  0
 15  4  1  0  0  0  0
 16  6  1  0  0  0  0
 20  8  1  0  0  0  0
 21 11  1  0  0  0  0
 23 33  1  0  0  0  0
 24 34  1  6  0  0  0
 24 23  1  0  0  0  0
 24 25  1  0  0  0  0
 25 26  1  0  0  0  0
 25 36  1  0  0  0  0
 26 27  2  0  0  0  0
 27 28  1  0  0  0  0
 27 37  1  0  0  0  0
 28 38  1  0  0  0  0
 29 39  1  0  0  0  0
 29 28  1  0  0  0  0
 30 26  1  0  0  0  0
 30 29  2  0  0  0  0
 31 24  1  0  0  0  0
 32 31  2  0  0  0  0
 35 25  1  0  0  0  0
 40 50  1  0  0  0  0
 40 31  1  0  0  0  0
 41 51  1  6  0  0  0
 41 47  1  0  0  0  0
 41 40  1  0  0  0  0
 42 52  1  0  0  0  0
 42 41  1  0  0  0  0
 43 55  1  0  0  0  0
 43 42  1  0  0  0  0
 44 43  1  0  0  0  0
 44 45  1  0  0  0  0
 45 59  1  0  0  0  0
 45 58  1  0  0  0  0
 46 61  1  0  0  0  0
 46 45  1  0  0  0  0
 47 49  1  0  0  0  0
 48 47  2  0  0  0  0
 53 42  1  0  0  0  0
 54 43  1  0  0  0  0
 56 44  1  0  0  0  0
 57 44  1  0  0  0  0
 60 46  1  0  0  0  0
M  END
$$$$
