YHQ.pdb
 OpenBabel07022419213D

 57 58  0  0  1  0  0  0  0  0999 V2000
    5.4500   -0.4290    3.4530 O   0  0  0  0  0  0  0  0  0  0  0  0
    4.4520    0.3890    2.8860 C   0  0  0  0  0  0  0  0  0  0  0  0
    3.8950    1.4450    3.5680 C   0  0  0  0  0  0  0  0  0  0  0  0
    2.9240    2.2550    3.0400 C   0  0  0  0  0  0  0  0  0  0  0  0
    2.4670    2.0160    1.7620 C   0  0  0  0  0  0  0  0  0  0  0  0
    1.4130    2.9090    1.1720 C   0  0  0  0  0  0  0  0  0  0  0  0
    0.0360    2.5440    1.5840 C   0  0  2  0  0  0  0  0  0  0  0  0
   -0.0860    2.5950    3.0550 N   0  0  0  0  0  0  0  0  0  0  0  0
   -0.5420    1.3080    1.0260 C   0  0  0  0  0  0  0  0  0  0  0  0
   -0.9080    1.2660   -0.1730 O   0  0  0  0  0  0  0  0  0  0  0  0
    2.9990    0.9750    1.0580 C   0  0  0  0  0  0  0  0  0  0  0  0
    3.9750    0.1720    1.6090 C   0  0  0  0  0  0  0  0  0  0  0  0
    5.3910   -0.7740    4.4040 H   0  0  0  0  0  0  0  0  0  0  0  0
    4.2710    1.6240    4.5880 H   0  0  0  0  0  0  0  0  0  0  0  0
    2.5160    3.0840    3.6290 H   0  0  0  0  0  0  0  0  0  0  0  0
    1.5180    2.8530    0.0910 H   0  0  0  0  0  0  0  0  0  0  0  0
    1.6370    3.9140    1.5270 H   0  0  0  0  0  0  0  0  0  0  0  0
   -0.6220    3.4060    1.2540 H   0  0  0  0  0  0  0  0  0  0  0  0
   -1.0580    2.3650    3.3420 H   0  0  0  0  0  0  0  0  0  0  0  0
    0.1080    3.5990    3.3560 H   0  0  0  0  0  0  0  0  0  0  0  0
    2.6710    0.7580    0.0240 H   0  0  0  0  0  0  0  0  0  0  0  0
    4.4210   -0.6640    1.0790 H   0  0  0  0  0  0  0  0  0  0  0  0
   -0.7080    0.1390    1.8120 N   0  0  0  0  0  0  0  0  0  0  0  0
   -1.2550   -1.1230    1.4560 C   0  0  1  0  0  0  0  0  0  0  0  0
   -2.7140   -1.2280    1.7470 C   0  0  0  0  0  0  0  0  0  0  0  0
   -3.2650   -2.5410    1.3740 C   0  0  0  0  0  0  0  0  0  0  0  0
   -3.2960   -3.6720    2.1530 C   0  0  0  0  0  0  0  0  0  0  0  0
   -3.8670   -4.6700    1.4810 N   0  0  0  0  0  0  0  0  0  0  0  0
   -4.2220   -4.2150    0.2540 C   0  0  0  0  0  0  0  0  0  0  0  0
   -3.8550   -2.9350    0.2000 N   0  0  0  0  0  0  0  0  0  0  0  0
   -0.7800   -1.7800    0.2330 C   0  0  0  0  0  0  0  0  0  0  0  0
   -1.3470   -2.8800   -0.1450 O   0  0  0  0  0  0  0  0  0  0  0  0
   -0.3570    0.2820    2.8210 H   0  0  0  0  0  0  0  0  0  0  0  0
   -0.8030   -1.8440    2.2650 H   0  0  0  0  0  0  0  0  0  0  0  0
   -3.3210   -0.4870    1.1700 H   0  0  0  0  0  0  0  0  0  0  0  0
   -2.8530   -1.0600    2.8490 H   0  0  0  0  0  0  0  0  0  0  0  0
   -2.9120   -3.7460    3.1710 H   0  0  0  0  0  0  0  0  0  0  0  0
   -4.0460   -5.6380    1.7690 H   0  0  0  0  0  0  0  0  0  0  0  0
   -4.7040   -4.7580   -0.5380 H   0  0  0  0  0  0  0  0  0  0  0  0
   -3.5150   -2.1330   -3.4310 N   0  0  0  0  0  0  0  0  0  0  0  0
   -2.1040   -2.3110   -3.3500 C   0  0  0  0  0  0  0  0  0  0  0  0
   -1.6630   -3.4820   -3.2870 O   0  0  0  0  0  0  0  0  0  0  0  0
   -1.1880   -1.1800   -3.3430 C   0  0  0  0  0  0  0  0  0  0  0  0
    0.2570   -1.4960   -3.1190 C   0  0  0  0  0  0  0  0  0  0  0  0
    0.5840   -2.1490   -1.8230 C   0  0  2  0  0  0  0  0  0  0  0  0
    0.2390   -1.4040   -0.6470 N   0  0  0  0  0  0  0  0  0  0  0  0
    2.0230   -2.4610   -1.8030 C   0  0  0  0  0  0  0  0  0  0  0  0
    2.5180   -3.1030   -2.7440 O   0  0  0  0  0  0  0  0  0  0  0  0
    2.8120   -2.0540   -0.7620 O   0  0  0  0  0  0  0  0  0  0  0  0
   -3.9580   -1.2340   -3.7320 H   0  0  0  0  0  0  0  0  0  0  0  0
   -4.1720   -2.9000   -3.1880 H   0  0  0  0  0  0  0  0  0  0  0  0
   -1.3530   -0.6410   -4.3240 H   0  0  0  0  0  0  0  0  0  0  0  0
   -1.4730   -0.3940   -2.5800 H   0  0  0  0  0  0  0  0  0  0  0  0
    0.5150   -2.2760   -3.9030 H   0  0  0  0  0  0  0  0  0  0  0  0
    0.9250   -0.6400   -3.3960 H   0  0  0  0  0  0  0  0  0  0  0  0
    0.0440   -3.1210   -1.8100 H   0  0  0  0  0  0  0  0  0  0  0  0
    0.8090   -0.5700   -0.4510 H   0  0  0  0  0  0  0  0  0  0  0  0
  1 13  1  0  0  0  0
  2  1  1  0  0  0  0
  2  3  1  0  0  0  0
  3 14  1  0  0  0  0
  4  3  2  0  0  0  0
  4 15  1  0  0  0  0
  5  4  1  0  0  0  0
  6 17  1  0  0  0  0
  6  7  1  0  0  0  0
  6  5  1  0  0  0  0
  7 18  1  6  0  0  0
  7  8  1  0  0  0  0
  8 19  1  0  0  0  0
  8 20  1  0  0  0  0
  9  7  1  0  0  0  0
  9 23  1  0  0  0  0
 10  9  2  0  0  0  0
 11 12  1  0  0  0  0
 11  5  2  0  0  0  0
 12  2  2  0  0  0  0
 16  6  1  0  0  0  0
 21 11  1  0  0  0  0
 22 12  1  0  0  0  0
 23 33  1  0  0  0  0
 24 25  1  0  0  0  0
 24 23  1  0  0  0  0
 24 34  1  1  0  0  0
 25 36  1  0  0  0  0
 26 25  1  0  0  0  0
 26 27  2  0  0  0  0
 27 37  1  0  0  0  0
 28 38  1  0  0  0  0
 28 27  1  0  0  0  0
 29 28  1  0  0  0  0
 30 29  2  0  0  0  0
 30 26  1  0  0  0  0
 31 24  1  0  0  0  0
 32 31  2  0  0  0  0
 35 25  1  0  0  0  0
 39 29  1  0  0  0  0
 40 41  1  0  0  0  0
 40 51  1  0  0  0  0
 41 43  1  0  0  0  0
 41 42  2  0  0  0  0
 43 44  1  0  0  0  0
 43 53  1  0  0  0  0
 44 45  1  0  0  0  0
 45 56  1  1  0  0  0
 45 47  1  0  0  0  0
 45 46  1  0  0  0  0
 46 57  1  0  0  0  0
 46 31  1  0  0  0  0
 47 49  1  0  0  0  0
 48 47  2  0  0  0  0
 50 40  1  0  0  0  0
 52 43  1  0  0  0  0
 54 44  1  0  0  0  0
 55 44  1  0  0  0  0
M  END
$$$$
