YHT.pdb
 OpenBabel07022419213D

 54 55  0  0  1  0  0  0  0  0999 V2000
    0.0590    3.1780    5.1020 O   0  0  0  0  0  0  0  0  0  0  0  0
    1.0610    2.6930    4.2840 C   0  0  0  0  0  0  0  0  0  0  0  0
    1.2620    1.3290    4.2670 C   0  0  0  0  0  0  0  0  0  0  0  0
    2.2600    0.8410    3.4520 C   0  0  0  0  0  0  0  0  0  0  0  0
    3.0590    1.6330    2.6620 C   0  0  0  0  0  0  0  0  0  0  0  0
    4.1340    1.1230    1.7810 C   0  0  0  0  0  0  0  0  0  0  0  0
    3.6470    0.8150    0.3820 C   0  0  2  0  0  0  0  0  0  0  0  0
    3.1110    2.0250   -0.2210 N   0  0  0  0  0  0  0  0  0  0  0  0
    2.5470   -0.1770    0.4970 C   0  0  0  0  0  0  0  0  0  0  0  0
    2.7460   -1.3390    0.9720 O   0  0  0  0  0  0  0  0  0  0  0  0
    2.8130    3.0080    2.7170 C   0  0  0  0  0  0  0  0  0  0  0  0
    1.8390    3.5340    3.5060 C   0  0  0  0  0  0  0  0  0  0  0  0
   -0.7020    2.5970    5.4120 H   0  0  0  0  0  0  0  0  0  0  0  0
    0.6550    0.6580    4.8750 H   0  0  0  0  0  0  0  0  0  0  0  0
    2.4070   -0.2250    3.4500 H   0  0  0  0  0  0  0  0  0  0  0  0
    4.9920    1.8290    1.7560 H   0  0  0  0  0  0  0  0  0  0  0  0
    4.4660    0.1440    2.2190 H   0  0  0  0  0  0  0  0  0  0  0  0
    4.4770    0.4630   -0.2370 H   0  0  0  0  0  0  0  0  0  0  0  0
    2.8470    1.8840   -1.2040 H   0  0  0  0  0  0  0  0  0  0  0  0
    3.8440    2.7710   -0.2070 H   0  0  0  0  0  0  0  0  0  0  0  0
    3.4180    3.6650    2.1130 H   0  0  0  0  0  0  0  0  0  0  0  0
    1.6180    4.6070    3.5740 H   0  0  0  0  0  0  0  0  0  0  0  0
    1.2190    0.1060    0.0890 N   0  0  0  0  0  0  0  0  0  0  0  0
    0.1630   -0.9280    0.2300 C   0  0  1  0  0  0  0  0  0  0  0  0
   -0.7690   -0.3520    1.2590 C   0  0  0  0  0  0  0  0  0  0  0  0
   -1.9200   -1.1670    1.6120 C   0  0  0  0  0  0  0  0  0  0  0  0
   -1.8890   -2.1260    2.6330 C   0  0  0  0  0  0  0  0  0  0  0  0
   -3.1100   -2.6700    2.6710 N   0  0  0  0  0  0  0  0  0  0  0  0
   -3.8650   -2.0880    1.7280 C   0  0  0  0  0  0  0  0  0  0  0  0
   -3.1420   -1.1660    1.0750 N   0  0  0  0  0  0  0  0  0  0  0  0
   -0.5130   -1.1410   -1.0390 C   0  0  0  0  0  0  0  0  0  0  0  0
   -0.2280   -0.3380   -2.0040 O   0  0  0  0  0  0  0  0  0  0  0  0
    1.0230    1.0450   -0.3030 H   0  0  0  0  0  0  0  0  0  0  0  0
    0.6030   -1.8460    0.6700 H   0  0  0  0  0  0  0  0  0  0  0  0
   -0.2020   -0.0530    2.1800 H   0  0  0  0  0  0  0  0  0  0  0  0
   -1.1580    0.6050    0.8020 H   0  0  0  0  0  0  0  0  0  0  0  0
   -1.0190   -2.3390    3.2400 H   0  0  0  0  0  0  0  0  0  0  0  0
   -3.4180   -3.4110    3.3160 H   0  0  0  0  0  0  0  0  0  0  0  0
   -4.9070   -2.2830    1.4760 H   0  0  0  0  0  0  0  0  0  0  0  0
   -1.8400   -4.7260   -2.7430 C   0  0  0  0  0  0  0  0  0  0  0  0
   -1.4930   -3.4510   -3.4430 C   0  0  1  0  0  0  0  0  0  0  0  0
   -2.1150   -3.4440   -4.6920 O   0  0  0  0  0  0  0  0  0  0  0  0
   -2.0400   -2.2310   -2.6970 C   0  0  2  0  0  0  0  0  0  0  0  0
   -1.4620   -2.1350   -1.3800 N   0  0  0  0  0  0  0  0  0  0  0  0
   -3.5020   -2.4020   -2.6830 C   0  0  0  0  0  0  0  0  0  0  0  0
   -4.1840   -2.4690   -3.7510 O   0  0  0  0  0  0  0  0  0  0  0  0
   -4.1720   -2.4970   -1.4910 O   0  0  0  0  0  0  0  0  0  0  0  0
   -2.1040   -5.5160   -3.5010 H   0  0  0  0  0  0  0  0  0  0  0  0
   -2.6910   -4.6500   -2.0510 H   0  0  0  0  0  0  0  0  0  0  0  0
   -0.9660   -5.1610   -2.1880 H   0  0  0  0  0  0  0  0  0  0  0  0
   -0.4150   -3.3900   -3.5910 H   0  0  0  0  0  0  0  0  0  0  0  0
   -1.9700   -2.5580   -5.1300 H   0  0  0  0  0  0  0  0  0  0  0  0
   -1.7880   -1.3750   -3.3410 H   0  0  0  0  0  0  0  0  0  0  0  0
   -1.7250   -2.8090   -0.6340 H   0  0  0  0  0  0  0  0  0  0  0  0
  1 13  1  0  0  0  0
  2  1  1  0  0  0  0
  3  2  1  0  0  0  0
  3 14  1  0  0  0  0
  4  3  2  0  0  0  0
  5 11  2  0  0  0  0
  5  4  1  0  0  0  0
  6 17  1  0  0  0  0
  6  5  1  0  0  0  0
  7 18  1  6  0  0  0
  7  9  1  0  0  0  0
  7  6  1  0  0  0  0
  8 20  1  0  0  0  0
  8  7  1  0  0  0  0
  9 10  2  0  0  0  0
 11 12  1  0  0  0  0
 12 22  1  0  0  0  0
 12  2  2  0  0  0  0
 15  4  1  0  0  0  0
 16  6  1  0  0  0  0
 19  8  1  0  0  0  0
 21 11  1  0  0  0  0
 23 24  1  0  0  0  0
 23  9  1  0  0  0  0
 24 34  1  1  0  0  0
 24 25  1  0  0  0  0
 25 26  1  0  0  0  0
 25 35  1  0  0  0  0
 26 27  2  0  0  0  0
 27 28  1  0  0  0  0
 27 37  1  0  0  0  0
 28 38  1  0  0  0  0
 29 28  1  0  0  0  0
 30 26  1  0  0  0  0
 30 29  2  0  0  0  0
 31 24  1  0  0  0  0
 32 31  2  0  0  0  0
 33 23  1  0  0  0  0
 36 25  1  0  0  0  0
 39 29  1  0  0  0  0
 40 50  1  0  0  0  0
 40 49  1  0  0  0  0
 41 51  1  6  0  0  0
 41 40  1  0  0  0  0
 41 43  1  0  0  0  0
 42 41  1  0  0  0  0
 43 53  1  6  0  0  0
 43 45  1  0  0  0  0
 43 44  1  0  0  0  0
 44 31  1  0  0  0  0
 44 54  1  0  0  0  0
 45 47  1  0  0  0  0
 46 45  2  0  0  0  0
 48 40  1  0  0  0  0
 52 42  1  0  0  0  0
M  END
$$$$
