YHV.pdb
 OpenBabel07022419213D

 56 57  0  0  1  0  0  0  0  0999 V2000
    0.0330    3.8410    3.9480 O   0  0  0  0  0  0  0  0  0  0  0  0
    0.8730    2.7540    3.6860 C   0  0  0  0  0  0  0  0  0  0  0  0
    0.4280    1.5010    4.1230 C   0  0  0  0  0  0  0  0  0  0  0  0
    1.2430    0.4180    3.8730 C   0  0  0  0  0  0  0  0  0  0  0  0
    2.4560    0.5070    3.2250 C   0  0  0  0  0  0  0  0  0  0  0  0
    3.3280   -0.6650    2.9600 C   0  0  0  0  0  0  0  0  0  0  0  0
    2.9910   -1.2950    1.6080 C   0  0  2  0  0  0  0  0  0  0  0  0
    3.2180   -0.2440    0.6200 N   0  0  0  0  0  0  0  0  0  0  0  0
    1.5620   -1.6960    1.6270 C   0  0  0  0  0  0  0  0  0  0  0  0
    1.1870   -2.5980    2.4150 O   0  0  0  0  0  0  0  0  0  0  0  0
    2.8460    1.7850    2.8120 C   0  0  0  0  0  0  0  0  0  0  0  0
    2.0750    2.8830    3.0360 C   0  0  0  0  0  0  0  0  0  0  0  0
   -0.3690    4.0060    4.8750 H   0  0  0  0  0  0  0  0  0  0  0  0
   -0.5230    1.3840    4.6390 H   0  0  0  0  0  0  0  0  0  0  0  0
    0.8880   -0.5480    4.2180 H   0  0  0  0  0  0  0  0  0  0  0  0
    4.3770   -0.2960    2.9430 H   0  0  0  0  0  0  0  0  0  0  0  0
    3.2610   -1.4350    3.7580 H   0  0  0  0  0  0  0  0  0  0  0  0
    3.6770   -2.1350    1.4160 H   0  0  0  0  0  0  0  0  0  0  0  0
    3.1390   -0.6210   -0.3550 H   0  0  0  0  0  0  0  0  0  0  0  0
    4.1850    0.1390    0.6960 H   0  0  0  0  0  0  0  0  0  0  0  0
    3.7940    1.8760    2.3020 H   0  0  0  0  0  0  0  0  0  0  0  0
    2.3880    3.8570    2.7140 H   0  0  0  0  0  0  0  0  0  0  0  0
    0.5790   -1.1140    0.7960 N   0  0  0  0  0  0  0  0  0  0  0  0
   -0.8140   -1.5020    0.8120 C   0  0  1  0  0  0  0  0  0  0  0  0
   -1.6270   -0.3260    1.3130 C   0  0  0  0  0  0  0  0  0  0  0  0
   -3.0760   -0.6480    1.3580 C   0  0  0  0  0  0  0  0  0  0  0  0
   -3.7190   -1.1920    2.4420 C   0  0  0  0  0  0  0  0  0  0  0  0
   -5.0150   -1.3470    2.1270 N   0  0  0  0  0  0  0  0  0  0  0  0
   -5.1590   -0.9050    0.8710 C   0  0  0  0  0  0  0  0  0  0  0  0
   -3.9860   -0.4760    0.3910 N   0  0  0  0  0  0  0  0  0  0  0  0
   -1.2790   -2.0340   -0.4690 C   0  0  0  0  0  0  0  0  0  0  0  0
   -2.4660   -2.4220   -0.6140 O   0  0  0  0  0  0  0  0  0  0  0  0
    0.8810   -0.3640    0.1380 H   0  0  0  0  0  0  0  0  0  0  0  0
   -0.9200   -2.3070    1.5750 H   0  0  0  0  0  0  0  0  0  0  0  0
   -1.4650    0.5750    0.6780 H   0  0  0  0  0  0  0  0  0  0  0  0
   -1.3160   -0.0380    2.3380 H   0  0  0  0  0  0  0  0  0  0  0  0
   -3.2740   -1.4610    3.4050 H   0  0  0  0  0  0  0  0  0  0  0  0
   -5.7830   -1.7450    2.7530 H   0  0  0  0  0  0  0  0  0  0  0  0
   -6.0750   -0.8720    0.2730 H   0  0  0  0  0  0  0  0  0  0  0  0
    0.5680   -1.2600   -4.2580 C   0  0  0  0  0  0  0  0  0  0  0  0
   -0.8580   -1.6910   -3.9930 C   0  0  0  0  0  0  0  0  0  0  0  0
   -1.7660   -0.5070   -3.8140 C   0  0  0  0  0  0  0  0  0  0  0  0
   -0.9330   -2.6720   -2.8470 C   0  0  2  0  0  0  0  0  0  0  0  0
   -0.4370   -2.1460   -1.6150 N   0  0  0  0  0  0  0  0  0  0  0  0
   -0.2320   -3.9170   -3.2590 C   0  0  0  0  0  0  0  0  0  0  0  0
   -0.5570   -4.5010   -4.3240 O   0  0  0  0  0  0  0  0  0  0  0  0
    0.7920   -4.4860   -2.5060 O   0  0  0  0  0  0  0  0  0  0  0  0
    0.5190   -0.4170   -4.9980 H   0  0  0  0  0  0  0  0  0  0  0  0
    1.1470   -2.0610   -4.7750 H   0  0  0  0  0  0  0  0  0  0  0  0
    1.1210   -1.0010   -3.3470 H   0  0  0  0  0  0  0  0  0  0  0  0
   -1.1990   -2.2370   -4.9020 H   0  0  0  0  0  0  0  0  0  0  0  0
   -2.2370   -0.2350   -4.7990 H   0  0  0  0  0  0  0  0  0  0  0  0
   -2.5870   -0.7540   -3.1330 H   0  0  0  0  0  0  0  0  0  0  0  0
   -1.1920    0.3890   -3.5020 H   0  0  0  0  0  0  0  0  0  0  0  0
   -2.0010   -2.9390   -2.7110 H   0  0  0  0  0  0  0  0  0  0  0  0
    0.5610   -1.8200   -1.4940 H   0  0  0  0  0  0  0  0  0  0  0  0
  1 13  1  0  0  0  0
  2  1  1  0  0  0  0
  2  3  1  0  0  0  0
  3 14  1  0  0  0  0
  4  3  2  0  0  0  0
  4 15  1  0  0  0  0
  5  4  1  0  0  0  0
  6  5  1  0  0  0  0
  6 17  1  0  0  0  0
  7 18  1  6  0  0  0
  7  9  1  0  0  0  0
  7  6  1  0  0  0  0
  8 20  1  0  0  0  0
  8  7  1  0  0  0  0
  9 10  2  0  0  0  0
 11 12  1  0  0  0  0
 11  5  2  0  0  0  0
 12  2  2  0  0  0  0
 16  6  1  0  0  0  0
 19  8  1  0  0  0  0
 21 11  1  0  0  0  0
 22 12  1  0  0  0  0
 23 24  1  0  0  0  0
 23  9  1  0  0  0  0
 24 25  1  0  0  0  0
 24 34  1  1  0  0  0
 25 26  1  0  0  0  0
 25 36  1  0  0  0  0
 26 27  2  0  0  0  0
 27 37  1  0  0  0  0
 28 27  1  0  0  0  0
 28 38  1  0  0  0  0
 29 28  1  0  0  0  0
 30 29  2  0  0  0  0
 30 26  1  0  0  0  0
 31 24  1  0  0  0  0
 32 31  2  0  0  0  0
 33 23  1  0  0  0  0
 35 25  1  0  0  0  0
 39 29  1  0  0  0  0
 40 41  1  0  0  0  0
 40 50  1  0  0  0  0
 41 42  1  0  0  0  0
 41 43  1  0  0  0  0
 42 54  1  0  0  0  0
 42 53  1  0  0  0  0
 43 55  1  1  0  0  0
 43 44  1  0  0  0  0
 44 56  1  0  0  0  0
 44 31  1  0  0  0  0
 45 43  1  0  0  0  0
 45 47  1  0  0  0  0
 46 45  2  0  0  0  0
 48 40  1  0  0  0  0
 49 40  1  0  0  0  0
 51 41  1  0  0  0  0
 52 42  1  0  0  0  0
M  END
$$$$
