YHW.pdb
 OpenBabel07022419213D

 64 67  0  0  1  0  0  0  0  0999 V2000
    3.9560    2.1970    6.5010 O   0  0  0  0  0  0  0  0  0  0  0  0
    3.5170    2.3970    5.1960 C   0  0  0  0  0  0  0  0  0  0  0  0
    4.4010    2.8160    4.2270 C   0  0  0  0  0  0  0  0  0  0  0  0
    3.9530    3.0090    2.9430 C   0  0  0  0  0  0  0  0  0  0  0  0
    2.6330    2.7860    2.6260 C   0  0  0  0  0  0  0  0  0  0  0  0
    2.1520    3.0000    1.2620 C   0  0  0  0  0  0  0  0  0  0  0  0
    2.2670    1.8030    0.3520 C   0  0  2  0  0  0  0  0  0  0  0  0
    1.7590    2.1240   -0.9730 N   0  0  0  0  0  0  0  0  0  0  0  0
    1.6570    0.5720    0.9180 C   0  0  0  0  0  0  0  0  0  0  0  0
    2.0780    0.1850    2.0060 O   0  0  0  0  0  0  0  0  0  0  0  0
    1.7720    2.3650    3.6230 C   0  0  0  0  0  0  0  0  0  0  0  0
    2.1920    2.1630    4.9190 C   0  0  0  0  0  0  0  0  0  0  0  0
    3.6010    2.7690    7.2460 H   0  0  0  0  0  0  0  0  0  0  0  0
    5.4530    2.9980    4.4640 H   0  0  0  0  0  0  0  0  0  0  0  0
    4.6740    3.3460    2.1750 H   0  0  0  0  0  0  0  0  0  0  0  0
    2.6730    3.8780    0.8540 H   0  0  0  0  0  0  0  0  0  0  0  0
    1.0640    3.2640    1.2860 H   0  0  0  0  0  0  0  0  0  0  0  0
    3.3760    1.6420    0.2040 H   0  0  0  0  0  0  0  0  0  0  0  0
    0.7410    2.3200   -0.8780 H   0  0  0  0  0  0  0  0  0  0  0  0
    1.8600    1.3200   -1.6240 H   0  0  0  0  0  0  0  0  0  0  0  0
    0.7090    2.1780    3.3950 H   0  0  0  0  0  0  0  0  0  0  0  0
    1.4830    1.8270    5.6920 H   0  0  0  0  0  0  0  0  0  0  0  0
    0.6510   -0.1200    0.2530 N   0  0  0  0  0  0  0  0  0  0  0  0
   -0.0650   -1.2950    0.5430 C   0  0  1  0  0  0  0  0  0  0  0  0
    0.0990   -1.9360    1.8860 C   0  0  0  0  0  0  0  0  0  0  0  0
    1.4580   -2.4830    2.1370 C   0  0  0  0  0  0  0  0  0  0  0  0
    1.8130   -3.0570    3.3570 C   0  0  0  0  0  0  0  0  0  0  0  0
    3.0910   -3.4660    3.3190 N   0  0  0  0  0  0  0  0  0  0  0  0
    3.5230   -3.1490    2.0850 C   0  0  0  0  0  0  0  0  0  0  0  0
    2.5510   -2.5640    1.3820 N   0  0  0  0  0  0  0  0  0  0  0  0
   -1.4550   -1.2540    0.1400 C   0  0  0  0  0  0  0  0  0  0  0  0
   -1.8710   -0.1690   -0.3900 O   0  0  0  0  0  0  0  0  0  0  0  0
    0.3500    0.3350   -0.6850 H   0  0  0  0  0  0  0  0  0  0  0  0
    0.5010   -2.1020   -0.1110 H   0  0  0  0  0  0  0  0  0  0  0  0
   -0.2450   -1.2870    2.7210 H   0  0  0  0  0  0  0  0  0  0  0  0
   -0.5700   -2.8190    1.9130 H   0  0  0  0  0  0  0  0  0  0  0  0
    1.1720   -3.1650    4.2170 H   0  0  0  0  0  0  0  0  0  0  0  0
    3.6580   -3.9310    4.0600 H   0  0  0  0  0  0  0  0  0  0  0  0
    4.5350   -3.3610    1.7530 H   0  0  0  0  0  0  0  0  0  0  0  0
   -2.3950   -2.2920    0.2740 N   0  0  0  0  0  0  0  0  0  0  0  0
   -3.7600   -2.0750   -0.1870 C   0  0  1  0  0  0  0  0  0  0  0  0
   -4.1110   -3.0640   -1.2570 C   0  0  0  0  0  0  0  0  0  0  0  0
   -3.1680   -2.8810   -2.3890 C   0  0  0  0  0  0  0  0  0  0  0  0
   -2.1010   -3.6760   -2.7200 C   0  0  0  0  0  0  0  0  0  0  0  0
   -1.5370   -3.1420   -3.8030 N   0  0  0  0  0  0  0  0  0  0  0  0
   -2.1910   -2.0370   -4.1880 C   0  0  0  0  0  0  0  0  0  0  0  0
   -1.9650   -1.1620   -5.2510 C   0  0  0  0  0  0  0  0  0  0  0  0
   -2.8160   -0.0850   -5.4100 C   0  0  0  0  0  0  0  0  0  0  0  0
   -3.8500    0.0790   -4.5140 C   0  0  0  0  0  0  0  0  0  0  0  0
   -4.0670   -0.7890   -3.4660 C   0  0  0  0  0  0  0  0  0  0  0  0
   -3.2220   -1.8530   -3.3120 C   0  0  0  0  0  0  0  0  0  0  0  0
   -4.7170   -2.1540    0.9580 C   0  0  0  0  0  0  0  0  0  0  0  0
   -4.3100   -2.3760    2.1100 O   0  0  0  0  0  0  0  0  0  0  0  0
   -6.0720   -1.9770    0.7290 O   0  0  0  0  0  0  0  0  0  0  0  0
   -2.0970   -3.1940    0.6940 H   0  0  0  0  0  0  0  0  0  0  0  0
   -3.8630   -1.0640   -0.6260 H   0  0  0  0  0  0  0  0  0  0  0  0
   -4.0410   -4.0790   -0.8220 H   0  0  0  0  0  0  0  0  0  0  0  0
   -5.1460   -2.8350   -1.6110 H   0  0  0  0  0  0  0  0  0  0  0  0
   -1.7860   -4.5670   -2.1930 H   0  0  0  0  0  0  0  0  0  0  0  0
   -0.6970   -3.5130   -4.3060 H   0  0  0  0  0  0  0  0  0  0  0  0
   -1.1530   -1.2970   -5.9510 H   0  0  0  0  0  0  0  0  0  0  0  0
   -2.6790    0.6210   -6.2230 H   0  0  0  0  0  0  0  0  0  0  0  0
   -4.5380    0.9140   -4.6080 H   0  0  0  0  0  0  0  0  0  0  0  0
   -4.8810   -0.6600   -2.7590 H   0  0  0  0  0  0  0  0  0  0  0  0
  1 13  1  0  0  0  0
  2  1  1  0  0  0  0
  3 14  1  0  0  0  0
  3  2  2  0  0  0  0
  4  3  1  0  0  0  0
  5  4  2  0  0  0  0
  5 11  1  0  0  0  0
  6 17  1  0  0  0  0
  6  5  1  0  0  0  0
  7 18  1  6  0  0  0
  7  9  1  0  0  0  0
  7  6  1  0  0  0  0
  8 19  1  0  0  0  0
  8  7  1  0  0  0  0
  9 10  2  0  0  0  0
 11 12  2  0  0  0  0
 12  2  1  0  0  0  0
 12 22  1  0  0  0  0
 15  4  1  0  0  0  0
 16  6  1  0  0  0  0
 20  8  1  0  0  0  0
 21 11  1  0  0  0  0
 23 24  1  0  0  0  0
 23  9  1  0  0  0  0
 24 34  1  6  0  0  0
 24 25  1  0  0  0  0
 25 36  1  0  0  0  0
 25 26  1  0  0  0  0
 25 35  1  0  0  0  0
 26 27  2  0  0  0  0
 27 37  1  0  0  0  0
 28 27  1  0  0  0  0
 28 38  1  0  0  0  0
 29 28  1  0  0  0  0
 30 29  2  0  0  0  0
 30 26  1  0  0  0  0
 31 40  1  0  0  0  0
 31 24  1  0  0  0  0
 32 31  2  0  0  0  0
 33 23  1  0  0  0  0
 39 29  1  0  0  0  0
 40 55  1  0  0  0  0
 41 56  1  6  0  0  0
 41 40  1  0  0  0  0
 41 52  1  0  0  0  0
 42 57  1  0  0  0  0
 42 41  1  0  0  0  0
 43 42  1  0  0  0  0
 44 43  2  0  0  0  0
 44 59  1  0  0  0  0
 45 44  1  0  0  0  0
 46 45  1  0  0  0  0
 46 51  1  0  0  0  0
 47 46  2  0  0  0  0
 48 47  1  0  0  0  0
 48 49  2  0  0  0  0
 49 50  1  0  0  0  0
 50 51  2  0  0  0  0
 50 64  1  0  0  0  0
 51 43  1  0  0  0  0
 52 53  1  0  0  0  0
 54 52  2  0  0  0  0
 58 42  1  0  0  0  0
 60 45  1  0  0  0  0
 61 47  1  0  0  0  0
 62 48  1  0  0  0  0
 63 49  1  0  0  0  0
M  END
$$$$
