YIC.pdb
 OpenBabel07022419213D

 53 53  0  0  1  0  0  0  0  0999 V2000
    6.3040   -1.6940    5.8460 O   0  0  0  0  0  0  0  0  0  0  0  0
    5.2450   -1.7060    4.9670 C   0  0  0  0  0  0  0  0  0  0  0  0
    4.3890   -2.7970    4.9130 C   0  0  0  0  0  0  0  0  0  0  0  0
    3.3180   -2.7980    4.0170 C   0  0  0  0  0  0  0  0  0  0  0  0
    3.1000   -1.7340    3.1910 C   0  0  0  0  0  0  0  0  0  0  0  0
    1.9510   -1.7440    2.2370 C   0  0  0  0  0  0  0  0  0  0  0  0
    0.7770   -1.1320    2.9630 C   0  0  2  0  0  0  0  0  0  0  0  0
    0.4400   -1.8770    4.1380 N   0  0  0  0  0  0  0  0  0  0  0  0
   -0.4050   -0.9680    2.0740 C   0  0  0  0  0  0  0  0  0  0  0  0
   -1.4930   -1.4700    2.4490 O   0  0  0  0  0  0  0  0  0  0  0  0
    3.9540   -0.6590    3.2530 C   0  0  0  0  0  0  0  0  0  0  0  0
    5.0310   -0.6320    4.1370 C   0  0  0  0  0  0  0  0  0  0  0  0
    6.1750   -1.7970    6.8360 H   0  0  0  0  0  0  0  0  0  0  0  0
    4.5570   -3.6420    5.5650 H   0  0  0  0  0  0  0  0  0  0  0  0
    2.6400   -3.6450    3.9640 H   0  0  0  0  0  0  0  0  0  0  0  0
    1.7360   -2.8010    1.9240 H   0  0  0  0  0  0  0  0  0  0  0  0
    2.2270   -1.1510    1.3630 H   0  0  0  0  0  0  0  0  0  0  0  0
    1.1430   -0.1230    3.3170 H   0  0  0  0  0  0  0  0  0  0  0  0
   -0.1340   -2.7140    3.9550 H   0  0  0  0  0  0  0  0  0  0  0  0
    0.0680   -1.2780    4.9070 H   0  0  0  0  0  0  0  0  0  0  0  0
    3.7960    0.1990    2.6010 H   0  0  0  0  0  0  0  0  0  0  0  0
    5.6990    0.2180    4.1810 H   0  0  0  0  0  0  0  0  0  0  0  0
   -4.2370    1.2990   -0.4590 C   0  0  0  0  0  0  0  0  0  0  0  0
   -2.9010    1.8430   -0.9160 C   0  0  0  0  0  0  0  0  0  0  0  0
   -1.7470    1.3600   -0.1090 C   0  0  2  0  0  0  0  0  0  0  0  0
   -0.4590    1.9980   -0.6720 C   0  0  0  0  0  0  0  0  0  0  0  0
   -1.5700   -0.1340   -0.0270 C   0  0  2  0  0  0  0  0  0  0  0  0
   -0.3780   -0.2930    0.8550 N   0  0  0  0  0  0  0  0  0  0  0  0
   -1.2210   -0.7930   -1.2900 C   0  0  0  0  0  0  0  0  0  0  0  0
   -0.0560   -1.2880   -1.5020 O   0  0  0  0  0  0  0  0  0  0  0  0
   -4.5730    1.8750    0.4260 H   0  0  0  0  0  0  0  0  0  0  0  0
   -4.1250    0.2460   -0.1650 H   0  0  0  0  0  0  0  0  0  0  0  0
   -5.0070    1.4210   -1.2680 H   0  0  0  0  0  0  0  0  0  0  0  0
   -2.9940    2.9660   -0.7480 H   0  0  0  0  0  0  0  0  0  0  0  0
   -2.7840    1.7640   -2.0090 H   0  0  0  0  0  0  0  0  0  0  0  0
   -1.8540    1.7730    0.9140 H   0  0  0  0  0  0  0  0  0  0  0  0
    0.2390    2.1350    0.1780 H   0  0  0  0  0  0  0  0  0  0  0  0
   -0.0700    1.2730   -1.3950 H   0  0  0  0  0  0  0  0  0  0  0  0
   -0.7400    2.9650   -1.1100 H   0  0  0  0  0  0  0  0  0  0  0  0
   -2.4170   -0.6270    0.4740 H   0  0  0  0  0  0  0  0  0  0  0  0
    0.4910    0.1390    0.4980 H   0  0  0  0  0  0  0  0  0  0  0  0
   -2.1570   -0.9180   -2.3400 N   0  0  0  0  0  0  0  0  0  0  0  0
   -1.8200   -1.5730   -3.5890 C   0  0  1  0  0  0  0  0  0  0  0  0
   -2.6340   -2.8160   -3.8250 C   0  0  0  0  0  0  0  0  0  0  0  0
   -2.3690   -4.0250   -2.4980 S   0  0  0  0  0  0  0  0  0  0  0  0
   -1.8790   -0.6210   -4.7040 C   0  0  0  0  0  0  0  0  0  0  0  0
   -1.6330   -0.9390   -5.8950 O   0  0  0  0  0  0  0  0  0  0  0  0
   -2.2210    0.6900   -4.4410 O   0  0  0  0  0  0  0  0  0  0  0  0
   -3.1340   -0.5640   -2.2880 H   0  0  0  0  0  0  0  0  0  0  0  0
   -0.7590   -1.9060   -3.5050 H   0  0  0  0  0  0  0  0  0  0  0  0
   -3.7190   -2.6350   -3.8750 H   0  0  0  0  0  0  0  0  0  0  0  0
   -2.2590   -3.2800   -4.7620 H   0  0  0  0  0  0  0  0  0  0  0  0
   -1.0190   -4.2410   -2.2280 H   0  0  0  0  0  0  0  0  0  0  0  0
  1 13  1  0  0  0  0
  2  1  1  0  0  0  0
  3  2  1  0  0  0  0
  3 14  1  0  0  0  0
  4  3  2  0  0  0  0
  5 11  2  0  0  0  0
  5  4  1  0  0  0  0
  6  7  1  0  0  0  0
  6  5  1  0  0  0  0
  7 18  1  1  0  0  0
  7  8  1  0  0  0  0
  8 20  1  0  0  0  0
  9 10  2  0  0  0  0
  9  7  1  0  0  0  0
 11 12  1  0  0  0  0
 12 22  1  0  0  0  0
 12  2  2  0  0  0  0
 15  4  1  0  0  0  0
 16  6  1  0  0  0  0
 17  6  1  0  0  0  0
 19  8  1  0  0  0  0
 21 11  1  0  0  0  0
 23 32  1  0  0  0  0
 23 31  1  0  0  0  0
 24 34  1  0  0  0  0
 24 23  1  0  0  0  0
 24 25  1  0  0  0  0
 25 27  1  0  0  0  0
 25 36  1  1  0  0  0
 26 25  1  0  0  0  0
 26 37  1  0  0  0  0
 27 40  1  1  0  0  0
 27 28  1  0  0  0  0
 28  9  1  0  0  0  0
 29 27  1  0  0  0  0
 30 29  2  0  0  0  0
 33 23  1  0  0  0  0
 35 24  1  0  0  0  0
 38 26  1  0  0  0  0
 39 26  1  0  0  0  0
 41 28  1  0  0  0  0
 42 49  1  0  0  0  0
 42 29  1  0  0  0  0
 43 50  1  1  0  0  0
 43 42  1  0  0  0  0
 44 43  1  0  0  0  0
 44 45  1  0  0  0  0
 45 53  1  0  0  0  0
 46 48  1  0  0  0  0
 46 43  1  0  0  0  0
 47 46  2  0  0  0  0
 51 44  1  0  0  0  0
 52 44  1  0  0  0  0
M  END
$$$$
