YIG.pdb
 OpenBabel07022419213D

 49 49  0  0  1  0  0  0  0  0999 V2000
    4.4850   -1.6750    5.6160 O   0  0  0  0  0  0  0  0  0  0  0  0
    4.2040   -1.3150    4.3050 C   0  0  0  0  0  0  0  0  0  0  0  0
    4.8840   -1.8700    3.2410 C   0  0  0  0  0  0  0  0  0  0  0  0
    4.6280   -1.5340    1.9330 C   0  0  0  0  0  0  0  0  0  0  0  0
    3.6580   -0.6080    1.6260 C   0  0  0  0  0  0  0  0  0  0  0  0
    3.3600   -0.2220    0.2210 C   0  0  0  0  0  0  0  0  0  0  0  0
    2.3150   -1.0760   -0.4280 C   0  0  2  0  0  0  0  0  0  0  0  0
    2.1480   -0.5640   -1.7860 N   0  0  0  0  0  0  0  0  0  0  0  0
    1.0250   -1.1120    0.2940 C   0  0  0  0  0  0  0  0  0  0  0  0
    0.9330   -1.5280    1.4660 O   0  0  0  0  0  0  0  0  0  0  0  0
    2.9640   -0.0390    2.6720 C   0  0  0  0  0  0  0  0  0  0  0  0
    3.2370   -0.3900    3.9750 C   0  0  0  0  0  0  0  0  0  0  0  0
    4.1500   -2.5920    5.9040 H   0  0  0  0  0  0  0  0  0  0  0  0
    5.6520   -2.6020    3.4640 H   0  0  0  0  0  0  0  0  0  0  0  0
    5.1890   -1.9970    1.1330 H   0  0  0  0  0  0  0  0  0  0  0  0
    3.0160    0.8410    0.2610 H   0  0  0  0  0  0  0  0  0  0  0  0
    4.2600   -0.2530   -0.3990 H   0  0  0  0  0  0  0  0  0  0  0  0
    2.6910   -2.1280   -0.4480 H   0  0  0  0  0  0  0  0  0  0  0  0
    2.0910    0.4910   -1.6730 H   0  0  0  0  0  0  0  0  0  0  0  0
    3.0060   -0.7780   -2.3100 H   0  0  0  0  0  0  0  0  0  0  0  0
    2.1850    0.7050    2.4500 H   0  0  0  0  0  0  0  0  0  0  0  0
    2.6860    0.0620    4.8000 H   0  0  0  0  0  0  0  0  0  0  0  0
   -2.3030    2.9220   -0.7180 C   0  0  0  0  0  0  0  0  0  0  0  0
   -1.9610    1.4300   -0.8760 C   0  0  0  0  0  0  0  0  0  0  0  0
   -1.8830    0.7700    0.4820 C   0  0  2  0  0  0  0  0  0  0  0  0
   -0.7870    1.4720    1.2740 C   0  0  0  0  0  0  0  0  0  0  0  0
   -1.4560   -0.6690    0.2890 C   0  0  2  0  0  0  0  0  0  0  0  0
   -0.1620   -0.6640   -0.3500 N   0  0  0  0  0  0  0  0  0  0  0  0
   -2.4570   -1.4420   -0.4770 C   0  0  0  0  0  0  0  0  0  0  0  0
   -2.1190   -1.9960   -1.5510 O   0  0  0  0  0  0  0  0  0  0  0  0
   -2.6640    3.2480   -1.7170 H   0  0  0  0  0  0  0  0  0  0  0  0
   -3.1580    3.0360   -0.0180 H   0  0  0  0  0  0  0  0  0  0  0  0
   -1.3900    3.4310   -0.3980 H   0  0  0  0  0  0  0  0  0  0  0  0
   -0.9780    1.4360   -1.3880 H   0  0  0  0  0  0  0  0  0  0  0  0
   -2.6710    0.9350   -1.5510 H   0  0  0  0  0  0  0  0  0  0  0  0
   -2.8600    0.8400    1.0110 H   0  0  0  0  0  0  0  0  0  0  0  0
   -0.4010    0.8600    2.0940 H   0  0  0  0  0  0  0  0  0  0  0  0
   -1.2190    2.4030    1.7270 H   0  0  0  0  0  0  0  0  0  0  0  0
    0.0450    1.7790    0.6340 H   0  0  0  0  0  0  0  0  0  0  0  0
   -1.2830   -1.1430    1.3050 H   0  0  0  0  0  0  0  0  0  0  0  0
   -0.0460   -0.3300   -1.3310 H   0  0  0  0  0  0  0  0  0  0  0  0
   -3.7950   -1.5760   -0.0280 N   0  0  0  0  0  0  0  0  0  0  0  0
   -4.7540   -2.3410   -0.8010 C   0  0  0  0  0  0  0  0  0  0  0  0
   -4.2540   -3.7510   -0.9150 C   0  0  0  0  0  0  0  0  0  0  0  0
   -4.9580   -4.5580   -1.5530 O   0  0  0  0  0  0  0  0  0  0  0  0
   -3.0690   -4.1500   -0.3430 O   0  0  0  0  0  0  0  0  0  0  0  0
   -4.1350   -1.1290    0.8720 H   0  0  0  0  0  0  0  0  0  0  0  0
   -4.7860   -1.9590   -1.8580 H   0  0  0  0  0  0  0  0  0  0  0  0
   -5.7530   -2.2930   -0.3750 H   0  0  0  0  0  0  0  0  0  0  0  0
  1 13  1  0  0  0  0
  2  1  1  0  0  0  0
  3 14  1  0  0  0  0
  3  2  2  0  0  0  0
  4  3  1  0  0  0  0
  5  4  2  0  0  0  0
  5 11  1  0  0  0  0
  6 16  1  0  0  0  0
  6  5  1  0  0  0  0
  7 18  1  6  0  0  0
  7  6  1  0  0  0  0
  7  9  1  0  0  0  0
  8 19  1  0  0  0  0
  8  7  1  0  0  0  0
  9 10  2  0  0  0  0
 11 12  2  0  0  0  0
 12  2  1  0  0  0  0
 12 22  1  0  0  0  0
 15  4  1  0  0  0  0
 17  6  1  0  0  0  0
 20  8  1  0  0  0  0
 21 11  1  0  0  0  0
 23 33  1  0  0  0  0
 23 32  1  0  0  0  0
 24 23  1  0  0  0  0
 24 25  1  0  0  0  0
 25 36  1  1  0  0  0
 25 26  1  0  0  0  0
 26 38  1  0  0  0  0
 26 37  1  0  0  0  0
 27 25  1  0  0  0  0
 27 40  1  1  0  0  0
 28 27  1  0  0  0  0
 28  9  1  0  0  0  0
 29 42  1  0  0  0  0
 29 27  1  0  0  0  0
 30 29  2  0  0  0  0
 31 23  1  0  0  0  0
 34 24  1  0  0  0  0
 35 24  1  0  0  0  0
 39 26  1  0  0  0  0
 41 28  1  0  0  0  0
 42 47  1  0  0  0  0
 43 49  1  0  0  0  0
 43 42  1  0  0  0  0
 44 43  1  0  0  0  0
 44 46  1  0  0  0  0
 45 44  2  0  0  0  0
 48 43  1  0  0  0  0
M  END
$$$$
