YIK.pdb
 OpenBabel07022419213D

 63 63  0  0  1  0  0  0  0  0999 V2000
    0.8910    3.4980    5.9230 O   0  0  0  0  0  0  0  0  0  0  0  0
    1.3600    2.3770    5.2960 C   0  0  0  0  0  0  0  0  0  0  0  0
    0.5270    1.3140    5.0490 C   0  0  0  0  0  0  0  0  0  0  0  0
    0.9910    0.1750    4.4160 C   0  0  0  0  0  0  0  0  0  0  0  0
    2.3070    0.0840    4.0180 C   0  0  0  0  0  0  0  0  0  0  0  0
    2.9080   -1.0760    3.3320 C   0  0  0  0  0  0  0  0  0  0  0  0
    2.8650   -0.8820    1.8460 C   0  0  2  0  0  0  0  0  0  0  0  0
    3.5820    0.2950    1.3970 N   0  0  0  0  0  0  0  0  0  0  0  0
    1.4910   -0.8970    1.3510 C   0  0  0  0  0  0  0  0  0  0  0  0
    0.7300   -1.8190    1.8120 O   0  0  0  0  0  0  0  0  0  0  0  0
    3.1210    1.1580    4.2750 C   0  0  0  0  0  0  0  0  0  0  0  0
    2.6810    2.2930    4.9000 C   0  0  0  0  0  0  0  0  0  0  0  0
    0.0790    3.5160    6.5260 H   0  0  0  0  0  0  0  0  0  0  0  0
   -0.5020    1.3450    5.3430 H   0  0  0  0  0  0  0  0  0  0  0  0
    0.3300   -0.6590    4.2300 H   0  0  0  0  0  0  0  0  0  0  0  0
    3.9580   -1.2580    3.6760 H   0  0  0  0  0  0  0  0  0  0  0  0
    2.2720   -1.9820    3.5590 H   0  0  0  0  0  0  0  0  0  0  0  0
    3.4270   -1.7610    1.3840 H   0  0  0  0  0  0  0  0  0  0  0  0
    4.5650    0.1930    1.7890 H   0  0  0  0  0  0  0  0  0  0  0  0
    3.6530    0.2160    0.3550 H   0  0  0  0  0  0  0  0  0  0  0  0
    4.1510    1.1250    3.9810 H   0  0  0  0  0  0  0  0  0  0  0  0
    3.3130    3.1350    5.1030 H   0  0  0  0  0  0  0  0  0  0  0  0
    0.3340    2.5330    1.5000 C   0  0  0  0  0  0  0  0  0  0  0  0
   -1.0260    2.0830    1.1080 C   0  0  0  0  0  0  0  0  0  0  0  0
   -1.0740    1.2220   -0.1420 C   0  0  2  0  0  0  0  0  0  0  0  0
   -2.5770    0.9390   -0.3160 C   0  0  0  0  0  0  0  0  0  0  0  0
   -0.4010   -0.1130    0.0210 C   0  0  2  0  0  0  0  0  0  0  0  0
    0.9950    0.0450    0.4070 N   0  0  0  0  0  0  0  0  0  0  0  0
   -0.3200   -0.7290   -1.3530 C   0  0  0  0  0  0  0  0  0  0  0  0
    0.8270   -0.6990   -1.9130 O   0  0  0  0  0  0  0  0  0  0  0  0
    0.1880    3.4160    2.1940 H   0  0  0  0  0  0  0  0  0  0  0  0
    0.9080    1.8140    2.0800 H   0  0  0  0  0  0  0  0  0  0  0  0
    0.8820    2.9610    0.6350 H   0  0  0  0  0  0  0  0  0  0  0  0
   -1.6560    2.9700    0.8930 H   0  0  0  0  0  0  0  0  0  0  0  0
   -1.5110    1.5400    1.9430 H   0  0  0  0  0  0  0  0  0  0  0  0
   -0.7430    1.7650   -1.0180 H   0  0  0  0  0  0  0  0  0  0  0  0
   -3.1870    1.7120    0.2280 H   0  0  0  0  0  0  0  0  0  0  0  0
   -2.8780    0.8430   -1.3550 H   0  0  0  0  0  0  0  0  0  0  0  0
   -2.7800    0.0040    0.2250 H   0  0  0  0  0  0  0  0  0  0  0  0
   -0.9020   -0.7550    0.7210 H   0  0  0  0  0  0  0  0  0  0  0  0
    1.6410    0.7690    0.0560 H   0  0  0  0  0  0  0  0  0  0  0  0
   -1.3850   -1.3250   -2.0510 N   0  0  0  0  0  0  0  0  0  0  0  0
   -1.1720   -1.8640   -3.3560 C   0  0  1  0  0  0  0  0  0  0  0  0
   -1.5850   -3.2700   -3.6030 C   0  0  0  0  0  0  0  0  0  0  0  0
   -0.9480   -4.3130   -2.7720 C   0  0  0  0  0  0  0  0  0  0  0  0
   -1.2150   -4.3380   -1.3140 C   0  0  0  0  0  0  0  0  0  0  0  0
   -2.6360   -4.6360   -0.9630 C   0  0  0  0  0  0  0  0  0  0  0  0
   -3.5780   -3.7000   -1.4950 N   0  0  0  0  0  0  0  0  0  0  0  0
   -1.8540   -0.9770   -4.3900 C   0  0  0  0  0  0  0  0  0  0  0  0
   -2.4680    0.0380   -3.9770 O   0  0  0  0  0  0  0  0  0  0  0  0
   -1.8000   -1.2780   -5.7310 O   0  0  0  0  0  0  0  0  0  0  0  0
   -2.2990   -1.3580   -1.5850 H   0  0  0  0  0  0  0  0  0  0  0  0
   -0.0760   -1.7070   -3.6160 H   0  0  0  0  0  0  0  0  0  0  0  0
   -1.3430   -3.4860   -4.7020 H   0  0  0  0  0  0  0  0  0  0  0  0
   -2.7070   -3.3130   -3.6050 H   0  0  0  0  0  0  0  0  0  0  0  0
   -1.2820   -5.3250   -3.1840 H   0  0  0  0  0  0  0  0  0  0  0  0
    0.1670   -4.3100   -2.9860 H   0  0  0  0  0  0  0  0  0  0  0  0
   -0.9150   -3.4270   -0.7600 H   0  0  0  0  0  0  0  0  0  0  0  0
   -0.5920   -5.1820   -0.8810 H   0  0  0  0  0  0  0  0  0  0  0  0
   -2.9320   -5.6630   -1.3370 H   0  0  0  0  0  0  0  0  0  0  0  0
   -2.7370   -4.7270    0.1540 H   0  0  0  0  0  0  0  0  0  0  0  0
   -3.9250   -2.9980   -0.8250 H   0  0  0  0  0  0  0  0  0  0  0  0
   -4.3480   -4.1510   -2.0570 H   0  0  0  0  0  0  0  0  0  0  0  0
  1 13  1  0  0  0  0
  2  1  1  0  0  0  0
  3  2  1  0  0  0  0
  3 14  1  0  0  0  0
  4  3  2  0  0  0  0
  5 11  2  0  0  0  0
  5  4  1  0  0  0  0
  6 17  1  0  0  0  0
  6 16  1  0  0  0  0
  6  5  1  0  0  0  0
  7 18  1  6  0  0  0
  7  6  1  0  0  0  0
  8 19  1  0  0  0  0
  8  7  1  0  0  0  0
  9 10  2  0  0  0  0
  9  7  1  0  0  0  0
 11 12  1  0  0  0  0
 12 22  1  0  0  0  0
 12  2  2  0  0  0  0
 15  4  1  0  0  0  0
 20  8  1  0  0  0  0
 21 11  1  0  0  0  0
 23 32  1  0  0  0  0
 23 31  1  0  0  0  0
 24 23  1  0  0  0  0
 24 35  1  0  0  0  0
 25 36  1  6  0  0  0
 25 27  1  0  0  0  0
 25 24  1  0  0  0  0
 26 25  1  0  0  0  0
 26 39  1  0  0  0  0
 26 37  1  0  0  0  0
 27 28  1  0  0  0  0
 27 40  1  1  0  0  0
 28  9  1  0  0  0  0
 29 27  1  0  0  0  0
 30 29  2  0  0  0  0
 33 23  1  0  0  0  0
 34 24  1  0  0  0  0
 38 26  1  0  0  0  0
 41 28  1  0  0  0  0
 42 52  1  0  0  0  0
 42 29  1  0  0  0  0
 43 53  1  6  0  0  0
 43 42  1  0  0  0  0
 44 43  1  0  0  0  0
 44 45  1  0  0  0  0
 45 46  1  0  0  0  0
 46 47  1  0  0  0  0
 46 59  1  0  0  0  0
 46 58  1  0  0  0  0
 47 61  1  0  0  0  0
 48 47  1  0  0  0  0
 48 62  1  0  0  0  0
 49 50  1  0  0  0  0
 49 43  1  0  0  0  0
 51 49  2  0  0  0  0
 54 44  1  0  0  0  0
 55 44  1  0  0  0  0
 56 45  1  0  0  0  0
 57 45  1  0  0  0  0
 60 47  1  0  0  0  0
 63 48  1  0  0  0  0
M  END
$$$$
