YIL.pdb
 OpenBabel07022419213D

 61 61  0  0  1  0  0  0  0  0999 V2000
    2.9200    1.2000    7.0630 O   0  0  0  0  0  0  0  0  0  0  0  0
    3.0220    0.9470    5.7060 C   0  0  0  0  0  0  0  0  0  0  0  0
    3.7410   -0.1290    5.2740 C   0  0  0  0  0  0  0  0  0  0  0  0
    3.8750   -0.4270    3.9360 C   0  0  0  0  0  0  0  0  0  0  0  0
    3.2690    0.3770    2.9730 C   0  0  0  0  0  0  0  0  0  0  0  0
    3.4710    0.0180    1.5750 C   0  0  0  0  0  0  0  0  0  0  0  0
    2.4730   -1.0040    1.1120 C   0  0  2  0  0  0  0  0  0  0  0  0
    2.7250   -1.3200   -0.2920 N   0  0  0  0  0  0  0  0  0  0  0  0
    1.1100   -0.4800    1.3090 C   0  0  0  0  0  0  0  0  0  0  0  0
    0.6550   -0.2020    2.4430 O   0  0  0  0  0  0  0  0  0  0  0  0
    2.5530    1.4530    3.4330 C   0  0  0  0  0  0  0  0  0  0  0  0
    2.4170    1.7520    4.7650 C   0  0  0  0  0  0  0  0  0  0  0  0
    2.3370    0.5780    7.6090 H   0  0  0  0  0  0  0  0  0  0  0  0
    4.2410   -0.8010    5.9690 H   0  0  0  0  0  0  0  0  0  0  0  0
    4.4530   -1.2890    3.6290 H   0  0  0  0  0  0  0  0  0  0  0  0
    3.3120    0.9400    0.9420 H   0  0  0  0  0  0  0  0  0  0  0  0
    4.5230   -0.3090    1.3690 H   0  0  0  0  0  0  0  0  0  0  0  0
    2.6470   -1.9620    1.6490 H   0  0  0  0  0  0  0  0  0  0  0  0
    3.7650   -1.2940   -0.4090 H   0  0  0  0  0  0  0  0  0  0  0  0
    2.4420   -2.3060   -0.4880 H   0  0  0  0  0  0  0  0  0  0  0  0
    2.0690    2.1100    2.7250 H   0  0  0  0  0  0  0  0  0  0  0  0
    1.8480    2.6040    5.1050 H   0  0  0  0  0  0  0  0  0  0  0  0
    0.8050    2.4890   -0.4630 C   0  0  0  0  0  0  0  0  0  0  0  0
   -0.6380    2.6270   -0.1270 C   0  0  0  0  0  0  0  0  0  0  0  0
   -1.4990    1.4390   -0.4540 C   0  0  2  0  0  0  0  0  0  0  0  0
   -2.9320    1.8250   -0.0350 C   0  0  0  0  0  0  0  0  0  0  0  0
   -1.1320    0.2470    0.3620 C   0  0  2  0  0  0  0  0  0  0  0  0
    0.2010   -0.2520    0.2210 N   0  0  0  0  0  0  0  0  0  0  0  0
   -2.0370   -0.9100    0.0980 C   0  0  0  0  0  0  0  0  0  0  0  0
   -3.2670   -0.7130    0.1590 O   0  0  0  0  0  0  0  0  0  0  0  0
    1.2230    3.4870   -0.8120 H   0  0  0  0  0  0  0  0  0  0  0  0
    1.4080    2.2480    0.4290 H   0  0  0  0  0  0  0  0  0  0  0  0
    0.9450    1.7810   -1.2900 H   0  0  0  0  0  0  0  0  0  0  0  0
   -1.0150    3.5560   -0.6520 H   0  0  0  0  0  0  0  0  0  0  0  0
   -0.7320    2.8990    0.9540 H   0  0  0  0  0  0  0  0  0  0  0  0
   -1.4980    1.2580   -1.5400 H   0  0  0  0  0  0  0  0  0  0  0  0
   -3.1660    1.4750    0.9750 H   0  0  0  0  0  0  0  0  0  0  0  0
   -3.0350    2.9410   -0.0160 H   0  0  0  0  0  0  0  0  0  0  0  0
   -3.6390    1.4780   -0.8120 H   0  0  0  0  0  0  0  0  0  0  0  0
   -1.3670    0.5270    1.4270 H   0  0  0  0  0  0  0  0  0  0  0  0
    0.5910   -0.4890   -0.7210 H   0  0  0  0  0  0  0  0  0  0  0  0
   -3.9750   -2.4120   -2.7910 C   0  0  0  0  0  0  0  0  0  0  0  0
   -2.5430   -2.8340   -2.9220 C   0  0  0  0  0  0  0  0  0  0  0  0
   -2.3740   -3.5100   -4.2870 C   0  0  0  0  0  0  0  0  0  0  0  0
   -2.1940   -3.8500   -1.8890 C   0  0  0  0  0  0  0  0  0  0  0  0
   -2.3760   -3.3420   -0.4750 C   0  0  2  0  0  0  0  0  0  0  0  0
   -1.5470   -2.1860   -0.2100 N   0  0  0  0  0  0  0  0  0  0  0  0
   -2.2080   -4.4060    0.5190 C   0  0  0  0  0  0  0  0  0  0  0  0
   -2.8670   -5.4670    0.4110 O   0  0  0  0  0  0  0  0  0  0  0  0
   -1.3420   -4.3020    1.5940 O   0  0  0  0  0  0  0  0  0  0  0  0
   -4.5520   -3.0880   -2.1020 H   0  0  0  0  0  0  0  0  0  0  0  0
   -4.0770   -1.3710   -2.4340 H   0  0  0  0  0  0  0  0  0  0  0  0
   -4.5170   -2.4640   -3.7600 H   0  0  0  0  0  0  0  0  0  0  0  0
   -1.8550   -1.9640   -2.9420 H   0  0  0  0  0  0  0  0  0  0  0  0
   -3.1790   -3.1940   -4.9820 H   0  0  0  0  0  0  0  0  0  0  0  0
   -1.4110   -3.2170   -4.7620 H   0  0  0  0  0  0  0  0  0  0  0  0
   -2.3520   -4.6240   -4.1780 H   0  0  0  0  0  0  0  0  0  0  0  0
   -1.1180   -4.1520   -1.9900 H   0  0  0  0  0  0  0  0  0  0  0  0
   -2.8220   -4.7360   -2.0390 H   0  0  0  0  0  0  0  0  0  0  0  0
   -3.4350   -2.9910   -0.3960 H   0  0  0  0  0  0  0  0  0  0  0  0
   -0.5190   -2.3250   -0.2540 H   0  0  0  0  0  0  0  0  0  0  0  0
  1 13  1  0  0  0  0
  2  1  1  0  0  0  0
  3  2  1  0  0  0  0
  3 14  1  0  0  0  0
  4  3  2  0  0  0  0
  5 11  2  0  0  0  0
  5  4  1  0  0  0  0
  6  5  1  0  0  0  0
  7  9  1  0  0  0  0
  7  6  1  0  0  0  0
  7 18  1  1  0  0  0
  8  7  1  0  0  0  0
  9 10  2  0  0  0  0
 11 12  1  0  0  0  0
 12 22  1  0  0  0  0
 12  2  2  0  0  0  0
 15  4  1  0  0  0  0
 16  6  1  0  0  0  0
 17  6  1  0  0  0  0
 19  8  1  0  0  0  0
 20  8  1  0  0  0  0
 21 11  1  0  0  0  0
 23 24  1  0  0  0  0
 23 32  1  0  0  0  0
 24 35  1  0  0  0  0
 25 36  1  6  0  0  0
 25 24  1  0  0  0  0
 25 26  1  0  0  0  0
 25 27  1  0  0  0  0
 26 38  1  0  0  0  0
 26 37  1  0  0  0  0
 27 40  1  1  0  0  0
 28 27  1  0  0  0  0
 28  9  1  0  0  0  0
 29 30  2  0  0  0  0
 29 27  1  0  0  0  0
 31 23  1  0  0  0  0
 33 23  1  0  0  0  0
 34 24  1  0  0  0  0
 39 26  1  0  0  0  0
 41 28  1  0  0  0  0
 42 52  1  0  0  0  0
 42 51  1  0  0  0  0
 43 42  1  0  0  0  0
 43 45  1  0  0  0  0
 44 57  1  0  0  0  0
 44 43  1  0  0  0  0
 45 46  1  0  0  0  0
 46 60  1  1  0  0  0
 46 47  1  0  0  0  0
 46 48  1  0  0  0  0
 47 29  1  0  0  0  0
 48 50  1  0  0  0  0
 49 48  2  0  0  0  0
 53 42  1  0  0  0  0
 54 43  1  0  0  0  0
 55 44  1  0  0  0  0
 56 44  1  0  0  0  0
 58 45  1  0  0  0  0
 59 45  1  0  0  0  0
 61 47  1  0  0  0  0
M  END
$$$$
