YIM.pdb
 OpenBabel07022419213D

 59 59  0  0  1  0  0  0  0  0999 V2000
    2.5690    0.1430    7.0830 O   0  0  0  0  0  0  0  0  0  0  0  0
    2.8970    0.2680    5.7530 C   0  0  0  0  0  0  0  0  0  0  0  0
    3.9410   -0.4340    5.2120 C   0  0  0  0  0  0  0  0  0  0  0  0
    4.2480   -0.2950    3.8940 C   0  0  0  0  0  0  0  0  0  0  0  0
    3.5070    0.5560    3.0910 C   0  0  0  0  0  0  0  0  0  0  0  0
    3.8580    0.7080    1.6640 C   0  0  0  0  0  0  0  0  0  0  0  0
    3.2230   -0.2650    0.7420 C   0  0  2  0  0  0  0  0  0  0  0  0
    3.6360   -0.0380   -0.6320 N   0  0  0  0  0  0  0  0  0  0  0  0
    1.7540   -0.3990    0.8550 C   0  0  0  0  0  0  0  0  0  0  0  0
    1.2660   -0.5580    1.9990 O   0  0  0  0  0  0  0  0  0  0  0  0
    2.4640    1.2530    3.6520 C   0  0  0  0  0  0  0  0  0  0  0  0
    2.1450    1.1210    4.9790 C   0  0  0  0  0  0  0  0  0  0  0  0
    1.7150   -0.3120    7.3800 H   0  0  0  0  0  0  0  0  0  0  0  0
    4.4920   -1.0860    5.8720 H   0  0  0  0  0  0  0  0  0  0  0  0
    5.0760   -0.8560    3.4780 H   0  0  0  0  0  0  0  0  0  0  0  0
    3.6980    1.7690    1.3800 H   0  0  0  0  0  0  0  0  0  0  0  0
    4.9680    0.5370    1.5960 H   0  0  0  0  0  0  0  0  0  0  0  0
    3.6370   -1.2830    1.0030 H   0  0  0  0  0  0  0  0  0  0  0  0
    3.7360   -0.9450   -1.1410 H   0  0  0  0  0  0  0  0  0  0  0  0
    4.5440    0.4660   -0.6130 H   0  0  0  0  0  0  0  0  0  0  0  0
    1.8930    1.9170    3.0150 H   0  0  0  0  0  0  0  0  0  0  0  0
    1.3180    1.6790    5.4010 H   0  0  0  0  0  0  0  0  0  0  0  0
    0.4270    2.4450   -0.1040 C   0  0  0  0  0  0  0  0  0  0  0  0
   -0.9990    2.0210   -0.1910 C   0  0  0  0  0  0  0  0  0  0  0  0
   -1.2730    0.6850   -0.7680 C   0  0  2  0  0  0  0  0  0  0  0  0
   -2.8030    0.5340   -0.7580 C   0  0  0  0  0  0  0  0  0  0  0  0
   -0.5930   -0.4920   -0.1290 C   0  0  2  0  0  0  0  0  0  0  0  0
    0.8680   -0.3610   -0.2280 N   0  0  0  0  0  0  0  0  0  0  0  0
   -0.9980   -1.7900   -0.7340 C   0  0  0  0  0  0  0  0  0  0  0  0
   -0.1630   -2.3880   -1.4580 O   0  0  0  0  0  0  0  0  0  0  0  0
    0.4380    3.5790   -0.1840 H   0  0  0  0  0  0  0  0  0  0  0  0
    0.8750    2.2650    0.8910 H   0  0  0  0  0  0  0  0  0  0  0  0
    0.9870    2.0250   -0.9570 H   0  0  0  0  0  0  0  0  0  0  0  0
   -1.5540    2.2060    0.7670 H   0  0  0  0  0  0  0  0  0  0  0  0
   -1.4950    2.7660   -0.8980 H   0  0  0  0  0  0  0  0  0  0  0  0
   -1.0240    0.7450   -1.8610 H   0  0  0  0  0  0  0  0  0  0  0  0
   -3.1560    0.3390    0.2640 H   0  0  0  0  0  0  0  0  0  0  0  0
   -3.1880    1.5530   -1.0280 H   0  0  0  0  0  0  0  0  0  0  0  0
   -3.1530   -0.2280   -1.4460 H   0  0  0  0  0  0  0  0  0  0  0  0
   -0.8270   -0.4900    0.9470 H   0  0  0  0  0  0  0  0  0  0  0  0
    1.2460   -0.2510   -1.1860 H   0  0  0  0  0  0  0  0  0  0  0  0
   -5.4990   -2.4220   -2.0800 C   0  0  0  0  0  0  0  0  0  0  0  0
   -4.7130   -2.9500   -3.6050 S   0  0  0  0  0  0  0  0  0  0  0  0
   -2.9400   -2.8060   -3.5430 C   0  0  0  0  0  0  0  0  0  0  0  0
   -2.2580   -3.7440   -2.6180 C   0  0  0  0  0  0  0  0  0  0  0  0
   -2.5570   -3.6460   -1.1750 C   0  0  2  0  0  0  0  0  0  0  0  0
   -2.2490   -2.3840   -0.5400 N   0  0  0  0  0  0  0  0  0  0  0  0
   -1.8580   -4.7650   -0.4840 C   0  0  0  0  0  0  0  0  0  0  0  0
   -1.9810   -5.9450   -0.8670 O   0  0  0  0  0  0  0  0  0  0  0  0
   -1.0590   -4.4600    0.6050 O   0  0  0  0  0  0  0  0  0  0  0  0
   -5.8950   -3.3460   -1.5660 H   0  0  0  0  0  0  0  0  0  0  0  0
   -4.8540   -1.8670   -1.3850 H   0  0  0  0  0  0  0  0  0  0  0  0
   -6.4110   -1.7980   -2.3030 H   0  0  0  0  0  0  0  0  0  0  0  0
   -2.5620   -3.0450   -4.5880 H   0  0  0  0  0  0  0  0  0  0  0  0
   -2.5960   -1.7430   -3.3870 H   0  0  0  0  0  0  0  0  0  0  0  0
   -2.6400   -4.7840   -2.9230 H   0  0  0  0  0  0  0  0  0  0  0  0
   -1.1730   -3.8280   -2.8810 H   0  0  0  0  0  0  0  0  0  0  0  0
   -3.6520   -3.8640   -1.0540 H   0  0  0  0  0  0  0  0  0  0  0  0
   -2.9800   -1.9570    0.0800 H   0  0  0  0  0  0  0  0  0  0  0  0
  1 13  1  0  0  0  0
  2  1  1  0  0  0  0
  3  2  1  0  0  0  0
  3 14  1  0  0  0  0
  4  3  2  0  0  0  0
  5 11  2  0  0  0  0
  5  4  1  0  0  0  0
  6  5  1  0  0  0  0
  7  9  1  0  0  0  0
  7 18  1  1  0  0  0
  7  6  1  0  0  0  0
  8 20  1  0  0  0  0
  8  7  1  0  0  0  0
  9 10  2  0  0  0  0
 11 12  1  0  0  0  0
 12 22  1  0  0  0  0
 12  2  2  0  0  0  0
 15  4  1  0  0  0  0
 16  6  1  0  0  0  0
 17  6  1  0  0  0  0
 19  8  1  0  0  0  0
 21 11  1  0  0  0  0
 23 32  1  0  0  0  0
 24 23  1  0  0  0  0
 24 34  1  0  0  0  0
 25 36  1  6  0  0  0
 25 26  1  0  0  0  0
 25 24  1  0  0  0  0
 25 27  1  0  0  0  0
 26 37  1  0  0  0  0
 27 40  1  1  0  0  0
 28 27  1  0  0  0  0
 28  9  1  0  0  0  0
 29 47  1  0  0  0  0
 29 27  1  0  0  0  0
 30 29  2  0  0  0  0
 31 23  1  0  0  0  0
 33 23  1  0  0  0  0
 35 24  1  0  0  0  0
 38 26  1  0  0  0  0
 39 26  1  0  0  0  0
 41 28  1  0  0  0  0
 42 51  1  0  0  0  0
 42 52  1  0  0  0  0
 43 44  1  0  0  0  0
 43 42  1  0  0  0  0
 44 55  1  0  0  0  0
 44 45  1  0  0  0  0
 45 46  1  0  0  0  0
 46 58  1  1  0  0  0
 46 47  1  0  0  0  0
 46 48  1  0  0  0  0
 47 59  1  0  0  0  0
 48 50  1  0  0  0  0
 49 48  2  0  0  0  0
 53 42  1  0  0  0  0
 54 44  1  0  0  0  0
 56 45  1  0  0  0  0
 57 45  1  0  0  0  0
M  END
$$$$
