YIN.pdb
 OpenBabel07022419213D

 56 56  0  0  1  0  0  0  0  0999 V2000
    4.3610    0.3330    5.8640 O   0  0  0  0  0  0  0  0  0  0  0  0
    4.1030    0.3030    4.5020 C   0  0  0  0  0  0  0  0  0  0  0  0
    4.8420   -0.5560    3.7160 C   0  0  0  0  0  0  0  0  0  0  0  0
    4.6250   -0.6220    2.3620 C   0  0  0  0  0  0  0  0  0  0  0  0
    3.6740    0.1580    1.7520 C   0  0  0  0  0  0  0  0  0  0  0  0
    3.4180    0.1200    0.2940 C   0  0  0  0  0  0  0  0  0  0  0  0
    2.4020   -0.9090   -0.1250 C   0  0  2  0  0  0  0  0  0  0  0  0
    2.2840   -0.8030   -1.5750 N   0  0  0  0  0  0  0  0  0  0  0  0
    1.0960   -0.7190    0.5320 C   0  0  0  0  0  0  0  0  0  0  0  0
    0.9730   -0.7710    1.7810 O   0  0  0  0  0  0  0  0  0  0  0  0
    2.9360    1.0140    2.5330 C   0  0  0  0  0  0  0  0  0  0  0  0
    3.1430    1.0920    3.8990 C   0  0  0  0  0  0  0  0  0  0  0  0
    3.7700    0.8910    6.4900 H   0  0  0  0  0  0  0  0  0  0  0  0
    5.6110   -1.1890    4.1870 H   0  0  0  0  0  0  0  0  0  0  0  0
    5.2230   -1.3140    1.7480 H   0  0  0  0  0  0  0  0  0  0  0  0
    3.0330    1.1170   -0.0150 H   0  0  0  0  0  0  0  0  0  0  0  0
    4.3810   -0.1070   -0.2360 H   0  0  0  0  0  0  0  0  0  0  0  0
    2.7860   -1.9220    0.1030 H   0  0  0  0  0  0  0  0  0  0  0  0
    3.2640   -0.7410   -1.9350 H   0  0  0  0  0  0  0  0  0  0  0  0
    1.9020   -1.7030   -1.9790 H   0  0  0  0  0  0  0  0  0  0  0  0
    2.1650    1.6670    2.1200 H   0  0  0  0  0  0  0  0  0  0  0  0
    2.5480    1.7820    4.5180 H   0  0  0  0  0  0  0  0  0  0  0  0
   -0.0960    2.3900   -0.3900 C   0  0  0  0  0  0  0  0  0  0  0  0
   -1.3870    2.2370    0.3570 C   0  0  0  0  0  0  0  0  0  0  0  0
   -2.1080    0.9690    0.0640 C   0  0  2  0  0  0  0  0  0  0  0  0
   -3.4050    1.0230    0.8860 C   0  0  0  0  0  0  0  0  0  0  0  0
   -1.3800   -0.2810    0.4490 C   0  0  2  0  0  0  0  0  0  0  0  0
   -0.1230   -0.4640   -0.1940 N   0  0  0  0  0  0  0  0  0  0  0  0
   -2.2830   -1.4670    0.1960 C   0  0  0  0  0  0  0  0  0  0  0  0
   -3.4050   -1.4640    0.7230 O   0  0  0  0  0  0  0  0  0  0  0  0
    0.0640    3.4970   -0.6510 H   0  0  0  0  0  0  0  0  0  0  0  0
    0.7610    2.0730    0.2280 H   0  0  0  0  0  0  0  0  0  0  0  0
   -0.0680    1.8870   -1.3730 H   0  0  0  0  0  0  0  0  0  0  0  0
   -1.1630    2.3480    1.4620 H   0  0  0  0  0  0  0  0  0  0  0  0
   -2.0350    3.1360    0.1260 H   0  0  0  0  0  0  0  0  0  0  0  0
   -2.3700    0.9060   -1.0030 H   0  0  0  0  0  0  0  0  0  0  0  0
   -3.6350    2.1050    1.0890 H   0  0  0  0  0  0  0  0  0  0  0  0
   -4.2580    0.6200    0.3150 H   0  0  0  0  0  0  0  0  0  0  0  0
   -3.2900    0.5290    1.8650 H   0  0  0  0  0  0  0  0  0  0  0  0
   -1.2870   -0.2850    1.5760 H   0  0  0  0  0  0  0  0  0  0  0  0
   -0.0290   -0.4350   -1.2290 H   0  0  0  0  0  0  0  0  0  0  0  0
   -5.1150   -2.6600   -3.1130 N   0  0  0  0  0  0  0  0  0  0  0  0
   -3.7140   -2.7000   -2.9070 C   0  0  0  0  0  0  0  0  0  0  0  0
   -2.9920   -1.7190   -3.1970 O   0  0  0  0  0  0  0  0  0  0  0  0
   -3.0310   -3.9070   -2.3350 C   0  0  0  0  0  0  0  0  0  0  0  0
   -2.7420   -3.7050   -0.8650 C   0  0  2  0  0  0  0  0  0  0  0  0
   -1.8810   -2.5650   -0.6170 N   0  0  0  0  0  0  0  0  0  0  0  0
   -2.0610   -4.9110   -0.3350 C   0  0  0  0  0  0  0  0  0  0  0  0
   -2.6120   -6.0290   -0.4360 O   0  0  0  0  0  0  0  0  0  0  0  0
   -0.8200   -4.8410    0.2750 O   0  0  0  0  0  0  0  0  0  0  0  0
   -5.7140   -3.5060   -3.2010 H   0  0  0  0  0  0  0  0  0  0  0  0
   -5.5680   -1.7250   -3.1810 H   0  0  0  0  0  0  0  0  0  0  0  0
   -2.1570   -4.2130   -2.9210 H   0  0  0  0  0  0  0  0  0  0  0  0
   -3.7680   -4.7340   -2.4010 H   0  0  0  0  0  0  0  0  0  0  0  0
   -3.7110   -3.6200   -0.3600 H   0  0  0  0  0  0  0  0  0  0  0  0
   -0.9250   -2.5010   -1.0280 H   0  0  0  0  0  0  0  0  0  0  0  0
  1 13  1  0  0  0  0
  2  1  1  0  0  0  0
  3 14  1  0  0  0  0
  3  2  2  0  0  0  0
  4  3  1  0  0  0  0
  5  4  2  0  0  0  0
  5 11  1  0  0  0  0
  6  5  1  0  0  0  0
  7 18  1  1  0  0  0
  7  6  1  0  0  0  0
  7  9  1  0  0  0  0
  8  7  1  0  0  0  0
  9 10  2  0  0  0  0
 11 12  2  0  0  0  0
 12  2  1  0  0  0  0
 12 22  1  0  0  0  0
 15  4  1  0  0  0  0
 16  6  1  0  0  0  0
 17  6  1  0  0  0  0
 19  8  1  0  0  0  0
 20  8  1  0  0  0  0
 21 11  1  0  0  0  0
 23 32  1  0  0  0  0
 23 24  1  0  0  0  0
 24 34  1  0  0  0  0
 25 36  1  6  0  0  0
 25 24  1  0  0  0  0
 25 27  1  0  0  0  0
 25 26  1  0  0  0  0
 26 37  1  0  0  0  0
 26 39  1  0  0  0  0
 27 40  1  1  0  0  0
 28 27  1  0  0  0  0
 28  9  1  0  0  0  0
 29 27  1  0  0  0  0
 29 30  2  0  0  0  0
 31 23  1  0  0  0  0
 33 23  1  0  0  0  0
 35 24  1  0  0  0  0
 38 26  1  0  0  0  0
 41 28  1  0  0  0  0
 42 43  1  0  0  0  0
 43 45  1  0  0  0  0
 44 43  2  0  0  0  0
 45 46  1  0  0  0  0
 46 47  1  0  0  0  0
 46 55  1  1  0  0  0
 46 48  1  0  0  0  0
 47 29  1  0  0  0  0
 48 50  1  0  0  0  0
 49 48  2  0  0  0  0
 51 42  1  0  0  0  0
 52 42  1  0  0  0  0
 53 45  1  0  0  0  0
 54 45  1  0  0  0  0
 56 47  1  0  0  0  0
M  END
$$$$
