YIS.pdb
 OpenBabel07022419213D

 53 53  0  0  1  0  0  0  0  0999 V2000
    2.4100   -4.0110    4.2650 O   0  0  0  0  0  0  0  0  0  0  0  0
    2.6920   -3.0330    3.3200 C   0  0  0  0  0  0  0  0  0  0  0  0
    2.2990   -1.7180    3.4920 C   0  0  0  0  0  0  0  0  0  0  0  0
    2.5760   -0.7580    2.5650 C   0  0  0  0  0  0  0  0  0  0  0  0
    3.2600   -1.0430    1.4120 C   0  0  0  0  0  0  0  0  0  0  0  0
    3.5510    0.0120    0.4190 C   0  0  0  0  0  0  0  0  0  0  0  0
    2.6460    0.2770   -0.6690 C   0  0  2  0  0  0  0  0  0  0  0  0
    3.1920    1.3620   -1.4700 N   0  0  0  0  0  0  0  0  0  0  0  0
    1.2400    0.6010   -0.4580 C   0  0  0  0  0  0  0  0  0  0  0  0
    0.8630    1.7330   -0.8470 O   0  0  0  0  0  0  0  0  0  0  0  0
    3.6630   -2.3360    1.2140 C   0  0  0  0  0  0  0  0  0  0  0  0
    3.3820   -3.2940    2.1470 C   0  0  0  0  0  0  0  0  0  0  0  0
    1.6360   -3.8620    4.9000 H   0  0  0  0  0  0  0  0  0  0  0  0
    1.7500   -1.5070    4.4230 H   0  0  0  0  0  0  0  0  0  0  0  0
    2.2510    0.2610    2.7350 H   0  0  0  0  0  0  0  0  0  0  0  0
    3.7480    0.9470    1.0280 H   0  0  0  0  0  0  0  0  0  0  0  0
    4.5600   -0.2420    0.0230 H   0  0  0  0  0  0  0  0  0  0  0  0
    2.6410   -0.5990   -1.3890 H   0  0  0  0  0  0  0  0  0  0  0  0
    3.6640    2.0830   -0.9180 H   0  0  0  0  0  0  0  0  0  0  0  0
    2.5300    1.7010   -2.1810 H   0  0  0  0  0  0  0  0  0  0  0  0
    4.2060   -2.6380    0.3310 H   0  0  0  0  0  0  0  0  0  0  0  0
    3.6890   -4.3430    2.0240 H   0  0  0  0  0  0  0  0  0  0  0  0
   -1.5520    3.6860    0.7030 C   0  0  0  0  0  0  0  0  0  0  0  0
   -1.1710    2.3180    1.2330 C   0  0  0  0  0  0  0  0  0  0  0  0
   -1.6920    1.2710    0.3150 C   0  0  2  0  0  0  0  0  0  0  0  0
   -3.2000    1.2820    0.1970 C   0  0  0  0  0  0  0  0  0  0  0  0
   -1.0830   -0.0930    0.4420 C   0  0  2  0  0  0  0  0  0  0  0  0
    0.2930   -0.2410    0.1360 N   0  0  0  0  0  0  0  0  0  0  0  0
   -1.9330   -1.2090    0.0300 C   0  0  0  0  0  0  0  0  0  0  0  0
   -3.1470   -1.2100    0.2810 O   0  0  0  0  0  0  0  0  0  0  0  0
   -2.4430    4.0750    1.2410 H   0  0  0  0  0  0  0  0  0  0  0  0
   -0.7010    4.4020    0.8210 H   0  0  0  0  0  0  0  0  0  0  0  0
   -1.7160    3.5880   -0.3890 H   0  0  0  0  0  0  0  0  0  0  0  0
   -0.1010    2.2660    1.3700 H   0  0  0  0  0  0  0  0  0  0  0  0
   -1.6330    2.1880    2.2720 H   0  0  0  0  0  0  0  0  0  0  0  0
   -1.3670    1.6190   -0.7320 H   0  0  0  0  0  0  0  0  0  0  0  0
   -3.6490    0.8840    1.1050 H   0  0  0  0  0  0  0  0  0  0  0  0
   -3.5100    2.3680    0.0770 H   0  0  0  0  0  0  0  0  0  0  0  0
   -3.5110    0.8180   -0.7530 H   0  0  0  0  0  0  0  0  0  0  0  0
   -1.0670   -0.1700    1.6330 H   0  0  0  0  0  0  0  0  0  0  0  0
    0.7590   -1.1740    0.3860 H   0  0  0  0  0  0  0  0  0  0  0  0
   -3.3790   -3.7440    0.9240 O   0  0  0  0  0  0  0  0  0  0  0  0
   -2.5790   -4.3480   -0.0160 C   0  0  0  0  0  0  0  0  0  0  0  0
   -2.1310   -3.4360   -1.1100 C   0  0  2  0  0  0  0  0  0  0  0  0
   -1.3610   -2.3020   -0.6650 N   0  0  0  0  0  0  0  0  0  0  0  0
   -3.2770   -2.9430   -1.9310 C   0  0  0  0  0  0  0  0  0  0  0  0
   -4.1270   -3.7770   -2.3830 O   0  0  0  0  0  0  0  0  0  0  0  0
   -3.4670   -1.6140   -2.2310 O   0  0  0  0  0  0  0  0  0  0  0  0
   -3.0510   -3.9060    1.8350 H   0  0  0  0  0  0  0  0  0  0  0  0
   -1.7400   -4.8580    0.4980 H   0  0  0  0  0  0  0  0  0  0  0  0
   -3.2150   -5.1610   -0.4800 H   0  0  0  0  0  0  0  0  0  0  0  0
   -1.5040   -4.0430   -1.8210 H   0  0  0  0  0  0  0  0  0  0  0  0
   -0.3180   -2.3220   -0.8870 H   0  0  0  0  0  0  0  0  0  0  0  0
  1 13  1  0  0  0  0
  2  3  1  0  0  0  0
  2  1  1  0  0  0  0
  3 14  1  0  0  0  0
  4 15  1  0  0  0  0
  4  3  2  0  0  0  0
  5  4  1  0  0  0  0
  6 16  1  0  0  0  0
  6  5  1  0  0  0  0
  7 18  1  6  0  0  0
  7  9  1  0  0  0  0
  7  6  1  0  0  0  0
  8 19  1  0  0  0  0
  8  7  1  0  0  0  0
  9 28  1  0  0  0  0
 10  9  2  0  0  0  0
 11  5  2  0  0  0  0
 11 12  1  0  0  0  0
 12  2  2  0  0  0  0
 17  6  1  0  0  0  0
 20  8  1  0  0  0  0
 21 11  1  0  0  0  0
 22 12  1  0  0  0  0
 23 32  1  0  0  0  0
 23 24  1  0  0  0  0
 23 31  1  0  0  0  0
 24 34  1  0  0  0  0
 24 35  1  0  0  0  0
 25 36  1  6  0  0  0
 25 27  1  0  0  0  0
 25 24  1  0  0  0  0
 26 25  1  0  0  0  0
 26 37  1  0  0  0  0
 27 40  1  1  0  0  0
 28 41  1  0  0  0  0
 28 27  1  0  0  0  0
 29 30  2  0  0  0  0
 29 27  1  0  0  0  0
 33 23  1  0  0  0  0
 38 26  1  0  0  0  0
 39 26  1  0  0  0  0
 42 49  1  0  0  0  0
 43 50  1  0  0  0  0
 43 42  1  0  0  0  0
 44 52  1  6  0  0  0
 44 45  1  0  0  0  0
 44 43  1  0  0  0  0
 45 29  1  0  0  0  0
 46 44  1  0  0  0  0
 47 46  2  0  0  0  0
 48 46  1  0  0  0  0
 51 43  1  0  0  0  0
 53 45  1  0  0  0  0
M  END
$$$$
