YIT.pdb
 OpenBabel07022419213D

 56 56  0  0  1  0  0  0  0  0999 V2000
    0.1450    1.9320    6.4030 O   0  0  0  0  0  0  0  0  0  0  0  0
    0.9580    1.2540    5.4850 C   0  0  0  0  0  0  0  0  0  0  0  0
    0.5550   -0.0030    5.0660 C   0  0  0  0  0  0  0  0  0  0  0  0
    1.3310   -0.6960    4.1640 C   0  0  0  0  0  0  0  0  0  0  0  0
    2.5030   -0.1710    3.6650 C   0  0  0  0  0  0  0  0  0  0  0  0
    3.3320   -0.9320    2.6910 C   0  0  0  0  0  0  0  0  0  0  0  0
    2.9970   -0.6760    1.2650 C   0  0  2  0  0  0  0  0  0  0  0  0
    3.1550    0.7110    0.8760 N   0  0  0  0  0  0  0  0  0  0  0  0
    1.6770   -1.1360    0.8190 C   0  0  0  0  0  0  0  0  0  0  0  0
    1.3370   -2.3150    1.0980 O   0  0  0  0  0  0  0  0  0  0  0  0
    2.8920    1.0790    4.0900 C   0  0  0  0  0  0  0  0  0  0  0  0
    2.1190    1.7740    4.9900 C   0  0  0  0  0  0  0  0  0  0  0  0
    0.0510    1.6200    7.3620 H   0  0  0  0  0  0  0  0  0  0  0  0
   -0.3480   -0.4220    5.4430 H   0  0  0  0  0  0  0  0  0  0  0  0
    1.0260   -1.6760    3.8320 H   0  0  0  0  0  0  0  0  0  0  0  0
    4.3780   -0.6550    2.8660 H   0  0  0  0  0  0  0  0  0  0  0  0
    3.2090   -1.9930    2.9250 H   0  0  0  0  0  0  0  0  0  0  0  0
    3.7750   -1.2300    0.6570 H   0  0  0  0  0  0  0  0  0  0  0  0
    3.1630    0.8320   -0.1420 H   0  0  0  0  0  0  0  0  0  0  0  0
    4.0630    1.1110    1.2460 H   0  0  0  0  0  0  0  0  0  0  0  0
    3.8260    1.5070    3.6970 H   0  0  0  0  0  0  0  0  0  0  0  0
    2.4370    2.7600    5.3170 H   0  0  0  0  0  0  0  0  0  0  0  0
   -1.8420   -1.3510    2.4150 C   0  0  0  0  0  0  0  0  0  0  0  0
   -1.5000   -0.0240    1.8250 C   0  0  0  0  0  0  0  0  0  0  0  0
   -1.5930    0.0090    0.3110 C   0  0  2  0  0  0  0  0  0  0  0  0
   -2.9930   -0.3220   -0.0780 C   0  0  0  0  0  0  0  0  0  0  0  0
   -0.5170   -0.8250   -0.3240 C   0  0  2  0  0  0  0  0  0  0  0  0
    0.7940   -0.2960    0.0940 N   0  0  0  0  0  0  0  0  0  0  0  0
   -0.5730   -0.8610   -1.8100 C   0  0  0  0  0  0  0  0  0  0  0  0
    0.3670   -0.3130   -2.4950 O   0  0  0  0  0  0  0  0  0  0  0  0
   -0.9750   -2.0270    2.5570 H   0  0  0  0  0  0  0  0  0  0  0  0
   -2.2400   -1.1560    3.4550 H   0  0  0  0  0  0  0  0  0  0  0  0
   -2.6830   -1.8550    1.8880 H   0  0  0  0  0  0  0  0  0  0  0  0
   -2.2540    0.7210    2.2060 H   0  0  0  0  0  0  0  0  0  0  0  0
   -0.5250    0.3030    2.1860 H   0  0  0  0  0  0  0  0  0  0  0  0
   -1.3970    1.0670    0.0170 H   0  0  0  0  0  0  0  0  0  0  0  0
   -3.6900    0.2640    0.6070 H   0  0  0  0  0  0  0  0  0  0  0  0
   -3.1750    0.0110   -1.1140 H   0  0  0  0  0  0  0  0  0  0  0  0
   -3.2450   -1.4000   -0.0190 H   0  0  0  0  0  0  0  0  0  0  0  0
   -0.5880   -1.8460    0.0660 H   0  0  0  0  0  0  0  0  0  0  0  0
    1.0400    0.6890   -0.1560 H   0  0  0  0  0  0  0  0  0  0  0  0
   -0.2110   -3.5020   -3.8980 C   0  0  0  0  0  0  0  0  0  0  0  0
   -1.4260   -2.8570   -4.5240 C   0  0  1  0  0  0  0  0  0  0  0  0
   -2.5780   -3.5230   -4.0560 O   0  0  0  0  0  0  0  0  0  0  0  0
   -1.5350   -1.4230   -4.0450 C   0  0  2  0  0  0  0  0  0  0  0  0
   -1.5920   -1.4610   -2.5820 N   0  0  0  0  0  0  0  0  0  0  0  0
   -2.7420   -0.8120   -4.6230 C   0  0  0  0  0  0  0  0  0  0  0  0
   -3.7130   -0.3700   -3.9660 O   0  0  0  0  0  0  0  0  0  0  0  0
   -2.8110   -0.7160   -6.0060 O   0  0  0  0  0  0  0  0  0  0  0  0
    0.6680   -2.8410   -3.9900 H   0  0  0  0  0  0  0  0  0  0  0  0
   -0.3670   -3.7970   -2.8580 H   0  0  0  0  0  0  0  0  0  0  0  0
    0.0110   -4.4380   -4.4690 H   0  0  0  0  0  0  0  0  0  0  0  0
   -1.4380   -2.9500   -5.6130 H   0  0  0  0  0  0  0  0  0  0  0  0
   -2.4660   -3.8270   -3.1210 H   0  0  0  0  0  0  0  0  0  0  0  0
   -0.6400   -0.8920   -4.3980 H   0  0  0  0  0  0  0  0  0  0  0  0
   -2.3830   -1.9480   -2.1150 H   0  0  0  0  0  0  0  0  0  0  0  0
  1 13  1  0  0  0  0
  2  1  1  0  0  0  0
  3 14  1  0  0  0  0
  3  2  1  0  0  0  0
  4  3  2  0  0  0  0
  5 11  2  0  0  0  0
  5  4  1  0  0  0  0
  6 16  1  0  0  0  0
  6 17  1  0  0  0  0
  6  5  1  0  0  0  0
  7 18  1  6  0  0  0
  7  6  1  0  0  0  0
  8 20  1  0  0  0  0
  8  7  1  0  0  0  0
  9 10  2  0  0  0  0
  9  7  1  0  0  0  0
 11 12  1  0  0  0  0
 12 22  1  0  0  0  0
 12  2  2  0  0  0  0
 15  4  1  0  0  0  0
 19  8  1  0  0  0  0
 21 11  1  0  0  0  0
 23 31  1  0  0  0  0
 23 32  1  0  0  0  0
 24 35  1  0  0  0  0
 24 34  1  0  0  0  0
 24 23  1  0  0  0  0
 25 36  1  6  0  0  0
 25 24  1  0  0  0  0
 26 39  1  0  0  0  0
 26 25  1  0  0  0  0
 26 37  1  0  0  0  0
 27 40  1  1  0  0  0
 27 28  1  0  0  0  0
 27 25  1  0  0  0  0
 28  9  1  0  0  0  0
 29 27  1  0  0  0  0
 30 29  2  0  0  0  0
 33 23  1  0  0  0  0
 38 26  1  0  0  0  0
 41 28  1  0  0  0  0
 42 51  1  0  0  0  0
 43 53  1  6  0  0  0
 43 44  1  0  0  0  0
 43 45  1  0  0  0  0
 43 42  1  0  0  0  0
 44 54  1  0  0  0  0
 45 55  1  6  0  0  0
 45 46  1  0  0  0  0
 46 56  1  0  0  0  0
 46 29  1  0  0  0  0
 47 45  1  0  0  0  0
 47 48  1  0  0  0  0
 49 47  2  0  0  0  0
 50 42  1  0  0  0  0
 52 42  1  0  0  0  0
M  END
$$$$
