YIV.pdb
 OpenBabel07022419213D

 58 58  0  0  1  0  0  0  0  0999 V2000
    3.4380    1.2020    6.1610 O   0  0  0  0  0  0  0  0  0  0  0  0
    2.7890    1.7760    5.0660 C   0  0  0  0  0  0  0  0  0  0  0  0
    3.1960    1.5510    3.7690 C   0  0  0  0  0  0  0  0  0  0  0  0
    2.5600    2.1140    2.6960 C   0  0  0  0  0  0  0  0  0  0  0  0
    1.4680    2.9410    2.8620 C   0  0  0  0  0  0  0  0  0  0  0  0
    0.7680    3.5580    1.7210 C   0  0  0  0  0  0  0  0  0  0  0  0
   -0.3610    2.7120    1.1840 C   0  0  2  0  0  0  0  0  0  0  0  0
   -1.3800    2.4450    2.1590 N   0  0  0  0  0  0  0  0  0  0  0  0
    0.1240    1.5030    0.5020 C   0  0  0  0  0  0  0  0  0  0  0  0
    1.0250    1.6350   -0.3650 O   0  0  0  0  0  0  0  0  0  0  0  0
    1.0490    3.1740    4.1660 C   0  0  0  0  0  0  0  0  0  0  0  0
    1.6970    2.6030    5.2440 C   0  0  0  0  0  0  0  0  0  0  0  0
    2.8180    0.9080    6.9190 H   0  0  0  0  0  0  0  0  0  0  0  0
    4.0560    0.9000    3.6420 H   0  0  0  0  0  0  0  0  0  0  0  0
    2.8950    1.9270    1.6650 H   0  0  0  0  0  0  0  0  0  0  0  0
    0.4490    4.6010    1.9200 H   0  0  0  0  0  0  0  0  0  0  0  0
    1.5200    3.6430    0.8850 H   0  0  0  0  0  0  0  0  0  0  0  0
   -0.8510    3.3440    0.3850 H   0  0  0  0  0  0  0  0  0  0  0  0
   -1.6680    3.3380    2.6020 H   0  0  0  0  0  0  0  0  0  0  0  0
   -2.2090    2.0440    1.6710 H   0  0  0  0  0  0  0  0  0  0  0  0
    0.1890    3.8260    4.2890 H   0  0  0  0  0  0  0  0  0  0  0  0
    1.3590    2.7930    6.2550 H   0  0  0  0  0  0  0  0  0  0  0  0
   -1.2150   -3.1770    1.7230 C   0  0  0  0  0  0  0  0  0  0  0  0
    0.0260   -2.4510    2.1150 C   0  0  0  0  0  0  0  0  0  0  0  0
    0.8530   -1.9270    0.9890 C   0  0  2  0  0  0  0  0  0  0  0  0
    2.0580   -1.2260    1.5810 C   0  0  0  0  0  0  0  0  0  0  0  0
    0.1340   -0.9730    0.0740 C   0  0  2  0  0  0  0  0  0  0  0  0
   -0.3560    0.1880    0.7530 N   0  0  0  0  0  0  0  0  0  0  0  0
   -0.8760   -1.6230   -0.7950 C   0  0  0  0  0  0  0  0  0  0  0  0
   -2.0780   -1.1980   -0.8840 O   0  0  0  0  0  0  0  0  0  0  0  0
   -2.0910   -2.4950    1.5350 H   0  0  0  0  0  0  0  0  0  0  0  0
   -1.0550   -3.9050    0.9200 H   0  0  0  0  0  0  0  0  0  0  0  0
   -1.5540   -3.7920    2.6090 H   0  0  0  0  0  0  0  0  0  0  0  0
    0.6780   -3.1930    2.6620 H   0  0  0  0  0  0  0  0  0  0  0  0
   -0.2090   -1.6750    2.8760 H   0  0  0  0  0  0  0  0  0  0  0  0
    1.1790   -2.8310    0.3940 H   0  0  0  0  0  0  0  0  0  0  0  0
    2.7040   -2.0240    2.0190 H   0  0  0  0  0  0  0  0  0  0  0  0
    1.6730   -0.6350    2.4480 H   0  0  0  0  0  0  0  0  0  0  0  0
    2.5970   -0.5990    0.8540 H   0  0  0  0  0  0  0  0  0  0  0  0
    0.9340   -0.6010   -0.6380 H   0  0  0  0  0  0  0  0  0  0  0  0
   -1.1170    0.1230    1.4940 H   0  0  0  0  0  0  0  0  0  0  0  0
   -0.9570   -1.7880   -4.2630 C   0  0  0  0  0  0  0  0  0  0  0  0
   -1.0960   -3.2410   -3.8910 C   0  0  0  0  0  0  0  0  0  0  0  0
   -2.1250   -3.8620   -4.8100 C   0  0  0  0  0  0  0  0  0  0  0  0
   -1.5550   -3.3860   -2.4300 C   0  0  2  0  0  0  0  0  0  0  0  0
   -0.5660   -2.7650   -1.5870 N   0  0  0  0  0  0  0  0  0  0  0  0
   -1.6970   -4.8420   -2.2170 C   0  0  0  0  0  0  0  0  0  0  0  0
   -0.9620   -5.3970   -1.3620 O   0  0  0  0  0  0  0  0  0  0  0  0
   -2.5910   -5.6290   -2.9020 O   0  0  0  0  0  0  0  0  0  0  0  0
   -0.2590   -1.7400   -5.1300 H   0  0  0  0  0  0  0  0  0  0  0  0
   -0.5450   -1.1650   -3.4680 H   0  0  0  0  0  0  0  0  0  0  0  0
   -1.9440   -1.4270   -4.6420 H   0  0  0  0  0  0  0  0  0  0  0  0
   -0.1400   -3.7580   -3.9800 H   0  0  0  0  0  0  0  0  0  0  0  0
   -1.8970   -4.9210   -5.0360 H   0  0  0  0  0  0  0  0  0  0  0  0
   -2.0780   -3.3160   -5.7690 H   0  0  0  0  0  0  0  0  0  0  0  0
   -3.1180   -3.8110   -4.3350 H   0  0  0  0  0  0  0  0  0  0  0  0
   -2.5190   -2.8850   -2.2760 H   0  0  0  0  0  0  0  0  0  0  0  0
    0.4250   -3.1180   -1.5140 H   0  0  0  0  0  0  0  0  0  0  0  0
  1 13  1  0  0  0  0
  2 12  1  0  0  0  0
  2  1  1  0  0  0  0
  3  2  2  0  0  0  0
  4  5  2  0  0  0  0
  4  3  1  0  0  0  0
  5 11  1  0  0  0  0
  6 16  1  0  0  0  0
  6  5  1  0  0  0  0
  7 18  1  6  0  0  0
  7  6  1  0  0  0  0
  7  8  1  0  0  0  0
  8 19  1  0  0  0  0
  9 28  1  0  0  0  0
  9  7  1  0  0  0  0
 10  9  2  0  0  0  0
 11 21  1  0  0  0  0
 11 12  2  0  0  0  0
 12 22  1  0  0  0  0
 14  3  1  0  0  0  0
 15  4  1  0  0  0  0
 17  6  1  0  0  0  0
 20  8  1  0  0  0  0
 23 24  1  0  0  0  0
 23 33  1  0  0  0  0
 24 34  1  0  0  0  0
 24 35  1  0  0  0  0
 25 36  1  6  0  0  0
 25 26  1  0  0  0  0
 25 24  1  0  0  0  0
 26 37  1  0  0  0  0
 26 38  1  0  0  0  0
 27 40  1  6  0  0  0
 27 28  1  0  0  0  0
 27 25  1  0  0  0  0
 28 41  1  0  0  0  0
 29 27  1  0  0  0  0
 30 29  2  0  0  0  0
 31 23  1  0  0  0  0
 32 23  1  0  0  0  0
 39 26  1  0  0  0  0
 42 43  1  0  0  0  0
 42 51  1  0  0  0  0
 43 45  1  0  0  0  0
 44 56  1  0  0  0  0
 44 43  1  0  0  0  0
 45 57  1  1  0  0  0
 45 47  1  0  0  0  0
 45 46  1  0  0  0  0
 46 58  1  0  0  0  0
 46 29  1  0  0  0  0
 47 48  1  0  0  0  0
 49 47  2  0  0  0  0
 50 42  1  0  0  0  0
 52 42  1  0  0  0  0
 53 43  1  0  0  0  0
 54 44  1  0  0  0  0
 55 44  1  0  0  0  0
M  END
$$$$
