YKL.pdb
 OpenBabel07022419223D

 63 63  0  0  1  0  0  0  0  0999 V2000
   -4.1070    2.4000    2.3780 O   0  0  0  0  0  0  0  0  0  0  0  0
   -2.9420    2.0160    3.0260 C   0  0  0  0  0  0  0  0  0  0  0  0
   -3.0020    1.4460    4.2810 C   0  0  0  0  0  0  0  0  0  0  0  0
   -1.8220    1.0770    4.8940 C   0  0  0  0  0  0  0  0  0  0  0  0
   -0.5890    1.2530    4.3070 C   0  0  0  0  0  0  0  0  0  0  0  0
    0.6270    0.8590    5.0070 C   0  0  0  0  0  0  0  0  0  0  0  0
    1.0690   -0.5590    4.8340 C   0  0  2  0  0  0  0  0  0  0  0  0
    2.3050   -0.6750    5.6430 N   0  0  0  0  0  0  0  0  0  0  0  0
    1.4040   -0.9520    3.4680 C   0  0  0  0  0  0  0  0  0  0  0  0
    2.6260   -1.1490    3.1570 O   0  0  0  0  0  0  0  0  0  0  0  0
   -0.5200    1.8190    3.0580 C   0  0  0  0  0  0  0  0  0  0  0  0
   -1.7110    2.1880    2.4470 C   0  0  0  0  0  0  0  0  0  0  0  0
   -4.0320    2.8270    1.4800 H   0  0  0  0  0  0  0  0  0  0  0  0
   -3.9720    1.3170    4.7230 H   0  0  0  0  0  0  0  0  0  0  0  0
   -1.9360    0.6290    5.8940 H   0  0  0  0  0  0  0  0  0  0  0  0
    0.5080    1.0090    6.1230 H   0  0  0  0  0  0  0  0  0  0  0  0
    1.4190    1.5930    4.7330 H   0  0  0  0  0  0  0  0  0  0  0  0
    0.3240   -1.2250    5.3150 H   0  0  0  0  0  0  0  0  0  0  0  0
    3.0790   -1.0810    5.0890 H   0  0  0  0  0  0  0  0  0  0  0  0
    2.1280   -1.2240    6.5140 H   0  0  0  0  0  0  0  0  0  0  0  0
    0.4340    1.9870    2.5330 H   0  0  0  0  0  0  0  0  0  0  0  0
   -1.6530    2.6330    1.4650 H   0  0  0  0  0  0  0  0  0  0  0  0
    0.4930   -1.1540    2.3960 N   0  0  0  0  0  0  0  0  0  0  0  0
    0.9220   -1.5500    1.0790 C   0  0  1  0  0  0  0  0  0  0  0  0
    0.4640   -2.9830    0.8680 C   0  0  0  0  0  0  0  0  0  0  0  0
   -1.0090   -3.1390    0.9610 C   0  0  0  0  0  0  0  0  0  0  0  0
   -1.3960   -4.5780    0.7540 C   0  0  0  0  0  0  0  0  0  0  0  0
   -0.9670   -5.0880   -0.6020 C   0  0  0  0  0  0  0  0  0  0  0  0
   -1.3670   -6.4880   -0.7760 N   0  0  0  0  0  0  0  0  0  0  0  0
    0.4800   -0.6640   -0.0080 C   0  0  0  0  0  0  0  0  0  0  0  0
   -0.2290    0.3510    0.2130 O   0  0  0  0  0  0  0  0  0  0  0  0
   -0.5150   -1.0140    2.5780 H   0  0  0  0  0  0  0  0  0  0  0  0
    2.0460   -1.6190    1.0640 H   0  0  0  0  0  0  0  0  0  0  0  0
    0.7910   -3.2420   -0.1610 H   0  0  0  0  0  0  0  0  0  0  0  0
    1.0060   -3.6140    1.5730 H   0  0  0  0  0  0  0  0  0  0  0  0
   -1.5060   -2.5670    0.1230 H   0  0  0  0  0  0  0  0  0  0  0  0
   -1.4460   -2.7680    1.9090 H   0  0  0  0  0  0  0  0  0  0  0  0
   -0.9600   -5.2530    1.5190 H   0  0  0  0  0  0  0  0  0  0  0  0
   -2.5210   -4.6430    0.7530 H   0  0  0  0  0  0  0  0  0  0  0  0
    0.1290   -5.0300   -0.7730 H   0  0  0  0  0  0  0  0  0  0  0  0
   -1.4740   -4.5120   -1.3980 H   0  0  0  0  0  0  0  0  0  0  0  0
   -1.5050   -6.9220    0.1850 H   0  0  0  0  0  0  0  0  0  0  0  0
   -2.2590   -6.5330   -1.3110 H   0  0  0  0  0  0  0  0  0  0  0  0
    0.3110    2.8450   -3.7120 C   0  0  0  0  0  0  0  0  0  0  0  0
    1.2090    1.6930   -4.1230 C   0  0  0  0  0  0  0  0  0  0  0  0
    0.8310    1.2050   -5.4730 C   0  0  0  0  0  0  0  0  0  0  0  0
    1.4950    0.7130   -3.0560 C   0  0  0  0  0  0  0  0  0  0  0  0
    0.3290    0.0630   -2.4240 C   0  0  2  0  0  0  0  0  0  0  0  0
    0.8160   -0.8850   -1.3720 N   0  0  0  0  0  0  0  0  0  0  0  0
   -0.4560   -0.7520   -3.3350 C   0  0  0  0  0  0  0  0  0  0  0  0
   -1.1660   -0.2480   -4.2290 O   0  0  0  0  0  0  0  0  0  0  0  0
   -0.4450   -2.1330   -3.2450 O   0  0  0  0  0  0  0  0  0  0  0  0
    0.4560    3.1350   -2.6590 H   0  0  0  0  0  0  0  0  0  0  0  0
   -0.7620    2.5980   -3.8510 H   0  0  0  0  0  0  0  0  0  0  0  0
    0.5030    3.7490   -4.3290 H   0  0  0  0  0  0  0  0  0  0  0  0
    2.2190    2.2790   -4.3300 H   0  0  0  0  0  0  0  0  0  0  0  0
    1.5440    1.6960   -6.2290 H   0  0  0  0  0  0  0  0  0  0  0  0
    1.0200    0.1240   -5.6630 H   0  0  0  0  0  0  0  0  0  0  0  0
   -0.1570    1.5630   -5.8470 H   0  0  0  0  0  0  0  0  0  0  0  0
    2.1600    1.2310   -2.2910 H   0  0  0  0  0  0  0  0  0  0  0  0
    2.2160   -0.0490   -3.5040 H   0  0  0  0  0  0  0  0  0  0  0  0
   -0.2750    0.8550   -1.9300 H   0  0  0  0  0  0  0  0  0  0  0  0
    1.4000   -1.7030   -1.6370 H   0  0  0  0  0  0  0  0  0  0  0  0
  1  2  1  0  0  0  0
  2  3  1  0  0  0  0
  3 14  1  0  0  0  0
  3  4  2  0  0  0  0
  4 15  1  0  0  0  0
  5  4  1  0  0  0  0
  5  6  1  0  0  0  0
  6 16  1  0  0  0  0
  7  6  1  0  0  0  0
  7 18  1  1  0  0  0
  7  8  1  0  0  0  0
  8 20  1  0  0  0  0
  9  7  1  0  0  0  0
 10  9  2  0  0  0  0
 11  5  2  0  0  0  0
 12  2  2  0  0  0  0
 12 11  1  0  0  0  0
 13  1  1  0  0  0  0
 17  6  1  0  0  0  0
 19  8  1  0  0  0  0
 21 11  1  0  0  0  0
 22 12  1  0  0  0  0
 23 32  1  0  0  0  0
 23  9  1  0  0  0  0
 24 33  1  6  0  0  0
 24 23  1  0  0  0  0
 25 26  1  0  0  0  0
 25 24  1  0  0  0  0
 25 35  1  0  0  0  0
 26 37  1  0  0  0  0
 27 26  1  0  0  0  0
 27 38  1  0  0  0  0
 28 27  1  0  0  0  0
 29 28  1  0  0  0  0
 29 42  1  0  0  0  0
 30 31  2  0  0  0  0
 30 24  1  0  0  0  0
 34 25  1  0  0  0  0
 36 26  1  0  0  0  0
 39 27  1  0  0  0  0
 40 28  1  0  0  0  0
 41 28  1  0  0  0  0
 43 29  1  0  0  0  0
 44 53  1  0  0  0  0
 45 44  1  0  0  0  0
 45 47  1  0  0  0  0
 46 45  1  0  0  0  0
 47 48  1  0  0  0  0
 47 60  1  0  0  0  0
 48 62  1  1  0  0  0
 48 49  1  0  0  0  0
 49 30  1  0  0  0  0
 50 52  1  0  0  0  0
 50 48  1  0  0  0  0
 51 50  2  0  0  0  0
 54 44  1  0  0  0  0
 55 44  1  0  0  0  0
 56 45  1  0  0  0  0
 57 46  1  0  0  0  0
 58 46  1  0  0  0  0
 59 46  1  0  0  0  0
 61 47  1  0  0  0  0
 63 49  1  0  0  0  0
M  END
$$$$
