YKQ.pdb
 OpenBabel07022419223D

 61 61  0  0  1  0  0  0  0  0999 V2000
    2.3890   -1.4440    7.1010 O   0  0  0  0  0  0  0  0  0  0  0  0
    2.5940   -1.1490    5.7560 C   0  0  0  0  0  0  0  0  0  0  0  0
    1.7150   -1.5540    4.7650 C   0  0  0  0  0  0  0  0  0  0  0  0
    1.9080   -1.2680    3.4320 C   0  0  0  0  0  0  0  0  0  0  0  0
    3.0130   -0.5500    3.0480 C   0  0  0  0  0  0  0  0  0  0  0  0
    3.2880   -0.1970    1.6130 C   0  0  0  0  0  0  0  0  0  0  0  0
    2.7020    1.1130    1.2200 C   0  0  2  0  0  0  0  0  0  0  0  0
    3.2940    2.1270    2.1050 N   0  0  0  0  0  0  0  0  0  0  0  0
    1.2640    1.2510    1.2570 C   0  0  0  0  0  0  0  0  0  0  0  0
    0.7230    2.0120    2.1010 O   0  0  0  0  0  0  0  0  0  0  0  0
    3.9180   -0.1230    3.9980 C   0  0  0  0  0  0  0  0  0  0  0  0
    3.6890   -0.4300    5.3200 C   0  0  0  0  0  0  0  0  0  0  0  0
    1.5990   -2.0370    7.3210 H   0  0  0  0  0  0  0  0  0  0  0  0
    0.8430   -2.1260    5.1020 H   0  0  0  0  0  0  0  0  0  0  0  0
    1.2030   -1.6010    2.6820 H   0  0  0  0  0  0  0  0  0  0  0  0
    4.3890   -0.1360    1.5180 H   0  0  0  0  0  0  0  0  0  0  0  0
    2.9650   -1.0440    0.9800 H   0  0  0  0  0  0  0  0  0  0  0  0
    3.0920    1.3750    0.2090 H   0  0  0  0  0  0  0  0  0  0  0  0
    2.7110    2.1840    2.9730 H   0  0  0  0  0  0  0  0  0  0  0  0
    3.2060    3.0630    1.6220 H   0  0  0  0  0  0  0  0  0  0  0  0
    4.8130    0.4560    3.7070 H   0  0  0  0  0  0  0  0  0  0  0  0
    4.3960   -0.0980    6.0750 H   0  0  0  0  0  0  0  0  0  0  0  0
    0.3620    0.5600    0.3620 N   0  0  0  0  0  0  0  0  0  0  0  0
   -1.0610    0.7430    0.4440 C   0  0  1  0  0  0  0  0  0  0  0  0
   -1.6400    1.5800   -0.6450 C   0  0  0  0  0  0  0  0  0  0  0  0
   -1.4120    1.0270   -2.0310 C   0  0  0  0  0  0  0  0  0  0  0  0
   -2.0270    1.9710   -3.0500 C   0  0  0  0  0  0  0  0  0  0  0  0
   -1.8070    1.4390   -4.4240 C   0  0  0  0  0  0  0  0  0  0  0  0
   -2.4060    0.1410   -4.6350 N   0  0  0  0  0  0  0  0  0  0  0  0
   -1.8390   -0.4890    0.6310 C   0  0  0  0  0  0  0  0  0  0  0  0
   -3.1110   -0.4500    0.6410 O   0  0  0  0  0  0  0  0  0  0  0  0
    0.8150   -0.0600   -0.3230 H   0  0  0  0  0  0  0  0  0  0  0  0
   -1.2660    1.3490    1.4030 H   0  0  0  0  0  0  0  0  0  0  0  0
   -1.3270    2.6490   -0.5890 H   0  0  0  0  0  0  0  0  0  0  0  0
   -2.7630    1.6250   -0.5290 H   0  0  0  0  0  0  0  0  0  0  0  0
   -1.9830    0.0750   -2.1150 H   0  0  0  0  0  0  0  0  0  0  0  0
   -0.3410    0.9030   -2.1940 H   0  0  0  0  0  0  0  0  0  0  0  0
   -1.6970    3.0170   -2.9180 H   0  0  0  0  0  0  0  0  0  0  0  0
   -3.1280    1.9770   -2.8520 H   0  0  0  0  0  0  0  0  0  0  0  0
   -2.2190    2.1110   -5.2040 H   0  0  0  0  0  0  0  0  0  0  0  0
   -0.7160    1.3240   -4.6700 H   0  0  0  0  0  0  0  0  0  0  0  0
   -2.6660    0.0320   -5.6410 H   0  0  0  0  0  0  0  0  0  0  0  0
   -3.2680    0.0300   -4.0720 H   0  0  0  0  0  0  0  0  0  0  0  0
   -1.6650   -2.7370   -3.5560 N   0  0  0  0  0  0  0  0  0  0  0  0
   -1.3280   -2.9010   -2.1520 C   0  0  0  0  0  0  0  0  0  0  0  0
   -0.4230   -2.1620   -1.7530 O   0  0  0  0  0  0  0  0  0  0  0  0
   -2.0590   -3.8810   -1.3850 C   0  0  0  0  0  0  0  0  0  0  0  0
   -1.8060   -4.0620    0.0480 C   0  0  0  0  0  0  0  0  0  0  0  0
   -2.0470   -2.9670    1.0000 C   0  0  2  0  0  0  0  0  0  0  0  0
   -1.2800   -1.7920    0.8140 N   0  0  0  0  0  0  0  0  0  0  0  0
   -1.9010   -3.4660    2.4200 C   0  0  0  0  0  0  0  0  0  0  0  0
   -1.1780   -2.8430    3.2350 O   0  0  0  0  0  0  0  0  0  0  0  0
   -2.5500   -4.6070    2.8600 O   0  0  0  0  0  0  0  0  0  0  0  0
   -0.9370   -2.4850   -4.2600 H   0  0  0  0  0  0  0  0  0  0  0  0
   -2.6450   -2.8700   -3.8860 H   0  0  0  0  0  0  0  0  0  0  0  0
   -3.1840   -3.7760   -1.5400 H   0  0  0  0  0  0  0  0  0  0  0  0
   -1.8860   -4.9100   -1.8640 H   0  0  0  0  0  0  0  0  0  0  0  0
   -0.7350   -4.4410    0.1900 H   0  0  0  0  0  0  0  0  0  0  0  0
   -2.4020   -4.9590    0.3810 H   0  0  0  0  0  0  0  0  0  0  0  0
   -3.1490   -2.6640    0.9530 H   0  0  0  0  0  0  0  0  0  0  0  0
   -0.2470   -1.8500    0.8280 H   0  0  0  0  0  0  0  0  0  0  0  0
  1 13  1  0  0  0  0
  2  1  1  0  0  0  0
  3 14  1  0  0  0  0
  3  2  2  0  0  0  0
  4  3  1  0  0  0  0
  5  4  2  0  0  0  0
  5 11  1  0  0  0  0
  6  5  1  0  0  0  0
  7 18  1  6  0  0  0
  7  9  1  0  0  0  0
  7  6  1  0  0  0  0
  7  8  1  0  0  0  0
  8 19  1  0  0  0  0
  9 10  2  0  0  0  0
 11 12  2  0  0  0  0
 12  2  1  0  0  0  0
 12 22  1  0  0  0  0
 15  4  1  0  0  0  0
 16  6  1  0  0  0  0
 17  6  1  0  0  0  0
 20  8  1  0  0  0  0
 21 11  1  0  0  0  0
 23 24  1  0  0  0  0
 23  9  1  0  0  0  0
 24 30  1  0  0  0  0
 24 33  1  1  0  0  0
 25 34  1  0  0  0  0
 25 35  1  0  0  0  0
 25 24  1  0  0  0  0
 26 25  1  0  0  0  0
 27 38  1  0  0  0  0
 27 39  1  0  0  0  0
 27 26  1  0  0  0  0
 28 27  1  0  0  0  0
 29 28  1  0  0  0  0
 29 43  1  0  0  0  0
 30 31  2  0  0  0  0
 30 50  1  0  0  0  0
 32 23  1  0  0  0  0
 36 26  1  0  0  0  0
 37 26  1  0  0  0  0
 40 28  1  0  0  0  0
 41 28  1  0  0  0  0
 42 29  1  0  0  0  0
 44 45  1  0  0  0  0
 45 46  2  0  0  0  0
 45 47  1  0  0  0  0
 47 48  1  0  0  0  0
 48 58  1  0  0  0  0
 48 59  1  0  0  0  0
 48 49  1  0  0  0  0
 49 60  1  6  0  0  0
 49 51  1  0  0  0  0
 50 61  1  0  0  0  0
 50 49  1  0  0  0  0
 51 53  2  0  0  0  0
 51 52  1  0  0  0  0
 54 44  1  0  0  0  0
 55 44  1  0  0  0  0
 56 47  1  0  0  0  0
 57 47  1  0  0  0  0
M  END
$$$$
