YKV.pdb
 OpenBabel07022419223D

 60 60  0  0  1  0  0  0  0  0999 V2000
    6.1210   -2.7940    2.4460 O   0  0  0  0  0  0  0  0  0  0  0  0
    5.4220   -1.7940    1.7980 C   0  0  0  0  0  0  0  0  0  0  0  0
    4.1520   -2.0200    1.3180 C   0  0  0  0  0  0  0  0  0  0  0  0
    3.4890   -0.9830    0.6730 C   0  0  0  0  0  0  0  0  0  0  0  0
    4.0650    0.2450    0.5060 C   0  0  0  0  0  0  0  0  0  0  0  0
    3.3730    1.3840   -0.1870 C   0  0  0  0  0  0  0  0  0  0  0  0
    2.5950    2.1870    0.8380 C   0  0  2  0  0  0  0  0  0  0  0  0
    3.4530    2.7070    1.8660 N   0  0  0  0  0  0  0  0  0  0  0  0
    1.4740    1.3710    1.3510 C   0  0  0  0  0  0  0  0  0  0  0  0
    1.4550    1.0550    2.5740 O   0  0  0  0  0  0  0  0  0  0  0  0
    5.3470    0.4370    1.0010 C   0  0  0  0  0  0  0  0  0  0  0  0
    6.0290   -0.5690    1.6440 C   0  0  0  0  0  0  0  0  0  0  0  0
    5.7940   -3.2010    3.3330 H   0  0  0  0  0  0  0  0  0  0  0  0
    3.7120   -2.9990    1.4610 H   0  0  0  0  0  0  0  0  0  0  0  0
    2.4930   -1.1520    0.2950 H   0  0  0  0  0  0  0  0  0  0  0  0
    2.6700    0.9320   -0.9130 H   0  0  0  0  0  0  0  0  0  0  0  0
    4.0910    2.0090   -0.7430 H   0  0  0  0  0  0  0  0  0  0  0  0
    2.1360    3.0400    0.2930 H   0  0  0  0  0  0  0  0  0  0  0  0
    4.1050    3.4220    1.5020 H   0  0  0  0  0  0  0  0  0  0  0  0
    2.9300    3.0210    2.6980 H   0  0  0  0  0  0  0  0  0  0  0  0
    5.7840    1.4270    0.8540 H   0  0  0  0  0  0  0  0  0  0  0  0
    7.0380   -0.3980    2.0280 H   0  0  0  0  0  0  0  0  0  0  0  0
    0.4100    0.9290    0.5230 N   0  0  0  0  0  0  0  0  0  0  0  0
   -0.6730    0.1360    1.0660 C   0  0  1  0  0  0  0  0  0  0  0  0
   -1.8860    0.9660    1.2550 C   0  0  0  0  0  0  0  0  0  0  0  0
   -2.4810    1.6400    0.0910 C   0  0  0  0  0  0  0  0  0  0  0  0
   -2.9590    0.7280   -1.0030 C   0  0  0  0  0  0  0  0  0  0  0  0
   -3.5600    1.5360   -2.1570 C   0  0  0  0  0  0  0  0  0  0  0  0
   -4.6920    2.3160   -1.6720 N   0  0  0  0  0  0  0  0  0  0  0  0
   -0.8150   -1.1140    0.3260 C   0  0  0  0  0  0  0  0  0  0  0  0
   -0.0430   -1.3530   -0.6390 O   0  0  0  0  0  0  0  0  0  0  0  0
    0.4620    1.2100   -0.4810 H   0  0  0  0  0  0  0  0  0  0  0  0
   -0.3540   -0.1350    2.1400 H   0  0  0  0  0  0  0  0  0  0  0  0
   -1.6370    1.7460    2.0380 H   0  0  0  0  0  0  0  0  0  0  0  0
   -2.7080    0.3770    1.7540 H   0  0  0  0  0  0  0  0  0  0  0  0
   -3.4140    2.1670    0.4630 H   0  0  0  0  0  0  0  0  0  0  0  0
   -1.8710    2.4800   -0.3180 H   0  0  0  0  0  0  0  0  0  0  0  0
   -2.2020    0.0400   -1.3910 H   0  0  0  0  0  0  0  0  0  0  0  0
   -3.8250    0.1000   -0.6410 H   0  0  0  0  0  0  0  0  0  0  0  0
   -2.8130    2.2340   -2.5720 H   0  0  0  0  0  0  0  0  0  0  0  0
   -3.9370    0.8440   -2.9300 H   0  0  0  0  0  0  0  0  0  0  0  0
   -5.2580    2.6970   -2.4590 H   0  0  0  0  0  0  0  0  0  0  0  0
   -5.3310    1.7350   -1.0830 H   0  0  0  0  0  0  0  0  0  0  0  0
   -1.6560   -5.7110   -0.3270 C   0  0  0  0  0  0  0  0  0  0  0  0
   -1.5450   -4.5530    0.6440 C   0  0  0  0  0  0  0  0  0  0  0  0
   -2.5670   -4.7660    1.7300 C   0  0  0  0  0  0  0  0  0  0  0  0
   -1.8450   -3.2960   -0.1490 C   0  0  2  0  0  0  0  0  0  0  0  0
   -1.7810   -2.1070    0.6200 N   0  0  0  0  0  0  0  0  0  0  0  0
   -3.2120   -3.4800   -0.6990 C   0  0  0  0  0  0  0  0  0  0  0  0
   -3.5230   -4.4530   -1.4380 O   0  0  0  0  0  0  0  0  0  0  0  0
   -4.2480   -2.5840   -0.4340 O   0  0  0  0  0  0  0  0  0  0  0  0
   -2.6390   -6.2410   -0.2380 H   0  0  0  0  0  0  0  0  0  0  0  0
   -1.4000   -5.4180   -1.3500 H   0  0  0  0  0  0  0  0  0  0  0  0
   -0.9080   -6.5080   -0.0400 H   0  0  0  0  0  0  0  0  0  0  0  0
   -0.5080   -4.5670    1.0260 H   0  0  0  0  0  0  0  0  0  0  0  0
   -3.3670   -3.9910    1.6780 H   0  0  0  0  0  0  0  0  0  0  0  0
   -3.0830   -5.7420    1.6470 H   0  0  0  0  0  0  0  0  0  0  0  0
   -2.1200   -4.7330    2.7440 H   0  0  0  0  0  0  0  0  0  0  0  0
   -1.1250   -3.2920   -1.0040 H   0  0  0  0  0  0  0  0  0  0  0  0
   -2.4350   -1.9440    1.4050 H   0  0  0  0  0  0  0  0  0  0  0  0
  1 13  1  0  0  0  0
  2  1  1  0  0  0  0
  3 14  1  0  0  0  0
  3  2  2  0  0  0  0
  4  3  1  0  0  0  0
  5  4  2  0  0  0  0
  5 11  1  0  0  0  0
  6  5  1  0  0  0  0
  6  7  1  0  0  0  0
  7 18  1  6  0  0  0
  7  9  1  0  0  0  0
  7  8  1  0  0  0  0
  8 20  1  0  0  0  0
  9 10  2  0  0  0  0
 11 12  2  0  0  0  0
 12  2  1  0  0  0  0
 12 22  1  0  0  0  0
 15  4  1  0  0  0  0
 16  6  1  0  0  0  0
 17  6  1  0  0  0  0
 19  8  1  0  0  0  0
 21 11  1  0  0  0  0
 23 24  1  0  0  0  0
 23  9  1  0  0  0  0
 24 25  1  0  0  0  0
 24 33  1  1  0  0  0
 25 35  1  0  0  0  0
 25 34  1  0  0  0  0
 26 36  1  0  0  0  0
 26 25  1  0  0  0  0
 27 39  1  0  0  0  0
 27 26  1  0  0  0  0
 28 29  1  0  0  0  0
 28 27  1  0  0  0  0
 29 43  1  0  0  0  0
 30 48  1  0  0  0  0
 30 24  1  0  0  0  0
 31 30  2  0  0  0  0
 32 23  1  0  0  0  0
 37 26  1  0  0  0  0
 38 27  1  0  0  0  0
 40 28  1  0  0  0  0
 41 28  1  0  0  0  0
 42 29  1  0  0  0  0
 44 52  1  0  0  0  0
 44 54  1  0  0  0  0
 44 45  1  0  0  0  0
 45 55  1  0  0  0  0
 45 46  1  0  0  0  0
 46 58  1  0  0  0  0
 47 59  1  6  0  0  0
 47 48  1  0  0  0  0
 47 45  1  0  0  0  0
 48 60  1  0  0  0  0
 49 51  1  0  0  0  0
 49 47  1  0  0  0  0
 50 49  2  0  0  0  0
 53 44  1  0  0  0  0
 56 46  1  0  0  0  0
 57 46  1  0  0  0  0
M  END
$$$$
