YLA.pdb
 OpenBabel07022419213D

 52 52  0  0  1  0  0  0  0  0999 V2000
    6.3290   -3.8870    0.7550 O   0  0  0  0  0  0  0  0  0  0  0  0
    5.6420   -2.7860    0.2660 C   0  0  0  0  0  0  0  0  0  0  0  0
    4.8780   -2.0610    1.1600 C   0  0  0  0  0  0  0  0  0  0  0  0
    4.1690   -0.9430    0.7090 C   0  0  0  0  0  0  0  0  0  0  0  0
    4.2160   -0.5490   -0.6100 C   0  0  0  0  0  0  0  0  0  0  0  0
    3.4820    0.6120   -1.1020 C   0  0  0  0  0  0  0  0  0  0  0  0
    2.0980    0.3400   -1.6070 C   0  0  2  0  0  0  0  0  0  0  0  0
    1.5470    1.6090   -2.0430 N   0  0  0  0  0  0  0  0  0  0  0  0
    1.1850   -0.2260   -0.5850 C   0  0  0  0  0  0  0  0  0  0  0  0
    1.4590   -1.3460   -0.0730 O   0  0  0  0  0  0  0  0  0  0  0  0
    4.9840   -1.2850   -1.4880 C   0  0  0  0  0  0  0  0  0  0  0  0
    5.7000   -2.4070   -1.0530 C   0  0  0  0  0  0  0  0  0  0  0  0
    5.7890   -4.7310    0.9310 H   0  0  0  0  0  0  0  0  0  0  0  0
    4.8210   -2.3460    2.2060 H   0  0  0  0  0  0  0  0  0  0  0  0
    3.5660   -0.3550    1.3750 H   0  0  0  0  0  0  0  0  0  0  0  0
    3.4000    1.3750   -0.3030 H   0  0  0  0  0  0  0  0  0  0  0  0
    4.0540    1.0490   -1.9460 H   0  0  0  0  0  0  0  0  0  0  0  0
    2.1130   -0.3110   -2.5230 H   0  0  0  0  0  0  0  0  0  0  0  0
    1.4530    2.2840   -1.2330 H   0  0  0  0  0  0  0  0  0  0  0  0
    0.5930    1.5200   -2.4420 H   0  0  0  0  0  0  0  0  0  0  0  0
    5.0440   -1.0060   -2.5260 H   0  0  0  0  0  0  0  0  0  0  0  0
    6.2850   -2.9580   -1.7490 H   0  0  0  0  0  0  0  0  0  0  0  0
   -3.0630    0.6080    3.1220 C   0  0  0  0  0  0  0  0  0  0  0  0
   -1.5680    0.6970    3.1900 C   0  0  0  0  0  0  0  0  0  0  0  0
   -1.0640   -0.4720    4.0370 C   0  0  0  0  0  0  0  0  0  0  0  0
   -0.8340    0.8540    1.9350 C   0  0  0  0  0  0  0  0  0  0  0  0
   -0.8640   -0.1630    0.8620 C   0  0  2  0  0  0  0  0  0  0  0  0
    0.0380    0.4560   -0.1860 N   0  0  0  0  0  0  0  0  0  0  0  0
   -2.1540   -0.4260    0.2180 C   0  0  0  0  0  0  0  0  0  0  0  0
   -2.4250    0.1540   -0.9040 O   0  0  0  0  0  0  0  0  0  0  0  0
   -3.4340   -0.4000    3.3810 H   0  0  0  0  0  0  0  0  0  0  0  0
   -3.5210    1.3190    3.8680 H   0  0  0  0  0  0  0  0  0  0  0  0
   -3.3970    0.9960    2.1430 H   0  0  0  0  0  0  0  0  0  0  0  0
   -1.3440    1.6060    3.8440 H   0  0  0  0  0  0  0  0  0  0  0  0
   -1.4580   -1.4340    3.6730 H   0  0  0  0  0  0  0  0  0  0  0  0
    0.0220   -0.4300    4.1290 H   0  0  0  0  0  0  0  0  0  0  0  0
   -1.4940   -0.3100    5.0490 H   0  0  0  0  0  0  0  0  0  0  0  0
   -1.2220    1.8290    1.4620 H   0  0  0  0  0  0  0  0  0  0  0  0
    0.2460    1.1710    2.1630 H   0  0  0  0  0  0  0  0  0  0  0  0
   -0.3740   -1.1130    1.1100 H   0  0  0  0  0  0  0  0  0  0  0  0
   -0.2530    1.3830   -0.5640 H   0  0  0  0  0  0  0  0  0  0  0  0
   -4.5000   -2.8900   -0.6180 C   0  0  0  0  0  0  0  0  0  0  0  0
   -4.4160   -1.4580   -0.0670 C   0  0  2  0  0  0  0  0  0  0  0  0
   -3.1890   -1.2790    0.6770 N   0  0  0  0  0  0  0  0  0  0  0  0
   -5.6500   -1.2420    0.6880 C   0  0  0  0  0  0  0  0  0  0  0  0
   -5.6260   -0.9340    1.8920 O   0  0  0  0  0  0  0  0  0  0  0  0
   -6.8720   -1.3810    0.0560 O   0  0  0  0  0  0  0  0  0  0  0  0
   -5.5240   -3.0040   -1.0180 H   0  0  0  0  0  0  0  0  0  0  0  0
   -4.2990   -3.6360    0.1750 H   0  0  0  0  0  0  0  0  0  0  0  0
   -3.7930   -3.0190   -1.4620 H   0  0  0  0  0  0  0  0  0  0  0  0
   -4.4070   -0.8030   -0.9840 H   0  0  0  0  0  0  0  0  0  0  0  0
   -3.0380   -1.7930    1.5600 H   0  0  0  0  0  0  0  0  0  0  0  0
  1 13  1  0  0  0  0
  2  1  1  0  0  0  0
  2  3  1  0  0  0  0
  3 14  1  0  0  0  0
  4  3  2  0  0  0  0
  4 15  1  0  0  0  0
  5  4  1  0  0  0  0
  6  5  1  0  0  0  0
  6 16  1  0  0  0  0
  7 18  1  6  0  0  0
  7  6  1  0  0  0  0
  7  9  1  0  0  0  0
  8  7  1  0  0  0  0
  8 19  1  0  0  0  0
  9 28  1  0  0  0  0
  9 10  2  0  0  0  0
 11 12  1  0  0  0  0
 11  5  2  0  0  0  0
 12  2  2  0  0  0  0
 17  6  1  0  0  0  0
 20  8  1  0  0  0  0
 21 11  1  0  0  0  0
 22 12  1  0  0  0  0
 23 24  1  0  0  0  0
 23 31  1  0  0  0  0
 23 32  1  0  0  0  0
 24 34  1  0  0  0  0
 24 25  1  0  0  0  0
 25 36  1  0  0  0  0
 25 37  1  0  0  0  0
 26 39  1  0  0  0  0
 26 24  1  0  0  0  0
 27 40  1  1  0  0  0
 27 26  1  0  0  0  0
 28 27  1  0  0  0  0
 29 44  1  0  0  0  0
 29 27  1  0  0  0  0
 30 29  2  0  0  0  0
 33 23  1  0  0  0  0
 35 25  1  0  0  0  0
 38 26  1  0  0  0  0
 41 28  1  0  0  0  0
 42 43  1  0  0  0  0
 42 49  1  0  0  0  0
 43 51  1  6  0  0  0
 43 44  1  0  0  0  0
 43 45  1  0  0  0  0
 44 52  1  0  0  0  0
 45 46  1  0  0  0  0
 47 45  2  0  0  0  0
 48 42  1  0  0  0  0
 50 42  1  0  0  0  0
M  END
$$$$
