YLC.pdb
 OpenBabel07022419213D

 53 53  0  0  1  0  0  0  0  0999 V2000
    4.9060    0.5270    3.3870 O   0  0  0  0  0  0  0  0  0  0  0  0
    4.4290   -0.5350    2.6180 C   0  0  0  0  0  0  0  0  0  0  0  0
    3.4650   -1.3770    3.1330 C   0  0  0  0  0  0  0  0  0  0  0  0
    2.9760   -2.4320    2.3950 C   0  0  0  0  0  0  0  0  0  0  0  0
    3.4660   -2.6510    1.1060 C   0  0  0  0  0  0  0  0  0  0  0  0
    2.9250   -3.7860    0.3440 C   0  0  0  0  0  0  0  0  0  0  0  0
    1.7800   -3.4230   -0.5640 C   0  0  2  0  0  0  0  0  0  0  0  0
    2.2180   -2.4460   -1.5400 N   0  0  0  0  0  0  0  0  0  0  0  0
    0.6850   -2.8030    0.2250 C   0  0  0  0  0  0  0  0  0  0  0  0
    0.1240   -3.4190    1.1960 O   0  0  0  0  0  0  0  0  0  0  0  0
    4.4290   -1.7940    0.6190 C   0  0  0  0  0  0  0  0  0  0  0  0
    4.9320   -0.7310    1.3410 C   0  0  0  0  0  0  0  0  0  0  0  0
    4.6530    0.6220    4.3540 H   0  0  0  0  0  0  0  0  0  0  0  0
    3.0480   -1.2470    4.1430 H   0  0  0  0  0  0  0  0  0  0  0  0
    2.2170   -3.0730    2.8490 H   0  0  0  0  0  0  0  0  0  0  0  0
    2.5040   -4.5520    1.0670 H   0  0  0  0  0  0  0  0  0  0  0  0
    3.7240   -4.3460   -0.2130 H   0  0  0  0  0  0  0  0  0  0  0  0
    1.4270   -4.3290   -1.1100 H   0  0  0  0  0  0  0  0  0  0  0  0
    1.5740   -2.3410   -2.3310 H   0  0  0  0  0  0  0  0  0  0  0  0
    2.6020   -1.5810   -1.1550 H   0  0  0  0  0  0  0  0  0  0  0  0
    4.8350   -1.9350   -0.3940 H   0  0  0  0  0  0  0  0  0  0  0  0
    5.6860   -0.0650    0.9530 H   0  0  0  0  0  0  0  0  0  0  0  0
    1.1530    1.4560   -0.2170 C   0  0  0  0  0  0  0  0  0  0  0  0
   -0.0870    1.5960    0.5890 C   0  0  0  0  0  0  0  0  0  0  0  0
   -1.1500    2.2540   -0.2560 C   0  0  0  0  0  0  0  0  0  0  0  0
   -0.5390    0.4260    1.3490 C   0  0  0  0  0  0  0  0  0  0  0  0
   -0.8700   -0.8410    0.6950 C   0  0  2  0  0  0  0  0  0  0  0  0
    0.1880   -1.4870   -0.0490 N   0  0  0  0  0  0  0  0  0  0  0  0
   -2.1520   -0.9620   -0.0050 C   0  0  0  0  0  0  0  0  0  0  0  0
   -2.1710   -1.6950   -1.0610 O   0  0  0  0  0  0  0  0  0  0  0  0
    1.6930    2.4510   -0.2280 H   0  0  0  0  0  0  0  0  0  0  0  0
    0.8980    1.3090   -1.3050 H   0  0  0  0  0  0  0  0  0  0  0  0
    1.9010    0.7500    0.1640 H   0  0  0  0  0  0  0  0  0  0  0  0
    0.1470    2.3880    1.3750 H   0  0  0  0  0  0  0  0  0  0  0  0
   -0.7780    3.3000   -0.4570 H   0  0  0  0  0  0  0  0  0  0  0  0
   -2.1020    2.3830    0.2800 H   0  0  0  0  0  0  0  0  0  0  0  0
   -1.1980    1.7510   -1.2140 H   0  0  0  0  0  0  0  0  0  0  0  0
    0.2410    0.2090    2.1250 H   0  0  0  0  0  0  0  0  0  0  0  0
   -1.4320    0.7290    1.9690 H   0  0  0  0  0  0  0  0  0  0  0  0
   -1.0060   -1.5720    1.5910 H   0  0  0  0  0  0  0  0  0  0  0  0
    0.6710   -1.0190   -0.8630 H   0  0  0  0  0  0  0  0  0  0  0  0
   -3.3770   -0.3780    0.3370 N   0  0  0  0  0  0  0  0  0  0  0  0
   -4.6180   -0.5360   -0.3490 C   0  0  1  0  0  0  0  0  0  0  0  0
   -5.7970   -0.7540    0.5350 C   0  0  0  0  0  0  0  0  0  0  0  0
   -5.7200   -2.2030    1.5810 S   0  0  0  0  0  0  0  0  0  0  0  0
   -4.9450    0.6060   -1.2640 C   0  0  0  0  0  0  0  0  0  0  0  0
   -6.0050    0.5480   -1.9510 O   0  0  0  0  0  0  0  0  0  0  0  0
   -4.1460    1.7080   -1.3850 O   0  0  0  0  0  0  0  0  0  0  0  0
   -3.3440    0.2410    1.2100 H   0  0  0  0  0  0  0  0  0  0  0  0
   -4.5300   -1.4120   -1.0580 H   0  0  0  0  0  0  0  0  0  0  0  0
   -6.7180   -0.8570   -0.1050 H   0  0  0  0  0  0  0  0  0  0  0  0
   -5.9800    0.1880    1.1260 H   0  0  0  0  0  0  0  0  0  0  0  0
   -6.9730   -2.4940    2.1330 H   0  0  0  0  0  0  0  0  0  0  0  0
  1 13  1  0  0  0  0
  2  3  1  0  0  0  0
  2  1  1  0  0  0  0
  3 14  1  0  0  0  0
  4 15  1  0  0  0  0
  4  3  2  0  0  0  0
  5  4  1  0  0  0  0
  6 16  1  0  0  0  0
  6  5  1  0  0  0  0
  7 18  1  6  0  0  0
  7  9  1  0  0  0  0
  7  6  1  0  0  0  0
  8 20  1  0  0  0  0
  8  7  1  0  0  0  0
  9 10  2  0  0  0  0
 11  5  2  0  0  0  0
 11 12  1  0  0  0  0
 12  2  2  0  0  0  0
 17  6  1  0  0  0  0
 19  8  1  0  0  0  0
 21 11  1  0  0  0  0
 22 12  1  0  0  0  0
 23 33  1  0  0  0  0
 23 24  1  0  0  0  0
 24 26  1  0  0  0  0
 24 34  1  0  0  0  0
 25 36  1  0  0  0  0
 25 24  1  0  0  0  0
 26 39  1  0  0  0  0
 26 38  1  0  0  0  0
 27 26  1  0  0  0  0
 27 40  1  1  0  0  0
 28  9  1  0  0  0  0
 28 27  1  0  0  0  0
 29 42  1  0  0  0  0
 29 27  1  0  0  0  0
 30 29  2  0  0  0  0
 31 23  1  0  0  0  0
 32 23  1  0  0  0  0
 35 25  1  0  0  0  0
 37 25  1  0  0  0  0
 41 28  1  0  0  0  0
 42 49  1  0  0  0  0
 43 50  1  6  0  0  0
 43 42  1  0  0  0  0
 43 44  1  0  0  0  0
 44 52  1  0  0  0  0
 44 45  1  0  0  0  0
 45 53  1  0  0  0  0
 46 43  1  0  0  0  0
 47 46  2  0  0  0  0
 48 46  1  0  0  0  0
 51 44  1  0  0  0  0
M  END
$$$$
