YLD.pdb
 OpenBabel07022419213D

 55 55  0  0  1  0  0  0  0  0999 V2000
    0.6400    3.8990    4.4750 O   0  0  0  0  0  0  0  0  0  0  0  0
    1.4080    2.8900    3.8940 C   0  0  0  0  0  0  0  0  0  0  0  0
    1.0750    1.5600    4.0520 C   0  0  0  0  0  0  0  0  0  0  0  0
    1.8440    0.5820    3.4710 C   0  0  0  0  0  0  0  0  0  0  0  0
    2.9590    0.8710    2.7190 C   0  0  0  0  0  0  0  0  0  0  0  0
    3.8020   -0.1490    2.0860 C   0  0  0  0  0  0  0  0  0  0  0  0
    3.3860   -0.4890    0.6950 C   0  0  2  0  0  0  0  0  0  0  0  0
    3.4080    0.6340   -0.2210 N   0  0  0  0  0  0  0  0  0  0  0  0
    2.0760   -1.1580    0.6720 C   0  0  0  0  0  0  0  0  0  0  0  0
    1.8670   -2.1320    1.4330 O   0  0  0  0  0  0  0  0  0  0  0  0
    3.3030    2.2100    2.5540 C   0  0  0  0  0  0  0  0  0  0  0  0
    2.5230    3.1750    3.1420 C   0  0  0  0  0  0  0  0  0  0  0  0
    0.7130    4.0100    5.4740 H   0  0  0  0  0  0  0  0  0  0  0  0
    0.2040    1.3030    4.6400 H   0  0  0  0  0  0  0  0  0  0  0  0
    1.5590   -0.4730    3.6110 H   0  0  0  0  0  0  0  0  0  0  0  0
    3.7710   -1.0680    2.6950 H   0  0  0  0  0  0  0  0  0  0  0  0
    4.8570    0.2250    2.0780 H   0  0  0  0  0  0  0  0  0  0  0  0
    4.1390   -1.2170    0.2970 H   0  0  0  0  0  0  0  0  0  0  0  0
    4.3550    0.9700   -0.4150 H   0  0  0  0  0  0  0  0  0  0  0  0
    2.7330    1.3730   -0.0020 H   0  0  0  0  0  0  0  0  0  0  0  0
    4.1810    2.4880    1.9650 H   0  0  0  0  0  0  0  0  0  0  0  0
    2.7760    4.2250    3.0240 H   0  0  0  0  0  0  0  0  0  0  0  0
   -2.2650    1.3650    1.5190 C   0  0  0  0  0  0  0  0  0  0  0  0
   -1.1520    0.3240    1.3270 C   0  0  0  0  0  0  0  0  0  0  0  0
   -1.3210   -0.6490    2.4760 C   0  0  0  0  0  0  0  0  0  0  0  0
   -1.3120   -0.3750    0.0140 C   0  0  0  0  0  0  0  0  0  0  0  0
   -0.2280   -1.4000   -0.2040 C   0  0  2  0  0  0  0  0  0  0  0  0
    1.0460   -0.7240   -0.1960 N   0  0  0  0  0  0  0  0  0  0  0  0
   -0.5100   -1.9930   -1.5570 C   0  0  0  0  0  0  0  0  0  0  0  0
    0.3500   -1.8230   -2.4510 O   0  0  0  0  0  0  0  0  0  0  0  0
   -2.5120    1.4720    2.6010 H   0  0  0  0  0  0  0  0  0  0  0  0
   -3.1370    0.9940    0.9500 H   0  0  0  0  0  0  0  0  0  0  0  0
   -1.9310    2.3220    1.0660 H   0  0  0  0  0  0  0  0  0  0  0  0
   -0.1760    0.8170    1.4140 H   0  0  0  0  0  0  0  0  0  0  0  0
   -2.3340   -1.0980    2.3960 H   0  0  0  0  0  0  0  0  0  0  0  0
   -1.3010   -0.0870    3.4090 H   0  0  0  0  0  0  0  0  0  0  0  0
   -0.5690   -1.4350    2.4640 H   0  0  0  0  0  0  0  0  0  0  0  0
   -1.1420    0.4140   -0.7780 H   0  0  0  0  0  0  0  0  0  0  0  0
   -2.3220   -0.7770   -0.1510 H   0  0  0  0  0  0  0  0  0  0  0  0
   -0.2790   -2.1930    0.5760 H   0  0  0  0  0  0  0  0  0  0  0  0
    1.2520    0.1010   -0.8220 H   0  0  0  0  0  0  0  0  0  0  0  0
   -1.7170   -2.7240   -1.8040 N   0  0  0  0  0  0  0  0  0  0  0  0
   -1.9210   -3.2600   -3.1100 C   0  0  1  0  0  0  0  0  0  0  0  0
   -2.0730   -4.7610   -3.0610 C   0  0  0  0  0  0  0  0  0  0  0  0
   -3.2450   -5.1020   -2.2330 C   0  0  0  0  0  0  0  0  0  0  0  0
   -3.4990   -6.3010   -1.9480 O   0  0  0  0  0  0  0  0  0  0  0  0
   -3.1500   -2.7380   -3.7630 C   0  0  0  0  0  0  0  0  0  0  0  0
   -3.9250   -1.9200   -3.2360 O   0  0  0  0  0  0  0  0  0  0  0  0
   -4.1030   -4.1360   -1.7410 O   0  0  0  0  0  0  0  0  0  0  0  0
   -3.4190   -3.2170   -5.0470 O   0  0  0  0  0  0  0  0  0  0  0  0
   -2.3880   -2.8190   -0.9930 H   0  0  0  0  0  0  0  0  0  0  0  0
   -1.0660   -2.9860   -3.7680 H   0  0  0  0  0  0  0  0  0  0  0  0
   -1.1390   -5.2420   -2.7000 H   0  0  0  0  0  0  0  0  0  0  0  0
   -2.2090   -5.1210   -4.1090 H   0  0  0  0  0  0  0  0  0  0  0  0
   -4.9530   -4.3380   -1.2590 H   0  0  0  0  0  0  0  0  0  0  0  0
  1 13  1  0  0  0  0
  2  3  1  0  0  0  0
  2  1  1  0  0  0  0
  3 14  1  0  0  0  0
  4 15  1  0  0  0  0
  4  3  2  0  0  0  0
  5  4  1  0  0  0  0
  6 16  1  0  0  0  0
  6  5  1  0  0  0  0
  7 18  1  6  0  0  0
  7  6  1  0  0  0  0
  8 20  1  0  0  0  0
  8  7  1  0  0  0  0
  9  7  1  0  0  0  0
  9 10  2  0  0  0  0
 11  5  2  0  0  0  0
 11 12  1  0  0  0  0
 12  2  2  0  0  0  0
 17  6  1  0  0  0  0
 19  8  1  0  0  0  0
 21 11  1  0  0  0  0
 22 12  1  0  0  0  0
 23 31  1  0  0  0  0
 24 34  1  0  0  0  0
 24 23  1  0  0  0  0
 24 25  1  0  0  0  0
 25 36  1  0  0  0  0
 26 24  1  0  0  0  0
 27 28  1  0  0  0  0
 27 26  1  0  0  0  0
 27 40  1  1  0  0  0
 28  9  1  0  0  0  0
 29 27  1  0  0  0  0
 30 29  2  0  0  0  0
 32 23  1  0  0  0  0
 33 23  1  0  0  0  0
 35 25  1  0  0  0  0
 37 25  1  0  0  0  0
 38 26  1  0  0  0  0
 39 26  1  0  0  0  0
 41 28  1  0  0  0  0
 42 29  1  0  0  0  0
 42 51  1  0  0  0  0
 43 52  1  6  0  0  0
 43 44  1  0  0  0  0
 43 42  1  0  0  0  0
 44 53  1  0  0  0  0
 44 45  1  0  0  0  0
 45 46  2  0  0  0  0
 45 49  1  0  0  0  0
 47 48  1  0  0  0  0
 47 43  1  0  0  0  0
 49 55  1  0  0  0  0
 50 47  2  0  0  0  0
 54 44  1  0  0  0  0
M  END
$$$$
