YLF.pdb
 OpenBabel07022419223D

 62 63  0  0  1  0  0  0  0  0999 V2000
    3.6460   -4.6050    3.5510 O   0  0  0  0  0  0  0  0  0  0  0  0
    3.6500   -3.4810    2.7170 C   0  0  0  0  0  0  0  0  0  0  0  0
    4.7050   -2.5950    2.7210 C   0  0  0  0  0  0  0  0  0  0  0  0
    4.6560   -1.5060    1.8790 C   0  0  0  0  0  0  0  0  0  0  0  0
    3.5800   -1.3010    1.0500 C   0  0  0  0  0  0  0  0  0  0  0  0
    3.6010   -0.1240    0.1830 C   0  0  0  0  0  0  0  0  0  0  0  0
    3.0110    1.1120    0.8010 C   0  0  2  0  0  0  0  0  0  0  0  0
    3.8010    1.3660    2.0140 N   0  0  0  0  0  0  0  0  0  0  0  0
    1.5780    1.0970    1.0330 C   0  0  0  0  0  0  0  0  0  0  0  0
    1.1570    1.0440    2.2130 O   0  0  0  0  0  0  0  0  0  0  0  0
    2.5430   -2.1870    1.0580 C   0  0  0  0  0  0  0  0  0  0  0  0
    2.5690   -3.2820    1.8890 C   0  0  0  0  0  0  0  0  0  0  0  0
    3.3330   -4.4390    4.5020 H   0  0  0  0  0  0  0  0  0  0  0  0
    5.5500   -2.7250    3.3490 H   0  0  0  0  0  0  0  0  0  0  0  0
    5.5130   -0.8110    1.9010 H   0  0  0  0  0  0  0  0  0  0  0  0
    3.0370   -0.3290   -0.7750 H   0  0  0  0  0  0  0  0  0  0  0  0
    4.6460    0.0500   -0.1450 H   0  0  0  0  0  0  0  0  0  0  0  0
    3.2370    1.9980    0.1430 H   0  0  0  0  0  0  0  0  0  0  0  0
    4.7550    1.6910    1.7400 H   0  0  0  0  0  0  0  0  0  0  0  0
    3.3200    2.0090    2.6640 H   0  0  0  0  0  0  0  0  0  0  0  0
    1.6620   -2.0830    0.4230 H   0  0  0  0  0  0  0  0  0  0  0  0
    1.7350   -4.0080    1.9050 H   0  0  0  0  0  0  0  0  0  0  0  0
   -2.9290    4.0660   -1.0060 C   0  0  0  0  0  0  0  0  0  0  0  0
   -2.7950    2.7000   -0.2370 C   0  0  0  0  0  0  0  0  0  0  0  0
   -3.9360    1.9260   -0.7120 C   0  0  0  0  0  0  0  0  0  0  0  0
   -1.4170    2.3210   -0.3150 C   0  0  0  0  0  0  0  0  0  0  0  0
   -0.7920    1.1340    0.2660 C   0  0  2  0  0  0  0  0  0  0  0  0
    0.6620    1.1450   -0.0090 N   0  0  0  0  0  0  0  0  0  0  0  0
   -1.2730   -0.1350   -0.3800 C   0  0  0  0  0  0  0  0  0  0  0  0
   -2.4760   -0.4890   -0.3040 O   0  0  0  0  0  0  0  0  0  0  0  0
   -2.0870    4.7090   -0.7570 H   0  0  0  0  0  0  0  0  0  0  0  0
   -3.9010    4.5240   -0.7250 H   0  0  0  0  0  0  0  0  0  0  0  0
   -2.9920    3.8270   -2.0890 H   0  0  0  0  0  0  0  0  0  0  0  0
   -3.0600    3.0600    0.8140 H   0  0  0  0  0  0  0  0  0  0  0  0
   -4.8040    2.6410   -0.9750 H   0  0  0  0  0  0  0  0  0  0  0  0
   -3.8010    1.3970   -1.6740 H   0  0  0  0  0  0  0  0  0  0  0  0
   -4.4450    1.2350   -0.0180 H   0  0  0  0  0  0  0  0  0  0  0  0
   -0.7900    3.2090    0.0630 H   0  0  0  0  0  0  0  0  0  0  0  0
   -1.0860    2.3230   -1.4190 H   0  0  0  0  0  0  0  0  0  0  0  0
   -0.8500    1.0570    1.3690 H   0  0  0  0  0  0  0  0  0  0  0  0
    0.9330    1.2070   -1.0380 H   0  0  0  0  0  0  0  0  0  0  0  0
   -0.4200   -1.0100   -1.1070 N   0  0  0  0  0  0  0  0  0  0  0  0
   -0.8200   -2.2280   -1.7470 C   0  0  1  0  0  0  0  0  0  0  0  0
   -0.9230   -3.4280   -0.8690 C   0  0  0  0  0  0  0  0  0  0  0  0
   -1.8710   -3.3320    0.2500 C   0  0  0  0  0  0  0  0  0  0  0  0
   -1.3810   -2.8820    1.4780 C   0  0  0  0  0  0  0  0  0  0  0  0
   -2.2230   -2.7730    2.5730 C   0  0  0  0  0  0  0  0  0  0  0  0
   -3.5410   -3.1010    2.4780 C   0  0  0  0  0  0  0  0  0  0  0  0
   -4.0410   -3.5440    1.2850 C   0  0  0  0  0  0  0  0  0  0  0  0
   -3.2000   -3.6470    0.2120 C   0  0  0  0  0  0  0  0  0  0  0  0
   -2.0600   -2.0320   -2.5350 C   0  0  0  0  0  0  0  0  0  0  0  0
   -2.6270   -3.0470   -3.0850 O   0  0  0  0  0  0  0  0  0  0  0  0
   -2.6890   -0.8250   -2.7520 O   0  0  0  0  0  0  0  0  0  0  0  0
    0.6150   -0.7120   -1.1720 H   0  0  0  0  0  0  0  0  0  0  0  0
   -0.0450   -2.4480   -2.5810 H   0  0  0  0  0  0  0  0  0  0  0  0
   -1.2470   -4.3310   -1.4690 H   0  0  0  0  0  0  0  0  0  0  0  0
    0.1070   -3.6970   -0.5040 H   0  0  0  0  0  0  0  0  0  0  0  0
   -0.3550   -2.6210    1.5760 H   0  0  0  0  0  0  0  0  0  0  0  0
   -1.8330   -2.4200    3.5340 H   0  0  0  0  0  0  0  0  0  0  0  0
   -4.1920   -3.0110    3.3450 H   0  0  0  0  0  0  0  0  0  0  0  0
   -5.0870   -3.8010    1.2170 H   0  0  0  0  0  0  0  0  0  0  0  0
   -3.6110   -4.0030   -0.7300 H   0  0  0  0  0  0  0  0  0  0  0  0
  1 13  1  0  0  0  0
  2  3  1  0  0  0  0
  2  1  1  0  0  0  0
  3 14  1  0  0  0  0
  4 15  1  0  0  0  0
  4  3  2  0  0  0  0
  5 11  2  0  0  0  0
  5  4  1  0  0  0  0
  6  7  1  0  0  0  0
  6  5  1  0  0  0  0
  7 18  1  6  0  0  0
  7  9  1  0  0  0  0
  7  8  1  0  0  0  0
  8 20  1  0  0  0  0
  9 10  2  0  0  0  0
 11 12  1  0  0  0  0
 12 22  1  0  0  0  0
 12  2  2  0  0  0  0
 16  6  1  0  0  0  0
 17  6  1  0  0  0  0
 19  8  1  0  0  0  0
 21 11  1  0  0  0  0
 23 31  1  0  0  0  0
 23 32  1  0  0  0  0
 23 24  1  0  0  0  0
 24 34  1  0  0  0  0
 25 24  1  0  0  0  0
 25 37  1  0  0  0  0
 26 24  1  0  0  0  0
 26 38  1  0  0  0  0
 26 27  1  0  0  0  0
 27 40  1  1  0  0  0
 28 27  1  0  0  0  0
 28  9  1  0  0  0  0
 29 30  2  0  0  0  0
 29 27  1  0  0  0  0
 33 23  1  0  0  0  0
 35 25  1  0  0  0  0
 36 25  1  0  0  0  0
 39 26  1  0  0  0  0
 41 28  1  0  0  0  0
 42 29  1  0  0  0  0
 43 55  1  6  0  0  0
 43 42  1  0  0  0  0
 43 44  1  0  0  0  0
 44 57  1  0  0  0  0
 44 45  1  0  0  0  0
 45 46  1  0  0  0  0
 46 58  1  0  0  0  0
 46 47  2  0  0  0  0
 47 59  1  0  0  0  0
 48 47  1  0  0  0  0
 48 60  1  0  0  0  0
 49 48  2  0  0  0  0
 50 45  2  0  0  0  0
 50 49  1  0  0  0  0
 51 43  1  0  0  0  0
 52 51  2  0  0  0  0
 53 51  1  0  0  0  0
 54 42  1  0  0  0  0
 56 44  1  0  0  0  0
 61 49  1  0  0  0  0
 62 50  1  0  0  0  0
M  END
$$$$
