YLK.pdb
 OpenBabel07022419223D

 63 63  0  0  1  0  0  0  0  0999 V2000
    3.4880    2.3910    6.8400 O   0  0  0  0  0  0  0  0  0  0  0  0
    3.6770    1.6610    5.6800 C   0  0  0  0  0  0  0  0  0  0  0  0
    4.1350    0.3760    5.6780 C   0  0  0  0  0  0  0  0  0  0  0  0
    4.3100   -0.3140    4.5210 C   0  0  0  0  0  0  0  0  0  0  0  0
    4.0390    0.2340    3.2740 C   0  0  0  0  0  0  0  0  0  0  0  0
    4.2770   -0.5690    2.0590 C   0  0  0  0  0  0  0  0  0  0  0  0
    3.0760   -1.4250    1.7710 C   0  0  2  0  0  0  0  0  0  0  0  0
    3.2960   -2.2280    0.5680 N   0  0  0  0  0  0  0  0  0  0  0  0
    1.8900   -0.5510    1.6010 C   0  0  0  0  0  0  0  0  0  0  0  0
    1.3840    0.1390    2.5210 O   0  0  0  0  0  0  0  0  0  0  0  0
    3.5760    1.5340    3.2750 C   0  0  0  0  0  0  0  0  0  0  0  0
    3.4000    2.2280    4.4500 C   0  0  0  0  0  0  0  0  0  0  0  0
    2.8250    1.9990    7.5150 H   0  0  0  0  0  0  0  0  0  0  0  0
    4.3590   -0.0870    6.6390 H   0  0  0  0  0  0  0  0  0  0  0  0
    4.6750   -1.3350    4.5390 H   0  0  0  0  0  0  0  0  0  0  0  0
    5.1530   -1.2300    2.2430 H   0  0  0  0  0  0  0  0  0  0  0  0
    4.4830    0.1500    1.2380 H   0  0  0  0  0  0  0  0  0  0  0  0
    2.9610   -2.1290    2.6240 H   0  0  0  0  0  0  0  0  0  0  0  0
    4.2540   -2.6010    0.6320 H   0  0  0  0  0  0  0  0  0  0  0  0
    2.6340   -3.0190    0.6140 H   0  0  0  0  0  0  0  0  0  0  0  0
    3.3530    2.0120    2.3280 H   0  0  0  0  0  0  0  0  0  0  0  0
    3.0320    3.2630    4.4560 H   0  0  0  0  0  0  0  0  0  0  0  0
   -1.2200    3.2910    0.0710 C   0  0  0  0  0  0  0  0  0  0  0  0
   -0.7060    2.5090   -1.1210 C   0  0  0  0  0  0  0  0  0  0  0  0
   -1.8050    2.1190   -2.0310 C   0  0  0  0  0  0  0  0  0  0  0  0
    0.3360    1.5140   -0.8040 C   0  0  0  0  0  0  0  0  0  0  0  0
    0.0400    0.4390    0.1690 C   0  0  2  0  0  0  0  0  0  0  0  0
    1.2260   -0.4380    0.3280 N   0  0  0  0  0  0  0  0  0  0  0  0
   -1.1220   -0.4240   -0.1210 C   0  0  0  0  0  0  0  0  0  0  0  0
   -2.3100   -0.0380   -0.2250 O   0  0  0  0  0  0  0  0  0  0  0  0
   -1.9960    3.9880   -0.3150 H   0  0  0  0  0  0  0  0  0  0  0  0
   -0.4250    3.9300    0.5090 H   0  0  0  0  0  0  0  0  0  0  0  0
   -1.6510    2.6640    0.8540 H   0  0  0  0  0  0  0  0  0  0  0  0
   -0.1270    3.3310   -1.7090 H   0  0  0  0  0  0  0  0  0  0  0  0
   -1.5970    1.1560   -2.5220 H   0  0  0  0  0  0  0  0  0  0  0  0
   -2.8190    2.2080   -1.5840 H   0  0  0  0  0  0  0  0  0  0  0  0
   -1.8670    2.8470   -2.9090 H   0  0  0  0  0  0  0  0  0  0  0  0
    0.6680    1.0750   -1.8010 H   0  0  0  0  0  0  0  0  0  0  0  0
    1.2410    2.0770   -0.4560 H   0  0  0  0  0  0  0  0  0  0  0  0
   -0.1690    0.9220    1.1580 H   0  0  0  0  0  0  0  0  0  0  0  0
    1.6160   -0.9940   -0.4550 H   0  0  0  0  0  0  0  0  0  0  0  0
   -0.9430   -1.8450   -0.3110 N   0  0  0  0  0  0  0  0  0  0  0  0
   -2.0800   -2.7130   -0.5970 C   0  0  1  0  0  0  0  0  0  0  0  0
   -1.9230   -3.3220   -1.9530 C   0  0  0  0  0  0  0  0  0  0  0  0
   -3.0470   -4.2220   -2.3260 C   0  0  0  0  0  0  0  0  0  0  0  0
   -4.3870   -3.5330   -2.3420 C   0  0  0  0  0  0  0  0  0  0  0  0
   -4.4230   -2.3870   -3.3300 C   0  0  0  0  0  0  0  0  0  0  0  0
   -5.7430   -1.7860   -3.2780 N   0  0  0  0  0  0  0  0  0  0  0  0
   -2.2820   -3.6930    0.4890 C   0  0  0  0  0  0  0  0  0  0  0  0
   -1.4650   -3.6740    1.4700 O   0  0  0  0  0  0  0  0  0  0  0  0
   -3.2790   -4.6320    0.5420 O   0  0  0  0  0  0  0  0  0  0  0  0
    0.0080   -2.2460   -0.2420 H   0  0  0  0  0  0  0  0  0  0  0  0
   -2.9770   -2.0720   -0.6280 H   0  0  0  0  0  0  0  0  0  0  0  0
   -0.9830   -3.9400   -2.0020 H   0  0  0  0  0  0  0  0  0  0  0  0
   -1.7770   -2.5190   -2.6910 H   0  0  0  0  0  0  0  0  0  0  0  0
   -2.8850   -4.6100   -3.3700 H   0  0  0  0  0  0  0  0  0  0  0  0
   -3.1140   -5.1110   -1.6990 H   0  0  0  0  0  0  0  0  0  0  0  0
   -5.1370   -4.2850   -2.6730 H   0  0  0  0  0  0  0  0  0  0  0  0
   -4.6990   -3.1940   -1.3360 H   0  0  0  0  0  0  0  0  0  0  0  0
   -4.2800   -2.7720   -4.3600 H   0  0  0  0  0  0  0  0  0  0  0  0
   -3.6170   -1.6530   -3.1480 H   0  0  0  0  0  0  0  0  0  0  0  0
   -6.3110   -2.1400   -2.4780 H   0  0  0  0  0  0  0  0  0  0  0  0
   -5.5960   -0.7670   -3.1010 H   0  0  0  0  0  0  0  0  0  0  0  0
  1 13  1  0  0  0  0
  2  1  1  0  0  0  0
  3  2  1  0  0  0  0
  3 14  1  0  0  0  0
  4 15  1  0  0  0  0
  4  3  2  0  0  0  0
  5 11  2  0  0  0  0
  5  4  1  0  0  0  0
  6 16  1  0  0  0  0
  6  5  1  0  0  0  0
  7  6  1  0  0  0  0
  7 18  1  1  0  0  0
  8 20  1  0  0  0  0
  8 19  1  0  0  0  0
  8  7  1  0  0  0  0
  9  7  1  0  0  0  0
  9 10  2  0  0  0  0
 11 12  1  0  0  0  0
 12 22  1  0  0  0  0
 12  2  2  0  0  0  0
 17  6  1  0  0  0  0
 21 11  1  0  0  0  0
 23 32  1  0  0  0  0
 23 33  1  0  0  0  0
 24 26  1  0  0  0  0
 24 23  1  0  0  0  0
 25 36  1  0  0  0  0
 25 24  1  0  0  0  0
 26 39  1  0  0  0  0
 26 27  1  0  0  0  0
 27 28  1  0  0  0  0
 27 40  1  1  0  0  0
 28  9  1  0  0  0  0
 29 27  1  0  0  0  0
 30 29  2  0  0  0  0
 31 23  1  0  0  0  0
 34 24  1  0  0  0  0
 35 25  1  0  0  0  0
 37 25  1  0  0  0  0
 38 26  1  0  0  0  0
 41 28  1  0  0  0  0
 42 52  1  0  0  0  0
 42 29  1  0  0  0  0
 43 53  1  6  0  0  0
 43 42  1  0  0  0  0
 43 49  1  0  0  0  0
 44 43  1  0  0  0  0
 45 44  1  0  0  0  0
 45 57  1  0  0  0  0
 46 45  1  0  0  0  0
 46 59  1  0  0  0  0
 47 48  1  0  0  0  0
 47 61  1  0  0  0  0
 47 46  1  0  0  0  0
 48 63  1  0  0  0  0
 48 62  1  0  0  0  0
 49 51  2  0  0  0  0
 49 50  1  0  0  0  0
 54 44  1  0  0  0  0
 55 44  1  0  0  0  0
 56 45  1  0  0  0  0
 58 46  1  0  0  0  0
 60 47  1  0  0  0  0
M  END
$$$$
