YLL.pdb
 OpenBabel07022419223D

 61 61  0  0  1  0  0  0  0  0999 V2000
    1.2670    3.8240    6.0340 O   0  0  0  0  0  0  0  0  0  0  0  0
    1.6340    2.8940    5.0720 C   0  0  0  0  0  0  0  0  0  0  0  0
    2.1780    1.6740    5.4340 C   0  0  0  0  0  0  0  0  0  0  0  0
    2.5300    0.7760    4.4570 C   0  0  0  0  0  0  0  0  0  0  0  0
    2.3560    1.0540    3.1140 C   0  0  0  0  0  0  0  0  0  0  0  0
    2.7750    0.0460    2.1230 C   0  0  0  0  0  0  0  0  0  0  0  0
    1.7270   -0.9940    1.8100 C   0  0  2  0  0  0  0  0  0  0  0  0
    2.2190   -1.9470    0.8270 N   0  0  0  0  0  0  0  0  0  0  0  0
    0.5140   -0.3000    1.3150 C   0  0  0  0  0  0  0  0  0  0  0  0
   -0.1160    0.4970    2.0420 O   0  0  0  0  0  0  0  0  0  0  0  0
    1.8110    2.2800    2.7920 C   0  0  0  0  0  0  0  0  0  0  0  0
    1.4470    3.2020    3.7470 C   0  0  0  0  0  0  0  0  0  0  0  0
    1.2050    3.6000    7.0200 H   0  0  0  0  0  0  0  0  0  0  0  0
    2.3200    1.4450    6.4930 H   0  0  0  0  0  0  0  0  0  0  0  0
    2.9530   -0.1650    4.7930 H   0  0  0  0  0  0  0  0  0  0  0  0
    3.7420   -0.4340    2.3840 H   0  0  0  0  0  0  0  0  0  0  0  0
    2.9780    0.6220    1.1750 H   0  0  0  0  0  0  0  0  0  0  0  0
    1.5490   -1.5650    2.7370 H   0  0  0  0  0  0  0  0  0  0  0  0
    2.8410   -1.4250    0.1690 H   0  0  0  0  0  0  0  0  0  0  0  0
    2.7630   -2.6950    1.3250 H   0  0  0  0  0  0  0  0  0  0  0  0
    1.6590    2.5460    1.7520 H   0  0  0  0  0  0  0  0  0  0  0  0
    1.0160    4.1730    3.5020 H   0  0  0  0  0  0  0  0  0  0  0  0
    0.2880    2.7230   -2.9660 C   0  0  0  0  0  0  0  0  0  0  0  0
    0.1220    2.0090   -1.6190 C   0  0  0  0  0  0  0  0  0  0  0  0
   -0.2880    3.1090   -0.6350 C   0  0  0  0  0  0  0  0  0  0  0  0
   -0.9330    0.9530   -1.7360 C   0  0  0  0  0  0  0  0  0  0  0  0
   -1.1700    0.1800   -0.4620 C   0  0  2  0  0  0  0  0  0  0  0  0
    0.0110   -0.5100   -0.0090 N   0  0  0  0  0  0  0  0  0  0  0  0
   -2.2750   -0.7900   -0.6690 C   0  0  0  0  0  0  0  0  0  0  0  0
   -3.3740   -0.3830   -1.0590 O   0  0  0  0  0  0  0  0  0  0  0  0
   -0.5170    3.4440   -3.1530 H   0  0  0  0  0  0  0  0  0  0  0  0
    1.2570    3.2510   -3.0150 H   0  0  0  0  0  0  0  0  0  0  0  0
    0.3170    1.9680   -3.7930 H   0  0  0  0  0  0  0  0  0  0  0  0
    1.1060    1.6470   -1.2690 H   0  0  0  0  0  0  0  0  0  0  0  0
   -1.2560    3.5620   -0.9300 H   0  0  0  0  0  0  0  0  0  0  0  0
    0.5570    3.8510   -0.6670 H   0  0  0  0  0  0  0  0  0  0  0  0
   -0.2930    2.6500    0.3670 H   0  0  0  0  0  0  0  0  0  0  0  0
   -1.8720    1.4870   -2.0460 H   0  0  0  0  0  0  0  0  0  0  0  0
   -0.7070    0.2680   -2.5760 H   0  0  0  0  0  0  0  0  0  0  0  0
   -1.5510    0.9010    0.2910 H   0  0  0  0  0  0  0  0  0  0  0  0
    0.5520   -1.1790   -0.5970 H   0  0  0  0  0  0  0  0  0  0  0  0
   -1.3920   -5.7940   -0.3920 C   0  0  0  0  0  0  0  0  0  0  0  0
   -1.5160   -4.9280   -1.6220 C   0  0  0  0  0  0  0  0  0  0  0  0
   -0.2590   -4.1450   -1.8520 C   0  0  0  0  0  0  0  0  0  0  0  0
   -2.7770   -4.1470   -1.6980 C   0  0  0  0  0  0  0  0  0  0  0  0
   -3.0370   -3.1880   -0.5810 C   0  0  2  0  0  0  0  0  0  0  0  0
   -2.0440   -2.1650   -0.4150 N   0  0  0  0  0  0  0  0  0  0  0  0
   -3.4000   -3.8580    0.6820 C   0  0  0  0  0  0  0  0  0  0  0  0
   -2.9030   -3.5850    1.8030 O   0  0  0  0  0  0  0  0  0  0  0  0
   -4.3540   -4.8610    0.6450 O   0  0  0  0  0  0  0  0  0  0  0  0
   -0.5370   -6.5200   -0.5340 H   0  0  0  0  0  0  0  0  0  0  0  0
   -1.1090   -5.2090    0.5060 H   0  0  0  0  0  0  0  0  0  0  0  0
   -2.2640   -6.4170   -0.2050 H   0  0  0  0  0  0  0  0  0  0  0  0
   -1.5640   -5.6690   -2.4820 H   0  0  0  0  0  0  0  0  0  0  0  0
    0.3710   -4.1100   -0.9240 H   0  0  0  0  0  0  0  0  0  0  0  0
   -0.4340   -3.1330   -2.2710 H   0  0  0  0  0  0  0  0  0  0  0  0
    0.4260   -4.6380   -2.6010 H   0  0  0  0  0  0  0  0  0  0  0  0
   -3.6620   -4.8260   -1.7630 H   0  0  0  0  0  0  0  0  0  0  0  0
   -2.7740   -3.6290   -2.7000 H   0  0  0  0  0  0  0  0  0  0  0  0
   -3.9770   -2.6310   -0.8960 H   0  0  0  0  0  0  0  0  0  0  0  0
   -1.1090   -2.4370   -0.0890 H   0  0  0  0  0  0  0  0  0  0  0  0
  1 13  1  0  0  0  0
  2  3  1  0  0  0  0
  2  1  1  0  0  0  0
  3 14  1  0  0  0  0
  4 15  1  0  0  0  0
  4  3  2  0  0  0  0
  5  4  1  0  0  0  0
  6 16  1  0  0  0  0
  6  5  1  0  0  0  0
  7  6  1  0  0  0  0
  7 18  1  1  0  0  0
  8 20  1  0  0  0  0
  8  7  1  0  0  0  0
  9  7  1  0  0  0  0
  9 10  2  0  0  0  0
 11  5  2  0  0  0  0
 11 12  1  0  0  0  0
 12  2  2  0  0  0  0
 17  6  1  0  0  0  0
 19  8  1  0  0  0  0
 21 11  1  0  0  0  0
 22 12  1  0  0  0  0
 23 24  1  0  0  0  0
 24 34  1  0  0  0  0
 24 25  1  0  0  0  0
 25 37  1  0  0  0  0
 26 24  1  0  0  0  0
 26 27  1  0  0  0  0
 27 28  1  0  0  0  0
 27 40  1  1  0  0  0
 28  9  1  0  0  0  0
 29 27  1  0  0  0  0
 29 47  1  0  0  0  0
 30 29  2  0  0  0  0
 31 23  1  0  0  0  0
 32 23  1  0  0  0  0
 33 23  1  0  0  0  0
 35 25  1  0  0  0  0
 36 25  1  0  0  0  0
 38 26  1  0  0  0  0
 39 26  1  0  0  0  0
 41 28  1  0  0  0  0
 42 53  1  0  0  0  0
 42 52  1  0  0  0  0
 43 42  1  0  0  0  0
 44 43  1  0  0  0  0
 44 55  1  0  0  0  0
 45 43  1  0  0  0  0
 45 46  1  0  0  0  0
 46 60  1  6  0  0  0
 46 47  1  0  0  0  0
 46 48  1  0  0  0  0
 47 61  1  0  0  0  0
 48 49  1  0  0  0  0
 50 48  2  0  0  0  0
 51 42  1  0  0  0  0
 54 43  1  0  0  0  0
 56 44  1  0  0  0  0
 57 44  1  0  0  0  0
 58 45  1  0  0  0  0
 59 45  1  0  0  0  0
M  END
$$$$
