YLN.pdb
 OpenBabel07022419213D

 56 56  0  0  1  0  0  0  0  0999 V2000
    7.9530   -1.2120    1.7570 O   0  0  0  0  0  0  0  0  0  0  0  0
    6.6770   -0.9850    1.2510 C   0  0  0  0  0  0  0  0  0  0  0  0
    5.7240   -1.9880    1.2800 C   0  0  0  0  0  0  0  0  0  0  0  0
    4.4430   -1.8000    0.7860 C   0  0  0  0  0  0  0  0  0  0  0  0
    4.0720   -0.5850    0.2400 C   0  0  0  0  0  0  0  0  0  0  0  0
    2.6890   -0.4210   -0.2790 C   0  0  0  0  0  0  0  0  0  0  0  0
    1.8280    0.0730    0.8300 C   0  0  2  0  0  0  0  0  0  0  0  0
    1.7700   -0.8070    1.9620 N   0  0  0  0  0  0  0  0  0  0  0  0
    0.4430    0.3900    0.3380 C   0  0  0  0  0  0  0  0  0  0  0  0
    0.3060    1.1420   -0.6410 O   0  0  0  0  0  0  0  0  0  0  0  0
    5.0190    0.4170    0.2090 C   0  0  0  0  0  0  0  0  0  0  0  0
    6.2940    0.2260    0.7030 C   0  0  0  0  0  0  0  0  0  0  0  0
    8.1210   -1.3650    2.7450 H   0  0  0  0  0  0  0  0  0  0  0  0
    6.0270   -2.9450    1.7140 H   0  0  0  0  0  0  0  0  0  0  0  0
    3.7010   -2.6040    0.8160 H   0  0  0  0  0  0  0  0  0  0  0  0
    2.3520   -1.3850   -0.7050 H   0  0  0  0  0  0  0  0  0  0  0  0
    2.6430    0.3210   -1.1060 H   0  0  0  0  0  0  0  0  0  0  0  0
    2.2490    1.0400    1.1850 H   0  0  0  0  0  0  0  0  0  0  0  0
    1.4010   -1.7400    1.7500 H   0  0  0  0  0  0  0  0  0  0  0  0
    1.3590   -0.3360    2.7840 H   0  0  0  0  0  0  0  0  0  0  0  0
    4.7290    1.3830   -0.2230 H   0  0  0  0  0  0  0  0  0  0  0  0
    7.0500    1.0180    0.6810 H   0  0  0  0  0  0  0  0  0  0  0  0
   -2.5620    3.7060   -0.3580 C   0  0  0  0  0  0  0  0  0  0  0  0
   -2.1360    2.5800    0.6010 C   0  0  0  0  0  0  0  0  0  0  0  0
   -2.9770    2.7100    1.8660 C   0  0  0  0  0  0  0  0  0  0  0  0
   -2.4290    1.2890   -0.1170 C   0  0  0  0  0  0  0  0  0  0  0  0
   -2.0620    0.0470    0.6660 C   0  0  2  0  0  0  0  0  0  0  0  0
   -0.6970   -0.1530    0.9720 N   0  0  0  0  0  0  0  0  0  0  0  0
   -2.8590   -1.1410    0.3370 C   0  0  0  0  0  0  0  0  0  0  0  0
   -4.0920   -1.0200    0.0540 O   0  0  0  0  0  0  0  0  0  0  0  0
   -3.5200    3.4520   -0.8570 H   0  0  0  0  0  0  0  0  0  0  0  0
   -2.6860    4.6040    0.2680 H   0  0  0  0  0  0  0  0  0  0  0  0
   -1.7720    3.8970   -1.1160 H   0  0  0  0  0  0  0  0  0  0  0  0
   -1.0840    2.6880    0.8240 H   0  0  0  0  0  0  0  0  0  0  0  0
   -3.2110    3.7880    1.9890 H   0  0  0  0  0  0  0  0  0  0  0  0
   -2.3150    2.4340    2.7120 H   0  0  0  0  0  0  0  0  0  0  0  0
   -3.8740    2.0750    1.8310 H   0  0  0  0  0  0  0  0  0  0  0  0
   -3.5390    1.1880   -0.3040 H   0  0  0  0  0  0  0  0  0  0  0  0
   -1.9720    1.3480   -1.1010 H   0  0  0  0  0  0  0  0  0  0  0  0
   -2.5010    0.3900    1.7070 H   0  0  0  0  0  0  0  0  0  0  0  0
   -0.4440   -0.7980    1.7920 H   0  0  0  0  0  0  0  0  0  0  0  0
   -3.5730   -3.7690   -3.3970 N   0  0  0  0  0  0  0  0  0  0  0  0
   -2.6310   -3.5470   -2.3700 C   0  0  0  0  0  0  0  0  0  0  0  0
   -1.8130   -2.5870   -2.5170 O   0  0  0  0  0  0  0  0  0  0  0  0
   -2.6260   -4.4170   -1.1800 C   0  0  0  0  0  0  0  0  0  0  0  0
   -3.1280   -3.6240   -0.0130 C   0  0  2  0  0  0  0  0  0  0  0  0
   -2.3600   -2.4680    0.3050 N   0  0  0  0  0  0  0  0  0  0  0  0
   -3.1420   -4.5120    1.1820 C   0  0  0  0  0  0  0  0  0  0  0  0
   -3.7750   -5.6090    1.1280 O   0  0  0  0  0  0  0  0  0  0  0  0
   -2.4920   -4.1990    2.3630 O   0  0  0  0  0  0  0  0  0  0  0  0
   -4.3710   -4.4220   -3.2720 H   0  0  0  0  0  0  0  0  0  0  0  0
   -3.4780   -3.2760   -4.3020 H   0  0  0  0  0  0  0  0  0  0  0  0
   -3.3340   -5.2490   -1.3570 H   0  0  0  0  0  0  0  0  0  0  0  0
   -1.6410   -4.8920   -0.9960 H   0  0  0  0  0  0  0  0  0  0  0  0
   -4.1680   -3.3130   -0.2340 H   0  0  0  0  0  0  0  0  0  0  0  0
   -1.3510   -2.6000    0.5320 H   0  0  0  0  0  0  0  0  0  0  0  0
  1 13  1  0  0  0  0
  2  3  1  0  0  0  0
  2  1  1  0  0  0  0
  3 14  1  0  0  0  0
  4 15  1  0  0  0  0
  4  3  2  0  0  0  0
  5  4  1  0  0  0  0
  6  5  1  0  0  0  0
  6  7  1  0  0  0  0
  7 18  1  1  0  0  0
  7  8  1  0  0  0  0
  8 20  1  0  0  0  0
  9  7  1  0  0  0  0
  9 28  1  0  0  0  0
 10  9  2  0  0  0  0
 11  5  2  0  0  0  0
 11 12  1  0  0  0  0
 12  2  2  0  0  0  0
 16  6  1  0  0  0  0
 17  6  1  0  0  0  0
 19  8  1  0  0  0  0
 21 11  1  0  0  0  0
 22 12  1  0  0  0  0
 23 32  1  0  0  0  0
 23 24  1  0  0  0  0
 24 34  1  0  0  0  0
 24 25  1  0  0  0  0
 25 35  1  0  0  0  0
 25 36  1  0  0  0  0
 26 24  1  0  0  0  0
 26 27  1  0  0  0  0
 27 28  1  0  0  0  0
 27 40  1  1  0  0  0
 28 41  1  0  0  0  0
 29 27  1  0  0  0  0
 30 29  2  0  0  0  0
 31 23  1  0  0  0  0
 33 23  1  0  0  0  0
 37 25  1  0  0  0  0
 38 26  1  0  0  0  0
 39 26  1  0  0  0  0
 42 51  1  0  0  0  0
 42 43  1  0  0  0  0
 43 45  1  0  0  0  0
 44 43  2  0  0  0  0
 45 54  1  0  0  0  0
 45 46  1  0  0  0  0
 46 55  1  6  0  0  0
 46 47  1  0  0  0  0
 46 48  1  0  0  0  0
 47 29  1  0  0  0  0
 47 56  1  0  0  0  0
 48 50  1  0  0  0  0
 49 48  2  0  0  0  0
 52 42  1  0  0  0  0
 53 45  1  0  0  0  0
M  END
$$$$
