YLP.pdb
 OpenBabel07022419223D

 56 57  0  0  1  0  0  0  0  0999 V2000
    1.0160   -2.6680    6.1000 O   0  0  0  0  0  0  0  0  0  0  0  0
    1.6010   -2.0340    5.0170 C   0  0  0  0  0  0  0  0  0  0  0  0
    2.6140   -2.6170    4.2840 C   0  0  0  0  0  0  0  0  0  0  0  0
    3.2120   -2.0180    3.2110 C   0  0  0  0  0  0  0  0  0  0  0  0
    2.8090   -0.7360    2.7900 C   0  0  0  0  0  0  0  0  0  0  0  0
    3.5140   -0.1010    1.6620 C   0  0  0  0  0  0  0  0  0  0  0  0
    3.1910   -0.5000    0.2950 C   0  0  2  0  0  0  0  0  0  0  0  0
    4.1010    0.3060   -0.5740 N   0  0  0  0  0  0  0  0  0  0  0  0
    1.8570   -0.3320   -0.2660 C   0  0  0  0  0  0  0  0  0  0  0  0
    1.7820    0.2690   -1.4070 O   0  0  0  0  0  0  0  0  0  0  0  0
    1.8030   -0.1540    3.5170 C   0  0  0  0  0  0  0  0  0  0  0  0
    1.2170   -0.7760    4.5930 C   0  0  0  0  0  0  0  0  0  0  0  0
    0.5900   -2.1950    6.8700 H   0  0  0  0  0  0  0  0  0  0  0  0
    2.9200   -3.6170    4.6220 H   0  0  0  0  0  0  0  0  0  0  0  0
    4.0000   -2.4860    2.6490 H   0  0  0  0  0  0  0  0  0  0  0  0
    4.6240   -0.2280    1.8390 H   0  0  0  0  0  0  0  0  0  0  0  0
    3.4000    1.0290    1.7190 H   0  0  0  0  0  0  0  0  0  0  0  0
    3.5270   -1.5540    0.0470 H   0  0  0  0  0  0  0  0  0  0  0  0
    5.0670    0.0030   -0.2770 H   0  0  0  0  0  0  0  0  0  0  0  0
    3.9500    1.2850   -0.2700 H   0  0  0  0  0  0  0  0  0  0  0  0
    1.4660    0.8270    3.2530 H   0  0  0  0  0  0  0  0  0  0  0  0
    0.4110   -0.3110    5.1760 H   0  0  0  0  0  0  0  0  0  0  0  0
    0.3280    2.3350    0.4930 C   0  0  0  0  0  0  0  0  0  0  0  0
   -0.9360    1.9000   -0.1410 C   0  0  0  0  0  0  0  0  0  0  0  0
   -2.0870    2.0360    0.8700 C   0  0  0  0  0  0  0  0  0  0  0  0
   -1.0030    0.6500   -0.8990 C   0  0  0  0  0  0  0  0  0  0  0  0
   -0.7010   -0.6260   -0.2190 C   0  0  2  0  0  0  0  0  0  0  0  0
    0.6320   -0.7410    0.2610 N   0  0  0  0  0  0  0  0  0  0  0  0
   -1.0130   -1.7930   -1.0890 C   0  0  0  0  0  0  0  0  0  0  0  0
   -0.0210   -2.4270   -1.5190 O   0  0  0  0  0  0  0  0  0  0  0  0
    1.1060    2.6160   -0.2770 H   0  0  0  0  0  0  0  0  0  0  0  0
    0.1470    3.3460    1.0020 H   0  0  0  0  0  0  0  0  0  0  0  0
    0.7020    1.7100    1.2930 H   0  0  0  0  0  0  0  0  0  0  0  0
   -1.1890    2.7320   -0.8910 H   0  0  0  0  0  0  0  0  0  0  0  0
   -1.9200    1.3870    1.7430 H   0  0  0  0  0  0  0  0  0  0  0  0
   -2.0830    3.0810    1.2440 H   0  0  0  0  0  0  0  0  0  0  0  0
   -3.0570    1.8400    0.4150 H   0  0  0  0  0  0  0  0  0  0  0  0
   -0.2910    0.7700   -1.7870 H   0  0  0  0  0  0  0  0  0  0  0  0
   -2.0120    0.6050   -1.4270 H   0  0  0  0  0  0  0  0  0  0  0  0
   -1.4440   -0.6570    0.6620 H   0  0  0  0  0  0  0  0  0  0  0  0
    0.7100   -1.2530    1.1950 H   0  0  0  0  0  0  0  0  0  0  0  0
   -2.2990   -2.1850   -1.4240 N   0  0  0  0  0  0  0  0  0  0  0  0
   -3.5100   -1.5330   -0.8610 C   0  0  0  0  0  0  0  0  0  0  0  0
   -4.2460   -1.2240   -2.1300 C   0  0  0  0  0  0  0  0  0  0  0  0
   -3.7370   -2.2260   -3.1690 C   0  0  0  0  0  0  0  0  0  0  0  0
   -2.8900   -3.1530   -2.2790 C   0  0  1  0  0  0  0  0  0  0  0  0
   -2.1130   -4.0850   -3.0280 C   0  0  0  0  0  0  0  0  0  0  0  0
   -2.7460   -4.9170   -3.7760 O   0  0  0  0  0  0  0  0  0  0  0  0
   -0.7600   -4.1940   -3.0380 O   0  0  0  0  0  0  0  0  0  0  0  0
   -4.0340   -2.4100   -0.3630 H   0  0  0  0  0  0  0  0  0  0  0  0
   -3.3140   -0.7350   -0.1790 H   0  0  0  0  0  0  0  0  0  0  0  0
   -5.3430   -1.3700   -1.9890 H   0  0  0  0  0  0  0  0  0  0  0  0
   -3.9990   -0.1940   -2.4370 H   0  0  0  0  0  0  0  0  0  0  0  0
   -4.5410   -2.7590   -3.6750 H   0  0  0  0  0  0  0  0  0  0  0  0
   -3.0190   -1.7290   -3.8490 H   0  0  0  0  0  0  0  0  0  0  0  0
   -3.6990   -3.6700   -1.6490 H   0  0  0  0  0  0  0  0  0  0  0  0
  1 13  1  0  0  0  0
  2  1  1  0  0  0  0
  3 14  1  0  0  0  0
  3  2  2  0  0  0  0
  4  3  1  0  0  0  0
  5  4  2  0  0  0  0
  5 11  1  0  0  0  0
  6 17  1  0  0  0  0
  6 16  1  0  0  0  0
  6  5  1  0  0  0  0
  7 18  1  6  0  0  0
  7  6  1  0  0  0  0
  8 19  1  0  0  0  0
  8 20  1  0  0  0  0
  8  7  1  0  0  0  0
  9 28  1  0  0  0  0
  9  7  1  0  0  0  0
 10  9  2  0  0  0  0
 11 12  2  0  0  0  0
 12  2  1  0  0  0  0
 12 22  1  0  0  0  0
 15  4  1  0  0  0  0
 21 11  1  0  0  0  0
 23 32  1  0  0  0  0
 23 33  1  0  0  0  0
 24 23  1  0  0  0  0
 24 25  1  0  0  0  0
 25 36  1  0  0  0  0
 25 35  1  0  0  0  0
 26 27  1  0  0  0  0
 26 24  1  0  0  0  0
 27 28  1  0  0  0  0
 27 40  1  1  0  0  0
 28 41  1  0  0  0  0
 29 27  1  0  0  0  0
 30 29  2  0  0  0  0
 31 23  1  0  0  0  0
 34 24  1  0  0  0  0
 37 25  1  0  0  0  0
 38 26  1  0  0  0  0
 39 26  1  0  0  0  0
 42 29  1  0  0  0  0
 42 43  1  0  0  0  0
 43 50  1  0  0  0  0
 43 51  1  0  0  0  0
 44 52  1  0  0  0  0
 44 43  1  0  0  0  0
 45 46  1  0  0  0  0
 45 44  1  0  0  0  0
 46 56  1  1  0  0  0
 46 42  1  0  0  0  0
 47 46  1  0  0  0  0
 48 47  2  0  0  0  0
 49 47  1  0  0  0  0
 53 44  1  0  0  0  0
 54 45  1  0  0  0  0
 55 45  1  0  0  0  0
M  END
$$$$
