YLQ.pdb
 OpenBabel07022419223D

 59 59  0  0  1  0  0  0  0  0999 V2000
    4.0200   -3.3110    4.7640 O   0  0  0  0  0  0  0  0  0  0  0  0
    3.9260   -2.4590    3.6540 C   0  0  0  0  0  0  0  0  0  0  0  0
    2.7140   -2.4030    2.9710 C   0  0  0  0  0  0  0  0  0  0  0  0
    2.6390   -1.5610    1.8830 C   0  0  0  0  0  0  0  0  0  0  0  0
    3.7220   -0.8060    1.4890 C   0  0  0  0  0  0  0  0  0  0  0  0
    3.6200    0.0980    0.2960 C   0  0  0  0  0  0  0  0  0  0  0  0
    3.0810    1.4600    0.7310 C   0  0  2  0  0  0  0  0  0  0  0  0
    4.0030    2.0030    1.7190 N   0  0  0  0  0  0  0  0  0  0  0  0
    1.6990    1.3210    1.2610 C   0  0  0  0  0  0  0  0  0  0  0  0
    1.5170    1.4940    2.4730 O   0  0  0  0  0  0  0  0  0  0  0  0
    4.9230   -0.8620    2.1660 C   0  0  0  0  0  0  0  0  0  0  0  0
    5.0040   -1.7020    3.2550 C   0  0  0  0  0  0  0  0  0  0  0  0
    4.2290   -2.9580    5.6940 H   0  0  0  0  0  0  0  0  0  0  0  0
    1.8960   -3.0120    3.3180 H   0  0  0  0  0  0  0  0  0  0  0  0
    1.6970   -1.5200    1.3650 H   0  0  0  0  0  0  0  0  0  0  0  0
    4.6180    0.2200   -0.1560 H   0  0  0  0  0  0  0  0  0  0  0  0
    2.9380   -0.3640   -0.4430 H   0  0  0  0  0  0  0  0  0  0  0  0
    3.0710    2.1650   -0.1220 H   0  0  0  0  0  0  0  0  0  0  0  0
    4.8670    2.3690    1.2610 H   0  0  0  0  0  0  0  0  0  0  0  0
    3.5280    2.8230    2.1880 H   0  0  0  0  0  0  0  0  0  0  0  0
    5.7770   -0.2550    1.8400 H   0  0  0  0  0  0  0  0  0  0  0  0
    5.9480   -1.7710    3.8180 H   0  0  0  0  0  0  0  0  0  0  0  0
   -3.1670    2.1970    2.5010 C   0  0  0  0  0  0  0  0  0  0  0  0
   -2.9780    2.1500    0.9940 C   0  0  0  0  0  0  0  0  0  0  0  0
   -4.0300    1.3330    0.3690 C   0  0  0  0  0  0  0  0  0  0  0  0
   -1.5880    2.0300    0.5590 C   0  0  0  0  0  0  0  0  0  0  0  0
   -0.7520    0.8760    1.0120 C   0  0  2  0  0  0  0  0  0  0  0  0
    0.5980    1.0020    0.4280 N   0  0  0  0  0  0  0  0  0  0  0  0
   -1.3380   -0.4030    0.5700 C   0  0  0  0  0  0  0  0  0  0  0  0
   -2.4240   -0.8230    1.0810 O   0  0  0  0  0  0  0  0  0  0  0  0
   -4.2300    2.3370    2.7220 H   0  0  0  0  0  0  0  0  0  0  0  0
   -2.8260    1.2090    2.9210 H   0  0  0  0  0  0  0  0  0  0  0  0
   -2.5040    2.9610    2.9400 H   0  0  0  0  0  0  0  0  0  0  0  0
   -3.2620    3.2520    0.7070 H   0  0  0  0  0  0  0  0  0  0  0  0
   -4.6170    0.6730    1.0540 H   0  0  0  0  0  0  0  0  0  0  0  0
   -3.7310    0.8040   -0.5840 H   0  0  0  0  0  0  0  0  0  0  0  0
   -4.8470    2.0350   -0.0160 H   0  0  0  0  0  0  0  0  0  0  0  0
   -1.5520    2.0740   -0.5740 H   0  0  0  0  0  0  0  0  0  0  0  0
   -1.0430    2.9870    0.8400 H   0  0  0  0  0  0  0  0  0  0  0  0
   -0.6020    0.8670    2.1100 H   0  0  0  0  0  0  0  0  0  0  0  0
    0.7760    0.8700   -0.5830 H   0  0  0  0  0  0  0  0  0  0  0  0
   -4.0720   -4.7080   -4.4320 N   0  0  0  0  0  0  0  0  0  0  0  0
   -3.3660   -3.6130   -3.8800 C   0  0  0  0  0  0  0  0  0  0  0  0
   -3.2610   -2.5580   -4.5400 O   0  0  0  0  0  0  0  0  0  0  0  0
   -2.7380   -3.6980   -2.5080 C   0  0  0  0  0  0  0  0  0  0  0  0
   -2.0530   -2.4010   -2.1720 C   0  0  0  0  0  0  0  0  0  0  0  0
   -1.4620   -2.4960   -0.7870 C   0  0  2  0  0  0  0  0  0  0  0  0
   -0.7930   -1.2610   -0.4200 N   0  0  0  0  0  0  0  0  0  0  0  0
   -0.5820   -3.6620   -0.5730 C   0  0  0  0  0  0  0  0  0  0  0  0
    0.6290   -3.4510   -0.1980 O   0  0  0  0  0  0  0  0  0  0  0  0
   -0.9070   -4.9800   -0.7290 O   0  0  0  0  0  0  0  0  0  0  0  0
   -4.4660   -4.7050   -5.3840 H   0  0  0  0  0  0  0  0  0  0  0  0
   -4.2230   -5.5920   -3.8700 H   0  0  0  0  0  0  0  0  0  0  0  0
   -3.4570   -4.0390   -1.7530 H   0  0  0  0  0  0  0  0  0  0  0  0
   -1.9920   -4.5410   -2.6410 H   0  0  0  0  0  0  0  0  0  0  0  0
   -2.8320   -1.6230   -2.1360 H   0  0  0  0  0  0  0  0  0  0  0  0
   -1.2930   -2.2220   -2.9560 H   0  0  0  0  0  0  0  0  0  0  0  0
   -2.3330   -2.6140   -0.1160 H   0  0  0  0  0  0  0  0  0  0  0  0
    0.0980   -0.9900   -0.8790 H   0  0  0  0  0  0  0  0  0  0  0  0
  1 13  1  0  0  0  0
  2  1  1  0  0  0  0
  3 14  1  0  0  0  0
  3  2  2  0  0  0  0
  4  3  1  0  0  0  0
  5  4  2  0  0  0  0
  5 11  1  0  0  0  0
  6  7  1  0  0  0  0
  6  5  1  0  0  0  0
  7 18  1  6  0  0  0
  7  9  1  0  0  0  0
  7  8  1  0  0  0  0
  8 20  1  0  0  0  0
  9 10  2  0  0  0  0
 11 12  2  0  0  0  0
 12  2  1  0  0  0  0
 12 22  1  0  0  0  0
 15  4  1  0  0  0  0
 16  6  1  0  0  0  0
 17  6  1  0  0  0  0
 19  8  1  0  0  0  0
 21 11  1  0  0  0  0
 23 31  1  0  0  0  0
 23 32  1  0  0  0  0
 23 33  1  0  0  0  0
 24 23  1  0  0  0  0
 25 24  1  0  0  0  0
 25 35  1  0  0  0  0
 26 39  1  0  0  0  0
 26 24  1  0  0  0  0
 26 27  1  0  0  0  0
 27 40  1  1  0  0  0
 28 27  1  0  0  0  0
 28  9  1  0  0  0  0
 29 27  1  0  0  0  0
 29 30  2  0  0  0  0
 34 24  1  0  0  0  0
 36 25  1  0  0  0  0
 37 25  1  0  0  0  0
 38 26  1  0  0  0  0
 41 28  1  0  0  0  0
 42 43  1  0  0  0  0
 42 53  1  0  0  0  0
 43 45  1  0  0  0  0
 44 43  2  0  0  0  0
 45 46  1  0  0  0  0
 45 54  1  0  0  0  0
 46 56  1  0  0  0  0
 46 47  1  0  0  0  0
 47 49  1  0  0  0  0
 47 48  1  0  0  0  0
 47 58  1  1  0  0  0
 48 29  1  0  0  0  0
 49 50  1  0  0  0  0
 51 49  2  0  0  0  0
 52 42  1  0  0  0  0
 55 45  1  0  0  0  0
 57 46  1  0  0  0  0
 59 48  1  0  0  0  0
M  END
$$$$
