YLR.pdb
 OpenBabel07022419213D

 65 65  0  0  1  0  0  0  0  0999 V2000
    1.4240    3.7640    7.0870 O   0  0  0  0  0  0  0  0  0  0  0  0
    1.9240    2.8210    6.1990 C   0  0  0  0  0  0  0  0  0  0  0  0
    3.1190    3.0410    5.5470 C   0  0  0  0  0  0  0  0  0  0  0  0
    3.6440    2.1350    4.6640 C   0  0  0  0  0  0  0  0  0  0  0  0
    2.9740    0.9710    4.4110 C   0  0  0  0  0  0  0  0  0  0  0  0
    3.4840   -0.0400    3.4810 C   0  0  0  0  0  0  0  0  0  0  0  0
    3.0760    0.0800    2.0580 C   0  0  2  0  0  0  0  0  0  0  0  0
    3.4450    1.2870    1.3850 N   0  0  0  0  0  0  0  0  0  0  0  0
    1.6670   -0.3210    1.7720 C   0  0  0  0  0  0  0  0  0  0  0  0
    1.0610   -1.2390    2.3730 O   0  0  0  0  0  0  0  0  0  0  0  0
    1.7860    0.7450    5.0570 C   0  0  0  0  0  0  0  0  0  0  0  0
    1.2360    1.6390    5.9490 C   0  0  0  0  0  0  0  0  0  0  0  0
    1.1430    3.4430    8.0150 H   0  0  0  0  0  0  0  0  0  0  0  0
    3.6180    3.9860    5.7780 H   0  0  0  0  0  0  0  0  0  0  0  0
    4.5730    2.3550    4.1900 H   0  0  0  0  0  0  0  0  0  0  0  0
    3.1830   -1.0790    3.8120 H   0  0  0  0  0  0  0  0  0  0  0  0
    4.5950   -0.0570    3.5110 H   0  0  0  0  0  0  0  0  0  0  0  0
    3.6860   -0.7290    1.5150 H   0  0  0  0  0  0  0  0  0  0  0  0
    3.5550    2.0720    2.0380 H   0  0  0  0  0  0  0  0  0  0  0  0
    4.1130    1.2000    0.6160 H   0  0  0  0  0  0  0  0  0  0  0  0
    1.2180   -0.1790    4.8850 H   0  0  0  0  0  0  0  0  0  0  0  0
    0.2950    1.4640    6.4600 H   0  0  0  0  0  0  0  0  0  0  0  0
   -2.4050    3.1930    1.2210 C   0  0  0  0  0  0  0  0  0  0  0  0
   -1.4520    2.0360    1.4610 C   0  0  0  0  0  0  0  0  0  0  0  0
   -1.8870    1.3250    2.7000 C   0  0  0  0  0  0  0  0  0  0  0  0
   -1.3700    1.1470    0.2380 C   0  0  0  0  0  0  0  0  0  0  0  0
   -0.4420    0.0110    0.4470 C   0  0  2  0  0  0  0  0  0  0  0  0
    0.9110    0.3570    0.7490 N   0  0  0  0  0  0  0  0  0  0  0  0
   -0.5180   -1.0120   -0.6480 C   0  0  0  0  0  0  0  0  0  0  0  0
    0.5510   -1.4690   -1.0890 O   0  0  0  0  0  0  0  0  0  0  0  0
   -1.8800    4.1160    0.9240 H   0  0  0  0  0  0  0  0  0  0  0  0
   -2.9480    3.4400    2.1730 H   0  0  0  0  0  0  0  0  0  0  0  0
   -3.1800    2.8630    0.5050 H   0  0  0  0  0  0  0  0  0  0  0  0
   -0.4060    2.4320    1.6460 H   0  0  0  0  0  0  0  0  0  0  0  0
   -2.5240    2.0100    3.3360 H   0  0  0  0  0  0  0  0  0  0  0  0
   -2.5380    0.4400    2.4930 H   0  0  0  0  0  0  0  0  0  0  0  0
   -1.0190    1.0520    3.3690 H   0  0  0  0  0  0  0  0  0  0  0  0
   -2.3720    0.8560   -0.1150 H   0  0  0  0  0  0  0  0  0  0  0  0
   -0.9460    1.8100   -0.5720 H   0  0  0  0  0  0  0  0  0  0  0  0
   -0.8010   -0.5850    1.3490 H   0  0  0  0  0  0  0  0  0  0  0  0
    1.3950    1.1400    0.2170 H   0  0  0  0  0  0  0  0  0  0  0  0
    0.4640   -3.6760   -5.2660 N   0  0  0  0  0  0  0  0  0  0  0  0
   -0.4190   -4.6860   -4.8120 C   0  0  0  0  0  0  0  0  0  0  0  0
   -1.1810   -5.3210   -5.6370 N   0  0  0  0  0  0  0  0  0  0  0  0
   -0.4800   -5.0230   -3.4380 N   0  0  0  0  0  0  0  0  0  0  0  0
   -1.6130   -5.5900   -2.8040 C   0  0  0  0  0  0  0  0  0  0  0  0
   -2.8240   -4.7600   -2.5950 C   0  0  0  0  0  0  0  0  0  0  0  0
   -2.6720   -3.5640   -1.7330 C   0  0  0  0  0  0  0  0  0  0  0  0
   -1.7940   -2.4720   -2.2220 C   0  0  2  0  0  0  0  0  0  0  0  0
   -1.7430   -1.4330   -1.1490 N   0  0  0  0  0  0  0  0  0  0  0  0
   -2.3400   -1.8110   -3.4470 C   0  0  0  0  0  0  0  0  0  0  0  0
   -2.5800   -0.5840   -3.3920 O   0  0  0  0  0  0  0  0  0  0  0  0
   -2.6040   -2.4460   -4.6350 O   0  0  0  0  0  0  0  0  0  0  0  0
    1.1300   -3.8230   -6.0850 H   0  0  0  0  0  0  0  0  0  0  0  0
    0.5200   -2.7260   -4.8300 H   0  0  0  0  0  0  0  0  0  0  0  0
   -1.1340   -5.0720   -6.6670 H   0  0  0  0  0  0  0  0  0  0  0  0
    0.4250   -4.8120   -2.9020 H   0  0  0  0  0  0  0  0  0  0  0  0
   -1.9240   -6.5760   -3.2820 H   0  0  0  0  0  0  0  0  0  0  0  0
   -1.2780   -5.9420   -1.7770 H   0  0  0  0  0  0  0  0  0  0  0  0
   -3.2920   -4.4340   -3.5600 H   0  0  0  0  0  0  0  0  0  0  0  0
   -3.5940   -5.4310   -2.1130 H   0  0  0  0  0  0  0  0  0  0  0  0
   -2.2510   -3.8700   -0.7210 H   0  0  0  0  0  0  0  0  0  0  0  0
   -3.6930   -3.1170   -1.5670 H   0  0  0  0  0  0  0  0  0  0  0  0
   -0.7890   -2.8220   -2.4340 H   0  0  0  0  0  0  0  0  0  0  0  0
   -2.6620   -1.0540   -0.8120 H   0  0  0  0  0  0  0  0  0  0  0  0
  1 13  1  0  0  0  0
  2  1  1  0  0  0  0
  3 14  1  0  0  0  0
  3  2  2  0  0  0  0
  4  3  1  0  0  0  0
  5  4  2  0  0  0  0
  5 11  1  0  0  0  0
  6 17  1  0  0  0  0
  6 16  1  0  0  0  0
  6  5  1  0  0  0  0
  7 18  1  6  0  0  0
  7  6  1  0  0  0  0
  8 19  1  0  0  0  0
  8  7  1  0  0  0  0
  9  7  1  0  0  0  0
  9 10  2  0  0  0  0
 11 12  2  0  0  0  0
 12  2  1  0  0  0  0
 12 22  1  0  0  0  0
 15  4  1  0  0  0  0
 20  8  1  0  0  0  0
 21 11  1  0  0  0  0
 23 24  1  0  0  0  0
 23 32  1  0  0  0  0
 24 34  1  0  0  0  0
 24 25  1  0  0  0  0
 25 35  1  0  0  0  0
 25 37  1  0  0  0  0
 26 27  1  0  0  0  0
 26 24  1  0  0  0  0
 27 28  1  0  0  0  0
 27 40  1  1  0  0  0
 28  9  1  0  0  0  0
 29 27  1  0  0  0  0
 30 29  2  0  0  0  0
 31 23  1  0  0  0  0
 33 23  1  0  0  0  0
 36 25  1  0  0  0  0
 38 26  1  0  0  0  0
 39 26  1  0  0  0  0
 41 28  1  0  0  0  0
 42 55  1  0  0  0  0
 42 43  1  0  0  0  0
 43 45  1  0  0  0  0
 44 43  2  0  0  0  0
 45 57  1  0  0  0  0
 45 46  1  0  0  0  0
 46 47  1  0  0  0  0
 46 59  1  0  0  0  0
 47 61  1  0  0  0  0
 47 48  1  0  0  0  0
 48 63  1  0  0  0  0
 48 62  1  0  0  0  0
 49 64  1  6  0  0  0
 49 48  1  0  0  0  0
 49 50  1  0  0  0  0
 50 65  1  0  0  0  0
 50 29  1  0  0  0  0
 51 52  1  0  0  0  0
 51 49  1  0  0  0  0
 53 51  2  0  0  0  0
 54 42  1  0  0  0  0
 56 44  1  0  0  0  0
 58 46  1  0  0  0  0
 60 47  1  0  0  0  0
M  END
$$$$
