YLV.pdb
 OpenBabel07022419223D

 58 58  0  0  1  0  0  0  0  0999 V2000
    1.7120   -2.5570    5.1110 O   0  0  0  0  0  0  0  0  0  0  0  0
    2.1340   -2.0940    3.8810 C   0  0  0  0  0  0  0  0  0  0  0  0
    2.5490   -2.9070    2.8520 C   0  0  0  0  0  0  0  0  0  0  0  0
    2.9650   -2.4390    1.6390 C   0  0  0  0  0  0  0  0  0  0  0  0
    2.9820   -1.0780    1.4000 C   0  0  0  0  0  0  0  0  0  0  0  0
    3.4600   -0.5110    0.1340 C   0  0  0  0  0  0  0  0  0  0  0  0
    2.5250   -0.4800   -1.0050 C   0  0  2  0  0  0  0  0  0  0  0  0
    3.1990    0.1140   -2.1580 N   0  0  0  0  0  0  0  0  0  0  0  0
    1.2810    0.2680   -0.6930 C   0  0  0  0  0  0  0  0  0  0  0  0
    1.0180    1.3580   -1.2730 O   0  0  0  0  0  0  0  0  0  0  0  0
    2.5650   -0.2600    2.4380 C   0  0  0  0  0  0  0  0  0  0  0  0
    2.1460   -0.7350    3.6590 C   0  0  0  0  0  0  0  0  0  0  0  0
    0.7820   -2.8760    5.3150 H   0  0  0  0  0  0  0  0  0  0  0  0
    2.5180   -3.9860    3.0870 H   0  0  0  0  0  0  0  0  0  0  0  0
    3.2730   -3.1430    0.8860 H   0  0  0  0  0  0  0  0  0  0  0  0
    4.4110   -0.9960   -0.2050 H   0  0  0  0  0  0  0  0  0  0  0  0
    3.7390    0.5610    0.3570 H   0  0  0  0  0  0  0  0  0  0  0  0
    2.2020   -1.5090   -1.3200 H   0  0  0  0  0  0  0  0  0  0  0  0
    2.8880    1.0720   -2.3470 H   0  0  0  0  0  0  0  0  0  0  0  0
    4.2260    0.0060   -2.0240 H   0  0  0  0  0  0  0  0  0  0  0  0
    2.5720    0.8320    2.2950 H   0  0  0  0  0  0  0  0  0  0  0  0
    1.8260   -0.0310    4.4440 H   0  0  0  0  0  0  0  0  0  0  0  0
    0.6500    3.2870    1.0690 C   0  0  0  0  0  0  0  0  0  0  0  0
   -0.7290    2.8730    1.3020 C   0  0  0  0  0  0  0  0  0  0  0  0
   -0.9070    2.7680    2.8280 C   0  0  0  0  0  0  0  0  0  0  0  0
   -1.3670    1.7430    0.6010 C   0  0  0  0  0  0  0  0  0  0  0  0
   -0.8780    0.3830    0.6810 C   0  0  2  0  0  0  0  0  0  0  0  0
    0.3150   -0.1520    0.2380 N   0  0  0  0  0  0  0  0  0  0  0  0
   -1.9910   -0.6020    0.4260 C   0  0  0  0  0  0  0  0  0  0  0  0
   -3.1730   -0.3540    0.7470 O   0  0  0  0  0  0  0  0  0  0  0  0
    0.8930    4.0900    1.8130 H   0  0  0  0  0  0  0  0  0  0  0  0
    1.3560    2.4620    1.1610 H   0  0  0  0  0  0  0  0  0  0  0  0
    0.7220    3.7140    0.0240 H   0  0  0  0  0  0  0  0  0  0  0  0
   -1.3740    3.8020    1.0650 H   0  0  0  0  0  0  0  0  0  0  0  0
   -0.1400    2.0970    3.2690 H   0  0  0  0  0  0  0  0  0  0  0  0
   -0.6940    3.7870    3.2160 H   0  0  0  0  0  0  0  0  0  0  0  0
   -1.9340    2.5260    3.1030 H   0  0  0  0  0  0  0  0  0  0  0  0
   -2.4350    1.7360    1.0320 H   0  0  0  0  0  0  0  0  0  0  0  0
   -1.6080    2.0950   -0.4480 H   0  0  0  0  0  0  0  0  0  0  0  0
   -0.7660    0.2750    1.8810 H   0  0  0  0  0  0  0  0  0  0  0  0
    0.5800   -1.1200    0.6660 H   0  0  0  0  0  0  0  0  0  0  0  0
   -3.0600   -1.7900   -2.6480 C   0  0  0  0  0  0  0  0  0  0  0  0
   -2.7750   -3.1080   -1.9420 C   0  0  0  0  0  0  0  0  0  0  0  0
   -1.4480   -3.6030   -2.4260 C   0  0  0  0  0  0  0  0  0  0  0  0
   -2.7740   -2.8310   -0.4570 C   0  0  2  0  0  0  0  0  0  0  0  0
   -1.7410   -1.8590   -0.1940 N   0  0  0  0  0  0  0  0  0  0  0  0
   -2.4790   -4.1250    0.2560 C   0  0  0  0  0  0  0  0  0  0  0  0
   -1.4520   -4.2700    0.9680 O   0  0  0  0  0  0  0  0  0  0  0  0
   -3.3360   -5.2100    0.1500 O   0  0  0  0  0  0  0  0  0  0  0  0
   -2.2070   -1.0810   -2.5350 H   0  0  0  0  0  0  0  0  0  0  0  0
   -3.9680   -1.3050   -2.2190 H   0  0  0  0  0  0  0  0  0  0  0  0
   -3.2320   -1.9880   -3.7160 H   0  0  0  0  0  0  0  0  0  0  0  0
   -3.5730   -3.8130   -2.1990 H   0  0  0  0  0  0  0  0  0  0  0  0
   -0.7290   -3.8250   -1.6220 H   0  0  0  0  0  0  0  0  0  0  0  0
   -0.9410   -2.8680   -3.1160 H   0  0  0  0  0  0  0  0  0  0  0  0
   -1.5870   -4.5670   -2.9870 H   0  0  0  0  0  0  0  0  0  0  0  0
   -3.7590   -2.4990   -0.1320 H   0  0  0  0  0  0  0  0  0  0  0  0
   -0.7720   -2.1130   -0.4810 H   0  0  0  0  0  0  0  0  0  0  0  0
  1 13  1  0  0  0  0
  2  1  1  0  0  0  0
  3 14  1  0  0  0  0
  3  2  2  0  0  0  0
  4  3  1  0  0  0  0
  5  4  2  0  0  0  0
  5 11  1  0  0  0  0
  6 17  1  0  0  0  0
  6  5  1  0  0  0  0
  7 18  1  6  0  0  0
  7  9  1  0  0  0  0
  7  6  1  0  0  0  0
  8 20  1  0  0  0  0
  8  7  1  0  0  0  0
  9 28  1  0  0  0  0
 10  9  2  0  0  0  0
 11 12  2  0  0  0  0
 12  2  1  0  0  0  0
 12 22  1  0  0  0  0
 15  4  1  0  0  0  0
 16  6  1  0  0  0  0
 19  8  1  0  0  0  0
 21 11  1  0  0  0  0
 23 32  1  0  0  0  0
 23 24  1  0  0  0  0
 23 31  1  0  0  0  0
 24 25  1  0  0  0  0
 25 37  1  0  0  0  0
 25 36  1  0  0  0  0
 25 35  1  0  0  0  0
 26 27  1  0  0  0  0
 26 38  1  0  0  0  0
 26 24  1  0  0  0  0
 27 40  1  1  0  0  0
 28 41  1  0  0  0  0
 28 27  1  0  0  0  0
 29 27  1  0  0  0  0
 29 30  2  0  0  0  0
 33 23  1  0  0  0  0
 34 24  1  0  0  0  0
 39 26  1  0  0  0  0
 42 50  1  0  0  0  0
 42 51  1  0  0  0  0
 42 43  1  0  0  0  0
 43 45  1  0  0  0  0
 44 43  1  0  0  0  0
 44 54  1  0  0  0  0
 45 46  1  0  0  0  0
 45 57  1  1  0  0  0
 45 47  1  0  0  0  0
 46 29  1  0  0  0  0
 47 48  1  0  0  0  0
 49 47  2  0  0  0  0
 52 42  1  0  0  0  0
 53 43  1  0  0  0  0
 55 44  1  0  0  0  0
 56 44  1  0  0  0  0
 58 46  1  0  0  0  0
M  END
$$$$
