YLW.pdb
 OpenBabel07022419223D

 66 68  0  0  1  0  0  0  0  0999 V2000
    2.1630   -2.2490    5.3210 O   0  0  0  0  0  0  0  0  0  0  0  0
    2.7000   -1.3760    4.3930 C   0  0  0  0  0  0  0  0  0  0  0  0
    3.8700   -1.7120    3.7480 C   0  0  0  0  0  0  0  0  0  0  0  0
    4.4150   -0.8510    2.8230 C   0  0  0  0  0  0  0  0  0  0  0  0
    3.8200    0.3690    2.5070 C   0  0  0  0  0  0  0  0  0  0  0  0
    4.4690    1.2620    1.5560 C   0  0  0  0  0  0  0  0  0  0  0  0
    4.1780    1.0570    0.1040 C   0  0  2  0  0  0  0  0  0  0  0  0
    4.9450    2.0600   -0.6770 N   0  0  0  0  0  0  0  0  0  0  0  0
    2.7390    1.2410   -0.1630 C   0  0  0  0  0  0  0  0  0  0  0  0
    2.3060    2.3610   -0.6280 O   0  0  0  0  0  0  0  0  0  0  0  0
    2.6610    0.6950    3.1500 C   0  0  0  0  0  0  0  0  0  0  0  0
    2.1180   -0.1620    4.0710 C   0  0  0  0  0  0  0  0  0  0  0  0
    1.1560   -2.3470    5.3790 H   0  0  0  0  0  0  0  0  0  0  0  0
    4.3630   -2.6700    3.9770 H   0  0  0  0  0  0  0  0  0  0  0  0
    5.3480   -1.1680    2.3380 H   0  0  0  0  0  0  0  0  0  0  0  0
    5.5920    1.1440    1.6770 H   0  0  0  0  0  0  0  0  0  0  0  0
    4.2230    2.3410    1.7920 H   0  0  0  0  0  0  0  0  0  0  0  0
    4.5850    0.0780   -0.2090 H   0  0  0  0  0  0  0  0  0  0  0  0
    4.9180    2.9820   -0.1540 H   0  0  0  0  0  0  0  0  0  0  0  0
    5.9490    1.7290   -0.5840 H   0  0  0  0  0  0  0  0  0  0  0  0
    2.1690    1.6210    2.9380 H   0  0  0  0  0  0  0  0  0  0  0  0
    1.1950    0.0730    4.6000 H   0  0  0  0  0  0  0  0  0  0  0  0
   -1.1520   -0.7610   -3.5820 C   0  0  0  0  0  0  0  0  0  0  0  0
   -1.2230    0.0060   -2.2420 C   0  0  0  0  0  0  0  0  0  0  0  0
   -1.6100    1.4180   -2.6160 C   0  0  0  0  0  0  0  0  0  0  0  0
    0.1040   -0.1110   -1.6190 C   0  0  0  0  0  0  0  0  0  0  0  0
    0.3080    0.5700   -0.2840 C   0  0  2  0  0  0  0  0  0  0  0  0
    1.7220    0.2760    0.0340 N   0  0  0  0  0  0  0  0  0  0  0  0
   -0.5470    0.0650    0.8000 C   0  0  0  0  0  0  0  0  0  0  0  0
    0.0250   -0.5920    1.7360 O   0  0  0  0  0  0  0  0  0  0  0  0
   -2.1600   -1.0780   -3.9050 H   0  0  0  0  0  0  0  0  0  0  0  0
   -0.6880   -0.0490   -4.3010 H   0  0  0  0  0  0  0  0  0  0  0  0
   -0.4590   -1.6220   -3.5060 H   0  0  0  0  0  0  0  0  0  0  0  0
   -2.0370   -0.5210   -1.7100 H   0  0  0  0  0  0  0  0  0  0  0  0
   -0.9520    1.7590   -3.4150 H   0  0  0  0  0  0  0  0  0  0  0  0
   -1.6110    2.1050   -1.7590 H   0  0  0  0  0  0  0  0  0  0  0  0
   -2.6540    1.3540   -3.0310 H   0  0  0  0  0  0  0  0  0  0  0  0
    0.8460    0.3830   -2.3130 H   0  0  0  0  0  0  0  0  0  0  0  0
    0.4330   -1.1450   -1.5230 H   0  0  0  0  0  0  0  0  0  0  0  0
    0.2480    1.6690   -0.3790 H   0  0  0  0  0  0  0  0  0  0  0  0
    1.9840   -0.6510    0.4080 H   0  0  0  0  0  0  0  0  0  0  0  0
   -1.9320    0.2260    0.9260 N   0  0  0  0  0  0  0  0  0  0  0  0
   -2.7110   -0.2700    2.0080 C   0  0  1  0  0  0  0  0  0  0  0  0
   -2.8690   -1.7240    2.1960 C   0  0  0  0  0  0  0  0  0  0  0  0
   -3.4960   -2.4760    1.0970 C   0  0  0  0  0  0  0  0  0  0  0  0
   -4.8690   -2.7540    0.9930 C   0  0  0  0  0  0  0  0  0  0  0  0
   -5.0680   -3.4010   -0.1360 N   0  0  0  0  0  0  0  0  0  0  0  0
   -3.9060   -3.5810   -0.8080 C   0  0  0  0  0  0  0  0  0  0  0  0
   -3.6360   -4.2170   -2.0270 C   0  0  0  0  0  0  0  0  0  0  0  0
   -2.3440   -4.2830   -2.4930 C   0  0  0  0  0  0  0  0  0  0  0  0
   -1.3740   -3.7020   -1.7100 C   0  0  0  0  0  0  0  0  0  0  0  0
   -1.6250   -3.0730   -0.5100 C   0  0  0  0  0  0  0  0  0  0  0  0
   -2.9260   -3.0040   -0.0370 C   0  0  0  0  0  0  0  0  0  0  0  0
   -2.1040    0.3130    3.2690 C   0  0  0  0  0  0  0  0  0  0  0  0
   -2.6040   -0.0230    4.3680 O   0  0  0  0  0  0  0  0  0  0  0  0
   -1.0400    1.1870    3.2690 O   0  0  0  0  0  0  0  0  0  0  0  0
   -2.4490    0.7690    0.1690 H   0  0  0  0  0  0  0  0  0  0  0  0
   -3.7720    0.1500    1.9410 H   0  0  0  0  0  0  0  0  0  0  0  0
   -3.5320   -1.8660    3.1030 H   0  0  0  0  0  0  0  0  0  0  0  0
   -1.9180   -2.2360    2.5160 H   0  0  0  0  0  0  0  0  0  0  0  0
   -5.5850   -2.4490    1.7630 H   0  0  0  0  0  0  0  0  0  0  0  0
   -5.9920   -3.7530   -0.5100 H   0  0  0  0  0  0  0  0  0  0  0  0
   -4.4470   -4.6550   -2.5950 H   0  0  0  0  0  0  0  0  0  0  0  0
   -2.0960   -4.7700   -3.4360 H   0  0  0  0  0  0  0  0  0  0  0  0
   -0.3360   -3.7480   -2.0690 H   0  0  0  0  0  0  0  0  0  0  0  0
   -0.8550   -2.6370    0.0940 H   0  0  0  0  0  0  0  0  0  0  0  0
  1 13  1  0  0  0  0
  2  1  1  0  0  0  0
  3 14  1  0  0  0  0
  3  2  2  0  0  0  0
  4  3  1  0  0  0  0
  5  4  2  0  0  0  0
  5 11  1  0  0  0  0
  6 16  1  0  0  0  0
  6 17  1  0  0  0  0
  6  5  1  0  0  0  0
  7 18  1  6  0  0  0
  7  6  1  0  0  0  0
  8 20  1  0  0  0  0
  8 19  1  0  0  0  0
  8  7  1  0  0  0  0
  9 28  1  0  0  0  0
  9  7  1  0  0  0  0
 10  9  2  0  0  0  0
 11 12  2  0  0  0  0
 12  2  1  0  0  0  0
 12 22  1  0  0  0  0
 15  4  1  0  0  0  0
 21 11  1  0  0  0  0
 23 33  1  0  0  0  0
 23 24  1  0  0  0  0
 24 34  1  0  0  0  0
 24 26  1  0  0  0  0
 25 24  1  0  0  0  0
 25 36  1  0  0  0  0
 26 39  1  0  0  0  0
 26 27  1  0  0  0  0
 27 40  1  6  0  0  0
 27 28  1  0  0  0  0
 27 29  1  0  0  0  0
 28 41  1  0  0  0  0
 29 42  1  0  0  0  0
 29 30  2  0  0  0  0
 31 23  1  0  0  0  0
 32 23  1  0  0  0  0
 35 25  1  0  0  0  0
 37 25  1  0  0  0  0
 38 26  1  0  0  0  0
 42 43  1  0  0  0  0
 43 58  1  6  0  0  0
 43 44  1  0  0  0  0
 43 54  1  0  0  0  0
 44 60  1  0  0  0  0
 44 59  1  0  0  0  0
 45 44  1  0  0  0  0
 46 45  2  0  0  0  0
 46 61  1  0  0  0  0
 47 46  1  0  0  0  0
 48 47  1  0  0  0  0
 48 53  1  0  0  0  0
 49 48  2  0  0  0  0
 50 49  1  0  0  0  0
 50 51  2  0  0  0  0
 51 52  1  0  0  0  0
 52 53  2  0  0  0  0
 52 66  1  0  0  0  0
 53 45  1  0  0  0  0
 54 55  1  0  0  0  0
 56 54  2  0  0  0  0
 57 42  1  0  0  0  0
 62 47  1  0  0  0  0
 63 49  1  0  0  0  0
 64 50  1  0  0  0  0
 65 51  1  0  0  0  0
M  END
$$$$
