YLY.pdb
 OpenBabel07022419223D

 63 64  0  0  1  0  0  0  0  0999 V2000
    4.1850    0.2020    6.5910 O   0  0  0  0  0  0  0  0  0  0  0  0
    3.4570    0.2660    5.3860 C   0  0  0  0  0  0  0  0  0  0  0  0
    3.3060   -0.8510    4.5960 C   0  0  0  0  0  0  0  0  0  0  0  0
    2.5860   -0.7910    3.4030 C   0  0  0  0  0  0  0  0  0  0  0  0
    2.0050    0.3820    2.9740 C   0  0  0  0  0  0  0  0  0  0  0  0
    1.2470    0.4180    1.7040 C   0  0  0  0  0  0  0  0  0  0  0  0
    2.1280    0.7610    0.5260 C   0  0  2  0  0  0  0  0  0  0  0  0
    2.7530    2.0550    0.6720 N   0  0  0  0  0  0  0  0  0  0  0  0
    1.3690    0.7560   -0.7480 C   0  0  0  0  0  0  0  0  0  0  0  0
    1.3440    1.7820   -1.5110 O   0  0  0  0  0  0  0  0  0  0  0  0
    2.1670    1.4880    3.7760 C   0  0  0  0  0  0  0  0  0  0  0  0
    2.8790    1.4400    4.9630 C   0  0  0  0  0  0  0  0  0  0  0  0
    3.7240    0.1430    7.4900 H   0  0  0  0  0  0  0  0  0  0  0  0
    3.7690   -1.7720    4.9440 H   0  0  0  0  0  0  0  0  0  0  0  0
    2.4870   -1.6890    2.8070 H   0  0  0  0  0  0  0  0  0  0  0  0
    0.6860   -0.4990    1.5020 H   0  0  0  0  0  0  0  0  0  0  0  0
    0.4760    1.2390    1.7790 H   0  0  0  0  0  0  0  0  0  0  0  0
    2.9580    0.0010    0.4990 H   0  0  0  0  0  0  0  0  0  0  0  0
    2.4470    2.7200   -0.0940 H   0  0  0  0  0  0  0  0  0  0  0  0
    3.7950    2.0170    0.5890 H   0  0  0  0  0  0  0  0  0  0  0  0
    1.7190    2.4480    3.4730 H   0  0  0  0  0  0  0  0  0  0  0  0
    2.9940    2.3260    5.5800 H   0  0  0  0  0  0  0  0  0  0  0  0
    0.0570   -2.5370   -5.5980 C   0  0  0  0  0  0  0  0  0  0  0  0
   -0.4050   -1.4030   -4.6830 C   0  0  0  0  0  0  0  0  0  0  0  0
   -0.1100   -0.0610   -5.3330 C   0  0  0  0  0  0  0  0  0  0  0  0
    0.3210   -1.4350   -3.3740 C   0  0  0  0  0  0  0  0  0  0  0  0
   -0.1100   -0.3270   -2.4830 C   0  0  2  0  0  0  0  0  0  0  0  0
    0.6290   -0.3680   -1.2060 N   0  0  0  0  0  0  0  0  0  0  0  0
   -1.5360   -0.4210   -2.0910 C   0  0  0  0  0  0  0  0  0  0  0  0
   -2.4560   -0.3460   -2.9360 O   0  0  0  0  0  0  0  0  0  0  0  0
   -0.8140   -2.9880   -6.1160 H   0  0  0  0  0  0  0  0  0  0  0  0
    0.7150   -2.1250   -6.3960 H   0  0  0  0  0  0  0  0  0  0  0  0
    0.5940   -3.3180   -5.0310 H   0  0  0  0  0  0  0  0  0  0  0  0
   -1.4930   -1.5020   -4.5670 H   0  0  0  0  0  0  0  0  0  0  0  0
   -0.7800    0.6830   -4.8570 H   0  0  0  0  0  0  0  0  0  0  0  0
   -0.3930   -0.0700   -6.4160 H   0  0  0  0  0  0  0  0  0  0  0  0
    0.9510    0.2250   -5.2000 H   0  0  0  0  0  0  0  0  0  0  0  0
    0.1670   -2.4210   -2.8430 H   0  0  0  0  0  0  0  0  0  0  0  0
    1.4230   -1.3200   -3.5440 H   0  0  0  0  0  0  0  0  0  0  0  0
    0.0230    0.6570   -2.9720 H   0  0  0  0  0  0  0  0  0  0  0  0
    0.6190   -1.2290   -0.6210 H   0  0  0  0  0  0  0  0  0  0  0  0
   -0.4790   -2.6540    4.9790 O   0  0  0  0  0  0  0  0  0  0  0  0
   -1.2770   -2.4880    3.8390 C   0  0  0  0  0  0  0  0  0  0  0  0
   -0.7960   -2.8900    2.6190 C   0  0  0  0  0  0  0  0  0  0  0  0
   -1.5420   -2.7480    1.4700 C   0  0  0  0  0  0  0  0  0  0  0  0
   -2.8220   -2.1860    1.5090 C   0  0  0  0  0  0  0  0  0  0  0  0
   -3.6210   -2.0350    0.2790 C   0  0  0  0  0  0  0  0  0  0  0  0
   -3.3570   -0.6880   -0.3940 C   0  0  2  0  0  0  0  0  0  0  0  0
   -1.9530   -0.6020   -0.7330 N   0  0  0  0  0  0  0  0  0  0  0  0
   -3.7510    0.3870    0.5510 C   0  0  0  0  0  0  0  0  0  0  0  0
   -2.8780    1.2010    0.9380 O   0  0  0  0  0  0  0  0  0  0  0  0
   -3.2750   -1.7930    2.7490 C   0  0  0  0  0  0  0  0  0  0  0  0
   -2.5340   -1.9320    3.9030 C   0  0  0  0  0  0  0  0  0  0  0  0
   -5.0490    0.5140    1.0130 O   0  0  0  0  0  0  0  0  0  0  0  0
   -0.5600   -1.9150    5.6750 H   0  0  0  0  0  0  0  0  0  0  0  0
    0.2070   -3.3300    2.5890 H   0  0  0  0  0  0  0  0  0  0  0  0
   -1.1700   -3.0610    0.5040 H   0  0  0  0  0  0  0  0  0  0  0  0
   -4.7050   -2.1500    0.4770 H   0  0  0  0  0  0  0  0  0  0  0  0
   -3.3320   -2.8500   -0.4140 H   0  0  0  0  0  0  0  0  0  0  0  0
   -3.9820   -0.5920   -1.3080 H   0  0  0  0  0  0  0  0  0  0  0  0
   -1.2320   -0.6700    0.0120 H   0  0  0  0  0  0  0  0  0  0  0  0
   -4.2530   -1.3510    2.8620 H   0  0  0  0  0  0  0  0  0  0  0  0
   -2.9100   -1.6150    4.8720 H   0  0  0  0  0  0  0  0  0  0  0  0
  1 13  1  0  0  0  0
  2  1  1  0  0  0  0
  3 14  1  0  0  0  0
  3  2  2  0  0  0  0
  4  3  1  0  0  0  0
  5  4  2  0  0  0  0
  5 11  1  0  0  0  0
  6 17  1  0  0  0  0
  6  5  1  0  0  0  0
  7 18  1  6  0  0  0
  7  8  1  0  0  0  0
  7  6  1  0  0  0  0
  9  7  1  0  0  0  0
 10  9  2  0  0  0  0
 11 12  2  0  0  0  0
 12  2  1  0  0  0  0
 12 22  1  0  0  0  0
 15  4  1  0  0  0  0
 16  6  1  0  0  0  0
 19  8  1  0  0  0  0
 20  8  1  0  0  0  0
 21 11  1  0  0  0  0
 23 33  1  0  0  0  0
 23 24  1  0  0  0  0
 24 34  1  0  0  0  0
 24 26  1  0  0  0  0
 25 37  1  0  0  0  0
 25 35  1  0  0  0  0
 25 24  1  0  0  0  0
 26 38  1  0  0  0  0
 26 27  1  0  0  0  0
 27 40  1  6  0  0  0
 27 29  1  0  0  0  0
 27 28  1  0  0  0  0
 28  9  1  0  0  0  0
 28 41  1  0  0  0  0
 29 49  1  0  0  0  0
 30 29  2  0  0  0  0
 31 23  1  0  0  0  0
 32 23  1  0  0  0  0
 36 25  1  0  0  0  0
 39 26  1  0  0  0  0
 42 55  1  0  0  0  0
 43 53  1  0  0  0  0
 43 42  1  0  0  0  0
 44 43  2  0  0  0  0
 45 46  2  0  0  0  0
 45 44  1  0  0  0  0
 46 52  1  0  0  0  0
 47 58  1  0  0  0  0
 47 46  1  0  0  0  0
 48 60  1  6  0  0  0
 48 47  1  0  0  0  0
 48 50  1  0  0  0  0
 49 48  1  0  0  0  0
 49 61  1  0  0  0  0
 50 51  2  0  0  0  0
 50 54  1  0  0  0  0
 52 62  1  0  0  0  0
 52 53  2  0  0  0  0
 53 63  1  0  0  0  0
 56 44  1  0  0  0  0
 57 45  1  0  0  0  0
 59 47  1  0  0  0  0
M  END
$$$$
