YMF.pdb
 OpenBabel07022419223D

 60 61  0  0  1  0  0  0  0  0999 V2000
    0.9840   -1.3650    7.9250 O   0  0  0  0  0  0  0  0  0  0  0  0
    1.5410   -1.1960    6.6480 C   0  0  0  0  0  0  0  0  0  0  0  0
    2.8260   -0.7230    6.4620 C   0  0  0  0  0  0  0  0  0  0  0  0
    3.3650   -0.5610    5.1920 C   0  0  0  0  0  0  0  0  0  0  0  0
    2.5990   -0.8780    4.0960 C   0  0  0  0  0  0  0  0  0  0  0  0
    3.2340   -0.6710    2.7550 C   0  0  0  0  0  0  0  0  0  0  0  0
    2.9940    0.6940    2.2020 C   0  0  2  0  0  0  0  0  0  0  0  0
    3.4860    1.7290    3.0790 N   0  0  0  0  0  0  0  0  0  0  0  0
    1.6340    0.9710    1.7120 C   0  0  0  0  0  0  0  0  0  0  0  0
    0.9360    1.8770    2.2140 O   0  0  0  0  0  0  0  0  0  0  0  0
    1.3170   -1.3520    4.2450 C   0  0  0  0  0  0  0  0  0  0  0  0
    0.8210   -1.5000    5.5290 C   0  0  0  0  0  0  0  0  0  0  0  0
    0.6260   -2.2980    8.1280 H   0  0  0  0  0  0  0  0  0  0  0  0
    3.4190   -0.4660    7.3300 H   0  0  0  0  0  0  0  0  0  0  0  0
    4.3950   -0.1790    5.0860 H   0  0  0  0  0  0  0  0  0  0  0  0
    2.8850   -1.4410    2.0340 H   0  0  0  0  0  0  0  0  0  0  0  0
    4.3240   -0.8210    2.8770 H   0  0  0  0  0  0  0  0  0  0  0  0
    3.6700    0.7560    1.2840 H   0  0  0  0  0  0  0  0  0  0  0  0
    4.5310    1.6560    3.2040 H   0  0  0  0  0  0  0  0  0  0  0  0
    3.3630    2.6610    2.5790 H   0  0  0  0  0  0  0  0  0  0  0  0
    0.7240   -1.5940    3.3810 H   0  0  0  0  0  0  0  0  0  0  0  0
   -0.2050   -1.8750    5.6770 H   0  0  0  0  0  0  0  0  0  0  0  0
   -1.3100    3.0810   -3.6900 C   0  0  0  0  0  0  0  0  0  0  0  0
    0.4200    2.8090   -3.1950 S   0  0  0  0  0  0  0  0  0  0  0  0
    0.4420    2.2330   -1.4520 C   0  0  0  0  0  0  0  0  0  0  0  0
   -0.2270    0.8530   -1.3700 C   0  0  0  0  0  0  0  0  0  0  0  0
   -0.2200    0.3870    0.0550 C   0  0  2  0  0  0  0  0  0  0  0  0
    1.0470    0.2420    0.6470 N   0  0  0  0  0  0  0  0  0  0  0  0
   -1.0310   -0.8780    0.2250 C   0  0  0  0  0  0  0  0  0  0  0  0
   -0.5260   -1.7520    0.9780 O   0  0  0  0  0  0  0  0  0  0  0  0
   -1.8740    2.1580   -3.4140 H   0  0  0  0  0  0  0  0  0  0  0  0
   -1.7760    3.9300   -3.1500 H   0  0  0  0  0  0  0  0  0  0  0  0
   -1.3570    3.2890   -4.7550 H   0  0  0  0  0  0  0  0  0  0  0  0
    1.4880    2.2240   -1.1500 H   0  0  0  0  0  0  0  0  0  0  0  0
   -0.2180    2.9310   -0.9150 H   0  0  0  0  0  0  0  0  0  0  0  0
   -1.2710    1.0570   -1.6650 H   0  0  0  0  0  0  0  0  0  0  0  0
    0.1720    0.1550   -2.1040 H   0  0  0  0  0  0  0  0  0  0  0  0
   -0.7890    1.1660    0.6370 H   0  0  0  0  0  0  0  0  0  0  0  0
    1.6710   -0.5290    0.2430 H   0  0  0  0  0  0  0  0  0  0  0  0
   -2.2630   -1.0890   -0.4100 N   0  0  0  0  0  0  0  0  0  0  0  0
   -3.1970   -2.1610   -0.3920 C   0  0  1  0  0  0  0  0  0  0  0  0
   -3.7310   -2.4820   -1.7810 C   0  0  0  0  0  0  0  0  0  0  0  0
   -2.6400   -2.8730   -2.6990 C   0  0  0  0  0  0  0  0  0  0  0  0
   -2.0230   -1.9040   -3.4530 C   0  0  0  0  0  0  0  0  0  0  0  0
   -0.9860   -2.1930   -4.3260 C   0  0  0  0  0  0  0  0  0  0  0  0
   -0.5550   -3.5050   -4.4430 C   0  0  0  0  0  0  0  0  0  0  0  0
   -1.1940   -4.4640   -3.6700 C   0  0  0  0  0  0  0  0  0  0  0  0
   -2.2200   -4.1720   -2.8090 C   0  0  0  0  0  0  0  0  0  0  0  0
   -2.9520   -3.3510    0.3960 C   0  0  0  0  0  0  0  0  0  0  0  0
   -2.0420   -3.5290    1.2070 O   0  0  0  0  0  0  0  0  0  0  0  0
   -3.8090   -4.4920    0.2800 O   0  0  0  0  0  0  0  0  0  0  0  0
   -2.5460   -0.2260   -1.0310 H   0  0  0  0  0  0  0  0  0  0  0  0
   -4.1200   -1.6930    0.1570 H   0  0  0  0  0  0  0  0  0  0  0  0
   -4.4470   -3.3120   -1.7010 H   0  0  0  0  0  0  0  0  0  0  0  0
   -4.2560   -1.5860   -2.1420 H   0  0  0  0  0  0  0  0  0  0  0  0
   -2.3280   -0.8460   -3.4110 H   0  0  0  0  0  0  0  0  0  0  0  0
   -0.5350   -1.3990   -4.8980 H   0  0  0  0  0  0  0  0  0  0  0  0
    0.2440   -3.7060   -5.1270 H   0  0  0  0  0  0  0  0  0  0  0  0
   -0.8180   -5.4900   -3.7940 H   0  0  0  0  0  0  0  0  0  0  0  0
   -2.6720   -4.9810   -2.2310 H   0  0  0  0  0  0  0  0  0  0  0  0
  1 13  1  0  0  0  0
  2  1  1  0  0  0  0
  3  2  1  0  0  0  0
  3 14  1  0  0  0  0
  4  3  2  0  0  0  0
  5 11  2  0  0  0  0
  5  4  1  0  0  0  0
  6 17  1  0  0  0  0
  6  5  1  0  0  0  0
  7 18  1  6  0  0  0
  7  6  1  0  0  0  0
  7  8  1  0  0  0  0
  8 19  1  0  0  0  0
  9  7  1  0  0  0  0
  9 10  2  0  0  0  0
 11 12  1  0  0  0  0
 12 22  1  0  0  0  0
 12  2  2  0  0  0  0
 15  4  1  0  0  0  0
 16  6  1  0  0  0  0
 20  8  1  0  0  0  0
 21 11  1  0  0  0  0
 23 31  1  0  0  0  0
 23 24  1  0  0  0  0
 23 32  1  0  0  0  0
 24 25  1  0  0  0  0
 25 26  1  0  0  0  0
 25 34  1  0  0  0  0
 25 35  1  0  0  0  0
 26 27  1  0  0  0  0
 27 29  1  0  0  0  0
 27 38  1  1  0  0  0
 27 28  1  0  0  0  0
 28  9  1  0  0  0  0
 29 30  2  0  0  0  0
 33 23  1  0  0  0  0
 36 26  1  0  0  0  0
 37 26  1  0  0  0  0
 39 28  1  0  0  0  0
 40 41  1  0  0  0  0
 40 29  1  0  0  0  0
 41 53  1  1  0  0  0
 41 49  1  0  0  0  0
 42 54  1  0  0  0  0
 42 41  1  0  0  0  0
 43 42  1  0  0  0  0
 44 56  1  0  0  0  0
 44 43  2  0  0  0  0
 45 44  1  0  0  0  0
 46 45  2  0  0  0  0
 46 47  1  0  0  0  0
 47 48  2  0  0  0  0
 48 43  1  0  0  0  0
 48 60  1  0  0  0  0
 49 50  1  0  0  0  0
 51 49  2  0  0  0  0
 52 40  1  0  0  0  0
 55 42  1  0  0  0  0
 57 45  1  0  0  0  0
 58 46  1  0  0  0  0
 59 47  1  0  0  0  0
M  END
$$$$
