YMG.pdb
 OpenBabel07022419223D

 47 47  0  0  1  0  0  0  0  0999 V2000
   -3.2150    1.4430    3.5220 O   0  0  0  0  0  0  0  0  0  0  0  0
   -2.5290    1.5460    2.2980 C   0  0  0  0  0  0  0  0  0  0  0  0
   -2.7630    0.6520    1.2800 C   0  0  0  0  0  0  0  0  0  0  0  0
   -2.0830    0.7620    0.0790 C   0  0  0  0  0  0  0  0  0  0  0  0
   -1.1610    1.7640   -0.1250 C   0  0  0  0  0  0  0  0  0  0  0  0
   -0.4350    1.9190   -1.3860 C   0  0  0  0  0  0  0  0  0  0  0  0
    0.8890    1.2460   -1.4960 C   0  0  2  0  0  0  0  0  0  0  0  0
    1.3540    1.5890   -2.8720 N   0  0  0  0  0  0  0  0  0  0  0  0
    0.9060   -0.2040   -1.4310 C   0  0  0  0  0  0  0  0  0  0  0  0
    0.9930   -0.9500   -2.4390 O   0  0  0  0  0  0  0  0  0  0  0  0
   -0.9430    2.6490    0.9100 C   0  0  0  0  0  0  0  0  0  0  0  0
   -1.6160    2.5460    2.1080 C   0  0  0  0  0  0  0  0  0  0  0  0
   -2.6830    1.1450    4.3240 H   0  0  0  0  0  0  0  0  0  0  0  0
   -3.4960   -0.1430    1.4470 H   0  0  0  0  0  0  0  0  0  0  0  0
   -2.3040    0.0390   -0.6790 H   0  0  0  0  0  0  0  0  0  0  0  0
   -0.2310    3.0210   -1.5570 H   0  0  0  0  0  0  0  0  0  0  0  0
   -1.0700    1.6530   -2.2760 H   0  0  0  0  0  0  0  0  0  0  0  0
    1.6200    1.7540   -0.8340 H   0  0  0  0  0  0  0  0  0  0  0  0
    1.4160    2.6310   -2.8540 H   0  0  0  0  0  0  0  0  0  0  0  0
    0.6010    1.3220   -3.5480 H   0  0  0  0  0  0  0  0  0  0  0  0
   -0.2300    3.4480    0.7910 H   0  0  0  0  0  0  0  0  0  0  0  0
   -1.4000    3.2740    2.8830 H   0  0  0  0  0  0  0  0  0  0  0  0
    3.1130    0.1020    1.8960 C   0  0  0  0  0  0  0  0  0  0  0  0
    4.0280   -1.0670    0.9140 S   0  0  0  0  0  0  0  0  0  0  0  0
    3.3030   -2.6580    0.7170 C   0  0  0  0  0  0  0  0  0  0  0  0
    2.1700   -2.8980   -0.1630 C   0  0  0  0  0  0  0  0  0  0  0  0
    0.8410   -2.2730   -0.0210 C   0  0  2  0  0  0  0  0  0  0  0  0
    0.8220   -0.8430   -0.1320 N   0  0  0  0  0  0  0  0  0  0  0  0
    0.0520   -2.8170    1.1030 C   0  0  0  0  0  0  0  0  0  0  0  0
   -0.0540   -4.0840    1.2420 O   0  0  0  0  0  0  0  0  0  0  0  0
    2.6660    0.9380    1.3160 H   0  0  0  0  0  0  0  0  0  0  0  0
    3.8320    0.5920    2.6270 H   0  0  0  0  0  0  0  0  0  0  0  0
    2.2750   -0.3700    2.4770 H   0  0  0  0  0  0  0  0  0  0  0  0
    4.1520   -3.3480    0.3330 H   0  0  0  0  0  0  0  0  0  0  0  0
    3.1370   -3.1420    1.7530 H   0  0  0  0  0  0  0  0  0  0  0  0
    1.9690   -4.0220   -0.2200 H   0  0  0  0  0  0  0  0  0  0  0  0
    2.5670   -2.7270   -1.2410 H   0  0  0  0  0  0  0  0  0  0  0  0
    0.2930   -2.6220   -0.9900 H   0  0  0  0  0  0  0  0  0  0  0  0
    0.7100   -0.2640    0.7130 H   0  0  0  0  0  0  0  0  0  0  0  0
   -0.6250   -2.0490    2.0800 N   0  0  0  0  0  0  0  0  0  0  0  0
   -1.3820   -2.6880    3.1520 C   0  0  0  0  0  0  0  0  0  0  0  0
   -2.4720   -3.5320    2.6090 C   0  0  0  0  0  0  0  0  0  0  0  0
   -3.2040   -4.1460    3.4190 O   0  0  0  0  0  0  0  0  0  0  0  0
   -2.7310   -3.6820    1.2580 O   0  0  0  0  0  0  0  0  0  0  0  0
   -0.5860   -1.0240    2.0490 H   0  0  0  0  0  0  0  0  0  0  0  0
   -1.8180   -1.9330    3.8350 H   0  0  0  0  0  0  0  0  0  0  0  0
   -0.6720   -3.2820    3.7790 H   0  0  0  0  0  0  0  0  0  0  0  0
  1 13  1  0  0  0  0
  2  1  1  0  0  0  0
  3 14  1  0  0  0  0
  3  2  2  0  0  0  0
  4  3  1  0  0  0  0
  5  4  2  0  0  0  0
  5 11  1  0  0  0  0
  6  5  1  0  0  0  0
  7  9  1  0  0  0  0
  7  6  1  0  0  0  0
  7 18  1  1  0  0  0
  8 19  1  0  0  0  0
  8  7  1  0  0  0  0
  9 28  1  0  0  0  0
 10  9  2  0  0  0  0
 11 12  2  0  0  0  0
 12  2  1  0  0  0  0
 12 22  1  0  0  0  0
 15  4  1  0  0  0  0
 16  6  1  0  0  0  0
 17  6  1  0  0  0  0
 20  8  1  0  0  0  0
 21 11  1  0  0  0  0
 23 33  1  0  0  0  0
 23 32  1  0  0  0  0
 24 23  1  0  0  0  0
 25 24  1  0  0  0  0
 25 35  1  0  0  0  0
 26 27  1  0  0  0  0
 26 25  1  0  0  0  0
 27 38  1  6  0  0  0
 27 29  1  0  0  0  0
 28 27  1  0  0  0  0
 28 39  1  0  0  0  0
 29 30  2  0  0  0  0
 29 40  1  0  0  0  0
 31 23  1  0  0  0  0
 34 25  1  0  0  0  0
 36 26  1  0  0  0  0
 37 26  1  0  0  0  0
 40 41  1  0  0  0  0
 41 47  1  0  0  0  0
 41 46  1  0  0  0  0
 42 41  1  0  0  0  0
 42 43  1  0  0  0  0
 44 42  2  0  0  0  0
 45 40  1  0  0  0  0
M  END
$$$$
