YMK.pdb
 OpenBabel07022419223D

 61 61  0  0  1  0  0  0  0  0999 V2000
    3.8530   -1.8350    7.2850 O   0  0  0  0  0  0  0  0  0  0  0  0
    3.4610   -1.3880    6.0060 C   0  0  0  0  0  0  0  0  0  0  0  0
    2.6510   -2.1760    5.2200 C   0  0  0  0  0  0  0  0  0  0  0  0
    2.2570   -1.7390    3.9470 C   0  0  0  0  0  0  0  0  0  0  0  0
    2.6720   -0.5220    3.4640 C   0  0  0  0  0  0  0  0  0  0  0  0
    2.2790   -0.0280    2.1340 C   0  0  0  0  0  0  0  0  0  0  0  0
    0.9930    0.7510    2.2980 C   0  0  2  0  0  0  0  0  0  0  0  0
   -0.0700   -0.0610    2.8320 N   0  0  0  0  0  0  0  0  0  0  0  0
    0.5350    1.3420    1.0130 C   0  0  0  0  0  0  0  0  0  0  0  0
    1.2850    2.0990    0.3380 O   0  0  0  0  0  0  0  0  0  0  0  0
    3.4790    0.2500    4.2610 C   0  0  0  0  0  0  0  0  0  0  0  0
    3.8760   -0.1730    5.5270 C   0  0  0  0  0  0  0  0  0  0  0  0
    3.6360   -1.2900    8.1160 H   0  0  0  0  0  0  0  0  0  0  0  0
    2.3390   -3.1280    5.6210 H   0  0  0  0  0  0  0  0  0  0  0  0
    1.6240   -2.3820    3.3620 H   0  0  0  0  0  0  0  0  0  0  0  0
    2.0920   -0.8760    1.4290 H   0  0  0  0  0  0  0  0  0  0  0  0
    3.0590    0.5840    1.6820 H   0  0  0  0  0  0  0  0  0  0  0  0
    1.1220    1.6100    2.9980 H   0  0  0  0  0  0  0  0  0  0  0  0
   -0.1150   -1.0190    2.4250 H   0  0  0  0  0  0  0  0  0  0  0  0
    0.0080   -0.1720    3.8660 H   0  0  0  0  0  0  0  0  0  0  0  0
    3.8010    1.2070    3.8750 H   0  0  0  0  0  0  0  0  0  0  0  0
    4.5100    0.4610    6.1220 H   0  0  0  0  0  0  0  0  0  0  0  0
    0.0020    6.7570   -0.8790 C   0  0  0  0  0  0  0  0  0  0  0  0
   -0.0410    5.2090   -1.8280 S   0  0  0  0  0  0  0  0  0  0  0  0
   -0.7830    3.9260   -0.7640 C   0  0  0  0  0  0  0  0  0  0  0  0
   -0.8580    2.6030   -1.4750 C   0  0  0  0  0  0  0  0  0  0  0  0
   -1.4120    1.5140   -0.6300 C   0  0  2  0  0  0  0  0  0  0  0  0
   -0.7370    1.0760    0.5190 N   0  0  0  0  0  0  0  0  0  0  0  0
   -1.9770    0.3860   -1.3840 C   0  0  0  0  0  0  0  0  0  0  0  0
   -2.6400    0.5460   -2.4520 O   0  0  0  0  0  0  0  0  0  0  0  0
    0.6120    6.5420    0.0340 H   0  0  0  0  0  0  0  0  0  0  0  0
    0.5290    7.5400   -1.4670 H   0  0  0  0  0  0  0  0  0  0  0  0
   -0.9880    7.1420   -0.6320 H   0  0  0  0  0  0  0  0  0  0  0  0
   -1.8690    4.3200   -0.6420 H   0  0  0  0  0  0  0  0  0  0  0  0
   -0.4280    3.9370    0.2630 H   0  0  0  0  0  0  0  0  0  0  0  0
   -1.6100    2.7520   -2.3090 H   0  0  0  0  0  0  0  0  0  0  0  0
    0.0790    2.3420   -2.0020 H   0  0  0  0  0  0  0  0  0  0  0  0
   -2.3490    2.0730   -0.1800 H   0  0  0  0  0  0  0  0  0  0  0  0
   -1.3290    0.4100    1.1290 H   0  0  0  0  0  0  0  0  0  0  0  0
   -1.8320   -0.9690   -0.9910 N   0  0  0  0  0  0  0  0  0  0  0  0
   -2.4110   -2.0940   -1.7670 C   0  0  1  0  0  0  0  0  0  0  0  0
   -1.3380   -2.9340   -2.2800 C   0  0  0  0  0  0  0  0  0  0  0  0
   -1.4420   -4.1000   -3.0920 C   0  0  0  0  0  0  0  0  0  0  0  0
   -2.1420   -5.3420   -2.7380 C   0  0  0  0  0  0  0  0  0  0  0  0
   -1.5810   -5.9490   -1.4430 C   0  0  0  0  0  0  0  0  0  0  0  0
   -0.1710   -6.2560   -1.6020 N   0  0  0  0  0  0  0  0  0  0  0  0
   -3.3720   -2.6540   -0.8050 C   0  0  0  0  0  0  0  0  0  0  0  0
   -3.4870   -2.2410    0.3710 O   0  0  0  0  0  0  0  0  0  0  0  0
   -4.2130   -3.6790   -1.1570 O   0  0  0  0  0  0  0  0  0  0  0  0
   -1.2970   -1.1810   -0.1220 H   0  0  0  0  0  0  0  0  0  0  0  0
   -2.9200   -1.6030   -2.6290 H   0  0  0  0  0  0  0  0  0  0  0  0
   -0.6760   -3.1730   -1.3690 H   0  0  0  0  0  0  0  0  0  0  0  0
   -0.6450   -2.2000   -2.8280 H   0  0  0  0  0  0  0  0  0  0  0  0
   -1.8370   -3.8220   -4.1380 H   0  0  0  0  0  0  0  0  0  0  0  0
   -0.3900   -4.4330   -3.4100 H   0  0  0  0  0  0  0  0  0  0  0  0
   -3.2180   -5.4030   -2.8330 H   0  0  0  0  0  0  0  0  0  0  0  0
   -1.8270   -6.1540   -3.5070 H   0  0  0  0  0  0  0  0  0  0  0  0
   -1.7770   -5.2850   -0.5790 H   0  0  0  0  0  0  0  0  0  0  0  0
   -2.0780   -6.9150   -1.2150 H   0  0  0  0  0  0  0  0  0  0  0  0
    0.3620   -5.9490   -0.7550 H   0  0  0  0  0  0  0  0  0  0  0  0
    0.0150   -7.2140   -1.9090 H   0  0  0  0  0  0  0  0  0  0  0  0
  1 13  1  0  0  0  0
  2  1  1  0  0  0  0
  3 14  1  0  0  0  0
  3  2  2  0  0  0  0
  4  3  1  0  0  0  0
  5  4  2  0  0  0  0
  5 11  1  0  0  0  0
  6  7  1  0  0  0  0
  6  5  1  0  0  0  0
  7  8  1  0  0  0  0
  7 18  1  1  0  0  0
  8 20  1  0  0  0  0
  9  7  1  0  0  0  0
 10  9  2  0  0  0  0
 11 12  2  0  0  0  0
 12  2  1  0  0  0  0
 12 22  1  0  0  0  0
 15  4  1  0  0  0  0
 16  6  1  0  0  0  0
 17  6  1  0  0  0  0
 19  8  1  0  0  0  0
 21 11  1  0  0  0  0
 23 33  1  0  0  0  0
 23 31  1  0  0  0  0
 24 23  1  0  0  0  0
 24 25  1  0  0  0  0
 25 34  1  0  0  0  0
 25 35  1  0  0  0  0
 26 25  1  0  0  0  0
 26 27  1  0  0  0  0
 27 38  1  1  0  0  0
 27 28  1  0  0  0  0
 28  9  1  0  0  0  0
 28 39  1  0  0  0  0
 29 40  1  0  0  0  0
 29 27  1  0  0  0  0
 30 29  2  0  0  0  0
 32 23  1  0  0  0  0
 36 26  1  0  0  0  0
 37 26  1  0  0  0  0
 40 50  1  0  0  0  0
 41 51  1  6  0  0  0
 41 40  1  0  0  0  0
 41 47  1  0  0  0  0
 42 41  1  0  0  0  0
 42 52  1  0  0  0  0
 43 44  1  0  0  0  0
 43 42  1  0  0  0  0
 44 45  1  0  0  0  0
 45 59  1  0  0  0  0
 45 58  1  0  0  0  0
 46 45  1  0  0  0  0
 46 60  1  0  0  0  0
 47 48  1  0  0  0  0
 49 47  2  0  0  0  0
 53 42  1  0  0  0  0
 54 43  1  0  0  0  0
 55 43  1  0  0  0  0
 56 44  1  0  0  0  0
 57 44  1  0  0  0  0
 61 46  1  0  0  0  0
M  END
$$$$
