YMM.pdb
 OpenBabel07022419223D

 57 57  0  0  1  0  0  0  0  0999 V2000
    3.9060   -4.7280    1.4670 O   0  0  0  0  0  0  0  0  0  0  0  0
    3.6950   -3.4500    0.9660 C   0  0  0  0  0  0  0  0  0  0  0  0
    2.6160   -3.2370    0.1250 C   0  0  0  0  0  0  0  0  0  0  0  0
    2.3990   -1.9750   -0.3770 C   0  0  0  0  0  0  0  0  0  0  0  0
    3.2210   -0.9280   -0.0700 C   0  0  0  0  0  0  0  0  0  0  0  0
    2.9700    0.4120   -0.6570 C   0  0  0  0  0  0  0  0  0  0  0  0
    2.1490    1.3530    0.1070 C   0  0  2  0  0  0  0  0  0  0  0  0
    2.6360    1.6780    1.4380 N   0  0  0  0  0  0  0  0  0  0  0  0
    0.6940    1.1650    0.1600 C   0  0  0  0  0  0  0  0  0  0  0  0
    0.0690    1.1090   -0.9210 O   0  0  0  0  0  0  0  0  0  0  0  0
    4.2860   -1.1470    0.7630 C   0  0  0  0  0  0  0  0  0  0  0  0
    4.5170   -2.3940    1.2720 C   0  0  0  0  0  0  0  0  0  0  0  0
    3.8030   -4.9200    2.4600 H   0  0  0  0  0  0  0  0  0  0  0  0
    1.9440   -4.0560   -0.1410 H   0  0  0  0  0  0  0  0  0  0  0  0
    1.5180   -1.8450   -1.0420 H   0  0  0  0  0  0  0  0  0  0  0  0
    3.9360    0.8900   -0.9000 H   0  0  0  0  0  0  0  0  0  0  0  0
    2.4800    0.2300   -1.6400 H   0  0  0  0  0  0  0  0  0  0  0  0
    2.3170    2.3700   -0.4510 H   0  0  0  0  0  0  0  0  0  0  0  0
    2.3670    2.6790    1.7070 H   0  0  0  0  0  0  0  0  0  0  0  0
    3.6810    1.6710    1.4670 H   0  0  0  0  0  0  0  0  0  0  0  0
    4.9440   -0.3240    1.0210 H   0  0  0  0  0  0  0  0  0  0  0  0
    5.3690   -2.5930    1.9430 H   0  0  0  0  0  0  0  0  0  0  0  0
   -2.3570    3.5270   -2.3950 C   0  0  0  0  0  0  0  0  0  0  0  0
   -2.7700    4.0090   -0.7090 S   0  0  0  0  0  0  0  0  0  0  0  0
   -1.8140    3.1380    0.5380 C   0  0  0  0  0  0  0  0  0  0  0  0
   -2.1870    1.6760    0.4750 C   0  0  0  0  0  0  0  0  0  0  0  0
   -1.3820    0.9280    1.5620 C   0  0  2  0  0  0  0  0  0  0  0  0
    0.0080    1.0550    1.3740 N   0  0  0  0  0  0  0  0  0  0  0  0
   -1.8520   -0.4560    1.5580 C   0  0  0  0  0  0  0  0  0  0  0  0
   -3.0970   -0.7070    1.8050 O   0  0  0  0  0  0  0  0  0  0  0  0
   -2.6730    4.3600   -3.0760 H   0  0  0  0  0  0  0  0  0  0  0  0
   -2.9440    2.6240   -2.6470 H   0  0  0  0  0  0  0  0  0  0  0  0
   -1.2900    3.2940   -2.5310 H   0  0  0  0  0  0  0  0  0  0  0  0
   -0.7250    3.2780    0.4170 H   0  0  0  0  0  0  0  0  0  0  0  0
   -2.0720    3.5810    1.5210 H   0  0  0  0  0  0  0  0  0  0  0  0
   -2.1600    1.2120   -0.4950 H   0  0  0  0  0  0  0  0  0  0  0  0
   -3.2470    1.6120    0.8620 H   0  0  0  0  0  0  0  0  0  0  0  0
   -1.7180    1.5240    2.4870 H   0  0  0  0  0  0  0  0  0  0  0  0
    0.6030    1.0720    2.2680 H   0  0  0  0  0  0  0  0  0  0  0  0
   -3.7820   -1.9530   -1.0960 C   0  0  0  0  0  0  0  0  0  0  0  0
   -3.0010   -3.4680   -1.5770 S   0  0  0  0  0  0  0  0  0  0  0  0
   -1.3170   -3.7120   -1.0230 C   0  0  0  0  0  0  0  0  0  0  0  0
   -1.2180   -3.9620    0.4340 C   0  0  0  0  0  0  0  0  0  0  0  0
   -1.6760   -2.9070    1.3180 C   0  0  2  0  0  0  0  0  0  0  0  0
   -1.0980   -1.6160    1.3070 N   0  0  0  0  0  0  0  0  0  0  0  0
   -1.5680   -3.4850    2.7490 C   0  0  0  0  0  0  0  0  0  0  0  0
   -2.0230   -4.6290    2.9610 O   0  0  0  0  0  0  0  0  0  0  0  0
   -0.9930   -2.7720    3.7580 O   0  0  0  0  0  0  0  0  0  0  0  0
   -4.4770   -1.6120   -1.9430 H   0  0  0  0  0  0  0  0  0  0  0  0
   -3.0790   -1.1180   -0.8900 H   0  0  0  0  0  0  0  0  0  0  0  0
   -4.4450   -2.0710   -0.2290 H   0  0  0  0  0  0  0  0  0  0  0  0
   -0.9720   -4.6710   -1.5320 H   0  0  0  0  0  0  0  0  0  0  0  0
   -0.6530   -2.8890   -1.3720 H   0  0  0  0  0  0  0  0  0  0  0  0
   -1.9510   -4.8320    0.6020 H   0  0  0  0  0  0  0  0  0  0  0  0
   -0.2630   -4.4660    0.7310 H   0  0  0  0  0  0  0  0  0  0  0  0
   -2.7780   -2.7880    1.2410 H   0  0  0  0  0  0  0  0  0  0  0  0
   -0.0750   -1.5390    1.1050 H   0  0  0  0  0  0  0  0  0  0  0  0
  1 13  1  0  0  0  0
  2 12  1  0  0  0  0
  2  1  1  0  0  0  0
  3  2  2  0  0  0  0
  4  5  2  0  0  0  0
  4  3  1  0  0  0  0
  5 11  1  0  0  0  0
  6  5  1  0  0  0  0
  6  7  1  0  0  0  0
  7 18  1  6  0  0  0
  7  9  1  0  0  0  0
  7  8  1  0  0  0  0
  8 20  1  0  0  0  0
  8 19  1  0  0  0  0
  9 28  1  0  0  0  0
 10  9  2  0  0  0  0
 11 21  1  0  0  0  0
 11 12  2  0  0  0  0
 12 22  1  0  0  0  0
 14  3  1  0  0  0  0
 15  4  1  0  0  0  0
 16  6  1  0  0  0  0
 17  6  1  0  0  0  0
 23 24  1  0  0  0  0
 24 25  1  0  0  0  0
 25 35  1  0  0  0  0
 26 25  1  0  0  0  0
 26 37  1  0  0  0  0
 26 27  1  0  0  0  0
 27 38  1  1  0  0  0
 28 27  1  0  0  0  0
 28 39  1  0  0  0  0
 29 27  1  0  0  0  0
 29 30  2  0  0  0  0
 31 23  1  0  0  0  0
 32 23  1  0  0  0  0
 33 23  1  0  0  0  0
 34 25  1  0  0  0  0
 36 26  1  0  0  0  0
 40 50  1  0  0  0  0
 40 51  1  0  0  0  0
 41 40  1  0  0  0  0
 41 42  1  0  0  0  0
 42 43  1  0  0  0  0
 43 54  1  0  0  0  0
 43 55  1  0  0  0  0
 43 44  1  0  0  0  0
 44 56  1  6  0  0  0
 44 46  1  0  0  0  0
 45 44  1  0  0  0  0
 45 29  1  0  0  0  0
 46 47  2  0  0  0  0
 46 48  1  0  0  0  0
 49 40  1  0  0  0  0
 52 42  1  0  0  0  0
 53 42  1  0  0  0  0
 57 45  1  0  0  0  0
M  END
$$$$
