YMR.pdb
 OpenBabel07022419223D

 63 63  0  0  1  0  0  0  0  0999 V2000
    4.7190   -1.4150    5.8880 O   0  0  0  0  0  0  0  0  0  0  0  0
    4.8230   -0.8030    4.6310 C   0  0  0  0  0  0  0  0  0  0  0  0
    5.2370    0.5080    4.5010 C   0  0  0  0  0  0  0  0  0  0  0  0
    5.3400    1.1090    3.2710 C   0  0  0  0  0  0  0  0  0  0  0  0
    5.0260    0.4050    2.1250 C   0  0  0  0  0  0  0  0  0  0  0  0
    5.1350    1.0610    0.7960 C   0  0  0  0  0  0  0  0  0  0  0  0
    3.8220    1.7260    0.4030 C   0  0  2  0  0  0  0  0  0  0  0  0
    3.4700    2.7170    1.3700 N   0  0  0  0  0  0  0  0  0  0  0  0
    2.7590    0.7060    0.1920 C   0  0  0  0  0  0  0  0  0  0  0  0
    3.0390   -0.1850   -0.6600 O   0  0  0  0  0  0  0  0  0  0  0  0
    4.6090   -0.9010    2.2080 C   0  0  0  0  0  0  0  0  0  0  0  0
    4.5170   -1.4810    3.4760 C   0  0  0  0  0  0  0  0  0  0  0  0
    3.8650   -1.8670    6.1870 H   0  0  0  0  0  0  0  0  0  0  0  0
    5.4760    1.0380    5.4080 H   0  0  0  0  0  0  0  0  0  0  0  0
    5.6740    2.1540    3.2220 H   0  0  0  0  0  0  0  0  0  0  0  0
    5.5120    0.3850    0.0150 H   0  0  0  0  0  0  0  0  0  0  0  0
    5.8800    1.8880    0.9060 H   0  0  0  0  0  0  0  0  0  0  0  0
    3.9960    2.2220   -0.5710 H   0  0  0  0  0  0  0  0  0  0  0  0
    4.2850    3.3510    1.5330 H   0  0  0  0  0  0  0  0  0  0  0  0
    2.6730    3.3230    1.0660 H   0  0  0  0  0  0  0  0  0  0  0  0
    4.3470   -1.5130    1.3500 H   0  0  0  0  0  0  0  0  0  0  0  0
    4.1920   -2.4980    3.5490 H   0  0  0  0  0  0  0  0  0  0  0  0
   -1.7690    1.7610    2.3190 C   0  0  0  0  0  0  0  0  0  0  0  0
   -1.5960    0.2010    3.1380 S   0  0  0  0  0  0  0  0  0  0  0  0
   -0.0260   -0.6030    3.0820 C   0  0  0  0  0  0  0  0  0  0  0  0
    0.3850   -1.1950    1.7860 C   0  0  0  0  0  0  0  0  0  0  0  0
    0.5490   -0.3060    0.6270 C   0  0  2  0  0  0  0  0  0  0  0  0
    1.5200    0.7050    0.8760 N   0  0  0  0  0  0  0  0  0  0  0  0
   -0.6360    0.0930   -0.1320 C   0  0  0  0  0  0  0  0  0  0  0  0
   -0.7970    1.2620   -0.6300 O   0  0  0  0  0  0  0  0  0  0  0  0
   -2.3210    2.4790    2.9980 H   0  0  0  0  0  0  0  0  0  0  0  0
   -2.4940    1.6240    1.4670 H   0  0  0  0  0  0  0  0  0  0  0  0
   -0.8620    2.2130    1.9170 H   0  0  0  0  0  0  0  0  0  0  0  0
    0.8120    0.0490    3.5070 H   0  0  0  0  0  0  0  0  0  0  0  0
   -0.0700   -1.4490    3.8520 H   0  0  0  0  0  0  0  0  0  0  0  0
   -0.3440   -2.0310    1.5570 H   0  0  0  0  0  0  0  0  0  0  0  0
    1.3810   -1.7310    1.9650 H   0  0  0  0  0  0  0  0  0  0  0  0
    1.1060   -1.0130   -0.1480 H   0  0  0  0  0  0  0  0  0  0  0  0
    1.3780    1.4890    1.5650 H   0  0  0  0  0  0  0  0  0  0  0  0
   -6.8960   -2.6400   -3.9200 N   0  0  0  0  0  0  0  0  0  0  0  0
   -5.7690   -3.4130   -3.5410 C   0  0  0  0  0  0  0  0  0  0  0  0
   -5.9180   -4.3830   -2.7060 N   0  0  0  0  0  0  0  0  0  0  0  0
   -4.4710   -3.1560   -4.0540 N   0  0  0  0  0  0  0  0  0  0  0  0
   -3.2740   -3.5740   -3.3530 C   0  0  0  0  0  0  0  0  0  0  0  0
   -3.1240   -2.7720   -2.0730 C   0  0  0  0  0  0  0  0  0  0  0  0
   -3.0110   -1.3050   -2.3400 C   0  0  0  0  0  0  0  0  0  0  0  0
   -2.8610   -0.4790   -1.0890 C   0  0  2  0  0  0  0  0  0  0  0  0
   -1.6730   -0.8530   -0.3380 N   0  0  0  0  0  0  0  0  0  0  0  0
   -4.0880   -0.6200   -0.2730 C   0  0  0  0  0  0  0  0  0  0  0  0
   -3.9530   -1.0210    0.9200 O   0  0  0  0  0  0  0  0  0  0  0  0
   -5.3510   -0.3450   -0.7270 O   0  0  0  0  0  0  0  0  0  0  0  0
   -6.8610   -1.9680   -4.7080 H   0  0  0  0  0  0  0  0  0  0  0  0
   -7.7940   -2.7370   -3.4030 H   0  0  0  0  0  0  0  0  0  0  0  0
   -5.1920   -5.0100   -2.3550 H   0  0  0  0  0  0  0  0  0  0  0  0
   -4.4390   -2.6460   -4.9680 H   0  0  0  0  0  0  0  0  0  0  0  0
   -3.3640   -4.6600   -3.1590 H   0  0  0  0  0  0  0  0  0  0  0  0
   -2.3780   -3.4620   -4.0110 H   0  0  0  0  0  0  0  0  0  0  0  0
   -2.2970   -3.1590   -1.4440 H   0  0  0  0  0  0  0  0  0  0  0  0
   -4.0630   -2.9760   -1.4850 H   0  0  0  0  0  0  0  0  0  0  0  0
   -2.1380   -1.1050   -3.0020 H   0  0  0  0  0  0  0  0  0  0  0  0
   -3.8980   -0.9600   -2.9100 H   0  0  0  0  0  0  0  0  0  0  0  0
   -2.7820    0.6010   -1.3690 H   0  0  0  0  0  0  0  0  0  0  0  0
   -1.6140   -1.8430    0.0370 H   0  0  0  0  0  0  0  0  0  0  0  0
  1 13  1  0  0  0  0
  2  1  1  0  0  0  0
  3  2  1  0  0  0  0
  3 14  1  0  0  0  0
  4  3  2  0  0  0  0
  5 11  2  0  0  0  0
  5  4  1  0  0  0  0
  6 17  1  0  0  0  0
  6  5  1  0  0  0  0
  7 18  1  6  0  0  0
  7  6  1  0  0  0  0
  7  8  1  0  0  0  0
  8 19  1  0  0  0  0
  9  7  1  0  0  0  0
  9 28  1  0  0  0  0
 10  9  2  0  0  0  0
 11 12  1  0  0  0  0
 12 22  1  0  0  0  0
 12  2  2  0  0  0  0
 15  4  1  0  0  0  0
 16  6  1  0  0  0  0
 20  8  1  0  0  0  0
 21 11  1  0  0  0  0
 23 31  1  0  0  0  0
 23 24  1  0  0  0  0
 25 24  1  0  0  0  0
 25 34  1  0  0  0  0
 25 35  1  0  0  0  0
 26 37  1  0  0  0  0
 26 25  1  0  0  0  0
 27 38  1  6  0  0  0
 27 28  1  0  0  0  0
 27 26  1  0  0  0  0
 28 39  1  0  0  0  0
 29 27  1  0  0  0  0
 30 29  2  0  0  0  0
 32 23  1  0  0  0  0
 33 23  1  0  0  0  0
 36 26  1  0  0  0  0
 40 41  1  0  0  0  0
 40 53  1  0  0  0  0
 41 42  2  0  0  0  0
 42 54  1  0  0  0  0
 43 41  1  0  0  0  0
 43 44  1  0  0  0  0
 44 56  1  0  0  0  0
 44 45  1  0  0  0  0
 45 59  1  0  0  0  0
 45 58  1  0  0  0  0
 46 45  1  0  0  0  0
 46 47  1  0  0  0  0
 47 62  1  6  0  0  0
 47 48  1  0  0  0  0
 47 49  1  0  0  0  0
 48 29  1  0  0  0  0
 48 63  1  0  0  0  0
 49 50  1  0  0  0  0
 51 49  2  0  0  0  0
 52 40  1  0  0  0  0
 55 43  1  0  0  0  0
 57 44  1  0  0  0  0
 60 46  1  0  0  0  0
 61 46  1  0  0  0  0
M  END
$$$$
