YMS.pdb
 OpenBabel07022419223D

 51 51  0  0  1  0  0  0  0  0999 V2000
    3.4380   -5.5860    3.1200 O   0  0  0  0  0  0  0  0  0  0  0  0
    3.4410   -4.3820    2.4030 C   0  0  0  0  0  0  0  0  0  0  0  0
    2.3990   -4.0580    1.5660 C   0  0  0  0  0  0  0  0  0  0  0  0
    2.4410   -2.8640    0.8800 C   0  0  0  0  0  0  0  0  0  0  0  0
    3.4940   -1.9980    1.0130 C   0  0  0  0  0  0  0  0  0  0  0  0
    3.5190   -0.7380    0.2800 C   0  0  0  0  0  0  0  0  0  0  0  0
    2.9330    0.4430    0.9630 C   0  0  2  0  0  0  0  0  0  0  0  0
    3.6220    0.7290    2.2340 N   0  0  0  0  0  0  0  0  0  0  0  0
    1.5040    0.4390    1.2160 C   0  0  0  0  0  0  0  0  0  0  0  0
    1.0520    0.5350    2.3920 O   0  0  0  0  0  0  0  0  0  0  0  0
    4.5220   -2.3500    1.8570 C   0  0  0  0  0  0  0  0  0  0  0  0
    4.5190   -3.5360    2.5630 C   0  0  0  0  0  0  0  0  0  0  0  0
    3.6650   -5.5660    4.1050 H   0  0  0  0  0  0  0  0  0  0  0  0
    1.5480   -4.7520    1.4550 H   0  0  0  0  0  0  0  0  0  0  0  0
    1.5980   -2.6390    0.2220 H   0  0  0  0  0  0  0  0  0  0  0  0
    3.0720   -0.8150   -0.7420 H   0  0  0  0  0  0  0  0  0  0  0  0
    4.6020   -0.4900    0.0850 H   0  0  0  0  0  0  0  0  0  0  0  0
    3.2110    1.3370    0.3210 H   0  0  0  0  0  0  0  0  0  0  0  0
    3.4270    1.7330    2.4440 H   0  0  0  0  0  0  0  0  0  0  0  0
    4.6420    0.6500    2.0530 H   0  0  0  0  0  0  0  0  0  0  0  0
    5.3960   -1.7040    2.0110 H   0  0  0  0  0  0  0  0  0  0  0  0
    5.3430   -3.8100    3.2350 H   0  0  0  0  0  0  0  0  0  0  0  0
   -1.5860    4.8020   -1.3630 C   0  0  0  0  0  0  0  0  0  0  0  0
   -1.8330    4.3130    0.3340 S   0  0  0  0  0  0  0  0  0  0  0  0
   -1.0450    2.7550    0.7650 C   0  0  0  0  0  0  0  0  0  0  0  0
   -1.6420    1.5700    0.0540 C   0  0  0  0  0  0  0  0  0  0  0  0
   -0.9030    0.3410    0.4960 C   0  0  2  0  0  0  0  0  0  0  0  0
    0.4900    0.3350    0.2250 N   0  0  0  0  0  0  0  0  0  0  0  0
   -1.5120   -0.8920   -0.0400 C   0  0  0  0  0  0  0  0  0  0  0  0
   -0.8060   -1.7290   -0.6420 O   0  0  0  0  0  0  0  0  0  0  0  0
   -1.2630    5.8850   -1.3610 H   0  0  0  0  0  0  0  0  0  0  0  0
   -2.5450    4.7820   -1.9010 H   0  0  0  0  0  0  0  0  0  0  0  0
   -0.7700    4.2650   -1.8850 H   0  0  0  0  0  0  0  0  0  0  0  0
    0.0720    2.7990    0.6590 H   0  0  0  0  0  0  0  0  0  0  0  0
   -1.2120    2.5910    1.8560 H   0  0  0  0  0  0  0  0  0  0  0  0
   -2.6840    1.4580    0.4410 H   0  0  0  0  0  0  0  0  0  0  0  0
   -1.7310    1.6890   -1.0210 H   0  0  0  0  0  0  0  0  0  0  0  0
   -1.0220    0.3440    1.6190 H   0  0  0  0  0  0  0  0  0  0  0  0
    0.8030    0.2490   -0.7670 H   0  0  0  0  0  0  0  0  0  0  0  0
   -5.1560   -2.5690    1.3590 O   0  0  0  0  0  0  0  0  0  0  0  0
   -4.1590   -3.2310    0.6450 C   0  0  0  0  0  0  0  0  0  0  0  0
   -3.5340   -2.3660   -0.4020 C   0  0  2  0  0  0  0  0  0  0  0  0
   -2.9110   -1.1850    0.1020 N   0  0  0  0  0  0  0  0  0  0  0  0
   -4.5290   -2.0930   -1.4700 C   0  0  0  0  0  0  0  0  0  0  0  0
   -5.1820   -2.9960   -2.0380 O   0  0  0  0  0  0  0  0  0  0  0  0
   -4.7590   -0.7870   -1.8710 O   0  0  0  0  0  0  0  0  0  0  0  0
   -5.4140   -3.1080    2.1480 H   0  0  0  0  0  0  0  0  0  0  0  0
   -3.3840   -3.6560    1.3260 H   0  0  0  0  0  0  0  0  0  0  0  0
   -4.6340   -4.0930    0.1310 H   0  0  0  0  0  0  0  0  0  0  0  0
   -2.7300   -2.9800   -0.8920 H   0  0  0  0  0  0  0  0  0  0  0  0
   -3.4500   -0.4370    0.6200 H   0  0  0  0  0  0  0  0  0  0  0  0
  1 13  1  0  0  0  0
  2 12  1  0  0  0  0
  2  1  1  0  0  0  0
  3  2  2  0  0  0  0
  4  5  2  0  0  0  0
  4  3  1  0  0  0  0
  5 11  1  0  0  0  0
  6  7  1  0  0  0  0
  6  5  1  0  0  0  0
  7 18  1  6  0  0  0
  7  9  1  0  0  0  0
  7  8  1  0  0  0  0
  8 19  1  0  0  0  0
  9 10  2  0  0  0  0
 11 21  1  0  0  0  0
 11 12  2  0  0  0  0
 12 22  1  0  0  0  0
 14  3  1  0  0  0  0
 15  4  1  0  0  0  0
 16  6  1  0  0  0  0
 17  6  1  0  0  0  0
 20  8  1  0  0  0  0
 23 31  1  0  0  0  0
 23 24  1  0  0  0  0
 24 25  1  0  0  0  0
 25 35  1  0  0  0  0
 26 36  1  0  0  0  0
 26 27  1  0  0  0  0
 26 25  1  0  0  0  0
 27 38  1  1  0  0  0
 28 27  1  0  0  0  0
 28  9  1  0  0  0  0
 29 43  1  0  0  0  0
 29 27  1  0  0  0  0
 30 29  2  0  0  0  0
 32 23  1  0  0  0  0
 33 23  1  0  0  0  0
 34 25  1  0  0  0  0
 37 26  1  0  0  0  0
 39 28  1  0  0  0  0
 40 47  1  0  0  0  0
 41 48  1  0  0  0  0
 41 40  1  0  0  0  0
 42 50  1  6  0  0  0
 42 43  1  0  0  0  0
 42 41  1  0  0  0  0
 43 51  1  0  0  0  0
 44 42  1  0  0  0  0
 45 44  2  0  0  0  0
 46 44  1  0  0  0  0
 49 41  1  0  0  0  0
M  END
$$$$
