YMV.pdb
 OpenBabel07022419223D

 56 56  0  0  1  0  0  0  0  0999 V2000
   -1.1510   -3.7880    5.6900 O   0  0  0  0  0  0  0  0  0  0  0  0
   -0.2700   -3.2150    4.7640 C   0  0  0  0  0  0  0  0  0  0  0  0
   -0.6210   -3.0140    3.4490 C   0  0  0  0  0  0  0  0  0  0  0  0
    0.2870   -2.4370    2.5480 C   0  0  0  0  0  0  0  0  0  0  0  0
    1.5420   -2.0610    2.9600 C   0  0  0  0  0  0  0  0  0  0  0  0
    2.4910   -1.4560    2.0080 C   0  0  0  0  0  0  0  0  0  0  0  0
    2.4130    0.0310    1.9220 C   0  0  2  0  0  0  0  0  0  0  0  0
    2.6700    0.6180    3.2320 N   0  0  0  0  0  0  0  0  0  0  0  0
    1.2260    0.6030    1.3100 C   0  0  0  0  0  0  0  0  0  0  0  0
    0.4570    1.2900    2.0340 O   0  0  0  0  0  0  0  0  0  0  0  0
    1.9100   -2.2620    4.2970 C   0  0  0  0  0  0  0  0  0  0  0  0
    0.9990   -2.8230    5.1310 C   0  0  0  0  0  0  0  0  0  0  0  0
   -2.1240   -3.8310    5.4100 H   0  0  0  0  0  0  0  0  0  0  0  0
   -1.6110   -3.3140    3.1390 H   0  0  0  0  0  0  0  0  0  0  0  0
   -0.0550   -2.3080    1.5330 H   0  0  0  0  0  0  0  0  0  0  0  0
    2.3480   -1.8750    0.9930 H   0  0  0  0  0  0  0  0  0  0  0  0
    3.5210   -1.7210    2.3220 H   0  0  0  0  0  0  0  0  0  0  0  0
    3.2950    0.3560    1.2940 H   0  0  0  0  0  0  0  0  0  0  0  0
    3.6940    0.8120    3.3790 H   0  0  0  0  0  0  0  0  0  0  0  0
    2.0910    1.4720    3.3850 H   0  0  0  0  0  0  0  0  0  0  0  0
    2.9030   -1.9460    4.5510 H   0  0  0  0  0  0  0  0  0  0  0  0
    1.2800   -2.9790    6.1660 H   0  0  0  0  0  0  0  0  0  0  0  0
    2.1900    4.2320   -3.1450 C   0  0  0  0  0  0  0  0  0  0  0  0
    0.9620    4.7040   -1.8960 S   0  0  0  0  0  0  0  0  0  0  0  0
    0.6150    3.2840   -0.8590 C   0  0  0  0  0  0  0  0  0  0  0  0
   -0.0740    2.1570   -1.6060 C   0  0  0  0  0  0  0  0  0  0  0  0
   -0.3140    1.0270   -0.6460 C   0  0  2  0  0  0  0  0  0  0  0  0
    0.8330    0.4720   -0.0470 N   0  0  0  0  0  0  0  0  0  0  0  0
   -1.1640   -0.0330   -1.2250 C   0  0  0  0  0  0  0  0  0  0  0  0
   -2.2620    0.2860   -1.7740 O   0  0  0  0  0  0  0  0  0  0  0  0
    3.0410    3.6790   -2.7120 H   0  0  0  0  0  0  0  0  0  0  0  0
    2.5600    5.1300   -3.7010 H   0  0  0  0  0  0  0  0  0  0  0  0
    1.7000    3.5070   -3.8540 H   0  0  0  0  0  0  0  0  0  0  0  0
   -0.0190    3.6280   -0.0160 H   0  0  0  0  0  0  0  0  0  0  0  0
    1.5480    2.8700   -0.3740 H   0  0  0  0  0  0  0  0  0  0  0  0
   -1.0790    2.5460   -1.8830 H   0  0  0  0  0  0  0  0  0  0  0  0
    0.4220    1.8840   -2.5300 H   0  0  0  0  0  0  0  0  0  0  0  0
   -0.9290    1.4960    0.1810 H   0  0  0  0  0  0  0  0  0  0  0  0
    1.4720   -0.0900   -0.6550 H   0  0  0  0  0  0  0  0  0  0  0  0
   -3.4410   -2.0910   -0.2250 C   0  0  0  0  0  0  0  0  0  0  0  0
   -2.4190   -3.0840   -0.6930 C   0  0  0  0  0  0  0  0  0  0  0  0
   -3.0350   -4.4030   -1.0740 C   0  0  0  0  0  0  0  0  0  0  0  0
   -1.4950   -2.5130   -1.7090 C   0  0  2  0  0  0  0  0  0  0  0  0
   -0.7810   -1.3920   -1.1820 N   0  0  0  0  0  0  0  0  0  0  0  0
   -2.1040   -2.2980   -3.0490 C   0  0  0  0  0  0  0  0  0  0  0  0
   -2.8420   -3.1690   -3.5830 O   0  0  0  0  0  0  0  0  0  0  0  0
   -1.9000   -1.1520   -3.7830 O   0  0  0  0  0  0  0  0  0  0  0  0
   -4.1510   -2.6640    0.4410 H   0  0  0  0  0  0  0  0  0  0  0  0
   -2.9310   -1.3060    0.3600 H   0  0  0  0  0  0  0  0  0  0  0  0
   -4.0450   -1.6960   -1.0620 H   0  0  0  0  0  0  0  0  0  0  0  0
   -1.7820   -3.3110    0.2130 H   0  0  0  0  0  0  0  0  0  0  0  0
   -2.2410   -5.1080   -1.3610 H   0  0  0  0  0  0  0  0  0  0  0  0
   -3.5210   -4.7990   -0.1440 H   0  0  0  0  0  0  0  0  0  0  0  0
   -3.8190   -4.3490   -1.8290 H   0  0  0  0  0  0  0  0  0  0  0  0
   -0.7060   -3.3310   -1.9200 H   0  0  0  0  0  0  0  0  0  0  0  0
    0.1540   -1.5890   -0.6990 H   0  0  0  0  0  0  0  0  0  0  0  0
  2 12  1  0  0  0  0
  2  1  1  0  0  0  0
  3  2  2  0  0  0  0
  4  5  2  0  0  0  0
  4  3  1  0  0  0  0
  5 11  1  0  0  0  0
  6 17  1  0  0  0  0
  6  5  1  0  0  0  0
  7 18  1  6  0  0  0
  7  6  1  0  0  0  0
  7  8  1  0  0  0  0
  8 19  1  0  0  0  0
  8 20  1  0  0  0  0
  9  7  1  0  0  0  0
  9 10  2  0  0  0  0
 11 21  1  0  0  0  0
 11 12  2  0  0  0  0
 12 22  1  0  0  0  0
 13  1  1  0  0  0  0
 14  3  1  0  0  0  0
 15  4  1  0  0  0  0
 16  6  1  0  0  0  0
 23 31  1  0  0  0  0
 23 24  1  0  0  0  0
 24 25  1  0  0  0  0
 25 35  1  0  0  0  0
 25 34  1  0  0  0  0
 26 25  1  0  0  0  0
 26 27  1  0  0  0  0
 27 28  1  0  0  0  0
 27 38  1  1  0  0  0
 28  9  1  0  0  0  0
 29 44  1  0  0  0  0
 29 27  1  0  0  0  0
 30 29  2  0  0  0  0
 32 23  1  0  0  0  0
 33 23  1  0  0  0  0
 36 26  1  0  0  0  0
 37 26  1  0  0  0  0
 39 28  1  0  0  0  0
 40 49  1  0  0  0  0
 40 48  1  0  0  0  0
 41 40  1  0  0  0  0
 41 51  1  0  0  0  0
 42 41  1  0  0  0  0
 42 53  1  0  0  0  0
 43 55  1  6  0  0  0
 43 44  1  0  0  0  0
 43 41  1  0  0  0  0
 44 56  1  0  0  0  0
 45 43  1  0  0  0  0
 46 45  1  0  0  0  0
 47 45  2  0  0  0  0
 50 40  1  0  0  0  0
 52 42  1  0  0  0  0
 54 42  1  0  0  0  0
M  END
$$$$
