YNC.pdb
 OpenBabel07022419203D

 48 48  0  0  1  0  0  0  0  0999 V2000
    0.2480   -4.8500   -1.3780 O   0  0  0  0  0  0  0  0  0  0  0  0
    1.1030   -3.7840   -1.0370 C   0  0  0  0  0  0  0  0  0  0  0  0
    1.8140   -3.0810   -1.9840 C   0  0  0  0  0  0  0  0  0  0  0  0
    2.6330   -2.0510   -1.5940 C   0  0  0  0  0  0  0  0  0  0  0  0
    2.7880   -1.6700   -0.2800 C   0  0  0  0  0  0  0  0  0  0  0  0
    3.6450   -0.6110    0.2030 C   0  0  0  0  0  0  0  0  0  0  0  0
    3.2260    0.7680    0.3080 C   0  0  2  0  0  0  0  0  0  0  0  0
    4.3910    1.5100    0.8560 N   0  0  0  0  0  0  0  0  0  0  0  0
    2.0620    1.2060    1.0080 C   0  0  0  0  0  0  0  0  0  0  0  0
    2.1900    1.9050    2.0560 O   0  0  0  0  0  0  0  0  0  0  0  0
    2.0450   -2.4150    0.6390 C   0  0  0  0  0  0  0  0  0  0  0  0
    1.2180   -3.4480    0.2970 C   0  0  0  0  0  0  0  0  0  0  0  0
    0.5060   -5.7570   -1.0010 H   0  0  0  0  0  0  0  0  0  0  0  0
    1.6770   -3.3970   -3.0180 H   0  0  0  0  0  0  0  0  0  0  0  0
    3.1760   -1.5190   -2.3520 H   0  0  0  0  0  0  0  0  0  0  0  0
    4.5690   -0.6420   -0.4620 H   0  0  0  0  0  0  0  0  0  0  0  0
    4.0750   -0.9770    1.1890 H   0  0  0  0  0  0  0  0  0  0  0  0
    3.1660    1.2190   -0.7360 H   0  0  0  0  0  0  0  0  0  0  0  0
    4.6290    1.0250    1.7390 H   0  0  0  0  0  0  0  0  0  0  0  0
    4.0610    2.4950    0.9870 H   0  0  0  0  0  0  0  0  0  0  0  0
    2.1360   -2.1510    1.6910 H   0  0  0  0  0  0  0  0  0  0  0  0
    0.6450   -4.0200    1.0290 H   0  0  0  0  0  0  0  0  0  0  0  0
   -3.2640    3.6370   -0.0860 N   0  0  0  0  0  0  0  0  0  0  0  0
   -2.4050    2.8510    0.7900 C   0  0  0  0  0  0  0  0  0  0  0  0
   -2.8520    2.7600    1.9490 O   0  0  0  0  0  0  0  0  0  0  0  0
   -1.1830    2.2660    0.3110 C   0  0  0  0  0  0  0  0  0  0  0  0
   -0.4860    1.3420    1.2830 C   0  0  2  0  0  0  0  0  0  0  0  0
    0.7720    0.9110    0.6020 N   0  0  0  0  0  0  0  0  0  0  0  0
   -1.1800    0.0510    1.4950 C   0  0  0  0  0  0  0  0  0  0  0  0
   -0.8370   -0.9860    0.7970 O   0  0  0  0  0  0  0  0  0  0  0  0
   -4.1980    3.2590   -0.2880 H   0  0  0  0  0  0  0  0  0  0  0  0
   -2.9060    4.5310   -0.4650 H   0  0  0  0  0  0  0  0  0  0  0  0
   -1.4300    1.6270   -0.6000 H   0  0  0  0  0  0  0  0  0  0  0  0
   -0.4570    3.0100   -0.1200 H   0  0  0  0  0  0  0  0  0  0  0  0
   -0.1870    1.7930    2.2210 H   0  0  0  0  0  0  0  0  0  0  0  0
    0.6370    0.3520   -0.2340 H   0  0  0  0  0  0  0  0  0  0  0  0
   -2.2200   -0.2280    2.4090 N   0  0  0  0  0  0  0  0  0  0  0  0
   -2.8200   -1.5650    2.4960 C   0  0  1  0  0  0  0  0  0  0  0  0
   -3.6020   -1.9080    1.2590 C   0  0  0  0  0  0  0  0  0  0  0  0
   -4.3390   -3.5490    1.3650 S   0  0  0  0  0  0  0  0  0  0  0  0
   -1.8280   -2.6210    2.7730 C   0  0  0  0  0  0  0  0  0  0  0  0
   -2.2690   -3.8000    2.8480 O   0  0  0  0  0  0  0  0  0  0  0  0
   -0.4800   -2.4090    2.9530 O   0  0  0  0  0  0  0  0  0  0  0  0
   -2.5360    0.5340    3.0440 H   0  0  0  0  0  0  0  0  0  0  0  0
   -3.5600   -1.5110    3.3300 H   0  0  0  0  0  0  0  0  0  0  0  0
   -4.3980   -1.1380    1.0680 H   0  0  0  0  0  0  0  0  0  0  0  0
   -2.9500   -1.8750    0.3670 H   0  0  0  0  0  0  0  0  0  0  0  0
   -4.4980   -4.0740    0.0690 H   0  0  0  0  0  0  0  0  0  0  0  0
  1  2  1  0  0  0  0
  1 13  1  0  0  0  0
  2 12  1  0  0  0  0
  3  4  1  0  0  0  0
  3  2  2  0  0  0  0
  4  5  2  0  0  0  0
  5  6  1  0  0  0  0
  5 11  1  0  0  0  0
  6  7  1  0  0  0  0
  6 17  1  0  0  0  0
  7 18  1  6  0  0  0
  7  8  1  0  0  0  0
  7  9  1  0  0  0  0
  8 20  1  0  0  0  0
  8 19  1  0  0  0  0
  9 10  2  0  0  0  0
 11 21  1  0  0  0  0
 12 11  2  0  0  0  0
 12 22  1  0  0  0  0
 14  3  1  0  0  0  0
 15  4  1  0  0  0  0
 16  6  1  0  0  0  0
 23 24  1  0  0  0  0
 24 25  2  0  0  0  0
 26 24  1  0  0  0  0
 26 27  1  0  0  0  0
 27 29  1  0  0  0  0
 27 35  1  1  0  0  0
 28  9  1  0  0  0  0
 28 27  1  0  0  0  0
 29 37  1  0  0  0  0
 30 29  2  0  0  0  0
 31 23  1  0  0  0  0
 32 23  1  0  0  0  0
 33 26  1  0  0  0  0
 34 26  1  0  0  0  0
 36 28  1  0  0  0  0
 37 38  1  0  0  0  0
 37 44  1  0  0  0  0
 38 41  1  0  0  0  0
 38 45  1  1  0  0  0
 39 40  1  0  0  0  0
 39 38  1  0  0  0  0
 41 42  2  0  0  0  0
 41 43  1  0  0  0  0
 46 39  1  0  0  0  0
 47 39  1  0  0  0  0
 48 40  1  0  0  0  0
M  END
$$$$
