YND.pdb
 OpenBabel07022419203D

 50 50  0  0  1  0  0  0  0  0999 V2000
   -2.2370   -0.6770    4.8590 O   0  0  0  0  0  0  0  0  0  0  0  0
   -0.9800   -0.6230    4.2460 C   0  0  0  0  0  0  0  0  0  0  0  0
   -0.2520   -1.7770    4.0120 C   0  0  0  0  0  0  0  0  0  0  0  0
    0.9780   -1.7530    3.4150 C   0  0  0  0  0  0  0  0  0  0  0  0
    1.5560   -0.5740    3.0160 C   0  0  0  0  0  0  0  0  0  0  0  0
    2.8840   -0.4930    2.4010 C   0  0  0  0  0  0  0  0  0  0  0  0
    2.9700   -0.7190    0.9340 C   0  0  2  0  0  0  0  0  0  0  0  0
    4.3680   -0.5900    0.5100 N   0  0  0  0  0  0  0  0  0  0  0  0
    2.1440    0.2840    0.2020 C   0  0  0  0  0  0  0  0  0  0  0  0
    2.6640    1.2310   -0.4230 O   0  0  0  0  0  0  0  0  0  0  0  0
    0.8180    0.5950    3.2540 C   0  0  0  0  0  0  0  0  0  0  0  0
   -0.4190    0.5770    3.8540 C   0  0  0  0  0  0  0  0  0  0  0  0
   -2.3570   -1.2030    5.7190 H   0  0  0  0  0  0  0  0  0  0  0  0
   -0.7280   -2.7100    4.3350 H   0  0  0  0  0  0  0  0  0  0  0  0
    1.4970   -2.6810    3.2570 H   0  0  0  0  0  0  0  0  0  0  0  0
    3.2640    0.5510    2.5780 H   0  0  0  0  0  0  0  0  0  0  0  0
    3.5380   -1.1970    2.9850 H   0  0  0  0  0  0  0  0  0  0  0  0
    2.6400   -1.7330    0.6900 H   0  0  0  0  0  0  0  0  0  0  0  0
    4.9420   -1.1900    1.1130 H   0  0  0  0  0  0  0  0  0  0  0  0
    4.3990   -0.8680   -0.5060 H   0  0  0  0  0  0  0  0  0  0  0  0
    1.2230    1.5480    2.9670 H   0  0  0  0  0  0  0  0  0  0  0  0
   -0.9920    1.4860    4.0390 H   0  0  0  0  0  0  0  0  0  0  0  0
    1.4590    4.1600   -1.1620 N   0  0  0  0  0  0  0  0  0  0  0  0
    0.7640    3.0990   -0.5080 C   0  0  0  0  0  0  0  0  0  0  0  0
    0.7590    3.0530    0.7500 O   0  0  0  0  0  0  0  0  0  0  0  0
    0.0470    2.0520   -1.2520 C   0  0  0  0  0  0  0  0  0  0  0  0
   -0.2880    0.9050   -0.3400 C   0  0  2  0  0  0  0  0  0  0  0  0
    0.7440    0.1420    0.2210 N   0  0  0  0  0  0  0  0  0  0  0  0
   -1.4340    0.1210   -0.7800 C   0  0  0  0  0  0  0  0  0  0  0  0
   -2.4990    0.6520   -1.2340 O   0  0  0  0  0  0  0  0  0  0  0  0
    1.8200    3.9910   -2.1120 H   0  0  0  0  0  0  0  0  0  0  0  0
    1.5910    5.0630   -0.6860 H   0  0  0  0  0  0  0  0  0  0  0  0
   -0.9420    2.5000   -1.5460 H   0  0  0  0  0  0  0  0  0  0  0  0
    0.5310    1.7540   -2.1920 H   0  0  0  0  0  0  0  0  0  0  0  0
   -0.6600    1.5340    0.5790 H   0  0  0  0  0  0  0  0  0  0  0  0
    0.3640   -0.7140    0.7810 H   0  0  0  0  0  0  0  0  0  0  0  0
   -1.4320   -1.2910   -0.7310 N   0  0  0  0  0  0  0  0  0  0  0  0
   -2.6070   -2.0220   -1.1860 C   0  0  1  0  0  0  0  0  0  0  0  0
   -2.2850   -3.0850   -2.1930 C   0  0  0  0  0  0  0  0  0  0  0  0
   -1.3670   -4.0960   -1.6550 C   0  0  0  0  0  0  0  0  0  0  0  0
   -0.9120   -4.1250   -0.4870 O   0  0  0  0  0  0  0  0  0  0  0  0
   -3.1920   -2.7340    0.0050 C   0  0  0  0  0  0  0  0  0  0  0  0
   -4.2170   -3.4380   -0.1130 O   0  0  0  0  0  0  0  0  0  0  0  0
   -0.9420   -5.1360   -2.4990 O   0  0  0  0  0  0  0  0  0  0  0  0
   -2.6330   -2.6460    1.2740 O   0  0  0  0  0  0  0  0  0  0  0  0
   -0.6210   -1.8540   -0.3900 H   0  0  0  0  0  0  0  0  0  0  0  0
   -3.4020   -1.3550   -1.5440 H   0  0  0  0  0  0  0  0  0  0  0  0
   -1.8320   -2.6730   -3.1180 H   0  0  0  0  0  0  0  0  0  0  0  0
   -3.2470   -3.5820   -2.4470 H   0  0  0  0  0  0  0  0  0  0  0  0
   -0.2040   -5.7760   -2.2440 H   0  0  0  0  0  0  0  0  0  0  0  0
  1 13  1  0  0  0  0
  2  1  1  0  0  0  0
  3  2  1  0  0  0  0
  3 14  1  0  0  0  0
  4  3  2  0  0  0  0
  5 11  2  0  0  0  0
  5  4  1  0  0  0  0
  6 16  1  0  0  0  0
  6 17  1  0  0  0  0
  6  5  1  0  0  0  0
  7 18  1  6  0  0  0
  7  6  1  0  0  0  0
  8  7  1  0  0  0  0
  8 19  1  0  0  0  0
  9 28  1  0  0  0  0
  9  7  1  0  0  0  0
 10  9  2  0  0  0  0
 11 12  1  0  0  0  0
 12 22  1  0  0  0  0
 12  2  2  0  0  0  0
 15  4  1  0  0  0  0
 20  8  1  0  0  0  0
 21 11  1  0  0  0  0
 23 32  1  0  0  0  0
 23 24  1  0  0  0  0
 24 25  2  0  0  0  0
 26 24  1  0  0  0  0
 26 27  1  0  0  0  0
 27 28  1  0  0  0  0
 27 35  1  1  0  0  0
 28 36  1  0  0  0  0
 29 37  1  0  0  0  0
 29 27  1  0  0  0  0
 30 29  2  0  0  0  0
 31 23  1  0  0  0  0
 33 26  1  0  0  0  0
 34 26  1  0  0  0  0
 37 46  1  0  0  0  0
 38 47  1  6  0  0  0
 38 37  1  0  0  0  0
 38 42  1  0  0  0  0
 39 40  1  0  0  0  0
 39 38  1  0  0  0  0
 40 41  2  0  0  0  0
 42 45  1  0  0  0  0
 43 42  2  0  0  0  0
 44 50  1  0  0  0  0
 44 40  1  0  0  0  0
 48 39  1  0  0  0  0
 49 39  1  0  0  0  0
M  END
$$$$
