YNI.pdb
 OpenBabel07022419203D

 56 56  0  0  1  0  0  0  0  0999 V2000
    1.9480   -1.3940    8.0710 O   0  0  0  0  0  0  0  0  0  0  0  0
    1.8540   -0.9800    6.7600 C   0  0  0  0  0  0  0  0  0  0  0  0
    2.8260   -0.2250    6.1650 C   0  0  0  0  0  0  0  0  0  0  0  0
    2.6770    0.1650    4.8350 C   0  0  0  0  0  0  0  0  0  0  0  0
    1.5680   -0.1950    4.1040 C   0  0  0  0  0  0  0  0  0  0  0  0
    1.5070    0.2750    2.6940 C   0  0  0  0  0  0  0  0  0  0  0  0
    2.1670   -0.7500    1.7980 C   0  0  2  0  0  0  0  0  0  0  0  0
    3.5360   -0.9300    2.1820 N   0  0  0  0  0  0  0  0  0  0  0  0
    2.1010   -0.3050    0.3590 C   0  0  0  0  0  0  0  0  0  0  0  0
    3.1660   -0.1170   -0.2380 O   0  0  0  0  0  0  0  0  0  0  0  0
    0.6060   -0.9500    4.7130 C   0  0  0  0  0  0  0  0  0  0  0  0
    0.7410   -1.3460    6.0370 C   0  0  0  0  0  0  0  0  0  0  0  0
    1.4220   -2.1550    8.4650 H   0  0  0  0  0  0  0  0  0  0  0  0
    3.7100    0.0710    6.7220 H   0  0  0  0  0  0  0  0  0  0  0  0
    3.4740    0.7620    4.4120 H   0  0  0  0  0  0  0  0  0  0  0  0
    0.4600    0.4610    2.4410 H   0  0  0  0  0  0  0  0  0  0  0  0
    2.0420    1.2420    2.5730 H   0  0  0  0  0  0  0  0  0  0  0  0
    1.6400   -1.7140    1.8510 H   0  0  0  0  0  0  0  0  0  0  0  0
    3.9920   -1.5610    1.4710 H   0  0  0  0  0  0  0  0  0  0  0  0
    4.0560   -0.0300    2.1790 H   0  0  0  0  0  0  0  0  0  0  0  0
   -0.2710   -1.2280    4.1140 H   0  0  0  0  0  0  0  0  0  0  0  0
   -0.0290   -1.9420    6.5030 H   0  0  0  0  0  0  0  0  0  0  0  0
    3.7770    2.2010   -2.4350 N   0  0  0  0  0  0  0  0  0  0  0  0
    2.5150    1.7860   -1.9550 C   0  0  0  0  0  0  0  0  0  0  0  0
    2.0020    2.4550   -1.0090 O   0  0  0  0  0  0  0  0  0  0  0  0
    1.7830    0.6410   -2.4870 C   0  0  0  0  0  0  0  0  0  0  0  0
    0.6060    0.3150   -1.5850 C   0  0  2  0  0  0  0  0  0  0  0  0
    0.8710   -0.1110   -0.2840 N   0  0  0  0  0  0  0  0  0  0  0  0
   -0.4960   -0.3690   -2.2840 C   0  0  0  0  0  0  0  0  0  0  0  0
   -0.8350   -0.0280   -3.4580 O   0  0  0  0  0  0  0  0  0  0  0  0
    4.0640    1.9750   -3.3970 H   0  0  0  0  0  0  0  0  0  0  0  0
    4.4100    2.7310   -1.8170 H   0  0  0  0  0  0  0  0  0  0  0  0
    1.3230    0.9650   -3.4620 H   0  0  0  0  0  0  0  0  0  0  0  0
    2.3980   -0.2390   -2.7190 H   0  0  0  0  0  0  0  0  0  0  0  0
    0.2280    1.4220   -1.4360 H   0  0  0  0  0  0  0  0  0  0  0  0
    0.0230   -0.3190    0.3380 H   0  0  0  0  0  0  0  0  0  0  0  0
   -5.3470   -1.2730   -0.2620 C   0  0  0  0  0  0  0  0  0  0  0  0
   -3.9540   -1.6980   -0.5820 C   0  0  0  0  0  0  0  0  0  0  0  0
   -3.6850   -1.6980   -2.0940 C   0  0  2  0  0  0  0  0  0  0  0  0
   -4.6840   -2.6770   -2.6790 C   0  0  0  0  0  0  0  0  0  0  0  0
   -2.3050   -2.1660   -2.3020 C   0  0  2  0  0  0  0  0  0  0  0  0
   -1.2500   -1.4330   -1.7270 N   0  0  0  0  0  0  0  0  0  0  0  0
   -2.0020   -2.5510   -3.7070 C   0  0  0  0  0  0  0  0  0  0  0  0
   -2.9110   -3.1010   -4.3810 O   0  0  0  0  0  0  0  0  0  0  0  0
   -0.7940   -2.3510   -4.3220 O   0  0  0  0  0  0  0  0  0  0  0  0
   -5.9600   -2.1310    0.1310 H   0  0  0  0  0  0  0  0  0  0  0  0
   -5.8440   -0.8220   -1.1540 H   0  0  0  0  0  0  0  0  0  0  0  0
   -5.3810   -0.5110    0.5630 H   0  0  0  0  0  0  0  0  0  0  0  0
   -3.8090   -2.7260   -0.1830 H   0  0  0  0  0  0  0  0  0  0  0  0
   -3.1700   -1.0810   -0.0800 H   0  0  0  0  0  0  0  0  0  0  0  0
   -3.9320   -0.7230   -2.5400 H   0  0  0  0  0  0  0  0  0  0  0  0
   -5.6010   -2.6340   -2.0560 H   0  0  0  0  0  0  0  0  0  0  0  0
   -4.3330   -3.7180   -2.6350 H   0  0  0  0  0  0  0  0  0  0  0  0
   -5.0140   -2.3650   -3.6930 H   0  0  0  0  0  0  0  0  0  0  0  0
   -2.2530   -3.2100   -1.7930 H   0  0  0  0  0  0  0  0  0  0  0  0
   -0.9590   -1.6980   -0.7280 H   0  0  0  0  0  0  0  0  0  0  0  0
  1 13  1  0  0  0  0
  2  1  1  0  0  0  0
  3 14  1  0  0  0  0
  3  2  1  0  0  0  0
  4  3  2  0  0  0  0
  5 11  2  0  0  0  0
  5  4  1  0  0  0  0
  6  5  1  0  0  0  0
  7 18  1  1  0  0  0
  7  8  1  0  0  0  0
  7  6  1  0  0  0  0
  9  7  1  0  0  0  0
 10  9  2  0  0  0  0
 11 12  1  0  0  0  0
 12 22  1  0  0  0  0
 12  2  2  0  0  0  0
 15  4  1  0  0  0  0
 16  6  1  0  0  0  0
 17  6  1  0  0  0  0
 19  8  1  0  0  0  0
 20  8  1  0  0  0  0
 21 11  1  0  0  0  0
 23 24  1  0  0  0  0
 23 32  1  0  0  0  0
 24 25  2  0  0  0  0
 26 24  1  0  0  0  0
 26 27  1  0  0  0  0
 27 35  1  1  0  0  0
 27 28  1  0  0  0  0
 28 36  1  0  0  0  0
 28  9  1  0  0  0  0
 29 42  1  0  0  0  0
 29 27  1  0  0  0  0
 30 29  2  0  0  0  0
 31 23  1  0  0  0  0
 33 26  1  0  0  0  0
 34 26  1  0  0  0  0
 37 46  1  0  0  0  0
 37 48  1  0  0  0  0
 38 37  1  0  0  0  0
 38 49  1  0  0  0  0
 38 50  1  0  0  0  0
 39 51  1  6  0  0  0
 39 38  1  0  0  0  0
 40 53  1  0  0  0  0
 40 39  1  0  0  0  0
 40 52  1  0  0  0  0
 41 39  1  0  0  0  0
 41 55  1  1  0  0  0
 41 42  1  0  0  0  0
 42 56  1  0  0  0  0
 43 41  1  0  0  0  0
 44 43  2  0  0  0  0
 45 43  1  0  0  0  0
 47 37  1  0  0  0  0
 54 40  1  0  0  0  0
M  END
$$$$
