YNT.pdb
 OpenBabel07022419203D

 51 51  0  0  1  0  0  0  0  0999 V2000
    1.2550   -5.4540    1.4570 O   0  0  0  0  0  0  0  0  0  0  0  0
    1.8670   -4.2250    1.5510 C   0  0  0  0  0  0  0  0  0  0  0  0
    3.1120   -4.0480    0.9700 C   0  0  0  0  0  0  0  0  0  0  0  0
    3.7280   -2.8250    1.0600 C   0  0  0  0  0  0  0  0  0  0  0  0
    3.1410   -1.7560    1.7170 C   0  0  0  0  0  0  0  0  0  0  0  0
    3.8840   -0.4970    1.7990 C   0  0  0  0  0  0  0  0  0  0  0  0
    3.7430    0.4630    0.6780 C   0  0  2  0  0  0  0  0  0  0  0  0
    4.6040    1.6170    1.0560 N   0  0  0  0  0  0  0  0  0  0  0  0
    2.4010    0.9780    0.4050 C   0  0  0  0  0  0  0  0  0  0  0  0
    2.1240    2.1700    0.7740 O   0  0  0  0  0  0  0  0  0  0  0  0
    1.9070   -1.9340    2.2910 C   0  0  0  0  0  0  0  0  0  0  0  0
    1.2840   -3.1400    2.2110 C   0  0  0  0  0  0  0  0  0  0  0  0
    1.1240   -6.1010    2.2190 H   0  0  0  0  0  0  0  0  0  0  0  0
    3.5670   -4.8980    0.4540 H   0  0  0  0  0  0  0  0  0  0  0  0
    4.6990   -2.6890    0.6060 H   0  0  0  0  0  0  0  0  0  0  0  0
    3.6840    0.0420    2.7540 H   0  0  0  0  0  0  0  0  0  0  0  0
    4.9740   -0.7610    1.8630 H   0  0  0  0  0  0  0  0  0  0  0  0
    4.1580    0.0880   -0.2810 H   0  0  0  0  0  0  0  0  0  0  0  0
    4.6320    1.7070    2.0910 H   0  0  0  0  0  0  0  0  0  0  0  0
    4.1630    2.4990    0.7060 H   0  0  0  0  0  0  0  0  0  0  0  0
    1.4440   -1.1170    2.7990 H   0  0  0  0  0  0  0  0  0  0  0  0
    0.3040   -3.3060    2.6590 H   0  0  0  0  0  0  0  0  0  0  0  0
   -1.3810    1.8200   -3.8860 N   0  0  0  0  0  0  0  0  0  0  0  0
   -1.2350    1.6840   -2.4420 C   0  0  0  0  0  0  0  0  0  0  0  0
   -2.2060    2.1220   -1.8060 O   0  0  0  0  0  0  0  0  0  0  0  0
   -0.0110    1.0740   -1.9900 C   0  0  0  0  0  0  0  0  0  0  0  0
    0.0490    0.8060   -0.5100 C   0  0  2  0  0  0  0  0  0  0  0  0
    1.4030    0.2260   -0.2480 N   0  0  0  0  0  0  0  0  0  0  0  0
   -0.8770   -0.1960   -0.0030 C   0  0  0  0  0  0  0  0  0  0  0  0
   -0.4290   -1.4010    0.1270 O   0  0  0  0  0  0  0  0  0  0  0  0
   -1.5340    0.9900   -4.4570 H   0  0  0  0  0  0  0  0  0  0  0  0
   -1.3210    2.7640   -4.2680 H   0  0  0  0  0  0  0  0  0  0  0  0
    0.8430    1.7580   -2.2040 H   0  0  0  0  0  0  0  0  0  0  0  0
    0.1630    0.1550   -2.5920 H   0  0  0  0  0  0  0  0  0  0  0  0
   -0.0170    1.7390    0.0300 H   0  0  0  0  0  0  0  0  0  0  0  0
    1.5270   -0.7390   -0.5790 H   0  0  0  0  0  0  0  0  0  0  0  0
   -4.1760    0.3640    2.4960 C   0  0  0  0  0  0  0  0  0  0  0  0
   -3.4250   -0.9170    2.3000 C   0  0  1  0  0  0  0  0  0  0  0  0
   -4.1840   -1.9680    2.8080 O   0  0  0  0  0  0  0  0  0  0  0  0
   -3.0240   -1.1660    0.8640 C   0  0  2  0  0  0  0  0  0  0  0  0
   -2.2320   -0.0340    0.3840 N   0  0  0  0  0  0  0  0  0  0  0  0
   -4.2260   -1.3860    0.0270 C   0  0  0  0  0  0  0  0  0  0  0  0
   -4.5240   -0.6790   -0.9670 O   0  0  0  0  0  0  0  0  0  0  0  0
   -5.0660   -2.4330    0.3640 O   0  0  0  0  0  0  0  0  0  0  0  0
   -4.9000    0.2210    3.3240 H   0  0  0  0  0  0  0  0  0  0  0  0
   -4.7790    0.6690    1.6090 H   0  0  0  0  0  0  0  0  0  0  0  0
   -3.4980    1.2000    2.8290 H   0  0  0  0  0  0  0  0  0  0  0  0
   -2.5120   -0.8550    2.9460 H   0  0  0  0  0  0  0  0  0  0  0  0
   -3.7460   -2.8500    2.7070 H   0  0  0  0  0  0  0  0  0  0  0  0
   -2.4320   -2.1030    0.8480 H   0  0  0  0  0  0  0  0  0  0  0  0
   -2.6530    0.9070    0.3490 H   0  0  0  0  0  0  0  0  0  0  0  0
  1  2  1  0  0  0  0
  1 13  1  0  0  0  0
  2 12  1  0  0  0  0
  3  4  1  0  0  0  0
  3  2  2  0  0  0  0
  4  5  2  0  0  0  0
  5  6  1  0  0  0  0
  5 11  1  0  0  0  0
  6 17  1  0  0  0  0
  6 16  1  0  0  0  0
  7 18  1  6  0  0  0
  7  8  1  0  0  0  0
  7  6  1  0  0  0  0
  8 19  1  0  0  0  0
  9  7  1  0  0  0  0
  9 10  2  0  0  0  0
 11 21  1  0  0  0  0
 12 11  2  0  0  0  0
 12 22  1  0  0  0  0
 14  3  1  0  0  0  0
 15  4  1  0  0  0  0
 20  8  1  0  0  0  0
 23 24  1  0  0  0  0
 24 26  1  0  0  0  0
 24 25  2  0  0  0  0
 26 27  1  0  0  0  0
 27 28  1  0  0  0  0
 27 29  1  0  0  0  0
 27 35  1  1  0  0  0
 28  9  1  0  0  0  0
 29 30  2  0  0  0  0
 29 41  1  0  0  0  0
 31 23  1  0  0  0  0
 32 23  1  0  0  0  0
 33 26  1  0  0  0  0
 34 26  1  0  0  0  0
 36 28  1  0  0  0  0
 37 47  1  0  0  0  0
 37 45  1  0  0  0  0
 38 37  1  0  0  0  0
 38 39  1  0  0  0  0
 38 48  1  1  0  0  0
 40 50  1  6  0  0  0
 40 38  1  0  0  0  0
 41 40  1  0  0  0  0
 42 44  1  0  0  0  0
 42 40  1  0  0  0  0
 43 42  2  0  0  0  0
 46 37  1  0  0  0  0
 49 39  1  0  0  0  0
 51 41  1  0  0  0  0
M  END
$$$$
