YPD.pdb
 OpenBabel07022419223D

 50 51  0  0  1  0  0  0  0  0999 V2000
    5.0110   -3.4620    4.1160 O   0  0  0  0  0  0  0  0  0  0  0  0
    4.7870   -2.5090    3.1260 C   0  0  0  0  0  0  0  0  0  0  0  0
    4.1680   -2.8210    1.9330 C   0  0  0  0  0  0  0  0  0  0  0  0
    3.9540   -1.8650    0.9620 C   0  0  0  0  0  0  0  0  0  0  0  0
    4.3490   -0.5480    1.1390 C   0  0  0  0  0  0  0  0  0  0  0  0
    4.1020    0.4320    0.0790 C   0  0  0  0  0  0  0  0  0  0  0  0
    2.7710    1.1380    0.1780 C   0  0  2  0  0  0  0  0  0  0  0  0
    2.6030    1.8720    1.3920 N   0  0  0  0  0  0  0  0  0  0  0  0
    1.6420    0.2350   -0.1540 C   0  0  0  0  0  0  0  0  0  0  0  0
    1.7140   -0.4190   -1.2570 O   0  0  0  0  0  0  0  0  0  0  0  0
    4.9690   -0.2240    2.3260 C   0  0  0  0  0  0  0  0  0  0  0  0
    5.1760   -1.1950    3.2890 C   0  0  0  0  0  0  0  0  0  0  0  0
    4.2260   -3.6190    4.7600 H   0  0  0  0  0  0  0  0  0  0  0  0
    3.8320   -3.8260    1.7240 H   0  0  0  0  0  0  0  0  0  0  0  0
    3.4550   -2.1700    0.0280 H   0  0  0  0  0  0  0  0  0  0  0  0
    4.9500    1.1430    0.0490 H   0  0  0  0  0  0  0  0  0  0  0  0
    4.1080   -0.1020   -0.9020 H   0  0  0  0  0  0  0  0  0  0  0  0
    2.8100    1.9220   -0.6420 H   0  0  0  0  0  0  0  0  0  0  0  0
    3.5000    2.2340    1.7830 H   0  0  0  0  0  0  0  0  0  0  0  0
    2.0020    2.7120    1.2280 H   0  0  0  0  0  0  0  0  0  0  0  0
    5.2940    0.8150    2.4920 H   0  0  0  0  0  0  0  0  0  0  0  0
    5.6690   -0.8880    4.2080 H   0  0  0  0  0  0  0  0  0  0  0  0
    0.4860    0.0230    0.6330 N   0  0  0  0  0  0  0  0  0  0  0  0
    0.0840    0.5620    1.9040 C   0  0  0  0  0  0  0  0  0  0  0  0
   -0.8590   -0.4440    2.5010 C   0  0  0  0  0  0  0  0  0  0  0  0
   -0.8070   -1.6340    1.5310 C   0  0  0  0  0  0  0  0  0  0  0  0
   -0.6060   -0.8530    0.2450 C   0  0  1  0  0  0  0  0  0  0  0  0
   -1.8270   -0.0810   -0.0650 C   0  0  0  0  0  0  0  0  0  0  0  0
   -1.9410    1.1610   -0.0260 O   0  0  0  0  0  0  0  0  0  0  0  0
    0.9220    0.8060    2.5840 H   0  0  0  0  0  0  0  0  0  0  0  0
   -0.4960    1.5110    1.7540 H   0  0  0  0  0  0  0  0  0  0  0  0
   -0.6350   -0.7320    3.5250 H   0  0  0  0  0  0  0  0  0  0  0  0
   -1.9140   -0.0970    2.4720 H   0  0  0  0  0  0  0  0  0  0  0  0
    0.0830   -2.2110    1.7900 H   0  0  0  0  0  0  0  0  0  0  0  0
   -1.7430   -2.1960    1.5410 H   0  0  0  0  0  0  0  0  0  0  0  0
   -0.3090   -1.5210   -0.5930 H   0  0  0  0  0  0  0  0  0  0  0  0
   -3.0110   -0.8160   -0.4520 N   0  0  0  0  0  0  0  0  0  0  0  0
   -4.2320   -0.1000   -0.7650 C   0  0  1  0  0  0  0  0  0  0  0  0
   -4.7180   -0.3910   -2.1750 C   0  0  0  0  0  0  0  0  0  0  0  0
   -5.0130   -1.8190   -2.3890 C   0  0  0  0  0  0  0  0  0  0  0  0
   -4.9000   -2.6990   -1.4990 O   0  0  0  0  0  0  0  0  0  0  0  0
   -5.2950   -0.5970    0.1410 C   0  0  0  0  0  0  0  0  0  0  0  0
   -5.0140   -1.4850    0.9750 O   0  0  0  0  0  0  0  0  0  0  0  0
   -5.4520   -2.2990   -3.6380 O   0  0  0  0  0  0  0  0  0  0  0  0
   -6.6000   -0.1280    0.1190 O   0  0  0  0  0  0  0  0  0  0  0  0
   -2.9950   -1.8550   -0.5070 H   0  0  0  0  0  0  0  0  0  0  0  0
   -4.0690    0.9970   -0.6400 H   0  0  0  0  0  0  0  0  0  0  0  0
   -5.6790    0.1760   -2.2810 H   0  0  0  0  0  0  0  0  0  0  0  0
   -3.9640    0.0140   -2.8870 H   0  0  0  0  0  0  0  0  0  0  0  0
   -5.1920   -3.2320   -3.8980 H   0  0  0  0  0  0  0  0  0  0  0  0
  1 13  1  0  0  0  0
  2 12  1  0  0  0  0
  2  1  1  0  0  0  0
  3  2  2  0  0  0  0
  4  5  2  0  0  0  0
  4  3  1  0  0  0  0
  5 11  1  0  0  0  0
  6  7  1  0  0  0  0
  6  5  1  0  0  0  0
  7 18  1  6  0  0  0
  7  8  1  0  0  0  0
  8 19  1  0  0  0  0
  9  7  1  0  0  0  0
  9 23  1  0  0  0  0
 10  9  2  0  0  0  0
 11 21  1  0  0  0  0
 11 12  2  0  0  0  0
 12 22  1  0  0  0  0
 14  3  1  0  0  0  0
 15  4  1  0  0  0  0
 16  6  1  0  0  0  0
 17  6  1  0  0  0  0
 20  8  1  0  0  0  0
 23 24  1  0  0  0  0
 24 25  1  0  0  0  0
 24 30  1  0  0  0  0
 25 32  1  0  0  0  0
 26 35  1  0  0  0  0
 26 34  1  0  0  0  0
 26 25  1  0  0  0  0
 27 36  1  6  0  0  0
 27 23  1  0  0  0  0
 27 26  1  0  0  0  0
 28 29  2  0  0  0  0
 28 27  1  0  0  0  0
 31 24  1  0  0  0  0
 33 25  1  0  0  0  0
 37 28  1  0  0  0  0
 38 47  1  1  0  0  0
 38 37  1  0  0  0  0
 38 42  1  0  0  0  0
 39 38  1  0  0  0  0
 40 39  1  0  0  0  0
 40 41  2  0  0  0  0
 42 43  1  0  0  0  0
 44 40  1  0  0  0  0
 45 42  2  0  0  0  0
 46 37  1  0  0  0  0
 48 39  1  0  0  0  0
 49 39  1  0  0  0  0
 50 44  1  0  0  0  0
M  END
$$$$
