YPE.pdb
 OpenBabel07022419223D

 53 54  0  0  1  0  0  0  0  0999 V2000
   -0.0100    1.6250    6.6410 O   0  0  0  0  0  0  0  0  0  0  0  0
    0.8190    1.4470    5.5290 C   0  0  0  0  0  0  0  0  0  0  0  0
    0.7820    0.2850    4.7790 C   0  0  0  0  0  0  0  0  0  0  0  0
    1.5780    0.0730    3.6820 C   0  0  0  0  0  0  0  0  0  0  0  0
    2.4660    1.0710    3.3020 C   0  0  0  0  0  0  0  0  0  0  0  0
    3.3700    0.9110    2.1430 C   0  0  0  0  0  0  0  0  0  0  0  0
    2.7250    1.2970    0.8400 C   0  0  2  0  0  0  0  0  0  0  0  0
    2.2800    2.6400    0.7780 N   0  0  0  0  0  0  0  0  0  0  0  0
    1.6490    0.3440    0.4750 C   0  0  0  0  0  0  0  0  0  0  0  0
    1.9760   -0.8620    0.4080 O   0  0  0  0  0  0  0  0  0  0  0  0
    2.5180    2.2240    4.0280 C   0  0  0  0  0  0  0  0  0  0  0  0
    1.7050    2.4080    5.1260 C   0  0  0  0  0  0  0  0  0  0  0  0
   -0.1970    0.8270    7.2540 H   0  0  0  0  0  0  0  0  0  0  0  0
    0.0710   -0.4630    5.1180 H   0  0  0  0  0  0  0  0  0  0  0  0
    1.5450   -0.8210    3.1120 H   0  0  0  0  0  0  0  0  0  0  0  0
    3.7020   -0.1550    2.0220 H   0  0  0  0  0  0  0  0  0  0  0  0
    4.2950    1.4800    2.3420 H   0  0  0  0  0  0  0  0  0  0  0  0
    3.5730    1.2080    0.0750 H   0  0  0  0  0  0  0  0  0  0  0  0
    2.6900    3.1650   -0.0200 H   0  0  0  0  0  0  0  0  0  0  0  0
    2.3030    3.2120    1.6150 H   0  0  0  0  0  0  0  0  0  0  0  0
    3.2190    3.0280    3.7590 H   0  0  0  0  0  0  0  0  0  0  0  0
    1.7740    3.3350    5.6770 H   0  0  0  0  0  0  0  0  0  0  0  0
    0.3090    0.7200    0.2050 N   0  0  0  0  0  0  0  0  0  0  0  0
   -0.1700    2.0710    0.3110 C   0  0  0  0  0  0  0  0  0  0  0  0
   -1.6920    1.9800    0.1300 C   0  0  0  0  0  0  0  0  0  0  0  0
   -1.8380    0.7520   -0.7260 C   0  0  0  0  0  0  0  0  0  0  0  0
   -0.7440   -0.1460   -0.2010 C   0  0  1  0  0  0  0  0  0  0  0  0
   -0.3610   -1.1340   -1.2530 C   0  0  0  0  0  0  0  0  0  0  0  0
    0.7380   -1.0560   -1.7990 O   0  0  0  0  0  0  0  0  0  0  0  0
    0.2120    2.7640   -0.4330 H   0  0  0  0  0  0  0  0  0  0  0  0
    0.0400    2.4650    1.3460 H   0  0  0  0  0  0  0  0  0  0  0  0
   -2.1090    2.8860   -0.3260 H   0  0  0  0  0  0  0  0  0  0  0  0
   -2.1220    1.7440    1.1240 H   0  0  0  0  0  0  0  0  0  0  0  0
   -1.6260    1.0560   -1.7850 H   0  0  0  0  0  0  0  0  0  0  0  0
   -2.8480    0.2920   -0.6390 H   0  0  0  0  0  0  0  0  0  0  0  0
   -1.1930   -0.6690    0.6800 H   0  0  0  0  0  0  0  0  0  0  0  0
   -1.2520   -2.1470   -1.6180 N   0  0  0  0  0  0  0  0  0  0  0  0
   -1.0250   -3.1560   -2.5990 C   0  0  1  0  0  0  0  0  0  0  0  0
   -1.1570   -4.5620   -2.1350 C   0  0  0  0  0  0  0  0  0  0  0  0
   -2.5260   -4.8860   -1.5950 C   0  0  0  0  0  0  0  0  0  0  0  0
   -2.5690   -6.2840   -1.1630 C   0  0  0  0  0  0  0  0  0  0  0  0
   -2.7250   -7.2290   -2.0010 O   0  0  0  0  0  0  0  0  0  0  0  0
   -2.0070   -2.9490   -3.6980 C   0  0  0  0  0  0  0  0  0  0  0  0
   -2.8510   -2.0140   -3.6680 O   0  0  0  0  0  0  0  0  0  0  0  0
   -2.4470   -6.6680    0.1640 O   0  0  0  0  0  0  0  0  0  0  0  0
   -2.0520   -3.7700   -4.8160 O   0  0  0  0  0  0  0  0  0  0  0  0
   -2.1860   -2.1750   -1.1240 H   0  0  0  0  0  0  0  0  0  0  0  0
   -0.0030   -3.0440   -3.0520 H   0  0  0  0  0  0  0  0  0  0  0  0
   -1.0190   -5.2120   -3.0360 H   0  0  0  0  0  0  0  0  0  0  0  0
   -0.3430   -4.8860   -1.4400 H   0  0  0  0  0  0  0  0  0  0  0  0
   -2.8650   -4.1710   -0.8200 H   0  0  0  0  0  0  0  0  0  0  0  0
   -3.2410   -4.7650   -2.4480 H   0  0  0  0  0  0  0  0  0  0  0  0
   -2.3590   -7.6530    0.4410 H   0  0  0  0  0  0  0  0  0  0  0  0
  1 13  1  0  0  0  0
  2  1  1  0  0  0  0
  3 14  1  0  0  0  0
  3  2  2  0  0  0  0
  4  3  1  0  0  0  0
  5  4  2  0  0  0  0
  5 11  1  0  0  0  0
  6 17  1  0  0  0  0
  6  5  1  0  0  0  0
  7 18  1  6  0  0  0
  7  6  1  0  0  0  0
  8  7  1  0  0  0  0
  8 20  1  0  0  0  0
  9  7  1  0  0  0  0
 10  9  2  0  0  0  0
 11 12  2  0  0  0  0
 12  2  1  0  0  0  0
 12 22  1  0  0  0  0
 15  4  1  0  0  0  0
 16  6  1  0  0  0  0
 19  8  1  0  0  0  0
 21 11  1  0  0  0  0
 23 24  1  0  0  0  0
 23  9  1  0  0  0  0
 24 31  1  0  0  0  0
 25 24  1  0  0  0  0
 25 33  1  0  0  0  0
 26 35  1  0  0  0  0
 26 27  1  0  0  0  0
 26 25  1  0  0  0  0
 27 23  1  0  0  0  0
 27 36  1  1  0  0  0
 28 27  1  0  0  0  0
 29 28  2  0  0  0  0
 30 24  1  0  0  0  0
 32 25  1  0  0  0  0
 34 26  1  0  0  0  0
 37 28  1  0  0  0  0
 37 47  1  0  0  0  0
 38 48  1  6  0  0  0
 38 39  1  0  0  0  0
 38 37  1  0  0  0  0
 39 40  1  0  0  0  0
 39 50  1  0  0  0  0
 40 41  1  0  0  0  0
 40 51  1  0  0  0  0
 41 45  1  0  0  0  0
 42 41  2  0  0  0  0
 43 44  1  0  0  0  0
 43 38  1  0  0  0  0
 45 53  1  0  0  0  0
 46 43  2  0  0  0  0
 49 39  1  0  0  0  0
 52 40  1  0  0  0  0
M  END
$$$$
