YPK.pdb
 OpenBabel07022419223D

 58 59  0  0  1  0  0  0  0  0999 V2000
   -2.5240    1.1750    5.6620 O   0  0  0  0  0  0  0  0  0  0  0  0
   -1.2450    1.0080    5.1380 C   0  0  0  0  0  0  0  0  0  0  0  0
   -0.5330   -0.1650    5.2970 C   0  0  0  0  0  0  0  0  0  0  0  0
    0.7210   -0.2540    4.7510 C   0  0  0  0  0  0  0  0  0  0  0  0
    1.3050    0.8010    4.0390 C   0  0  0  0  0  0  0  0  0  0  0  0
    2.6380    0.7300    3.4740 C   0  0  0  0  0  0  0  0  0  0  0  0
    2.7540    0.1570    2.0820 C   0  0  2  0  0  0  0  0  0  0  0  0
    4.2180    0.2320    1.8170 N   0  0  0  0  0  0  0  0  0  0  0  0
    2.1290    0.9950    1.0330 C   0  0  0  0  0  0  0  0  0  0  0  0
    2.8320    1.9280    0.4900 O   0  0  0  0  0  0  0  0  0  0  0  0
    0.5610    1.9570    3.9020 C   0  0  0  0  0  0  0  0  0  0  0  0
   -0.6840    2.0460    4.4440 C   0  0  0  0  0  0  0  0  0  0  0  0
   -2.9570    0.4140    6.1660 H   0  0  0  0  0  0  0  0  0  0  0  0
   -1.0160   -0.9600    5.8530 H   0  0  0  0  0  0  0  0  0  0  0  0
    1.2970   -1.1660    4.8640 H   0  0  0  0  0  0  0  0  0  0  0  0
    3.1620    1.7180    3.5250 H   0  0  0  0  0  0  0  0  0  0  0  0
    3.2350    0.0330    4.1290 H   0  0  0  0  0  0  0  0  0  0  0  0
    2.4830   -0.8900    2.0660 H   0  0  0  0  0  0  0  0  0  0  0  0
    4.4190   -0.1490    0.8620 H   0  0  0  0  0  0  0  0  0  0  0  0
    4.4090    1.2700    1.7450 H   0  0  0  0  0  0  0  0  0  0  0  0
    0.9670    2.7960    3.3610 H   0  0  0  0  0  0  0  0  0  0  0  0
   -1.2320    2.9850    4.3060 H   0  0  0  0  0  0  0  0  0  0  0  0
    0.8000    0.8470    0.5680 N   0  0  0  0  0  0  0  0  0  0  0  0
    0.2040    1.7140   -0.4590 C   0  0  0  0  0  0  0  0  0  0  0  0
   -1.2310    1.8640   -0.0130 C   0  0  0  0  0  0  0  0  0  0  0  0
   -1.4810    0.7290    0.9430 C   0  0  0  0  0  0  0  0  0  0  0  0
   -0.2410   -0.0830    0.8720 C   0  0  1  0  0  0  0  0  0  0  0  0
   -0.3340   -1.2080   -0.0970 C   0  0  0  0  0  0  0  0  0  0  0  0
    0.5340   -1.2640   -0.9890 O   0  0  0  0  0  0  0  0  0  0  0  0
    0.7420    2.7030   -0.4640 H   0  0  0  0  0  0  0  0  0  0  0  0
    0.2330    1.2540   -1.4530 H   0  0  0  0  0  0  0  0  0  0  0  0
   -1.3290    2.8120    0.5850 H   0  0  0  0  0  0  0  0  0  0  0  0
   -1.9290    1.8840   -0.8800 H   0  0  0  0  0  0  0  0  0  0  0  0
   -2.3560    0.1630    0.4910 H   0  0  0  0  0  0  0  0  0  0  0  0
   -1.7470    1.0680    1.9680 H   0  0  0  0  0  0  0  0  0  0  0  0
   -0.0660   -0.4810    1.9110 H   0  0  0  0  0  0  0  0  0  0  0  0
   -1.3530   -2.1510    0.0010 N   0  0  0  0  0  0  0  0  0  0  0  0
   -1.6740   -3.2750   -0.7800 C   0  0  1  0  0  0  0  0  0  0  0  0
   -0.9750   -3.4060   -2.1320 C   0  0  0  0  0  0  0  0  0  0  0  0
   -1.4230   -2.2550   -2.9770 C   0  0  0  0  0  0  0  0  0  0  0  0
   -0.8520   -2.2040   -4.3580 C   0  0  0  0  0  0  0  0  0  0  0  0
    0.6250   -2.1020   -4.3950 C   0  0  0  0  0  0  0  0  0  0  0  0
    1.2580   -3.2480   -3.8220 N   0  0  0  0  0  0  0  0  0  0  0  0
   -1.5540   -4.5250   -0.0530 C   0  0  0  0  0  0  0  0  0  0  0  0
   -1.2040   -4.6410    1.1560 O   0  0  0  0  0  0  0  0  0  0  0  0
   -1.8430   -5.7220   -0.7230 O   0  0  0  0  0  0  0  0  0  0  0  0
   -2.0240   -1.9930    0.8310 H   0  0  0  0  0  0  0  0  0  0  0  0
   -2.7960   -3.1080   -1.0580 H   0  0  0  0  0  0  0  0  0  0  0  0
    0.1110   -3.4980   -1.9830 H   0  0  0  0  0  0  0  0  0  0  0  0
   -1.3070   -4.3310   -2.6410 H   0  0  0  0  0  0  0  0  0  0  0  0
   -2.5560   -2.5080   -3.1910 H   0  0  0  0  0  0  0  0  0  0  0  0
   -1.4760   -1.2730   -2.4900 H   0  0  0  0  0  0  0  0  0  0  0  0
   -1.3470   -1.3880   -4.9690 H   0  0  0  0  0  0  0  0  0  0  0  0
   -1.2010   -3.1670   -4.8580 H   0  0  0  0  0  0  0  0  0  0  0  0
    0.9530   -1.2090   -3.8070 H   0  0  0  0  0  0  0  0  0  0  0  0
    0.9600   -1.9590   -5.4550 H   0  0  0  0  0  0  0  0  0  0  0  0
    1.2530   -4.0820   -4.4450 H   0  0  0  0  0  0  0  0  0  0  0  0
    2.2560   -3.0170   -3.5930 H   0  0  0  0  0  0  0  0  0  0  0  0
  1 13  1  0  0  0  0
  2  3  1  0  0  0  0
  2  1  1  0  0  0  0
  3 14  1  0  0  0  0
  4 15  1  0  0  0  0
  4  3  2  0  0  0  0
  5  4  1  0  0  0  0
  6 16  1  0  0  0  0
  6  5  1  0  0  0  0
  6 17  1  0  0  0  0
  7 18  1  6  0  0  0
  7  6  1  0  0  0  0
  8  7  1  0  0  0  0
  9  7  1  0  0  0  0
 10  9  2  0  0  0  0
 11  5  2  0  0  0  0
 11 12  1  0  0  0  0
 12  2  2  0  0  0  0
 19  8  1  0  0  0  0
 20  8  1  0  0  0  0
 21 11  1  0  0  0  0
 22 12  1  0  0  0  0
 23 27  1  0  0  0  0
 23  9  1  0  0  0  0
 24 25  1  0  0  0  0
 24 23  1  0  0  0  0
 25 32  1  0  0  0  0
 25 26  1  0  0  0  0
 26 35  1  0  0  0  0
 27 26  1  0  0  0  0
 27 36  1  1  0  0  0
 28 37  1  0  0  0  0
 28 27  1  0  0  0  0
 29 28  2  0  0  0  0
 30 24  1  0  0  0  0
 31 24  1  0  0  0  0
 33 25  1  0  0  0  0
 34 26  1  0  0  0  0
 37 47  1  0  0  0  0
 38 48  1  6  0  0  0
 38 44  1  0  0  0  0
 38 37  1  0  0  0  0
 39 49  1  0  0  0  0
 39 38  1  0  0  0  0
 40 52  1  0  0  0  0
 40 39  1  0  0  0  0
 41 40  1  0  0  0  0
 42 41  1  0  0  0  0
 42 43  1  0  0  0  0
 42 55  1  0  0  0  0
 43 58  1  0  0  0  0
 44 45  1  0  0  0  0
 46 44  2  0  0  0  0
 50 39  1  0  0  0  0
 51 40  1  0  0  0  0
 53 41  1  0  0  0  0
 54 41  1  0  0  0  0
 56 42  1  0  0  0  0
 57 43  1  0  0  0  0
M  END
$$$$
