YPL.pdb
 OpenBabel07022419223D

 56 57  0  0  1  0  0  0  0  0999 V2000
    4.6930   -2.6150    4.1460 O   0  0  0  0  0  0  0  0  0  0  0  0
    4.2300   -1.5990    3.3130 C   0  0  0  0  0  0  0  0  0  0  0  0
    4.6600   -1.5170    2.0050 C   0  0  0  0  0  0  0  0  0  0  0  0
    4.2180   -0.5220    1.1600 C   0  0  0  0  0  0  0  0  0  0  0  0
    3.3110    0.4530    1.5900 C   0  0  0  0  0  0  0  0  0  0  0  0
    2.8460    1.5110    0.6780 C   0  0  0  0  0  0  0  0  0  0  0  0
    1.5790    1.1430   -0.0950 C   0  0  2  0  0  0  0  0  0  0  0  0
    1.3250    2.3330   -0.9160 N   0  0  0  0  0  0  0  0  0  0  0  0
    0.4260    0.9810    0.8150 C   0  0  0  0  0  0  0  0  0  0  0  0
   -0.1990    2.0600    1.1170 O   0  0  0  0  0  0  0  0  0  0  0  0
    2.8950    0.3500    2.9010 C   0  0  0  0  0  0  0  0  0  0  0  0
    3.3360   -0.6440    3.7490 C   0  0  0  0  0  0  0  0  0  0  0  0
    4.4840   -2.6680    5.1170 H   0  0  0  0  0  0  0  0  0  0  0  0
    5.3670   -2.2640    1.6460 H   0  0  0  0  0  0  0  0  0  0  0  0
    4.5400   -0.4340    0.1270 H   0  0  0  0  0  0  0  0  0  0  0  0
    2.5590    2.4370    1.2570 H   0  0  0  0  0  0  0  0  0  0  0  0
    3.6430    1.8500   -0.0100 H   0  0  0  0  0  0  0  0  0  0  0  0
    1.7290    0.2830   -0.7290 H   0  0  0  0  0  0  0  0  0  0  0  0
    1.5990    2.1940   -1.9020 H   0  0  0  0  0  0  0  0  0  0  0  0
    1.6790    3.1930   -0.4770 H   0  0  0  0  0  0  0  0  0  0  0  0
    2.1850    1.1080    3.2490 H   0  0  0  0  0  0  0  0  0  0  0  0
    2.9970   -0.7070    4.7760 H   0  0  0  0  0  0  0  0  0  0  0  0
   -0.0020   -0.2500    1.3400 N   0  0  0  0  0  0  0  0  0  0  0  0
   -1.1280   -0.3650    2.2800 C   0  0  0  0  0  0  0  0  0  0  0  0
   -1.2140   -1.8010    2.6820 C   0  0  0  0  0  0  0  0  0  0  0  0
    0.0980   -2.4180    2.2860 C   0  0  0  0  0  0  0  0  0  0  0  0
    0.4810   -1.5550    1.0810 C   0  0  1  0  0  0  0  0  0  0  0  0
   -0.1600   -2.2120   -0.0870 C   0  0  0  0  0  0  0  0  0  0  0  0
    0.2080   -3.3770   -0.3830 O   0  0  0  0  0  0  0  0  0  0  0  0
   -2.0480    0.0710    1.8790 H   0  0  0  0  0  0  0  0  0  0  0  0
   -0.9020    0.2150    3.2130 H   0  0  0  0  0  0  0  0  0  0  0  0
   -1.3190   -1.9400    3.7800 H   0  0  0  0  0  0  0  0  0  0  0  0
   -2.0500   -2.2760    2.1640 H   0  0  0  0  0  0  0  0  0  0  0  0
    0.8730   -2.3120    3.0450 H   0  0  0  0  0  0  0  0  0  0  0  0
    0.0140   -3.4830    2.0120 H   0  0  0  0  0  0  0  0  0  0  0  0
    1.5730   -1.6670    0.9730 H   0  0  0  0  0  0  0  0  0  0  0  0
   -4.1510   -0.2490   -2.6170 C   0  0  0  0  0  0  0  0  0  0  0  0
   -4.1520   -1.3050   -1.5310 C   0  0  0  0  0  0  0  0  0  0  0  0
   -4.0300   -0.6500   -0.2080 C   0  0  0  0  0  0  0  0  0  0  0  0
   -3.2490   -2.4440   -1.8120 C   0  0  0  0  0  0  0  0  0  0  0  0
   -1.8000   -2.1500   -1.9900 C   0  0  2  0  0  0  0  0  0  0  0  0
   -1.1580   -1.5370   -0.8430 N   0  0  0  0  0  0  0  0  0  0  0  0
   -1.4860   -1.4480   -3.2440 C   0  0  0  0  0  0  0  0  0  0  0  0
   -0.7410   -0.4440   -3.2320 O   0  0  0  0  0  0  0  0  0  0  0  0
   -1.9930   -1.8630   -4.4580 O   0  0  0  0  0  0  0  0  0  0  0  0
   -5.0340    0.4250   -2.4080 H   0  0  0  0  0  0  0  0  0  0  0  0
   -4.3120   -0.6470   -3.6190 H   0  0  0  0  0  0  0  0  0  0  0  0
   -3.2660    0.4140   -2.5210 H   0  0  0  0  0  0  0  0  0  0  0  0
   -5.2020   -1.7440   -1.5850 H   0  0  0  0  0  0  0  0  0  0  0  0
   -3.5610    0.3520   -0.2130 H   0  0  0  0  0  0  0  0  0  0  0  0
   -3.4420   -1.2830    0.4860 H   0  0  0  0  0  0  0  0  0  0  0  0
   -5.0600   -0.4610    0.2210 H   0  0  0  0  0  0  0  0  0  0  0  0
   -3.3870   -3.1910   -0.9930 H   0  0  0  0  0  0  0  0  0  0  0  0
   -3.6310   -2.9610   -2.7260 H   0  0  0  0  0  0  0  0  0  0  0  0
   -1.3060   -3.1680   -2.0970 H   0  0  0  0  0  0  0  0  0  0  0  0
   -1.3890   -0.5730   -0.5150 H   0  0  0  0  0  0  0  0  0  0  0  0
  1 13  1  0  0  0  0
  2 12  1  0  0  0  0
  2  1  1  0  0  0  0
  3  2  2  0  0  0  0
  4  5  2  0  0  0  0
  4  3  1  0  0  0  0
  5 11  1  0  0  0  0
  6 16  1  0  0  0  0
  6  5  1  0  0  0  0
  7 18  1  6  0  0  0
  7  6  1  0  0  0  0
  7  9  1  0  0  0  0
  8 20  1  0  0  0  0
  8  7  1  0  0  0  0
  9 10  2  0  0  0  0
  9 23  1  0  0  0  0
 11 21  1  0  0  0  0
 11 12  2  0  0  0  0
 12 22  1  0  0  0  0
 14  3  1  0  0  0  0
 15  4  1  0  0  0  0
 17  6  1  0  0  0  0
 19  8  1  0  0  0  0
 23 24  1  0  0  0  0
 24 25  1  0  0  0  0
 24 31  1  0  0  0  0
 25 32  1  0  0  0  0
 26 25  1  0  0  0  0
 26 34  1  0  0  0  0
 27 36  1  6  0  0  0
 27 23  1  0  0  0  0
 27 26  1  0  0  0  0
 28 27  1  0  0  0  0
 29 28  2  0  0  0  0
 30 24  1  0  0  0  0
 33 25  1  0  0  0  0
 35 26  1  0  0  0  0
 37 48  1  0  0  0  0
 37 46  1  0  0  0  0
 37 38  1  0  0  0  0
 38 39  1  0  0  0  0
 39 52  1  0  0  0  0
 39 51  1  0  0  0  0
 40 38  1  0  0  0  0
 40 53  1  0  0  0  0
 41 55  1  6  0  0  0
 41 40  1  0  0  0  0
 41 42  1  0  0  0  0
 42 56  1  0  0  0  0
 42 28  1  0  0  0  0
 43 44  1  0  0  0  0
 43 41  1  0  0  0  0
 45 43  2  0  0  0  0
 47 37  1  0  0  0  0
 49 38  1  0  0  0  0
 50 39  1  0  0  0  0
 54 40  1  0  0  0  0
M  END
$$$$
