YPS.pdb
 OpenBabel07022419223D

 48 49  0  0  1  0  0  0  0  0999 V2000
    6.0890   -2.4720   -1.8460 O   0  0  0  0  0  0  0  0  0  0  0  0
    5.4010   -1.5990   -0.9940 C   0  0  0  0  0  0  0  0  0  0  0  0
    4.6530   -2.0650    0.0690 C   0  0  0  0  0  0  0  0  0  0  0  0
    3.9950   -1.1700    0.8780 C   0  0  0  0  0  0  0  0  0  0  0  0
    4.0340    0.1950    0.6900 C   0  0  0  0  0  0  0  0  0  0  0  0
    3.3090    1.1140    1.5860 C   0  0  0  0  0  0  0  0  0  0  0  0
    1.9040    1.4280    1.1410 C   0  0  2  0  0  0  0  0  0  0  0  0
    1.3260    2.3270    2.1030 N   0  0  0  0  0  0  0  0  0  0  0  0
    1.0480    0.2530    0.9580 C   0  0  0  0  0  0  0  0  0  0  0  0
    1.4030   -0.6200    0.0990 O   0  0  0  0  0  0  0  0  0  0  0  0
    4.7880    0.6580   -0.3820 C   0  0  0  0  0  0  0  0  0  0  0  0
    5.4620   -0.2380   -1.2120 C   0  0  0  0  0  0  0  0  0  0  0  0
    6.7160   -3.1840   -1.4410 H   0  0  0  0  0  0  0  0  0  0  0  0
    4.6280   -3.1430    0.2090 H   0  0  0  0  0  0  0  0  0  0  0  0
    3.4210   -1.5680    1.6990 H   0  0  0  0  0  0  0  0  0  0  0  0
    3.8530    2.0800    1.6380 H   0  0  0  0  0  0  0  0  0  0  0  0
    3.2780    0.7310    2.6430 H   0  0  0  0  0  0  0  0  0  0  0  0
    1.9850    1.9590    0.1690 H   0  0  0  0  0  0  0  0  0  0  0  0
    0.7220    3.0590    1.6670 H   0  0  0  0  0  0  0  0  0  0  0  0
    2.0320    2.7350    2.7570 H   0  0  0  0  0  0  0  0  0  0  0  0
    4.8370    1.7190   -0.5520 H   0  0  0  0  0  0  0  0  0  0  0  0
    6.0510    0.1170   -2.0480 H   0  0  0  0  0  0  0  0  0  0  0  0
   -0.1590    0.0040    1.6670 N   0  0  0  0  0  0  0  0  0  0  0  0
   -0.7790    0.8210    2.6950 C   0  0  0  0  0  0  0  0  0  0  0  0
   -1.8510   -0.0290    3.3170 C   0  0  0  0  0  0  0  0  0  0  0  0
   -1.5940   -1.4400    2.8050 C   0  0  0  0  0  0  0  0  0  0  0  0
   -0.9990   -1.1460    1.4640 C   0  0  1  0  0  0  0  0  0  0  0  0
   -2.1470   -0.8210    0.5470 C   0  0  0  0  0  0  0  0  0  0  0  0
   -2.2870    0.3280    0.0600 O   0  0  0  0  0  0  0  0  0  0  0  0
   -0.0720    1.0740    3.5180 H   0  0  0  0  0  0  0  0  0  0  0  0
   -1.1870    1.7540    2.3080 H   0  0  0  0  0  0  0  0  0  0  0  0
   -1.8660   -0.0120    4.4130 H   0  0  0  0  0  0  0  0  0  0  0  0
   -2.8510    0.2710    2.8930 H   0  0  0  0  0  0  0  0  0  0  0  0
   -0.9060   -2.0040    3.4770 H   0  0  0  0  0  0  0  0  0  0  0  0
   -2.5050   -2.0280    2.6930 H   0  0  0  0  0  0  0  0  0  0  0  0
   -0.4430   -1.9930    1.0210 H   0  0  0  0  0  0  0  0  0  0  0  0
   -5.2530   -2.2260   -2.7080 O   0  0  0  0  0  0  0  0  0  0  0  0
   -4.1640   -2.4810   -1.8890 C   0  0  0  0  0  0  0  0  0  0  0  0
   -4.2370   -1.5670   -0.6670 C   0  0  2  0  0  0  0  0  0  0  0  0
   -3.1040   -1.8140    0.2120 N   0  0  0  0  0  0  0  0  0  0  0  0
   -5.4850   -1.8670    0.0630 C   0  0  0  0  0  0  0  0  0  0  0  0
   -6.5790   -1.7180   -0.5170 O   0  0  0  0  0  0  0  0  0  0  0  0
   -5.4580   -2.3060    1.3680 O   0  0  0  0  0  0  0  0  0  0  0  0
   -5.4650   -1.2470   -2.7520 H   0  0  0  0  0  0  0  0  0  0  0  0
   -3.2340   -2.3210   -2.4510 H   0  0  0  0  0  0  0  0  0  0  0  0
   -4.2320   -3.5480   -1.5310 H   0  0  0  0  0  0  0  0  0  0  0  0
   -4.2700   -0.5440   -1.0360 H   0  0  0  0  0  0  0  0  0  0  0  0
   -2.9740   -2.7640    0.6240 H   0  0  0  0  0  0  0  0  0  0  0  0
  1 13  1  0  0  0  0
  1  2  1  0  0  0  0
  2  3  1  0  0  0  0
  3 14  1  0  0  0  0
  3  4  2  0  0  0  0
  4 15  1  0  0  0  0
  5  4  1  0  0  0  0
  5  6  1  0  0  0  0
  6 16  1  0  0  0  0
  6 17  1  0  0  0  0
  7 18  1  6  0  0  0
  7  6  1  0  0  0  0
  7  8  1  0  0  0  0
  8 20  1  0  0  0  0
  9  7  1  0  0  0  0
  9 23  1  0  0  0  0
 10  9  2  0  0  0  0
 11  5  2  0  0  0  0
 12  2  2  0  0  0  0
 12 11  1  0  0  0  0
 19  8  1  0  0  0  0
 21 11  1  0  0  0  0
 22 12  1  0  0  0  0
 23 24  1  0  0  0  0
 24 25  1  0  0  0  0
 24 30  1  0  0  0  0
 25 32  1  0  0  0  0
 26 25  1  0  0  0  0
 26 34  1  0  0  0  0
 27 36  1  6  0  0  0
 27 23  1  0  0  0  0
 27 26  1  0  0  0  0
 28 27  1  0  0  0  0
 29 28  2  0  0  0  0
 31 24  1  0  0  0  0
 33 25  1  0  0  0  0
 35 26  1  0  0  0  0
 37 38  1  0  0  0  0
 38 46  1  0  0  0  0
 38 39  1  0  0  0  0
 39 47  1  6  0  0  0
 39 41  1  0  0  0  0
 39 40  1  0  0  0  0
 40 28  1  0  0  0  0
 40 48  1  0  0  0  0
 41 43  1  0  0  0  0
 42 41  2  0  0  0  0
 44 37  1  0  0  0  0
 45 38  1  0  0  0  0
M  END
$$$$
