YPW.pdb
 OpenBabel07022419233D

 61 64  0  0  1  0  0  0  0  0999 V2000
    3.5750    2.7370    3.6480 O   0  0  0  0  0  0  0  0  0  0  0  0
    3.6620    2.5070    2.2850 C   0  0  0  0  0  0  0  0  0  0  0  0
    4.8380    2.0890    1.6920 C   0  0  0  0  0  0  0  0  0  0  0  0
    4.9020    1.8660    0.3290 C   0  0  0  0  0  0  0  0  0  0  0  0
    3.7900    2.0530   -0.4960 C   0  0  0  0  0  0  0  0  0  0  0  0
    3.9130    1.8360   -1.9380 C   0  0  0  0  0  0  0  0  0  0  0  0
    3.7040    0.4250   -2.4150 C   0  0  2  0  0  0  0  0  0  0  0  0
    3.8890    0.4500   -3.9050 N   0  0  0  0  0  0  0  0  0  0  0  0
    2.4070   -0.1780   -2.1590 C   0  0  0  0  0  0  0  0  0  0  0  0
    1.5590   -0.1340   -3.1360 O   0  0  0  0  0  0  0  0  0  0  0  0
    2.6410    2.4690    0.1310 C   0  0  0  0  0  0  0  0  0  0  0  0
    2.5580    2.6960    1.4830 C   0  0  0  0  0  0  0  0  0  0  0  0
    2.8630    2.2690    4.2060 H   0  0  0  0  0  0  0  0  0  0  0  0
    5.6940    1.9500    2.3560 H   0  0  0  0  0  0  0  0  0  0  0  0
    5.8560    1.5400   -0.0650 H   0  0  0  0  0  0  0  0  0  0  0  0
    4.9730    2.1190   -2.2360 H   0  0  0  0  0  0  0  0  0  0  0  0
    3.2710    2.5630   -2.4940 H   0  0  0  0  0  0  0  0  0  0  0  0
    4.5660   -0.1750   -2.0520 H   0  0  0  0  0  0  0  0  0  0  0  0
    4.9290    0.4370   -4.0980 H   0  0  0  0  0  0  0  0  0  0  0  0
    3.4470   -0.3640   -4.3460 H   0  0  0  0  0  0  0  0  0  0  0  0
    1.7530    2.6270   -0.4650 H   0  0  0  0  0  0  0  0  0  0  0  0
    1.6450    3.0250    1.9750 H   0  0  0  0  0  0  0  0  0  0  0  0
    1.9610   -0.8170   -0.9690 N   0  0  0  0  0  0  0  0  0  0  0  0
    2.7250   -0.9470    0.2340 C   0  0  0  0  0  0  0  0  0  0  0  0
    2.4350   -2.3910    0.6140 C   0  0  0  0  0  0  0  0  0  0  0  0
    1.1780   -2.7840   -0.0910 C   0  0  0  0  0  0  0  0  0  0  0  0
    0.7180   -1.4990   -0.7320 C   0  0  1  0  0  0  0  0  0  0  0  0
   -0.1440   -0.6960    0.1600 C   0  0  0  0  0  0  0  0  0  0  0  0
    0.2250    0.4540    0.4840 O   0  0  0  0  0  0  0  0  0  0  0  0
    2.3490   -0.2460    0.9970 H   0  0  0  0  0  0  0  0  0  0  0  0
    3.8120   -0.7830    0.0790 H   0  0  0  0  0  0  0  0  0  0  0  0
    2.2360   -2.4030    1.7010 H   0  0  0  0  0  0  0  0  0  0  0  0
    3.2960   -3.0470    0.4310 H   0  0  0  0  0  0  0  0  0  0  0  0
    1.3300   -3.5130   -0.9160 H   0  0  0  0  0  0  0  0  0  0  0  0
    0.4190   -3.2380    0.5750 H   0  0  0  0  0  0  0  0  0  0  0  0
    0.1850   -1.7130   -1.7060 H   0  0  0  0  0  0  0  0  0  0  0  0
   -1.3910   -1.2340    0.6470 N   0  0  0  0  0  0  0  0  0  0  0  0
   -2.2270   -0.4720    1.5030 C   0  0  1  0  0  0  0  0  0  0  0  0
   -3.5870   -0.1990    0.9300 C   0  0  0  0  0  0  0  0  0  0  0  0
   -4.3920   -1.3670    0.5860 C   0  0  0  0  0  0  0  0  0  0  0  0
   -4.4250   -1.9240   -0.7020 C   0  0  0  0  0  0  0  0  0  0  0  0
   -5.2180   -3.0170   -0.6820 N   0  0  0  0  0  0  0  0  0  0  0  0
   -5.7070   -3.2070    0.5440 C   0  0  0  0  0  0  0  0  0  0  0  0
   -6.5480   -4.1560    1.0420 C   0  0  0  0  0  0  0  0  0  0  0  0
   -6.9390   -4.1390    2.3880 C   0  0  0  0  0  0  0  0  0  0  0  0
   -6.4320   -3.1220    3.1700 C   0  0  0  0  0  0  0  0  0  0  0  0
   -5.5830   -2.1680    2.6560 C   0  0  0  0  0  0  0  0  0  0  0  0
   -5.2020   -2.1950    1.3250 C   0  0  0  0  0  0  0  0  0  0  0  0
   -2.2980   -1.0570    2.8470 C   0  0  0  0  0  0  0  0  0  0  0  0
   -2.8420   -0.5280    3.8470 O   0  0  0  0  0  0  0  0  0  0  0  0
   -1.7190   -2.3160    3.0790 O   0  0  0  0  0  0  0  0  0  0  0  0
   -1.6270   -2.1840    0.3390 H   0  0  0  0  0  0  0  0  0  0  0  0
   -1.7420    0.5510    1.6210 H   0  0  0  0  0  0  0  0  0  0  0  0
   -3.5170    0.4590    0.0350 H   0  0  0  0  0  0  0  0  0  0  0  0
   -4.1790    0.4150    1.6700 H   0  0  0  0  0  0  0  0  0  0  0  0
   -3.9130   -1.5570   -1.5670 H   0  0  0  0  0  0  0  0  0  0  0  0
   -5.3900   -3.6010   -1.5510 H   0  0  0  0  0  0  0  0  0  0  0  0
   -6.9700   -4.9790    0.4470 H   0  0  0  0  0  0  0  0  0  0  0  0
   -7.6030   -4.8940    2.7670 H   0  0  0  0  0  0  0  0  0  0  0  0
   -6.7360   -3.1030    4.2270 H   0  0  0  0  0  0  0  0  0  0  0  0
   -5.2380   -1.3880    3.3170 H   0  0  0  0  0  0  0  0  0  0  0  0
  1 13  1  0  0  0  0
  2  1  1  0  0  0  0
  3  2  1  0  0  0  0
  3 14  1  0  0  0  0
  4  3  2  0  0  0  0
  5 11  2  0  0  0  0
  5  4  1  0  0  0  0
  6  5  1  0  0  0  0
  7  9  1  0  0  0  0
  7 18  1  1  0  0  0
  7  6  1  0  0  0  0
  8  7  1  0  0  0  0
  9 23  1  0  0  0  0
 10  9  2  0  0  0  0
 11 12  1  0  0  0  0
 12 22  1  0  0  0  0
 12  2  2  0  0  0  0
 15  4  1  0  0  0  0
 16  6  1  0  0  0  0
 17  6  1  0  0  0  0
 19  8  1  0  0  0  0
 20  8  1  0  0  0  0
 21 11  1  0  0  0  0
 23 27  1  0  0  0  0
 23 24  1  0  0  0  0
 24 25  1  0  0  0  0
 24 30  1  0  0  0  0
 25 32  1  0  0  0  0
 26 35  1  0  0  0  0
 26 25  1  0  0  0  0
 27 36  1  6  0  0  0
 27 26  1  0  0  0  0
 27 28  1  0  0  0  0
 28 29  2  0  0  0  0
 28 37  1  0  0  0  0
 31 24  1  0  0  0  0
 33 25  1  0  0  0  0
 34 26  1  0  0  0  0
 37 38  1  0  0  0  0
 38 53  1  1  0  0  0
 38 49  1  0  0  0  0
 39 38  1  0  0  0  0
 39 55  1  0  0  0  0
 40 39  1  0  0  0  0
 40 48  1  0  0  0  0
 41 42  1  0  0  0  0
 41 40  2  0  0  0  0
 42 43  1  0  0  0  0
 43 44  2  0  0  0  0
 43 48  1  0  0  0  0
 44 45  1  0  0  0  0
 45 59  1  0  0  0  0
 45 46  2  0  0  0  0
 46 60  1  0  0  0  0
 47 46  1  0  0  0  0
 47 61  1  0  0  0  0
 48 47  2  0  0  0  0
 49 51  2  0  0  0  0
 49 50  1  0  0  0  0
 52 37  1  0  0  0  0
 54 39  1  0  0  0  0
 56 41  1  0  0  0  0
 57 42  1  0  0  0  0
 58 44  1  0  0  0  0
M  END
$$$$
