YQC.pdb
 OpenBabel07022419213D

 51 51  0  0  1  0  0  0  0  0999 V2000
    0.2250   -5.8480    3.7320 O   0  0  0  0  0  0  0  0  0  0  0  0
    0.6690   -4.9940    2.7580 C   0  0  0  0  0  0  0  0  0  0  0  0
    1.9710   -5.0350    2.3230 C   0  0  0  0  0  0  0  0  0  0  0  0
    2.4120   -4.1740    1.3430 C   0  0  0  0  0  0  0  0  0  0  0  0
    1.5680   -3.2270    0.7490 C   0  0  0  0  0  0  0  0  0  0  0  0
    2.0990   -2.3300   -0.2960 C   0  0  0  0  0  0  0  0  0  0  0  0
    2.6560   -1.0460    0.2640 C   0  0  2  0  0  0  0  0  0  0  0  0
    3.7150   -1.4030    1.1660 N   0  0  0  0  0  0  0  0  0  0  0  0
    1.6820   -0.1670    0.8980 C   0  0  0  0  0  0  0  0  0  0  0  0
    1.8200    0.1290    2.1200 O   0  0  0  0  0  0  0  0  0  0  0  0
    0.2670   -3.2020    1.2000 C   0  0  0  0  0  0  0  0  0  0  0  0
   -0.1840   -4.0600    2.1800 C   0  0  0  0  0  0  0  0  0  0  0  0
    0.7280   -6.0200    4.5820 H   0  0  0  0  0  0  0  0  0  0  0  0
    2.6670   -5.7590    2.7580 H   0  0  0  0  0  0  0  0  0  0  0  0
    3.4330   -4.2330    1.0260 H   0  0  0  0  0  0  0  0  0  0  0  0
    1.3720   -2.0770   -1.0790 H   0  0  0  0  0  0  0  0  0  0  0  0
    2.9450   -2.8560   -0.7880 H   0  0  0  0  0  0  0  0  0  0  0  0
    3.0930   -0.4910   -0.6100 H   0  0  0  0  0  0  0  0  0  0  0  0
    3.2900   -1.9480    1.9500 H   0  0  0  0  0  0  0  0  0  0  0  0
    4.3800   -2.0320    0.6770 H   0  0  0  0  0  0  0  0  0  0  0  0
   -0.4240   -2.4920    0.7770 H   0  0  0  0  0  0  0  0  0  0  0  0
   -1.1970   -4.0410    2.5310 H   0  0  0  0  0  0  0  0  0  0  0  0
    2.5050    5.2650    0.0380 N   0  0  0  0  0  0  0  0  0  0  0  0
    1.2630    4.5810   -0.0040 C   0  0  0  0  0  0  0  0  0  0  0  0
    0.2780    5.1500   -0.5000 O   0  0  0  0  0  0  0  0  0  0  0  0
    1.1540    3.2100    0.5400 C   0  0  0  0  0  0  0  0  0  0  0  0
   -0.2690    2.6960    0.3800 C   0  0  0  0  0  0  0  0  0  0  0  0
   -0.3570    1.2700    0.9510 C   0  0  2  0  0  0  0  0  0  0  0  0
    0.5560    0.4040    0.2350 N   0  0  0  0  0  0  0  0  0  0  0  0
   -1.7830    0.8640    0.7560 C   0  0  0  0  0  0  0  0  0  0  0  0
   -2.6900    1.5480    1.3460 O   0  0  0  0  0  0  0  0  0  0  0  0
    3.2620    4.9500    0.6730 H   0  0  0  0  0  0  0  0  0  0  0  0
    2.6950    6.1000   -0.5640 H   0  0  0  0  0  0  0  0  0  0  0  0
    1.3780    3.1750    1.6300 H   0  0  0  0  0  0  0  0  0  0  0  0
    1.8800    2.5770    0.0260 H   0  0  0  0  0  0  0  0  0  0  0  0
   -0.9280    3.3540    0.9540 H   0  0  0  0  0  0  0  0  0  0  0  0
   -0.5700    2.6220   -0.6780 H   0  0  0  0  0  0  0  0  0  0  0  0
   -0.0950    1.3380    2.0130 H   0  0  0  0  0  0  0  0  0  0  0  0
    0.3960    0.1910   -0.7730 H   0  0  0  0  0  0  0  0  0  0  0  0
   -2.2080   -0.2180   -0.0300 N   0  0  0  0  0  0  0  0  0  0  0  0
   -3.6260   -0.4980   -0.1340 C   0  0  1  0  0  0  0  0  0  0  0  0
   -4.0040   -0.4230   -1.6200 C   0  0  0  0  0  0  0  0  0  0  0  0
   -2.9820   -1.6930   -2.4410 S   0  0  0  0  0  0  0  0  0  0  0  0
   -3.9970   -1.8530    0.3190 C   0  0  0  0  0  0  0  0  0  0  0  0
   -3.1570   -2.6680    0.7490 O   0  0  0  0  0  0  0  0  0  0  0  0
   -5.3220   -2.2280    0.2630 O   0  0  0  0  0  0  0  0  0  0  0  0
   -1.4970   -0.7900   -0.5190 H   0  0  0  0  0  0  0  0  0  0  0  0
   -4.2330    0.2220    0.4500 H   0  0  0  0  0  0  0  0  0  0  0  0
   -5.0790   -0.6210   -1.7350 H   0  0  0  0  0  0  0  0  0  0  0  0
   -3.7230    0.5920   -1.9490 H   0  0  0  0  0  0  0  0  0  0  0  0
   -2.9390   -2.8010   -1.5750 H   0  0  0  0  0  0  0  0  0  0  0  0
  1 13  1  0  0  0  0
  2  1  1  0  0  0  0
  3 14  1  0  0  0  0
  3  2  1  0  0  0  0
  4  3  2  0  0  0  0
  5 11  2  0  0  0  0
  5  4  1  0  0  0  0
  6  7  1  0  0  0  0
  6  5  1  0  0  0  0
  7 18  1  6  0  0  0
  7  9  1  0  0  0  0
  7  8  1  0  0  0  0
  8 19  1  0  0  0  0
  9 10  2  0  0  0  0
 11 12  1  0  0  0  0
 12 22  1  0  0  0  0
 12  2  2  0  0  0  0
 15  4  1  0  0  0  0
 16  6  1  0  0  0  0
 17  6  1  0  0  0  0
 20  8  1  0  0  0  0
 21 11  1  0  0  0  0
 23 32  1  0  0  0  0
 24 23  1  0  0  0  0
 24 26  1  0  0  0  0
 25 24  2  0  0  0  0
 26 34  1  0  0  0  0
 27 26  1  0  0  0  0
 27 28  1  0  0  0  0
 27 36  1  0  0  0  0
 28 38  1  1  0  0  0
 29  9  1  0  0  0  0
 29 28  1  0  0  0  0
 30 28  1  0  0  0  0
 30 31  2  0  0  0  0
 33 23  1  0  0  0  0
 35 26  1  0  0  0  0
 37 27  1  0  0  0  0
 39 29  1  0  0  0  0
 40 30  1  0  0  0  0
 41 40  1  0  0  0  0
 41 44  1  0  0  0  0
 41 48  1  1  0  0  0
 42 41  1  0  0  0  0
 43 42  1  0  0  0  0
 43 51  1  0  0  0  0
 44 45  1  0  0  0  0
 46 44  2  0  0  0  0
 47 40  1  0  0  0  0
 49 42  1  0  0  0  0
 50 42  1  0  0  0  0
M  END
$$$$
