YQV.pdb
 OpenBabel07022419213D

 56 56  0  0  1  0  0  0  0  0999 V2000
    1.9660    3.4760    4.4030 O   0  0  0  0  0  0  0  0  0  0  0  0
    1.9600    2.0930    4.1700 C   0  0  0  0  0  0  0  0  0  0  0  0
    0.8230    1.3470    4.4140 C   0  0  0  0  0  0  0  0  0  0  0  0
    0.8120   -0.0140    4.1870 C   0  0  0  0  0  0  0  0  0  0  0  0
    1.9700   -0.5930    3.7100 C   0  0  0  0  0  0  0  0  0  0  0  0
    1.9780   -2.0550    3.4580 C   0  0  0  0  0  0  0  0  0  0  0  0
    1.5670   -2.4280    2.0580 C   0  0  2  0  0  0  0  0  0  0  0  0
    2.4950   -1.8080    1.1230 N   0  0  0  0  0  0  0  0  0  0  0  0
    0.1650   -2.1200    1.7370 C   0  0  0  0  0  0  0  0  0  0  0  0
   -0.7430   -2.5480    2.4670 O   0  0  0  0  0  0  0  0  0  0  0  0
    3.0990    0.1630    3.4690 C   0  0  0  0  0  0  0  0  0  0  0  0
    3.1230    1.5240    3.6930 C   0  0  0  0  0  0  0  0  0  0  0  0
    1.7970    3.7400    5.3780 H   0  0  0  0  0  0  0  0  0  0  0  0
   -0.0970    1.8170    4.7950 H   0  0  0  0  0  0  0  0  0  0  0  0
   -0.0970   -0.5700    4.3890 H   0  0  0  0  0  0  0  0  0  0  0  0
    1.2690   -2.5650    4.1460 H   0  0  0  0  0  0  0  0  0  0  0  0
    3.0040   -2.4760    3.6060 H   0  0  0  0  0  0  0  0  0  0  0  0
    1.7770   -3.5300    1.9700 H   0  0  0  0  0  0  0  0  0  0  0  0
    2.2620   -2.1090    0.1350 H   0  0  0  0  0  0  0  0  0  0  0  0
    2.3000   -0.7820    1.1420 H   0  0  0  0  0  0  0  0  0  0  0  0
    4.0000   -0.3050    3.0950 H   0  0  0  0  0  0  0  0  0  0  0  0
    4.0060    2.1290    3.5070 H   0  0  0  0  0  0  0  0  0  0  0  0
   -1.5180    3.3450    2.5970 N   0  0  0  0  0  0  0  0  0  0  0  0
   -1.7820    2.5750    1.4320 C   0  0  0  0  0  0  0  0  0  0  0  0
   -2.2060    3.0490    0.3690 O   0  0  0  0  0  0  0  0  0  0  0  0
   -1.5240    1.1150    1.5240 C   0  0  0  0  0  0  0  0  0  0  0  0
   -1.8510    0.4430    0.2250 C   0  0  0  0  0  0  0  0  0  0  0  0
   -1.5950   -1.0460    0.3040 C   0  0  2  0  0  0  0  0  0  0  0  0
   -0.2250   -1.3370    0.6050 N   0  0  0  0  0  0  0  0  0  0  0  0
   -2.0280   -1.6090   -1.0000 C   0  0  0  0  0  0  0  0  0  0  0  0
   -3.2280   -1.3920   -1.3350 O   0  0  0  0  0  0  0  0  0  0  0  0
   -1.8500    3.1030    3.5540 H   0  0  0  0  0  0  0  0  0  0  0  0
   -0.9520    4.2140    2.4960 H   0  0  0  0  0  0  0  0  0  0  0  0
   -0.4550    0.9050    1.7560 H   0  0  0  0  0  0  0  0  0  0  0  0
   -2.1090    0.6820    2.3520 H   0  0  0  0  0  0  0  0  0  0  0  0
   -1.2240    0.8490   -0.5950 H   0  0  0  0  0  0  0  0  0  0  0  0
   -2.9190    0.6340    0.0040 H   0  0  0  0  0  0  0  0  0  0  0  0
   -2.3030   -1.4590    1.0540 H   0  0  0  0  0  0  0  0  0  0  0  0
    0.5230   -0.9670   -0.0200 H   0  0  0  0  0  0  0  0  0  0  0  0
    0.4570   -2.5760   -4.3370 C   0  0  0  0  0  0  0  0  0  0  0  0
   -1.0000   -2.2790   -4.2980 C   0  0  0  0  0  0  0  0  0  0  0  0
   -1.2550   -0.7920   -4.3740 C   0  0  0  0  0  0  0  0  0  0  0  0
   -1.6980   -2.8460   -3.0850 C   0  0  2  0  0  0  0  0  0  0  0  0
   -1.1800   -2.3500   -1.8520 N   0  0  0  0  0  0  0  0  0  0  0  0
   -1.6980   -4.3310   -3.0960 C   0  0  0  0  0  0  0  0  0  0  0  0
   -1.2700   -4.9280   -2.0810 O   0  0  0  0  0  0  0  0  0  0  0  0
   -2.1590   -5.0200   -4.1960 O   0  0  0  0  0  0  0  0  0  0  0  0
    1.0280   -1.6080   -4.4050 H   0  0  0  0  0  0  0  0  0  0  0  0
    0.7190   -3.1290   -5.2610 H   0  0  0  0  0  0  0  0  0  0  0  0
    0.8060   -3.1950   -3.4870 H   0  0  0  0  0  0  0  0  0  0  0  0
   -1.4890   -2.7300   -5.1850 H   0  0  0  0  0  0  0  0  0  0  0  0
   -0.3420   -0.2160   -4.5900 H   0  0  0  0  0  0  0  0  0  0  0  0
   -1.7220   -0.4330   -3.4330 H   0  0  0  0  0  0  0  0  0  0  0  0
   -1.9810   -0.5300   -5.1850 H   0  0  0  0  0  0  0  0  0  0  0  0
   -2.7620   -2.5470   -3.1790 H   0  0  0  0  0  0  0  0  0  0  0  0
   -0.2010   -2.4910   -1.5140 H   0  0  0  0  0  0  0  0  0  0  0  0
  1 13  1  0  0  0  0
  2  1  1  0  0  0  0
  2  3  1  0  0  0  0
  3 14  1  0  0  0  0
  4 15  1  0  0  0  0
  4  3  2  0  0  0  0
  5  4  1  0  0  0  0
  6 17  1  0  0  0  0
  6  5  1  0  0  0  0
  6 16  1  0  0  0  0
  7 18  1  6  0  0  0
  7  6  1  0  0  0  0
  8 20  1  0  0  0  0
  8  7  1  0  0  0  0
  9  7  1  0  0  0  0
  9 10  2  0  0  0  0
 11 12  1  0  0  0  0
 11  5  2  0  0  0  0
 12  2  2  0  0  0  0
 19  8  1  0  0  0  0
 21 11  1  0  0  0  0
 22 12  1  0  0  0  0
 23 32  1  0  0  0  0
 24 26  1  0  0  0  0
 24 23  1  0  0  0  0
 25 24  2  0  0  0  0
 26 34  1  0  0  0  0
 26 35  1  0  0  0  0
 27 28  1  0  0  0  0
 27 26  1  0  0  0  0
 28 29  1  0  0  0  0
 28 38  1  1  0  0  0
 29  9  1  0  0  0  0
 30 28  1  0  0  0  0
 31 30  2  0  0  0  0
 33 23  1  0  0  0  0
 36 27  1  0  0  0  0
 37 27  1  0  0  0  0
 39 29  1  0  0  0  0
 40 41  1  0  0  0  0
 40 50  1  0  0  0  0
 41 43  1  0  0  0  0
 42 41  1  0  0  0  0
 42 53  1  0  0  0  0
 43 55  1  6  0  0  0
 43 44  1  0  0  0  0
 44 56  1  0  0  0  0
 44 30  1  0  0  0  0
 45 43  1  0  0  0  0
 45 46  1  0  0  0  0
 47 45  2  0  0  0  0
 48 40  1  0  0  0  0
 49 40  1  0  0  0  0
 51 41  1  0  0  0  0
 52 42  1  0  0  0  0
 54 42  1  0  0  0  0
M  END
$$$$
