YQW.pdb
 OpenBabel07022419213D

 64 66  0  0  1  0  0  0  0  0999 V2000
    2.8960    1.0880    6.0560 O   0  0  0  0  0  0  0  0  0  0  0  0
    3.2630    0.6400    4.7970 C   0  0  0  0  0  0  0  0  0  0  0  0
    4.5750    0.3830    4.4460 C   0  0  0  0  0  0  0  0  0  0  0  0
    4.8920   -0.0690    3.1580 C   0  0  0  0  0  0  0  0  0  0  0  0
    3.8990   -0.2630    2.2240 C   0  0  0  0  0  0  0  0  0  0  0  0
    4.2610   -0.7300    0.8640 C   0  0  0  0  0  0  0  0  0  0  0  0
    4.4570    0.4350   -0.0870 C   0  0  2  0  0  0  0  0  0  0  0  0
    5.4880    1.3240    0.3460 N   0  0  0  0  0  0  0  0  0  0  0  0
    3.1470    1.1500   -0.2960 C   0  0  0  0  0  0  0  0  0  0  0  0
    3.0130    2.3520    0.0450 O   0  0  0  0  0  0  0  0  0  0  0  0
    2.6020    0.0000    2.5990 C   0  0  0  0  0  0  0  0  0  0  0  0
    2.2800    0.4490    3.8740 C   0  0  0  0  0  0  0  0  0  0  0  0
    2.3680    0.5650    6.7160 H   0  0  0  0  0  0  0  0  0  0  0  0
    5.3270    0.5460    5.2000 H   0  0  0  0  0  0  0  0  0  0  0  0
    5.9400   -0.2490    2.9560 H   0  0  0  0  0  0  0  0  0  0  0  0
    3.4930   -1.3830    0.4470 H   0  0  0  0  0  0  0  0  0  0  0  0
    5.2170   -1.2770    0.9150 H   0  0  0  0  0  0  0  0  0  0  0  0
    4.7350    0.0130   -1.0690 H   0  0  0  0  0  0  0  0  0  0  0  0
    5.1730    2.0130    1.0680 H   0  0  0  0  0  0  0  0  0  0  0  0
    5.8630    1.8850   -0.4520 H   0  0  0  0  0  0  0  0  0  0  0  0
    1.8550   -0.1540    1.8480 H   0  0  0  0  0  0  0  0  0  0  0  0
    1.2490    0.6460    4.1360 H   0  0  0  0  0  0  0  0  0  0  0  0
   -3.0850    2.1440   -2.7090 N   0  0  0  0  0  0  0  0  0  0  0  0
   -1.8340    1.5010   -2.9080 C   0  0  0  0  0  0  0  0  0  0  0  0
   -1.8580    0.2290   -3.0420 O   0  0  0  0  0  0  0  0  0  0  0  0
   -0.5640    2.2230   -2.9700 C   0  0  0  0  0  0  0  0  0  0  0  0
    0.6510    1.5260   -2.5170 C   0  0  0  0  0  0  0  0  0  0  0  0
    0.7970    1.1870   -1.0650 C   0  0  2  0  0  0  0  0  0  0  0  0
    2.0660    0.4620   -0.8790 N   0  0  0  0  0  0  0  0  0  0  0  0
   -0.2890    0.4390   -0.5010 C   0  0  0  0  0  0  0  0  0  0  0  0
   -1.4090    1.0200   -0.2790 O   0  0  0  0  0  0  0  0  0  0  0  0
   -3.1380    3.1930   -2.6290 H   0  0  0  0  0  0  0  0  0  0  0  0
   -3.9770    1.6240   -2.6340 H   0  0  0  0  0  0  0  0  0  0  0  0
   -0.6820    3.2440   -2.5130 H   0  0  0  0  0  0  0  0  0  0  0  0
   -0.4000    2.4670   -4.0690 H   0  0  0  0  0  0  0  0  0  0  0  0
    1.5250    2.1980   -2.7590 H   0  0  0  0  0  0  0  0  0  0  0  0
    0.7570    0.5880   -3.1540 H   0  0  0  0  0  0  0  0  0  0  0  0
    0.8950    2.2010   -0.5480 H   0  0  0  0  0  0  0  0  0  0  0  0
    2.1950   -0.5230   -1.1660 H   0  0  0  0  0  0  0  0  0  0  0  0
   -0.2130   -0.9290   -0.1660 N   0  0  0  0  0  0  0  0  0  0  0  0
   -1.3700   -1.6260    0.3980 C   0  0  1  0  0  0  0  0  0  0  0  0
   -1.9190   -2.6060   -0.6330 C   0  0  0  0  0  0  0  0  0  0  0  0
   -3.1020   -3.3330   -0.0750 C   0  0  0  0  0  0  0  0  0  0  0  0
   -3.1490   -4.6400    0.3920 C   0  0  0  0  0  0  0  0  0  0  0  0
   -4.3940   -4.9000    0.8030 N   0  0  0  0  0  0  0  0  0  0  0  0
   -5.1930   -3.8130    0.6310 C   0  0  0  0  0  0  0  0  0  0  0  0
   -6.5250   -3.5650    0.8890 C   0  0  0  0  0  0  0  0  0  0  0  0
   -7.0270   -2.3180    0.5850 C   0  0  0  0  0  0  0  0  0  0  0  0
   -6.2690   -1.3030    0.0370 C   0  0  0  0  0  0  0  0  0  0  0  0
   -4.9420   -1.5950   -0.2050 C   0  0  0  0  0  0  0  0  0  0  0  0
   -4.3810   -2.8310    0.0800 C   0  0  0  0  0  0  0  0  0  0  0  0
   -0.9860   -2.3190    1.6400 C   0  0  0  0  0  0  0  0  0  0  0  0
   -1.8700   -2.9640    2.2900 O   0  0  0  0  0  0  0  0  0  0  0  0
    0.2850   -2.3350    2.1830 O   0  0  0  0  0  0  0  0  0  0  0  0
    0.6730   -1.4490   -0.3200 H   0  0  0  0  0  0  0  0  0  0  0  0
   -2.1650   -0.9040    0.5770 H   0  0  0  0  0  0  0  0  0  0  0  0
   -2.1960   -2.0720   -1.5640 H   0  0  0  0  0  0  0  0  0  0  0  0
   -1.1150   -3.3230   -0.8740 H   0  0  0  0  0  0  0  0  0  0  0  0
   -2.2690   -5.2840    0.3880 H   0  0  0  0  0  0  0  0  0  0  0  0
   -4.7250   -5.8140    1.2060 H   0  0  0  0  0  0  0  0  0  0  0  0
   -7.1550   -4.3300    1.3190 H   0  0  0  0  0  0  0  0  0  0  0  0
   -8.0690   -2.1060    0.7810 H   0  0  0  0  0  0  0  0  0  0  0  0
   -6.6810   -0.3320   -0.1940 H   0  0  0  0  0  0  0  0  0  0  0  0
   -4.2570   -0.8530   -0.6400 H   0  0  0  0  0  0  0  0  0  0  0  0
  1 13  1  0  0  0  0
  2  1  1  0  0  0  0
  3  2  1  0  0  0  0
  3 14  1  0  0  0  0
  4  3  2  0  0  0  0
  5 11  2  0  0  0  0
  5  4  1  0  0  0  0
  6 17  1  0  0  0  0
  6  5  1  0  0  0  0
  7 18  1  6  0  0  0
  7  8  1  0  0  0  0
  7  6  1  0  0  0  0
  8 19  1  0  0  0  0
  9  7  1  0  0  0  0
  9 10  2  0  0  0  0
 11 12  1  0  0  0  0
 12 22  1  0  0  0  0
 12  2  2  0  0  0  0
 15  4  1  0  0  0  0
 16  6  1  0  0  0  0
 20  8  1  0  0  0  0
 21 11  1  0  0  0  0
 23 33  1  0  0  0  0
 23 32  1  0  0  0  0
 24 23  1  0  0  0  0
 25 24  2  0  0  0  0
 26 24  1  0  0  0  0
 26 27  1  0  0  0  0
 26 34  1  0  0  0  0
 27 28  1  0  0  0  0
 28 29  1  0  0  0  0
 28 38  1  1  0  0  0
 28 30  1  0  0  0  0
 29  9  1  0  0  0  0
 30 31  2  0  0  0  0
 30 40  1  0  0  0  0
 35 26  1  0  0  0  0
 36 27  1  0  0  0  0
 37 27  1  0  0  0  0
 39 29  1  0  0  0  0
 40 41  1  0  0  0  0
 41 56  1  1  0  0  0
 41 52  1  0  0  0  0
 42 43  1  0  0  0  0
 42 41  1  0  0  0  0
 43 51  1  0  0  0  0
 43 44  2  0  0  0  0
 44 45  1  0  0  0  0
 45 60  1  0  0  0  0
 46 45  1  0  0  0  0
 46 47  1  0  0  0  0
 47 61  1  0  0  0  0
 48 62  1  0  0  0  0
 48 47  2  0  0  0  0
 49 48  1  0  0  0  0
 50 49  2  0  0  0  0
 50 51  1  0  0  0  0
 51 46  2  0  0  0  0
 52 54  2  0  0  0  0
 52 53  1  0  0  0  0
 55 40  1  0  0  0  0
 57 42  1  0  0  0  0
 58 42  1  0  0  0  0
 59 44  1  0  0  0  0
 63 49  1  0  0  0  0
 64 50  1  0  0  0  0
M  END
$$$$
