YRE.pdb
 OpenBabel07022419193D

 62 62  0  0  1  0  0  0  0  0999 V2000
    4.6150    0.5780    4.7440 O   0  0  0  0  0  0  0  0  0  0  0  0
    4.5860    0.0630    3.4530 C   0  0  0  0  0  0  0  0  0  0  0  0
    3.9350   -1.1180    3.1760 C   0  0  0  0  0  0  0  0  0  0  0  0
    3.8950   -1.6400    1.9130 C   0  0  0  0  0  0  0  0  0  0  0  0
    4.5130   -0.9870    0.8780 C   0  0  0  0  0  0  0  0  0  0  0  0
    4.4840   -1.5300   -0.5000 C   0  0  0  0  0  0  0  0  0  0  0  0
    3.3080   -1.0290   -1.2820 C   0  0  2  0  0  0  0  0  0  0  0  0
    3.3900    0.4170   -1.3580 N   0  0  0  0  0  0  0  0  0  0  0  0
    2.0100   -1.4590   -0.6690 C   0  0  0  0  0  0  0  0  0  0  0  0
    1.8360   -2.6930   -0.5480 O   0  0  0  0  0  0  0  0  0  0  0  0
    5.1700    0.1980    1.1380 C   0  0  0  0  0  0  0  0  0  0  0  0
    5.2070    0.7200    2.4120 C   0  0  0  0  0  0  0  0  0  0  0  0
    3.9990    0.1920    5.4580 H   0  0  0  0  0  0  0  0  0  0  0  0
    3.4420   -1.6430    3.9920 H   0  0  0  0  0  0  0  0  0  0  0  0
    3.3640   -2.5870    1.7320 H   0  0  0  0  0  0  0  0  0  0  0  0
    5.3970   -1.1550   -1.0150 H   0  0  0  0  0  0  0  0  0  0  0  0
    4.5690   -2.6370   -0.5040 H   0  0  0  0  0  0  0  0  0  0  0  0
    3.3530   -1.4740   -2.2940 H   0  0  0  0  0  0  0  0  0  0  0  0
    2.6900    0.7110   -2.0870 H   0  0  0  0  0  0  0  0  0  0  0  0
    4.3580    0.6300   -1.7110 H   0  0  0  0  0  0  0  0  0  0  0  0
    5.6600    0.7170    0.3120 H   0  0  0  0  0  0  0  0  0  0  0  0
    5.7210    1.6490    2.6180 H   0  0  0  0  0  0  0  0  0  0  0  0
   -2.4680    2.6110   -2.3130 N   0  0  0  0  0  0  0  0  0  0  0  0
   -2.5840    2.4970   -0.9020 C   0  0  0  0  0  0  0  0  0  0  0  0
   -3.6250    2.9100   -0.2740 N   0  0  0  0  0  0  0  0  0  0  0  0
   -1.5180    1.9010   -0.1120 N   0  0  0  0  0  0  0  0  0  0  0  0
   -1.6700    1.7610    1.3060 C   0  0  0  0  0  0  0  0  0  0  0  0
   -0.5940    0.9810    1.9630 C   0  0  0  0  0  0  0  0  0  0  0  0
   -0.4680   -0.4600    1.6790 C   0  0  0  0  0  0  0  0  0  0  0  0
   -0.2030   -0.9830    0.3360 C   0  0  2  0  0  0  0  0  0  0  0  0
    1.0260   -0.5240   -0.2470 N   0  0  0  0  0  0  0  0  0  0  0  0
   -1.3550   -1.0250   -0.5760 C   0  0  0  0  0  0  0  0  0  0  0  0
   -1.3190   -0.7110   -1.8060 O   0  0  0  0  0  0  0  0  0  0  0  0
   -3.3200    2.6650   -2.9090 H   0  0  0  0  0  0  0  0  0  0  0  0
   -1.5490    2.6430   -2.7750 H   0  0  0  0  0  0  0  0  0  0  0  0
   -3.7130    2.8290    0.7500 H   0  0  0  0  0  0  0  0  0  0  0  0
   -0.6850    1.6490   -0.6700 H   0  0  0  0  0  0  0  0  0  0  0  0
   -2.6570    1.2280    1.5330 H   0  0  0  0  0  0  0  0  0  0  0  0
   -1.8380    2.7560    1.8010 H   0  0  0  0  0  0  0  0  0  0  0  0
    0.4150    1.4910    1.8040 H   0  0  0  0  0  0  0  0  0  0  0  0
   -0.8130    1.0470    3.0890 H   0  0  0  0  0  0  0  0  0  0  0  0
    0.3710   -0.8520    2.3670 H   0  0  0  0  0  0  0  0  0  0  0  0
   -1.4300   -0.9240    2.1070 H   0  0  0  0  0  0  0  0  0  0  0  0
    0.0020   -2.1360    0.4820 H   0  0  0  0  0  0  0  0  0  0  0  0
    1.2730    0.4890   -0.3840 H   0  0  0  0  0  0  0  0  0  0  0  0
   -2.6190   -1.4430   -0.0880 N   0  0  0  0  0  0  0  0  0  0  0  0
   -3.7880   -1.5160   -0.8970 C   0  0  1  0  0  0  0  0  0  0  0  0
   -4.0760   -2.9080   -1.3600 C   0  0  0  0  0  0  0  0  0  0  0  0
   -4.2940   -3.9570   -0.3470 C   0  0  0  0  0  0  0  0  0  0  0  0
   -3.1600   -4.3520    0.4930 C   0  0  0  0  0  0  0  0  0  0  0  0
   -1.9560   -4.0520    0.3230 O   0  0  0  0  0  0  0  0  0  0  0  0
   -4.9950   -0.9580   -0.2470 C   0  0  0  0  0  0  0  0  0  0  0  0
   -6.0650   -0.9960   -0.9090 O   0  0  0  0  0  0  0  0  0  0  0  0
   -3.4650   -5.1560    1.6120 O   0  0  0  0  0  0  0  0  0  0  0  0
   -5.0320   -0.4070    1.0120 O   0  0  0  0  0  0  0  0  0  0  0  0
   -2.7850   -1.7030    0.9360 H   0  0  0  0  0  0  0  0  0  0  0  0
   -3.5690   -0.9340   -1.8540 H   0  0  0  0  0  0  0  0  0  0  0  0
   -4.9260   -2.8700   -2.1180 H   0  0  0  0  0  0  0  0  0  0  0  0
   -3.2060   -3.2710   -2.0020 H   0  0  0  0  0  0  0  0  0  0  0  0
   -4.6980   -4.8790   -0.8750 H   0  0  0  0  0  0  0  0  0  0  0  0
   -5.1350   -3.6940    0.3660 H   0  0  0  0  0  0  0  0  0  0  0  0
   -2.7670   -5.3030    2.3560 H   0  0  0  0  0  0  0  0  0  0  0  0
  1 13  1  0  0  0  0
  2  1  1  0  0  0  0
  3  2  1  0  0  0  0
  3 14  1  0  0  0  0
  4  3  2  0  0  0  0
  5 11  2  0  0  0  0
  5  4  1  0  0  0  0
  6  5  1  0  0  0  0
  7 18  1  6  0  0  0
  7  9  1  0  0  0  0
  7  6  1  0  0  0  0
  8  7  1  0  0  0  0
  9 10  2  0  0  0  0
  9 31  1  0  0  0  0
 11 12  1  0  0  0  0
 12 22  1  0  0  0  0
 12  2  2  0  0  0  0
 15  4  1  0  0  0  0
 16  6  1  0  0  0  0
 17  6  1  0  0  0  0
 19  8  1  0  0  0  0
 20  8  1  0  0  0  0
 21 11  1  0  0  0  0
 23 24  1  0  0  0  0
 24 25  2  0  0  0  0
 24 26  1  0  0  0  0
 25 36  1  0  0  0  0
 26 27  1  0  0  0  0
 27 38  1  0  0  0  0
 27 39  1  0  0  0  0
 27 28  1  0  0  0  0
 28 41  1  0  0  0  0
 29 28  1  0  0  0  0
 29 43  1  0  0  0  0
 29 42  1  0  0  0  0
 30 44  1  1  0  0  0
 30 29  1  0  0  0  0
 31 30  1  0  0  0  0
 32 46  1  0  0  0  0
 32 30  1  0  0  0  0
 33 32  2  0  0  0  0
 34 23  1  0  0  0  0
 35 23  1  0  0  0  0
 37 26  1  0  0  0  0
 40 28  1  0  0  0  0
 45 31  1  0  0  0  0
 46 56  1  0  0  0  0
 47 57  1  6  0  0  0
 47 52  1  0  0  0  0
 47 46  1  0  0  0  0
 48 47  1  0  0  0  0
 48 49  1  0  0  0  0
 49 61  1  0  0  0  0
 49 50  1  0  0  0  0
 50 54  1  0  0  0  0
 51 50  2  0  0  0  0
 52 55  1  0  0  0  0
 53 52  2  0  0  0  0
 54 62  1  0  0  0  0
 58 48  1  0  0  0  0
 59 48  1  0  0  0  0
 60 49  1  0  0  0  0
M  END
$$$$
