YRG.pdb
 OpenBabel07022419203D

 53 53  0  0  1  0  0  0  0  0999 V2000
    4.0750   -3.5850    5.0140 O   0  0  0  0  0  0  0  0  0  0  0  0
    3.8190   -2.8120    3.8840 C   0  0  0  0  0  0  0  0  0  0  0  0
    4.6430   -2.8960    2.7820 C   0  0  0  0  0  0  0  0  0  0  0  0
    4.4600   -2.1720    1.6370 C   0  0  0  0  0  0  0  0  0  0  0  0
    3.3940   -1.2970    1.5510 C   0  0  0  0  0  0  0  0  0  0  0  0
    3.1260   -0.4860    0.3660 C   0  0  0  0  0  0  0  0  0  0  0  0
    2.2370   -1.1280   -0.6620 C   0  0  2  0  0  0  0  0  0  0  0  0
    2.1080   -0.1430   -1.7480 N   0  0  0  0  0  0  0  0  0  0  0  0
    0.8950   -1.4660   -0.1380 C   0  0  0  0  0  0  0  0  0  0  0  0
    0.7510   -2.3040    0.7870 O   0  0  0  0  0  0  0  0  0  0  0  0
    2.5590   -1.2010    2.6460 C   0  0  0  0  0  0  0  0  0  0  0  0
    2.7530   -1.9360    3.7990 C   0  0  0  0  0  0  0  0  0  0  0  0
    3.3960   -3.6860    5.7570 H   0  0  0  0  0  0  0  0  0  0  0  0
    5.4920   -3.5860    2.8350 H   0  0  0  0  0  0  0  0  0  0  0  0
    5.1000   -2.2290    0.7630 H   0  0  0  0  0  0  0  0  0  0  0  0
    4.0520   -0.1460   -0.1640 H   0  0  0  0  0  0  0  0  0  0  0  0
    2.6190    0.4420    0.6990 H   0  0  0  0  0  0  0  0  0  0  0  0
    2.6940   -2.0160   -1.0940 H   0  0  0  0  0  0  0  0  0  0  0  0
    1.8130   -0.6950   -2.5950 H   0  0  0  0  0  0  0  0  0  0  0  0
    3.0940    0.1720   -1.9610 H   0  0  0  0  0  0  0  0  0  0  0  0
    1.6900   -0.5260    2.6550 H   0  0  0  0  0  0  0  0  0  0  0  0
    2.0930   -1.8510    4.6480 H   0  0  0  0  0  0  0  0  0  0  0  0
   -0.0260    3.6530    2.5710 N   0  0  0  0  0  0  0  0  0  0  0  0
   -1.0320    3.2910    1.6390 C   0  0  0  0  0  0  0  0  0  0  0  0
   -2.2670    3.6820    1.7800 N   0  0  0  0  0  0  0  0  0  0  0  0
   -0.6460    2.4810    0.5390 N   0  0  0  0  0  0  0  0  0  0  0  0
   -1.6540    2.0820   -0.4450 C   0  0  0  0  0  0  0  0  0  0  0  0
   -2.6530    1.1470    0.0790 C   0  0  0  0  0  0  0  0  0  0  0  0
   -2.3080   -0.1440    0.6290 C   0  0  0  0  0  0  0  0  0  0  0  0
   -1.6220   -1.1900   -0.1430 C   0  0  2  0  0  0  0  0  0  0  0  0
   -0.3150   -0.8580   -0.6560 N   0  0  0  0  0  0  0  0  0  0  0  0
   -2.4670   -1.8320   -1.1840 C   0  0  0  0  0  0  0  0  0  0  0  0
   -1.9640   -1.9940   -2.3230 O   0  0  0  0  0  0  0  0  0  0  0  0
    0.3210    4.6260    2.5680 H   0  0  0  0  0  0  0  0  0  0  0  0
    0.3490    2.9660    3.2310 H   0  0  0  0  0  0  0  0  0  0  0  0
   -2.4860    4.2750    2.6090 H   0  0  0  0  0  0  0  0  0  0  0  0
    0.3490    2.1850    0.4490 H   0  0  0  0  0  0  0  0  0  0  0  0
   -1.1990    1.8980   -1.4110 H   0  0  0  0  0  0  0  0  0  0  0  0
   -2.2140    3.0700   -0.6070 H   0  0  0  0  0  0  0  0  0  0  0  0
   -3.4440    1.0210   -0.7250 H   0  0  0  0  0  0  0  0  0  0  0  0
   -3.2370    1.7110    0.8750 H   0  0  0  0  0  0  0  0  0  0  0  0
   -3.2580   -0.6160    1.0340 H   0  0  0  0  0  0  0  0  0  0  0  0
   -1.7030   -0.0090    1.5830 H   0  0  0  0  0  0  0  0  0  0  0  0
   -1.4320   -2.0310    0.6040 H   0  0  0  0  0  0  0  0  0  0  0  0
   -0.1280   -0.1730   -1.4320 H   0  0  0  0  0  0  0  0  0  0  0  0
   -3.7730   -2.2510   -0.9390 N   0  0  0  0  0  0  0  0  0  0  0  0
   -4.5690   -2.8750   -1.9790 C   0  0  0  0  0  0  0  0  0  0  0  0
   -3.8840   -4.1050   -2.4340 C   0  0  0  0  0  0  0  0  0  0  0  0
   -4.3850   -4.8210   -3.3340 O   0  0  0  0  0  0  0  0  0  0  0  0
   -2.6810   -4.4920   -1.8780 O   0  0  0  0  0  0  0  0  0  0  0  0
   -4.2250   -2.1340   -0.0070 H   0  0  0  0  0  0  0  0  0  0  0  0
   -4.7580   -2.1690   -2.8200 H   0  0  0  0  0  0  0  0  0  0  0  0
   -5.5780   -3.1670   -1.6140 H   0  0  0  0  0  0  0  0  0  0  0  0
  1 13  1  0  0  0  0
  2  1  1  0  0  0  0
  3 14  1  0  0  0  0
  3  2  2  0  0  0  0
  4  3  1  0  0  0  0
  5  4  2  0  0  0  0
  5 11  1  0  0  0  0
  6 17  1  0  0  0  0
  6  5  1  0  0  0  0
  7 18  1  6  0  0  0
  7  9  1  0  0  0  0
  7  6  1  0  0  0  0
  8  7  1  0  0  0  0
  9 10  2  0  0  0  0
 11 21  1  0  0  0  0
 11 12  2  0  0  0  0
 12  2  1  0  0  0  0
 12 22  1  0  0  0  0
 15  4  1  0  0  0  0
 16  6  1  0  0  0  0
 19  8  1  0  0  0  0
 20  8  1  0  0  0  0
 23 35  1  0  0  0  0
 24 25  2  0  0  0  0
 24 23  1  0  0  0  0
 25 36  1  0  0  0  0
 26 24  1  0  0  0  0
 27 28  1  0  0  0  0
 27 26  1  0  0  0  0
 28 29  1  0  0  0  0
 28 41  1  0  0  0  0
 29 42  1  0  0  0  0
 29 43  1  0  0  0  0
 30 44  1  1  0  0  0
 30 29  1  0  0  0  0
 31 30  1  0  0  0  0
 31  9  1  0  0  0  0
 32 46  1  0  0  0  0
 32 30  1  0  0  0  0
 33 32  2  0  0  0  0
 34 23  1  0  0  0  0
 37 26  1  0  0  0  0
 38 27  1  0  0  0  0
 39 27  1  0  0  0  0
 40 28  1  0  0  0  0
 45 31  1  0  0  0  0
 46 51  1  0  0  0  0
 47 53  1  0  0  0  0
 47 46  1  0  0  0  0
 48 47  1  0  0  0  0
 48 50  1  0  0  0  0
 49 48  2  0  0  0  0
 52 47  1  0  0  0  0
M  END
$$$$
