YRK.pdb
 OpenBabel07022419203D

 67 67  0  0  1  0  0  0  0  0999 V2000
    5.4060    1.3860    4.4320 O   0  0  0  0  0  0  0  0  0  0  0  0
    5.3550    0.8700    3.1510 C   0  0  0  0  0  0  0  0  0  0  0  0
    4.8150   -0.3750    2.9230 C   0  0  0  0  0  0  0  0  0  0  0  0
    4.7700   -0.8800    1.6370 C   0  0  0  0  0  0  0  0  0  0  0  0
    5.2670   -0.1410    0.5590 C   0  0  0  0  0  0  0  0  0  0  0  0
    5.2080   -0.7020   -0.8020 C   0  0  0  0  0  0  0  0  0  0  0  0
    3.9290   -0.3580   -1.5340 C   0  0  2  0  0  0  0  0  0  0  0  0
    3.8210    1.0840   -1.6410 N   0  0  0  0  0  0  0  0  0  0  0  0
    2.7370   -0.9720   -0.9330 C   0  0  0  0  0  0  0  0  0  0  0  0
    2.6990   -2.2140   -0.8040 O   0  0  0  0  0  0  0  0  0  0  0  0
    5.7940    1.0980    0.8520 C   0  0  0  0  0  0  0  0  0  0  0  0
    5.8550    1.6330    2.1210 C   0  0  0  0  0  0  0  0  0  0  0  0
    4.6740    1.9310    4.8600 H   0  0  0  0  0  0  0  0  0  0  0  0
    4.4140   -0.9990    3.7070 H   0  0  0  0  0  0  0  0  0  0  0  0
    4.3550   -1.8550    1.4080 H   0  0  0  0  0  0  0  0  0  0  0  0
    5.3400   -1.7900   -0.7300 H   0  0  0  0  0  0  0  0  0  0  0  0
    6.0400   -0.2480   -1.3800 H   0  0  0  0  0  0  0  0  0  0  0  0
    4.0400   -0.7550   -2.5650 H   0  0  0  0  0  0  0  0  0  0  0  0
    3.0690    1.2550   -2.3730 H   0  0  0  0  0  0  0  0  0  0  0  0
    4.7280    1.4180   -2.0720 H   0  0  0  0  0  0  0  0  0  0  0  0
    6.1920    1.7090    0.0500 H   0  0  0  0  0  0  0  0  0  0  0  0
    6.2900    2.6280    2.2770 H   0  0  0  0  0  0  0  0  0  0  0  0
   -2.4330    2.9340   -1.8040 N   0  0  0  0  0  0  0  0  0  0  0  0
   -2.3800    2.6600   -0.4210 C   0  0  0  0  0  0  0  0  0  0  0  0
   -3.2990    2.9150    0.4360 N   0  0  0  0  0  0  0  0  0  0  0  0
   -1.1810    2.0340    0.0850 N   0  0  0  0  0  0  0  0  0  0  0  0
   -1.0820    1.6900    1.4720 C   0  0  0  0  0  0  0  0  0  0  0  0
    0.0710    0.9010    1.9110 C   0  0  0  0  0  0  0  0  0  0  0  0
    0.2950   -0.4800    1.5020 C   0  0  0  0  0  0  0  0  0  0  0  0
    0.4880   -0.8820    0.0890 C   0  0  2  0  0  0  0  0  0  0  0  0
    1.6130   -0.2190   -0.4850 N   0  0  0  0  0  0  0  0  0  0  0  0
   -0.7330   -0.8920   -0.7060 C   0  0  0  0  0  0  0  0  0  0  0  0
   -0.8080   -0.4060   -1.8500 O   0  0  0  0  0  0  0  0  0  0  0  0
   -3.3580    2.9300   -2.3190 H   0  0  0  0  0  0  0  0  0  0  0  0
   -1.6030    3.1500   -2.3880 H   0  0  0  0  0  0  0  0  0  0  0  0
   -4.2060    3.3680    0.1710 H   0  0  0  0  0  0  0  0  0  0  0  0
   -0.3800    1.8680   -0.5550 H   0  0  0  0  0  0  0  0  0  0  0  0
   -2.0640    1.3140    1.8760 H   0  0  0  0  0  0  0  0  0  0  0  0
   -0.9950    2.7030    2.0060 H   0  0  0  0  0  0  0  0  0  0  0  0
    0.9990    1.4870    1.5790 H   0  0  0  0  0  0  0  0  0  0  0  0
    0.2070    0.9510    3.0470 H   0  0  0  0  0  0  0  0  0  0  0  0
    1.2810   -0.7950    2.0230 H   0  0  0  0  0  0  0  0  0  0  0  0
   -0.4220   -1.2040    2.0270 H   0  0  0  0  0  0  0  0  0  0  0  0
    0.7670   -2.0240    0.1320 H   0  0  0  0  0  0  0  0  0  0  0  0
    1.6650    0.8370   -0.5960 H   0  0  0  0  0  0  0  0  0  0  0  0
   -1.9200   -1.4820   -0.1840 N   0  0  0  0  0  0  0  0  0  0  0  0
   -3.1570   -1.5400   -0.9000 C   0  0  1  0  0  0  0  0  0  0  0  0
   -3.5200   -2.9260   -1.3540 C   0  0  0  0  0  0  0  0  0  0  0  0
   -3.6780   -3.9390   -0.2800 C   0  0  0  0  0  0  0  0  0  0  0  0
   -4.7500   -3.6370    0.7340 C   0  0  0  0  0  0  0  0  0  0  0  0
   -4.7400   -4.8040    1.7320 C   0  0  0  0  0  0  0  0  0  0  0  0
   -5.0180   -6.0570    1.0780 N   0  0  0  0  0  0  0  0  0  0  0  0
   -4.2760   -0.8020   -0.2760 C   0  0  0  0  0  0  0  0  0  0  0  0
   -5.3870   -0.8440   -0.8620 O   0  0  0  0  0  0  0  0  0  0  0  0
   -4.1910   -0.0740    0.8960 O   0  0  0  0  0  0  0  0  0  0  0  0
   -1.8880   -1.8990    0.7820 H   0  0  0  0  0  0  0  0  0  0  0  0
   -2.9630   -0.9740   -1.8740 H   0  0  0  0  0  0  0  0  0  0  0  0
   -2.8640   -3.2740   -2.1770 H   0  0  0  0  0  0  0  0  0  0  0  0
   -4.5330   -2.8190   -1.8480 H   0  0  0  0  0  0  0  0  0  0  0  0
   -2.7460   -4.1340    0.2930 H   0  0  0  0  0  0  0  0  0  0  0  0
   -3.9790   -4.8990   -0.7740 H   0  0  0  0  0  0  0  0  0  0  0  0
   -5.7620   -3.5580    0.2960 H   0  0  0  0  0  0  0  0  0  0  0  0
   -4.4740   -2.7390    1.3210 H   0  0  0  0  0  0  0  0  0  0  0  0
   -3.7410   -4.8800    2.2060 H   0  0  0  0  0  0  0  0  0  0  0  0
   -5.4780   -4.6490    2.5400 H   0  0  0  0  0  0  0  0  0  0  0  0
   -4.1900   -6.7040    1.1120 H   0  0  0  0  0  0  0  0  0  0  0  0
   -5.8130   -6.5760    1.5200 H   0  0  0  0  0  0  0  0  0  0  0  0
  1 13  1  0  0  0  0
  2  1  1  0  0  0  0
  3  2  1  0  0  0  0
  3 14  1  0  0  0  0
  4  3  2  0  0  0  0
  5 11  2  0  0  0  0
  5  4  1  0  0  0  0
  6 16  1  0  0  0  0
  6  5  1  0  0  0  0
  7 18  1  6  0  0  0
  7  9  1  0  0  0  0
  7  6  1  0  0  0  0
  8  7  1  0  0  0  0
  9 10  2  0  0  0  0
  9 31  1  0  0  0  0
 11 12  1  0  0  0  0
 12 22  1  0  0  0  0
 12  2  2  0  0  0  0
 15  4  1  0  0  0  0
 17  6  1  0  0  0  0
 19  8  1  0  0  0  0
 20  8  1  0  0  0  0
 21 11  1  0  0  0  0
 23 24  1  0  0  0  0
 24 26  1  0  0  0  0
 24 25  2  0  0  0  0
 26 27  1  0  0  0  0
 27 38  1  0  0  0  0
 27 28  1  0  0  0  0
 27 39  1  0  0  0  0
 28 41  1  0  0  0  0
 29 28  1  0  0  0  0
 29 42  1  0  0  0  0
 29 43  1  0  0  0  0
 30 44  1  1  0  0  0
 30 29  1  0  0  0  0
 31 30  1  0  0  0  0
 32 46  1  0  0  0  0
 32 30  1  0  0  0  0
 33 32  2  0  0  0  0
 34 23  1  0  0  0  0
 35 23  1  0  0  0  0
 36 25  1  0  0  0  0
 37 26  1  0  0  0  0
 40 28  1  0  0  0  0
 45 31  1  0  0  0  0
 46 56  1  0  0  0  0
 47 57  1  6  0  0  0
 47 53  1  0  0  0  0
 47 46  1  0  0  0  0
 48 47  1  0  0  0  0
 48 49  1  0  0  0  0
 49 60  1  0  0  0  0
 49 50  1  0  0  0  0
 50 63  1  0  0  0  0
 50 51  1  0  0  0  0
 51 64  1  0  0  0  0
 51 65  1  0  0  0  0
 52 66  1  0  0  0  0
 52 67  1  0  0  0  0
 52 51  1  0  0  0  0
 53 55  1  0  0  0  0
 54 53  2  0  0  0  0
 58 48  1  0  0  0  0
 59 48  1  0  0  0  0
 61 49  1  0  0  0  0
 62 50  1  0  0  0  0
M  END
$$$$
