YRV.pdb
 OpenBabel07022419203D

 62 62  0  0  1  0  0  0  0  0999 V2000
    4.2970   -3.8930    3.9880 O   0  0  0  0  0  0  0  0  0  0  0  0
    4.2570   -2.7480    3.1950 C   0  0  0  0  0  0  0  0  0  0  0  0
    3.7630   -2.7760    1.9080 C   0  0  0  0  0  0  0  0  0  0  0  0
    3.7110   -1.6640    1.1000 C   0  0  0  0  0  0  0  0  0  0  0  0
    4.1620   -0.4460    1.5590 C   0  0  0  0  0  0  0  0  0  0  0  0
    4.1220    0.7700    0.7260 C   0  0  0  0  0  0  0  0  0  0  0  0
    2.9010    1.6110    0.8680 C   0  0  2  0  0  0  0  0  0  0  0  0
    2.7090    2.0810    2.2190 N   0  0  0  0  0  0  0  0  0  0  0  0
    1.6470    1.0090    0.3300 C   0  0  0  0  0  0  0  0  0  0  0  0
    1.7100    0.4970   -0.8080 O   0  0  0  0  0  0  0  0  0  0  0  0
    4.6620   -0.4030    2.8530 C   0  0  0  0  0  0  0  0  0  0  0  0
    4.7040   -1.5250    3.6390 C   0  0  0  0  0  0  0  0  0  0  0  0
    4.0340   -3.7320    4.9720 H   0  0  0  0  0  0  0  0  0  0  0  0
    3.3990   -3.7290    1.5220 H   0  0  0  0  0  0  0  0  0  0  0  0
    3.3110   -1.7170    0.0770 H   0  0  0  0  0  0  0  0  0  0  0  0
    4.9880    1.4050    1.0590 H   0  0  0  0  0  0  0  0  0  0  0  0
    4.3360    0.5280   -0.3380 H   0  0  0  0  0  0  0  0  0  0  0  0
    3.1320    2.5670    0.2810 H   0  0  0  0  0  0  0  0  0  0  0  0
    1.9570    2.8020    2.1860 H   0  0  0  0  0  0  0  0  0  0  0  0
    2.4190    1.3400    2.8740 H   0  0  0  0  0  0  0  0  0  0  0  0
    5.0140    0.5680    3.1990 H   0  0  0  0  0  0  0  0  0  0  0  0
    5.1010   -1.4530    4.6440 H   0  0  0  0  0  0  0  0  0  0  0  0
   -4.2820    4.6880   -0.3500 N   0  0  0  0  0  0  0  0  0  0  0  0
   -4.2310    3.3870   -0.9200 C   0  0  0  0  0  0  0  0  0  0  0  0
   -4.4890    3.1880   -2.1890 N   0  0  0  0  0  0  0  0  0  0  0  0
   -3.8910    2.3130   -0.0610 N   0  0  0  0  0  0  0  0  0  0  0  0
   -3.6690    0.9750   -0.5650 C   0  0  0  0  0  0  0  0  0  0  0  0
   -2.4130    0.8980   -1.4080 C   0  0  0  0  0  0  0  0  0  0  0  0
   -1.1700    1.2570   -0.6830 C   0  0  0  0  0  0  0  0  0  0  0  0
   -0.7870    0.4330    0.4950 C   0  0  2  0  0  0  0  0  0  0  0  0
    0.4370    1.0090    1.0440 N   0  0  0  0  0  0  0  0  0  0  0  0
   -0.5820   -0.9890    0.2430 C   0  0  0  0  0  0  0  0  0  0  0  0
    0.5950   -1.4560    0.4700 O   0  0  0  0  0  0  0  0  0  0  0  0
   -4.3310    4.8470    0.6570 H   0  0  0  0  0  0  0  0  0  0  0  0
   -4.2680    5.4980   -1.0040 H   0  0  0  0  0  0  0  0  0  0  0  0
   -4.7300    4.0340   -2.7450 H   0  0  0  0  0  0  0  0  0  0  0  0
   -3.7970    2.4860    0.9550 H   0  0  0  0  0  0  0  0  0  0  0  0
   -3.6540    0.2290    0.2520 H   0  0  0  0  0  0  0  0  0  0  0  0
   -4.5310    0.7360   -1.2190 H   0  0  0  0  0  0  0  0  0  0  0  0
   -2.5420    1.7250   -2.1940 H   0  0  0  0  0  0  0  0  0  0  0  0
   -2.3900   -0.0160   -2.0170 H   0  0  0  0  0  0  0  0  0  0  0  0
   -1.2500    2.3470   -0.4340 H   0  0  0  0  0  0  0  0  0  0  0  0
   -0.3380    1.2020   -1.4420 H   0  0  0  0  0  0  0  0  0  0  0  0
   -1.6060    0.5910    1.2670 H   0  0  0  0  0  0  0  0  0  0  0  0
    0.4070    1.4430    2.0210 H   0  0  0  0  0  0  0  0  0  0  0  0
   -1.4570   -5.6640    0.2390 C   0  0  0  0  0  0  0  0  0  0  0  0
   -1.9090   -4.2570    0.4640 C   0  0  0  0  0  0  0  0  0  0  0  0
   -3.3940   -4.0910    0.2360 C   0  0  0  0  0  0  0  0  0  0  0  0
   -1.0940   -3.3360   -0.4100 C   0  0  2  0  0  0  0  0  0  0  0  0
   -1.5040   -1.9380   -0.2170 N   0  0  0  0  0  0  0  0  0  0  0  0
   -1.1980   -3.6650   -1.8370 C   0  0  0  0  0  0  0  0  0  0  0  0
   -0.9010   -4.8050   -2.2700 O   0  0  0  0  0  0  0  0  0  0  0  0
   -1.6280   -2.7270   -2.7650 O   0  0  0  0  0  0  0  0  0  0  0  0
   -0.3740   -5.7300    0.0230 H   0  0  0  0  0  0  0  0  0  0  0  0
   -2.0440   -6.0670   -0.6220 H   0  0  0  0  0  0  0  0  0  0  0  0
   -1.7620   -6.2760    1.1150 H   0  0  0  0  0  0  0  0  0  0  0  0
   -1.7110   -3.9830    1.5140 H   0  0  0  0  0  0  0  0  0  0  0  0
   -3.6530   -4.1170   -0.8420 H   0  0  0  0  0  0  0  0  0  0  0  0
   -3.7550   -3.1930    0.7470 H   0  0  0  0  0  0  0  0  0  0  0  0
   -3.8860   -4.9770    0.6880 H   0  0  0  0  0  0  0  0  0  0  0  0
   -0.0380   -3.4540   -0.1060 H   0  0  0  0  0  0  0  0  0  0  0  0
   -2.4680   -1.6590   -0.4080 H   0  0  0  0  0  0  0  0  0  0  0  0
  1 13  1  0  0  0  0
  2 12  1  0  0  0  0
  2  1  1  0  0  0  0
  3  2  2  0  0  0  0
  4  5  2  0  0  0  0
  4  3  1  0  0  0  0
  5 11  1  0  0  0  0
  6  7  1  0  0  0  0
  6 16  1  0  0  0  0
  6  5  1  0  0  0  0
  7 18  1  6  0  0  0
  7  8  1  0  0  0  0
  8 20  1  0  0  0  0
  9  7  1  0  0  0  0
  9 31  1  0  0  0  0
 10  9  2  0  0  0  0
 11 21  1  0  0  0  0
 11 12  2  0  0  0  0
 12 22  1  0  0  0  0
 14  3  1  0  0  0  0
 15  4  1  0  0  0  0
 17  6  1  0  0  0  0
 19  8  1  0  0  0  0
 23 34  1  0  0  0  0
 24 23  1  0  0  0  0
 24 26  1  0  0  0  0
 25 24  2  0  0  0  0
 26 37  1  0  0  0  0
 27 26  1  0  0  0  0
 27 38  1  0  0  0  0
 28 29  1  0  0  0  0
 28 27  1  0  0  0  0
 29 42  1  0  0  0  0
 29 30  1  0  0  0  0
 30 31  1  0  0  0  0
 30 44  1  1  0  0  0
 31 45  1  0  0  0  0
 32 33  2  0  0  0  0
 32 30  1  0  0  0  0
 35 23  1  0  0  0  0
 36 25  1  0  0  0  0
 39 27  1  0  0  0  0
 40 28  1  0  0  0  0
 41 28  1  0  0  0  0
 43 29  1  0  0  0  0
 46 47  1  0  0  0  0
 46 56  1  0  0  0  0
 47 57  1  0  0  0  0
 48 47  1  0  0  0  0
 48 60  1  0  0  0  0
 48 59  1  0  0  0  0
 49 50  1  0  0  0  0
 49 61  1  1  0  0  0
 49 47  1  0  0  0  0
 50 32  1  0  0  0  0
 51 49  1  0  0  0  0
 52 51  1  0  0  0  0
 53 51  2  0  0  0  0
 54 46  1  0  0  0  0
 55 46  1  0  0  0  0
 58 48  1  0  0  0  0
 62 50  1  0  0  0  0
M  END
$$$$
