YSH.pdb
 OpenBabel07022419233D

 51 52  0  0  1  0  0  0  0  0999 V2000
    3.1970   -4.6190    3.5140 O   0  0  0  0  0  0  0  0  0  0  0  0
    3.1980   -3.6490    2.4990 C   0  0  0  0  0  0  0  0  0  0  0  0
    4.3060   -3.4300    1.7240 C   0  0  0  0  0  0  0  0  0  0  0  0
    4.2750   -2.4580    0.7210 C   0  0  0  0  0  0  0  0  0  0  0  0
    3.1480   -1.7060    0.4880 C   0  0  0  0  0  0  0  0  0  0  0  0
    3.1210   -0.6820   -0.5550 C   0  0  0  0  0  0  0  0  0  0  0  0
    3.4970    0.6930   -0.0280 C   0  0  2  0  0  0  0  0  0  0  0  0
    4.8080    0.6900    0.5320 N   0  0  0  0  0  0  0  0  0  0  0  0
    2.4520    1.1800    0.9390 C   0  0  0  0  0  0  0  0  0  0  0  0
    2.7320    1.4180    2.1410 O   0  0  0  0  0  0  0  0  0  0  0  0
    2.0560   -1.9570    1.2890 C   0  0  0  0  0  0  0  0  0  0  0  0
    2.0750   -2.9150    2.2830 C   0  0  0  0  0  0  0  0  0  0  0  0
    3.0680   -4.3120    4.4850 H   0  0  0  0  0  0  0  0  0  0  0  0
    5.1890   -4.0150    1.9020 H   0  0  0  0  0  0  0  0  0  0  0  0
    5.1790   -2.3380    0.1490 H   0  0  0  0  0  0  0  0  0  0  0  0
    2.1120   -0.6120   -1.0190 H   0  0  0  0  0  0  0  0  0  0  0  0
    3.8270   -0.9030   -1.3840 H   0  0  0  0  0  0  0  0  0  0  0  0
    3.4530    1.3830   -0.8940 H   0  0  0  0  0  0  0  0  0  0  0  0
    4.8090    0.4100    1.5320 H   0  0  0  0  0  0  0  0  0  0  0  0
    5.4410    0.0410    0.0200 H   0  0  0  0  0  0  0  0  0  0  0  0
    1.1520   -1.3940    1.1540 H   0  0  0  0  0  0  0  0  0  0  0  0
    1.2090   -3.1080    2.9110 H   0  0  0  0  0  0  0  0  0  0  0  0
   -0.6020    3.4630   -0.0390 O   0  0  0  0  0  0  0  0  0  0  0  0
   -0.1070    3.3690    1.2590 C   0  0  0  0  0  0  0  0  0  0  0  0
    0.1530    1.8640    1.5110 C   0  0  2  0  0  0  0  0  0  0  0  0
    1.1100    1.3940    0.5470 N   0  0  0  0  0  0  0  0  0  0  0  0
   -1.1210    1.1200    1.3980 C   0  0  0  0  0  0  0  0  0  0  0  0
   -2.1090    1.3970    2.1730 O   0  0  0  0  0  0  0  0  0  0  0  0
    0.1140    3.1980   -0.6880 H   0  0  0  0  0  0  0  0  0  0  0  0
    0.8360    3.8990    1.4020 H   0  0  0  0  0  0  0  0  0  0  0  0
   -0.8670    3.7330    1.9480 H   0  0  0  0  0  0  0  0  0  0  0  0
    0.5200    1.8320    2.5480 H   0  0  0  0  0  0  0  0  0  0  0  0
    0.7950    1.2210   -0.4260 H   0  0  0  0  0  0  0  0  0  0  0  0
   -1.3890    0.0800    0.4780 N   0  0  0  0  0  0  0  0  0  0  0  0
   -2.6850   -0.5980    0.4210 C   0  0  1  0  0  0  0  0  0  0  0  0
   -3.3400   -0.4160   -0.9020 C   0  0  0  0  0  0  0  0  0  0  0  0
   -4.6390   -1.1020   -0.9400 C   0  0  0  0  0  0  0  0  0  0  0  0
   -4.9760   -2.3680   -1.3540 C   0  0  0  0  0  0  0  0  0  0  0  0
   -6.2940   -2.5660   -1.2360 N   0  0  0  0  0  0  0  0  0  0  0  0
   -6.8310   -1.4430   -0.7470 C   0  0  0  0  0  0  0  0  0  0  0  0
   -5.8250   -0.5420   -0.5640 N   0  0  0  0  0  0  0  0  0  0  0  0
   -2.5690   -2.0210    0.7920 C   0  0  0  0  0  0  0  0  0  0  0  0
   -3.5160   -2.8140    0.8780 O   0  0  0  0  0  0  0  0  0  0  0  0
   -1.2920   -2.5470    1.0740 O   0  0  0  0  0  0  0  0  0  0  0  0
   -0.6410   -0.2120   -0.1800 H   0  0  0  0  0  0  0  0  0  0  0  0
   -3.3530   -0.1370    1.2040 H   0  0  0  0  0  0  0  0  0  0  0  0
   -3.4940    0.6620   -1.1270 H   0  0  0  0  0  0  0  0  0  0  0  0
   -2.6600   -0.8550   -1.6670 H   0  0  0  0  0  0  0  0  0  0  0  0
   -4.2740   -3.1010   -1.7280 H   0  0  0  0  0  0  0  0  0  0  0  0
   -6.8040   -3.4300   -1.4780 H   0  0  0  0  0  0  0  0  0  0  0  0
   -7.8900   -1.2680   -0.5300 H   0  0  0  0  0  0  0  0  0  0  0  0
  1 13  1  0  0  0  0
  2  1  1  0  0  0  0
  3 14  1  0  0  0  0
  3  2  2  0  0  0  0
  4  3  1  0  0  0  0
  5  4  2  0  0  0  0
  5 11  1  0  0  0  0
  6  7  1  0  0  0  0
  6  5  1  0  0  0  0
  7 18  1  6  0  0  0
  7  8  1  0  0  0  0
  7  9  1  0  0  0  0
  8 19  1  0  0  0  0
  9 10  2  0  0  0  0
 11 12  2  0  0  0  0
 12  2  1  0  0  0  0
 12 22  1  0  0  0  0
 15  4  1  0  0  0  0
 16  6  1  0  0  0  0
 17  6  1  0  0  0  0
 20  8  1  0  0  0  0
 21 11  1  0  0  0  0
 23 24  1  0  0  0  0
 24 30  1  0  0  0  0
 24 25  1  0  0  0  0
 24 31  1  0  0  0  0
 25 32  1  1  0  0  0
 26  9  1  0  0  0  0
 26 25  1  0  0  0  0
 27 25  1  0  0  0  0
 27 28  2  0  0  0  0
 29 23  1  0  0  0  0
 33 26  1  0  0  0  0
 34 27  1  0  0  0  0
 35 34  1  0  0  0  0
 35 42  1  0  0  0  0
 35 46  1  1  0  0  0
 36 35  1  0  0  0  0
 37 36  1  0  0  0  0
 37 41  1  0  0  0  0
 38 39  1  0  0  0  0
 38 37  2  0  0  0  0
 39 40  1  0  0  0  0
 40 41  2  0  0  0  0
 40 51  1  0  0  0  0
 42 43  2  0  0  0  0
 42 44  1  0  0  0  0
 45 34  1  0  0  0  0
 47 36  1  0  0  0  0
 48 36  1  0  0  0  0
 49 38  1  0  0  0  0
 50 39  1  0  0  0  0
M  END
$$$$
