YSI.pdb
 OpenBabel07022419233D

 53 53  0  0  1  0  0  0  0  0999 V2000
    8.0970   -1.9230   -1.1770 O   0  0  0  0  0  0  0  0  0  0  0  0
    6.9440   -1.4820   -0.5640 C   0  0  0  0  0  0  0  0  0  0  0  0
    6.6080   -1.9860    0.6910 C   0  0  0  0  0  0  0  0  0  0  0  0
    5.4430   -1.5250    1.2840 C   0  0  0  0  0  0  0  0  0  0  0  0
    4.6300   -0.6060    0.6790 C   0  0  0  0  0  0  0  0  0  0  0  0
    3.4240   -0.1330    1.2990 C   0  0  0  0  0  0  0  0  0  0  0  0
    2.1750   -0.9000    1.0090 C   0  0  2  0  0  0  0  0  0  0  0  0
    1.8850   -0.9060   -0.3980 N   0  0  0  0  0  0  0  0  0  0  0  0
    1.0750   -0.2240    1.7870 C   0  0  0  0  0  0  0  0  0  0  0  0
    1.2090   -0.1530    3.0360 O   0  0  0  0  0  0  0  0  0  0  0  0
    5.0010   -0.1380   -0.5570 C   0  0  0  0  0  0  0  0  0  0  0  0
    6.1450   -0.5580   -1.1950 C   0  0  0  0  0  0  0  0  0  0  0  0
    8.4840   -2.8240   -0.9390 H   0  0  0  0  0  0  0  0  0  0  0  0
    7.2490   -2.7020    1.1530 H   0  0  0  0  0  0  0  0  0  0  0  0
    5.1610   -1.8960    2.2490 H   0  0  0  0  0  0  0  0  0  0  0  0
    3.2320    0.9380    1.0200 H   0  0  0  0  0  0  0  0  0  0  0  0
    3.5720   -0.1080    2.4160 H   0  0  0  0  0  0  0  0  0  0  0  0
    2.1950   -1.9370    1.3580 H   0  0  0  0  0  0  0  0  0  0  0  0
    2.7620   -1.1480   -0.9060 H   0  0  0  0  0  0  0  0  0  0  0  0
    1.1740   -1.6040   -0.6770 H   0  0  0  0  0  0  0  0  0  0  0  0
    4.3950    0.6000   -1.0980 H   0  0  0  0  0  0  0  0  0  0  0  0
    6.4210   -0.1680   -2.1870 H   0  0  0  0  0  0  0  0  0  0  0  0
   -2.3330    2.9250    2.3620 O   0  0  0  0  0  0  0  0  0  0  0  0
   -1.3030    2.4060    1.5690 C   0  0  0  0  0  0  0  0  0  0  0  0
   -1.1220    0.9660    1.9660 C   0  0  2  0  0  0  0  0  0  0  0  0
   -0.0700    0.3190    1.2040 N   0  0  0  0  0  0  0  0  0  0  0  0
   -2.4160    0.2480    1.8270 C   0  0  0  0  0  0  0  0  0  0  0  0
   -3.4310    0.6820    2.4250 O   0  0  0  0  0  0  0  0  0  0  0  0
   -2.9710    3.4630    1.8510 H   0  0  0  0  0  0  0  0  0  0  0  0
   -0.4060    2.9950    1.7940 H   0  0  0  0  0  0  0  0  0  0  0  0
   -1.6080    2.5270    0.5270 H   0  0  0  0  0  0  0  0  0  0  0  0
   -0.8660    0.9530    3.0480 H   0  0  0  0  0  0  0  0  0  0  0  0
   -0.1990    0.2690    0.1710 H   0  0  0  0  0  0  0  0  0  0  0  0
   -3.3010    0.2400   -1.4770 C   0  0  0  0  0  0  0  0  0  0  0  0
   -4.5260   -0.5740   -1.2280 C   0  0  0  0  0  0  0  0  0  0  0  0
   -4.3180   -1.8440   -0.4840 C   0  0  2  0  0  0  0  0  0  0  0  0
   -5.6990   -2.5130   -0.3610 C   0  0  0  0  0  0  0  0  0  0  0  0
   -3.8490   -1.6210    0.9110 C   0  0  2  0  0  0  0  0  0  0  0  0
   -2.5890   -0.9270    1.0430 N   0  0  0  0  0  0  0  0  0  0  0  0
   -3.6610   -2.9800    1.5240 C   0  0  0  0  0  0  0  0  0  0  0  0
   -4.5730   -3.8400    1.5820 O   0  0  0  0  0  0  0  0  0  0  0  0
   -2.4390   -3.3400    2.0620 O   0  0  0  0  0  0  0  0  0  0  0  0
   -3.2960    1.1040   -0.7640 H   0  0  0  0  0  0  0  0  0  0  0  0
   -3.3750    0.7490   -2.4850 H   0  0  0  0  0  0  0  0  0  0  0  0
   -2.3640   -0.3170   -1.5090 H   0  0  0  0  0  0  0  0  0  0  0  0
   -5.3060    0.0060   -0.6510 H   0  0  0  0  0  0  0  0  0  0  0  0
   -5.0470   -0.8530   -2.1910 H   0  0  0  0  0  0  0  0  0  0  0  0
   -3.6170   -2.5460   -0.9870 H   0  0  0  0  0  0  0  0  0  0  0  0
   -6.3960   -2.0930   -1.1170 H   0  0  0  0  0  0  0  0  0  0  0  0
   -6.1240   -2.2480    0.6240 H   0  0  0  0  0  0  0  0  0  0  0  0
   -5.5480   -3.6020   -0.5150 H   0  0  0  0  0  0  0  0  0  0  0  0
   -4.6550   -1.1030    1.5050 H   0  0  0  0  0  0  0  0  0  0  0  0
   -1.7640   -1.3130    0.5430 H   0  0  0  0  0  0  0  0  0  0  0  0
  1 13  1  0  0  0  0
  1  2  1  0  0  0  0
  2  3  1  0  0  0  0
  3 14  1  0  0  0  0
  3  4  2  0  0  0  0
  4 15  1  0  0  0  0
  5  4  1  0  0  0  0
  5  6  1  0  0  0  0
  6 17  1  0  0  0  0
  7  6  1  0  0  0  0
  7 18  1  1  0  0  0
  7  9  1  0  0  0  0
  8  7  1  0  0  0  0
  9 10  2  0  0  0  0
 11  5  2  0  0  0  0
 12  2  2  0  0  0  0
 12 11  1  0  0  0  0
 16  6  1  0  0  0  0
 19  8  1  0  0  0  0
 20  8  1  0  0  0  0
 21 11  1  0  0  0  0
 22 12  1  0  0  0  0
 24 30  1  0  0  0  0
 24 25  1  0  0  0  0
 24 23  1  0  0  0  0
 25 32  1  1  0  0  0
 26  9  1  0  0  0  0
 26 25  1  0  0  0  0
 27 25  1  0  0  0  0
 27 28  2  0  0  0  0
 29 23  1  0  0  0  0
 31 24  1  0  0  0  0
 33 26  1  0  0  0  0
 34 35  1  0  0  0  0
 34 43  1  0  0  0  0
 35 46  1  0  0  0  0
 35 36  1  0  0  0  0
 36 48  1  6  0  0  0
 36 37  1  0  0  0  0
 36 38  1  0  0  0  0
 37 50  1  0  0  0  0
 38 39  1  0  0  0  0
 38 52  1  1  0  0  0
 38 40  1  0  0  0  0
 39 27  1  0  0  0  0
 40 41  2  0  0  0  0
 40 42  1  0  0  0  0
 44 34  1  0  0  0  0
 45 34  1  0  0  0  0
 47 35  1  0  0  0  0
 49 37  1  0  0  0  0
 51 37  1  0  0  0  0
 53 39  1  0  0  0  0
M  END
$$$$
