YSK.pdb
 OpenBabel07022419233D

 55 55  0  0  1  0  0  0  0  0999 V2000
    0.4320   -4.5780    3.0020 O   0  0  0  0  0  0  0  0  0  0  0  0
    1.3320   -3.7120    2.3650 C   0  0  0  0  0  0  0  0  0  0  0  0
    1.8520   -4.1230    1.1580 C   0  0  0  0  0  0  0  0  0  0  0  0
    2.7370   -3.2880    0.5200 C   0  0  0  0  0  0  0  0  0  0  0  0
    3.0920   -2.0550    1.0940 C   0  0  0  0  0  0  0  0  0  0  0  0
    4.0700   -1.1720    0.4650 C   0  0  0  0  0  0  0  0  0  0  0  0
    3.5510   -0.1650   -0.5280 C   0  0  2  0  0  0  0  0  0  0  0  0
    4.7920    0.5400   -0.9870 N   0  0  0  0  0  0  0  0  0  0  0  0
    2.6760    0.8170    0.1110 C   0  0  0  0  0  0  0  0  0  0  0  0
    3.1900    1.8590    0.6540 O   0  0  0  0  0  0  0  0  0  0  0  0
    2.5560   -1.6620    2.3080 C   0  0  0  0  0  0  0  0  0  0  0  0
    1.6680   -2.5050    2.9420 C   0  0  0  0  0  0  0  0  0  0  0  0
    0.2650   -4.5130    4.0060 H   0  0  0  0  0  0  0  0  0  0  0  0
    1.5690   -5.0800    0.7240 H   0  0  0  0  0  0  0  0  0  0  0  0
    3.1900   -3.5460   -0.4400 H   0  0  0  0  0  0  0  0  0  0  0  0
    4.8230   -1.8330   -0.0470 H   0  0  0  0  0  0  0  0  0  0  0  0
    4.6260   -0.5670    1.2360 H   0  0  0  0  0  0  0  0  0  0  0  0
    3.1680   -0.6690   -1.4110 H   0  0  0  0  0  0  0  0  0  0  0  0
    4.4890    1.0750   -1.8520 H   0  0  0  0  0  0  0  0  0  0  0  0
    5.4100   -0.2340   -1.3490 H   0  0  0  0  0  0  0  0  0  0  0  0
    2.8010   -0.7210    2.7850 H   0  0  0  0  0  0  0  0  0  0  0  0
    1.2440   -2.1980    3.9000 H   0  0  0  0  0  0  0  0  0  0  0  0
   -0.5280    2.3590   -1.2220 O   0  0  0  0  0  0  0  0  0  0  0  0
    0.2220    2.9200   -0.2150 C   0  0  0  0  0  0  0  0  0  0  0  0
    0.5120    1.8250    0.8560 C   0  0  2  0  0  0  0  0  0  0  0  0
    1.2420    0.7590    0.2010 N   0  0  0  0  0  0  0  0  0  0  0  0
   -0.7410    1.3770    1.4190 C   0  0  0  0  0  0  0  0  0  0  0  0
   -1.4450    2.2390    2.0720 O   0  0  0  0  0  0  0  0  0  0  0  0
   -0.9800    3.1250   -1.6990 H   0  0  0  0  0  0  0  0  0  0  0  0
   -0.3190    3.7120    0.3280 H   0  0  0  0  0  0  0  0  0  0  0  0
    1.1980    3.3100   -0.5180 H   0  0  0  0  0  0  0  0  0  0  0  0
    1.1250    2.3770    1.5900 H   0  0  0  0  0  0  0  0  0  0  0  0
    0.7830   -0.0560   -0.2150 H   0  0  0  0  0  0  0  0  0  0  0  0
   -1.3300    0.0930    1.3540 N   0  0  0  0  0  0  0  0  0  0  0  0
   -2.6060   -0.2040    1.9570 C   0  0  1  0  0  0  0  0  0  0  0  0
   -3.7950   -0.0800    1.0520 C   0  0  0  0  0  0  0  0  0  0  0  0
   -3.9130   -0.8990   -0.1510 C   0  0  0  0  0  0  0  0  0  0  0  0
   -2.8980   -0.7320   -1.2330 C   0  0  0  0  0  0  0  0  0  0  0  0
   -3.2920   -1.6770   -2.3760 C   0  0  0  0  0  0  0  0  0  0  0  0
   -2.3750   -1.5910   -3.4700 N   0  0  0  0  0  0  0  0  0  0  0  0
   -2.5590   -1.5640    2.5350 C   0  0  0  0  0  0  0  0  0  0  0  0
   -1.5220   -2.2610    2.4420 O   0  0  0  0  0  0  0  0  0  0  0  0
   -3.7090   -2.0320    3.1800 O   0  0  0  0  0  0  0  0  0  0  0  0
   -0.8030   -0.6570    0.8880 H   0  0  0  0  0  0  0  0  0  0  0  0
   -2.7520    0.5560    2.8070 H   0  0  0  0  0  0  0  0  0  0  0  0
   -4.7080   -0.2520    1.7230 H   0  0  0  0  0  0  0  0  0  0  0  0
   -3.9230    1.0160    0.7370 H   0  0  0  0  0  0  0  0  0  0  0  0
   -4.9080   -0.6230   -0.6480 H   0  0  0  0  0  0  0  0  0  0  0  0
   -4.0840   -1.9970    0.0720 H   0  0  0  0  0  0  0  0  0  0  0  0
   -2.9910    0.3050   -1.6480 H   0  0  0  0  0  0  0  0  0  0  0  0
   -1.8640   -0.9900   -0.9860 H   0  0  0  0  0  0  0  0  0  0  0  0
   -3.2860   -2.7180   -1.9900 H   0  0  0  0  0  0  0  0  0  0  0  0
   -4.2930   -1.3580   -2.7350 H   0  0  0  0  0  0  0  0  0  0  0  0
   -1.7250   -2.4070   -3.5460 H   0  0  0  0  0  0  0  0  0  0  0  0
   -2.8060   -1.3210   -4.3670 H   0  0  0  0  0  0  0  0  0  0  0  0
  1 13  1  0  0  0  0
  2 12  1  0  0  0  0
  2  1  1  0  0  0  0
  3  2  2  0  0  0  0
  4  5  2  0  0  0  0
  4  3  1  0  0  0  0
  5 11  1  0  0  0  0
  6  5  1  0  0  0  0
  6 17  1  0  0  0  0
  7 18  1  6  0  0  0
  7  9  1  0  0  0  0
  7  6  1  0  0  0  0
  8  7  1  0  0  0  0
  9 26  1  0  0  0  0
  9 10  2  0  0  0  0
 11 21  1  0  0  0  0
 11 12  2  0  0  0  0
 12 22  1  0  0  0  0
 14  3  1  0  0  0  0
 15  4  1  0  0  0  0
 16  6  1  0  0  0  0
 19  8  1  0  0  0  0
 20  8  1  0  0  0  0
 23 24  1  0  0  0  0
 24 30  1  0  0  0  0
 24 25  1  0  0  0  0
 25 27  1  0  0  0  0
 25 32  1  1  0  0  0
 26 25  1  0  0  0  0
 27 28  2  0  0  0  0
 29 23  1  0  0  0  0
 31 24  1  0  0  0  0
 33 26  1  0  0  0  0
 34 27  1  0  0  0  0
 34 35  1  0  0  0  0
 35 41  1  0  0  0  0
 35 45  1  1  0  0  0
 36 46  1  0  0  0  0
 36 35  1  0  0  0  0
 37 49  1  0  0  0  0
 37 36  1  0  0  0  0
 38 51  1  0  0  0  0
 38 37  1  0  0  0  0
 39 52  1  0  0  0  0
 39 38  1  0  0  0  0
 40 39  1  0  0  0  0
 41 43  1  0  0  0  0
 42 41  2  0  0  0  0
 44 34  1  0  0  0  0
 47 36  1  0  0  0  0
 48 37  1  0  0  0  0
 50 38  1  0  0  0  0
 53 39  1  0  0  0  0
 54 40  1  0  0  0  0
 55 40  1  0  0  0  0
M  END
$$$$
