YSL.pdb
 OpenBabel07022419233D

 53 53  0  0  1  0  0  0  0  0999 V2000
    2.7900    0.6240    6.8880 O   0  0  0  0  0  0  0  0  0  0  0  0
    3.1340    0.8030    5.5480 C   0  0  0  0  0  0  0  0  0  0  0  0
    2.3410    1.5650    4.7140 C   0  0  0  0  0  0  0  0  0  0  0  0
    2.7190    1.7100    3.4160 C   0  0  0  0  0  0  0  0  0  0  0  0
    3.8510    1.1360    2.8890 C   0  0  0  0  0  0  0  0  0  0  0  0
    4.1810    1.3460    1.4760 C   0  0  0  0  0  0  0  0  0  0  0  0
    3.6180    0.3310    0.5320 C   0  0  2  0  0  0  0  0  0  0  0  0
    4.0360    0.6860   -0.8020 N   0  0  0  0  0  0  0  0  0  0  0  0
    2.1620    0.1350    0.6400 C   0  0  0  0  0  0  0  0  0  0  0  0
    1.6360   -0.1890    1.7350 O   0  0  0  0  0  0  0  0  0  0  0  0
    4.6450    0.3750    3.7180 C   0  0  0  0  0  0  0  0  0  0  0  0
    4.2750    0.2200    5.0320 C   0  0  0  0  0  0  0  0  0  0  0  0
    2.9490   -0.2560    7.3410 H   0  0  0  0  0  0  0  0  0  0  0  0
    1.4460    2.0250    5.1100 H   0  0  0  0  0  0  0  0  0  0  0  0
    2.0790    2.3130    2.7830 H   0  0  0  0  0  0  0  0  0  0  0  0
    3.9330    2.3960    1.1420 H   0  0  0  0  0  0  0  0  0  0  0  0
    5.2980    1.2910    1.3720 H   0  0  0  0  0  0  0  0  0  0  0  0
    4.1010   -0.6500    0.7650 H   0  0  0  0  0  0  0  0  0  0  0  0
    3.9320   -0.1170   -1.4540 H   0  0  0  0  0  0  0  0  0  0  0  0
    3.6080    1.5620   -1.1470 H   0  0  0  0  0  0  0  0  0  0  0  0
    5.5630   -0.1010    3.3280 H   0  0  0  0  0  0  0  0  0  0  0  0
    4.8970   -0.3830    5.7070 H   0  0  0  0  0  0  0  0  0  0  0  0
   -0.5420    2.3570    0.2590 O   0  0  0  0  0  0  0  0  0  0  0  0
   -0.9290    1.3440   -0.6090 C   0  0  0  0  0  0  0  0  0  0  0  0
   -0.1280    0.0960   -0.3130 C   0  0  2  0  0  0  0  0  0  0  0  0
    1.2840    0.2990   -0.4700 N   0  0  0  0  0  0  0  0  0  0  0  0
   -0.5830   -1.0340   -1.1530 C   0  0  0  0  0  0  0  0  0  0  0  0
    0.2520   -1.6510   -1.8640 O   0  0  0  0  0  0  0  0  0  0  0  0
   -1.3300    2.8570    0.6060 H   0  0  0  0  0  0  0  0  0  0  0  0
   -1.9950    1.0960   -0.3540 H   0  0  0  0  0  0  0  0  0  0  0  0
   -0.8930    1.6450   -1.6650 H   0  0  0  0  0  0  0  0  0  0  0  0
   -0.3540   -0.1840    0.7430 H   0  0  0  0  0  0  0  0  0  0  0  0
    1.6750    0.5680   -1.4030 H   0  0  0  0  0  0  0  0  0  0  0  0
   -4.0020   -2.7700    0.6240 C   0  0  0  0  0  0  0  0  0  0  0  0
   -4.0420   -3.6820   -0.5500 C   0  0  0  0  0  0  0  0  0  0  0  0
   -5.3060   -3.4400   -1.3900 C   0  0  0  0  0  0  0  0  0  0  0  0
   -2.8260   -3.7810   -1.3750 C   0  0  0  0  0  0  0  0  0  0  0  0
   -2.3030   -2.5700   -2.0410 C   0  0  2  0  0  0  0  0  0  0  0  0
   -1.9280   -1.4740   -1.2100 N   0  0  0  0  0  0  0  0  0  0  0  0
   -3.2650   -2.1210   -3.1060 C   0  0  0  0  0  0  0  0  0  0  0  0
   -3.5940   -0.9080   -3.1270 O   0  0  0  0  0  0  0  0  0  0  0  0
   -3.7940   -2.9620   -4.0440 O   0  0  0  0  0  0  0  0  0  0  0  0
   -3.0030   -2.6140    1.0370 H   0  0  0  0  0  0  0  0  0  0  0  0
   -4.5740   -1.8160    0.4300 H   0  0  0  0  0  0  0  0  0  0  0  0
   -4.5890   -3.2200    1.4870 H   0  0  0  0  0  0  0  0  0  0  0  0
   -4.2220   -4.7230   -0.1340 H   0  0  0  0  0  0  0  0  0  0  0  0
   -5.4050   -2.4040   -1.7080 H   0  0  0  0  0  0  0  0  0  0  0  0
   -6.1840   -3.6340   -0.7050 H   0  0  0  0  0  0  0  0  0  0  0  0
   -5.3780   -4.2000   -2.1740 H   0  0  0  0  0  0  0  0  0  0  0  0
   -3.0330   -4.5600   -2.1680 H   0  0  0  0  0  0  0  0  0  0  0  0
   -2.0340   -4.2810   -0.7400 H   0  0  0  0  0  0  0  0  0  0  0  0
   -1.4050   -2.9300   -2.6500 H   0  0  0  0  0  0  0  0  0  0  0  0
   -2.6310   -0.9800   -0.6420 H   0  0  0  0  0  0  0  0  0  0  0  0
  1 13  1  0  0  0  0
  2  1  1  0  0  0  0
  3 14  1  0  0  0  0
  3  2  2  0  0  0  0
  4  3  1  0  0  0  0
  5  4  2  0  0  0  0
  5 11  1  0  0  0  0
  6  5  1  0  0  0  0
  7  9  1  0  0  0  0
  7 18  1  1  0  0  0
  7  6  1  0  0  0  0
  8  7  1  0  0  0  0
  9 10  2  0  0  0  0
 11 12  2  0  0  0  0
 12  2  1  0  0  0  0
 12 22  1  0  0  0  0
 15  4  1  0  0  0  0
 16  6  1  0  0  0  0
 17  6  1  0  0  0  0
 19  8  1  0  0  0  0
 20  8  1  0  0  0  0
 21 11  1  0  0  0  0
 23 29  1  0  0  0  0
 24 30  1  0  0  0  0
 24 25  1  0  0  0  0
 24 23  1  0  0  0  0
 25 32  1  1  0  0  0
 26 25  1  0  0  0  0
 26  9  1  0  0  0  0
 27 25  1  0  0  0  0
 28 27  2  0  0  0  0
 31 24  1  0  0  0  0
 33 26  1  0  0  0  0
 34 43  1  0  0  0  0
 34 45  1  0  0  0  0
 35 46  1  0  0  0  0
 35 34  1  0  0  0  0
 36 48  1  0  0  0  0
 36 35  1  0  0  0  0
 37 51  1  0  0  0  0
 37 35  1  0  0  0  0
 38 52  1  6  0  0  0
 38 37  1  0  0  0  0
 38 39  1  0  0  0  0
 39 27  1  0  0  0  0
 39 53  1  0  0  0  0
 40 38  1  0  0  0  0
 41 40  1  0  0  0  0
 42 40  2  0  0  0  0
 44 34  1  0  0  0  0
 47 36  1  0  0  0  0
 49 36  1  0  0  0  0
 50 37  1  0  0  0  0
M  END
$$$$
