YSM.pdb
 OpenBabel07022419233D

 51 51  0  0  1  0  0  0  0  0999 V2000
    4.1130   -4.0430   -1.1220 O   0  0  0  0  0  0  0  0  0  0  0  0
    3.5570   -2.7690   -0.9700 C   0  0  0  0  0  0  0  0  0  0  0  0
    2.2840   -2.5900   -0.4700 C   0  0  0  0  0  0  0  0  0  0  0  0
    1.7270   -1.3200   -0.3180 C   0  0  0  0  0  0  0  0  0  0  0  0
    2.4310   -0.1890   -0.6630 C   0  0  0  0  0  0  0  0  0  0  0  0
    1.8400    1.1640   -0.5040 C   0  0  0  0  0  0  0  0  0  0  0  0
    2.1310    1.7460    0.8610 C   0  0  2  0  0  0  0  0  0  0  0  0
    3.5790    1.8470    1.0680 N   0  0  0  0  0  0  0  0  0  0  0  0
    1.5440    1.0050    1.9760 C   0  0  0  0  0  0  0  0  0  0  0  0
    2.2510    0.4430    2.8530 O   0  0  0  0  0  0  0  0  0  0  0  0
    3.7070   -0.3750   -1.1640 C   0  0  0  0  0  0  0  0  0  0  0  0
    4.2540   -1.6290   -1.3130 C   0  0  0  0  0  0  0  0  0  0  0  0
    4.3910   -4.5390   -0.2700 H   0  0  0  0  0  0  0  0  0  0  0  0
    1.7250   -3.4630   -0.1970 H   0  0  0  0  0  0  0  0  0  0  0  0
    0.7220   -1.2750    0.0830 H   0  0  0  0  0  0  0  0  0  0  0  0
    0.7460    1.1220   -0.6670 H   0  0  0  0  0  0  0  0  0  0  0  0
    2.2770    1.8380   -1.2600 H   0  0  0  0  0  0  0  0  0  0  0  0
    1.7410    2.7880    0.8590 H   0  0  0  0  0  0  0  0  0  0  0  0
    3.7990    2.4750    1.8600 H   0  0  0  0  0  0  0  0  0  0  0  0
    4.0000    2.2690    0.2100 H   0  0  0  0  0  0  0  0  0  0  0  0
    4.2840    0.5060   -1.4450 H   0  0  0  0  0  0  0  0  0  0  0  0
    5.2460   -1.7350   -1.7050 H   0  0  0  0  0  0  0  0  0  0  0  0
   -0.0490    2.0270    4.5910 O   0  0  0  0  0  0  0  0  0  0  0  0
   -1.0680    1.1410    4.2070 C   0  0  0  0  0  0  0  0  0  0  0  0
   -0.4140    0.1330    3.2590 C   0  0  2  0  0  0  0  0  0  0  0  0
    0.1120    0.8800    2.1350 N   0  0  0  0  0  0  0  0  0  0  0  0
   -1.4200   -0.8630    2.8010 C   0  0  0  0  0  0  0  0  0  0  0  0
   -1.9240   -1.6030    3.7170 O   0  0  0  0  0  0  0  0  0  0  0  0
    0.2320    2.6110    3.8430 H   0  0  0  0  0  0  0  0  0  0  0  0
   -1.4270    0.6500    5.1320 H   0  0  0  0  0  0  0  0  0  0  0  0
   -1.8250    1.7270    3.6770 H   0  0  0  0  0  0  0  0  0  0  0  0
    0.4170   -0.3260    3.8430 H   0  0  0  0  0  0  0  0  0  0  0  0
   -0.5020    1.3380    1.4300 H   0  0  0  0  0  0  0  0  0  0  0  0
   -1.8310   -1.5700   -2.3000 C   0  0  0  0  0  0  0  0  0  0  0  0
   -3.5930   -1.3870   -2.1420 S   0  0  0  0  0  0  0  0  0  0  0  0
   -4.1960   -0.6860   -0.6320 C   0  0  0  0  0  0  0  0  0  0  0  0
   -4.0840   -1.5300    0.5600 C   0  0  0  0  0  0  0  0  0  0  0  0
   -2.7920   -1.9930    1.0740 C   0  0  2  0  0  0  0  0  0  0  0  0
   -1.8250   -1.0200    1.4500 N   0  0  0  0  0  0  0  0  0  0  0  0
   -2.2620   -3.1660    0.3380 C   0  0  0  0  0  0  0  0  0  0  0  0
   -1.0380   -3.3850    0.1370 O   0  0  0  0  0  0  0  0  0  0  0  0
   -3.1940   -4.0700   -0.1530 O   0  0  0  0  0  0  0  0  0  0  0  0
   -1.4670   -1.0340   -3.2150 H   0  0  0  0  0  0  0  0  0  0  0  0
   -1.6150   -2.6630   -2.4430 H   0  0  0  0  0  0  0  0  0  0  0  0
   -1.2700   -1.1350   -1.4600 H   0  0  0  0  0  0  0  0  0  0  0  0
   -5.3170   -0.5110   -0.7860 H   0  0  0  0  0  0  0  0  0  0  0  0
   -3.8370    0.3720   -0.4650 H   0  0  0  0  0  0  0  0  0  0  0  0
   -4.7050   -1.0960    1.4120 H   0  0  0  0  0  0  0  0  0  0  0  0
   -4.6890   -2.4780    0.3300 H   0  0  0  0  0  0  0  0  0  0  0  0
   -3.0800   -2.4950    2.1000 H   0  0  0  0  0  0  0  0  0  0  0  0
   -1.3570   -0.3610    0.7790 H   0  0  0  0  0  0  0  0  0  0  0  0
  1  2  1  0  0  0  0
  1 13  1  0  0  0  0
  2  3  1  0  0  0  0
  3  4  2  0  0  0  0
  3 14  1  0  0  0  0
  4 15  1  0  0  0  0
  5  6  1  0  0  0  0
  5  4  1  0  0  0  0
  6  7  1  0  0  0  0
  7 18  1  1  0  0  0
  7  8  1  0  0  0  0
  7  9  1  0  0  0  0
  8 19  1  0  0  0  0
  9 26  1  0  0  0  0
  9 10  2  0  0  0  0
 11  5  2  0  0  0  0
 12 11  1  0  0  0  0
 12  2  2  0  0  0  0
 16  6  1  0  0  0  0
 17  6  1  0  0  0  0
 20  8  1  0  0  0  0
 21 11  1  0  0  0  0
 22 12  1  0  0  0  0
 24 23  1  0  0  0  0
 24 30  1  0  0  0  0
 25 32  1  1  0  0  0
 25 24  1  0  0  0  0
 26 25  1  0  0  0  0
 27 25  1  0  0  0  0
 27 28  2  0  0  0  0
 29 23  1  0  0  0  0
 31 24  1  0  0  0  0
 33 26  1  0  0  0  0
 34 35  1  0  0  0  0
 34 45  1  0  0  0  0
 35 36  1  0  0  0  0
 36 47  1  0  0  0  0
 36 37  1  0  0  0  0
 37 38  1  0  0  0  0
 37 48  1  0  0  0  0
 38 39  1  0  0  0  0
 38 50  1  1  0  0  0
 39 27  1  0  0  0  0
 40 38  1  0  0  0  0
 41 40  1  0  0  0  0
 42 40  2  0  0  0  0
 43 34  1  0  0  0  0
 44 34  1  0  0  0  0
 46 36  1  0  0  0  0
 49 37  1  0  0  0  0
 51 39  1  0  0  0  0
M  END
$$$$
