YSP.pdb
 OpenBabel07022419233D

 48 49  0  0  1  0  0  0  0  0999 V2000
    5.9550   -3.1300    2.5510 O   0  0  0  0  0  0  0  0  0  0  0  0
    5.2300   -2.2280    1.7570 C   0  0  0  0  0  0  0  0  0  0  0  0
    4.5390   -1.2230    2.4110 C   0  0  0  0  0  0  0  0  0  0  0  0
    3.8030   -0.2950    1.7060 C   0  0  0  0  0  0  0  0  0  0  0  0
    3.7840   -0.4120    0.3320 C   0  0  0  0  0  0  0  0  0  0  0  0
    2.9970    0.5770   -0.4370 C   0  0  0  0  0  0  0  0  0  0  0  0
    1.5680    0.1550   -0.6880 C   0  0  2  0  0  0  0  0  0  0  0  0
    0.9550    1.2330   -1.4460 N   0  0  0  0  0  0  0  0  0  0  0  0
    0.8100   -0.1530    0.5410 C   0  0  0  0  0  0  0  0  0  0  0  0
    1.2160   -1.0940    1.2700 O   0  0  0  0  0  0  0  0  0  0  0  0
    4.4780   -1.4240   -0.3390 C   0  0  0  0  0  0  0  0  0  0  0  0
    5.2100   -2.3440    0.3770 C   0  0  0  0  0  0  0  0  0  0  0  0
    5.5180   -4.0170    2.8080 H   0  0  0  0  0  0  0  0  0  0  0  0
    4.5610   -1.1380    3.5050 H   0  0  0  0  0  0  0  0  0  0  0  0
    3.2620    0.4930    2.2300 H   0  0  0  0  0  0  0  0  0  0  0  0
    3.4440    0.7650   -1.4380 H   0  0  0  0  0  0  0  0  0  0  0  0
    2.9980    1.5450    0.1370 H   0  0  0  0  0  0  0  0  0  0  0  0
    1.6140   -0.7180   -1.3940 H   0  0  0  0  0  0  0  0  0  0  0  0
    1.6510    1.7120   -2.0600 H   0  0  0  0  0  0  0  0  0  0  0  0
    0.1340    0.9370   -1.9840 H   0  0  0  0  0  0  0  0  0  0  0  0
    4.4460   -1.4930   -1.4260 H   0  0  0  0  0  0  0  0  0  0  0  0
    5.7710   -3.1520   -0.0720 H   0  0  0  0  0  0  0  0  0  0  0  0
    0.2740    1.6690    3.4110 O   0  0  0  0  0  0  0  0  0  0  0  0
   -1.0700    1.3760    3.1270 C   0  0  0  0  0  0  0  0  0  0  0  0
   -1.0450    0.2040    2.1550 C   0  0  2  0  0  0  0  0  0  0  0  0
   -0.3440    0.5400    0.9550 N   0  0  0  0  0  0  0  0  0  0  0  0
   -2.3450   -0.4370    2.0140 C   0  0  0  0  0  0  0  0  0  0  0  0
   -2.9960   -0.6380    3.1140 O   0  0  0  0  0  0  0  0  0  0  0  0
    0.4990    2.6060    3.2340 H   0  0  0  0  0  0  0  0  0  0  0  0
   -1.6230    2.2320    2.7410 H   0  0  0  0  0  0  0  0  0  0  0  0
   -1.4900    0.9640    4.0830 H   0  0  0  0  0  0  0  0  0  0  0  0
   -0.3790   -0.5540    2.6910 H   0  0  0  0  0  0  0  0  0  0  0  0
   -0.6920    1.3350    0.3790 H   0  0  0  0  0  0  0  0  0  0  0  0
   -2.9860   -0.8670    0.8380 N   0  0  0  0  0  0  0  0  0  0  0  0
   -2.6190   -0.8580   -0.5590 C   0  0  0  0  0  0  0  0  0  0  0  0
   -3.8640   -0.1760   -1.1500 C   0  0  0  0  0  0  0  0  0  0  0  0
   -4.9580   -0.9870   -0.4830 C   0  0  0  0  0  0  0  0  0  0  0  0
   -4.3380   -1.4900    0.7860 C   0  0  1  0  0  0  0  0  0  0  0  0
   -4.1940   -2.9660    0.6840 C   0  0  0  0  0  0  0  0  0  0  0  0
   -5.2350   -3.6590    0.6290 O   0  0  0  0  0  0  0  0  0  0  0  0
   -2.9710   -3.5990    0.6480 O   0  0  0  0  0  0  0  0  0  0  0  0
   -1.7190   -0.3360   -0.8280 H   0  0  0  0  0  0  0  0  0  0  0  0
   -2.6400   -1.9000   -0.9740 H   0  0  0  0  0  0  0  0  0  0  0  0
   -3.8900   -0.2450   -2.2390 H   0  0  0  0  0  0  0  0  0  0  0  0
   -3.9070    0.8650   -0.8050 H   0  0  0  0  0  0  0  0  0  0  0  0
   -5.8160   -0.3200   -0.2580 H   0  0  0  0  0  0  0  0  0  0  0  0
   -5.3160   -1.8040   -1.1390 H   0  0  0  0  0  0  0  0  0  0  0  0
   -4.8680   -1.1930    1.7000 H   0  0  0  0  0  0  0  0  0  0  0  0
  1 13  1  0  0  0  0
  2  3  1  0  0  0  0
  2  1  1  0  0  0  0
  3 14  1  0  0  0  0
  4 15  1  0  0  0  0
  4  3  2  0  0  0  0
  5  4  1  0  0  0  0
  6 17  1  0  0  0  0
  6  5  1  0  0  0  0
  7 18  1  6  0  0  0
  7  6  1  0  0  0  0
  7  9  1  0  0  0  0
  8  7  1  0  0  0  0
  9 26  1  0  0  0  0
  9 10  2  0  0  0  0
 11  5  2  0  0  0  0
 11 12  1  0  0  0  0
 12  2  2  0  0  0  0
 16  6  1  0  0  0  0
 19  8  1  0  0  0  0
 20  8  1  0  0  0  0
 21 11  1  0  0  0  0
 22 12  1  0  0  0  0
 24 23  1  0  0  0  0
 24 31  1  0  0  0  0
 25 32  1  1  0  0  0
 25 24  1  0  0  0  0
 26 25  1  0  0  0  0
 27 25  1  0  0  0  0
 27 28  2  0  0  0  0
 29 23  1  0  0  0  0
 30 24  1  0  0  0  0
 33 26  1  0  0  0  0
 34 27  1  0  0  0  0
 35 34  1  0  0  0  0
 36 45  1  0  0  0  0
 36 35  1  0  0  0  0
 36 37  1  0  0  0  0
 37 46  1  0  0  0  0
 37 38  1  0  0  0  0
 38 34  1  0  0  0  0
 38 48  1  1  0  0  0
 39 38  1  0  0  0  0
 40 39  2  0  0  0  0
 41 39  1  0  0  0  0
 42 35  1  0  0  0  0
 43 35  1  0  0  0  0
 44 36  1  0  0  0  0
 47 37  1  0  0  0  0
M  END
$$$$
