YSQ.pdb
 OpenBabel07022419233D

 51 51  0  0  1  0  0  0  0  0999 V2000
    2.9960    1.7190    5.8110 O   0  0  0  0  0  0  0  0  0  0  0  0
    3.1400    0.5690    5.0280 C   0  0  0  0  0  0  0  0  0  0  0  0
    2.0670   -0.2610    4.8580 C   0  0  0  0  0  0  0  0  0  0  0  0
    2.2060   -1.4060    4.0800 C   0  0  0  0  0  0  0  0  0  0  0  0
    3.4030   -1.7200    3.4780 C   0  0  0  0  0  0  0  0  0  0  0  0
    3.6200   -2.9170    2.6380 C   0  0  0  0  0  0  0  0  0  0  0  0
    3.3350   -2.6270    1.1820 C   0  0  2  0  0  0  0  0  0  0  0  0
    4.1930   -1.5720    0.6750 N   0  0  0  0  0  0  0  0  0  0  0  0
    1.9020   -2.2710    1.0630 C   0  0  0  0  0  0  0  0  0  0  0  0
    1.0490   -3.1110    1.4390 O   0  0  0  0  0  0  0  0  0  0  0  0
    4.4570   -0.8560    3.6760 C   0  0  0  0  0  0  0  0  0  0  0  0
    4.3370    0.2850    4.4450 C   0  0  0  0  0  0  0  0  0  0  0  0
    2.5590    1.7220    6.7190 H   0  0  0  0  0  0  0  0  0  0  0  0
    1.0980   -0.0520    5.3170 H   0  0  0  0  0  0  0  0  0  0  0  0
    1.3760   -2.0580    3.9450 H   0  0  0  0  0  0  0  0  0  0  0  0
    2.8810   -3.7070    2.9440 H   0  0  0  0  0  0  0  0  0  0  0  0
    4.6300   -3.3520    2.7750 H   0  0  0  0  0  0  0  0  0  0  0  0
    3.5120   -3.5320    0.5690 H   0  0  0  0  0  0  0  0  0  0  0  0
    3.9570   -1.4660   -0.3460 H   0  0  0  0  0  0  0  0  0  0  0  0
    5.1750   -1.8730    0.7300 H   0  0  0  0  0  0  0  0  0  0  0  0
    5.4180   -1.0440    3.2330 H   0  0  0  0  0  0  0  0  0  0  0  0
    5.1700    0.9460    4.5870 H   0  0  0  0  0  0  0  0  0  0  0  0
   -1.5570    0.8400    1.3770 O   0  0  0  0  0  0  0  0  0  0  0  0
   -0.2460    0.4410    1.3530 C   0  0  0  0  0  0  0  0  0  0  0  0
    0.0140   -0.7500    0.4590 C   0  0  2  0  0  0  0  0  0  0  0  0
    1.4270   -1.0360    0.5490 N   0  0  0  0  0  0  0  0  0  0  0  0
   -0.4130   -0.5170   -0.9440 C   0  0  0  0  0  0  0  0  0  0  0  0
    0.4120   -0.5730   -1.9090 O   0  0  0  0  0  0  0  0  0  0  0  0
   -1.5950    1.8200    1.4700 H   0  0  0  0  0  0  0  0  0  0  0  0
    0.4120    1.2920    1.0800 H   0  0  0  0  0  0  0  0  0  0  0  0
    0.0520    0.1250    2.3800 H   0  0  0  0  0  0  0  0  0  0  0  0
   -0.5380   -1.6120    0.8380 H   0  0  0  0  0  0  0  0  0  0  0  0
    2.1310   -0.3090    0.2240 H   0  0  0  0  0  0  0  0  0  0  0  0
   -6.3410   -0.7290   -1.1250 N   0  0  0  0  0  0  0  0  0  0  0  0
   -5.3350   -0.4910   -2.1240 C   0  0  0  0  0  0  0  0  0  0  0  0
   -5.4440    0.5530   -2.7660 O   0  0  0  0  0  0  0  0  0  0  0  0
   -4.2860   -1.4680   -2.3110 C   0  0  0  0  0  0  0  0  0  0  0  0
   -3.1020   -1.1130   -3.1140 C   0  0  0  0  0  0  0  0  0  0  0  0
   -2.2430    0.0160   -2.6280 C   0  0  2  0  0  0  0  0  0  0  0  0
   -1.7560   -0.2210   -1.2860 N   0  0  0  0  0  0  0  0  0  0  0  0
   -2.7940    1.3250   -2.8960 C   0  0  0  0  0  0  0  0  0  0  0  0
   -2.9620    2.1550   -1.9720 O   0  0  0  0  0  0  0  0  0  0  0  0
   -3.1480    1.7090   -4.1810 O   0  0  0  0  0  0  0  0  0  0  0  0
   -6.1950   -0.5590   -0.1190 H   0  0  0  0  0  0  0  0  0  0  0  0
   -7.2610   -1.0930   -1.4660 H   0  0  0  0  0  0  0  0  0  0  0  0
   -4.7730   -2.3510   -2.8500 H   0  0  0  0  0  0  0  0  0  0  0  0
   -4.0050   -1.9500   -1.3230 H   0  0  0  0  0  0  0  0  0  0  0  0
   -3.4810   -0.8910   -4.1640 H   0  0  0  0  0  0  0  0  0  0  0  0
   -2.5000   -2.0510   -3.2690 H   0  0  0  0  0  0  0  0  0  0  0  0
   -1.2720   -0.1080   -3.2630 H   0  0  0  0  0  0  0  0  0  0  0  0
   -2.4590   -0.1680   -0.5220 H   0  0  0  0  0  0  0  0  0  0  0  0
  1 13  1  0  0  0  0
  2  1  1  0  0  0  0
  3  2  1  0  0  0  0
  3 14  1  0  0  0  0
  4  3  2  0  0  0  0
  5 11  2  0  0  0  0
  5  4  1  0  0  0  0
  6 17  1  0  0  0  0
  6 16  1  0  0  0  0
  6  5  1  0  0  0  0
  7 18  1  6  0  0  0
  7  6  1  0  0  0  0
  8 20  1  0  0  0  0
  8  7  1  0  0  0  0
  9  7  1  0  0  0  0
  9 10  2  0  0  0  0
 11 12  1  0  0  0  0
 12 22  1  0  0  0  0
 12  2  2  0  0  0  0
 15  4  1  0  0  0  0
 19  8  1  0  0  0  0
 21 11  1  0  0  0  0
 23 29  1  0  0  0  0
 24 23  1  0  0  0  0
 24 31  1  0  0  0  0
 25 26  1  0  0  0  0
 25 32  1  1  0  0  0
 25 24  1  0  0  0  0
 26  9  1  0  0  0  0
 27 25  1  0  0  0  0
 28 27  2  0  0  0  0
 30 24  1  0  0  0  0
 33 26  1  0  0  0  0
 34 44  1  0  0  0  0
 35 34  1  0  0  0  0
 36 35  2  0  0  0  0
 37 35  1  0  0  0  0
 37 47  1  0  0  0  0
 38 39  1  0  0  0  0
 38 37  1  0  0  0  0
 39 50  1  6  0  0  0
 39 40  1  0  0  0  0
 40 27  1  0  0  0  0
 40 51  1  0  0  0  0
 41 39  1  0  0  0  0
 41 42  1  0  0  0  0
 43 41  2  0  0  0  0
 45 34  1  0  0  0  0
 46 37  1  0  0  0  0
 48 38  1  0  0  0  0
 49 38  1  0  0  0  0
M  END
$$$$
