YSR.pdb
 OpenBabel07022419233D

 57 57  0  0  1  0  0  0  0  0999 V2000
    0.5740   -0.6560    8.4800 O   0  0  0  0  0  0  0  0  0  0  0  0
    0.5930   -0.0080    7.2370 C   0  0  0  0  0  0  0  0  0  0  0  0
    0.0190    1.2340    7.0960 C   0  0  0  0  0  0  0  0  0  0  0  0
    0.0430    1.8590    5.8770 C   0  0  0  0  0  0  0  0  0  0  0  0
    0.6440    1.2590    4.7620 C   0  0  0  0  0  0  0  0  0  0  0  0
    0.6610    1.9720    3.4590 C   0  0  0  0  0  0  0  0  0  0  0  0
   -0.6480    1.6900    2.7040 C   0  0  2  0  0  0  0  0  0  0  0  0
   -1.7240    2.1810    3.5710 N   0  0  0  0  0  0  0  0  0  0  0  0
   -0.8350    0.2410    2.4970 C   0  0  0  0  0  0  0  0  0  0  0  0
   -1.0430   -0.4930    3.4900 O   0  0  0  0  0  0  0  0  0  0  0  0
    1.2160    0.0300    4.8910 C   0  0  0  0  0  0  0  0  0  0  0  0
    1.1840   -0.5870    6.1210 C   0  0  0  0  0  0  0  0  0  0  0  0
   -0.2760   -0.6300    9.0360 H   0  0  0  0  0  0  0  0  0  0  0  0
   -0.4450    1.7070    7.9560 H   0  0  0  0  0  0  0  0  0  0  0  0
   -0.3960    2.8320    5.7360 H   0  0  0  0  0  0  0  0  0  0  0  0
    1.5170    1.5550    2.8680 H   0  0  0  0  0  0  0  0  0  0  0  0
    0.7690    3.0560    3.5680 H   0  0  0  0  0  0  0  0  0  0  0  0
   -0.6820    2.2700    1.7720 H   0  0  0  0  0  0  0  0  0  0  0  0
   -2.6320    2.0110    3.0550 H   0  0  0  0  0  0  0  0  0  0  0  0
   -1.6350    3.2370    3.5330 H   0  0  0  0  0  0  0  0  0  0  0  0
    1.6850   -0.4450    4.0240 H   0  0  0  0  0  0  0  0  0  0  0  0
    1.6330   -1.5610    6.2360 H   0  0  0  0  0  0  0  0  0  0  0  0
   -2.4990   -3.4680    0.4020 O   0  0  0  0  0  0  0  0  0  0  0  0
   -2.3760   -2.0910    0.5270 C   0  0  0  0  0  0  0  0  0  0  0  0
   -0.9650   -1.7820    1.0490 C   0  0  2  0  0  0  0  0  0  0  0  0
   -0.7930   -0.3650    1.1950 N   0  0  0  0  0  0  0  0  0  0  0  0
    0.0400   -2.3880    0.1320 C   0  0  0  0  0  0  0  0  0  0  0  0
    0.0480   -3.6400   -0.0070 O   0  0  0  0  0  0  0  0  0  0  0  0
   -2.3190   -3.9220    1.2450 H   0  0  0  0  0  0  0  0  0  0  0  0
   -3.0450   -1.7280    1.3340 H   0  0  0  0  0  0  0  0  0  0  0  0
   -2.5850   -1.6070   -0.4280 H   0  0  0  0  0  0  0  0  0  0  0  0
   -0.9040   -2.2550    2.0290 H   0  0  0  0  0  0  0  0  0  0  0  0
   -0.6530    0.3110    0.4110 H   0  0  0  0  0  0  0  0  0  0  0  0
   -2.8610   -1.5320   -7.1420 N   0  0  0  0  0  0  0  0  0  0  0  0
   -1.5580   -1.4080   -6.5780 C   0  0  0  0  0  0  0  0  0  0  0  0
   -0.6270   -0.8630   -7.2910 N   0  0  0  0  0  0  0  0  0  0  0  0
   -1.2470   -1.8580   -5.2650 N   0  0  0  0  0  0  0  0  0  0  0  0
    0.0370   -1.5360   -4.7270 C   0  0  0  0  0  0  0  0  0  0  0  0
    0.2460   -2.0660   -3.3320 C   0  0  0  0  0  0  0  0  0  0  0  0
    1.6370   -1.6520   -2.9050 C   0  0  0  0  0  0  0  0  0  0  0  0
    1.9290   -2.1490   -1.4800 C   0  0  2  0  0  0  0  0  0  0  0  0
    0.9530   -1.5620   -0.5670 N   0  0  0  0  0  0  0  0  0  0  0  0
    3.2620   -1.6530   -1.1270 C   0  0  0  0  0  0  0  0  0  0  0  0
    4.2400   -2.0490   -1.8290 O   0  0  0  0  0  0  0  0  0  0  0  0
    3.5330   -0.7900   -0.0950 O   0  0  0  0  0  0  0  0  0  0  0  0
   -3.2140   -2.4380   -7.4760 H   0  0  0  0  0  0  0  0  0  0  0  0
   -3.4370   -0.6730   -7.2030 H   0  0  0  0  0  0  0  0  0  0  0  0
    0.3530   -0.7320   -6.9600 H   0  0  0  0  0  0  0  0  0  0  0  0
   -1.9780   -2.4070   -4.7550 H   0  0  0  0  0  0  0  0  0  0  0  0
    0.8170   -2.0000   -5.3680 H   0  0  0  0  0  0  0  0  0  0  0  0
    0.2500   -0.4520   -4.7350 H   0  0  0  0  0  0  0  0  0  0  0  0
    0.2470   -3.1930   -3.4380 H   0  0  0  0  0  0  0  0  0  0  0  0
   -0.5300   -1.7950   -2.6300 H   0  0  0  0  0  0  0  0  0  0  0  0
    2.3950   -2.1120   -3.5620 H   0  0  0  0  0  0  0  0  0  0  0  0
    1.7680   -0.5570   -2.8750 H   0  0  0  0  0  0  0  0  0  0  0  0
    1.9160   -3.2440   -1.4510 H   0  0  0  0  0  0  0  0  0  0  0  0
    0.9580   -0.5080   -0.4450 H   0  0  0  0  0  0  0  0  0  0  0  0
  1 13  1  0  0  0  0
  2  1  1  0  0  0  0
  3  2  1  0  0  0  0
  3 14  1  0  0  0  0
  4  3  2  0  0  0  0
  5 11  2  0  0  0  0
  5  4  1  0  0  0  0
  6 17  1  0  0  0  0
  6  5  1  0  0  0  0
  7 18  1  6  0  0  0
  7  6  1  0  0  0  0
  7  8  1  0  0  0  0
  9  7  1  0  0  0  0
  9 10  2  0  0  0  0
 11 12  1  0  0  0  0
 12 22  1  0  0  0  0
 12  2  2  0  0  0  0
 15  4  1  0  0  0  0
 16  6  1  0  0  0  0
 19  8  1  0  0  0  0
 20  8  1  0  0  0  0
 21 11  1  0  0  0  0
 23 24  1  0  0  0  0
 23 29  1  0  0  0  0
 24 25  1  0  0  0  0
 24 30  1  0  0  0  0
 25 26  1  0  0  0  0
 25 32  1  1  0  0  0
 26  9  1  0  0  0  0
 27 25  1  0  0  0  0
 28 27  2  0  0  0  0
 31 24  1  0  0  0  0
 33 26  1  0  0  0  0
 34 35  1  0  0  0  0
 35 37  1  0  0  0  0
 36 48  1  0  0  0  0
 36 35  2  0  0  0  0
 37 49  1  0  0  0  0
 37 38  1  0  0  0  0
 38 39  1  0  0  0  0
 39 40  1  0  0  0  0
 39 53  1  0  0  0  0
 40 55  1  0  0  0  0
 40 41  1  0  0  0  0
 41 56  1  1  0  0  0
 41 43  1  0  0  0  0
 41 42  1  0  0  0  0
 42 57  1  0  0  0  0
 42 27  1  0  0  0  0
 43 45  1  0  0  0  0
 44 43  2  0  0  0  0
 46 34  1  0  0  0  0
 47 34  1  0  0  0  0
 50 38  1  0  0  0  0
 51 38  1  0  0  0  0
 52 39  1  0  0  0  0
 54 40  1  0  0  0  0
M  END
$$$$
