YTG.pdb
 OpenBabel07022419233D

 44 44  0  0  1  0  0  0  0  0999 V2000
   -0.4880    1.4590    5.6530 O   0  0  0  0  0  0  0  0  0  0  0  0
   -0.1260    0.3010    4.9650 C   0  0  0  0  0  0  0  0  0  0  0  0
   -1.0300   -0.3650    4.1550 C   0  0  0  0  0  0  0  0  0  0  0  0
   -0.6350   -1.5020    3.4950 C   0  0  0  0  0  0  0  0  0  0  0  0
    0.6310   -2.0400    3.5840 C   0  0  0  0  0  0  0  0  0  0  0  0
    1.0380   -3.2640    2.8660 C   0  0  0  0  0  0  0  0  0  0  0  0
    1.6080   -2.9290    1.4830 C   0  0  2  0  0  0  0  0  0  0  0  0
    2.7540   -2.0770    1.7160 N   0  0  0  0  0  0  0  0  0  0  0  0
    0.5510   -2.2830    0.7070 C   0  0  0  0  0  0  0  0  0  0  0  0
   -0.4860   -2.9320    0.4370 O   0  0  0  0  0  0  0  0  0  0  0  0
    1.5290   -1.3550    4.4050 C   0  0  0  0  0  0  0  0  0  0  0  0
    1.1480   -0.2140    5.0730 C   0  0  0  0  0  0  0  0  0  0  0  0
   -0.0430    1.7470    6.5000 H   0  0  0  0  0  0  0  0  0  0  0  0
   -2.0160    0.0370    4.0740 H   0  0  0  0  0  0  0  0  0  0  0  0
   -1.3560   -2.0030    2.8710 H   0  0  0  0  0  0  0  0  0  0  0  0
    0.1810   -3.9610    2.7830 H   0  0  0  0  0  0  0  0  0  0  0  0
    1.7980   -3.7820    3.4890 H   0  0  0  0  0  0  0  0  0  0  0  0
    1.9890   -3.8610    1.0220 H   0  0  0  0  0  0  0  0  0  0  0  0
    3.3940   -2.4850    2.4250 H   0  0  0  0  0  0  0  0  0  0  0  0
    3.3090   -1.9100    0.8490 H   0  0  0  0  0  0  0  0  0  0  0  0
    2.5380   -1.7110    4.5270 H   0  0  0  0  0  0  0  0  0  0  0  0
    1.8480    0.3330    5.7220 H   0  0  0  0  0  0  0  0  0  0  0  0
    0.0610    1.6670    0.8290 C   0  0  0  0  0  0  0  0  0  0  0  0
   -1.0300    0.7850    0.3170 C   0  0  1  0  0  0  0  0  0  0  0  0
   -2.0670    1.4550   -0.2840 O   0  0  0  0  0  0  0  0  0  0  0  0
   -0.4710   -0.3390   -0.5510 C   0  0  2  0  0  0  0  0  0  0  0  0
    0.6060   -0.9420    0.2190 N   0  0  0  0  0  0  0  0  0  0  0  0
   -0.0440    0.1240   -1.8730 C   0  0  0  0  0  0  0  0  0  0  0  0
    1.1540   -0.0270   -2.2200 O   0  0  0  0  0  0  0  0  0  0  0  0
   -0.3360    2.6680    1.1160 H   0  0  0  0  0  0  0  0  0  0  0  0
    0.9160    1.7770    0.1000 H   0  0  0  0  0  0  0  0  0  0  0  0
    0.5400    1.2570    1.7560 H   0  0  0  0  0  0  0  0  0  0  0  0
   -1.4680    0.2580    1.2160 H   0  0  0  0  0  0  0  0  0  0  0  0
   -1.8870    2.3990   -0.4100 H   0  0  0  0  0  0  0  0  0  0  0  0
   -1.3120   -1.0470   -0.6990 H   0  0  0  0  0  0  0  0  0  0  0  0
    1.4740   -0.4110    0.4490 H   0  0  0  0  0  0  0  0  0  0  0  0
   -0.8940    0.7490   -2.8220 N   0  0  0  0  0  0  0  0  0  0  0  0
   -0.4710    1.2000   -4.1140 C   0  0  0  0  0  0  0  0  0  0  0  0
    0.0660    0.1170   -4.9640 C   0  0  0  0  0  0  0  0  0  0  0  0
    0.4650    0.4110   -6.1200 O   0  0  0  0  0  0  0  0  0  0  0  0
    0.1610   -1.2090   -4.5700 O   0  0  0  0  0  0  0  0  0  0  0  0
   -1.8820    0.8760   -2.5410 H   0  0  0  0  0  0  0  0  0  0  0  0
   -1.3430    1.6270   -4.6450 H   0  0  0  0  0  0  0  0  0  0  0  0
    0.2790    2.0200   -4.0530 H   0  0  0  0  0  0  0  0  0  0  0  0
  1 13  1  0  0  0  0
  2 12  1  0  0  0  0
  2  1  1  0  0  0  0
  3  2  2  0  0  0  0
  4  5  2  0  0  0  0
  4  3  1  0  0  0  0
  5 11  1  0  0  0  0
  6 17  1  0  0  0  0
  6  5  1  0  0  0  0
  7 18  1  6  0  0  0
  7  8  1  0  0  0  0
  7  6  1  0  0  0  0
  8 19  1  0  0  0  0
  9  7  1  0  0  0  0
 10  9  2  0  0  0  0
 11 21  1  0  0  0  0
 11 12  2  0  0  0  0
 12 22  1  0  0  0  0
 14  3  1  0  0  0  0
 15  4  1  0  0  0  0
 16  6  1  0  0  0  0
 20  8  1  0  0  0  0
 23 30  1  0  0  0  0
 23 32  1  0  0  0  0
 24 23  1  0  0  0  0
 24 33  1  1  0  0  0
 25 24  1  0  0  0  0
 26 35  1  6  0  0  0
 26 27  1  0  0  0  0
 26 24  1  0  0  0  0
 27 36  1  0  0  0  0
 27  9  1  0  0  0  0
 28 26  1  0  0  0  0
 29 28  2  0  0  0  0
 31 23  1  0  0  0  0
 34 25  1  0  0  0  0
 37 42  1  0  0  0  0
 37 28  1  0  0  0  0
 38 44  1  0  0  0  0
 38 37  1  0  0  0  0
 39 41  1  0  0  0  0
 39 38  1  0  0  0  0
 40 39  2  0  0  0  0
 43 38  1  0  0  0  0
M  END
$$$$
