YTH.pdb
 OpenBabel07022419233D

 54 55  0  0  1  0  0  0  0  0999 V2000
    2.3930    3.1980    5.1520 O   0  0  0  0  0  0  0  0  0  0  0  0
    2.5440    1.9170    4.6360 C   0  0  0  0  0  0  0  0  0  0  0  0
    1.6710    0.9170    5.0240 C   0  0  0  0  0  0  0  0  0  0  0  0
    1.8150   -0.3480    4.5180 C   0  0  0  0  0  0  0  0  0  0  0  0
    2.8080   -0.6600    3.6280 C   0  0  0  0  0  0  0  0  0  0  0  0
    3.0160   -2.0070    3.0450 C   0  0  0  0  0  0  0  0  0  0  0  0
    2.2350   -2.1530    1.7550 C   0  0  2  0  0  0  0  0  0  0  0  0
    2.7020   -1.1430    0.8260 N   0  0  0  0  0  0  0  0  0  0  0  0
    0.7850   -2.1020    1.9700 C   0  0  0  0  0  0  0  0  0  0  0  0
    0.2750   -2.9360    2.7540 O   0  0  0  0  0  0  0  0  0  0  0  0
    3.7070    0.3230    3.2140 C   0  0  0  0  0  0  0  0  0  0  0  0
    3.5360    1.5810    3.7390 C   0  0  0  0  0  0  0  0  0  0  0  0
    2.1100    3.3710    6.1050 H   0  0  0  0  0  0  0  0  0  0  0  0
    0.8910    1.1840    5.7290 H   0  0  0  0  0  0  0  0  0  0  0  0
    1.1350   -1.1190    4.8220 H   0  0  0  0  0  0  0  0  0  0  0  0
    4.0810   -2.2170    2.8880 H   0  0  0  0  0  0  0  0  0  0  0  0
    2.6270   -2.7770    3.7630 H   0  0  0  0  0  0  0  0  0  0  0  0
    2.5040   -3.1370    1.2820 H   0  0  0  0  0  0  0  0  0  0  0  0
    3.7290   -1.2530    0.6950 H   0  0  0  0  0  0  0  0  0  0  0  0
    2.2820   -1.3070   -0.1290 H   0  0  0  0  0  0  0  0  0  0  0  0
    4.4950    0.1220    2.5220 H   0  0  0  0  0  0  0  0  0  0  0  0
    4.2170    2.3920    3.4450 H   0  0  0  0  0  0  0  0  0  0  0  0
   -1.4990    0.3920    3.5650 C   0  0  0  0  0  0  0  0  0  0  0  0
   -1.9430    0.2150    2.1520 C   0  0  1  0  0  0  0  0  0  0  0  0
   -1.5700    1.2630    1.3110 O   0  0  0  0  0  0  0  0  0  0  0  0
   -1.5060   -1.1010    1.5410 C   0  0  2  0  0  0  0  0  0  0  0  0
   -0.0840   -1.1690    1.3470 N   0  0  0  0  0  0  0  0  0  0  0  0
   -2.2570   -1.2530    0.2600 C   0  0  0  0  0  0  0  0  0  0  0  0
   -3.5120   -1.2110    0.2130 O   0  0  0  0  0  0  0  0  0  0  0  0
   -1.0320   -0.5040    4.0010 H   0  0  0  0  0  0  0  0  0  0  0  0
   -2.3930    0.6070    4.2200 H   0  0  0  0  0  0  0  0  0  0  0  0
   -0.8470    1.3020    3.6230 H   0  0  0  0  0  0  0  0  0  0  0  0
   -3.0700    0.1970    2.1120 H   0  0  0  0  0  0  0  0  0  0  0  0
   -2.1500    2.0370    1.5250 H   0  0  0  0  0  0  0  0  0  0  0  0
   -1.8470   -1.8920    2.2750 H   0  0  0  0  0  0  0  0  0  0  0  0
    0.3580   -0.4810    0.6990 H   0  0  0  0  0  0  0  0  0  0  0  0
   -1.5160   -1.4500   -0.9250 N   0  0  0  0  0  0  0  0  0  0  0  0
   -2.1460   -1.6120   -2.2450 C   0  0  1  0  0  0  0  0  0  0  0  0
   -1.6030   -0.4670   -3.0730 C   0  0  0  0  0  0  0  0  0  0  0  0
   -2.0930   -0.4180   -4.4450 C   0  0  0  0  0  0  0  0  0  0  0  0
   -1.5420   -1.0040   -5.5610 C   0  0  0  0  0  0  0  0  0  0  0  0
   -2.3100   -0.7020   -6.6140 N   0  0  0  0  0  0  0  0  0  0  0  0
   -3.3210    0.0570   -6.1690 C   0  0  0  0  0  0  0  0  0  0  0  0
   -3.1920    0.2290   -4.8620 N   0  0  0  0  0  0  0  0  0  0  0  0
   -1.7290   -2.8800   -2.8740 C   0  0  0  0  0  0  0  0  0  0  0  0
   -2.1870   -3.1830   -4.0030 O   0  0  0  0  0  0  0  0  0  0  0  0
   -0.8500   -3.7760   -2.2900 O   0  0  0  0  0  0  0  0  0  0  0  0
   -0.4780   -1.4820   -0.8590 H   0  0  0  0  0  0  0  0  0  0  0  0
   -3.2370   -1.5360   -2.1060 H   0  0  0  0  0  0  0  0  0  0  0  0
   -0.4850   -0.5690   -3.0290 H   0  0  0  0  0  0  0  0  0  0  0  0
   -1.8080    0.4960   -2.5300 H   0  0  0  0  0  0  0  0  0  0  0  0
   -0.6460   -1.6140   -5.6420 H   0  0  0  0  0  0  0  0  0  0  0  0
   -2.1630   -0.9930   -7.5940 H   0  0  0  0  0  0  0  0  0  0  0  0
   -4.1400    0.4850   -6.7560 H   0  0  0  0  0  0  0  0  0  0  0  0
  1 13  1  0  0  0  0
  2  3  1  0  0  0  0
  2  1  1  0  0  0  0
  3 14  1  0  0  0  0
  4 15  1  0  0  0  0
  4  3  2  0  0  0  0
  5  4  1  0  0  0  0
  6  5  1  0  0  0  0
  6 17  1  0  0  0  0
  7 18  1  6  0  0  0
  7  9  1  0  0  0  0
  7  6  1  0  0  0  0
  8  7  1  0  0  0  0
  9 10  2  0  0  0  0
 11  5  2  0  0  0  0
 11 12  1  0  0  0  0
 12  2  2  0  0  0  0
 16  6  1  0  0  0  0
 19  8  1  0  0  0  0
 20  8  1  0  0  0  0
 21 11  1  0  0  0  0
 22 12  1  0  0  0  0
 23 32  1  0  0  0  0
 23 30  1  0  0  0  0
 23 31  1  0  0  0  0
 24 33  1  1  0  0  0
 24 23  1  0  0  0  0
 25 34  1  0  0  0  0
 25 24  1  0  0  0  0
 26 24  1  0  0  0  0
 26 35  1  1  0  0  0
 27 26  1  0  0  0  0
 27  9  1  0  0  0  0
 28 26  1  0  0  0  0
 29 28  2  0  0  0  0
 36 27  1  0  0  0  0
 37 48  1  0  0  0  0
 37 28  1  0  0  0  0
 38 49  1  1  0  0  0
 38 37  1  0  0  0  0
 39 50  1  0  0  0  0
 39 51  1  0  0  0  0
 39 38  1  0  0  0  0
 40 39  1  0  0  0  0
 41 40  2  0  0  0  0
 42 43  1  0  0  0  0
 42 41  1  0  0  0  0
 43 44  2  0  0  0  0
 44 40  1  0  0  0  0
 45 47  1  0  0  0  0
 45 38  1  0  0  0  0
 46 45  2  0  0  0  0
 52 41  1  0  0  0  0
 53 42  1  0  0  0  0
 54 43  1  0  0  0  0
M  END
$$$$
