YTK.pdb
 OpenBabel07022419233D

 58 58  0  0  1  0  0  0  0  0999 V2000
    4.8320   -2.4180    5.9350 O   0  0  0  0  0  0  0  0  0  0  0  0
    4.4690   -1.2930    5.2070 C   0  0  0  0  0  0  0  0  0  0  0  0
    5.3840   -0.6890    4.3770 C   0  0  0  0  0  0  0  0  0  0  0  0
    5.0690    0.4290    3.6360 C   0  0  0  0  0  0  0  0  0  0  0  0
    3.7930    0.9950    3.7040 C   0  0  0  0  0  0  0  0  0  0  0  0
    3.4390    2.1960    2.9350 C   0  0  0  0  0  0  0  0  0  0  0  0
    2.9440    1.8500    1.5520 C   0  0  2  0  0  0  0  0  0  0  0  0
    2.6040    3.0640    0.8220 N   0  0  0  0  0  0  0  0  0  0  0  0
    1.7960    0.9100    1.5850 C   0  0  0  0  0  0  0  0  0  0  0  0
    1.9160   -0.2330    2.0910 O   0  0  0  0  0  0  0  0  0  0  0  0
    2.8910    0.3530    4.5580 C   0  0  0  0  0  0  0  0  0  0  0  0
    3.2030   -0.7540    5.2910 C   0  0  0  0  0  0  0  0  0  0  0  0
    4.1590   -2.8790    6.5410 H   0  0  0  0  0  0  0  0  0  0  0  0
    6.3840   -1.1420    4.3320 H   0  0  0  0  0  0  0  0  0  0  0  0
    5.8120    0.8880    2.9870 H   0  0  0  0  0  0  0  0  0  0  0  0
    2.5680    2.6650    3.4620 H   0  0  0  0  0  0  0  0  0  0  0  0
    4.2760    2.9160    2.8700 H   0  0  0  0  0  0  0  0  0  0  0  0
    3.7790    1.3610    1.0150 H   0  0  0  0  0  0  0  0  0  0  0  0
    2.8980    2.9470   -0.1820 H   0  0  0  0  0  0  0  0  0  0  0  0
    3.2150    3.8200    1.2090 H   0  0  0  0  0  0  0  0  0  0  0  0
    1.8770    0.7450    4.6570 H   0  0  0  0  0  0  0  0  0  0  0  0
    2.4820   -1.2420    5.9550 H   0  0  0  0  0  0  0  0  0  0  0  0
   -2.2820    2.0540    1.3960 C   0  0  0  0  0  0  0  0  0  0  0  0
   -1.6980    0.7830    1.9670 C   0  0  1  0  0  0  0  0  0  0  0  0
   -2.7280   -0.1390    2.0630 O   0  0  0  0  0  0  0  0  0  0  0  0
   -0.5570    0.2540    1.1310 C   0  0  2  0  0  0  0  0  0  0  0  0
    0.5190    1.2470    1.0540 N   0  0  0  0  0  0  0  0  0  0  0  0
   -1.0450   -0.0380   -0.2430 C   0  0  0  0  0  0  0  0  0  0  0  0
   -0.5780    0.5670   -1.2550 O   0  0  0  0  0  0  0  0  0  0  0  0
   -2.4030    2.0250    0.3120 H   0  0  0  0  0  0  0  0  0  0  0  0
   -3.3180    2.1380    1.8310 H   0  0  0  0  0  0  0  0  0  0  0  0
   -1.7480    2.9590    1.7660 H   0  0  0  0  0  0  0  0  0  0  0  0
   -1.3810    1.0170    3.0030 H   0  0  0  0  0  0  0  0  0  0  0  0
   -3.5900    0.2570    2.2930 H   0  0  0  0  0  0  0  0  0  0  0  0
   -0.2020   -0.6730    1.6150 H   0  0  0  0  0  0  0  0  0  0  0  0
    0.3770    2.1810    0.6270 H   0  0  0  0  0  0  0  0  0  0  0  0
   -2.0380   -0.9850   -0.5190 N   0  0  0  0  0  0  0  0  0  0  0  0
   -2.5400   -1.2940   -1.8600 C   0  0  1  0  0  0  0  0  0  0  0  0
   -2.3740   -2.7320   -2.1910 C   0  0  0  0  0  0  0  0  0  0  0  0
   -2.8780   -3.0070   -3.5740 C   0  0  0  0  0  0  0  0  0  0  0  0
   -2.6900   -4.4710   -3.9610 C   0  0  0  0  0  0  0  0  0  0  0  0
   -1.2590   -4.9120   -3.9440 C   0  0  0  0  0  0  0  0  0  0  0  0
   -1.2740   -6.3310   -4.3450 N   0  0  0  0  0  0  0  0  0  0  0  0
   -3.9610   -0.9310   -1.8630 C   0  0  0  0  0  0  0  0  0  0  0  0
   -4.7080   -0.9640   -2.8620 O   0  0  0  0  0  0  0  0  0  0  0  0
   -4.5580   -0.5130   -0.6790 O   0  0  0  0  0  0  0  0  0  0  0  0
   -2.4640   -1.5270    0.2560 H   0  0  0  0  0  0  0  0  0  0  0  0
   -2.0310   -0.6840   -2.6270 H   0  0  0  0  0  0  0  0  0  0  0  0
   -1.3170   -3.0740   -2.1550 H   0  0  0  0  0  0  0  0  0  0  0  0
   -3.0160   -3.3720   -1.5110 H   0  0  0  0  0  0  0  0  0  0  0  0
   -3.9790   -2.8440   -3.6980 H   0  0  0  0  0  0  0  0  0  0  0  0
   -2.3420   -2.4100   -4.3330 H   0  0  0  0  0  0  0  0  0  0  0  0
   -3.0270   -4.5320   -5.0310 H   0  0  0  0  0  0  0  0  0  0  0  0
   -3.3620   -5.1200   -3.3960 H   0  0  0  0  0  0  0  0  0  0  0  0
   -0.7970   -4.8570   -2.9310 H   0  0  0  0  0  0  0  0  0  0  0  0
   -0.6220   -4.3370   -4.6460 H   0  0  0  0  0  0  0  0  0  0  0  0
   -0.3010   -6.6920   -4.2050 H   0  0  0  0  0  0  0  0  0  0  0  0
   -1.4160   -6.3150   -5.3880 H   0  0  0  0  0  0  0  0  0  0  0  0
  1 13  1  0  0  0  0
  2 12  1  0  0  0  0
  2  1  1  0  0  0  0
  3  2  2  0  0  0  0
  4  5  2  0  0  0  0
  4  3  1  0  0  0  0
  5 11  1  0  0  0  0
  6 16  1  0  0  0  0
  6  5  1  0  0  0  0
  7 18  1  6  0  0  0
  7  9  1  0  0  0  0
  7  6  1  0  0  0  0
  8 20  1  0  0  0  0
  8  7  1  0  0  0  0
  9 10  2  0  0  0  0
 11 21  1  0  0  0  0
 11 12  2  0  0  0  0
 12 22  1  0  0  0  0
 14  3  1  0  0  0  0
 15  4  1  0  0  0  0
 17  6  1  0  0  0  0
 19  8  1  0  0  0  0
 23 32  1  0  0  0  0
 23 31  1  0  0  0  0
 23 24  1  0  0  0  0
 24 25  1  0  0  0  0
 24 33  1  1  0  0  0
 25 34  1  0  0  0  0
 26 35  1  1  0  0  0
 26 24  1  0  0  0  0
 27 26  1  0  0  0  0
 27  9  1  0  0  0  0
 28 26  1  0  0  0  0
 29 28  2  0  0  0  0
 30 23  1  0  0  0  0
 36 27  1  0  0  0  0
 37 28  1  0  0  0  0
 37 47  1  0  0  0  0
 38 48  1  6  0  0  0
 38 37  1  0  0  0  0
 39 49  1  0  0  0  0
 39 38  1  0  0  0  0
 39 50  1  0  0  0  0
 40 39  1  0  0  0  0
 41 42  1  0  0  0  0
 41 40  1  0  0  0  0
 41 54  1  0  0  0  0
 42 55  1  0  0  0  0
 43 57  1  0  0  0  0
 43 42  1  0  0  0  0
 44 38  1  0  0  0  0
 44 46  1  0  0  0  0
 45 44  2  0  0  0  0
 51 40  1  0  0  0  0
 52 40  1  0  0  0  0
 53 41  1  0  0  0  0
 56 42  1  0  0  0  0
 58 43  1  0  0  0  0
M  END
$$$$
