YTR.pdb
 OpenBabel07022419233D

 60 60  0  0  1  0  0  0  0  0999 V2000
    0.1020    2.6810    6.1640 O   0  0  0  0  0  0  0  0  0  0  0  0
    1.0170    2.3850    5.1570 C   0  0  0  0  0  0  0  0  0  0  0  0
    1.3790    3.3970    4.2920 C   0  0  0  0  0  0  0  0  0  0  0  0
    2.2790    3.1250    3.2940 C   0  0  0  0  0  0  0  0  0  0  0  0
    2.8100    1.8760    3.1530 C   0  0  0  0  0  0  0  0  0  0  0  0
    3.7770    1.5230    2.1070 C   0  0  0  0  0  0  0  0  0  0  0  0
    3.1720    1.0340    0.8330 C   0  0  2  0  0  0  0  0  0  0  0  0
    2.3020    1.9920    0.2020 N   0  0  0  0  0  0  0  0  0  0  0  0
    2.5320   -0.3070    0.9510 C   0  0  0  0  0  0  0  0  0  0  0  0
    3.1210   -1.2780    1.4830 O   0  0  0  0  0  0  0  0  0  0  0  0
    2.4240    0.8950    4.0350 C   0  0  0  0  0  0  0  0  0  0  0  0
    1.5240    1.1070    5.0580 C   0  0  0  0  0  0  0  0  0  0  0  0
    0.4040    2.7660    7.1440 H   0  0  0  0  0  0  0  0  0  0  0  0
    0.9460    4.4120    4.4080 H   0  0  0  0  0  0  0  0  0  0  0  0
    2.5480    3.9210    2.6330 H   0  0  0  0  0  0  0  0  0  0  0  0
    4.4670    2.3550    1.8520 H   0  0  0  0  0  0  0  0  0  0  0  0
    4.4390    0.7080    2.4920 H   0  0  0  0  0  0  0  0  0  0  0  0
    4.0340    0.8820    0.1180 H   0  0  0  0  0  0  0  0  0  0  0  0
    2.2360    1.8610   -0.8320 H   0  0  0  0  0  0  0  0  0  0  0  0
    2.7550    2.9380    0.3330 H   0  0  0  0  0  0  0  0  0  0  0  0
    2.8170   -0.1290    3.9720 H   0  0  0  0  0  0  0  0  0  0  0  0
    1.2340    0.3020    5.7490 H   0  0  0  0  0  0  0  0  0  0  0  0
   -0.2060   -1.2330    2.7940 C   0  0  0  0  0  0  0  0  0  0  0  0
   -0.6930   -1.6860    1.4140 C   0  0  1  0  0  0  0  0  0  0  0  0
   -1.5940   -0.7350    0.9460 O   0  0  0  0  0  0  0  0  0  0  0  0
    0.5240   -1.7900    0.5300 C   0  0  2  0  0  0  0  0  0  0  0  0
    1.2170   -0.5400    0.4610 N   0  0  0  0  0  0  0  0  0  0  0  0
    0.2450   -2.3890   -0.7720 C   0  0  0  0  0  0  0  0  0  0  0  0
    0.6130   -1.8230   -1.8180 O   0  0  0  0  0  0  0  0  0  0  0  0
    0.6710   -1.8670    3.0320 H   0  0  0  0  0  0  0  0  0  0  0  0
   -0.9630   -1.4300    3.5760 H   0  0  0  0  0  0  0  0  0  0  0  0
    0.0490   -0.1550    2.7490 H   0  0  0  0  0  0  0  0  0  0  0  0
   -1.1480   -2.6830    1.5540 H   0  0  0  0  0  0  0  0  0  0  0  0
   -1.8050   -0.0640    1.6450 H   0  0  0  0  0  0  0  0  0  0  0  0
    1.2270   -2.5030    1.0560 H   0  0  0  0  0  0  0  0  0  0  0  0
    0.7210    0.2650    0.0180 H   0  0  0  0  0  0  0  0  0  0  0  0
   -3.0150    0.5910   -2.2560 N   0  0  0  0  0  0  0  0  0  0  0  0
   -3.7480   -0.6070   -2.0210 C   0  0  0  0  0  0  0  0  0  0  0  0
   -4.3070   -0.7790   -0.8700 N   0  0  0  0  0  0  0  0  0  0  0  0
   -3.8810   -1.6160   -3.0130 N   0  0  0  0  0  0  0  0  0  0  0  0
   -4.2780   -2.9770   -2.6870 C   0  0  0  0  0  0  0  0  0  0  0  0
   -3.1720   -3.6670   -1.8830 C   0  0  0  0  0  0  0  0  0  0  0  0
   -1.9430   -3.6710   -2.7400 C   0  0  0  0  0  0  0  0  0  0  0  0
   -0.7740   -4.3170   -2.0780 C   0  0  2  0  0  0  0  0  0  0  0  0
   -0.4460   -3.6170   -0.8550 N   0  0  0  0  0  0  0  0  0  0  0  0
    0.3800   -4.4180   -3.0230 C   0  0  0  0  0  0  0  0  0  0  0  0
    0.1810   -4.9490   -4.1430 O   0  0  0  0  0  0  0  0  0  0  0  0
    1.6450   -3.9630   -2.7330 O   0  0  0  0  0  0  0  0  0  0  0  0
   -3.3810    1.3400   -2.8730 H   0  0  0  0  0  0  0  0  0  0  0  0
   -2.0830    0.7070   -1.7860 H   0  0  0  0  0  0  0  0  0  0  0  0
   -4.2520   -0.0870   -0.0980 H   0  0  0  0  0  0  0  0  0  0  0  0
   -3.6770   -1.3240   -3.9960 H   0  0  0  0  0  0  0  0  0  0  0  0
   -5.2170   -3.0120   -2.1140 H   0  0  0  0  0  0  0  0  0  0  0  0
   -4.4260   -3.5270   -3.6260 H   0  0  0  0  0  0  0  0  0  0  0  0
   -2.9370   -3.0590   -0.9770 H   0  0  0  0  0  0  0  0  0  0  0  0
   -3.4650   -4.6950   -1.6230 H   0  0  0  0  0  0  0  0  0  0  0  0
   -2.1670   -4.1010   -3.7330 H   0  0  0  0  0  0  0  0  0  0  0  0
   -1.6680   -2.5890   -2.9040 H   0  0  0  0  0  0  0  0  0  0  0  0
   -1.0160   -5.4040   -1.8460 H   0  0  0  0  0  0  0  0  0  0  0  0
   -0.7720   -4.1010    0.0440 H   0  0  0  0  0  0  0  0  0  0  0  0
  1 13  1  0  0  0  0
  2  1  1  0  0  0  0
  3 14  1  0  0  0  0
  3  2  2  0  0  0  0
  4  3  1  0  0  0  0
  5  4  2  0  0  0  0
  5 11  1  0  0  0  0
  6 17  1  0  0  0  0
  6  5  1  0  0  0  0
  7 18  1  6  0  0  0
  7  9  1  0  0  0  0
  7  6  1  0  0  0  0
  8 20  1  0  0  0  0
  8  7  1  0  0  0  0
  9 10  2  0  0  0  0
 11 12  2  0  0  0  0
 12  2  1  0  0  0  0
 12 22  1  0  0  0  0
 15  4  1  0  0  0  0
 16  6  1  0  0  0  0
 19  8  1  0  0  0  0
 21 11  1  0  0  0  0
 23 30  1  0  0  0  0
 23 31  1  0  0  0  0
 24 33  1  1  0  0  0
 24 23  1  0  0  0  0
 25 24  1  0  0  0  0
 25 34  1  0  0  0  0
 26 35  1  1  0  0  0
 26 24  1  0  0  0  0
 27 26  1  0  0  0  0
 27  9  1  0  0  0  0
 28 26  1  0  0  0  0
 29 28  2  0  0  0  0
 32 23  1  0  0  0  0
 36 27  1  0  0  0  0
 37 38  1  0  0  0  0
 37 50  1  0  0  0  0
 38 39  2  0  0  0  0
 39 51  1  0  0  0  0
 40 41  1  0  0  0  0
 40 38  1  0  0  0  0
 41 53  1  0  0  0  0
 41 42  1  0  0  0  0
 42 56  1  0  0  0  0
 42 55  1  0  0  0  0
 43 44  1  0  0  0  0
 43 42  1  0  0  0  0
 44 59  1  1  0  0  0
 44 45  1  0  0  0  0
 45 28  1  0  0  0  0
 45 60  1  0  0  0  0
 46 48  1  0  0  0  0
 46 44  1  0  0  0  0
 47 46  2  0  0  0  0
 49 37  1  0  0  0  0
 52 40  1  0  0  0  0
 54 41  1  0  0  0  0
 57 43  1  0  0  0  0
 58 43  1  0  0  0  0
M  END
$$$$
