YTW.pdb
 OpenBabel07022419233D

 61 63  0  0  1  0  0  0  0  0999 V2000
    3.6710   -0.1890    3.3240 O   0  0  0  0  0  0  0  0  0  0  0  0
    3.6210    0.0180    1.9540 C   0  0  0  0  0  0  0  0  0  0  0  0
    4.3050   -0.7680    1.0540 C   0  0  0  0  0  0  0  0  0  0  0  0
    4.2360   -0.5390   -0.2950 C   0  0  0  0  0  0  0  0  0  0  0  0
    3.4790    0.4900   -0.8280 C   0  0  0  0  0  0  0  0  0  0  0  0
    3.3930    0.8000   -2.2400 C   0  0  0  0  0  0  0  0  0  0  0  0
    2.4370    0.1040   -3.1010 C   0  0  2  0  0  0  0  0  0  0  0  0
    2.6450    0.6800   -4.4650 N   0  0  0  0  0  0  0  0  0  0  0  0
    1.0250    0.1240   -2.8520 C   0  0  0  0  0  0  0  0  0  0  0  0
    0.2890    0.7790   -3.6700 O   0  0  0  0  0  0  0  0  0  0  0  0
    2.7980    1.2710    0.0850 C   0  0  0  0  0  0  0  0  0  0  0  0
    2.8580    1.0520    1.4550 C   0  0  0  0  0  0  0  0  0  0  0  0
    2.9780   -0.7700    3.8170 H   0  0  0  0  0  0  0  0  0  0  0  0
    4.8980   -1.5760    1.4790 H   0  0  0  0  0  0  0  0  0  0  0  0
    4.7750   -1.1600   -0.9930 H   0  0  0  0  0  0  0  0  0  0  0  0
    3.3000    1.9050   -2.3580 H   0  0  0  0  0  0  0  0  0  0  0  0
    4.4260    0.5960   -2.6690 H   0  0  0  0  0  0  0  0  0  0  0  0
    2.7340   -0.9690   -3.2690 H   0  0  0  0  0  0  0  0  0  0  0  0
    3.6310    0.4850   -4.7190 H   0  0  0  0  0  0  0  0  0  0  0  0
    1.9410    0.2600   -5.1050 H   0  0  0  0  0  0  0  0  0  0  0  0
    2.1870    2.0930   -0.2560 H   0  0  0  0  0  0  0  0  0  0  0  0
    2.3040    1.6950    2.1360 H   0  0  0  0  0  0  0  0  0  0  0  0
   -3.2980   -1.6120   -1.9140 C   0  0  0  0  0  0  0  0  0  0  0  0
   -1.7920   -1.7730   -1.9460 C   0  0  1  0  0  0  0  0  0  0  0  0
   -1.4420   -2.1240   -3.2520 O   0  0  0  0  0  0  0  0  0  0  0  0
   -1.1170   -0.4300   -1.6650 C   0  0  2  0  0  0  0  0  0  0  0  0
    0.2990   -0.5140   -1.7820 N   0  0  0  0  0  0  0  0  0  0  0  0
   -1.6230   -0.0000   -0.3520 C   0  0  0  0  0  0  0  0  0  0  0  0
   -2.8780    0.1560   -0.1690 O   0  0  0  0  0  0  0  0  0  0  0  0
   -3.7170   -2.3340   -2.6520 H   0  0  0  0  0  0  0  0  0  0  0  0
   -3.7370   -1.9000   -0.9370 H   0  0  0  0  0  0  0  0  0  0  0  0
   -3.6100   -0.6050   -2.2550 H   0  0  0  0  0  0  0  0  0  0  0  0
   -1.5290   -2.5330   -1.2070 H   0  0  0  0  0  0  0  0  0  0  0  0
   -1.9420   -1.6400   -3.9270 H   0  0  0  0  0  0  0  0  0  0  0  0
   -1.5170    0.2950   -2.4370 H   0  0  0  0  0  0  0  0  0  0  0  0
    0.8380   -1.0500   -1.0820 H   0  0  0  0  0  0  0  0  0  0  0  0
   -0.7150    0.2400    0.7120 N   0  0  0  0  0  0  0  0  0  0  0  0
   -1.1950    0.6620    1.9920 C   0  0  1  0  0  0  0  0  0  0  0  0
   -0.7390   -0.2080    3.1400 C   0  0  0  0  0  0  0  0  0  0  0  0
   -1.1680   -1.6030    3.0230 C   0  0  0  0  0  0  0  0  0  0  0  0
   -0.3910   -2.6750    2.6540 C   0  0  0  0  0  0  0  0  0  0  0  0
   -1.0980   -3.8130    2.6490 N   0  0  0  0  0  0  0  0  0  0  0  0
   -2.3520   -3.5190    3.0130 C   0  0  0  0  0  0  0  0  0  0  0  0
   -3.4440   -4.3550    3.1550 C   0  0  0  0  0  0  0  0  0  0  0  0
   -4.6270   -3.7760    3.5470 C   0  0  0  0  0  0  0  0  0  0  0  0
   -4.7190   -2.4210    3.7890 C   0  0  0  0  0  0  0  0  0  0  0  0
   -3.6170   -1.5930    3.6440 C   0  0  0  0  0  0  0  0  0  0  0  0
   -2.4350   -2.1510    3.2550 C   0  0  0  0  0  0  0  0  0  0  0  0
   -0.7920    2.0790    2.2960 C   0  0  0  0  0  0  0  0  0  0  0  0
   -0.1310    2.7840    1.5110 O   0  0  0  0  0  0  0  0  0  0  0  0
   -1.1850    2.6020    3.5120 O   0  0  0  0  0  0  0  0  0  0  0  0
    0.2890    0.0870    0.5130 H   0  0  0  0  0  0  0  0  0  0  0  0
   -2.3040    0.6850    2.0050 H   0  0  0  0  0  0  0  0  0  0  0  0
    0.3800   -0.1740    3.1340 H   0  0  0  0  0  0  0  0  0  0  0  0
   -1.1240    0.2590    4.0760 H   0  0  0  0  0  0  0  0  0  0  0  0
    0.6410   -2.6080    2.4040 H   0  0  0  0  0  0  0  0  0  0  0  0
   -0.7340   -4.7650    2.4030 H   0  0  0  0  0  0  0  0  0  0  0  0
   -3.3590   -5.4330    2.9600 H   0  0  0  0  0  0  0  0  0  0  0  0
   -5.4880   -4.4460    3.6570 H   0  0  0  0  0  0  0  0  0  0  0  0
   -5.6710   -2.0200    4.0940 H   0  0  0  0  0  0  0  0  0  0  0  0
   -3.6630   -0.5350    3.8250 H   0  0  0  0  0  0  0  0  0  0  0  0
  1 13  1  0  0  0  0
  2  1  1  0  0  0  0
  3 14  1  0  0  0  0
  3  2  2  0  0  0  0
  4  3  1  0  0  0  0
  5  4  2  0  0  0  0
  5 11  1  0  0  0  0
  6  5  1  0  0  0  0
  7 18  1  6  0  0  0
  7  9  1  0  0  0  0
  7  6  1  0  0  0  0
  8  7  1  0  0  0  0
  9 27  1  0  0  0  0
 10  9  2  0  0  0  0
 11 12  2  0  0  0  0
 12  2  1  0  0  0  0
 12 22  1  0  0  0  0
 15  4  1  0  0  0  0
 16  6  1  0  0  0  0
 17  6  1  0  0  0  0
 19  8  1  0  0  0  0
 20  8  1  0  0  0  0
 21 11  1  0  0  0  0
 23 31  1  0  0  0  0
 24 23  1  0  0  0  0
 24 26  1  0  0  0  0
 24 33  1  1  0  0  0
 25 24  1  0  0  0  0
 26 35  1  6  0  0  0
 26 28  1  0  0  0  0
 27 26  1  0  0  0  0
 27 36  1  0  0  0  0
 28 29  2  0  0  0  0
 28 37  1  0  0  0  0
 30 23  1  0  0  0  0
 32 23  1  0  0  0  0
 34 25  1  0  0  0  0
 37 38  1  0  0  0  0
 38 53  1  6  0  0  0
 38 49  1  0  0  0  0
 38 39  1  0  0  0  0
 39 55  1  0  0  0  0
 40 39  1  0  0  0  0
 40 48  1  0  0  0  0
 41 40  2  0  0  0  0
 42 41  1  0  0  0  0
 42 43  1  0  0  0  0
 43 44  2  0  0  0  0
 43 48  1  0  0  0  0
 44 45  1  0  0  0  0
 45 59  1  0  0  0  0
 45 46  2  0  0  0  0
 46 60  1  0  0  0  0
 47 46  1  0  0  0  0
 47 61  1  0  0  0  0
 48 47  2  0  0  0  0
 49 51  1  0  0  0  0
 50 49  2  0  0  0  0
 52 37  1  0  0  0  0
 54 39  1  0  0  0  0
 56 41  1  0  0  0  0
 57 42  1  0  0  0  0
 58 44  1  0  0  0  0
M  END
$$$$
