YVA.pdb
 OpenBabel07022419233D

 49 49  0  0  1  0  0  0  0  0999 V2000
   -0.8530   -4.4150    6.9230 O   0  0  0  0  0  0  0  0  0  0  0  0
   -0.6210   -3.8190    5.6800 C   0  0  0  0  0  0  0  0  0  0  0  0
   -1.5490   -2.9660    5.1130 C   0  0  0  0  0  0  0  0  0  0  0  0
   -1.3280   -2.3740    3.8890 C   0  0  0  0  0  0  0  0  0  0  0  0
   -0.1710   -2.6070    3.1750 C   0  0  0  0  0  0  0  0  0  0  0  0
    0.0770   -1.9750    1.8560 C   0  0  0  0  0  0  0  0  0  0  0  0
    0.7850   -0.6500    2.0260 C   0  0  2  0  0  0  0  0  0  0  0  0
   -0.0100    0.2590    2.8190 N   0  0  0  0  0  0  0  0  0  0  0  0
    0.9900   -0.0690    0.6570 C   0  0  0  0  0  0  0  0  0  0  0  0
    1.6550   -0.7150   -0.1680 O   0  0  0  0  0  0  0  0  0  0  0  0
    0.7590   -3.4580    3.7370 C   0  0  0  0  0  0  0  0  0  0  0  0
    0.5340   -4.0500    4.9640 C   0  0  0  0  0  0  0  0  0  0  0  0
   -1.4640   -3.9070    7.5500 H   0  0  0  0  0  0  0  0  0  0  0  0
   -2.4600   -2.7910    5.6900 H   0  0  0  0  0  0  0  0  0  0  0  0
   -2.0840   -1.7080    3.4770 H   0  0  0  0  0  0  0  0  0  0  0  0
    0.6920   -2.6480    1.2500 H   0  0  0  0  0  0  0  0  0  0  0  0
   -0.9190   -1.7630    1.4090 H   0  0  0  0  0  0  0  0  0  0  0  0
    1.7480   -0.7970    2.5550 H   0  0  0  0  0  0  0  0  0  0  0  0
   -0.0670   -0.1120    3.7940 H   0  0  0  0  0  0  0  0  0  0  0  0
   -0.9650    0.3730    2.4240 H   0  0  0  0  0  0  0  0  0  0  0  0
    1.6850   -3.6650    3.2000 H   0  0  0  0  0  0  0  0  0  0  0  0
    1.2770   -4.7260    5.4060 H   0  0  0  0  0  0  0  0  0  0  0  0
    2.1810    3.5000   -0.2560 C   0  0  0  0  0  0  0  0  0  0  0  0
    1.9130    2.4210   -1.2800 C   0  0  0  0  0  0  0  0  0  0  0  0
    3.0780    1.5190   -1.4340 C   0  0  0  0  0  0  0  0  0  0  0  0
    0.5950    1.8120   -0.9990 C   0  0  2  0  0  0  0  0  0  0  0  0
    0.4420    1.1960    0.2950 N   0  0  0  0  0  0  0  0  0  0  0  0
    0.0180    1.0040   -2.1110 C   0  0  0  0  0  0  0  0  0  0  0  0
    0.1680    1.3420   -3.3180 O   0  0  0  0  0  0  0  0  0  0  0  0
    3.1560    4.0100   -0.4270 H   0  0  0  0  0  0  0  0  0  0  0  0
    2.1960    3.0780    0.7720 H   0  0  0  0  0  0  0  0  0  0  0  0
    1.3510    4.2500   -0.2670 H   0  0  0  0  0  0  0  0  0  0  0  0
    1.8090    2.9790   -2.2610 H   0  0  0  0  0  0  0  0  0  0  0  0
    2.8990    0.6930   -2.1520 H   0  0  0  0  0  0  0  0  0  0  0  0
    3.5690    1.2070   -0.4930 H   0  0  0  0  0  0  0  0  0  0  0  0
    3.8800    2.1360   -1.9490 H   0  0  0  0  0  0  0  0  0  0  0  0
   -0.1280    2.7070   -0.9610 H   0  0  0  0  0  0  0  0  0  0  0  0
   -0.1030    1.6530    1.0900 H   0  0  0  0  0  0  0  0  0  0  0  0
   -0.6180   -2.3030   -3.0330 C   0  0  0  0  0  0  0  0  0  0  0  0
   -1.2670   -0.9350   -3.0080 C   0  0  2  0  0  0  0  0  0  0  0  0
   -0.7270   -0.1790   -1.8720 N   0  0  0  0  0  0  0  0  0  0  0  0
   -2.7460   -1.0320   -2.9120 C   0  0  0  0  0  0  0  0  0  0  0  0
   -3.3730   -1.6500   -3.8080 O   0  0  0  0  0  0  0  0  0  0  0  0
   -3.4890   -0.4770   -1.8810 O   0  0  0  0  0  0  0  0  0  0  0  0
    0.2050   -2.3490   -3.8020 H   0  0  0  0  0  0  0  0  0  0  0  0
   -0.1460   -2.4930   -2.0640 H   0  0  0  0  0  0  0  0  0  0  0  0
   -1.3480   -3.1170   -3.2220 H   0  0  0  0  0  0  0  0  0  0  0  0
   -0.9950   -0.4370   -3.9600 H   0  0  0  0  0  0  0  0  0  0  0  0
   -0.9130   -0.5250   -0.9050 H   0  0  0  0  0  0  0  0  0  0  0  0
  1 13  1  0  0  0  0
  2  1  1  0  0  0  0
  3  2  1  0  0  0  0
  3 14  1  0  0  0  0
  4  3  2  0  0  0  0
  5 11  2  0  0  0  0
  5  4  1  0  0  0  0
  6  7  1  0  0  0  0
  6  5  1  0  0  0  0
  7 18  1  1  0  0  0
  7  8  1  0  0  0  0
  8 19  1  0  0  0  0
  9  7  1  0  0  0  0
 10  9  2  0  0  0  0
 11 12  1  0  0  0  0
 12 22  1  0  0  0  0
 12  2  2  0  0  0  0
 15  4  1  0  0  0  0
 16  6  1  0  0  0  0
 17  6  1  0  0  0  0
 20  8  1  0  0  0  0
 21 11  1  0  0  0  0
 23 31  1  0  0  0  0
 24 26  1  0  0  0  0
 24 23  1  0  0  0  0
 25 24  1  0  0  0  0
 25 35  1  0  0  0  0
 26 37  1  1  0  0  0
 26 27  1  0  0  0  0
 27  9  1  0  0  0  0
 27 38  1  0  0  0  0
 28 41  1  0  0  0  0
 28 26  1  0  0  0  0
 29 28  2  0  0  0  0
 30 23  1  0  0  0  0
 32 23  1  0  0  0  0
 33 24  1  0  0  0  0
 34 25  1  0  0  0  0
 36 25  1  0  0  0  0
 39 40  1  0  0  0  0
 39 46  1  0  0  0  0
 40 48  1  6  0  0  0
 40 42  1  0  0  0  0
 40 41  1  0  0  0  0
 41 49  1  0  0  0  0
 42 44  1  0  0  0  0
 43 42  2  0  0  0  0
 45 39  1  0  0  0  0
 47 39  1  0  0  0  0
M  END
$$$$
