YVC.pdb
 OpenBabel07022419233D

 50 50  0  0  1  0  0  0  0  0999 V2000
    1.5490   -4.5010    2.9250 O   0  0  0  0  0  0  0  0  0  0  0  0
    2.1270   -3.3450    2.4010 C   0  0  0  0  0  0  0  0  0  0  0  0
    1.8760   -2.1160    2.9650 C   0  0  0  0  0  0  0  0  0  0  0  0
    2.4530   -0.9900    2.4350 C   0  0  0  0  0  0  0  0  0  0  0  0
    3.2910   -1.1030    1.3280 C   0  0  0  0  0  0  0  0  0  0  0  0
    3.9020    0.1120    0.7710 C   0  0  0  0  0  0  0  0  0  0  0  0
    3.1140    0.7200   -0.3360 C   0  0  2  0  0  0  0  0  0  0  0  0
    3.8080    1.9180   -0.7950 N   0  0  0  0  0  0  0  0  0  0  0  0
    1.7290    1.0950    0.1400 C   0  0  0  0  0  0  0  0  0  0  0  0
    1.4600    2.2800    0.4070 O   0  0  0  0  0  0  0  0  0  0  0  0
    3.5170   -2.3530    0.7920 C   0  0  0  0  0  0  0  0  0  0  0  0
    2.9500   -3.5040    1.3030 C   0  0  0  0  0  0  0  0  0  0  0  0
    2.1610   -5.1510    3.4190 H   0  0  0  0  0  0  0  0  0  0  0  0
    1.2220   -2.0390    3.8260 H   0  0  0  0  0  0  0  0  0  0  0  0
    2.2870   -0.0100    2.8400 H   0  0  0  0  0  0  0  0  0  0  0  0
    4.9450   -0.1260    0.4350 H   0  0  0  0  0  0  0  0  0  0  0  0
    3.9890    0.8860    1.5870 H   0  0  0  0  0  0  0  0  0  0  0  0
    2.9950    0.0340   -1.1850 H   0  0  0  0  0  0  0  0  0  0  0  0
    3.4880    2.1680   -1.7570 H   0  0  0  0  0  0  0  0  0  0  0  0
    3.5460    2.7080   -0.1810 H   0  0  0  0  0  0  0  0  0  0  0  0
    4.1730   -2.4660   -0.0800 H   0  0  0  0  0  0  0  0  0  0  0  0
    3.1280   -4.4860    0.8820 H   0  0  0  0  0  0  0  0  0  0  0  0
   -2.5880    1.7130    1.3240 C   0  0  0  0  0  0  0  0  0  0  0  0
   -1.1200    1.5820    0.9640 C   0  0  0  0  0  0  0  0  0  0  0  0
   -0.4780    2.1540    2.2840 C   0  0  0  0  0  0  0  0  0  0  0  0
   -0.6140    0.2130    0.7350 C   0  0  2  0  0  0  0  0  0  0  0  0
    0.7660    0.1090    0.2710 N   0  0  0  0  0  0  0  0  0  0  0  0
   -1.4550   -0.7870    0.1000 C   0  0  0  0  0  0  0  0  0  0  0  0
   -0.9500   -1.4450   -0.8900 O   0  0  0  0  0  0  0  0  0  0  0  0
   -2.8530    1.3260    2.3100 H   0  0  0  0  0  0  0  0  0  0  0  0
   -3.2800    1.5070    0.4930 H   0  0  0  0  0  0  0  0  0  0  0  0
   -2.7420    2.8470    1.4630 H   0  0  0  0  0  0  0  0  0  0  0  0
   -0.8680    2.3250    0.2120 H   0  0  0  0  0  0  0  0  0  0  0  0
   -0.2100    3.1890    2.1820 H   0  0  0  0  0  0  0  0  0  0  0  0
    0.3100    1.4400    2.5480 H   0  0  0  0  0  0  0  0  0  0  0  0
   -1.2220    2.0610    3.1220 H   0  0  0  0  0  0  0  0  0  0  0  0
   -0.4660   -0.1450    1.8340 H   0  0  0  0  0  0  0  0  0  0  0  0
    1.0820   -0.8900   -0.0320 H   0  0  0  0  0  0  0  0  0  0  0  0
   -2.7780   -1.1440    0.4330 N   0  0  0  0  0  0  0  0  0  0  0  0
   -3.4660   -2.1740   -0.3180 C   0  0  1  0  0  0  0  0  0  0  0  0
   -3.7880   -1.6230   -1.6790 C   0  0  0  0  0  0  0  0  0  0  0  0
   -4.8630   -0.1610   -1.4100 S   0  0  0  0  0  0  0  0  0  0  0  0
   -2.7250   -3.4570   -0.3450 C   0  0  0  0  0  0  0  0  0  0  0  0
   -1.6530   -3.6210    0.2700 O   0  0  0  0  0  0  0  0  0  0  0  0
   -3.1950   -4.5520   -1.0650 O   0  0  0  0  0  0  0  0  0  0  0  0
   -3.2370   -0.6630    1.2440 H   0  0  0  0  0  0  0  0  0  0  0  0
   -4.4480   -2.4230    0.1810 H   0  0  0  0  0  0  0  0  0  0  0  0
   -4.3040   -2.3620   -2.3280 H   0  0  0  0  0  0  0  0  0  0  0  0
   -2.8690   -1.2470   -2.1410 H   0  0  0  0  0  0  0  0  0  0  0  0
   -4.5820    0.8470   -2.3380 H   0  0  0  0  0  0  0  0  0  0  0  0
  1 13  1  0  0  0  0
  2  1  1  0  0  0  0
  2  3  1  0  0  0  0
  3 14  1  0  0  0  0
  4 15  1  0  0  0  0
  4  3  2  0  0  0  0
  5  4  1  0  0  0  0
  6  5  1  0  0  0  0
  6 17  1  0  0  0  0
  7 18  1  6  0  0  0
  7  9  1  0  0  0  0
  7  6  1  0  0  0  0
  8  7  1  0  0  0  0
  8 20  1  0  0  0  0
  9 27  1  0  0  0  0
  9 10  2  0  0  0  0
 11 12  1  0  0  0  0
 11  5  2  0  0  0  0
 12  2  2  0  0  0  0
 16  6  1  0  0  0  0
 19  8  1  0  0  0  0
 21 11  1  0  0  0  0
 22 12  1  0  0  0  0
 23 32  1  0  0  0  0
 23 30  1  0  0  0  0
 24 23  1  0  0  0  0
 24 25  1  0  0  0  0
 25 35  1  0  0  0  0
 25 36  1  0  0  0  0
 26 24  1  0  0  0  0
 26 37  1  1  0  0  0
 27 26  1  0  0  0  0
 28 39  1  0  0  0  0
 28 26  1  0  0  0  0
 29 28  2  0  0  0  0
 31 23  1  0  0  0  0
 33 24  1  0  0  0  0
 34 25  1  0  0  0  0
 38 27  1  0  0  0  0
 39 46  1  0  0  0  0
 40 47  1  1  0  0  0
 40 39  1  0  0  0  0
 41 42  1  0  0  0  0
 41 40  1  0  0  0  0
 43 40  1  0  0  0  0
 43 44  1  0  0  0  0
 45 43  2  0  0  0  0
 48 41  1  0  0  0  0
 49 41  1  0  0  0  0
 50 42  1  0  0  0  0
M  END
$$$$
