YVM.pdb
 OpenBabel07022419243D

 56 56  0  0  1  0  0  0  0  0999 V2000
   -1.1400   -3.1620    5.9480 O   0  0  0  0  0  0  0  0  0  0  0  0
   -0.0950   -2.7720    5.0960 C   0  0  0  0  0  0  0  0  0  0  0  0
   -0.3210   -2.6840    3.7330 C   0  0  0  0  0  0  0  0  0  0  0  0
    0.7180   -2.2990    2.9100 C   0  0  0  0  0  0  0  0  0  0  0  0
    1.9700   -2.0010    3.3990 C   0  0  0  0  0  0  0  0  0  0  0  0
    3.0880   -1.5880    2.5200 C   0  0  0  0  0  0  0  0  0  0  0  0
    3.1300   -0.0860    2.3330 C   0  0  2  0  0  0  0  0  0  0  0  0
    3.2880    0.6160    3.5670 N   0  0  0  0  0  0  0  0  0  0  0  0
    2.0190    0.4130    1.4880 C   0  0  0  0  0  0  0  0  0  0  0  0
    1.2570    1.3250    1.9320 O   0  0  0  0  0  0  0  0  0  0  0  0
    2.1470   -2.1050    4.7750 C   0  0  0  0  0  0  0  0  0  0  0  0
    1.1390   -2.4850    5.6310 C   0  0  0  0  0  0  0  0  0  0  0  0
   -2.0270   -2.6790    5.9780 H   0  0  0  0  0  0  0  0  0  0  0  0
   -1.3190   -2.9200    3.3330 H   0  0  0  0  0  0  0  0  0  0  0  0
    0.4920   -2.2430    1.8430 H   0  0  0  0  0  0  0  0  0  0  0  0
    4.0510   -1.9050    2.9690 H   0  0  0  0  0  0  0  0  0  0  0  0
    3.0190   -2.1060    1.5420 H   0  0  0  0  0  0  0  0  0  0  0  0
    4.0680    0.1080    1.7340 H   0  0  0  0  0  0  0  0  0  0  0  0
    3.2080    1.6390    3.3670 H   0  0  0  0  0  0  0  0  0  0  0  0
    4.2850    0.4720    3.8980 H   0  0  0  0  0  0  0  0  0  0  0  0
    3.1240   -1.8780    5.2040 H   0  0  0  0  0  0  0  0  0  0  0  0
    1.2580   -2.5710    6.6990 H   0  0  0  0  0  0  0  0  0  0  0  0
    2.2270    2.2160   -1.3820 C   0  0  0  0  0  0  0  0  0  0  0  0
    1.3450    1.0510   -1.8810 C   0  0  0  0  0  0  0  0  0  0  0  0
    0.3630    1.6730   -2.8190 C   0  0  0  0  0  0  0  0  0  0  0  0
    0.7060    0.3640   -0.6770 C   0  0  2  0  0  0  0  0  0  0  0  0
    1.8120   -0.1230    0.1890 N   0  0  0  0  0  0  0  0  0  0  0  0
   -0.0040   -0.8260   -1.1410 C   0  0  0  0  0  0  0  0  0  0  0  0
    0.4460   -1.9610   -0.8770 O   0  0  0  0  0  0  0  0  0  0  0  0
    2.2010    3.0660   -2.0970 H   0  0  0  0  0  0  0  0  0  0  0  0
    3.2970    1.8830   -1.3420 H   0  0  0  0  0  0  0  0  0  0  0  0
    1.8580    2.6070   -0.4220 H   0  0  0  0  0  0  0  0  0  0  0  0
    2.0130    0.3230   -2.3760 H   0  0  0  0  0  0  0  0  0  0  0  0
   -0.4300    2.1820   -2.2100 H   0  0  0  0  0  0  0  0  0  0  0  0
   -0.0240    1.0260   -3.6040 H   0  0  0  0  0  0  0  0  0  0  0  0
    0.9470    2.4720   -3.3850 H   0  0  0  0  0  0  0  0  0  0  0  0
    0.1180    1.0930   -0.1160 H   0  0  0  0  0  0  0  0  0  0  0  0
    2.4600   -0.8710   -0.1370 H   0  0  0  0  0  0  0  0  0  0  0  0
   -6.0060   -0.4250   -0.7230 C   0  0  0  0  0  0  0  0  0  0  0  0
   -5.2630   -1.9380   -0.0640 S   0  0  0  0  0  0  0  0  0  0  0  0
   -3.4780   -1.9240   -0.3990 C   0  0  0  0  0  0  0  0  0  0  0  0
   -3.3000   -2.0090   -1.8880 C   0  0  0  0  0  0  0  0  0  0  0  0
   -1.8710   -2.0080   -2.3280 C   0  0  2  0  0  0  0  0  0  0  0  0
   -1.2020   -0.7650   -1.8880 N   0  0  0  0  0  0  0  0  0  0  0  0
   -1.8780   -2.0950   -3.8280 C   0  0  0  0  0  0  0  0  0  0  0  0
   -2.4060   -3.0860   -4.3980 O   0  0  0  0  0  0  0  0  0  0  0  0
   -1.3290   -1.1360   -4.6500 O   0  0  0  0  0  0  0  0  0  0  0  0
   -7.0930   -0.4460   -0.4150 H   0  0  0  0  0  0  0  0  0  0  0  0
   -5.9510   -0.4200   -1.8420 H   0  0  0  0  0  0  0  0  0  0  0  0
   -5.5860    0.4930   -0.2760 H   0  0  0  0  0  0  0  0  0  0  0  0
   -3.0050   -1.0020   -0.0220 H   0  0  0  0  0  0  0  0  0  0  0  0
   -2.9850   -2.7970    0.0710 H   0  0  0  0  0  0  0  0  0  0  0  0
   -3.8220   -1.1900   -2.4260 H   0  0  0  0  0  0  0  0  0  0  0  0
   -3.7580   -2.9520   -2.2740 H   0  0  0  0  0  0  0  0  0  0  0  0
   -1.2850   -2.8510   -1.9640 H   0  0  0  0  0  0  0  0  0  0  0  0
   -1.6340    0.1540   -2.1300 H   0  0  0  0  0  0  0  0  0  0  0  0
  1 13  1  0  0  0  0
  2 12  1  0  0  0  0
  2  1  1  0  0  0  0
  3  2  2  0  0  0  0
  4  5  2  0  0  0  0
  4  3  1  0  0  0  0
  5 11  1  0  0  0  0
  6 16  1  0  0  0  0
  6  5  1  0  0  0  0
  7 18  1  6  0  0  0
  7  6  1  0  0  0  0
  7  8  1  0  0  0  0
  8 20  1  0  0  0  0
  9 10  2  0  0  0  0
  9  7  1  0  0  0  0
 11 21  1  0  0  0  0
 11 12  2  0  0  0  0
 12 22  1  0  0  0  0
 14  3  1  0  0  0  0
 15  4  1  0  0  0  0
 17  6  1  0  0  0  0
 19  8  1  0  0  0  0
 23 31  1  0  0  0  0
 23 32  1  0  0  0  0
 24 23  1  0  0  0  0
 24 26  1  0  0  0  0
 25 34  1  0  0  0  0
 25 24  1  0  0  0  0
 26 37  1  1  0  0  0
 26 27  1  0  0  0  0
 27  9  1  0  0  0  0
 28 29  2  0  0  0  0
 28 26  1  0  0  0  0
 30 23  1  0  0  0  0
 33 24  1  0  0  0  0
 35 25  1  0  0  0  0
 36 25  1  0  0  0  0
 38 27  1  0  0  0  0
 39 48  1  0  0  0  0
 39 50  1  0  0  0  0
 39 40  1  0  0  0  0
 41 40  1  0  0  0  0
 41 51  1  0  0  0  0
 41 52  1  0  0  0  0
 42 41  1  0  0  0  0
 43 55  1  1  0  0  0
 43 42  1  0  0  0  0
 43 44  1  0  0  0  0
 44 28  1  0  0  0  0
 45 43  1  0  0  0  0
 46 45  1  0  0  0  0
 47 45  2  0  0  0  0
 49 39  1  0  0  0  0
 53 42  1  0  0  0  0
 54 42  1  0  0  0  0
 56 44  1  0  0  0  0
M  END
$$$$
