YVS.pdb
 OpenBabel07022419243D

 50 50  0  0  1  0  0  0  0  0999 V2000
    5.8220   -3.1100    3.7250 O   0  0  0  0  0  0  0  0  0  0  0  0
    5.1820   -2.2340    2.8580 C   0  0  0  0  0  0  0  0  0  0  0  0
    4.2480   -1.3410    3.3230 C   0  0  0  0  0  0  0  0  0  0  0  0
    3.6440   -0.4970    2.4240 C   0  0  0  0  0  0  0  0  0  0  0  0
    3.9340   -0.5030    1.0640 C   0  0  0  0  0  0  0  0  0  0  0  0
    3.2550    0.4270    0.1380 C   0  0  0  0  0  0  0  0  0  0  0  0
    1.9910   -0.1350   -0.4700 C   0  0  2  0  0  0  0  0  0  0  0  0
    1.4400    0.8780   -1.3460 N   0  0  0  0  0  0  0  0  0  0  0  0
    1.0320   -0.6220    0.5200 C   0  0  0  0  0  0  0  0  0  0  0  0
    1.3610   -1.5260    1.3150 O   0  0  0  0  0  0  0  0  0  0  0  0
    4.8750   -1.4080    0.6160 C   0  0  0  0  0  0  0  0  0  0  0  0
    5.4810   -2.2530    1.5130 C   0  0  0  0  0  0  0  0  0  0  0  0
    5.8280   -4.0970    3.4760 H   0  0  0  0  0  0  0  0  0  0  0  0
    4.0220   -1.3340    4.3750 H   0  0  0  0  0  0  0  0  0  0  0  0
    2.9020    0.2140    2.7840 H   0  0  0  0  0  0  0  0  0  0  0  0
    3.9800    0.6970   -0.6520 H   0  0  0  0  0  0  0  0  0  0  0  0
    3.0450    1.3890    0.6800 H   0  0  0  0  0  0  0  0  0  0  0  0
    2.3200   -0.9820   -1.1360 H   0  0  0  0  0  0  0  0  0  0  0  0
    1.9190    0.9030   -2.2730 H   0  0  0  0  0  0  0  0  0  0  0  0
    1.3940    1.8150   -0.8910 H   0  0  0  0  0  0  0  0  0  0  0  0
    5.1200   -1.4340   -0.4400 H   0  0  0  0  0  0  0  0  0  0  0  0
    6.2230   -2.9580    1.1200 H   0  0  0  0  0  0  0  0  0  0  0  0
   -2.3450    1.6620    1.7230 C   0  0  0  0  0  0  0  0  0  0  0  0
   -1.6960    0.5600    2.5180 C   0  0  0  0  0  0  0  0  0  0  0  0
   -0.5330    1.0990    3.3100 C   0  0  0  0  0  0  0  0  0  0  0  0
   -1.2460   -0.5860    1.6070 C   0  0  2  0  0  0  0  0  0  0  0  0
   -0.3020   -0.1180    0.6440 N   0  0  0  0  0  0  0  0  0  0  0  0
   -2.4780   -1.1430    0.9560 C   0  0  0  0  0  0  0  0  0  0  0  0
   -3.4270   -1.6060    1.6380 O   0  0  0  0  0  0  0  0  0  0  0  0
   -3.0470    2.1950    2.4050 H   0  0  0  0  0  0  0  0  0  0  0  0
   -2.9540    1.2750    0.8770 H   0  0  0  0  0  0  0  0  0  0  0  0
   -1.5910    2.4110    1.4090 H   0  0  0  0  0  0  0  0  0  0  0  0
   -2.4480    0.1830    3.2400 H   0  0  0  0  0  0  0  0  0  0  0  0
    0.2630    0.3200    3.3010 H   0  0  0  0  0  0  0  0  0  0  0  0
   -0.1370    1.9750    2.7270 H   0  0  0  0  0  0  0  0  0  0  0  0
   -0.8290    1.4020    4.3350 H   0  0  0  0  0  0  0  0  0  0  0  0
   -0.8550   -1.3870    2.2620 H   0  0  0  0  0  0  0  0  0  0  0  0
   -0.5680    0.6370   -0.0240 H   0  0  0  0  0  0  0  0  0  0  0  0
   -5.6400   -1.0320   -2.4100 O   0  0  0  0  0  0  0  0  0  0  0  0
   -4.4920   -0.5060   -1.7800 C   0  0  0  0  0  0  0  0  0  0  0  0
   -3.8170   -1.7120   -1.1120 C   0  0  2  0  0  0  0  0  0  0  0  0
   -2.6270   -1.1740   -0.4580 N   0  0  0  0  0  0  0  0  0  0  0  0
   -3.5000   -2.7430   -2.0970 C   0  0  0  0  0  0  0  0  0  0  0  0
   -2.3110   -3.0710   -2.2970 O   0  0  0  0  0  0  0  0  0  0  0  0
   -4.4840   -3.3770   -2.8240 O   0  0  0  0  0  0  0  0  0  0  0  0
   -6.3600   -1.1950   -1.7530 H   0  0  0  0  0  0  0  0  0  0  0  0
   -4.7510    0.2100   -0.9980 H   0  0  0  0  0  0  0  0  0  0  0  0
   -3.8360   -0.1150   -2.5720 H   0  0  0  0  0  0  0  0  0  0  0  0
   -4.5500   -2.0760   -0.3630 H   0  0  0  0  0  0  0  0  0  0  0  0
   -1.8430   -0.7920   -1.0300 H   0  0  0  0  0  0  0  0  0  0  0  0
  2  3  1  0  0  0  0
  2  1  1  0  0  0  0
  3 14  1  0  0  0  0
  4 15  1  0  0  0  0
  4  3  2  0  0  0  0
  5  4  1  0  0  0  0
  6 17  1  0  0  0  0
  6  5  1  0  0  0  0
  7 18  1  6  0  0  0
  7  6  1  0  0  0  0
  7  9  1  0  0  0  0
  8 20  1  0  0  0  0
  8  7  1  0  0  0  0
  9 27  1  0  0  0  0
  9 10  2  0  0  0  0
 11  5  2  0  0  0  0
 11 12  1  0  0  0  0
 12  2  2  0  0  0  0
 13  1  1  0  0  0  0
 16  6  1  0  0  0  0
 19  8  1  0  0  0  0
 21 11  1  0  0  0  0
 22 12  1  0  0  0  0
 23 30  1  0  0  0  0
 23 24  1  0  0  0  0
 24 33  1  0  0  0  0
 24 25  1  0  0  0  0
 25 36  1  0  0  0  0
 26 37  1  1  0  0  0
 26 24  1  0  0  0  0
 27 26  1  0  0  0  0
 28 26  1  0  0  0  0
 28 29  2  0  0  0  0
 31 23  1  0  0  0  0
 32 23  1  0  0  0  0
 34 25  1  0  0  0  0
 35 25  1  0  0  0  0
 38 27  1  0  0  0  0
 39 40  1  0  0  0  0
 39 46  1  0  0  0  0
 40 41  1  0  0  0  0
 40 47  1  0  0  0  0
 41 42  1  0  0  0  0
 41 49  1  1  0  0  0
 42 28  1  0  0  0  0
 43 41  1  0  0  0  0
 44 43  1  0  0  0  0
 45 43  2  0  0  0  0
 48 40  1  0  0  0  0
 50 42  1  0  0  0  0
M  END
$$$$
