YVT.pdb
 OpenBabel07022419243D

 53 53  0  0  1  0  0  0  0  0999 V2000
    3.5970   -2.0880    4.9060 O   0  0  0  0  0  0  0  0  0  0  0  0
    3.6560   -1.9150    3.5270 C   0  0  0  0  0  0  0  0  0  0  0  0
    3.1980   -2.8790    2.6500 C   0  0  0  0  0  0  0  0  0  0  0  0
    3.2570   -2.7080    1.2920 C   0  0  0  0  0  0  0  0  0  0  0  0
    3.7800   -1.5560    0.7470 C   0  0  0  0  0  0  0  0  0  0  0  0
    3.8490   -1.3550   -0.7220 C   0  0  0  0  0  0  0  0  0  0  0  0
    2.6110   -0.6790   -1.2730 C   0  0  2  0  0  0  0  0  0  0  0  0
    2.5210    0.6080   -0.6050 N   0  0  0  0  0  0  0  0  0  0  0  0
    1.4310   -1.5200   -0.9920 C   0  0  0  0  0  0  0  0  0  0  0  0
    1.3480   -2.6560   -1.5160 O   0  0  0  0  0  0  0  0  0  0  0  0
    4.2440   -0.5780    1.5990 C   0  0  0  0  0  0  0  0  0  0  0  0
    4.1790   -0.7630    2.9600 C   0  0  0  0  0  0  0  0  0  0  0  0
    3.4850   -3.0480    5.2330 H   0  0  0  0  0  0  0  0  0  0  0  0
    2.7710   -3.8160    3.0400 H   0  0  0  0  0  0  0  0  0  0  0  0
    2.8940   -3.4750    0.5910 H   0  0  0  0  0  0  0  0  0  0  0  0
    4.7530   -0.7390   -0.9290 H   0  0  0  0  0  0  0  0  0  0  0  0
    4.0240   -2.3470   -1.1780 H   0  0  0  0  0  0  0  0  0  0  0  0
    2.7330   -0.5090   -2.3460 H   0  0  0  0  0  0  0  0  0  0  0  0
    3.2090    1.2830   -0.9510 H   0  0  0  0  0  0  0  0  0  0  0  0
    2.3940    0.5470    0.4090 H   0  0  0  0  0  0  0  0  0  0  0  0
    4.6630    0.3420    1.1620 H   0  0  0  0  0  0  0  0  0  0  0  0
    4.5360   -0.0110    3.6470 H   0  0  0  0  0  0  0  0  0  0  0  0
   -0.8740   -1.1420    2.4380 C   0  0  0  0  0  0  0  0  0  0  0  0
   -0.7530   -2.3560    1.5580 C   0  0  0  0  0  0  0  0  0  0  0  0
   -1.9410   -3.2620    1.8400 C   0  0  0  0  0  0  0  0  0  0  0  0
   -0.7760   -2.0110    0.0820 C   0  0  2  0  0  0  0  0  0  0  0  0
    0.3620   -1.1210   -0.1490 N   0  0  0  0  0  0  0  0  0  0  0  0
   -2.0580   -1.3320   -0.2360 C   0  0  0  0  0  0  0  0  0  0  0  0
   -3.1280   -1.9740   -0.0840 O   0  0  0  0  0  0  0  0  0  0  0  0
   -0.8540   -0.1890    1.8830 H   0  0  0  0  0  0  0  0  0  0  0  0
   -0.0250   -1.0830    3.1790 H   0  0  0  0  0  0  0  0  0  0  0  0
   -1.7920   -1.1930    3.0950 H   0  0  0  0  0  0  0  0  0  0  0  0
    0.2070   -2.8590    1.8100 H   0  0  0  0  0  0  0  0  0  0  0  0
   -1.6070   -4.0010    2.6180 H   0  0  0  0  0  0  0  0  0  0  0  0
   -2.8030   -2.7070    2.2420 H   0  0  0  0  0  0  0  0  0  0  0  0
   -2.2020   -3.8630    0.9360 H   0  0  0  0  0  0  0  0  0  0  0  0
   -0.6580   -2.9630   -0.4690 H   0  0  0  0  0  0  0  0  0  0  0  0
    0.4220   -0.1790    0.2910 H   0  0  0  0  0  0  0  0  0  0  0  0
   -4.9840    2.4630   -0.5900 C   0  0  0  0  0  0  0  0  0  0  0  0
   -3.5980    1.9280   -0.2080 C   0  0  1  0  0  0  0  0  0  0  0  0
   -3.6150    1.7190    1.1500 O   0  0  0  0  0  0  0  0  0  0  0  0
   -3.4030    0.6640   -1.0120 C   0  0  2  0  0  0  0  0  0  0  0  0
   -2.1560    0.0010   -0.7020 N   0  0  0  0  0  0  0  0  0  0  0  0
   -3.4140    1.0440   -2.4420 C   0  0  0  0  0  0  0  0  0  0  0  0
   -4.3980    1.6340   -2.9410 O   0  0  0  0  0  0  0  0  0  0  0  0
   -2.3380    0.7570   -3.2590 O   0  0  0  0  0  0  0  0  0  0  0  0
   -5.5030    2.8830    0.3070 H   0  0  0  0  0  0  0  0  0  0  0  0
   -4.9230    3.2590   -1.3380 H   0  0  0  0  0  0  0  0  0  0  0  0
   -5.6370    1.6450   -0.9570 H   0  0  0  0  0  0  0  0  0  0  0  0
   -2.8150    2.6350   -0.5070 H   0  0  0  0  0  0  0  0  0  0  0  0
   -4.0360    2.5210    1.5690 H   0  0  0  0  0  0  0  0  0  0  0  0
   -4.2810    0.0120   -0.8450 H   0  0  0  0  0  0  0  0  0  0  0  0
   -1.2700    0.5370   -0.8280 H   0  0  0  0  0  0  0  0  0  0  0  0
  1 13  1  0  0  0  0
  2  1  1  0  0  0  0
  3 14  1  0  0  0  0
  3  2  2  0  0  0  0
  4  3  1  0  0  0  0
  5  4  2  0  0  0  0
  5 11  1  0  0  0  0
  6  5  1  0  0  0  0
  7 18  1  6  0  0  0
  7  9  1  0  0  0  0
  7  6  1  0  0  0  0
  7  8  1  0  0  0  0
  8 20  1  0  0  0  0
  9 27  1  0  0  0  0
 10  9  2  0  0  0  0
 11 12  2  0  0  0  0
 12  2  1  0  0  0  0
 12 22  1  0  0  0  0
 15  4  1  0  0  0  0
 16  6  1  0  0  0  0
 17  6  1  0  0  0  0
 19  8  1  0  0  0  0
 21 11  1  0  0  0  0
 23 32  1  0  0  0  0
 23 31  1  0  0  0  0
 24 33  1  0  0  0  0
 24 25  1  0  0  0  0
 24 23  1  0  0  0  0
 25 35  1  0  0  0  0
 25 34  1  0  0  0  0
 26 37  1  6  0  0  0
 26 24  1  0  0  0  0
 27 26  1  0  0  0  0
 27 38  1  0  0  0  0
 28 29  2  0  0  0  0
 28 26  1  0  0  0  0
 30 23  1  0  0  0  0
 36 25  1  0  0  0  0
 39 40  1  0  0  0  0
 39 47  1  0  0  0  0
 40 50  1  6  0  0  0
 40 41  1  0  0  0  0
 41 51  1  0  0  0  0
 42 52  1  1  0  0  0
 42 43  1  0  0  0  0
 42 40  1  0  0  0  0
 43 28  1  0  0  0  0
 44 42  1  0  0  0  0
 45 44  1  0  0  0  0
 46 44  2  0  0  0  0
 48 39  1  0  0  0  0
 49 39  1  0  0  0  0
 53 43  1  0  0  0  0
M  END
$$$$
