YVY.pdb
 OpenBabel07022419243D

 60 61  0  0  1  0  0  0  0  0999 V2000
    2.8940   -3.7320    4.7150 O   0  0  0  0  0  0  0  0  0  0  0  0
    3.0240   -2.8870    3.6200 C   0  0  0  0  0  0  0  0  0  0  0  0
    3.9320   -1.8430    3.5820 C   0  0  0  0  0  0  0  0  0  0  0  0
    4.0790   -0.9990    2.5170 C   0  0  0  0  0  0  0  0  0  0  0  0
    3.2830   -1.1730    1.3870 C   0  0  0  0  0  0  0  0  0  0  0  0
    3.4290   -0.3020    0.2170 C   0  0  0  0  0  0  0  0  0  0  0  0
    2.6520    0.9640    0.2230 C   0  0  2  0  0  0  0  0  0  0  0  0
    3.0280    1.7830    1.3840 N   0  0  0  0  0  0  0  0  0  0  0  0
    1.1910    0.8470    0.0600 C   0  0  0  0  0  0  0  0  0  0  0  0
    0.7330    0.1180   -0.8530 O   0  0  0  0  0  0  0  0  0  0  0  0
    2.3760   -2.2070    1.4110 C   0  0  0  0  0  0  0  0  0  0  0  0
    2.2470   -3.0450    2.4980 C   0  0  0  0  0  0  0  0  0  0  0  0
    2.6390   -3.2890    5.5930 H   0  0  0  0  0  0  0  0  0  0  0  0
    4.5450   -1.7220    4.4720 H   0  0  0  0  0  0  0  0  0  0  0  0
    4.8000   -0.2010    2.5330 H   0  0  0  0  0  0  0  0  0  0  0  0
    3.1370   -0.8590   -0.7190 H   0  0  0  0  0  0  0  0  0  0  0  0
    4.5170   -0.0050    0.1170 H   0  0  0  0  0  0  0  0  0  0  0  0
    3.0650    1.5870   -0.6540 H   0  0  0  0  0  0  0  0  0  0  0  0
    4.0460    1.8150    1.4870 H   0  0  0  0  0  0  0  0  0  0  0  0
    2.6730    2.7770    1.2330 H   0  0  0  0  0  0  0  0  0  0  0  0
    1.7350   -2.3740    0.5430 H   0  0  0  0  0  0  0  0  0  0  0  0
    1.5240   -3.8580    2.5000 H   0  0  0  0  0  0  0  0  0  0  0  0
   -1.2680    2.0840   -1.6590 C   0  0  0  0  0  0  0  0  0  0  0  0
   -1.6890    2.3990   -0.2710 C   0  0  0  0  0  0  0  0  0  0  0  0
   -3.1790    2.5360   -0.1520 C   0  0  0  0  0  0  0  0  0  0  0  0
   -1.1360    1.5180    0.8170 C   0  0  2  0  0  0  0  0  0  0  0  0
    0.2820    1.5450    0.9070 N   0  0  0  0  0  0  0  0  0  0  0  0
   -1.8070    0.2280    0.9810 C   0  0  0  0  0  0  0  0  0  0  0  0
   -3.0800    0.2130    0.8570 O   0  0  0  0  0  0  0  0  0  0  0  0
   -1.9120    2.7500   -2.3230 H   0  0  0  0  0  0  0  0  0  0  0  0
   -0.2400    2.4100   -1.9290 H   0  0  0  0  0  0  0  0  0  0  0  0
   -1.5270    1.0650   -2.0130 H   0  0  0  0  0  0  0  0  0  0  0  0
   -1.2770    3.4260   -0.0520 H   0  0  0  0  0  0  0  0  0  0  0  0
   -3.5300    3.5340   -0.5500 H   0  0  0  0  0  0  0  0  0  0  0  0
   -3.6430    1.7300   -0.7700 H   0  0  0  0  0  0  0  0  0  0  0  0
   -3.4900    2.4680    0.9100 H   0  0  0  0  0  0  0  0  0  0  0  0
   -1.4710    2.1010    1.7740 H   0  0  0  0  0  0  0  0  0  0  0  0
    0.7940    2.1260    1.6590 H   0  0  0  0  0  0  0  0  0  0  0  0
   -2.4480   -2.3710   -5.0220 O   0  0  0  0  0  0  0  0  0  0  0  0
   -2.2240   -2.5990   -3.6720 C   0  0  0  0  0  0  0  0  0  0  0  0
   -3.2530   -3.0400   -2.8490 C   0  0  0  0  0  0  0  0  0  0  0  0
   -3.0590   -3.2700   -1.5210 C   0  0  0  0  0  0  0  0  0  0  0  0
   -1.8200   -3.0730   -0.9340 C   0  0  0  0  0  0  0  0  0  0  0  0
   -1.6270   -3.3440    0.5050 C   0  0  0  0  0  0  0  0  0  0  0  0
   -1.9620   -2.2380    1.4260 C   0  0  2  0  0  0  0  0  0  0  0  0
   -1.2210   -1.0060    1.2650 N   0  0  0  0  0  0  0  0  0  0  0  0
   -1.7890   -2.7730    2.8260 C   0  0  0  0  0  0  0  0  0  0  0  0
   -2.3350   -3.8230    3.1930 O   0  0  0  0  0  0  0  0  0  0  0  0
   -0.7910   -2.6370   -1.7330 C   0  0  0  0  0  0  0  0  0  0  0  0
   -0.9900   -2.4050   -3.0750 C   0  0  0  0  0  0  0  0  0  0  0  0
   -1.0000   -2.0790    3.7330 O   0  0  0  0  0  0  0  0  0  0  0  0
   -3.1090   -1.6500   -5.3140 H   0  0  0  0  0  0  0  0  0  0  0  0
   -4.2380   -3.1990   -3.3050 H   0  0  0  0  0  0  0  0  0  0  0  0
   -3.8880   -3.6170   -0.9010 H   0  0  0  0  0  0  0  0  0  0  0  0
   -0.5750   -3.6660    0.7040 H   0  0  0  0  0  0  0  0  0  0  0  0
   -2.2810   -4.2040    0.7690 H   0  0  0  0  0  0  0  0  0  0  0  0
   -3.0670   -2.0570    1.3460 H   0  0  0  0  0  0  0  0  0  0  0  0
   -0.1930   -1.0560    1.3800 H   0  0  0  0  0  0  0  0  0  0  0  0
    0.2000   -2.4870   -1.2790 H   0  0  0  0  0  0  0  0  0  0  0  0
   -0.1630   -2.0580   -3.6980 H   0  0  0  0  0  0  0  0  0  0  0  0
  1 13  1  0  0  0  0
  2  1  1  0  0  0  0
  3  2  1  0  0  0  0
  3 14  1  0  0  0  0
  4 15  1  0  0  0  0
  4  3  2  0  0  0  0
  5 11  2  0  0  0  0
  5  4  1  0  0  0  0
  6  7  1  0  0  0  0
  6  5  1  0  0  0  0
  7 18  1  6  0  0  0
  7  8  1  0  0  0  0
  8 19  1  0  0  0  0
  9  7  1  0  0  0  0
  9 27  1  0  0  0  0
 10  9  2  0  0  0  0
 11 12  1  0  0  0  0
 12 22  1  0  0  0  0
 12  2  2  0  0  0  0
 16  6  1  0  0  0  0
 17  6  1  0  0  0  0
 20  8  1  0  0  0  0
 21 11  1  0  0  0  0
 23 24  1  0  0  0  0
 24 25  1  0  0  0  0
 24 33  1  0  0  0  0
 24 26  1  0  0  0  0
 25 36  1  0  0  0  0
 26 27  1  0  0  0  0
 26 28  1  0  0  0  0
 26 37  1  1  0  0  0
 27 38  1  0  0  0  0
 28 46  1  0  0  0  0
 29 28  2  0  0  0  0
 30 23  1  0  0  0  0
 31 23  1  0  0  0  0
 32 23  1  0  0  0  0
 34 25  1  0  0  0  0
 35 25  1  0  0  0  0
 39 40  1  0  0  0  0
 40 50  2  0  0  0  0
 40 41  1  0  0  0  0
 41 42  2  0  0  0  0
 42 43  1  0  0  0  0
 42 54  1  0  0  0  0
 43 44  1  0  0  0  0
 44 55  1  0  0  0  0
 44 56  1  0  0  0  0
 44 45  1  0  0  0  0
 45 57  1  6  0  0  0
 45 47  1  0  0  0  0
 46 58  1  0  0  0  0
 46 45  1  0  0  0  0
 47 48  2  0  0  0  0
 47 51  1  0  0  0  0
 49 59  1  0  0  0  0
 49 43  2  0  0  0  0
 50 49  1  0  0  0  0
 52 39  1  0  0  0  0
 53 41  1  0  0  0  0
 60 50  1  0  0  0  0
M  END
$$$$
