YWE.pdb
 OpenBabel07022419233D

 63 65  0  0  1  0  0  0  0  0999 V2000
    5.3260   -3.2750    3.6730 O   0  0  0  0  0  0  0  0  0  0  0  0
    5.2400   -2.3220    2.6390 C   0  0  0  0  0  0  0  0  0  0  0  0
    4.5880   -2.6420    1.4590 C   0  0  0  0  0  0  0  0  0  0  0  0
    4.4980   -1.7060    0.4310 C   0  0  0  0  0  0  0  0  0  0  0  0
    5.0470   -0.4500    0.5550 C   0  0  0  0  0  0  0  0  0  0  0  0
    4.9360    0.5040   -0.5410 C   0  0  0  0  0  0  0  0  0  0  0  0
    3.6790    1.3490   -0.4670 C   0  0  2  0  0  0  0  0  0  0  0  0
    3.6500    2.1160    0.7800 N   0  0  0  0  0  0  0  0  0  0  0  0
    2.4620    0.5550   -0.6330 C   0  0  0  0  0  0  0  0  0  0  0  0
    2.3210   -0.1170   -1.6890 O   0  0  0  0  0  0  0  0  0  0  0  0
    5.6850   -0.1580    1.7310 C   0  0  0  0  0  0  0  0  0  0  0  0
    5.7910   -1.0660    2.7690 C   0  0  0  0  0  0  0  0  0  0  0  0
    4.9010   -3.1150    4.5800 H   0  0  0  0  0  0  0  0  0  0  0  0
    4.1610   -3.6240    1.3670 H   0  0  0  0  0  0  0  0  0  0  0  0
    3.9740   -2.0290   -0.4570 H   0  0  0  0  0  0  0  0  0  0  0  0
    4.9290    0.0040   -1.5330 H   0  0  0  0  0  0  0  0  0  0  0  0
    5.7890    1.2370   -0.5910 H   0  0  0  0  0  0  0  0  0  0  0  0
    3.7560    2.0990   -1.2840 H   0  0  0  0  0  0  0  0  0  0  0  0
    4.6060    2.5480    0.9010 H   0  0  0  0  0  0  0  0  0  0  0  0
    2.9940    2.9250    0.6660 H   0  0  0  0  0  0  0  0  0  0  0  0
    6.1520    0.8190    1.9150 H   0  0  0  0  0  0  0  0  0  0  0  0
    6.2970   -0.8270    3.6920 H   0  0  0  0  0  0  0  0  0  0  0  0
    1.4660    0.5270    0.3420 N   0  0  0  0  0  0  0  0  0  0  0  0
    0.2190   -0.2580    0.2220 C   0  0  1  0  0  0  0  0  0  0  0  0
    0.1390   -1.2700    1.2950 C   0  0  0  0  0  0  0  0  0  0  0  0
   -1.0340   -2.1500    1.3200 C   0  0  0  0  0  0  0  0  0  0  0  0
   -2.0950   -2.1710    2.2090 C   0  0  0  0  0  0  0  0  0  0  0  0
   -2.9160   -3.1710    1.8560 N   0  0  0  0  0  0  0  0  0  0  0  0
   -2.4650   -3.8150    0.7890 C   0  0  0  0  0  0  0  0  0  0  0  0
   -2.9390   -4.9040    0.0430 C   0  0  0  0  0  0  0  0  0  0  0  0
   -2.2110   -5.3450   -1.0520 C   0  0  0  0  0  0  0  0  0  0  0  0
   -1.0370   -4.6990   -1.3770 C   0  0  0  0  0  0  0  0  0  0  0  0
   -0.5470   -3.6310   -0.6660 C   0  0  0  0  0  0  0  0  0  0  0  0
   -1.2920   -3.1990    0.4320 C   0  0  0  0  0  0  0  0  0  0  0  0
   -0.9200    0.6700    0.1860 C   0  0  0  0  0  0  0  0  0  0  0  0
   -0.6790    1.9210    0.3530 O   0  0  0  0  0  0  0  0  0  0  0  0
    1.5490    1.0700    1.2280 H   0  0  0  0  0  0  0  0  0  0  0  0
    0.2960   -0.7200   -0.8060 H   0  0  0  0  0  0  0  0  0  0  0  0
    0.2130   -0.8210    2.3250 H   0  0  0  0  0  0  0  0  0  0  0  0
    1.0400   -1.9500    1.1870 H   0  0  0  0  0  0  0  0  0  0  0  0
   -2.2430   -1.4930    3.0530 H   0  0  0  0  0  0  0  0  0  0  0  0
   -3.8100   -3.4130    2.3690 H   0  0  0  0  0  0  0  0  0  0  0  0
   -3.8660   -5.3840    0.3310 H   0  0  0  0  0  0  0  0  0  0  0  0
   -2.5670   -6.1910   -1.6430 H   0  0  0  0  0  0  0  0  0  0  0  0
   -0.4680   -5.0540   -2.2410 H   0  0  0  0  0  0  0  0  0  0  0  0
    0.3710   -3.1180   -0.9080 H   0  0  0  0  0  0  0  0  0  0  0  0
   -2.2730    0.3500   -0.0190 N   0  0  0  0  0  0  0  0  0  0  0  0
   -3.3540    1.3650   -0.0530 C   0  0  1  0  0  0  0  0  0  0  0  0
   -3.8690    1.4670   -1.4440 C   0  0  0  0  0  0  0  0  0  0  0  0
   -5.0130    2.4020   -1.5900 C   0  0  0  0  0  0  0  0  0  0  0  0
   -6.2920    1.9370   -0.9990 C   0  0  0  0  0  0  0  0  0  0  0  0
   -6.4800    0.6970   -0.7330 O   0  0  0  0  0  0  0  0  0  0  0  0
   -4.3110    1.0890    0.9740 C   0  0  0  0  0  0  0  0  0  0  0  0
   -5.0940    2.0120    1.3890 O   0  0  0  0  0  0  0  0  0  0  0  0
   -7.3410    2.7880   -0.7020 O   0  0  0  0  0  0  0  0  0  0  0  0
   -4.4480   -0.1450    1.5610 O   0  0  0  0  0  0  0  0  0  0  0  0
   -2.5540   -0.6270   -0.1610 H   0  0  0  0  0  0  0  0  0  0  0  0
   -2.7910    2.3540    0.1770 H   0  0  0  0  0  0  0  0  0  0  0  0
   -4.1300    0.4200   -1.7820 H   0  0  0  0  0  0  0  0  0  0  0  0
   -3.0270    1.7510   -2.1270 H   0  0  0  0  0  0  0  0  0  0  0  0
   -4.7440    3.3570   -1.0680 H   0  0  0  0  0  0  0  0  0  0  0  0
   -5.2510    2.6420   -2.6540 H   0  0  0  0  0  0  0  0  0  0  0  0
   -7.9260    2.5850    0.1090 H   0  0  0  0  0  0  0  0  0  0  0  0
  1 13  1  0  0  0  0
  2 12  1  0  0  0  0
  2  1  1  0  0  0  0
  3  2  2  0  0  0  0
  4  5  2  0  0  0  0
  4  3  1  0  0  0  0
  5 11  1  0  0  0  0
  6  7  1  0  0  0  0
  6  5  1  0  0  0  0
  7 18  1  6  0  0  0
  7  8  1  0  0  0  0
  8 19  1  0  0  0  0
  9  7  1  0  0  0  0
  9 23  1  0  0  0  0
 10  9  2  0  0  0  0
 11 21  1  0  0  0  0
 11 12  2  0  0  0  0
 12 22  1  0  0  0  0
 14  3  1  0  0  0  0
 15  4  1  0  0  0  0
 16  6  1  0  0  0  0
 17  6  1  0  0  0  0
 20  8  1  0  0  0  0
 23 37  1  0  0  0  0
 24 38  1  6  0  0  0
 24 23  1  0  0  0  0
 24 25  1  0  0  0  0
 25 26  1  0  0  0  0
 25 39  1  0  0  0  0
 26 27  2  0  0  0  0
 27 41  1  0  0  0  0
 28 27  1  0  0  0  0
 28 42  1  0  0  0  0
 29 28  1  0  0  0  0
 30 43  1  0  0  0  0
 30 29  2  0  0  0  0
 31 30  1  0  0  0  0
 32 31  2  0  0  0  0
 32 33  1  0  0  0  0
 33 34  2  0  0  0  0
 34 29  1  0  0  0  0
 34 26  1  0  0  0  0
 35 24  1  0  0  0  0
 35 36  2  0  0  0  0
 40 25  1  0  0  0  0
 44 31  1  0  0  0  0
 45 32  1  0  0  0  0
 46 33  1  0  0  0  0
 47 35  1  0  0  0  0
 48 47  1  0  0  0  0
 48 58  1  1  0  0  0
 48 53  1  0  0  0  0
 49 48  1  0  0  0  0
 50 49  1  0  0  0  0
 50 61  1  0  0  0  0
 50 51  1  0  0  0  0
 51 52  2  0  0  0  0
 51 55  1  0  0  0  0
 53 54  2  0  0  0  0
 53 56  1  0  0  0  0
 55 63  1  0  0  0  0
 57 47  1  0  0  0  0
 59 49  1  0  0  0  0
 60 49  1  0  0  0  0
 62 50  1  0  0  0  0
M  END
$$$$
