YWG.pdb
 OpenBabel07022419233D

 54 56  0  0  1  0  0  0  0  0999 V2000
    1.0440    0.9080    6.4760 O   0  0  0  0  0  0  0  0  0  0  0  0
    1.8680    0.6070    5.3970 C   0  0  0  0  0  0  0  0  0  0  0  0
    1.7940   -0.6030    4.7200 C   0  0  0  0  0  0  0  0  0  0  0  0
    2.6040   -0.9010    3.6600 C   0  0  0  0  0  0  0  0  0  0  0  0
    3.5360   -0.0070    3.2120 C   0  0  0  0  0  0  0  0  0  0  0  0
    4.4410   -0.2910    2.0580 C   0  0  0  0  0  0  0  0  0  0  0  0
    3.8510    0.1520    0.7430 C   0  0  2  0  0  0  0  0  0  0  0  0
    3.5670    1.5470    0.6640 N   0  0  0  0  0  0  0  0  0  0  0  0
    2.6550   -0.6830    0.4110 C   0  0  0  0  0  0  0  0  0  0  0  0
    2.7770   -1.9340    0.4530 O   0  0  0  0  0  0  0  0  0  0  0  0
    3.6460    1.2050    3.8510 C   0  0  0  0  0  0  0  0  0  0  0  0
    2.8240    1.4870    4.9150 C   0  0  0  0  0  0  0  0  0  0  0  0
    0.6730    0.1130    7.0100 H   0  0  0  0  0  0  0  0  0  0  0  0
    1.0330   -1.3000    5.1060 H   0  0  0  0  0  0  0  0  0  0  0  0
    2.4880   -1.8620    3.1840 H   0  0  0  0  0  0  0  0  0  0  0  0
    4.5600   -1.4040    1.9850 H   0  0  0  0  0  0  0  0  0  0  0  0
    5.4200    0.1750    2.2540 H   0  0  0  0  0  0  0  0  0  0  0  0
    4.6020   -0.0860   -0.0450 H   0  0  0  0  0  0  0  0  0  0  0  0
    2.8040    1.8940    1.2490 H   0  0  0  0  0  0  0  0  0  0  0  0
    4.4050    2.1400    0.5930 H   0  0  0  0  0  0  0  0  0  0  0  0
    4.3960    1.9420    3.5030 H   0  0  0  0  0  0  0  0  0  0  0  0
    2.9140    2.4510    5.4210 H   0  0  0  0  0  0  0  0  0  0  0  0
    1.4160   -0.1390    0.0580 N   0  0  0  0  0  0  0  0  0  0  0  0
    0.2540   -1.0280   -0.2640 C   0  0  1  0  0  0  0  0  0  0  0  0
   -0.7660   -0.8710    0.7750 C   0  0  0  0  0  0  0  0  0  0  0  0
   -1.9900   -1.6650    0.6060 C   0  0  0  0  0  0  0  0  0  0  0  0
   -2.2260   -2.9530    1.1070 C   0  0  0  0  0  0  0  0  0  0  0  0
   -3.4410   -3.3590    0.7200 N   0  0  0  0  0  0  0  0  0  0  0  0
   -4.0390   -2.4060   -0.0180 C   0  0  0  0  0  0  0  0  0  0  0  0
   -5.2990   -2.3500   -0.6330 C   0  0  0  0  0  0  0  0  0  0  0  0
   -5.6660   -1.2240   -1.3300 C   0  0  0  0  0  0  0  0  0  0  0  0
   -4.7830   -0.1730   -1.4060 C   0  0  0  0  0  0  0  0  0  0  0  0
   -3.5290   -0.2450   -0.7860 C   0  0  0  0  0  0  0  0  0  0  0  0
   -3.1550   -1.3570   -0.0940 C   0  0  0  0  0  0  0  0  0  0  0  0
   -0.0360   -0.9180   -1.6750 C   0  0  0  0  0  0  0  0  0  0  0  0
    0.5560   -0.0150   -2.4010 O   0  0  0  0  0  0  0  0  0  0  0  0
    1.2810    0.8720    0.0130 H   0  0  0  0  0  0  0  0  0  0  0  0
    0.6850   -2.0780   -0.1160 H   0  0  0  0  0  0  0  0  0  0  0  0
   -1.0740    0.1980    0.9410 H   0  0  0  0  0  0  0  0  0  0  0  0
   -0.2990   -1.2470    1.7420 H   0  0  0  0  0  0  0  0  0  0  0  0
   -1.4990   -3.4990    1.7130 H   0  0  0  0  0  0  0  0  0  0  0  0
   -3.9100   -4.2810    0.9340 H   0  0  0  0  0  0  0  0  0  0  0  0
   -5.9590   -3.2010   -0.5460 H   0  0  0  0  0  0  0  0  0  0  0  0
   -6.6170   -1.1270   -1.8200 H   0  0  0  0  0  0  0  0  0  0  0  0
   -5.0620    0.7100   -1.9470 H   0  0  0  0  0  0  0  0  0  0  0  0
   -2.8220    0.5680   -0.8230 H   0  0  0  0  0  0  0  0  0  0  0  0
   -0.9280   -1.7190   -2.4200 N   0  0  0  0  0  0  0  0  0  0  0  0
   -1.1740   -1.5910   -3.8390 C   0  0  0  0  0  0  0  0  0  0  0  0
   -1.6620   -0.2530   -4.1850 C   0  0  0  0  0  0  0  0  0  0  0  0
   -1.7910    0.6310   -3.3230 O   0  0  0  0  0  0  0  0  0  0  0  0
   -2.0100    0.1080   -5.4950 O   0  0  0  0  0  0  0  0  0  0  0  0
   -1.4300   -2.4800   -1.9150 H   0  0  0  0  0  0  0  0  0  0  0  0
   -1.9690   -2.3040   -4.1530 H   0  0  0  0  0  0  0  0  0  0  0  0
   -0.2820   -1.8910   -4.4370 H   0  0  0  0  0  0  0  0  0  0  0  0
  1 13  1  0  0  0  0
  2  1  1  0  0  0  0
  3 14  1  0  0  0  0
  3  2  2  0  0  0  0
  4  3  1  0  0  0  0
  5  4  2  0  0  0  0
  5 11  1  0  0  0  0
  6 17  1  0  0  0  0
  6  5  1  0  0  0  0
  7 18  1  6  0  0  0
  7  6  1  0  0  0  0
  8  7  1  0  0  0  0
  8 19  1  0  0  0  0
  9 10  2  0  0  0  0
  9  7  1  0  0  0  0
 11 12  2  0  0  0  0
 12  2  1  0  0  0  0
 12 22  1  0  0  0  0
 15  4  1  0  0  0  0
 16  6  1  0  0  0  0
 20  8  1  0  0  0  0
 21 11  1  0  0  0  0
 23  9  1  0  0  0  0
 24 38  1  1  0  0  0
 24 23  1  0  0  0  0
 24 25  1  0  0  0  0
 25 39  1  0  0  0  0
 25 40  1  0  0  0  0
 26 25  1  0  0  0  0
 26 27  2  0  0  0  0
 27 41  1  0  0  0  0
 28 42  1  0  0  0  0
 28 27  1  0  0  0  0
 29 28  1  0  0  0  0
 30 43  1  0  0  0  0
 30 29  2  0  0  0  0
 31 30  1  0  0  0  0
 32 31  2  0  0  0  0
 32 33  1  0  0  0  0
 33 34  2  0  0  0  0
 34 29  1  0  0  0  0
 34 26  1  0  0  0  0
 35 24  1  0  0  0  0
 36 35  2  0  0  0  0
 37 23  1  0  0  0  0
 44 31  1  0  0  0  0
 45 32  1  0  0  0  0
 46 33  1  0  0  0  0
 47 52  1  0  0  0  0
 47 35  1  0  0  0  0
 48 47  1  0  0  0  0
 49 48  1  0  0  0  0
 49 50  1  0  0  0  0
 51 49  2  0  0  0  0
 53 48  1  0  0  0  0
 54 48  1  0  0  0  0
M  END
$$$$
