YWH.pdb
 OpenBabel07022419233D

 64 67  0  0  1  0  0  0  0  0999 V2000
    1.8130    2.5290    5.7800 O   0  0  0  0  0  0  0  0  0  0  0  0
    2.0330    2.3340    4.4210 C   0  0  0  0  0  0  0  0  0  0  0  0
    1.6290    1.1390    3.8330 C   0  0  0  0  0  0  0  0  0  0  0  0
    1.8400    0.9230    2.4730 C   0  0  0  0  0  0  0  0  0  0  0  0
    2.4440    1.8780    1.7030 C   0  0  0  0  0  0  0  0  0  0  0  0
    2.6680    1.6540    0.2660 C   0  0  0  0  0  0  0  0  0  0  0  0
    1.5500    2.1610   -0.6070 C   0  0  2  0  0  0  0  0  0  0  0  0
    1.4440    3.5850   -0.3450 N   0  0  0  0  0  0  0  0  0  0  0  0
    0.2950    1.4480   -0.3190 C   0  0  0  0  0  0  0  0  0  0  0  0
   -0.6940    2.0570    0.2050 O   0  0  0  0  0  0  0  0  0  0  0  0
    2.8540    3.0740    2.2670 C   0  0  0  0  0  0  0  0  0  0  0  0
    2.6380    3.2690    3.6090 C   0  0  0  0  0  0  0  0  0  0  0  0
    1.4070    3.3920    6.1350 H   0  0  0  0  0  0  0  0  0  0  0  0
    1.1570    0.3660    4.3890 H   0  0  0  0  0  0  0  0  0  0  0  0
    1.5210   -0.0110    2.0360 H   0  0  0  0  0  0  0  0  0  0  0  0
    3.6170    2.2020   -0.0100 H   0  0  0  0  0  0  0  0  0  0  0  0
    2.8950    0.5860    0.0440 H   0  0  0  0  0  0  0  0  0  0  0  0
    1.8280    2.0330   -1.6810 H   0  0  0  0  0  0  0  0  0  0  0  0
    0.5550    3.9860   -0.7220 H   0  0  0  0  0  0  0  0  0  0  0  0
    2.2820    4.1080   -0.6100 H   0  0  0  0  0  0  0  0  0  0  0  0
    3.3350    3.8500    1.6840 H   0  0  0  0  0  0  0  0  0  0  0  0
    2.9410    4.1980    4.1130 H   0  0  0  0  0  0  0  0  0  0  0  0
    0.0850    0.0750   -0.5950 N   0  0  0  0  0  0  0  0  0  0  0  0
   -1.1360   -0.6200   -0.3320 C   0  0  1  0  0  0  0  0  0  0  0  0
   -1.9010   -0.8590   -1.6010 C   0  0  0  0  0  0  0  0  0  0  0  0
   -1.2120   -1.6410   -2.6310 C   0  0  0  0  0  0  0  0  0  0  0  0
   -1.3920   -2.9900   -2.8760 C   0  0  0  0  0  0  0  0  0  0  0  0
   -0.5840   -3.3720   -3.8740 N   0  0  0  0  0  0  0  0  0  0  0  0
    0.1390   -2.3410   -4.3200 C   0  0  0  0  0  0  0  0  0  0  0  0
    1.0850   -2.2440   -5.3220 C   0  0  0  0  0  0  0  0  0  0  0  0
    1.6640   -1.0210   -5.5620 C   0  0  0  0  0  0  0  0  0  0  0  0
    1.2990    0.0700   -4.8140 C   0  0  0  0  0  0  0  0  0  0  0  0
    0.3520   -0.0400   -3.8150 C   0  0  0  0  0  0  0  0  0  0  0  0
   -0.2530   -1.2460   -3.5400 C   0  0  0  0  0  0  0  0  0  0  0  0
   -1.0370   -1.7670    0.5690 C   0  0  0  0  0  0  0  0  0  0  0  0
    0.0830   -2.0930    1.0660 O   0  0  0  0  0  0  0  0  0  0  0  0
    0.8960   -0.4680   -1.0220 H   0  0  0  0  0  0  0  0  0  0  0  0
   -1.7830    0.1420    0.2310 H   0  0  0  0  0  0  0  0  0  0  0  0
   -2.8800   -1.3650   -1.3540 H   0  0  0  0  0  0  0  0  0  0  0  0
   -2.2250    0.1540   -1.9800 H   0  0  0  0  0  0  0  0  0  0  0  0
   -2.0760   -3.6160   -2.3450 H   0  0  0  0  0  0  0  0  0  0  0  0
   -0.5300   -4.3430   -4.2480 H   0  0  0  0  0  0  0  0  0  0  0  0
    1.3930   -3.0800   -5.9260 H   0  0  0  0  0  0  0  0  0  0  0  0
    2.4140   -0.8600   -6.3290 H   0  0  0  0  0  0  0  0  0  0  0  0
    1.7280    1.0650   -4.9650 H   0  0  0  0  0  0  0  0  0  0  0  0
    0.0520    0.8190   -3.2270 H   0  0  0  0  0  0  0  0  0  0  0  0
   -2.1290   -2.5890    0.9600 N   0  0  0  0  0  0  0  0  0  0  0  0
   -1.9520   -3.7120    1.8780 C   0  0  1  0  0  0  0  0  0  0  0  0
   -2.8710   -3.5480    3.0670 C   0  0  0  0  0  0  0  0  0  0  0  0
   -2.6010   -2.3000    3.7980 C   0  0  0  0  0  0  0  0  0  0  0  0
   -3.3050   -1.9120    4.9250 C   0  0  0  0  0  0  0  0  0  0  0  0
   -2.7830   -0.7360    5.3030 N   0  0  0  0  0  0  0  0  0  0  0  0
   -1.7940   -0.3800    4.4670 C   0  0  0  0  0  0  0  0  0  0  0  0
   -1.6940   -1.3490    3.5490 N   0  0  0  0  0  0  0  0  0  0  0  0
   -2.1350   -5.0150    1.2190 C   0  0  0  0  0  0  0  0  0  0  0  0
   -1.9960   -6.0600    1.8920 O   0  0  0  0  0  0  0  0  0  0  0  0
   -2.4550   -5.1230   -0.1160 O   0  0  0  0  0  0  0  0  0  0  0  0
   -3.0650   -2.3580    0.5650 H   0  0  0  0  0  0  0  0  0  0  0  0
   -0.9090   -3.6680    2.2530 H   0  0  0  0  0  0  0  0  0  0  0  0
   -3.9450   -3.6010    2.7650 H   0  0  0  0  0  0  0  0  0  0  0  0
   -2.6470   -4.3930    3.7770 H   0  0  0  0  0  0  0  0  0  0  0  0
   -4.1260   -2.4530    5.4170 H   0  0  0  0  0  0  0  0  0  0  0  0
   -3.0980   -0.1610    6.1400 H   0  0  0  0  0  0  0  0  0  0  0  0
   -1.2160    0.5510    4.5740 H   0  0  0  0  0  0  0  0  0  0  0  0
  1 13  1  0  0  0  0
  2  1  1  0  0  0  0
  3 14  1  0  0  0  0
  3  2  1  0  0  0  0
  4  3  2  0  0  0  0
  5 11  2  0  0  0  0
  5  4  1  0  0  0  0
  6  5  1  0  0  0  0
  7 18  1  6  0  0  0
  7  8  1  0  0  0  0
  7  9  1  0  0  0  0
  7  6  1  0  0  0  0
  9 10  2  0  0  0  0
 11 12  1  0  0  0  0
 12 22  1  0  0  0  0
 12  2  2  0  0  0  0
 15  4  1  0  0  0  0
 16  6  1  0  0  0  0
 17  6  1  0  0  0  0
 19  8  1  0  0  0  0
 20  8  1  0  0  0  0
 21 11  1  0  0  0  0
 23 24  1  0  0  0  0
 23  9  1  0  0  0  0
 24 38  1  1  0  0  0
 24 35  1  0  0  0  0
 25 39  1  0  0  0  0
 25 24  1  0  0  0  0
 26 25  1  0  0  0  0
 27 26  2  0  0  0  0
 27 41  1  0  0  0  0
 28 27  1  0  0  0  0
 29 28  1  0  0  0  0
 29 34  1  0  0  0  0
 30 29  2  0  0  0  0
 31 30  1  0  0  0  0
 31 32  2  0  0  0  0
 32 33  1  0  0  0  0
 33 34  2  0  0  0  0
 33 46  1  0  0  0  0
 34 26  1  0  0  0  0
 35 47  1  0  0  0  0
 35 36  2  0  0  0  0
 37 23  1  0  0  0  0
 40 25  1  0  0  0  0
 42 28  1  0  0  0  0
 43 30  1  0  0  0  0
 44 31  1  0  0  0  0
 45 32  1  0  0  0  0
 47 48  1  0  0  0  0
 48 59  1  1  0  0  0
 48 49  1  0  0  0  0
 49 61  1  0  0  0  0
 49 50  1  0  0  0  0
 50 51  2  0  0  0  0
 51 52  1  0  0  0  0
 51 62  1  0  0  0  0
 52 63  1  0  0  0  0
 53 64  1  0  0  0  0
 53 52  1  0  0  0  0
 54 50  1  0  0  0  0
 54 53  2  0  0  0  0
 55 48  1  0  0  0  0
 55 56  1  0  0  0  0
 57 55  2  0  0  0  0
 58 47  1  0  0  0  0
 60 49  1  0  0  0  0
M  END
$$$$
