YWR.pdb
 OpenBabel07022419233D

 70 72  0  0  1  0  0  0  0  0999 V2000
    5.9580   -5.7910    1.6830 O   0  0  0  0  0  0  0  0  0  0  0  0
    5.9010   -4.5410    1.0970 C   0  0  0  0  0  0  0  0  0  0  0  0
    5.2480   -4.2650   -0.0830 C   0  0  0  0  0  0  0  0  0  0  0  0
    5.2320   -2.9970   -0.6120 C   0  0  0  0  0  0  0  0  0  0  0  0
    5.8650   -1.9540    0.0130 C   0  0  0  0  0  0  0  0  0  0  0  0
    5.8180   -0.6200   -0.6040 C   0  0  0  0  0  0  0  0  0  0  0  0
    4.6780    0.2250   -0.1540 C   0  0  2  0  0  0  0  0  0  0  0  0
    4.6780    0.4740    1.2680 N   0  0  0  0  0  0  0  0  0  0  0  0
    3.3370   -0.2890   -0.5550 C   0  0  0  0  0  0  0  0  0  0  0  0
    3.0920   -0.6250   -1.7560 O   0  0  0  0  0  0  0  0  0  0  0  0
    6.5280   -2.1960    1.1970 C   0  0  0  0  0  0  0  0  0  0  0  0
    6.5430   -3.4660    1.7240 C   0  0  0  0  0  0  0  0  0  0  0  0
    5.1690   -6.2220    2.1630 H   0  0  0  0  0  0  0  0  0  0  0  0
    4.7370   -5.0810   -0.5960 H   0  0  0  0  0  0  0  0  0  0  0  0
    4.6870   -2.8720   -1.5560 H   0  0  0  0  0  0  0  0  0  0  0  0
    5.7820   -0.6740   -1.7330 H   0  0  0  0  0  0  0  0  0  0  0  0
    6.7810   -0.1160   -0.3660 H   0  0  0  0  0  0  0  0  0  0  0  0
    4.7630    1.2380   -0.6340 H   0  0  0  0  0  0  0  0  0  0  0  0
    5.6090    0.8240    1.5640 H   0  0  0  0  0  0  0  0  0  0  0  0
    3.9870    1.2400    1.4340 H   0  0  0  0  0  0  0  0  0  0  0  0
    7.0490   -1.3830    1.7340 H   0  0  0  0  0  0  0  0  0  0  0  0
    7.0700   -3.6790    2.6690 H   0  0  0  0  0  0  0  0  0  0  0  0
    2.2910   -0.4180    0.3810 N   0  0  0  0  0  0  0  0  0  0  0  0
    0.9410   -0.9210    0.0290 C   0  0  1  0  0  0  0  0  0  0  0  0
    0.8010   -2.1660    0.8020 C   0  0  0  0  0  0  0  0  0  0  0  0
   -0.4210   -2.9380    0.7530 C   0  0  0  0  0  0  0  0  0  0  0  0
   -0.7400   -4.0260   -0.0420 C   0  0  0  0  0  0  0  0  0  0  0  0
   -1.9910   -4.4210    0.2400 N   0  0  0  0  0  0  0  0  0  0  0  0
   -2.4910   -3.6130    1.2010 C   0  0  0  0  0  0  0  0  0  0  0  0
   -3.7160   -3.6040    1.8520 C   0  0  0  0  0  0  0  0  0  0  0  0
   -4.0030   -2.6820    2.8320 C   0  0  0  0  0  0  0  0  0  0  0  0
   -3.0500   -1.7580    3.1650 C   0  0  0  0  0  0  0  0  0  0  0  0
   -1.8190   -1.7660    2.5110 C   0  0  0  0  0  0  0  0  0  0  0  0
   -1.5270   -2.6840    1.5310 C   0  0  0  0  0  0  0  0  0  0  0  0
    0.0020    0.1630    0.2110 C   0  0  0  0  0  0  0  0  0  0  0  0
    0.4070    1.2390    0.7880 O   0  0  0  0  0  0  0  0  0  0  0  0
    2.4590   -0.1530    1.3770 H   0  0  0  0  0  0  0  0  0  0  0  0
    1.0420   -1.1510   -1.0730 H   0  0  0  0  0  0  0  0  0  0  0  0
    1.0870   -1.9570    1.8670 H   0  0  0  0  0  0  0  0  0  0  0  0
    1.6310   -2.8530    0.4520 H   0  0  0  0  0  0  0  0  0  0  0  0
   -0.0930   -4.4880   -0.7730 H   0  0  0  0  0  0  0  0  0  0  0  0
   -2.5380   -5.2160   -0.1790 H   0  0  0  0  0  0  0  0  0  0  0  0
   -4.4870   -4.3360    1.5970 H   0  0  0  0  0  0  0  0  0  0  0  0
   -4.9880   -2.7200    3.3150 H   0  0  0  0  0  0  0  0  0  0  0  0
   -3.2710   -1.0220    3.9440 H   0  0  0  0  0  0  0  0  0  0  0  0
   -1.1090   -1.0100    2.8140 H   0  0  0  0  0  0  0  0  0  0  0  0
   -7.7570    1.7520   -1.3820 N   0  0  0  0  0  0  0  0  0  0  0  0
   -6.8170    2.7930   -1.1640 C   0  0  0  0  0  0  0  0  0  0  0  0
   -7.2200    3.8890   -0.5930 N   0  0  0  0  0  0  0  0  0  0  0  0
   -5.4630    2.6190   -1.5640 N   0  0  0  0  0  0  0  0  0  0  0  0
   -4.4530    3.4890   -1.0150 C   0  0  0  0  0  0  0  0  0  0  0  0
   -3.0710    3.2650   -1.4460 C   0  0  0  0  0  0  0  0  0  0  0  0
   -2.3700    1.9980   -1.3060 C   0  0  0  0  0  0  0  0  0  0  0  0
   -2.2000    1.4190    0.0710 C   0  0  2  0  0  0  0  0  0  0  0  0
   -1.3610    0.2010   -0.1840 N   0  0  0  0  0  0  0  0  0  0  0  0
   -3.5000    0.9330    0.5820 C   0  0  0  0  0  0  0  0  0  0  0  0
   -4.3630    1.5850    1.1830 O   0  0  0  0  0  0  0  0  0  0  0  0
   -3.8010   -0.4330    0.3600 O   0  0  0  0  0  0  0  0  0  0  0  0
   -7.5620    0.7350   -1.2870 H   0  0  0  0  0  0  0  0  0  0  0  0
   -8.7230    2.0160   -1.6600 H   0  0  0  0  0  0  0  0  0  0  0  0
   -8.1990    4.0240   -0.2940 H   0  0  0  0  0  0  0  0  0  0  0  0
   -5.2270    1.8740   -2.2390 H   0  0  0  0  0  0  0  0  0  0  0  0
   -4.6310    3.7540    0.0400 H   0  0  0  0  0  0  0  0  0  0  0  0
   -4.7490    4.5260   -1.5330 H   0  0  0  0  0  0  0  0  0  0  0  0
   -3.0110    3.6390   -2.5480 H   0  0  0  0  0  0  0  0  0  0  0  0
   -2.4440    4.0940   -0.9370 H   0  0  0  0  0  0  0  0  0  0  0  0
   -2.8440    1.1660   -1.9330 H   0  0  0  0  0  0  0  0  0  0  0  0
   -1.3280    2.0400   -1.8110 H   0  0  0  0  0  0  0  0  0  0  0  0
   -1.6760    2.1420    0.6950 H   0  0  0  0  0  0  0  0  0  0  0  0
   -1.7620   -0.6180   -0.6470 H   0  0  0  0  0  0  0  0  0  0  0  0
  1 13  1  0  0  0  0
  2  1  1  0  0  0  0
  2 12  1  0  0  0  0
  3  2  2  0  0  0  0
  4  3  1  0  0  0  0
  4  5  2  0  0  0  0
  5 11  1  0  0  0  0
  6 17  1  0  0  0  0
  6  7  1  0  0  0  0
  6  5  1  0  0  0  0
  7 18  1  6  0  0  0
  7  8  1  0  0  0  0
  8 20  1  0  0  0  0
  8 19  1  0  0  0  0
  9  7  1  0  0  0  0
  9 23  1  0  0  0  0
 10  9  2  0  0  0  0
 11 12  2  0  0  0  0
 11 21  1  0  0  0  0
 12 22  1  0  0  0  0
 14  3  1  0  0  0  0
 15  4  1  0  0  0  0
 16  6  1  0  0  0  0
 23 37  1  0  0  0  0
 24 38  1  6  0  0  0
 24 35  1  0  0  0  0
 24 23  1  0  0  0  0
 24 25  1  0  0  0  0
 25 39  1  0  0  0  0
 26 25  1  0  0  0  0
 26 34  1  0  0  0  0
 27 28  1  0  0  0  0
 27 26  2  0  0  0  0
 28 29  1  0  0  0  0
 29 34  2  0  0  0  0
 29 30  1  0  0  0  0
 30 31  2  0  0  0  0
 31 32  1  0  0  0  0
 31 44  1  0  0  0  0
 32 45  1  0  0  0  0
 33 46  1  0  0  0  0
 33 32  2  0  0  0  0
 34 33  1  0  0  0  0
 35 36  2  0  0  0  0
 40 25  1  0  0  0  0
 41 27  1  0  0  0  0
 42 28  1  0  0  0  0
 43 30  1  0  0  0  0
 47 59  1  0  0  0  0
 47 48  1  0  0  0  0
 48 49  2  0  0  0  0
 49 61  1  0  0  0  0
 50 48  1  0  0  0  0
 50 51  1  0  0  0  0
 51 63  1  0  0  0  0
 52 53  1  0  0  0  0
 52 51  1  0  0  0  0
 52 66  1  0  0  0  0
 53 54  1  0  0  0  0
 54 56  1  0  0  0  0
 54 69  1  1  0  0  0
 55 54  1  0  0  0  0
 55 35  1  0  0  0  0
 56 57  1  0  0  0  0
 58 56  2  0  0  0  0
 60 47  1  0  0  0  0
 62 50  1  0  0  0  0
 64 51  1  0  0  0  0
 65 52  1  0  0  0  0
 67 53  1  0  0  0  0
 68 53  1  0  0  0  0
 70 55  1  0  0  0  0
M  END
$$$$
