YWS.pdb
 OpenBabel07022419233D

 58 60  0  0  1  0  0  0  0  0999 V2000
   -0.0100   -0.0720    6.3440 O   0  0  0  0  0  0  0  0  0  0  0  0
    0.8540   -0.3430    5.2990 C   0  0  0  0  0  0  0  0  0  0  0  0
    1.4970   -1.5560    5.1330 C   0  0  0  0  0  0  0  0  0  0  0  0
    2.3410   -1.7870    4.0920 C   0  0  0  0  0  0  0  0  0  0  0  0
    2.5860   -0.8160    3.1610 C   0  0  0  0  0  0  0  0  0  0  0  0
    3.5070   -0.9830    2.0380 C   0  0  0  0  0  0  0  0  0  0  0  0
    2.9740   -1.5610    0.7800 C   0  0  2  0  0  0  0  0  0  0  0  0
    4.1470   -1.5880   -0.1390 N   0  0  0  0  0  0  0  0  0  0  0  0
    1.9620   -0.7250    0.0770 C   0  0  0  0  0  0  0  0  0  0  0  0
    2.3330    0.0980   -0.7950 O   0  0  0  0  0  0  0  0  0  0  0  0
    1.9450    0.4080    3.3160 C   0  0  0  0  0  0  0  0  0  0  0  0
    1.0930    0.6540    4.3600 C   0  0  0  0  0  0  0  0  0  0  0  0
   -0.8240   -0.6480    6.4660 H   0  0  0  0  0  0  0  0  0  0  0  0
    1.2670   -2.3050    5.9080 H   0  0  0  0  0  0  0  0  0  0  0  0
    2.8190   -2.7390    3.9980 H   0  0  0  0  0  0  0  0  0  0  0  0
    4.3070   -1.6990    2.3940 H   0  0  0  0  0  0  0  0  0  0  0  0
    4.0590   -0.0350    1.8680 H   0  0  0  0  0  0  0  0  0  0  0  0
    2.6950   -2.6000    0.9240 H   0  0  0  0  0  0  0  0  0  0  0  0
    5.0100   -1.8030    0.4100 H   0  0  0  0  0  0  0  0  0  0  0  0
    4.2360   -0.6270   -0.5800 H   0  0  0  0  0  0  0  0  0  0  0  0
    2.1160    1.2180    2.5850 H   0  0  0  0  0  0  0  0  0  0  0  0
    0.6200    1.6280    4.4320 H   0  0  0  0  0  0  0  0  0  0  0  0
    0.5760   -0.8220    0.3460 N   0  0  0  0  0  0  0  0  0  0  0  0
   -0.5160   -0.1350   -0.2490 C   0  0  1  0  0  0  0  0  0  0  0  0
   -1.5500    0.4240    0.6740 C   0  0  0  0  0  0  0  0  0  0  0  0
   -2.2410   -0.6020    1.4950 C   0  0  0  0  0  0  0  0  0  0  0  0
   -2.0810   -0.9320    2.8170 C   0  0  0  0  0  0  0  0  0  0  0  0
   -2.9210   -1.9310    3.1420 N   0  0  0  0  0  0  0  0  0  0  0  0
   -3.6600   -2.2960    2.0630 C   0  0  0  0  0  0  0  0  0  0  0  0
   -4.6440   -3.2510    1.8780 C   0  0  0  0  0  0  0  0  0  0  0  0
   -5.1970   -3.3510    0.6210 C   0  0  0  0  0  0  0  0  0  0  0  0
   -4.7890   -2.5360   -0.4110 C   0  0  0  0  0  0  0  0  0  0  0  0
   -3.8050   -1.5870   -0.2140 C   0  0  0  0  0  0  0  0  0  0  0  0
   -3.2400   -1.4720    1.0380 C   0  0  0  0  0  0  0  0  0  0  0  0
   -0.3240    0.5880   -1.5090 C   0  0  0  0  0  0  0  0  0  0  0  0
   -0.8610    1.7370   -1.7130 O   0  0  0  0  0  0  0  0  0  0  0  0
    0.3290   -1.5200    1.1100 H   0  0  0  0  0  0  0  0  0  0  0  0
   -1.1190   -1.1070   -0.6830 H   0  0  0  0  0  0  0  0  0  0  0  0
   -1.1350    1.2000    1.3600 H   0  0  0  0  0  0  0  0  0  0  0  0
   -2.3520    0.9720    0.1060 H   0  0  0  0  0  0  0  0  0  0  0  0
   -1.3950   -0.4690    3.4990 H   0  0  0  0  0  0  0  0  0  0  0  0
   -3.0430   -2.4080    4.0700 H   0  0  0  0  0  0  0  0  0  0  0  0
   -4.9310   -3.8660    2.7160 H   0  0  0  0  0  0  0  0  0  0  0  0
   -5.9780   -4.0880    0.4200 H   0  0  0  0  0  0  0  0  0  0  0  0
   -5.2230   -2.6090   -1.4130 H   0  0  0  0  0  0  0  0  0  0  0  0
   -3.4670   -0.9300   -1.0060 H   0  0  0  0  0  0  0  0  0  0  0  0
    2.3720    1.8470   -5.1070 O   0  0  0  0  0  0  0  0  0  0  0  0
    2.0910    1.1110   -3.9650 C   0  0  0  0  0  0  0  0  0  0  0  0
    0.6060    0.8460   -3.8040 C   0  0  2  0  0  0  0  0  0  0  0  0
    0.4420    0.0720   -2.5790 N   0  0  0  0  0  0  0  0  0  0  0  0
    0.0920    0.0790   -4.9780 C   0  0  0  0  0  0  0  0  0  0  0  0
    0.1310    0.5550   -6.1380 O   0  0  0  0  0  0  0  0  0  0  0  0
   -0.4400   -1.1820   -4.7940 O   0  0  0  0  0  0  0  0  0  0  0  0
    2.4540    1.2620   -5.9120 H   0  0  0  0  0  0  0  0  0  0  0  0
    2.6540    0.1480   -4.0530 H   0  0  0  0  0  0  0  0  0  0  0  0
    2.4830    1.6800   -3.1020 H   0  0  0  0  0  0  0  0  0  0  0  0
    0.0920    1.8100   -3.7780 H   0  0  0  0  0  0  0  0  0  0  0  0
    0.8840   -0.8830   -2.5690 H   0  0  0  0  0  0  0  0  0  0  0  0
  1 13  1  0  0  0  0
  2  1  1  0  0  0  0
  3  2  1  0  0  0  0
  3 14  1  0  0  0  0
  4  3  2  0  0  0  0
  5 11  2  0  0  0  0
  5  4  1  0  0  0  0
  6 16  1  0  0  0  0
  6  5  1  0  0  0  0
  7 18  1  1  0  0  0
  7  6  1  0  0  0  0
  8 19  1  0  0  0  0
  8  7  1  0  0  0  0
  9 23  1  0  0  0  0
  9  7  1  0  0  0  0
 10  9  2  0  0  0  0
 11 12  1  0  0  0  0
 12 22  1  0  0  0  0
 12  2  2  0  0  0  0
 15  4  1  0  0  0  0
 17  6  1  0  0  0  0
 20  8  1  0  0  0  0
 21 11  1  0  0  0  0
 23 37  1  0  0  0  0
 24 38  1  6  0  0  0
 24 23  1  0  0  0  0
 24 25  1  0  0  0  0
 25 39  1  0  0  0  0
 25 26  1  0  0  0  0
 26 27  2  0  0  0  0
 27 28  1  0  0  0  0
 27 41  1  0  0  0  0
 28 42  1  0  0  0  0
 29 28  1  0  0  0  0
 30 29  1  0  0  0  0
 30 43  1  0  0  0  0
 31 30  2  0  0  0  0
 32 33  2  0  0  0  0
 32 31  1  0  0  0  0
 33 34  1  0  0  0  0
 34 26  1  0  0  0  0
 34 29  2  0  0  0  0
 35 24  1  0  0  0  0
 36 35  2  0  0  0  0
 40 25  1  0  0  0  0
 44 31  1  0  0  0  0
 45 32  1  0  0  0  0
 46 33  1  0  0  0  0
 47 48  1  0  0  0  0
 48 49  1  0  0  0  0
 48 56  1  0  0  0  0
 49 57  1  1  0  0  0
 49 50  1  0  0  0  0
 50 58  1  0  0  0  0
 50 35  1  0  0  0  0
 51 53  1  0  0  0  0
 51 49  1  0  0  0  0
 52 51  2  0  0  0  0
 54 47  1  0  0  0  0
 55 48  1  0  0  0  0
M  END
$$$$
