YWT.pdb
 OpenBabel07022419233D

 61 63  0  0  1  0  0  0  0  0999 V2000
    3.4800    4.3830    3.7850 O   0  0  0  0  0  0  0  0  0  0  0  0
    3.4290    3.7870    2.5220 C   0  0  0  0  0  0  0  0  0  0  0  0
    4.5940    3.3010    1.9940 C   0  0  0  0  0  0  0  0  0  0  0  0
    4.5690    2.7080    0.7490 C   0  0  0  0  0  0  0  0  0  0  0  0
    3.3760    2.6180    0.0600 C   0  0  0  0  0  0  0  0  0  0  0  0
    3.4040    2.0010   -1.2770 C   0  0  0  0  0  0  0  0  0  0  0  0
    3.2440    0.5120   -1.1600 C   0  0  2  0  0  0  0  0  0  0  0  0
    3.2700   -0.1110   -2.4840 N   0  0  0  0  0  0  0  0  0  0  0  0
    2.0200    0.1230   -0.4220 C   0  0  0  0  0  0  0  0  0  0  0  0
    1.8210    0.4360    0.7540 O   0  0  0  0  0  0  0  0  0  0  0  0
    2.1900    3.1100    0.5900 C   0  0  0  0  0  0  0  0  0  0  0  0
    2.2410    3.6920    1.8260 C   0  0  0  0  0  0  0  0  0  0  0  0
    3.4680    3.8480    4.6360 H   0  0  0  0  0  0  0  0  0  0  0  0
    5.5350    3.3640    2.5210 H   0  0  0  0  0  0  0  0  0  0  0  0
    5.5140    2.3330    0.3610 H   0  0  0  0  0  0  0  0  0  0  0  0
    4.3920    2.2000   -1.7570 H   0  0  0  0  0  0  0  0  0  0  0  0
    2.6190    2.4550   -1.9340 H   0  0  0  0  0  0  0  0  0  0  0  0
    4.1450    0.1170   -0.6370 H   0  0  0  0  0  0  0  0  0  0  0  0
    2.7220    0.5290   -3.1030 H   0  0  0  0  0  0  0  0  0  0  0  0
    4.2500   -0.1790   -2.8460 H   0  0  0  0  0  0  0  0  0  0  0  0
    1.2680    3.0310    0.0380 H   0  0  0  0  0  0  0  0  0  0  0  0
    1.3150    4.0750    2.2400 H   0  0  0  0  0  0  0  0  0  0  0  0
    1.0300   -0.6430   -1.0910 N   0  0  0  0  0  0  0  0  0  0  0  0
   -0.2160   -1.0840   -0.4620 C   0  0  1  0  0  0  0  0  0  0  0  0
   -1.3290   -0.4350   -1.2100 C   0  0  0  0  0  0  0  0  0  0  0  0
   -2.6860   -0.7240   -0.7600 C   0  0  0  0  0  0  0  0  0  0  0  0
   -3.5830   -1.5600   -1.3730 C   0  0  0  0  0  0  0  0  0  0  0  0
   -4.7050   -1.5400   -0.6470 N   0  0  0  0  0  0  0  0  0  0  0  0
   -4.5750   -0.7210    0.4170 C   0  0  0  0  0  0  0  0  0  0  0  0
   -5.3890   -0.3360    1.4560 C   0  0  0  0  0  0  0  0  0  0  0  0
   -4.9840    0.5490    2.4360 C   0  0  0  0  0  0  0  0  0  0  0  0
   -3.7120    1.0800    2.3890 C   0  0  0  0  0  0  0  0  0  0  0  0
   -2.8950    0.6950    1.3480 C   0  0  0  0  0  0  0  0  0  0  0  0
   -3.3050   -0.2030    0.3520 C   0  0  0  0  0  0  0  0  0  0  0  0
   -0.2660   -2.5490   -0.3720 C   0  0  0  0  0  0  0  0  0  0  0  0
    0.6580   -3.2580   -0.9120 O   0  0  0  0  0  0  0  0  0  0  0  0
    1.1840   -0.9080   -2.0710 H   0  0  0  0  0  0  0  0  0  0  0  0
   -0.1950   -0.6840    0.5720 H   0  0  0  0  0  0  0  0  0  0  0  0
   -1.1770    0.6790   -1.2280 H   0  0  0  0  0  0  0  0  0  0  0  0
   -1.2230   -0.7290   -2.2980 H   0  0  0  0  0  0  0  0  0  0  0  0
   -3.3870   -2.1300   -2.2920 H   0  0  0  0  0  0  0  0  0  0  0  0
   -5.5910   -2.0700   -0.8380 H   0  0  0  0  0  0  0  0  0  0  0  0
   -6.4000   -0.7580    1.4940 H   0  0  0  0  0  0  0  0  0  0  0  0
   -5.6330    0.8450    3.2480 H   0  0  0  0  0  0  0  0  0  0  0  0
   -3.3550    1.7760    3.1370 H   0  0  0  0  0  0  0  0  0  0  0  0
   -1.8800    1.0930    1.2760 H   0  0  0  0  0  0  0  0  0  0  0  0
    0.6390   -4.8610    1.9700 C   0  0  0  0  0  0  0  0  0  0  0  0
   -0.7780   -5.2550    1.6860 C   0  0  1  0  0  0  0  0  0  0  0  0
   -1.5970   -4.8650    2.7110 O   0  0  0  0  0  0  0  0  0  0  0  0
   -1.2260   -4.7590    0.3140 C   0  0  2  0  0  0  0  0  0  0  0  0
   -1.2750   -3.3090    0.2820 N   0  0  0  0  0  0  0  0  0  0  0  0
   -2.5460   -5.3350    0.0560 C   0  0  0  0  0  0  0  0  0  0  0  0
   -2.7040   -6.5840    0.0300 O   0  0  0  0  0  0  0  0  0  0  0  0
   -3.6390   -4.5340   -0.1620 O   0  0  0  0  0  0  0  0  0  0  0  0
    0.7070   -3.7460    2.0490 H   0  0  0  0  0  0  0  0  0  0  0  0
    1.3330   -5.2330    1.1610 H   0  0  0  0  0  0  0  0  0  0  0  0
    0.9740   -5.3420    2.9060 H   0  0  0  0  0  0  0  0  0  0  0  0
   -0.8340   -6.3770    1.6310 H   0  0  0  0  0  0  0  0  0  0  0  0
   -1.0460   -4.6230    3.5030 H   0  0  0  0  0  0  0  0  0  0  0  0
   -0.4170   -5.1170   -0.3780 H   0  0  0  0  0  0  0  0  0  0  0  0
   -2.0630   -2.8080    0.7490 H   0  0  0  0  0  0  0  0  0  0  0  0
  1 13  1  0  0  0  0
  2  1  1  0  0  0  0
  3 14  1  0  0  0  0
  3  2  1  0  0  0  0
  4  3  2  0  0  0  0
  5 11  2  0  0  0  0
  5  4  1  0  0  0  0
  6  7  1  0  0  0  0
  6  5  1  0  0  0  0
  7 18  1  1  0  0  0
  7  9  1  0  0  0  0
  8  7  1  0  0  0  0
  9 10  2  0  0  0  0
 11 12  1  0  0  0  0
 12 22  1  0  0  0  0
 12  2  2  0  0  0  0
 15  4  1  0  0  0  0
 16  6  1  0  0  0  0
 17  6  1  0  0  0  0
 19  8  1  0  0  0  0
 20  8  1  0  0  0  0
 21 11  1  0  0  0  0
 23 24  1  0  0  0  0
 23  9  1  0  0  0  0
 24 35  1  0  0  0  0
 24 38  1  1  0  0  0
 25 26  1  0  0  0  0
 25 24  1  0  0  0  0
 26 34  1  0  0  0  0
 27 26  2  0  0  0  0
 27 28  1  0  0  0  0
 28 29  1  0  0  0  0
 29 30  1  0  0  0  0
 30 43  1  0  0  0  0
 30 31  2  0  0  0  0
 31 44  1  0  0  0  0
 32 31  1  0  0  0  0
 32 45  1  0  0  0  0
 33 32  2  0  0  0  0
 34 29  2  0  0  0  0
 34 33  1  0  0  0  0
 35 51  1  0  0  0  0
 36 35  2  0  0  0  0
 37 23  1  0  0  0  0
 39 25  1  0  0  0  0
 40 25  1  0  0  0  0
 41 27  1  0  0  0  0
 42 28  1  0  0  0  0
 46 33  1  0  0  0  0
 47 55  1  0  0  0  0
 47 57  1  0  0  0  0
 48 58  1  6  0  0  0
 48 47  1  0  0  0  0
 48 49  1  0  0  0  0
 49 59  1  0  0  0  0
 50 60  1  6  0  0  0
 50 48  1  0  0  0  0
 51 50  1  0  0  0  0
 51 61  1  0  0  0  0
 52 50  1  0  0  0  0
 53 52  1  0  0  0  0
 54 52  2  0  0  0  0
 56 47  1  0  0  0  0
M  END
$$$$
