YWW.pdb
 OpenBabel07022419233D

 71 75  0  0  1  0  0  0  0  0999 V2000
    5.6280   -1.9060    3.9070 O   0  0  0  0  0  0  0  0  0  0  0  0
    4.9310   -1.9030    2.7130 C   0  0  0  0  0  0  0  0  0  0  0  0
    5.1260   -2.8990    1.7820 C   0  0  0  0  0  0  0  0  0  0  0  0
    4.4670   -2.9490    0.5870 C   0  0  0  0  0  0  0  0  0  0  0  0
    3.5380   -1.9540    0.2580 C   0  0  0  0  0  0  0  0  0  0  0  0
    2.8160   -1.9450   -1.0080 C   0  0  0  0  0  0  0  0  0  0  0  0
    1.5240   -2.7170   -1.0290 C   0  0  2  0  0  0  0  0  0  0  0  0
    0.9940   -2.5880   -2.3630 N   0  0  0  0  0  0  0  0  0  0  0  0
    0.5240   -2.2090   -0.0630 C   0  0  0  0  0  0  0  0  0  0  0  0
    0.7870   -2.1600    1.1880 O   0  0  0  0  0  0  0  0  0  0  0  0
    3.3210   -0.9450    1.1710 C   0  0  0  0  0  0  0  0  0  0  0  0
    4.0100   -0.9240    2.3800 C   0  0  0  0  0  0  0  0  0  0  0  0
    5.7100   -1.0630    4.4390 H   0  0  0  0  0  0  0  0  0  0  0  0
    5.8400   -3.7020    1.9850 H   0  0  0  0  0  0  0  0  0  0  0  0
    4.6420   -3.7420   -0.1230 H   0  0  0  0  0  0  0  0  0  0  0  0
    2.5590   -0.9080   -1.3560 H   0  0  0  0  0  0  0  0  0  0  0  0
    3.4910   -2.3490   -1.7900 H   0  0  0  0  0  0  0  0  0  0  0  0
    1.7010   -3.8160   -0.8880 H   0  0  0  0  0  0  0  0  0  0  0  0
    0.2050   -3.2050   -2.5450 H   0  0  0  0  0  0  0  0  0  0  0  0
    0.8160   -1.5960   -2.5830 H   0  0  0  0  0  0  0  0  0  0  0  0
    2.6280   -0.1350    1.0050 H   0  0  0  0  0  0  0  0  0  0  0  0
    3.8670   -0.1500    3.1140 H   0  0  0  0  0  0  0  0  0  0  0  0
   -0.7460   -1.7710   -0.5300 N   0  0  0  0  0  0  0  0  0  0  0  0
   -1.7700   -1.2650    0.3050 C   0  0  1  0  0  0  0  0  0  0  0  0
   -2.5190   -2.2220    1.1620 C   0  0  0  0  0  0  0  0  0  0  0  0
   -3.2600   -3.2790    0.4850 C   0  0  0  0  0  0  0  0  0  0  0  0
   -4.6210   -3.1900    0.2050 C   0  0  0  0  0  0  0  0  0  0  0  0
   -4.9580   -4.3070   -0.4450 N   0  0  0  0  0  0  0  0  0  0  0  0
   -3.8940   -5.1100   -0.5990 C   0  0  0  0  0  0  0  0  0  0  0  0
   -3.7790   -6.3710   -1.2060 C   0  0  0  0  0  0  0  0  0  0  0  0
   -2.5660   -7.0140   -1.2320 C   0  0  0  0  0  0  0  0  0  0  0  0
   -1.5040   -6.3660   -0.6450 C   0  0  0  0  0  0  0  0  0  0  0  0
   -1.5970   -5.1290   -0.0460 C   0  0  0  0  0  0  0  0  0  0  0  0
   -2.8260   -4.4720   -0.0170 C   0  0  0  0  0  0  0  0  0  0  0  0
   -1.4800   -0.0270    1.0480 C   0  0  0  0  0  0  0  0  0  0  0  0
   -2.3630    0.3790    1.8500 O   0  0  0  0  0  0  0  0  0  0  0  0
   -0.8960   -1.8470   -1.5850 H   0  0  0  0  0  0  0  0  0  0  0  0
   -2.5910   -0.8890   -0.4430 H   0  0  0  0  0  0  0  0  0  0  0  0
   -3.2120   -1.6470    1.8440 H   0  0  0  0  0  0  0  0  0  0  0  0
   -1.7760   -2.6710    1.8880 H   0  0  0  0  0  0  0  0  0  0  0  0
   -5.2850   -2.3680    0.4650 H   0  0  0  0  0  0  0  0  0  0  0  0
   -5.9250   -4.5630   -0.8080 H   0  0  0  0  0  0  0  0  0  0  0  0
   -4.6490   -6.8330   -1.6520 H   0  0  0  0  0  0  0  0  0  0  0  0
   -2.4770   -7.9870   -1.7000 H   0  0  0  0  0  0  0  0  0  0  0  0
   -0.5380   -6.8850   -0.6690 H   0  0  0  0  0  0  0  0  0  0  0  0
   -0.7750   -4.6370    0.4180 H   0  0  0  0  0  0  0  0  0  0  0  0
   -0.2840    0.6950    0.8930 N   0  0  0  0  0  0  0  0  0  0  0  0
    0.0730    1.9090    1.5590 C   0  0  1  0  0  0  0  0  0  0  0  0
   -1.0970    2.8590    1.7970 C   0  0  0  0  0  0  0  0  0  0  0  0
   -1.6870    3.2720    0.5010 C   0  0  0  0  0  0  0  0  0  0  0  0
   -2.8300    2.8810   -0.1530 C   0  0  0  0  0  0  0  0  0  0  0  0
   -2.9410    3.5540   -1.3370 N   0  0  0  0  0  0  0  0  0  0  0  0
   -1.8960    4.3730   -1.4630 C   0  0  0  0  0  0  0  0  0  0  0  0
   -1.5220    5.2780   -2.4640 C   0  0  0  0  0  0  0  0  0  0  0  0
   -0.3720    6.0130   -2.3310 C   0  0  0  0  0  0  0  0  0  0  0  0
    0.4200    5.8690   -1.2210 C   0  0  0  0  0  0  0  0  0  0  0  0
    0.0560    4.9750   -0.2270 C   0  0  0  0  0  0  0  0  0  0  0  0
   -1.0980    4.2270   -0.3450 C   0  0  0  0  0  0  0  0  0  0  0  0
    0.8650    1.7660    2.7650 C   0  0  0  0  0  0  0  0  0  0  0  0
    1.2350    2.7930    3.3810 O   0  0  0  0  0  0  0  0  0  0  0  0
    1.2300    0.5280    3.2680 O   0  0  0  0  0  0  0  0  0  0  0  0
    0.4050    0.2810    0.1910 H   0  0  0  0  0  0  0  0  0  0  0  0
    0.6780    2.4970    0.7830 H   0  0  0  0  0  0  0  0  0  0  0  0
   -0.6150    3.7540    2.3050 H   0  0  0  0  0  0  0  0  0  0  0  0
   -1.8380    2.5020    2.4980 H   0  0  0  0  0  0  0  0  0  0  0  0
   -3.5360    2.1510    0.2220 H   0  0  0  0  0  0  0  0  0  0  0  0
   -3.7210    3.4300   -2.0120 H   0  0  0  0  0  0  0  0  0  0  0  0
   -2.1730    5.3610   -3.3210 H   0  0  0  0  0  0  0  0  0  0  0  0
   -0.0920    6.7090   -3.1090 H   0  0  0  0  0  0  0  0  0  0  0  0
    1.3470    6.4390   -1.0790 H   0  0  0  0  0  0  0  0  0  0  0  0
    0.6580    4.8460    0.6620 H   0  0  0  0  0  0  0  0  0  0  0  0
  1 13  1  0  0  0  0
  2  1  1  0  0  0  0
  3 14  1  0  0  0  0
  3  2  2  0  0  0  0
  4  3  1  0  0  0  0
  5  4  2  0  0  0  0
  5 11  1  0  0  0  0
  6  5  1  0  0  0  0
  7  6  1  0  0  0  0
  7 18  1  1  0  0  0
  7  9  1  0  0  0  0
  8  7  1  0  0  0  0
  9 10  2  0  0  0  0
 11 12  2  0  0  0  0
 12  2  1  0  0  0  0
 12 22  1  0  0  0  0
 15  4  1  0  0  0  0
 16  6  1  0  0  0  0
 17  6  1  0  0  0  0
 19  8  1  0  0  0  0
 20  8  1  0  0  0  0
 21 11  1  0  0  0  0
 23  9  1  0  0  0  0
 23 24  1  0  0  0  0
 24 38  1  6  0  0  0
 24 35  1  0  0  0  0
 24 25  1  0  0  0  0
 25 39  1  0  0  0  0
 25 40  1  0  0  0  0
 26 25  1  0  0  0  0
 27 41  1  0  0  0  0
 27 26  2  0  0  0  0
 28 27  1  0  0  0  0
 29 28  1  0  0  0  0
 29 34  1  0  0  0  0
 30 29  2  0  0  0  0
 31 30  1  0  0  0  0
 31 32  2  0  0  0  0
 32 33  1  0  0  0  0
 33 34  2  0  0  0  0
 33 46  1  0  0  0  0
 34 26  1  0  0  0  0
 35 36  2  0  0  0  0
 37 23  1  0  0  0  0
 42 28  1  0  0  0  0
 43 30  1  0  0  0  0
 44 31  1  0  0  0  0
 45 32  1  0  0  0  0
 47 35  1  0  0  0  0
 47 48  1  0  0  0  0
 48 63  1  6  0  0  0
 48 49  1  0  0  0  0
 48 59  1  0  0  0  0
 49 64  1  0  0  0  0
 49 65  1  0  0  0  0
 50 49  1  0  0  0  0
 51 66  1  0  0  0  0
 51 50  2  0  0  0  0
 52 51  1  0  0  0  0
 53 52  1  0  0  0  0
 53 58  1  0  0  0  0
 54 55  1  0  0  0  0
 54 53  2  0  0  0  0
 55 56  2  0  0  0  0
 56 70  1  0  0  0  0
 56 57  1  0  0  0  0
 57 71  1  0  0  0  0
 58 57  2  0  0  0  0
 58 50  1  0  0  0  0
 59 61  2  0  0  0  0
 59 60  1  0  0  0  0
 62 47  1  0  0  0  0
 67 52  1  0  0  0  0
 68 54  1  0  0  0  0
 69 55  1  0  0  0  0
M  END
$$$$
