YWY.pdb
 OpenBabel07022419233D

 68 71  0  0  1  0  0  0  0  0999 V2000
    6.8020   -4.6770   -0.9510 O   0  0  0  0  0  0  0  0  0  0  0  0
    6.2420   -3.4580   -0.5250 C   0  0  0  0  0  0  0  0  0  0  0  0
    6.6850   -2.9570    0.6880 C   0  0  0  0  0  0  0  0  0  0  0  0
    6.1630   -1.7570    1.1530 C   0  0  0  0  0  0  0  0  0  0  0  0
    5.2120   -1.0740    0.4110 C   0  0  0  0  0  0  0  0  0  0  0  0
    4.6360    0.1860    0.9600 C   0  0  0  0  0  0  0  0  0  0  0  0
    3.3900   -0.2240    1.7980 C   0  0  2  0  0  0  0  0  0  0  0  0
    3.8930   -1.1300    2.7880 N   0  0  0  0  0  0  0  0  0  0  0  0
    2.4080   -0.8850    0.8790 C   0  0  0  0  0  0  0  0  0  0  0  0
    2.5220   -2.0990    0.5690 O   0  0  0  0  0  0  0  0  0  0  0  0
    4.7930   -1.5860   -0.7820 C   0  0  0  0  0  0  0  0  0  0  0  0
    5.3020   -2.7930   -1.2740 C   0  0  0  0  0  0  0  0  0  0  0  0
    6.1980   -5.4890   -0.9330 H   0  0  0  0  0  0  0  0  0  0  0  0
    7.4320   -3.5090    1.2410 H   0  0  0  0  0  0  0  0  0  0  0  0
    6.5060   -1.3600    2.0870 H   0  0  0  0  0  0  0  0  0  0  0  0
    5.3820    0.6020    1.6590 H   0  0  0  0  0  0  0  0  0  0  0  0
    4.3810    0.8970    0.1790 H   0  0  0  0  0  0  0  0  0  0  0  0
    3.0200    0.6900    2.2680 H   0  0  0  0  0  0  0  0  0  0  0  0
    3.0900   -1.3980    3.4240 H   0  0  0  0  0  0  0  0  0  0  0  0
    4.5810   -0.6290    3.3800 H   0  0  0  0  0  0  0  0  0  0  0  0
    4.0560   -1.0920   -1.4230 H   0  0  0  0  0  0  0  0  0  0  0  0
    4.9930   -3.2340   -2.2080 H   0  0  0  0  0  0  0  0  0  0  0  0
    1.3490   -0.1310    0.3580 N   0  0  0  0  0  0  0  0  0  0  0  0
    0.3160   -0.5280   -0.5580 C   0  0  1  0  0  0  0  0  0  0  0  0
   -0.1830   -1.9570   -0.2660 C   0  0  0  0  0  0  0  0  0  0  0  0
   -1.2440   -2.4030   -1.1750 C   0  0  0  0  0  0  0  0  0  0  0  0
   -1.0000   -3.0460   -2.4070 C   0  0  0  0  0  0  0  0  0  0  0  0
   -2.1680   -3.2760   -3.0140 N   0  0  0  0  0  0  0  0  0  0  0  0
   -3.1760   -2.8200   -2.2470 C   0  0  0  0  0  0  0  0  0  0  0  0
   -4.5340   -2.8730   -2.4780 C   0  0  0  0  0  0  0  0  0  0  0  0
   -5.3900   -2.3660   -1.5360 C   0  0  0  0  0  0  0  0  0  0  0  0
   -4.8510   -1.8100   -0.3650 C   0  0  0  0  0  0  0  0  0  0  0  0
   -3.4840   -1.7760   -0.1740 C   0  0  0  0  0  0  0  0  0  0  0  0
   -2.5950   -2.2800   -1.1090 C   0  0  0  0  0  0  0  0  0  0  0  0
   -0.7710    0.4200   -0.7440 C   0  0  0  0  0  0  0  0  0  0  0  0
   -1.6370    0.3010   -1.6800 O   0  0  0  0  0  0  0  0  0  0  0  0
    1.3240    0.9040    0.6750 H   0  0  0  0  0  0  0  0  0  0  0  0
    0.9110   -0.7450   -1.5220 H   0  0  0  0  0  0  0  0  0  0  0  0
   -0.4490   -1.9640    0.8120 H   0  0  0  0  0  0  0  0  0  0  0  0
    0.6750   -2.6940   -0.3590 H   0  0  0  0  0  0  0  0  0  0  0  0
    0.0050   -3.2740   -2.7400 H   0  0  0  0  0  0  0  0  0  0  0  0
   -2.2720   -3.7370   -3.9380 H   0  0  0  0  0  0  0  0  0  0  0  0
   -4.9640   -3.3060   -3.3830 H   0  0  0  0  0  0  0  0  0  0  0  0
   -6.4600   -2.4050   -1.7000 H   0  0  0  0  0  0  0  0  0  0  0  0
   -5.5470   -1.4230    0.3630 H   0  0  0  0  0  0  0  0  0  0  0  0
   -3.0190   -1.3490    0.7160 H   0  0  0  0  0  0  0  0  0  0  0  0
   -5.0030   -1.3990    4.1010 O   0  0  0  0  0  0  0  0  0  0  0  0
   -4.4950   -0.3330    3.3590 C   0  0  0  0  0  0  0  0  0  0  0  0
   -5.2470    0.4010    2.4820 C   0  0  0  0  0  0  0  0  0  0  0  0
   -4.6920    1.4520    1.7660 C   0  0  0  0  0  0  0  0  0  0  0  0
   -3.3590    1.7500    1.9530 C   0  0  0  0  0  0  0  0  0  0  0  0
   -2.7410    2.8470    1.2220 C   0  0  0  0  0  0  0  0  0  0  0  0
   -2.0750    2.5050   -0.0750 C   0  0  2  0  0  0  0  0  0  0  0  0
   -0.9730    1.5400    0.0870 N   0  0  0  0  0  0  0  0  0  0  0  0
   -1.4380    3.7860   -0.5430 C   0  0  0  0  0  0  0  0  0  0  0  0
   -0.2130    3.9100   -0.7710 O   0  0  0  0  0  0  0  0  0  0  0  0
   -2.6060    1.0110    2.8350 C   0  0  0  0  0  0  0  0  0  0  0  0
   -3.1590   -0.0190    3.5330 C   0  0  0  0  0  0  0  0  0  0  0  0
   -2.2630    4.8800   -0.7260 O   0  0  0  0  0  0  0  0  0  0  0  0
   -4.4100   -2.1940    4.3470 H   0  0  0  0  0  0  0  0  0  0  0  0
   -6.3040    0.1330    2.3590 H   0  0  0  0  0  0  0  0  0  0  0  0
   -5.3570    1.9840    1.0910 H   0  0  0  0  0  0  0  0  0  0  0  0
   -3.5200    3.6330    0.9840 H   0  0  0  0  0  0  0  0  0  0  0  0
   -1.9800    3.4090    1.8300 H   0  0  0  0  0  0  0  0  0  0  0  0
   -2.7300    2.1610   -0.8790 H   0  0  0  0  0  0  0  0  0  0  0  0
   -0.3510    1.7640    0.8960 H   0  0  0  0  0  0  0  0  0  0  0  0
   -1.5410    1.2330    3.0000 H   0  0  0  0  0  0  0  0  0  0  0  0
   -2.5550   -0.5880    4.2180 H   0  0  0  0  0  0  0  0  0  0  0  0
  1 13  1  0  0  0  0
  1  2  1  0  0  0  0
  2  3  1  0  0  0  0
  3  4  2  0  0  0  0
  3 14  1  0  0  0  0
  4 15  1  0  0  0  0
  5  6  1  0  0  0  0
  5  4  1  0  0  0  0
  6 16  1  0  0  0  0
  6  7  1  0  0  0  0
  7 18  1  1  0  0  0
  7  8  1  0  0  0  0
  8 20  1  0  0  0  0
  8 19  1  0  0  0  0
  9  7  1  0  0  0  0
 10  9  2  0  0  0  0
 11  5  2  0  0  0  0
 12 11  1  0  0  0  0
 12  2  2  0  0  0  0
 17  6  1  0  0  0  0
 21 11  1  0  0  0  0
 22 12  1  0  0  0  0
 23 37  1  0  0  0  0
 23  9  1  0  0  0  0
 24 38  1  6  0  0  0
 24 25  1  0  0  0  0
 24 23  1  0  0  0  0
 25 39  1  0  0  0  0
 26 34  1  0  0  0  0
 26 25  1  0  0  0  0
 27 26  2  0  0  0  0
 28 27  1  0  0  0  0
 28 29  1  0  0  0  0
 29 34  1  0  0  0  0
 30 29  2  0  0  0  0
 30 31  1  0  0  0  0
 31 32  2  0  0  0  0
 32 33  1  0  0  0  0
 32 45  1  0  0  0  0
 33 46  1  0  0  0  0
 34 33  2  0  0  0  0
 35 24  1  0  0  0  0
 35 54  1  0  0  0  0
 36 35  2  0  0  0  0
 40 25  1  0  0  0  0
 41 27  1  0  0  0  0
 42 28  1  0  0  0  0
 43 30  1  0  0  0  0
 44 31  1  0  0  0  0
 47 60  1  0  0  0  0
 48 58  1  0  0  0  0
 48 47  1  0  0  0  0
 49 48  2  0  0  0  0
 50 51  2  0  0  0  0
 50 49  1  0  0  0  0
 51 57  1  0  0  0  0
 52 64  1  0  0  0  0
 52 51  1  0  0  0  0
 53 65  1  6  0  0  0
 53 54  1  0  0  0  0
 53 52  1  0  0  0  0
 54 66  1  0  0  0  0
 55 53  1  0  0  0  0
 56 55  2  0  0  0  0
 57 67  1  0  0  0  0
 57 58  2  0  0  0  0
 58 68  1  0  0  0  0
 59 55  1  0  0  0  0
 61 49  1  0  0  0  0
 62 50  1  0  0  0  0
 63 52  1  0  0  0  0
M  END
$$$$
