YYC.pdb
 OpenBabel07022419233D

 55 56  0  0  1  0  0  0  0  0999 V2000
    0.6510    2.5760    5.1540 O   0  0  0  0  0  0  0  0  0  0  0  0
    1.1720    1.3790    4.7010 C   0  0  0  0  0  0  0  0  0  0  0  0
    0.4530    0.2200    4.8760 C   0  0  0  0  0  0  0  0  0  0  0  0
    0.9240   -1.0030    4.4430 C   0  0  0  0  0  0  0  0  0  0  0  0
    2.1610   -1.1230    3.8030 C   0  0  0  0  0  0  0  0  0  0  0  0
    2.6810   -2.4280    3.3290 C   0  0  0  0  0  0  0  0  0  0  0  0
    2.3090   -2.7290    1.8930 C   0  0  2  0  0  0  0  0  0  0  0  0
    2.8810   -1.6910    1.0950 N   0  0  0  0  0  0  0  0  0  0  0  0
    0.8160   -2.6950    1.6750 C   0  0  0  0  0  0  0  0  0  0  0  0
    0.0160   -3.4260    2.3140 O   0  0  0  0  0  0  0  0  0  0  0  0
    2.8670    0.0490    3.6380 C   0  0  0  0  0  0  0  0  0  0  0  0
    2.3940    1.2670    4.0710 C   0  0  0  0  0  0  0  0  0  0  0  0
    0.8110    2.8840    6.1070 H   0  0  0  0  0  0  0  0  0  0  0  0
   -0.5250    0.2850    5.3800 H   0  0  0  0  0  0  0  0  0  0  0  0
    0.3730   -1.9110    4.5720 H   0  0  0  0  0  0  0  0  0  0  0  0
    3.8020   -2.3050    3.3150 H   0  0  0  0  0  0  0  0  0  0  0  0
    2.3780   -3.2390    4.0180 H   0  0  0  0  0  0  0  0  0  0  0  0
    2.6290   -3.7200    1.5900 H   0  0  0  0  0  0  0  0  0  0  0  0
    2.5770   -0.7520    1.2810 H   0  0  0  0  0  0  0  0  0  0  0  0
    3.7230   -1.8710    0.5880 H   0  0  0  0  0  0  0  0  0  0  0  0
    3.8480   -0.0010    3.1440 H   0  0  0  0  0  0  0  0  0  0  0  0
    2.9660    2.1660    3.9250 H   0  0  0  0  0  0  0  0  0  0  0  0
    1.6460    3.4570   -2.3250 O   0  0  0  0  0  0  0  0  0  0  0  0
    0.8810    2.5510   -1.6050 C   0  0  0  0  0  0  0  0  0  0  0  0
    1.2870    2.1320   -0.3620 C   0  0  0  0  0  0  0  0  0  0  0  0
    0.5150    1.2330    0.3350 C   0  0  0  0  0  0  0  0  0  0  0  0
   -0.6660    0.7650   -0.2370 C   0  0  0  0  0  0  0  0  0  0  0  0
   -1.4760   -0.1950    0.5510 C   0  0  0  0  0  0  0  0  0  0  0  0
   -1.0980   -1.6100    0.3570 C   0  0  2  0  0  0  0  0  0  0  0  0
    0.2720   -1.8250    0.7270 N   0  0  0  0  0  0  0  0  0  0  0  0
   -1.4780   -2.2680   -0.8860 C   0  0  0  0  0  0  0  0  0  0  0  0
   -0.7510   -3.2220   -1.3400 O   0  0  0  0  0  0  0  0  0  0  0  0
   -1.0550    1.1940   -1.4780 C   0  0  0  0  0  0  0  0  0  0  0  0
   -0.2860    2.0890   -2.1730 C   0  0  0  0  0  0  0  0  0  0  0  0
    2.4770    3.1520   -2.8160 H   0  0  0  0  0  0  0  0  0  0  0  0
    2.2030    2.4860    0.0930 H   0  0  0  0  0  0  0  0  0  0  0  0
    0.7980    0.8890    1.3110 H   0  0  0  0  0  0  0  0  0  0  0  0
   -1.4320    0.0940    1.6440 H   0  0  0  0  0  0  0  0  0  0  0  0
   -2.5470    0.0180    0.2750 H   0  0  0  0  0  0  0  0  0  0  0  0
   -1.6830   -2.1850    1.1810 H   0  0  0  0  0  0  0  0  0  0  0  0
    0.9520   -1.2070    0.1730 H   0  0  0  0  0  0  0  0  0  0  0  0
   -1.9910    0.8350   -1.9340 H   0  0  0  0  0  0  0  0  0  0  0  0
   -0.6110    2.4160   -3.1460 H   0  0  0  0  0  0  0  0  0  0  0  0
   -2.6220   -1.9120   -1.6420 N   0  0  0  0  0  0  0  0  0  0  0  0
   -2.9670   -2.6190   -2.8580 C   0  0  1  0  0  0  0  0  0  0  0  0
   -4.4060   -2.6370   -3.1990 C   0  0  0  0  0  0  0  0  0  0  0  0
   -5.4880   -3.3700   -1.9870 S   0  0  0  0  0  0  0  0  0  0  0  0
   -2.2380   -1.9790   -4.0270 C   0  0  0  0  0  0  0  0  0  0  0  0
   -1.4920   -1.0100   -3.8330 O   0  0  0  0  0  0  0  0  0  0  0  0
   -2.4190   -2.4930   -5.3050 O   0  0  0  0  0  0  0  0  0  0  0  0
   -3.2180   -1.1300   -1.3150 H   0  0  0  0  0  0  0  0  0  0  0  0
   -2.5330   -3.6480   -2.7570 H   0  0  0  0  0  0  0  0  0  0  0  0
   -4.5230   -3.2300   -4.1580 H   0  0  0  0  0  0  0  0  0  0  0  0
   -4.7290   -1.5830   -3.4360 H   0  0  0  0  0  0  0  0  0  0  0  0
   -5.0010   -3.3460   -0.6920 H   0  0  0  0  0  0  0  0  0  0  0  0
  1 13  1  0  0  0  0
  2  3  1  0  0  0  0
  2  1  1  0  0  0  0
  3 14  1  0  0  0  0
  4 15  1  0  0  0  0
  4  3  2  0  0  0  0
  5  4  1  0  0  0  0
  6  5  1  0  0  0  0
  6 17  1  0  0  0  0
  7 18  1  6  0  0  0
  7  6  1  0  0  0  0
  8 19  1  0  0  0  0
  8  7  1  0  0  0  0
  9  7  1  0  0  0  0
  9 10  2  0  0  0  0
 11  5  2  0  0  0  0
 11 12  1  0  0  0  0
 12  2  2  0  0  0  0
 16  6  1  0  0  0  0
 20  8  1  0  0  0  0
 21 11  1  0  0  0  0
 22 12  1  0  0  0  0
 23 24  1  0  0  0  0
 24 25  1  0  0  0  0
 25 36  1  0  0  0  0
 25 26  2  0  0  0  0
 26 37  1  0  0  0  0
 27 26  1  0  0  0  0
 27 28  1  0  0  0  0
 28 38  1  0  0  0  0
 29 28  1  0  0  0  0
 29 30  1  0  0  0  0
 29 40  1  1  0  0  0
 30  9  1  0  0  0  0
 31 29  1  0  0  0  0
 32 31  2  0  0  0  0
 33 27  2  0  0  0  0
 34 24  2  0  0  0  0
 34 33  1  0  0  0  0
 35 23  1  0  0  0  0
 39 28  1  0  0  0  0
 41 30  1  0  0  0  0
 42 33  1  0  0  0  0
 43 34  1  0  0  0  0
 44 51  1  0  0  0  0
 44 31  1  0  0  0  0
 45 52  1  1  0  0  0
 45 44  1  0  0  0  0
 46 45  1  0  0  0  0
 46 47  1  0  0  0  0
 47 55  1  0  0  0  0
 48 49  1  0  0  0  0
 48 45  1  0  0  0  0
 50 48  2  0  0  0  0
 53 46  1  0  0  0  0
 54 46  1  0  0  0  0
M  END
$$$$
