YYD.pdb
 OpenBabel07022419233D

 57 58  0  0  1  0  0  0  0  0999 V2000
    2.6320    2.8250    4.8650 O   0  0  0  0  0  0  0  0  0  0  0  0
    2.7220    1.8110    3.9270 C   0  0  0  0  0  0  0  0  0  0  0  0
    3.4770    0.6790    4.1350 C   0  0  0  0  0  0  0  0  0  0  0  0
    3.5570   -0.3160    3.2000 C   0  0  0  0  0  0  0  0  0  0  0  0
    2.8720   -0.2450    1.9670 C   0  0  0  0  0  0  0  0  0  0  0  0
    3.0710   -1.3450    0.9890 C   0  0  0  0  0  0  0  0  0  0  0  0
    2.3560   -2.5910    1.2220 C   0  0  2  0  0  0  0  0  0  0  0  0
    2.7390   -3.5860    0.1600 N   0  0  0  0  0  0  0  0  0  0  0  0
    0.9200   -2.6970    1.3000 C   0  0  0  0  0  0  0  0  0  0  0  0
    0.4320   -3.8600    1.6790 O   0  0  0  0  0  0  0  0  0  0  0  0
    2.1270    0.8780    1.7680 C   0  0  0  0  0  0  0  0  0  0  0  0
    2.0510    1.8790    2.7180 C   0  0  0  0  0  0  0  0  0  0  0  0
    1.7780    3.0760    5.3510 H   0  0  0  0  0  0  0  0  0  0  0  0
    4.0180    0.6090    5.0930 H   0  0  0  0  0  0  0  0  0  0  0  0
    4.1610   -1.2030    3.3860 H   0  0  0  0  0  0  0  0  0  0  0  0
    4.1970   -1.5250    1.0040 H   0  0  0  0  0  0  0  0  0  0  0  0
    2.9090   -0.9190   -0.0390 H   0  0  0  0  0  0  0  0  0  0  0  0
    2.8520   -3.0940    2.1400 H   0  0  0  0  0  0  0  0  0  0  0  0
    2.6310   -4.5370    0.5380 H   0  0  0  0  0  0  0  0  0  0  0  0
    3.7320   -3.4230   -0.1080 H   0  0  0  0  0  0  0  0  0  0  0  0
    1.5950    0.9830    0.8330 H   0  0  0  0  0  0  0  0  0  0  0  0
    1.4560    2.7780    2.5590 H   0  0  0  0  0  0  0  0  0  0  0  0
   -2.4050    4.2250   -0.0340 O   0  0  0  0  0  0  0  0  0  0  0  0
   -2.4090    2.9020    0.4260 C   0  0  0  0  0  0  0  0  0  0  0  0
   -3.3050    1.9550    0.0290 C   0  0  0  0  0  0  0  0  0  0  0  0
   -3.2640    0.6630    0.5110 C   0  0  0  0  0  0  0  0  0  0  0  0
   -2.3280    0.2510    1.4150 C   0  0  0  0  0  0  0  0  0  0  0  0
   -2.2720   -1.1030    1.9410 C   0  0  0  0  0  0  0  0  0  0  0  0
   -1.5170   -2.1160    1.1830 C   0  0  2  0  0  0  0  0  0  0  0  0
   -0.1140   -1.7760    1.0390 N   0  0  0  0  0  0  0  0  0  0  0  0
   -2.1460   -2.3630   -0.1460 C   0  0  0  0  0  0  0  0  0  0  0  0
   -3.3640   -2.6410   -0.1790 O   0  0  0  0  0  0  0  0  0  0  0  0
   -1.4140    1.1990    1.8270 C   0  0  0  0  0  0  0  0  0  0  0  0
   -1.4340    2.5050    1.3540 C   0  0  0  0  0  0  0  0  0  0  0  0
   -2.0410    4.9570    0.5540 H   0  0  0  0  0  0  0  0  0  0  0  0
   -4.0730    2.2560   -0.6950 H   0  0  0  0  0  0  0  0  0  0  0  0
   -4.0030   -0.0180    0.1540 H   0  0  0  0  0  0  0  0  0  0  0  0
   -1.7740   -1.0450    2.9650 H   0  0  0  0  0  0  0  0  0  0  0  0
   -3.3040   -1.4870    2.2160 H   0  0  0  0  0  0  0  0  0  0  0  0
   -1.6340   -3.1110    1.7110 H   0  0  0  0  0  0  0  0  0  0  0  0
    0.1350   -0.8320    0.7220 H   0  0  0  0  0  0  0  0  0  0  0  0
   -0.6370    0.9410    2.5630 H   0  0  0  0  0  0  0  0  0  0  0  0
   -0.7310    3.2320    1.6740 H   0  0  0  0  0  0  0  0  0  0  0  0
   -1.4170   -2.2900   -1.3560 N   0  0  0  0  0  0  0  0  0  0  0  0
   -2.0460   -2.5270   -2.6390 C   0  0  1  0  0  0  0  0  0  0  0  0
   -1.7940   -1.4010   -3.6050 C   0  0  0  0  0  0  0  0  0  0  0  0
   -0.3510   -1.2110   -3.8610 C   0  0  0  0  0  0  0  0  0  0  0  0
    0.3150   -2.2290   -4.2270 O   0  0  0  0  0  0  0  0  0  0  0  0
   -1.5520   -3.8530   -3.1490 C   0  0  0  0  0  0  0  0  0  0  0  0
   -1.9110   -4.3180   -4.2590 O   0  0  0  0  0  0  0  0  0  0  0  0
    0.2810    0.0150   -3.7140 O   0  0  0  0  0  0  0  0  0  0  0  0
   -0.6680   -4.6180   -2.3970 O   0  0  0  0  0  0  0  0  0  0  0  0
   -0.4030   -2.0580   -1.2540 H   0  0  0  0  0  0  0  0  0  0  0  0
   -3.1260   -2.6480   -2.4930 H   0  0  0  0  0  0  0  0  0  0  0  0
   -2.2830   -0.4980   -3.2170 H   0  0  0  0  0  0  0  0  0  0  0  0
   -2.2540   -1.6900   -4.5650 H   0  0  0  0  0  0  0  0  0  0  0  0
    1.2830    0.1400   -3.7520 H   0  0  0  0  0  0  0  0  0  0  0  0
  1 13  1  0  0  0  0
  2  3  1  0  0  0  0
  2  1  1  0  0  0  0
  3 14  1  0  0  0  0
  4 15  1  0  0  0  0
  4  3  2  0  0  0  0
  5  4  1  0  0  0  0
  6 16  1  0  0  0  0
  6  7  1  0  0  0  0
  6  5  1  0  0  0  0
  7  9  1  0  0  0  0
  7 18  1  1  0  0  0
  8 19  1  0  0  0  0
  8  7  1  0  0  0  0
  9 10  2  0  0  0  0
 11  5  2  0  0  0  0
 11 12  1  0  0  0  0
 12  2  2  0  0  0  0
 17  6  1  0  0  0  0
 20  8  1  0  0  0  0
 21 11  1  0  0  0  0
 22 12  1  0  0  0  0
 23 24  1  0  0  0  0
 23 35  1  0  0  0  0
 24 34  1  0  0  0  0
 25 24  2  0  0  0  0
 25 26  1  0  0  0  0
 26 27  2  0  0  0  0
 27 33  1  0  0  0  0
 27 28  1  0  0  0  0
 28 39  1  0  0  0  0
 28 38  1  0  0  0  0
 29 40  1  1  0  0  0
 29 28  1  0  0  0  0
 30 29  1  0  0  0  0
 30  9  1  0  0  0  0
 31 29  1  0  0  0  0
 32 31  2  0  0  0  0
 33 42  1  0  0  0  0
 34 43  1  0  0  0  0
 34 33  2  0  0  0  0
 36 25  1  0  0  0  0
 37 26  1  0  0  0  0
 41 30  1  0  0  0  0
 44 53  1  0  0  0  0
 44 31  1  0  0  0  0
 45 54  1  1  0  0  0
 45 44  1  0  0  0  0
 46 55  1  0  0  0  0
 46 45  1  0  0  0  0
 47 51  1  0  0  0  0
 47 46  1  0  0  0  0
 48 47  2  0  0  0  0
 49 45  1  0  0  0  0
 49 52  1  0  0  0  0
 50 49  2  0  0  0  0
 56 46  1  0  0  0  0
 57 51  1  0  0  0  0
M  END
$$$$
