YYG.pdb
 OpenBabel07022419233D

 51 52  0  0  1  0  0  0  0  0999 V2000
    3.1350    1.0630    6.5390 O   0  0  0  0  0  0  0  0  0  0  0  0
    2.9950    0.1030    5.5510 C   0  0  0  0  0  0  0  0  0  0  0  0
    2.7680   -1.2170    5.8770 C   0  0  0  0  0  0  0  0  0  0  0  0
    2.6250   -2.1950    4.9190 C   0  0  0  0  0  0  0  0  0  0  0  0
    2.7040   -1.8890    3.5570 C   0  0  0  0  0  0  0  0  0  0  0  0
    2.5650   -2.9370    2.5220 C   0  0  0  0  0  0  0  0  0  0  0  0
    1.1400   -3.2010    2.1120 C   0  0  2  0  0  0  0  0  0  0  0  0
    1.0680   -4.2350    1.0940 N   0  0  0  0  0  0  0  0  0  0  0  0
    0.4960   -1.9490    1.6690 C   0  0  0  0  0  0  0  0  0  0  0  0
    0.3550   -0.9360    2.3990 O   0  0  0  0  0  0  0  0  0  0  0  0
    2.9310   -0.5710    3.2330 C   0  0  0  0  0  0  0  0  0  0  0  0
    3.0730    0.4010    4.2070 C   0  0  0  0  0  0  0  0  0  0  0  0
    2.5140    1.0960    7.3590 H   0  0  0  0  0  0  0  0  0  0  0  0
    2.7070   -1.4550    6.9440 H   0  0  0  0  0  0  0  0  0  0  0  0
    2.4450   -3.2360    5.1810 H   0  0  0  0  0  0  0  0  0  0  0  0
    3.1690   -2.6140    1.6250 H   0  0  0  0  0  0  0  0  0  0  0  0
    3.0530   -3.8850    2.8810 H   0  0  0  0  0  0  0  0  0  0  0  0
    0.6270   -3.6370    3.0180 H   0  0  0  0  0  0  0  0  0  0  0  0
    1.8120   -4.1640    0.3820 H   0  0  0  0  0  0  0  0  0  0  0  0
    1.0020   -5.1970    1.5310 H   0  0  0  0  0  0  0  0  0  0  0  0
    3.0020   -0.2940    2.1890 H   0  0  0  0  0  0  0  0  0  0  0  0
    3.2510    1.4320    3.9290 H   0  0  0  0  0  0  0  0  0  0  0  0
   -1.8600    4.8310   -3.4090 O   0  0  0  0  0  0  0  0  0  0  0  0
   -1.3950    3.6370   -2.8810 C   0  0  0  0  0  0  0  0  0  0  0  0
   -0.4990    3.6620   -1.8100 C   0  0  0  0  0  0  0  0  0  0  0  0
   -0.0440    2.4730   -1.2930 C   0  0  0  0  0  0  0  0  0  0  0  0
   -0.4730    1.2530   -1.8330 C   0  0  0  0  0  0  0  0  0  0  0  0
    0.0370    0.0080   -1.2760 C   0  0  0  0  0  0  0  0  0  0  0  0
   -0.6700   -0.5520   -0.1020 C   0  0  2  0  0  0  0  0  0  0  0  0
   -0.0310   -1.7910    0.3400 N   0  0  0  0  0  0  0  0  0  0  0  0
   -2.0610   -0.9090   -0.4670 C   0  0  0  0  0  0  0  0  0  0  0  0
   -2.8850   -0.0820   -0.9320 O   0  0  0  0  0  0  0  0  0  0  0  0
   -1.3570    1.2240   -2.8900 C   0  0  0  0  0  0  0  0  0  0  0  0
   -1.8190    2.4390   -3.4140 C   0  0  0  0  0  0  0  0  0  0  0  0
   -1.1710    5.4190   -3.8790 H   0  0  0  0  0  0  0  0  0  0  0  0
   -0.1570    4.5900   -1.3800 H   0  0  0  0  0  0  0  0  0  0  0  0
    0.6420    2.4150   -0.4740 H   0  0  0  0  0  0  0  0  0  0  0  0
    1.1000    0.1810   -0.9790 H   0  0  0  0  0  0  0  0  0  0  0  0
    0.1020   -0.7400   -2.1170 H   0  0  0  0  0  0  0  0  0  0  0  0
   -0.6460    0.1870    0.7330 H   0  0  0  0  0  0  0  0  0  0  0  0
    0.0570   -2.5940   -0.3140 H   0  0  0  0  0  0  0  0  0  0  0  0
   -1.7220    0.3220   -3.3610 H   0  0  0  0  0  0  0  0  0  0  0  0
   -2.5120    2.4820   -4.2420 H   0  0  0  0  0  0  0  0  0  0  0  0
   -2.5670   -2.2530   -0.3040 N   0  0  0  0  0  0  0  0  0  0  0  0
   -3.8990   -2.6560   -0.6320 C   0  0  0  0  0  0  0  0  0  0  0  0
   -4.1440   -2.4360   -2.0740 C   0  0  0  0  0  0  0  0  0  0  0  0
   -5.2790   -2.7010   -2.5910 O   0  0  0  0  0  0  0  0  0  0  0  0
   -3.1280   -1.9400   -2.8650 O   0  0  0  0  0  0  0  0  0  0  0  0
   -1.8990   -2.9670    0.0840 H   0  0  0  0  0  0  0  0  0  0  0  0
   -3.9640   -3.7720   -0.4750 H   0  0  0  0  0  0  0  0  0  0  0  0
   -4.6650   -2.1430   -0.0060 H   0  0  0  0  0  0  0  0  0  0  0  0
  1 13  1  0  0  0  0
  2  3  1  0  0  0  0
  2  1  1  0  0  0  0
  3 14  1  0  0  0  0
  4 15  1  0  0  0  0
  4  3  2  0  0  0  0
  5  4  1  0  0  0  0
  6 17  1  0  0  0  0
  6  5  1  0  0  0  0
  7  6  1  0  0  0  0
  7 18  1  1  0  0  0
  8 20  1  0  0  0  0
  8  7  1  0  0  0  0
  9  7  1  0  0  0  0
  9 10  2  0  0  0  0
 11  5  2  0  0  0  0
 11 12  1  0  0  0  0
 12  2  2  0  0  0  0
 16  6  1  0  0  0  0
 19  8  1  0  0  0  0
 21 11  1  0  0  0  0
 22 12  1  0  0  0  0
 23 24  1  0  0  0  0
 24 25  1  0  0  0  0
 25 36  1  0  0  0  0
 25 26  2  0  0  0  0
 26 37  1  0  0  0  0
 27 26  1  0  0  0  0
 27 28  1  0  0  0  0
 28 38  1  0  0  0  0
 28 29  1  0  0  0  0
 29 30  1  0  0  0  0
 29 40  1  1  0  0  0
 30  9  1  0  0  0  0
 31 44  1  0  0  0  0
 31 29  1  0  0  0  0
 32 31  2  0  0  0  0
 33 27  2  0  0  0  0
 34 33  1  0  0  0  0
 34 24  2  0  0  0  0
 35 23  1  0  0  0  0
 39 28  1  0  0  0  0
 41 30  1  0  0  0  0
 42 33  1  0  0  0  0
 43 34  1  0  0  0  0
 44 49  1  0  0  0  0
 45 50  1  0  0  0  0
 45 44  1  0  0  0  0
 45 51  1  0  0  0  0
 46 45  1  0  0  0  0
 47 46  1  0  0  0  0
 48 46  2  0  0  0  0
M  END
$$$$
