YYK.pdb
 OpenBabel07022419233D

 65 66  0  0  1  0  0  0  0  0999 V2000
    1.3370   -0.6290    6.7300 O   0  0  0  0  0  0  0  0  0  0  0  0
    1.7280   -0.6960    5.4110 C   0  0  0  0  0  0  0  0  0  0  0  0
    0.8250   -1.0460    4.4300 C   0  0  0  0  0  0  0  0  0  0  0  0
    1.2170   -1.1140    3.0800 C   0  0  0  0  0  0  0  0  0  0  0  0
    2.5160   -0.8280    2.7280 C   0  0  0  0  0  0  0  0  0  0  0  0
    2.9330   -0.8720    1.3440 C   0  0  0  0  0  0  0  0  0  0  0  0
    2.6960    0.4100    0.5720 C   0  0  2  0  0  0  0  0  0  0  0  0
    3.3610    1.5340    1.1290 N   0  0  0  0  0  0  0  0  0  0  0  0
    1.2130    0.6280    0.3980 C   0  0  0  0  0  0  0  0  0  0  0  0
    0.4930    1.2560    1.1880 O   0  0  0  0  0  0  0  0  0  0  0  0
    3.3990   -0.4830    3.7230 C   0  0  0  0  0  0  0  0  0  0  0  0
    3.0530   -0.4030    5.0680 C   0  0  0  0  0  0  0  0  0  0  0  0
    0.3910   -0.4880    7.0560 H   0  0  0  0  0  0  0  0  0  0  0  0
   -0.1840   -1.2600    4.7530 H   0  0  0  0  0  0  0  0  0  0  0  0
    0.4580   -1.4000    2.3450 H   0  0  0  0  0  0  0  0  0  0  0  0
    2.3320   -1.6670    0.8350 H   0  0  0  0  0  0  0  0  0  0  0  0
    3.9910   -1.1950    1.2780 H   0  0  0  0  0  0  0  0  0  0  0  0
    3.0850    0.2380   -0.4460 H   0  0  0  0  0  0  0  0  0  0  0  0
    3.6520    1.4720    2.1170 H   0  0  0  0  0  0  0  0  0  0  0  0
    4.1890    1.7830    0.5550 H   0  0  0  0  0  0  0  0  0  0  0  0
    4.4130   -0.2820    3.4250 H   0  0  0  0  0  0  0  0  0  0  0  0
    3.7890   -0.1220    5.8170 H   0  0  0  0  0  0  0  0  0  0  0  0
    0.9530    6.1370    0.1900 O   0  0  0  0  0  0  0  0  0  0  0  0
    0.4370    4.9570   -0.3610 C   0  0  0  0  0  0  0  0  0  0  0  0
    1.2660    4.1930   -1.1350 C   0  0  0  0  0  0  0  0  0  0  0  0
    0.7530    3.0130   -1.6840 C   0  0  0  0  0  0  0  0  0  0  0  0
   -0.5400    2.6300   -1.4560 C   0  0  0  0  0  0  0  0  0  0  0  0
   -1.1260    1.3540   -2.0130 C   0  0  0  0  0  0  0  0  0  0  0  0
   -0.8460    0.2550   -0.9850 C   0  0  2  0  0  0  0  0  0  0  0  0
    0.5510    0.0820   -0.7680 N   0  0  0  0  0  0  0  0  0  0  0  0
   -1.4510   -0.9890   -1.5020 C   0  0  0  0  0  0  0  0  0  0  0  0
   -2.7070   -1.0190   -1.7630 O   0  0  0  0  0  0  0  0  0  0  0  0
   -1.3330    3.4350   -0.6710 C   0  0  0  0  0  0  0  0  0  0  0  0
   -0.8650    4.6310   -0.0960 C   0  0  0  0  0  0  0  0  0  0  0  0
    0.3990    6.6990    0.8240 H   0  0  0  0  0  0  0  0  0  0  0  0
    2.2730    4.5050   -1.3060 H   0  0  0  0  0  0  0  0  0  0  0  0
    1.3560    2.3680   -2.3010 H   0  0  0  0  0  0  0  0  0  0  0  0
   -0.7080    1.1690   -2.9880 H   0  0  0  0  0  0  0  0  0  0  0  0
   -2.2070    1.5440   -2.1170 H   0  0  0  0  0  0  0  0  0  0  0  0
   -1.4070    0.5580   -0.0830 H   0  0  0  0  0  0  0  0  0  0  0  0
    1.1800   -0.4220   -1.4270 H   0  0  0  0  0  0  0  0  0  0  0  0
   -2.3600    3.1350   -0.4920 H   0  0  0  0  0  0  0  0  0  0  0  0
   -1.5250    5.2300    0.5190 H   0  0  0  0  0  0  0  0  0  0  0  0
   -0.7510   -2.1950   -1.7480 N   0  0  0  0  0  0  0  0  0  0  0  0
   -1.3150   -3.4120   -2.2680 C   0  0  1  0  0  0  0  0  0  0  0  0
   -2.1350   -4.1260   -1.2610 C   0  0  0  0  0  0  0  0  0  0  0  0
   -1.3730   -4.5270   -0.0320 C   0  0  0  0  0  0  0  0  0  0  0  0
   -2.2620   -5.2470    0.9510 C   0  0  0  0  0  0  0  0  0  0  0  0
   -3.4270   -4.4020    1.4110 C   0  0  0  0  0  0  0  0  0  0  0  0
   -3.0170   -3.1920    2.0610 N   0  0  0  0  0  0  0  0  0  0  0  0
   -2.1660   -3.1780   -3.4910 C   0  0  0  0  0  0  0  0  0  0  0  0
   -2.7710   -4.1710   -4.0250 O   0  0  0  0  0  0  0  0  0  0  0  0
   -2.3460   -1.9570   -4.0910 O   0  0  0  0  0  0  0  0  0  0  0  0
    0.2880   -2.2080   -1.5240 H   0  0  0  0  0  0  0  0  0  0  0  0
   -0.4370   -4.0350   -2.6570 H   0  0  0  0  0  0  0  0  0  0  0  0
   -2.5320   -5.0860   -1.7180 H   0  0  0  0  0  0  0  0  0  0  0  0
   -3.0390   -3.5260   -1.0550 H   0  0  0  0  0  0  0  0  0  0  0  0
   -0.6150   -5.2910   -0.3730 H   0  0  0  0  0  0  0  0  0  0  0  0
   -0.8120   -3.7410    0.4640 H   0  0  0  0  0  0  0  0  0  0  0  0
   -2.6130   -6.1990    0.5580 H   0  0  0  0  0  0  0  0  0  0  0  0
   -1.6430   -5.4180    1.8790 H   0  0  0  0  0  0  0  0  0  0  0  0
   -4.0260   -5.0040    2.1220 H   0  0  0  0  0  0  0  0  0  0  0  0
   -4.1040   -4.1340    0.5840 H   0  0  0  0  0  0  0  0  0  0  0  0
   -2.0670   -2.8650    1.8230 H   0  0  0  0  0  0  0  0  0  0  0  0
   -3.1410   -3.2230    3.1040 H   0  0  0  0  0  0  0  0  0  0  0  0
  1 13  1  0  0  0  0
  2  1  1  0  0  0  0
  3 14  1  0  0  0  0
  3  2  2  0  0  0  0
  4  3  1  0  0  0  0
  5  4  2  0  0  0  0
  5 11  1  0  0  0  0
  6  5  1  0  0  0  0
  7 18  1  6  0  0  0
  7  8  1  0  0  0  0
  7  6  1  0  0  0  0
  8 19  1  0  0  0  0
  9  7  1  0  0  0  0
  9 10  2  0  0  0  0
 11 12  2  0  0  0  0
 12  2  1  0  0  0  0
 12 22  1  0  0  0  0
 15  4  1  0  0  0  0
 16  6  1  0  0  0  0
 17  6  1  0  0  0  0
 20  8  1  0  0  0  0
 21 11  1  0  0  0  0
 23 35  1  0  0  0  0
 24 34  1  0  0  0  0
 24 23  1  0  0  0  0
 25 24  2  0  0  0  0
 26 27  2  0  0  0  0
 26 25  1  0  0  0  0
 27 33  1  0  0  0  0
 28 27  1  0  0  0  0
 28 29  1  0  0  0  0
 29 30  1  0  0  0  0
 29 40  1  1  0  0  0
 30  9  1  0  0  0  0
 31 29  1  0  0  0  0
 32 31  2  0  0  0  0
 33 42  1  0  0  0  0
 33 34  2  0  0  0  0
 34 43  1  0  0  0  0
 36 25  1  0  0  0  0
 37 26  1  0  0  0  0
 38 28  1  0  0  0  0
 39 28  1  0  0  0  0
 41 30  1  0  0  0  0
 44 54  1  0  0  0  0
 44 31  1  0  0  0  0
 45 55  1  6  0  0  0
 45 44  1  0  0  0  0
 45 46  1  0  0  0  0
 46 57  1  0  0  0  0
 46 47  1  0  0  0  0
 47 59  1  0  0  0  0
 47 48  1  0  0  0  0
 48 49  1  0  0  0  0
 48 61  1  0  0  0  0
 49 50  1  0  0  0  0
 49 62  1  0  0  0  0
 50 65  1  0  0  0  0
 51 45  1  0  0  0  0
 52 51  1  0  0  0  0
 53 51  2  0  0  0  0
 56 46  1  0  0  0  0
 58 47  1  0  0  0  0
 60 48  1  0  0  0  0
 63 49  1  0  0  0  0
 64 50  1  0  0  0  0
M  END
$$$$
