YYS.pdb
 OpenBabel07022419233D

 55 56  0  0  1  0  0  0  0  0999 V2000
    1.8720   -5.9780    2.8320 O   0  0  0  0  0  0  0  0  0  0  0  0
    2.0700   -4.9190    1.9480 C   0  0  0  0  0  0  0  0  0  0  0  0
    1.1300   -4.6150    0.9680 C   0  0  0  0  0  0  0  0  0  0  0  0
    1.3660   -3.5530    0.1100 C   0  0  0  0  0  0  0  0  0  0  0  0
    2.4870   -2.7650    0.1620 C   0  0  0  0  0  0  0  0  0  0  0  0
    2.7420   -1.6320   -0.7500 C   0  0  0  0  0  0  0  0  0  0  0  0
    2.2670   -0.3170   -0.2180 C   0  0  2  0  0  0  0  0  0  0  0  0
    2.8710    0.0470    1.0450 N   0  0  0  0  0  0  0  0  0  0  0  0
    0.8280   -0.0760   -0.3100 C   0  0  0  0  0  0  0  0  0  0  0  0
    0.2690   -0.3580   -1.4030 O   0  0  0  0  0  0  0  0  0  0  0  0
    3.4260   -3.0870    1.1570 C   0  0  0  0  0  0  0  0  0  0  0  0
    3.2040   -4.1400    2.0170 C   0  0  0  0  0  0  0  0  0  0  0  0
    1.1840   -5.9130    3.5740 H   0  0  0  0  0  0  0  0  0  0  0  0
    0.2570   -5.2340    0.9320 H   0  0  0  0  0  0  0  0  0  0  0  0
    0.6110   -3.3350   -0.6520 H   0  0  0  0  0  0  0  0  0  0  0  0
    2.1450   -1.8240   -1.6840 H   0  0  0  0  0  0  0  0  0  0  0  0
    3.8170   -1.5690   -1.0280 H   0  0  0  0  0  0  0  0  0  0  0  0
    2.7220    0.4540   -0.9490 H   0  0  0  0  0  0  0  0  0  0  0  0
    2.3640   -0.3240    1.8800 H   0  0  0  0  0  0  0  0  0  0  0  0
    2.9100    1.0900    1.1020 H   0  0  0  0  0  0  0  0  0  0  0  0
    4.3090   -2.4610    1.1930 H   0  0  0  0  0  0  0  0  0  0  0  0
    3.9320   -4.3800    2.7800 H   0  0  0  0  0  0  0  0  0  0  0  0
    0.5330    6.6400   -0.8880 O   0  0  0  0  0  0  0  0  0  0  0  0
   -0.0620    5.3850   -0.7930 C   0  0  0  0  0  0  0  0  0  0  0  0
   -1.2170    5.1400   -0.0940 C   0  0  0  0  0  0  0  0  0  0  0  0
   -1.7800    3.8920   -0.0180 C   0  0  0  0  0  0  0  0  0  0  0  0
   -1.1580    2.8360   -0.6720 C   0  0  0  0  0  0  0  0  0  0  0  0
   -1.7910    1.4970   -0.5840 C   0  0  0  0  0  0  0  0  0  0  0  0
   -1.3500    0.7160    0.6500 C   0  0  2  0  0  0  0  0  0  0  0  0
    0.0310    0.4480    0.7250 N   0  0  0  0  0  0  0  0  0  0  0  0
   -2.2460   -0.4410    0.8060 C   0  0  0  0  0  0  0  0  0  0  0  0
   -3.5190   -0.3050    0.7650 O   0  0  0  0  0  0  0  0  0  0  0  0
   -0.0120    3.0840   -1.3640 C   0  0  0  0  0  0  0  0  0  0  0  0
    0.5500    4.3370   -1.4390 C   0  0  0  0  0  0  0  0  0  0  0  0
    0.3740    7.2480   -1.6710 H   0  0  0  0  0  0  0  0  0  0  0  0
   -1.6830    5.9870    0.4090 H   0  0  0  0  0  0  0  0  0  0  0  0
   -2.6970    3.7220    0.5430 H   0  0  0  0  0  0  0  0  0  0  0  0
   -2.8910    1.6590   -0.4920 H   0  0  0  0  0  0  0  0  0  0  0  0
   -1.6400    0.9550   -1.5240 H   0  0  0  0  0  0  0  0  0  0  0  0
   -1.6380    1.4480    1.4950 H   0  0  0  0  0  0  0  0  0  0  0  0
    0.5520    0.6450    1.6320 H   0  0  0  0  0  0  0  0  0  0  0  0
    0.4980    2.2970   -1.8900 H   0  0  0  0  0  0  0  0  0  0  0  0
    1.4740    4.5260   -2.0000 H   0  0  0  0  0  0  0  0  0  0  0  0
   -3.0320   -3.2900   -1.2160 O   0  0  0  0  0  0  0  0  0  0  0  0
   -2.7040   -3.8580    0.0020 C   0  0  0  0  0  0  0  0  0  0  0  0
   -2.7340   -2.8820    1.1560 C   0  0  2  0  0  0  0  0  0  0  0  0
   -1.8330   -1.7880    1.0110 N   0  0  0  0  0  0  0  0  0  0  0  0
   -2.5210   -3.6460    2.4000 C   0  0  0  0  0  0  0  0  0  0  0  0
   -1.6180   -3.2510    3.1670 O   0  0  0  0  0  0  0  0  0  0  0  0
   -3.2390   -4.7490    2.7690 O   0  0  0  0  0  0  0  0  0  0  0  0
   -4.0110   -3.3110   -1.4120 H   0  0  0  0  0  0  0  0  0  0  0  0
   -3.5250   -4.6040    0.2200 H   0  0  0  0  0  0  0  0  0  0  0  0
   -1.7770   -4.4630   -0.0280 H   0  0  0  0  0  0  0  0  0  0  0  0
   -3.7830   -2.4790    1.1650 H   0  0  0  0  0  0  0  0  0  0  0  0
   -0.8050   -1.9530    1.0560 H   0  0  0  0  0  0  0  0  0  0  0  0
  1 13  1  0  0  0  0
  2 12  1  0  0  0  0
  2  1  1  0  0  0  0
  3  2  2  0  0  0  0
  4  5  2  0  0  0  0
  4  3  1  0  0  0  0
  5 11  1  0  0  0  0
  6  7  1  0  0  0  0
  6  5  1  0  0  0  0
  7 18  1  6  0  0  0
  7  8  1  0  0  0  0
  8 20  1  0  0  0  0
  8 19  1  0  0  0  0
  9  7  1  0  0  0  0
  9 30  1  0  0  0  0
 10  9  2  0  0  0  0
 11 21  1  0  0  0  0
 11 12  2  0  0  0  0
 12 22  1  0  0  0  0
 14  3  1  0  0  0  0
 15  4  1  0  0  0  0
 16  6  1  0  0  0  0
 17  6  1  0  0  0  0
 23 24  1  0  0  0  0
 24 25  1  0  0  0  0
 25 26  2  0  0  0  0
 25 36  1  0  0  0  0
 26 37  1  0  0  0  0
 27 28  1  0  0  0  0
 27 26  1  0  0  0  0
 28 38  1  0  0  0  0
 28 29  1  0  0  0  0
 29 30  1  0  0  0  0
 29 31  1  0  0  0  0
 29 40  1  1  0  0  0
 30 41  1  0  0  0  0
 31 47  1  0  0  0  0
 32 31  2  0  0  0  0
 33 27  2  0  0  0  0
 34 33  1  0  0  0  0
 34 24  2  0  0  0  0
 35 23  1  0  0  0  0
 39 28  1  0  0  0  0
 42 33  1  0  0  0  0
 43 34  1  0  0  0  0
 44 45  1  0  0  0  0
 45 52  1  0  0  0  0
 45 46  1  0  0  0  0
 46 54  1  1  0  0  0
 46 48  1  0  0  0  0
 47 55  1  0  0  0  0
 47 46  1  0  0  0  0
 48 50  2  0  0  0  0
 48 49  1  0  0  0  0
 51 44  1  0  0  0  0
 53 45  1  0  0  0  0
M  END
$$$$
