YYT.pdb
 OpenBabel07022419233D

 58 59  0  0  1  0  0  0  0  0999 V2000
    2.5020    3.4260    4.4230 O   0  0  0  0  0  0  0  0  0  0  0  0
    2.5730    2.1770    3.8520 C   0  0  0  0  0  0  0  0  0  0  0  0
    3.5390    1.9690    2.8900 C   0  0  0  0  0  0  0  0  0  0  0  0
    3.6940    0.7620    2.2580 C   0  0  0  0  0  0  0  0  0  0  0  0
    2.8680   -0.3160    2.5720 C   0  0  0  0  0  0  0  0  0  0  0  0
    3.0950   -1.5980    1.8770 C   0  0  0  0  0  0  0  0  0  0  0  0
    2.3530   -1.7550    0.5810 C   0  0  2  0  0  0  0  0  0  0  0  0
    2.7450   -0.7200   -0.3240 N   0  0  0  0  0  0  0  0  0  0  0  0
    0.9180   -1.8750    0.8280 C   0  0  0  0  0  0  0  0  0  0  0  0
    0.4990   -2.5950    1.7660 O   0  0  0  0  0  0  0  0  0  0  0  0
    1.9100   -0.1020    3.5290 C   0  0  0  0  0  0  0  0  0  0  0  0
    1.7540    1.1190    4.1660 C   0  0  0  0  0  0  0  0  0  0  0  0
    2.7990    3.6520    5.3630 H   0  0  0  0  0  0  0  0  0  0  0  0
    4.2060    2.7830    2.6140 H   0  0  0  0  0  0  0  0  0  0  0  0
    4.4800    0.6680    1.5060 H   0  0  0  0  0  0  0  0  0  0  0  0
    2.8530   -2.4520    2.5730 H   0  0  0  0  0  0  0  0  0  0  0  0
    4.2050   -1.6700    1.7250 H   0  0  0  0  0  0  0  0  0  0  0  0
    2.7080   -2.7260    0.0990 H   0  0  0  0  0  0  0  0  0  0  0  0
    2.5810    0.2140    0.1050 H   0  0  0  0  0  0  0  0  0  0  0  0
    2.2650   -0.7250   -1.2340 H   0  0  0  0  0  0  0  0  0  0  0  0
    1.2510   -0.9090    3.8000 H   0  0  0  0  0  0  0  0  0  0  0  0
    0.9970    1.2840    4.9210 H   0  0  0  0  0  0  0  0  0  0  0  0
   -0.5510    3.7550    4.0350 O   0  0  0  0  0  0  0  0  0  0  0  0
   -0.9490    2.8120    3.0850 C   0  0  0  0  0  0  0  0  0  0  0  0
   -1.9770    1.9440    3.3890 C   0  0  0  0  0  0  0  0  0  0  0  0
   -2.3700    1.0150    2.4520 C   0  0  0  0  0  0  0  0  0  0  0  0
   -1.7100    0.9830    1.2180 C   0  0  0  0  0  0  0  0  0  0  0  0
   -2.1580    0.0010    0.2140 C   0  0  0  0  0  0  0  0  0  0  0  0
   -1.4930   -1.3160    0.2530 C   0  0  2  0  0  0  0  0  0  0  0  0
   -0.0880   -1.2080    0.0410 N   0  0  0  0  0  0  0  0  0  0  0  0
   -2.1190   -2.2910   -0.7020 C   0  0  0  0  0  0  0  0  0  0  0  0
   -3.3540   -2.5120   -0.6600 O   0  0  0  0  0  0  0  0  0  0  0  0
   -0.6780    1.8590    0.9210 C   0  0  0  0  0  0  0  0  0  0  0  0
   -0.2940    2.7900    1.8770 C   0  0  0  0  0  0  0  0  0  0  0  0
   -0.8010    4.7240    3.9520 H   0  0  0  0  0  0  0  0  0  0  0  0
   -2.4470    2.0220    4.3630 H   0  0  0  0  0  0  0  0  0  0  0  0
   -3.1790    0.3220    2.6750 H   0  0  0  0  0  0  0  0  0  0  0  0
   -2.0000    0.4800   -0.7890 H   0  0  0  0  0  0  0  0  0  0  0  0
   -3.2660   -0.1570    0.3610 H   0  0  0  0  0  0  0  0  0  0  0  0
   -1.6460   -1.7810    1.2590 H   0  0  0  0  0  0  0  0  0  0  0  0
    0.2900   -0.6140   -0.7300 H   0  0  0  0  0  0  0  0  0  0  0  0
   -0.2190    1.7740   -0.0460 H   0  0  0  0  0  0  0  0  0  0  0  0
    0.5170    3.4680    1.6270 H   0  0  0  0  0  0  0  0  0  0  0  0
   -2.4920   -2.3100   -4.4450 C   0  0  0  0  0  0  0  0  0  0  0  0
   -1.7720   -3.5540   -4.0400 C   0  0  1  0  0  0  0  0  0  0  0  0
   -0.4090   -3.4790   -4.3130 O   0  0  0  0  0  0  0  0  0  0  0  0
   -1.9550   -3.9330   -2.6020 C   0  0  2  0  0  0  0  0  0  0  0  0
   -1.3760   -3.0010   -1.6830 N   0  0  0  0  0  0  0  0  0  0  0  0
   -1.4480   -5.3140   -2.4240 C   0  0  0  0  0  0  0  0  0  0  0  0
   -1.9070   -6.1960   -3.1930 O   0  0  0  0  0  0  0  0  0  0  0  0
   -0.5230   -5.6920   -1.4870 O   0  0  0  0  0  0  0  0  0  0  0  0
   -2.8160   -2.4150   -5.5120 H   0  0  0  0  0  0  0  0  0  0  0  0
   -3.4240   -2.1990   -3.8580 H   0  0  0  0  0  0  0  0  0  0  0  0
   -1.8560   -1.3960   -4.4230 H   0  0  0  0  0  0  0  0  0  0  0  0
   -2.1650   -4.3980   -4.6590 H   0  0  0  0  0  0  0  0  0  0  0  0
   -0.0310   -4.4030   -4.4170 H   0  0  0  0  0  0  0  0  0  0  0  0
   -3.0570   -3.9770   -2.3910 H   0  0  0  0  0  0  0  0  0  0  0  0
   -0.3440   -2.8340   -1.7400 H   0  0  0  0  0  0  0  0  0  0  0  0
  1 13  1  0  0  0  0
  2 12  1  0  0  0  0
  2  1  1  0  0  0  0
  3  2  2  0  0  0  0
  4  5  2  0  0  0  0
  4  3  1  0  0  0  0
  5 11  1  0  0  0  0
  6  5  1  0  0  0  0
  6 16  1  0  0  0  0
  7 18  1  6  0  0  0
  7  9  1  0  0  0  0
  7  6  1  0  0  0  0
  8 19  1  0  0  0  0
  8  7  1  0  0  0  0
  9 10  2  0  0  0  0
 11 21  1  0  0  0  0
 11 12  2  0  0  0  0
 12 22  1  0  0  0  0
 14  3  1  0  0  0  0
 15  4  1  0  0  0  0
 17  6  1  0  0  0  0
 20  8  1  0  0  0  0
 24 25  1  0  0  0  0
 24 23  1  0  0  0  0
 25 36  1  0  0  0  0
 26 37  1  0  0  0  0
 26 25  2  0  0  0  0
 27 26  1  0  0  0  0
 28 29  1  0  0  0  0
 28 39  1  0  0  0  0
 28 27  1  0  0  0  0
 29 40  1  1  0  0  0
 30 29  1  0  0  0  0
 30  9  1  0  0  0  0
 31 32  2  0  0  0  0
 31 29  1  0  0  0  0
 33 27  2  0  0  0  0
 33 34  1  0  0  0  0
 34 24  2  0  0  0  0
 35 23  1  0  0  0  0
 38 28  1  0  0  0  0
 41 30  1  0  0  0  0
 42 33  1  0  0  0  0
 43 34  1  0  0  0  0
 44 54  1  0  0  0  0
 44 45  1  0  0  0  0
 44 53  1  0  0  0  0
 45 55  1  6  0  0  0
 45 47  1  0  0  0  0
 46 45  1  0  0  0  0
 47 49  1  0  0  0  0
 47 57  1  1  0  0  0
 47 48  1  0  0  0  0
 48 31  1  0  0  0  0
 49 51  1  0  0  0  0
 50 49  2  0  0  0  0
 52 44  1  0  0  0  0
 56 46  1  0  0  0  0
 58 48  1  0  0  0  0
M  END
$$$$
