YYV.pdb
 OpenBabel07022419233D

 60 61  0  0  1  0  0  0  0  0999 V2000
    3.7400    0.4750    4.9910 O   0  0  0  0  0  0  0  0  0  0  0  0
    3.9560    0.3600    3.6210 C   0  0  0  0  0  0  0  0  0  0  0  0
    4.3380    1.4220    2.8330 C   0  0  0  0  0  0  0  0  0  0  0  0
    4.5380    1.2490    1.4790 C   0  0  0  0  0  0  0  0  0  0  0  0
    4.3550   -0.0010    0.9000 C   0  0  0  0  0  0  0  0  0  0  0  0
    4.5810   -0.1500   -0.5540 C   0  0  0  0  0  0  0  0  0  0  0  0
    3.3270    0.1120   -1.3590 C   0  0  2  0  0  0  0  0  0  0  0  0
    2.8820    1.4700   -1.0970 N   0  0  0  0  0  0  0  0  0  0  0  0
    2.3200   -0.9000   -0.9740 C   0  0  0  0  0  0  0  0  0  0  0  0
    2.5740   -2.1010   -1.1580 O   0  0  0  0  0  0  0  0  0  0  0  0
    3.9740   -1.0640    1.6830 C   0  0  0  0  0  0  0  0  0  0  0  0
    3.7780   -0.8700    3.0450 C   0  0  0  0  0  0  0  0  0  0  0  0
    3.0820   -0.0950    5.4950 H   0  0  0  0  0  0  0  0  0  0  0  0
    4.4750    2.3920    3.3050 H   0  0  0  0  0  0  0  0  0  0  0  0
    4.8370    2.1190    0.9080 H   0  0  0  0  0  0  0  0  0  0  0  0
    4.9420   -1.1920   -0.7600 H   0  0  0  0  0  0  0  0  0  0  0  0
    5.3970    0.5740   -0.8290 H   0  0  0  0  0  0  0  0  0  0  0  0
    3.6020    0.0380   -2.4330 H   0  0  0  0  0  0  0  0  0  0  0  0
    3.7260    2.0840   -1.2200 H   0  0  0  0  0  0  0  0  0  0  0  0
    2.6350    1.5350   -0.0740 H   0  0  0  0  0  0  0  0  0  0  0  0
    3.8190   -2.0630    1.2840 H   0  0  0  0  0  0  0  0  0  0  0  0
    3.4760   -1.7330    3.6370 H   0  0  0  0  0  0  0  0  0  0  0  0
   -1.9660    3.3790    3.5350 O   0  0  0  0  0  0  0  0  0  0  0  0
   -1.5220    2.1510    3.0220 C   0  0  0  0  0  0  0  0  0  0  0  0
   -2.4310    1.2170    2.6100 C   0  0  0  0  0  0  0  0  0  0  0  0
   -1.9830   -0.0050    2.0990 C   0  0  0  0  0  0  0  0  0  0  0  0
   -0.6450   -0.2950    1.9990 C   0  0  0  0  0  0  0  0  0  0  0  0
   -0.1630   -1.5700    1.4640 C   0  0  0  0  0  0  0  0  0  0  0  0
    0.0740   -1.5720   -0.0200 C   0  0  2  0  0  0  0  0  0  0  0  0
    1.0630   -0.5670   -0.3980 N   0  0  0  0  0  0  0  0  0  0  0  0
   -1.1570   -1.4630   -0.8290 C   0  0  0  0  0  0  0  0  0  0  0  0
   -1.2390   -0.5330   -1.6730 O   0  0  0  0  0  0  0  0  0  0  0  0
    0.2470    0.6670    2.4220 C   0  0  0  0  0  0  0  0  0  0  0  0
   -0.1770    1.8870    2.9330 C   0  0  0  0  0  0  0  0  0  0  0  0
   -1.3290    4.0950    3.8020 H   0  0  0  0  0  0  0  0  0  0  0  0
   -3.4950    1.4120    2.6750 H   0  0  0  0  0  0  0  0  0  0  0  0
   -2.7320   -0.6890    1.7970 H   0  0  0  0  0  0  0  0  0  0  0  0
   -0.9770   -2.3350    1.6390 H   0  0  0  0  0  0  0  0  0  0  0  0
    0.7030   -1.9670    2.0320 H   0  0  0  0  0  0  0  0  0  0  0  0
    0.4860   -2.5990   -0.2560 H   0  0  0  0  0  0  0  0  0  0  0  0
    0.8760    0.4490   -0.2550 H   0  0  0  0  0  0  0  0  0  0  0  0
    1.3130    0.4980    2.3680 H   0  0  0  0  0  0  0  0  0  0  0  0
    0.5140    2.6530    3.2690 H   0  0  0  0  0  0  0  0  0  0  0  0
   -4.7760   -3.1570   -3.3810 C   0  0  0  0  0  0  0  0  0  0  0  0
   -3.5500   -3.3460   -2.5120 C   0  0  0  0  0  0  0  0  0  0  0  0
   -3.7830   -4.5950   -1.6890 C   0  0  0  0  0  0  0  0  0  0  0  0
   -3.4480   -2.1590   -1.5730 C   0  0  2  0  0  0  0  0  0  0  0  0
   -2.2730   -2.3340   -0.7340 N   0  0  0  0  0  0  0  0  0  0  0  0
   -4.6370   -2.1460   -0.6950 C   0  0  0  0  0  0  0  0  0  0  0  0
   -4.5440   -2.2900    0.5470 O   0  0  0  0  0  0  0  0  0  0  0  0
   -5.9240   -1.9730   -1.2080 O   0  0  0  0  0  0  0  0  0  0  0  0
   -5.6520   -3.7060   -2.9570 H   0  0  0  0  0  0  0  0  0  0  0  0
   -5.0660   -2.0960   -3.4440 H   0  0  0  0  0  0  0  0  0  0  0  0
   -4.6180   -3.6060   -4.3980 H   0  0  0  0  0  0  0  0  0  0  0  0
   -2.6480   -3.4810   -3.1080 H   0  0  0  0  0  0  0  0  0  0  0  0
   -4.0760   -5.4090   -2.3870 H   0  0  0  0  0  0  0  0  0  0  0  0
   -2.9080   -4.8660   -1.0660 H   0  0  0  0  0  0  0  0  0  0  0  0
   -4.6930   -4.3870   -1.0670 H   0  0  0  0  0  0  0  0  0  0  0  0
   -3.2990   -1.2270   -2.1480 H   0  0  0  0  0  0  0  0  0  0  0  0
   -2.2280   -3.1180   -0.0330 H   0  0  0  0  0  0  0  0  0  0  0  0
  1 13  1  0  0  0  0
  2  1  1  0  0  0  0
  3 14  1  0  0  0  0
  3  2  2  0  0  0  0
  4  3  1  0  0  0  0
  5  4  2  0  0  0  0
  5 11  1  0  0  0  0
  6  5  1  0  0  0  0
  7 18  1  6  0  0  0
  7  8  1  0  0  0  0
  7  9  1  0  0  0  0
  7  6  1  0  0  0  0
  8 20  1  0  0  0  0
  9 30  1  0  0  0  0
 10  9  2  0  0  0  0
 11 12  2  0  0  0  0
 12  2  1  0  0  0  0
 12 22  1  0  0  0  0
 15  4  1  0  0  0  0
 16  6  1  0  0  0  0
 17  6  1  0  0  0  0
 19  8  1  0  0  0  0
 21 11  1  0  0  0  0
 23 35  1  0  0  0  0
 24 23  1  0  0  0  0
 25 36  1  0  0  0  0
 25 24  2  0  0  0  0
 26 25  1  0  0  0  0
 27 26  2  0  0  0  0
 27 33  1  0  0  0  0
 28 38  1  0  0  0  0
 28 27  1  0  0  0  0
 28 39  1  0  0  0  0
 29 40  1  6  0  0  0
 29 28  1  0  0  0  0
 30 41  1  0  0  0  0
 30 29  1  0  0  0  0
 31 48  1  0  0  0  0
 31 29  1  0  0  0  0
 32 31  2  0  0  0  0
 33 34  2  0  0  0  0
 34 24  1  0  0  0  0
 34 43  1  0  0  0  0
 37 26  1  0  0  0  0
 42 33  1  0  0  0  0
 44 52  1  0  0  0  0
 44 45  1  0  0  0  0
 45 46  1  0  0  0  0
 45 47  1  0  0  0  0
 46 58  1  0  0  0  0
 46 57  1  0  0  0  0
 47 59  1  6  0  0  0
 47 48  1  0  0  0  0
 47 49  1  0  0  0  0
 48 60  1  0  0  0  0
 49 50  1  0  0  0  0
 51 49  2  0  0  0  0
 53 44  1  0  0  0  0
 54 44  1  0  0  0  0
 55 45  1  0  0  0  0
 56 46  1  0  0  0  0
M  END
$$$$
