YYW.pdb
 OpenBabel07022419233D

 68 71  0  0  1  0  0  0  0  0999 V2000
    4.4790   -6.1320    0.4740 O   0  0  0  0  0  0  0  0  0  0  0  0
    3.1960   -5.9870   -0.0290 C   0  0  0  0  0  0  0  0  0  0  0  0
    2.9250   -4.9020   -0.8370 C   0  0  0  0  0  0  0  0  0  0  0  0
    1.6550   -4.7150   -1.3630 C   0  0  0  0  0  0  0  0  0  0  0  0
    0.6290   -5.5900   -1.1050 C   0  0  0  0  0  0  0  0  0  0  0  0
   -0.7130   -5.3930   -1.6490 C   0  0  0  0  0  0  0  0  0  0  0  0
   -1.6310   -4.6480   -0.7190 C   0  0  2  0  0  0  0  0  0  0  0  0
   -2.9460   -4.4990   -1.3520 N   0  0  0  0  0  0  0  0  0  0  0  0
   -1.1030   -3.3000   -0.4620 C   0  0  0  0  0  0  0  0  0  0  0  0
   -0.0050   -3.1180    0.1280 O   0  0  0  0  0  0  0  0  0  0  0  0
    0.9250   -6.6800   -0.2860 C   0  0  0  0  0  0  0  0  0  0  0  0
    2.1670   -6.8680    0.2320 C   0  0  0  0  0  0  0  0  0  0  0  0
    4.8610   -5.4250    1.1100 H   0  0  0  0  0  0  0  0  0  0  0  0
    3.7070   -4.2130   -1.0480 H   0  0  0  0  0  0  0  0  0  0  0  0
    1.5250   -3.8370   -1.9970 H   0  0  0  0  0  0  0  0  0  0  0  0
   -0.6330   -4.8070   -2.5890 H   0  0  0  0  0  0  0  0  0  0  0  0
   -1.1470   -6.3940   -1.8610 H   0  0  0  0  0  0  0  0  0  0  0  0
   -1.7570   -5.2410    0.2180 H   0  0  0  0  0  0  0  0  0  0  0  0
   -3.0200   -5.2230   -2.0780 H   0  0  0  0  0  0  0  0  0  0  0  0
   -3.6550   -4.5720   -0.5930 H   0  0  0  0  0  0  0  0  0  0  0  0
    0.1110   -7.3620   -0.0890 H   0  0  0  0  0  0  0  0  0  0  0  0
    2.3700   -7.7290    0.8700 H   0  0  0  0  0  0  0  0  0  0  0  0
    0.8170    5.1250   -2.2340 O   0  0  0  0  0  0  0  0  0  0  0  0
    0.3230    3.8320   -2.1570 C   0  0  0  0  0  0  0  0  0  0  0  0
   -1.0430    3.6250   -2.0020 C   0  0  0  0  0  0  0  0  0  0  0  0
   -1.5580    2.3290   -1.9220 C   0  0  0  0  0  0  0  0  0  0  0  0
   -0.7350    1.2320   -1.9950 C   0  0  0  0  0  0  0  0  0  0  0  0
   -1.2330   -0.1300   -1.9260 C   0  0  0  0  0  0  0  0  0  0  0  0
   -1.2600   -0.8030   -0.6030 C   0  0  2  0  0  0  0  0  0  0  0  0
   -1.8090   -2.1630   -0.8680 N   0  0  0  0  0  0  0  0  0  0  0  0
   -2.1630   -0.2400    0.4100 C   0  0  0  0  0  0  0  0  0  0  0  0
   -3.2380   -0.7720    0.8080 O   0  0  0  0  0  0  0  0  0  0  0  0
    0.6200    1.4610   -2.1490 C   0  0  0  0  0  0  0  0  0  0  0  0
    1.1350    2.7430   -2.2290 C   0  0  0  0  0  0  0  0  0  0  0  0
    0.9810    5.6390   -1.3680 H   0  0  0  0  0  0  0  0  0  0  0  0
   -1.6640    4.4990   -1.9480 H   0  0  0  0  0  0  0  0  0  0  0  0
   -2.6310    2.2570   -1.8020 H   0  0  0  0  0  0  0  0  0  0  0  0
   -2.2610   -0.2270   -2.3890 H   0  0  0  0  0  0  0  0  0  0  0  0
   -0.6120   -0.8040   -2.5980 H   0  0  0  0  0  0  0  0  0  0  0  0
   -0.2670   -0.9270   -0.1360 H   0  0  0  0  0  0  0  0  0  0  0  0
   -2.7210   -2.2460   -1.3580 H   0  0  0  0  0  0  0  0  0  0  0  0
    1.3440    0.6420   -2.2160 H   0  0  0  0  0  0  0  0  0  0  0  0
    2.2100    2.9010   -2.3500 H   0  0  0  0  0  0  0  0  0  0  0  0
   -1.8330    0.9990    1.0210 N   0  0  0  0  0  0  0  0  0  0  0  0
   -2.6420    1.6170    2.0190 C   0  0  1  0  0  0  0  0  0  0  0  0
   -1.9990    1.3460    3.3830 C   0  0  0  0  0  0  0  0  0  0  0  0
   -0.6320    1.8710    3.4960 C   0  0  0  0  0  0  0  0  0  0  0  0
   -0.3090    3.1100    4.0650 C   0  0  0  0  0  0  0  0  0  0  0  0
    1.0080    3.2770    3.9720 N   0  0  0  0  0  0  0  0  0  0  0  0
    1.5490    2.1850    3.3620 C   0  0  0  0  0  0  0  0  0  0  0  0
    2.8340    1.8610    3.0410 C   0  0  0  0  0  0  0  0  0  0  0  0
    3.1660    0.6680    2.4210 C   0  0  0  0  0  0  0  0  0  0  0  0
    2.1440   -0.1970    2.1320 C   0  0  0  0  0  0  0  0  0  0  0  0
    0.8510    0.0940    2.4360 C   0  0  0  0  0  0  0  0  0  0  0  0
    0.5410    1.2940    3.0560 C   0  0  0  0  0  0  0  0  0  0  0  0
   -2.9490    3.0250    1.8430 C   0  0  0  0  0  0  0  0  0  0  0  0
   -2.5130    3.6590    0.8650 O   0  0  0  0  0  0  0  0  0  0  0  0
   -3.7320    3.7000    2.7560 O   0  0  0  0  0  0  0  0  0  0  0  0
   -0.9550    1.5380    0.7620 H   0  0  0  0  0  0  0  0  0  0  0  0
   -3.6030    1.0100    2.0500 H   0  0  0  0  0  0  0  0  0  0  0  0
   -1.9990    0.2250    3.5080 H   0  0  0  0  0  0  0  0  0  0  0  0
   -2.6530    1.7190    4.2070 H   0  0  0  0  0  0  0  0  0  0  0  0
   -1.0170    3.7820    4.4920 H   0  0  0  0  0  0  0  0  0  0  0  0
    1.5940    4.0760    4.2880 H   0  0  0  0  0  0  0  0  0  0  0  0
    3.6350    2.5560    3.2770 H   0  0  0  0  0  0  0  0  0  0  0  0
    4.2010    0.4540    2.1850 H   0  0  0  0  0  0  0  0  0  0  0  0
    2.3800   -1.1370    1.6470 H   0  0  0  0  0  0  0  0  0  0  0  0
    0.0610   -0.6010    2.2110 H   0  0  0  0  0  0  0  0  0  0  0  0
  1 13  1  0  0  0  0
  2 12  1  0  0  0  0
  2  1  1  0  0  0  0
  3  2  2  0  0  0  0
  4  5  2  0  0  0  0
  4  3  1  0  0  0  0
  5 11  1  0  0  0  0
  6  5  1  0  0  0  0
  6  7  1  0  0  0  0
  7  9  1  0  0  0  0
  7 18  1  1  0  0  0
  8  7  1  0  0  0  0
  8 20  1  0  0  0  0
  9 10  2  0  0  0  0
 11 21  1  0  0  0  0
 11 12  2  0  0  0  0
 12 22  1  0  0  0  0
 14  3  1  0  0  0  0
 15  4  1  0  0  0  0
 16  6  1  0  0  0  0
 17  6  1  0  0  0  0
 19  8  1  0  0  0  0
 23 24  1  0  0  0  0
 23 35  1  0  0  0  0
 24 25  1  0  0  0  0
 25 36  1  0  0  0  0
 25 26  2  0  0  0  0
 26 37  1  0  0  0  0
 27 28  1  0  0  0  0
 27 26  1  0  0  0  0
 28 29  1  0  0  0  0
 29 40  1  1  0  0  0
 29 31  1  0  0  0  0
 30 29  1  0  0  0  0
 30  9  1  0  0  0  0
 31 32  2  0  0  0  0
 31 44  1  0  0  0  0
 33 27  2  0  0  0  0
 34 24  2  0  0  0  0
 34 33  1  0  0  0  0
 38 28  1  0  0  0  0
 39 28  1  0  0  0  0
 41 30  1  0  0  0  0
 42 33  1  0  0  0  0
 43 34  1  0  0  0  0
 44 45  1  0  0  0  0
 45 60  1  6  0  0  0
 45 46  1  0  0  0  0
 46 47  1  0  0  0  0
 46 61  1  0  0  0  0
 46 62  1  0  0  0  0
 47 48  2  0  0  0  0
 48 63  1  0  0  0  0
 49 48  1  0  0  0  0
 49 64  1  0  0  0  0
 50 49  1  0  0  0  0
 51 65  1  0  0  0  0
 51 50  2  0  0  0  0
 52 51  1  0  0  0  0
 53 52  2  0  0  0  0
 53 54  1  0  0  0  0
 54 55  2  0  0  0  0
 55 50  1  0  0  0  0
 55 47  1  0  0  0  0
 56 45  1  0  0  0  0
 56 58  1  0  0  0  0
 57 56  2  0  0  0  0
 59 44  1  0  0  0  0
 66 52  1  0  0  0  0
 67 53  1  0  0  0  0
 68 54  1  0  0  0  0
M  END
$$$$
