YYY.pdb
 OpenBabel07022419233D

 65 67  0  0  1  0  0  0  0  0999 V2000
    1.0270    4.9980    7.7920 O   0  0  0  0  0  0  0  0  0  0  0  0
    0.9620    4.5720    6.4570 C   0  0  0  0  0  0  0  0  0  0  0  0
    1.7800    3.5660    5.9770 C   0  0  0  0  0  0  0  0  0  0  0  0
    1.6740    3.1870    4.6570 C   0  0  0  0  0  0  0  0  0  0  0  0
    0.7800    3.7640    3.7680 C   0  0  0  0  0  0  0  0  0  0  0  0
    0.7390    3.2880    2.3660 C   0  0  0  0  0  0  0  0  0  0  0  0
   -0.2450    2.1480    2.1920 C   0  0  2  0  0  0  0  0  0  0  0  0
    0.1920    1.0750    3.0580 N   0  0  0  0  0  0  0  0  0  0  0  0
   -0.3320    1.7100    0.7840 C   0  0  0  0  0  0  0  0  0  0  0  0
   -0.6960    2.4870   -0.1310 O   0  0  0  0  0  0  0  0  0  0  0  0
   -0.0330    4.7650    4.2520 C   0  0  0  0  0  0  0  0  0  0  0  0
    0.0680    5.1500    5.5710 C   0  0  0  0  0  0  0  0  0  0  0  0
    0.7560    4.2880    8.4790 H   0  0  0  0  0  0  0  0  0  0  0  0
    2.4890    3.1000    6.6590 H   0  0  0  0  0  0  0  0  0  0  0  0
    2.3240    2.3860    4.2710 H   0  0  0  0  0  0  0  0  0  0  0  0
    1.7570    2.9170    2.1090 H   0  0  0  0  0  0  0  0  0  0  0  0
    0.4860    4.1120    1.7000 H   0  0  0  0  0  0  0  0  0  0  0  0
   -1.2460    2.4740    2.5390 H   0  0  0  0  0  0  0  0  0  0  0  0
   -0.0060    1.2340    4.0490 H   0  0  0  0  0  0  0  0  0  0  0  0
    1.1690    0.7700    2.8550 H   0  0  0  0  0  0  0  0  0  0  0  0
   -0.7440    5.2340    3.5700 H   0  0  0  0  0  0  0  0  0  0  0  0
   -0.5750    5.9390    5.9470 H   0  0  0  0  0  0  0  0  0  0  0  0
    1.0810   -2.3950   -6.9030 O   0  0  0  0  0  0  0  0  0  0  0  0
    1.1100   -1.9530   -5.5720 C   0  0  0  0  0  0  0  0  0  0  0  0
    0.8480   -2.8410   -4.5460 C   0  0  0  0  0  0  0  0  0  0  0  0
    0.8740   -2.4110   -3.2240 C   0  0  0  0  0  0  0  0  0  0  0  0
    1.1560   -1.1080   -2.8830 C   0  0  0  0  0  0  0  0  0  0  0  0
    1.1770   -0.6400   -1.4850 C   0  0  0  0  0  0  0  0  0  0  0  0
   -0.0870   -0.0530   -0.9760 C   0  0  2  0  0  0  0  0  0  0  0  0
   -0.0040    0.3830    0.4030 N   0  0  0  0  0  0  0  0  0  0  0  0
   -1.1670   -1.0650   -1.0430 C   0  0  0  0  0  0  0  0  0  0  0  0
   -1.5070   -1.5910   -2.1120 O   0  0  0  0  0  0  0  0  0  0  0  0
    1.4160   -0.2380   -3.9340 C   0  0  0  0  0  0  0  0  0  0  0  0
    1.3930   -0.6490   -5.2480 C   0  0  0  0  0  0  0  0  0  0  0  0
    1.3940   -3.3550   -7.1060 H   0  0  0  0  0  0  0  0  0  0  0  0
    0.6270   -3.8620   -4.8300 H   0  0  0  0  0  0  0  0  0  0  0  0
    0.6690   -3.1540   -2.4830 H   0  0  0  0  0  0  0  0  0  0  0  0
    2.0590    0.0250   -1.3430 H   0  0  0  0  0  0  0  0  0  0  0  0
    1.4300   -1.5550   -0.8690 H   0  0  0  0  0  0  0  0  0  0  0  0
   -0.4360    0.8130   -1.5710 H   0  0  0  0  0  0  0  0  0  0  0  0
    0.3130   -0.3420    1.0990 H   0  0  0  0  0  0  0  0  0  0  0  0
    1.6440    0.7940   -3.7260 H   0  0  0  0  0  0  0  0  0  0  0  0
    1.5950    0.0210   -6.0820 H   0  0  0  0  0  0  0  0  0  0  0  0
    2.1860   -6.0070   -1.2730 O   0  0  0  0  0  0  0  0  0  0  0  0
    1.0240   -5.4540   -0.7480 C   0  0  0  0  0  0  0  0  0  0  0  0
   -0.2290   -5.8510   -1.1880 C   0  0  0  0  0  0  0  0  0  0  0  0
   -1.3620   -5.2770   -0.6420 C   0  0  0  0  0  0  0  0  0  0  0  0
   -1.3160   -4.3090    0.3380 C   0  0  0  0  0  0  0  0  0  0  0  0
   -2.5430   -3.7010    0.9160 C   0  0  0  0  0  0  0  0  0  0  0  0
   -2.9350   -2.4760    0.1100 C   0  0  2  0  0  0  0  0  0  0  0  0
   -1.8830   -1.4970    0.1280 N   0  0  0  0  0  0  0  0  0  0  0  0
   -4.2290   -1.9180    0.5810 C   0  0  0  0  0  0  0  0  0  0  0  0
   -4.3370   -0.7170    0.9400 O   0  0  0  0  0  0  0  0  0  0  0  0
   -0.0630   -3.9150    0.7740 C   0  0  0  0  0  0  0  0  0  0  0  0
    1.0700   -4.4860    0.2310 C   0  0  0  0  0  0  0  0  0  0  0  0
   -5.3780   -2.6940    0.6450 O   0  0  0  0  0  0  0  0  0  0  0  0
    2.8710   -6.4500   -0.6450 H   0  0  0  0  0  0  0  0  0  0  0  0
   -0.2710   -6.6150   -1.9610 H   0  0  0  0  0  0  0  0  0  0  0  0
   -2.3380   -5.5880   -0.9860 H   0  0  0  0  0  0  0  0  0  0  0  0
   -3.3660   -4.4480    0.7580 H   0  0  0  0  0  0  0  0  0  0  0  0
   -2.3880   -3.4670    1.9840 H   0  0  0  0  0  0  0  0  0  0  0  0
   -3.1000   -2.8340   -0.9270 H   0  0  0  0  0  0  0  0  0  0  0  0
   -1.6150   -1.0710    1.0300 H   0  0  0  0  0  0  0  0  0  0  0  0
   -0.0340   -3.1580    1.5400 H   0  0  0  0  0  0  0  0  0  0  0  0
    2.0440   -4.1690    0.5810 H   0  0  0  0  0  0  0  0  0  0  0  0
  1 13  1  0  0  0  0
  2  1  1  0  0  0  0
  3  2  1  0  0  0  0
  3 14  1  0  0  0  0
  4  3  2  0  0  0  0
  5 11  2  0  0  0  0
  5  4  1  0  0  0  0
  6  5  1  0  0  0  0
  7  6  1  0  0  0  0
  7 18  1  1  0  0  0
  7  8  1  0  0  0  0
  8 19  1  0  0  0  0
  9  7  1  0  0  0  0
 10  9  2  0  0  0  0
 11 12  1  0  0  0  0
 12 22  1  0  0  0  0
 12  2  2  0  0  0  0
 15  4  1  0  0  0  0
 16  6  1  0  0  0  0
 17  6  1  0  0  0  0
 20  8  1  0  0  0  0
 21 11  1  0  0  0  0
 23 24  1  0  0  0  0
 24 34  2  0  0  0  0
 24 25  1  0  0  0  0
 25 26  2  0  0  0  0
 26 27  1  0  0  0  0
 26 37  1  0  0  0  0
 27 28  1  0  0  0  0
 28 38  1  0  0  0  0
 28 29  1  0  0  0  0
 28 39  1  0  0  0  0
 29 40  1  6  0  0  0
 29 30  1  0  0  0  0
 30  9  1  0  0  0  0
 30 41  1  0  0  0  0
 31 29  1  0  0  0  0
 31 51  1  0  0  0  0
 32 31  2  0  0  0  0
 33 42  1  0  0  0  0
 33 27  2  0  0  0  0
 34 33  1  0  0  0  0
 35 23  1  0  0  0  0
 36 25  1  0  0  0  0
 43 34  1  0  0  0  0
 44 45  1  0  0  0  0
 44 57  1  0  0  0  0
 45 55  1  0  0  0  0
 46 45  2  0  0  0  0
 46 47  1  0  0  0  0
 47 48  2  0  0  0  0
 48 54  1  0  0  0  0
 48 49  1  0  0  0  0
 49 61  1  0  0  0  0
 50 62  1  6  0  0  0
 50 51  1  0  0  0  0
 50 52  1  0  0  0  0
 50 49  1  0  0  0  0
 51 63  1  0  0  0  0
 52 56  2  0  0  0  0
 52 53  1  0  0  0  0
 54 64  1  0  0  0  0
 55 65  1  0  0  0  0
 55 54  2  0  0  0  0
 58 46  1  0  0  0  0
 59 47  1  0  0  0  0
 60 49  1  0  0  0  0
M  END
$$$$
