WWE.pdb
     RDKit          3D

 38 41  0  0  1  0  0  0  0  0999 V2000
   28.6879  -21.1502  -14.9701 N   0  0  0  0  0  0  0  0  0  0  0  0
   27.7844  -20.1653  -14.4160 C   0  0  1  0  0  0  0  0  0  0  0  0
   26.7975  -19.6406  -15.4614 C   0  0  0  0  0  0  0  0  0  0  0  0
   27.4881  -18.6185  -16.2803 C   0  0  0  0  0  0  0  0  0  0  0  0
   28.1373  -18.8201  -17.4912 C   0  0  0  0  0  0  0  0  0  0  0  0
   28.6313  -17.6248  -17.9078 N   0  0  0  0  0  0  0  0  0  0  0  0
   28.3349  -16.6695  -17.0334 C   0  0  0  0  0  0  0  0  0  0  0  0
   28.5718  -15.3230  -16.9322 C   0  0  0  0  0  0  0  0  0  0  0  0
   28.1098  -14.5991  -15.8434 C   0  0  0  0  0  0  0  0  0  0  0  0
   27.4035  -15.1974  -14.8331 C   0  0  0  0  0  0  0  0  0  0  0  0
   27.1652  -16.5621  -14.9389 C   0  0  0  0  0  0  0  0  0  0  0  0
   27.6173  -17.2772  -16.0062 C   0  0  0  0  0  0  0  0  0  0  0  0
   26.9391  -20.8938  -13.4208 C   0  0  0  0  0  0  0  0  0  0  0  0
   26.5210  -22.0529  -13.6447 O   0  0  0  0  0  0  0  0  0  0  0  0
   26.5494  -20.3288  -12.1655 N   0  0  0  0  0  0  0  0  0  0  0  0
   25.7045  -21.0657  -11.2602 C   0  0  1  0  0  0  0  0  0  0  0  0
   25.9073  -20.5731   -9.8534 C   0  0  0  0  0  0  0  0  0  0  0  0
   27.2384  -20.8713   -9.3059 C   0  0  0  0  0  0  0  0  0  0  0  0
   28.2068  -21.6146   -9.9602 C   0  0  0  0  0  0  0  0  0  0  0  0
   29.2870  -21.6168   -9.1686 N   0  0  0  0  0  0  0  0  0  0  0  0
   29.0619  -20.9190   -8.0464 C   0  0  0  0  0  0  0  0  0  0  0  0
   29.8210  -20.6267   -6.9274 C   0  0  0  0  0  0  0  0  0  0  0  0
   29.2813  -19.8716   -5.9128 C   0  0  0  0  0  0  0  0  0  0  0  0
   27.9961  -19.3854   -5.9600 C   0  0  0  0  0  0  0  0  0  0  0  0
   27.2446  -19.6795   -7.0748 C   0  0  0  0  0  0  0  0  0  0  0  0
   27.7724  -20.4349   -8.1044 C   0  0  0  0  0  0  0  0  0  0  0  0
   24.2586  -20.8398  -11.5962 C   0  0  0  0  0  0  0  0  0  0  0  0
   23.9406  -19.6729  -11.9361 O   0  0  0  0  0  0  0  0  0  0  0  0
   23.2612  -21.8131  -11.5627 N   0  0  0  0  0  0  0  0  0  0  0  0
   21.8826  -21.4876  -11.9114 C   0  0  1  0  0  0  0  0  0  0  0  0
   21.3962  -22.3549  -13.0109 C   0  0  0  0  0  0  0  0  0  0  0  0
   21.5480  -21.8838  -14.4036 C   0  0  0  0  0  0  0  0  0  0  0  0
   20.4074  -21.1051  -14.9308 C   0  0  0  0  0  0  0  0  0  0  0  0
   20.2992  -19.8997  -14.6256 O   0  0  0  0  0  0  0  0  0  0  0  0
   21.0630  -21.3120  -10.7382 C   0  0  0  0  0  0  0  0  0  0  0  0
   21.5825  -21.5990   -9.6064 O   0  0  0  0  0  0  0  0  0  0  0  0
   19.4571  -21.7122  -15.7618 O   0  0  0  0  0  0  0  0  0  0  0  0
   19.7541  -20.8622  -10.7076 O   0  0  0  0  0  0  0  0  0  0  0  0
  2  1  1  6
  3  2  1  0
  4  5  2  0
  4  3  1  0
  6  5  1  0
  7 12  2  0
  7  6  1  0
  8  7  1  0
  9 10  1  0
  9  8  2  0
 10 11  2  0
 11 12  1  0
 12  4  1  0
 13  2  1  0
 14 13  2  0
 15 13  1  0
 16 15  1  0
 16 17  1  1
 18 19  2  0
 18 17  1  0
 20 19  1  0
 21 26  2  0
 21 20  1  0
 22 21  1  0
 23 24  1  0
 23 22  2  0
 24 25  2  0
 25 26  1  0
 26 18  1  0
 27 29  1  0
 27 16  1  0
 28 27  2  0
 30 29  1  0
 30 31  1  6
 31 32  1  0
 32 33  1  0
 33 37  1  0
 34 33  2  0
 35 38  1  0
 35 30  1  0
 36 35  2  0
M  END
$$$$
