WWE.pdb
     RDKit          3D

 38 41  0  0  1  0  0  0  0  0999 V2000
   25.1103  -22.2703  -16.9272 N   0  0  0  0  0  0  0  0  0  0  0  0
   23.9601  -21.4132  -16.7389 C   0  0  1  0  0  0  0  0  0  0  0  0
   22.8523  -21.7097  -17.7524 C   0  0  0  0  0  0  0  0  0  0  0  0
   23.2885  -21.2103  -19.0764 C   0  0  0  0  0  0  0  0  0  0  0  0
   23.8242  -21.9605  -20.1149 C   0  0  0  0  0  0  0  0  0  0  0  0
   24.0852  -21.1200  -21.1500 N   0  0  0  0  0  0  0  0  0  0  0  0
   23.7466  -19.8747  -20.8341 C   0  0  0  0  0  0  0  0  0  0  0  0
   23.7889  -18.6564  -21.4610 C   0  0  0  0  0  0  0  0  0  0  0  0
   23.3455  -17.5099  -20.8191 C   0  0  0  0  0  0  0  0  0  0  0  0
   22.8514  -17.5500  -19.5417 C   0  0  0  0  0  0  0  0  0  0  0  0
   22.8100  -18.7864  -18.9092 C   0  0  0  0  0  0  0  0  0  0  0  0
   23.2446  -19.9149  -19.5356 C   0  0  0  0  0  0  0  0  0  0  0  0
   23.3785  -21.7878  -15.4133 C   0  0  0  0  0  0  0  0  0  0  0  0
   23.3944  -22.9718  -15.0053 O   0  0  0  0  0  0  0  0  0  0  0  0
   22.7684  -20.8396  -14.5325 N   0  0  0  0  0  0  0  0  0  0  0  0
   22.2740  -21.2493  -13.2425 C   0  0  1  0  0  0  0  0  0  0  0  0
   22.5246  -20.1659  -12.2295 C   0  0  0  0  0  0  0  0  0  0  0  0
   23.8936  -20.1583  -11.6945 C   0  0  0  0  0  0  0  0  0  0  0  0
   25.0242  -19.8622  -12.4377 C   0  0  0  0  0  0  0  0  0  0  0  0
   26.0610  -19.9071  -11.5914 N   0  0  0  0  0  0  0  0  0  0  0  0
   25.6562  -20.2167  -10.3515 C   0  0  0  0  0  0  0  0  0  0  0  0
   26.3072  -20.3951   -9.1439 C   0  0  0  0  0  0  0  0  0  0  0  0
   25.5868  -20.7288   -8.0212 C   0  0  0  0  0  0  0  0  0  0  0  0
   24.2225  -20.8978   -8.0446 C   0  0  0  0  0  0  0  0  0  0  0  0
   23.5795  -20.7200   -9.2483 C   0  0  0  0  0  0  0  0  0  0  0  0
   24.2880  -20.3822  -10.3854 C   0  0  0  0  0  0  0  0  0  0  0  0
   20.7882  -21.4593  -13.2965 C   0  0  0  0  0  0  0  0  0  0  0  0
   20.1356  -20.6502  -14.0020 O   0  0  0  0  0  0  0  0  0  0  0  0
   20.0921  -22.4705  -12.6359 N   0  0  0  0  0  0  0  0  0  0  0  0
   18.6478  -22.6095  -12.7865 C   0  0  1  0  0  0  0  0  0  0  0  0
   18.2135  -23.9910  -12.4698 C   0  0  0  0  0  0  0  0  0  0  0  0
   17.3288  -24.2050  -11.3053 C   0  0  0  0  0  0  0  0  0  0  0  0
   17.7419  -25.2936  -10.3945 C   0  0  0  0  0  0  0  0  0  0  0  0
   17.1076  -25.4757   -9.3350 O   0  0  0  0  0  0  0  0  0  0  0  0
   17.9410  -21.4976  -12.2005 C   0  0  0  0  0  0  0  0  0  0  0  0
   16.8100  -21.1841  -12.7062 O   0  0  0  0  0  0  0  0  0  0  0  0
   18.8336  -26.1109  -10.7144 O   0  0  0  0  0  0  0  0  0  0  0  0
   18.3649  -20.7212  -11.1355 O   0  0  0  0  0  0  0  0  0  0  0  0
  2  1  1  6
  3  2  1  0
  4  5  2  0
  4  3  1  0
  6  5  1  0
  7 12  2  0
  7  6  1  0
  8  7  1  0
  9 10  1  0
  9  8  2  0
 10 11  2  0
 11 12  1  0
 12  4  1  0
 13  2  1  0
 14 13  2  0
 15 13  1  0
 16 15  1  0
 16 17  1  1
 18 19  2  0
 18 17  1  0
 20 19  1  0
 21 26  2  0
 21 20  1  0
 22 21  1  0
 23 24  1  0
 23 22  2  0
 24 25  2  0
 25 26  1  0
 26 18  1  0
 27 29  1  0
 27 16  1  0
 28 27  2  0
 30 29  1  0
 30 31  1  1
 31 32  1  0
 32 33  1  0
 33 37  1  0
 34 33  2  0
 35 38  1  0
 35 30  1  0
 36 35  2  0
M  END
$$$$
