WWE.pdb
     RDKit          3D

 38 41  0  0  1  0  0  0  0  0999 V2000
   26.0706  -19.7891  -12.0251 N   0  0  0  0  0  0  0  0  0  0  0  0
   24.8333  -20.5367  -11.9673 C   0  0  1  0  0  0  0  0  0  0  0  0
   24.8389  -21.7293  -12.9264 C   0  0  0  0  0  0  0  0  0  0  0  0
   24.9342  -21.2117  -14.3104 C   0  0  0  0  0  0  0  0  0  0  0  0
   25.9531  -21.4539  -15.2223 C   0  0  0  0  0  0  0  0  0  0  0  0
   25.6528  -20.7964  -16.3729 N   0  0  0  0  0  0  0  0  0  0  0  0
   24.4998  -20.1479  -16.2502 C   0  0  0  0  0  0  0  0  0  0  0  0
   23.7348  -19.3440  -17.0549 C   0  0  0  0  0  0  0  0  0  0  0  0
   22.5430  -18.8043  -16.5951 C   0  0  0  0  0  0  0  0  0  0  0  0
   22.0869  -19.0518  -15.3269 C   0  0  0  0  0  0  0  0  0  0  0  0
   22.8647  -19.8669  -14.5139 C   0  0  0  0  0  0  0  0  0  0  0  0
   24.0361  -20.3989  -14.9612 C   0  0  0  0  0  0  0  0  0  0  0  0
   24.7800  -21.1423  -10.6013 C   0  0  0  0  0  0  0  0  0  0  0  0
   25.1082  -22.3346  -10.4033 O   0  0  0  0  0  0  0  0  0  0  0  0
   24.3537  -20.4190   -9.4428 N   0  0  0  0  0  0  0  0  0  0  0  0
   24.2678  -21.0717   -8.1610 C   0  0  1  0  0  0  0  0  0  0  0  0
   24.6817  -20.1201   -7.0721 C   0  0  0  0  0  0  0  0  0  0  0  0
   26.1307  -19.8811   -7.0114 C   0  0  0  0  0  0  0  0  0  0  0  0
   26.8894  -19.3924   -8.0621 C   0  0  0  0  0  0  0  0  0  0  0  0
   28.1407  -19.2635   -7.6028 N   0  0  0  0  0  0  0  0  0  0  0  0
   28.2234  -19.6437   -6.3200 C   0  0  0  0  0  0  0  0  0  0  0  0
   29.2566  -19.7140   -5.4027 C   0  0  0  0  0  0  0  0  0  0  0  0
   29.0108  -20.1713   -4.1294 C   0  0  0  0  0  0  0  0  0  0  0  0
   27.7611  -20.5709   -3.7186 C   0  0  0  0  0  0  0  0  0  0  0  0
   26.7367  -20.5000   -4.6349 C   0  0  0  0  0  0  0  0  0  0  0  0
   26.9660  -20.0405   -5.9177 C   0  0  0  0  0  0  0  0  0  0  0  0
   22.8492  -21.4714   -7.8737 C   0  0  0  0  0  0  0  0  0  0  0  0
   21.9557  -20.6856   -8.2767 O   0  0  0  0  0  0  0  0  0  0  0  0
   22.4573  -22.6315   -7.2075 N   0  0  0  0  0  0  0  0  0  0  0  0
   21.0461  -22.9418   -7.0072 C   0  0  1  0  0  0  0  0  0  0  0  0
   20.8547  -24.3878   -6.7430 C   0  0  0  0  0  0  0  0  0  0  0  0
   19.4805  -24.8953   -6.5463 C   0  0  0  0  0  0  0  0  0  0  0  0
   19.2956  -25.7659   -5.3660 C   0  0  0  0  0  0  0  0  0  0  0  0
   20.2188  -26.5331   -5.0238 O   0  0  0  0  0  0  0  0  0  0  0  0
   20.4050  -21.9782   -6.1472 C   0  0  0  0  0  0  0  0  0  0  0  0
   21.1213  -21.4209   -5.2475 O   0  0  0  0  0  0  0  0  0  0  0  0
   18.0979  -25.7329   -4.6403 O   0  0  0  0  0  0  0  0  0  0  0  0
   19.0770  -21.5896   -6.1915 O   0  0  0  0  0  0  0  0  0  0  0  0
  2  1  1  1
  3  2  1  0
  4  5  2  0
  4  3  1  0
  6  5  1  0
  7 12  2  0
  7  6  1  0
  8  7  1  0
  9 10  1  0
  9  8  2  0
 10 11  2  0
 11 12  1  0
 12  4  1  0
 13  2  1  0
 14 13  2  0
 15 13  1  0
 16 15  1  0
 16 17  1  1
 18 19  2  0
 18 17  1  0
 20 19  1  0
 21 26  2  0
 21 20  1  0
 22 21  1  0
 23 24  1  0
 23 22  2  0
 24 25  2  0
 25 26  1  0
 26 18  1  0
 27 29  1  0
 27 16  1  0
 28 27  2  0
 30 29  1  0
 30 31  1  1
 31 32  1  0
 32 33  1  0
 33 37  1  0
 34 33  2  0
 35 38  1  0
 35 30  1  0
 36 35  2  0
M  END
$$$$
