WWE.pdb
     RDKit          3D

 38 41  0  0  1  0  0  0  0  0999 V2000
   28.8992  -21.1987  -13.8664 N   0  0  0  0  0  0  0  0  0  0  0  0
   27.8993  -20.2533  -13.4194 C   0  0  1  0  0  0  0  0  0  0  0  0
   26.8261  -20.0086  -14.4826 C   0  0  0  0  0  0  0  0  0  0  0  0
   27.4151  -19.1723  -15.5531 C   0  0  0  0  0  0  0  0  0  0  0  0
   27.8151  -19.5933  -16.8145 C   0  0  0  0  0  0  0  0  0  0  0  0
   28.2964  -18.5140  -17.4852 N   0  0  0  0  0  0  0  0  0  0  0  0
   28.2268  -17.4261  -16.7258 C   0  0  0  0  0  0  0  0  0  0  0  0
   28.5612  -16.1046  -16.8703 C   0  0  0  0  0  0  0  0  0  0  0  0
   28.3545  -15.2013  -15.8386 C   0  0  0  0  0  0  0  0  0  0  0  0
   27.8117  -15.5919  -14.6427 C   0  0  0  0  0  0  0  0  0  0  0  0
   27.4740  -16.9320  -14.4995 C   0  0  0  0  0  0  0  0  0  0  0  0
   27.6755  -17.8228  -15.5099 C   0  0  0  0  0  0  0  0  0  0  0  0
   27.1779  -20.9178  -12.2908 C   0  0  0  0  0  0  0  0  0  0  0  0
   26.6642  -22.0523  -12.4232 O   0  0  0  0  0  0  0  0  0  0  0  0
   27.0204  -20.3154  -11.0027 N   0  0  0  0  0  0  0  0  0  0  0  0
   26.0414  -20.8182  -10.0725 C   0  0  1  0  0  0  0  0  0  0  0  0
   26.2496  -20.1926   -8.7205 C   0  0  0  0  0  0  0  0  0  0  0  0
   27.5455  -20.5186   -8.1084 C   0  0  0  0  0  0  0  0  0  0  0  0
   28.5445  -21.2496   -8.7300 C   0  0  0  0  0  0  0  0  0  0  0  0
   29.5781  -21.2852   -7.8794 N   0  0  0  0  0  0  0  0  0  0  0  0
   29.2947  -20.6202   -6.7504 C   0  0  0  0  0  0  0  0  0  0  0  0
   29.9912  -20.3687   -5.5820 C   0  0  0  0  0  0  0  0  0  0  0  0
   29.4001  -19.6405   -4.5764 C   0  0  0  0  0  0  0  0  0  0  0  0
   28.1229  -19.1423   -4.6807 C   0  0  0  0  0  0  0  0  0  0  0  0
   27.4336  -19.3958   -5.8447 C   0  0  0  0  0  0  0  0  0  0  0  0
   28.0137  -20.1237   -6.8658 C   0  0  0  0  0  0  0  0  0  0  0  0
   24.6578  -20.4417  -10.5179 C   0  0  0  0  0  0  0  0  0  0  0  0
   24.5434  -19.3412  -11.1129 O   0  0  0  0  0  0  0  0  0  0  0  0
   23.5114  -21.2114  -10.3263 N   0  0  0  0  0  0  0  0  0  0  0  0
   22.2733  -20.9031  -11.0335 C   0  0  1  0  0  0  0  0  0  0  0  0
   22.2208  -21.6045  -12.3384 C   0  0  0  0  0  0  0  0  0  0  0  0
   21.0406  -21.4001  -13.2044 C   0  0  0  0  0  0  0  0  0  0  0  0
   20.0893  -22.5308  -13.2464 C   0  0  0  0  0  0  0  0  0  0  0  0
   20.5289  -23.6935  -13.3592 O   0  0  0  0  0  0  0  0  0  0  0  0
   21.1299  -20.9605  -10.1569 C   0  0  0  0  0  0  0  0  0  0  0  0
   20.1332  -20.2110  -10.4363 O   0  0  0  0  0  0  0  0  0  0  0  0
   18.7099  -22.3014  -13.1627 O   0  0  0  0  0  0  0  0  0  0  0  0
   20.9967  -21.7500   -9.0274 O   0  0  0  0  0  0  0  0  0  0  0  0
  2  1  1  6
  3  2  1  0
  4  5  2  0
  4  3  1  0
  6  5  1  0
  7 12  2  0
  7  6  1  0
  8  7  1  0
  9 10  1  0
  9  8  2  0
 10 11  2  0
 11 12  1  0
 12  4  1  0
 13  2  1  0
 14 13  2  0
 15 13  1  0
 16 15  1  0
 16 17  1  1
 18 19  2  0
 18 17  1  0
 20 19  1  0
 21 26  2  0
 21 20  1  0
 22 21  1  0
 23 24  1  0
 23 22  2  0
 24 25  2  0
 25 26  1  0
 26 18  1  0
 27 29  1  0
 27 16  1  0
 28 27  2  0
 30 29  1  0
 30 31  1  6
 31 32  1  0
 32 33  1  0
 33 37  1  0
 34 33  2  0
 35 38  1  0
 35 30  1  0
 36 35  2  0
M  END
$$$$
