WWE.pdb
     RDKit          3D

 38 41  0  0  1  0  0  0  0  0999 V2000
   15.2973  -16.2255    5.7553 N   0  0  0  0  0  0  0  0  0  0  0  0
   16.5355  -16.6727    5.1554 C   0  0  1  0  0  0  0  0  0  0  0  0
   17.7563  -16.2427    5.9723 C   0  0  0  0  0  0  0  0  0  0  0  0
   18.2044  -14.9212    5.4771 C   0  0  0  0  0  0  0  0  0  0  0  0
   18.2184  -13.7269    6.1853 C   0  0  0  0  0  0  0  0  0  0  0  0
   18.7050  -12.7579    5.3664 N   0  0  0  0  0  0  0  0  0  0  0  0
   19.0039  -13.2636    4.1748 C   0  0  0  0  0  0  0  0  0  0  0  0
   19.5046  -12.7723    2.9970 C   0  0  0  0  0  0  0  0  0  0  0  0
   19.6948  -13.6029    1.9030 C   0  0  0  0  0  0  0  0  0  0  0  0
   19.3916  -14.9381    1.9563 C   0  0  0  0  0  0  0  0  0  0  0  0
   18.8844  -15.4328    3.1515 C   0  0  0  0  0  0  0  0  0  0  0  0
   18.6955  -14.6207    4.2284 C   0  0  0  0  0  0  0  0  0  0  0  0
   16.5212  -18.1653    5.2423 C   0  0  0  0  0  0  0  0  0  0  0  0
   16.1064  -18.7549    6.2663 O   0  0  0  0  0  0  0  0  0  0  0  0
   16.9763  -19.0133    4.1836 N   0  0  0  0  0  0  0  0  0  0  0  0
   17.0861  -20.4366    4.3796 C   0  0  1  0  0  0  0  0  0  0  0  0
   17.4588  -21.1054    3.0848 C   0  0  0  0  0  0  0  0  0  0  0  0
   17.3473  -22.5706    3.1196 C   0  0  0  0  0  0  0  0  0  0  0  0
   16.1584  -23.2629    3.2807 C   0  0  0  0  0  0  0  0  0  0  0  0
   16.4608  -24.5652    3.2048 N   0  0  0  0  0  0  0  0  0  0  0  0
   17.7746  -24.7428    3.0063 C   0  0  0  0  0  0  0  0  0  0  0  0
   18.5844  -25.8560    2.8692 C   0  0  0  0  0  0  0  0  0  0  0  0
   19.9375  -25.6986    2.6814 C   0  0  0  0  0  0  0  0  0  0  0  0
   20.5341  -24.4612    2.6237 C   0  0  0  0  0  0  0  0  0  0  0  0
   19.7245  -23.3569    2.7615 C   0  0  0  0  0  0  0  0  0  0  0  0
   18.3627  -23.4973    2.9485 C   0  0  0  0  0  0  0  0  0  0  0  0
   18.1812  -20.7448    5.3596 C   0  0  0  0  0  0  0  0  0  0  0  0
   19.2461  -20.0910    5.2300 O   0  0  0  0  0  0  0  0  0  0  0  0
   18.1035  -21.6841    6.3867 N   0  0  0  0  0  0  0  0  0  0  0  0
   19.2698  -22.0017    7.2034 C   0  0  1  0  0  0  0  0  0  0  0  0
   19.4364  -21.0126    8.2949 C   0  0  0  0  0  0  0  0  0  0  0  0
   20.3921  -21.3127    9.3817 C   0  0  0  0  0  0  0  0  0  0  0  0
   21.5096  -20.3547    9.5176 C   0  0  0  0  0  0  0  0  0  0  0  0
   21.5856  -19.3909    8.7281 O   0  0  0  0  0  0  0  0  0  0  0  0
   19.3378  -23.4086    7.5117 C   0  0  0  0  0  0  0  0  0  0  0  0
   20.4731  -23.8835    7.8563 O   0  0  0  0  0  0  0  0  0  0  0  0
   22.4739  -20.5263   10.5190 O   0  0  0  0  0  0  0  0  0  0  0  0
   18.2900  -24.3125    7.4707 O   0  0  0  0  0  0  0  0  0  0  0  0
  2  1  1  1
  3  2  1  0
  4  5  2  0
  4  3  1  0
  6  5  1  0
  7 12  2  0
  7  6  1  0
  8  7  1  0
  9 10  1  0
  9  8  2  0
 10 11  2  0
 11 12  1  0
 12  4  1  0
 13  2  1  0
 14 13  2  0
 15 13  1  0
 16 15  1  0
 16 17  1  6
 18 19  2  0
 18 17  1  0
 20 19  1  0
 21 26  2  0
 21 20  1  0
 22 21  1  0
 23 24  1  0
 23 22  2  0
 24 25  2  0
 25 26  1  0
 26 18  1  0
 27 29  1  0
 27 16  1  0
 28 27  2  0
 30 29  1  0
 30 31  1  1
 31 32  1  0
 32 33  1  0
 33 37  1  0
 34 33  2  0
 35 38  1  0
 35 30  1  0
 36 35  2  0
M  END
$$$$
