WWE.pdb
     RDKit          3D

 38 41  0  0  1  0  0  0  0  0999 V2000
   28.2059  -21.6228  -12.9468 N   0  0  0  0  0  0  0  0  0  0  0  0
   27.2650  -20.5739  -12.6188 C   0  0  1  0  0  0  0  0  0  0  0  0
   26.1572  -20.4492  -13.6674 C   0  0  0  0  0  0  0  0  0  0  0  0
   26.7270  -19.7996  -14.8698 C   0  0  0  0  0  0  0  0  0  0  0  0
   27.0196  -20.4055  -16.0846 C   0  0  0  0  0  0  0  0  0  0  0  0
   27.5224  -19.4569  -16.9175 N   0  0  0  0  0  0  0  0  0  0  0  0
   27.5677  -18.2784  -16.3058 C   0  0  0  0  0  0  0  0  0  0  0  0
   27.9723  -17.0125  -16.6419 C   0  0  0  0  0  0  0  0  0  0  0  0
   27.8871  -15.9722  -15.7289 C   0  0  0  0  0  0  0  0  0  0  0  0
   27.3986  -16.1679  -14.4638 C   0  0  0  0  0  0  0  0  0  0  0  0
   26.9894  -17.4521  -14.1264 C   0  0  0  0  0  0  0  0  0  0  0  0
   27.0716  -18.4769  -15.0197 C   0  0  0  0  0  0  0  0  0  0  0  0
   26.5672  -21.0195  -11.3737 C   0  0  0  0  0  0  0  0  0  0  0  0
   26.5314  -22.2268  -11.0428 O   0  0  0  0  0  0  0  0  0  0  0  0
   25.8980  -20.1167  -10.4882 N   0  0  0  0  0  0  0  0  0  0  0  0
   25.3870  -20.5756   -9.2215 C   0  0  1  0  0  0  0  0  0  0  0  0
   25.6704  -19.5545   -8.1538 C   0  0  0  0  0  0  0  0  0  0  0  0
   27.0217  -19.6509   -7.5836 C   0  0  0  0  0  0  0  0  0  0  0  0
   28.1888  -19.3994   -8.2859 C   0  0  0  0  0  0  0  0  0  0  0  0
   29.1967  -19.5386   -7.4153 N   0  0  0  0  0  0  0  0  0  0  0  0
   28.7391  -19.8662   -6.1986 C   0  0  0  0  0  0  0  0  0  0  0  0
   29.3438  -20.1274   -4.9821 C   0  0  0  0  0  0  0  0  0  0  0  0
   28.5731  -20.4553   -3.8915 C   0  0  0  0  0  0  0  0  0  0  0  0
   27.2022  -20.5382   -3.9565 C   0  0  0  0  0  0  0  0  0  0  0  0
   26.6053  -20.2783   -5.1689 C   0  0  0  0  0  0  0  0  0  0  0  0
   27.3648  -19.9451   -6.2741 C   0  0  0  0  0  0  0  0  0  0  0  0
   23.8952  -20.7335   -9.2876 C   0  0  0  0  0  0  0  0  0  0  0  0
   23.3137  -20.1477  -10.2346 O   0  0  0  0  0  0  0  0  0  0  0  0
   23.1220  -21.4721   -8.3932 N   0  0  0  0  0  0  0  0  0  0  0  0
   21.6841  -21.6210   -8.5892 C   0  0  1  0  0  0  0  0  0  0  0  0
   21.1236  -22.6235   -7.6521 C   0  0  0  0  0  0  0  0  0  0  0  0
   19.6727  -22.9017   -7.6986 C   0  0  0  0  0  0  0  0  0  0  0  0
   19.2871  -24.0966   -8.4788 C   0  0  0  0  0  0  0  0  0  0  0  0
   20.1788  -24.8507   -8.9195 O   0  0  0  0  0  0  0  0  0  0  0  0
   21.0297  -20.3436   -8.7277 C   0  0  0  0  0  0  0  0  0  0  0  0
   21.5884  -19.3316   -8.1828 O   0  0  0  0  0  0  0  0  0  0  0  0
   17.9372  -24.3797   -8.7232 O   0  0  0  0  0  0  0  0  0  0  0  0
   19.8425  -20.0943   -9.3948 O   0  0  0  0  0  0  0  0  0  0  0  0
  2  1  1  6
  3  2  1  0
  4  5  2  0
  4  3  1  0
  6  5  1  0
  7 12  2  0
  7  6  1  0
  8  7  1  0
  9 10  1  0
  9  8  2  0
 10 11  2  0
 11 12  1  0
 12  4  1  0
 13  2  1  0
 14 13  2  0
 15 13  1  0
 16 15  1  0
 16 17  1  1
 18 19  2  0
 18 17  1  0
 20 19  1  0
 21 26  2  0
 21 20  1  0
 22 21  1  0
 23 24  1  0
 23 22  2  0
 24 25  2  0
 25 26  1  0
 26 18  1  0
 27 29  1  0
 27 16  1  0
 28 27  2  0
 30 29  1  0
 30 31  1  1
 31 32  1  0
 32 33  1  0
 33 37  1  0
 34 33  2  0
 35 38  1  0
 35 30  1  0
 36 35  2  0
M  END
$$$$
