WWE.pdb
     RDKit          3D

 38 41  0  0  1  0  0  0  0  0999 V2000
   26.7222  -19.9538  -16.3142 N   0  0  0  0  0  0  0  0  0  0  0  0
   26.2245  -19.0995  -15.2580 C   0  0  1  0  0  0  0  0  0  0  0  0
   24.9754  -18.3261  -15.6870 C   0  0  0  0  0  0  0  0  0  0  0  0
   25.3862  -17.2758  -16.6464 C   0  0  0  0  0  0  0  0  0  0  0  0
   25.0045  -17.1672  -17.9771 C   0  0  0  0  0  0  0  0  0  0  0  0
   25.6007  -16.0625  -18.4970 N   0  0  0  0  0  0  0  0  0  0  0  0
   26.3416  -15.4571  -17.5752 C   0  0  0  0  0  0  0  0  0  0  0  0
   27.1429  -14.3456  -17.5338 C   0  0  0  0  0  0  0  0  0  0  0  0
   27.8021  -13.9865  -16.3678 C   0  0  0  0  0  0  0  0  0  0  0  0
   27.6791  -14.7239  -15.2194 C   0  0  0  0  0  0  0  0  0  0  0  0
   26.8663  -15.8498  -15.2649 C   0  0  0  0  0  0  0  0  0  0  0  0
   26.2173  -16.2065  -16.4079 C   0  0  0  0  0  0  0  0  0  0  0  0
   25.7560  -20.0148  -14.1725 C   0  0  0  0  0  0  0  0  0  0  0  0
   25.4261  -21.1984  -14.4148 O   0  0  0  0  0  0  0  0  0  0  0  0
   25.6477  -19.6116  -12.8040 N   0  0  0  0  0  0  0  0  0  0  0  0
   25.2208  -20.5477  -11.7952 C   0  0  1  0  0  0  0  0  0  0  0  0
   25.5463  -20.0120  -10.4277 C   0  0  0  0  0  0  0  0  0  0  0  0
   26.8000  -20.5362   -9.8675 C   0  0  0  0  0  0  0  0  0  0  0  0
   27.7192  -21.2929  -10.5754 C   0  0  0  0  0  0  0  0  0  0  0  0
   28.7416  -21.5293   -9.7435 N   0  0  0  0  0  0  0  0  0  0  0  0
   28.5261  -20.9681   -8.5454 C   0  0  0  0  0  0  0  0  0  0  0  0
   29.2423  -20.9212   -7.3627 C   0  0  0  0  0  0  0  0  0  0  0  0
   28.7275  -20.2521   -6.2773 C   0  0  0  0  0  0  0  0  0  0  0  0
   27.5091  -19.6161   -6.3140 C   0  0  0  0  0  0  0  0  0  0  0  0
   26.8000  -19.6662   -7.4924 C   0  0  0  0  0  0  0  0  0  0  0  0
   27.3038  -20.3322   -8.5932 C   0  0  0  0  0  0  0  0  0  0  0  0
   23.7311  -20.7282  -11.8486 C   0  0  0  0  0  0  0  0  0  0  0  0
   23.0421  -19.6779  -11.8644 O   0  0  0  0  0  0  0  0  0  0  0  0
   23.0680  -21.9539  -11.8848 N   0  0  0  0  0  0  0  0  0  0  0  0
   21.6137  -22.0181  -11.9800 C   0  0  1  0  0  0  0  0  0  0  0  0
   21.1759  -23.3308  -12.5116 C   0  0  0  0  0  0  0  0  0  0  0  0
   19.7271  -23.6067  -12.6097 C   0  0  0  0  0  0  0  0  0  0  0  0
   19.2156  -23.7967  -13.9835 C   0  0  0  0  0  0  0  0  0  0  0  0
   18.3217  -23.0379  -14.4115 O   0  0  0  0  0  0  0  0  0  0  0  0
   20.9781  -21.4896  -10.7986 C   0  0  0  0  0  0  0  0  0  0  0  0
   21.6046  -21.6020   -9.6904 O   0  0  0  0  0  0  0  0  0  0  0  0
   19.7258  -24.8172  -14.7961 O   0  0  0  0  0  0  0  0  0  0  0  0
   19.7430  -20.8674  -10.7361 O   0  0  0  0  0  0  0  0  0  0  0  0
  2  1  1  6
  3  2  1  0
  4  5  2  0
  4  3  1  0
  6  5  1  0
  7 12  2  0
  7  6  1  0
  8  7  1  0
  9 10  1  0
  9  8  2  0
 10 11  2  0
 11 12  1  0
 12  4  1  0
 13  2  1  0
 14 13  2  0
 15 13  1  0
 16 15  1  0
 16 17  1  1
 18 19  2  0
 18 17  1  0
 20 19  1  0
 21 26  2  0
 21 20  1  0
 22 21  1  0
 23 24  1  0
 23 22  2  0
 24 25  2  0
 25 26  1  0
 26 18  1  0
 27 29  1  0
 27 16  1  0
 28 27  2  0
 30 29  1  0
 30 31  1  1
 31 32  1  0
 32 33  1  0
 33 37  1  0
 34 33  2  0
 35 38  1  0
 35 30  1  0
 36 35  2  0
M  END
$$$$
