WWE.pdb
     RDKit          3D

 38 41  0  0  1  0  0  0  0  0999 V2000
   23.7744  -20.0010  -15.5676 N   0  0  0  0  0  0  0  0  0  0  0  0
   23.9871  -20.6746  -14.3049 C   0  0  1  0  0  0  0  0  0  0  0  0
   25.1030  -20.0202  -13.4871 C   0  0  0  0  0  0  0  0  0  0  0  0
   26.2860  -19.8573  -14.3625 C   0  0  0  0  0  0  0  0  0  0  0  0
   26.9786  -18.6810  -14.6171 C   0  0  0  0  0  0  0  0  0  0  0  0
   27.9975  -18.9687  -15.4688 N   0  0  0  0  0  0  0  0  0  0  0  0
   27.9973  -20.2618  -15.7735 C   0  0  0  0  0  0  0  0  0  0  0  0
   28.7592  -21.0852  -16.5613 C   0  0  0  0  0  0  0  0  0  0  0  0
   28.4706  -22.4376  -16.6652 C   0  0  0  0  0  0  0  0  0  0  0  0
   27.4197  -22.9997  -15.9891 C   0  0  0  0  0  0  0  0  0  0  0  0
   26.6496  -22.1624  -15.1914 C   0  0  0  0  0  0  0  0  0  0  0  0
   26.9291  -20.8335  -15.0867 C   0  0  0  0  0  0  0  0  0  0  0  0
   22.7437  -20.4537  -13.5043 C   0  0  0  0  0  0  0  0  0  0  0  0
   22.5390  -19.3749  -12.9021 O   0  0  0  0  0  0  0  0  0  0  0  0
   21.7182  -21.4418  -13.3665 N   0  0  0  0  0  0  0  0  0  0  0  0
   20.4868  -21.1309  -12.6859 C   0  0  1  0  0  0  0  0  0  0  0  0
   19.3896  -20.9028  -13.6894 C   0  0  0  0  0  0  0  0  0  0  0  0
   19.4353  -19.5802  -14.3291 C   0  0  0  0  0  0  0  0  0  0  0  0
   19.7135  -19.3666  -15.6690 C   0  0  0  0  0  0  0  0  0  0  0  0
   19.6081  -18.0478  -15.8761 N   0  0  0  0  0  0  0  0  0  0  0  0
   19.2804  -17.4083  -14.7444 C   0  0  0  0  0  0  0  0  0  0  0  0
   19.0637  -16.0815  -14.4179 C   0  0  0  0  0  0  0  0  0  0  0  0
   18.7427  -15.7387  -13.1255 C   0  0  0  0  0  0  0  0  0  0  0  0
   18.6262  -16.6724  -12.1231 C   0  0  0  0  0  0  0  0  0  0  0  0
   18.8434  -17.9909  -12.4525 C   0  0  0  0  0  0  0  0  0  0  0  0
   19.1645  -18.3527  -13.7468 C   0  0  0  0  0  0  0  0  0  0  0  0
   20.0589  -22.2869  -11.8285 C   0  0  0  0  0  0  0  0  0  0  0  0
   20.4127  -23.4288  -12.2146 O   0  0  0  0  0  0  0  0  0  0  0  0
   19.3141  -22.1879  -10.6543 N   0  0  0  0  0  0  0  0  0  0  0  0
   18.9069  -23.3812   -9.9207 C   0  0  1  0  0  0  0  0  0  0  0  0
   18.6925  -23.0731   -8.4866 C   0  0  0  0  0  0  0  0  0  0  0  0
   18.1301  -24.1247   -7.6135 C   0  0  0  0  0  0  0  0  0  0  0  0
   19.1288  -24.9709   -6.9266 C   0  0  0  0  0  0  0  0  0  0  0  0
   20.2325  -24.4792   -6.6137 O   0  0  0  0  0  0  0  0  0  0  0  0
   17.9054  -24.1316  -10.6369 C   0  0  0  0  0  0  0  0  0  0  0  0
   17.0368  -23.4717  -11.3028 O   0  0  0  0  0  0  0  0  0  0  0  0
   18.8419  -26.3098   -6.6313 O   0  0  0  0  0  0  0  0  0  0  0  0
   17.7813  -25.5099  -10.6778 O   0  0  0  0  0  0  0  0  0  0  0  0
  2  1  1  6
  3  2  1  0
  4  5  2  0
  4  3  1  0
  6  5  1  0
  7 12  2  0
  7  6  1  0
  8  7  1  0
  9 10  1  0
  9  8  2  0
 10 11  2  0
 11 12  1  0
 12  4  1  0
 13  2  1  0
 14 13  2  0
 15 13  1  0
 16 15  1  0
 16 17  1  6
 18 19  2  0
 18 17  1  0
 20 19  1  0
 21 26  2  0
 21 20  1  0
 22 21  1  0
 23 24  1  0
 23 22  2  0
 24 25  2  0
 25 26  1  0
 26 18  1  0
 27 29  1  0
 27 16  1  0
 28 27  2  0
 30 29  1  0
 30 31  1  1
 31 32  1  0
 32 33  1  0
 33 37  1  0
 34 33  2  0
 35 38  1  0
 35 30  1  0
 36 35  2  0
M  END
$$$$
