KDQ.pdb
     RDKit          3D

 27 26  0  0  1  0  0  0  0  0999 V2000
   10.7034  -17.1558   17.2578 N   0  0  0  0  0  0  0  0  0  0  0  0
   11.3970  -18.2056   17.9464 C   0  0  1  0  0  0  0  0  0  0  0  0
   11.6272  -19.3802   17.0808 C   0  0  0  0  0  0  0  0  0  0  0  0
   10.4430  -19.7563   16.2669 C   0  0  0  0  0  0  0  0  0  0  0  0
   10.3213  -19.1771   14.9012 C   0  0  0  0  0  0  0  0  0  0  0  0
    9.1273  -19.7792   14.1529 C   0  0  0  0  0  0  0  0  0  0  0  0
    8.9571  -19.2207   12.8514 N   0  0  0  0  0  0  0  0  0  0  0  0
   12.6686  -17.6955   18.5683 C   0  0  0  0  0  0  0  0  0  0  0  0
   13.4825  -18.5089   19.1117 O   0  0  0  0  0  0  0  0  0  0  0  0
   13.0314  -16.3250   18.5901 N   0  0  0  0  0  0  0  0  0  0  0  0
   14.2960  -15.8935   19.1650 C   0  0  1  0  0  0  0  0  0  0  0  0
   14.9078  -14.7664   18.3819 C   0  0  0  0  0  0  0  0  0  0  0  0
   16.2692  -14.4155   18.8612 C   0  0  0  0  0  0  0  0  0  0  0  0
   16.8387  -15.1795   19.6806 O   0  0  0  0  0  0  0  0  0  0  0  0
   14.1394  -15.5322   20.5972 C   0  0  0  0  0  0  0  0  0  0  0  0
   13.7319  -14.3806   20.8529 O   0  0  0  0  0  0  0  0  0  0  0  0
   16.9711  -13.2782   18.4604 O   0  0  0  0  0  0  0  0  0  0  0  0
   11.6249  -19.7949   24.2372 N   0  0  0  0  0  0  0  0  0  0  0  0
   11.9316  -18.4989   24.6967 C   0  0  0  0  0  0  0  0  0  0  0  0
   11.8485  -18.3196   25.9638 O   0  0  0  0  0  0  0  0  0  0  0  0
   12.3339  -17.3678   23.8067 C   0  0  0  0  0  0  0  0  0  0  0  0
   13.8050  -17.0981   23.9265 C   0  0  0  0  0  0  0  0  0  0  0  0
   14.2516  -15.9612   23.0238 C   0  0  2  0  0  0  0  0  0  0  0  0
   14.4243  -16.4120   21.6591 N   0  0  0  0  0  0  0  0  0  0  0  0
   15.5521  -15.4238   23.5101 C   0  0  0  0  0  0  0  0  0  0  0  0
   15.6063  -14.4185   24.4622 O   0  0  0  0  0  0  0  0  0  0  0  0
   16.6363  -15.8713   23.0662 O   0  0  0  0  0  0  0  0  0  0  0  0
  2  1  1  6
  2  3  1  0
  3  4  1  0
  4  5  1  0
  5  6  1  0
  7  6  1  0
  8  2  1  0
  9  8  2  0
 10  8  1  0
 11 12  1  6
 11 10  1  0
 12 13  1  0
 13 14  2  0
 13 17  1  0
 15 24  1  0
 15 11  1  0
 16 15  2  0
 19 18  1  0
 20 19  2  0
 21 19  1  0
 22 21  1  0
 23 22  1  1
 23 24  1  0
 25 23  1  0
 25 26  1  0
 27 25  2  0
M  END
$$$$
