KDQ.pdb
     RDKit          3D

 27 26  0  0  1  0  0  0  0  0999 V2000
   10.0254  -13.4865   19.0763 N   0  0  0  0  0  0  0  0  0  0  0  0
    8.7525  -13.8473   19.6302 C   0  0  1  0  0  0  0  0  0  0  0  0
    7.7839  -14.2403   18.5865 C   0  0  0  0  0  0  0  0  0  0  0  0
    8.2331  -13.9125   17.2091 C   0  0  0  0  0  0  0  0  0  0  0  0
    7.2976  -14.1889   16.0848 C   0  0  0  0  0  0  0  0  0  0  0  0
    7.8872  -13.7191   14.7507 C   0  0  0  0  0  0  0  0  0  0  0  0
    6.9975  -13.9244   13.6549 N   0  0  0  0  0  0  0  0  0  0  0  0
    8.9052  -14.9001   20.6942 C   0  0  0  0  0  0  0  0  0  0  0  0
    7.8952  -15.2682   21.3753 O   0  0  0  0  0  0  0  0  0  0  0  0
   10.1391  -15.5288   20.9983 N   0  0  0  0  0  0  0  0  0  0  0  0
   10.2458  -16.4797   22.0939 C   0  0  1  0  0  0  0  0  0  0  0  0
   11.4595  -17.3548   21.9554 C   0  0  0  0  0  0  0  0  0  0  0  0
   11.5782  -18.3400   23.0606 C   0  0  0  0  0  0  0  0  0  0  0  0
   10.5314  -18.8541   23.5291 O   0  0  0  0  0  0  0  0  0  0  0  0
   10.2266  -15.7887   23.4086 C   0  0  0  0  0  0  0  0  0  0  0  0
   11.0802  -14.8978   23.5964 O   0  0  0  0  0  0  0  0  0  0  0  0
   12.7895  -18.7401   23.6257 O   0  0  0  0  0  0  0  0  0  0  0  0
    6.1774  -11.5762   27.4087 N   0  0  0  0  0  0  0  0  0  0  0  0
    6.6432  -12.4777   26.4313 C   0  0  0  0  0  0  0  0  0  0  0  0
    6.0101  -12.4709   25.3161 O   0  0  0  0  0  0  0  0  0  0  0  0
    7.7977  -13.4055   26.6296 C   0  0  0  0  0  0  0  0  0  0  0  0
    7.9808  -14.2861   25.4286 C   0  0  0  0  0  0  0  0  0  0  0  0
    9.1901  -15.1945   25.5667 C   0  0  2  0  0  0  0  0  0  0  0  0
    9.3077  -16.0870   24.4330 N   0  0  0  0  0  0  0  0  0  0  0  0
    9.0543  -16.0164   26.8007 C   0  0  0  0  0  0  0  0  0  0  0  0
    9.2912  -15.4782   28.0554 O   0  0  0  0  0  0  0  0  0  0  0  0
    8.7202  -17.2233   26.7328 O   0  0  0  0  0  0  0  0  0  0  0  0
  2  1  1  6
  2  3  1  0
  3  4  1  0
  4  5  1  0
  5  6  1  0
  7  6  1  0
  8  2  1  0
  9  8  2  0
 10  8  1  0
 11 12  1  6
 11 10  1  0
 12 13  1  0
 13 14  2  0
 13 17  1  0
 15 24  1  0
 15 11  1  0
 16 15  2  0
 19 18  1  0
 20 19  2  0
 21 19  1  0
 22 21  1  0
 23 22  1  6
 23 24  1  0
 25 23  1  0
 25 26  1  0
 27 25  2  0
M  END
$$$$
