KDQ.pdb
     RDKit          3D

 27 26  0  0  1  0  0  0  0  0999 V2000
    8.9081  -12.9873   20.5883 N   0  0  0  0  0  0  0  0  0  0  0  0
    7.8226  -13.9161   20.7166 C   0  0  1  0  0  0  0  0  0  0  0  0
    7.2248  -14.2558   19.4093 C   0  0  0  0  0  0  0  0  0  0  0  0
    8.1160  -13.9634   18.2575 C   0  0  0  0  0  0  0  0  0  0  0  0
    7.9155  -14.7407   17.0041 C   0  0  0  0  0  0  0  0  0  0  0  0
    7.8827  -13.8159   15.7826 C   0  0  0  0  0  0  0  0  0  0  0  0
    7.6233  -14.5189   14.5689 N   0  0  0  0  0  0  0  0  0  0  0  0
    8.2451  -15.1375   21.4869 C   0  0  0  0  0  0  0  0  0  0  0  0
    7.4162  -16.0820   21.6877 O   0  0  0  0  0  0  0  0  0  0  0  0
    9.5469  -15.3114   22.0213 N   0  0  0  0  0  0  0  0  0  0  0  0
    9.8979  -16.5114   22.7647 C   0  0  1  0  0  0  0  0  0  0  0  0
   11.2088  -17.0861   22.3074 C   0  0  0  0  0  0  0  0  0  0  0  0
   11.0793  -17.8645   21.0490 C   0  0  0  0  0  0  0  0  0  0  0  0
    9.9893  -18.4389   20.8012 O   0  0  0  0  0  0  0  0  0  0  0  0
    9.9028  -16.2547   24.2277 C   0  0  0  0  0  0  0  0  0  0  0  0
   10.2023  -17.2101   24.9726 O   0  0  0  0  0  0  0  0  0  0  0  0
   12.0998  -18.0065   20.1081 O   0  0  0  0  0  0  0  0  0  0  0  0
    5.8290  -11.6349   25.4354 N   0  0  0  0  0  0  0  0  0  0  0  0
    6.7350  -12.3258   26.2641 C   0  0  0  0  0  0  0  0  0  0  0  0
    6.4626  -12.3218   27.5172 O   0  0  0  0  0  0  0  0  0  0  0  0
    7.9522  -13.0353   25.7661 C   0  0  0  0  0  0  0  0  0  0  0  0
    8.3640  -14.1147   26.7235 C   0  0  0  0  0  0  0  0  0  0  0  0
    9.5936  -14.8651   26.2423 C   0  0  2  0  0  0  0  0  0  0  0  0
    9.5907  -15.0073   24.8016 N   0  0  0  0  0  0  0  0  0  0  0  0
    9.6138  -16.2244   26.8493 C   0  0  0  0  0  0  0  0  0  0  0  0
    9.5272  -17.3649   26.0671 O   0  0  0  0  0  0  0  0  0  0  0  0
    9.7101  -16.3699   28.0913 O   0  0  0  0  0  0  0  0  0  0  0  0
  2  1  1  6
  2  3  1  0
  3  4  1  0
  4  5  1  0
  5  6  1  0
  7  6  1  0
  8  2  1  0
  9  8  2  0
 10  8  1  0
 11 12  1  6
 11 10  1  0
 12 13  1  0
 13 14  2  0
 13 17  1  0
 15 24  1  0
 15 11  1  0
 16 15  2  0
 19 18  1  0
 20 19  2  0
 21 19  1  0
 22 21  1  0
 23 22  1  1
 23 24  1  0
 25 23  1  0
 25 26  1  0
 27 25  2  0
M  END
$$$$
