KDQ.pdb
     RDKit          3D

 27 26  0  0  1  0  0  0  0  0999 V2000
    8.5646  -19.1526   20.5098 N   0  0  0  0  0  0  0  0  0  0  0  0
    9.7745  -19.1417   19.7394 C   0  0  1  0  0  0  0  0  0  0  0  0
    9.6517  -18.3108   18.5243 C   0  0  0  0  0  0  0  0  0  0  0  0
    8.3160  -17.6792   18.3721 C   0  0  0  0  0  0  0  0  0  0  0  0
    7.2419  -18.4675   17.7084 C   0  0  0  0  0  0  0  0  0  0  0  0
    5.9587  -17.6413   17.5704 C   0  0  0  0  0  0  0  0  0  0  0  0
    4.8953  -18.3760   16.9669 N   0  0  0  0  0  0  0  0  0  0  0  0
   10.9515  -18.7436   20.5879 C   0  0  0  0  0  0  0  0  0  0  0  0
   11.6625  -19.6369   21.1499 O   0  0  0  0  0  0  0  0  0  0  0  0
   11.3328  -17.3961   20.8102 N   0  0  0  0  0  0  0  0  0  0  0  0
   12.4539  -17.0677   21.6768 C   0  0  1  0  0  0  0  0  0  0  0  0
   13.4274  -16.1434   21.0017 C   0  0  0  0  0  0  0  0  0  0  0  0
   14.6416  -15.9000   21.8220 C   0  0  0  0  0  0  0  0  0  0  0  0
   14.7373  -16.4591   22.9434 O   0  0  0  0  0  0  0  0  0  0  0  0
   11.9866  -16.5071   22.9705 C   0  0  0  0  0  0  0  0  0  0  0  0
   12.2327  -15.3038   23.1919 O   0  0  0  0  0  0  0  0  0  0  0  0
   15.6997  -15.0797   21.4294 O   0  0  0  0  0  0  0  0  0  0  0  0
    7.8701  -13.8708   22.7144 N   0  0  0  0  0  0  0  0  0  0  0  0
    7.6924  -14.9169   23.6412 C   0  0  0  0  0  0  0  0  0  0  0  0
    6.5877  -14.9064   24.2923 O   0  0  0  0  0  0  0  0  0  0  0  0
    8.6959  -15.9961   23.8890 C   0  0  0  0  0  0  0  0  0  0  0  0
    9.8054  -15.4952   24.7662 C   0  0  0  0  0  0  0  0  0  0  0  0
   10.7891  -16.5953   25.1253 C   0  0  2  0  0  0  0  0  0  0  0  0
   11.2923  -17.2563   23.9398 N   0  0  0  0  0  0  0  0  0  0  0  0
   10.1091  -17.6096   25.9770 C   0  0  0  0  0  0  0  0  0  0  0  0
    9.7328  -17.3224   27.2793 O   0  0  0  0  0  0  0  0  0  0  0  0
    9.8596  -18.7556   25.5327 O   0  0  0  0  0  0  0  0  0  0  0  0
  2  1  1  1
  2  3  1  0
  3  4  1  0
  4  5  1  0
  5  6  1  0
  7  6  1  0
  8  2  1  0
  9  8  2  0
 10  8  1  0
 11 12  1  6
 11 10  1  0
 12 13  1  0
 13 14  2  0
 13 17  1  0
 15 24  1  0
 15 11  1  0
 16 15  2  0
 19 18  1  0
 20 19  2  0
 21 19  1  0
 22 21  1  0
 23 22  1  6
 23 24  1  0
 25 23  1  0
 25 26  1  0
 27 25  2  0
M  END
$$$$
