KDQ.pdb
     RDKit          3D

 27 26  0  0  1  0  0  0  0  0999 V2000
    6.7738  -19.6248   19.7814 N   0  0  0  0  0  0  0  0  0  0  0  0
    6.4870  -18.6926   20.8330 C   0  0  1  0  0  0  0  0  0  0  0  0
    5.2425  -19.0326   21.5526 C   0  0  0  0  0  0  0  0  0  0  0  0
    4.1056  -19.3496   20.6507 C   0  0  0  0  0  0  0  0  0  0  0  0
    2.8010  -19.7088   21.2709 C   0  0  0  0  0  0  0  0  0  0  0  0
    1.6959  -19.7999   20.2133 C   0  0  0  0  0  0  0  0  0  0  0  0
    0.4191  -20.0934   20.7777 N   0  0  0  0  0  0  0  0  0  0  0  0
    7.6623  -18.5465   21.7609 C   0  0  0  0  0  0  0  0  0  0  0  0
    8.2177  -19.5805   22.2526 O   0  0  0  0  0  0  0  0  0  0  0  0
    8.2093  -17.2933   22.1360 N   0  0  0  0  0  0  0  0  0  0  0  0
    9.2826  -17.2064   23.1139 C   0  0  1  0  0  0  0  0  0  0  0  0
   10.0279  -15.9060   23.0085 C   0  0  0  0  0  0  0  0  0  0  0  0
   11.4657  -16.0460   23.3539 C   0  0  0  0  0  0  0  0  0  0  0  0
   11.8190  -16.9877   24.1075 O   0  0  0  0  0  0  0  0  0  0  0  0
    8.7728  -17.4255   24.4918 C   0  0  0  0  0  0  0  0  0  0  0  0
    7.8301  -16.7016   24.8721 O   0  0  0  0  0  0  0  0  0  0  0  0
   12.4679  -15.1909   22.8944 O   0  0  0  0  0  0  0  0  0  0  0  0
    6.7498  -22.3580   29.2272 N   0  0  0  0  0  0  0  0  0  0  0  0
    6.6528  -21.4393   28.1635 C   0  0  0  0  0  0  0  0  0  0  0  0
    5.8927  -21.7869   27.1909 O   0  0  0  0  0  0  0  0  0  0  0  0
    7.3690  -20.1284   28.1207 C   0  0  0  0  0  0  0  0  0  0  0  0
    7.8675  -19.8432   26.7346 C   0  0  0  0  0  0  0  0  0  0  0  0
    8.6918  -18.5688   26.6761 C   0  0  2  0  0  0  0  0  0  0  0  0
    9.2943  -18.3935   25.3715 N   0  0  0  0  0  0  0  0  0  0  0  0
    9.7787  -18.6346   27.6915 C   0  0  0  0  0  0  0  0  0  0  0  0
   11.0975  -18.8478   27.3235 O   0  0  0  0  0  0  0  0  0  0  0  0
    9.5242  -18.4977   28.9119 O   0  0  0  0  0  0  0  0  0  0  0  0
  2  1  1  6
  2  3  1  0
  3  4  1  0
  4  5  1  0
  5  6  1  0
  7  6  1  0
  8  2  1  0
  9  8  2  0
 10  8  1  0
 11 12  1  1
 11 10  1  0
 12 13  1  0
 13 14  2  0
 13 17  1  0
 15 24  1  0
 15 11  1  0
 16 15  2  0
 19 18  1  0
 20 19  2  0
 21 19  1  0
 22 21  1  0
 23 22  1  6
 23 24  1  0
 25 23  1  0
 25 26  1  0
 27 25  2  0
M  END
$$$$
