KDQ.pdb
     RDKit          3D

 27 26  0  0  1  0  0  0  0  0999 V2000
    2.1105  -18.6224   21.8548 N   0  0  0  0  0  0  0  0  0  0  0  0
    3.0160  -19.5528   22.4645 C   0  0  1  0  0  0  0  0  0  0  0  0
    2.8870  -20.9089   21.8932 C   0  0  0  0  0  0  0  0  0  0  0  0
    1.4941  -21.2621   21.5169 C   0  0  0  0  0  0  0  0  0  0  0  0
    1.2369  -22.6334   20.9982 C   0  0  0  0  0  0  0  0  0  0  0  0
   -0.2212  -22.7885   20.5532 C   0  0  0  0  0  0  0  0  0  0  0  0
   -0.5051  -24.0921   20.0483 N   0  0  0  0  0  0  0  0  0  0  0  0
    4.4305  -19.0428   22.4128 C   0  0  0  0  0  0  0  0  0  0  0  0
    5.3837  -19.7633   22.8507 O   0  0  0  0  0  0  0  0  0  0  0  0
    4.7832  -17.7718   21.8923 N   0  0  0  0  0  0  0  0  0  0  0  0
    6.1612  -17.3071   21.9190 C   0  0  1  0  0  0  0  0  0  0  0  0
    6.4090  -16.2402   20.8903 C   0  0  0  0  0  0  0  0  0  0  0  0
    6.6969  -16.8033   19.5463 C   0  0  0  0  0  0  0  0  0  0  0  0
    7.3873  -17.8501   19.4632 O   0  0  0  0  0  0  0  0  0  0  0  0
    6.5464  -16.8460   23.2774 C   0  0  0  0  0  0  0  0  0  0  0  0
    5.6393  -16.3880   24.0019 O   0  0  0  0  0  0  0  0  0  0  0  0
    6.2490  -16.2417   18.3501 O   0  0  0  0  0  0  0  0  0  0  0  0
    6.6870  -20.6748   26.9697 N   0  0  0  0  0  0  0  0  0  0  0  0
    7.3252  -19.7027   27.7650 C   0  0  0  0  0  0  0  0  0  0  0  0
    7.4646  -19.9974   29.0053 O   0  0  0  0  0  0  0  0  0  0  0  0
    7.8271  -18.3940   27.2468 C   0  0  0  0  0  0  0  0  0  0  0  0
    7.4878  -18.2354   25.7939 C   0  0  0  0  0  0  0  0  0  0  0  0
    8.0807  -16.9671   25.2051 C   0  0  2  0  0  0  0  0  0  0  0  0
    7.8623  -16.9007   23.7756 N   0  0  0  0  0  0  0  0  0  0  0  0
    9.5476  -16.9416   25.4588 C   0  0  0  0  0  0  0  0  0  0  0  0
   10.4602  -16.9578   24.4162 O   0  0  0  0  0  0  0  0  0  0  0  0
    9.9945  -16.9048   26.6300 O   0  0  0  0  0  0  0  0  0  0  0  0
  2  1  1  6
  2  3  1  0
  3  4  1  0
  4  5  1  0
  5  6  1  0
  7  6  1  0
  8  2  1  0
  9  8  2  0
 10  8  1  0
 11 12  1  6
 11 10  1  0
 12 13  1  0
 13 14  2  0
 13 17  1  0
 15 24  1  0
 15 11  1  0
 16 15  2  0
 19 18  1  0
 20 19  2  0
 21 19  1  0
 22 21  1  0
 23 22  1  6
 23 24  1  0
 25 23  1  0
 25 26  1  0
 27 25  2  0
M  END
$$$$
