KDQ.pdb
     RDKit          3D

 27 26  0  0  1  0  0  0  0  0999 V2000
    8.1876  -18.6403   17.8202 N   0  0  0  0  0  0  0  0  0  0  0  0
    6.9173  -18.8308   18.4584 C   0  0  1  0  0  0  0  0  0  0  0  0
    5.8328  -19.0551   17.4810 C   0  0  0  0  0  0  0  0  0  0  0  0
    6.3047  -19.0973   16.0732 C   0  0  0  0  0  0  0  0  0  0  0  0
    5.2806  -19.1480   14.9943 C   0  0  0  0  0  0  0  0  0  0  0  0
    5.9398  -19.1798   13.6113 C   0  0  0  0  0  0  0  0  0  0  0  0
    4.9963  -19.3659   12.5578 N   0  0  0  0  0  0  0  0  0  0  0  0
    6.9903  -19.9217   19.4920 C   0  0  0  0  0  0  0  0  0  0  0  0
    5.9640  -20.2103   20.1868 O   0  0  0  0  0  0  0  0  0  0  0  0
    8.1644  -20.6732   19.7517 N   0  0  0  0  0  0  0  0  0  0  0  0
    8.1827  -21.7044   20.7774 C   0  0  1  0  0  0  0  0  0  0  0  0
    8.8306  -22.9676   20.2854 C   0  0  0  0  0  0  0  0  0  0  0  0
    8.7141  -24.0824   21.2601 C   0  0  0  0  0  0  0  0  0  0  0  0
    9.7485  -24.4789   21.8536 O   0  0  0  0  0  0  0  0  0  0  0  0
    8.8318  -21.2142   22.0203 C   0  0  0  0  0  0  0  0  0  0  0  0
    9.8656  -20.5274   21.8902 O   0  0  0  0  0  0  0  0  0  0  0  0
    7.5180  -24.7319   21.5670 O   0  0  0  0  0  0  0  0  0  0  0  0
    6.3052  -20.1781   27.7839 N   0  0  0  0  0  0  0  0  0  0  0  0
    7.6533  -19.7762   27.8616 C   0  0  0  0  0  0  0  0  0  0  0  0
    8.0134  -19.2350   28.9670 O   0  0  0  0  0  0  0  0  0  0  0  0
    8.6433  -19.9463   26.7553 C   0  0  0  0  0  0  0  0  0  0  0  0
    7.9860  -20.5401   25.5442 C   0  0  0  0  0  0  0  0  0  0  0  0
    8.9924  -20.8822   24.4593 C   0  0  2  0  0  0  0  0  0  0  0  0
    8.3440  -21.4839   23.3134 N   0  0  0  0  0  0  0  0  0  0  0  0
    9.9907  -21.8476   24.9960 C   0  0  0  0  0  0  0  0  0  0  0  0
   11.2687  -21.4431   25.3472 O   0  0  0  0  0  0  0  0  0  0  0  0
    9.6964  -23.0577   25.1436 O   0  0  0  0  0  0  0  0  0  0  0  0
  2  1  1  6
  2  3  1  0
  3  4  1  0
  4  5  1  0
  5  6  1  0
  7  6  1  0
  8  2  1  0
  9  8  2  0
 10  8  1  0
 11 12  1  6
 11 10  1  0
 12 13  1  0
 13 14  2  0
 13 17  1  0
 15 24  1  0
 15 11  1  0
 16 15  2  0
 19 18  1  0
 20 19  2  0
 21 19  1  0
 22 21  1  0
 23 22  1  1
 23 24  1  0
 25 23  1  0
 25 26  1  0
 27 25  2  0
M  END
$$$$
