KDQ.pdb
     RDKit          3D

 27 26  0  0  1  0  0  0  0  0999 V2000
    6.5209  -16.6630   20.7202 N   0  0  0  0  0  0  0  0  0  0  0  0
    7.8031  -16.0777   20.9859 C   0  0  1  0  0  0  0  0  0  0  0  0
    7.7615  -14.6020   20.9342 C   0  0  0  0  0  0  0  0  0  0  0  0
    7.3031  -14.0687   19.6258 C   0  0  0  0  0  0  0  0  0  0  0  0
    7.5743  -12.6372   19.3211 C   0  0  0  0  0  0  0  0  0  0  0  0
    8.8235  -12.4882   18.4461 C   0  0  0  0  0  0  0  0  0  0  0  0
    8.7056  -13.1728   17.2003 N   0  0  0  0  0  0  0  0  0  0  0  0
    8.3721  -16.5886   22.2816 C   0  0  0  0  0  0  0  0  0  0  0  0
    7.6143  -16.7458   23.2918 O   0  0  0  0  0  0  0  0  0  0  0  0
    9.7404  -16.9164   22.4575 N   0  0  0  0  0  0  0  0  0  0  0  0
   10.2433  -17.3682   23.7454 C   0  0  1  0  0  0  0  0  0  0  0  0
   11.5353  -18.1224   23.6051 C   0  0  0  0  0  0  0  0  0  0  0  0
   12.0594  -18.5986   24.9108 C   0  0  0  0  0  0  0  0  0  0  0  0
   11.2521  -19.0620   25.7552 O   0  0  0  0  0  0  0  0  0  0  0  0
   10.3809  -16.2350   24.6958 C   0  0  0  0  0  0  0  0  0  0  0  0
   11.0733  -15.2641   24.3280 O   0  0  0  0  0  0  0  0  0  0  0  0
   13.4066  -18.5655   25.2724 O   0  0  0  0  0  0  0  0  0  0  0  0
    5.8837  -12.9560   26.4245 N   0  0  0  0  0  0  0  0  0  0  0  0
    6.9538  -12.3569   27.1180 C   0  0  0  0  0  0  0  0  0  0  0  0
    6.7160  -11.2039   27.6265 O   0  0  0  0  0  0  0  0  0  0  0  0
    8.3013  -12.9820   27.2805 C   0  0  0  0  0  0  0  0  0  0  0  0
    8.3759  -14.2801   26.5316 C   0  0  0  0  0  0  0  0  0  0  0  0
    9.7230  -14.9604   26.7026 C   0  0  2  0  0  0  0  0  0  0  0  0
    9.7781  -16.2066   25.9681 N   0  0  0  0  0  0  0  0  0  0  0  0
    9.9507  -15.2535   28.1445 C   0  0  0  0  0  0  0  0  0  0  0  0
   10.1514  -14.2367   29.0642 O   0  0  0  0  0  0  0  0  0  0  0  0
    9.9666  -16.4356   28.5631 O   0  0  0  0  0  0  0  0  0  0  0  0
  2  1  1  1
  2  3  1  0
  3  4  1  0
  4  5  1  0
  5  6  1  0
  7  6  1  0
  8  2  1  0
  9  8  2  0
 10  8  1  0
 11 12  1  6
 11 10  1  0
 12 13  1  0
 13 14  2  0
 13 17  1  0
 15 24  1  0
 15 11  1  0
 16 15  2  0
 19 18  1  0
 20 19  2  0
 21 19  1  0
 22 21  1  0
 23 22  1  1
 23 24  1  0
 25 23  1  0
 25 26  1  0
 27 25  2  0
M  END
$$$$
