KDQ.pdb
     RDKit          3D

 27 26  0  0  1  0  0  0  0  0999 V2000
   11.9325  -21.0543   20.2658 N   0  0  0  0  0  0  0  0  0  0  0  0
   13.1226  -21.8440   20.1338 C   0  0  1  0  0  0  0  0  0  0  0  0
   13.0645  -22.7448   18.9645 C   0  0  0  0  0  0  0  0  0  0  0  0
   12.1814  -22.2479   17.8784 C   0  0  0  0  0  0  0  0  0  0  0  0
   12.0321  -23.0891   16.6595 C   0  0  0  0  0  0  0  0  0  0  0  0
   11.1071  -22.4184   15.6383 C   0  0  0  0  0  0  0  0  0  0  0  0
   10.9681  -23.1802   14.4405 N   0  0  0  0  0  0  0  0  0  0  0  0
   14.3500  -20.9739   20.1249 C   0  0  0  0  0  0  0  0  0  0  0  0
   15.5064  -21.5045   20.0999 O   0  0  0  0  0  0  0  0  0  0  0  0
   14.3021  -19.5569   20.1435 N   0  0  0  0  0  0  0  0  0  0  0  0
   15.5197  -18.7648   20.0677 C   0  0  1  0  0  0  0  0  0  0  0  0
   15.4474  -17.7359   18.9750 C   0  0  0  0  0  0  0  0  0  0  0  0
   15.7993  -18.2949   17.6446 C   0  0  0  0  0  0  0  0  0  0  0  0
   14.8738  -18.5874   16.8463 O   0  0  0  0  0  0  0  0  0  0  0  0
   15.8359  -18.1392   21.3773 C   0  0  0  0  0  0  0  0  0  0  0  0
   15.5234  -16.9402   21.5260 O   0  0  0  0  0  0  0  0  0  0  0  0
   17.1061  -18.5233   17.2125 O   0  0  0  0  0  0  0  0  0  0  0  0
   12.4993  -18.3259   25.5546 N   0  0  0  0  0  0  0  0  0  0  0  0
   13.2377  -19.5154   25.3972 C   0  0  0  0  0  0  0  0  0  0  0  0
   12.6619  -20.5890   25.7976 O   0  0  0  0  0  0  0  0  0  0  0  0
   14.6092  -19.5782   24.8072 C   0  0  0  0  0  0  0  0  0  0  0  0
   15.0492  -18.2199   24.3459 C   0  0  0  0  0  0  0  0  0  0  0  0
   16.4518  -18.2421   23.7637 C   0  0  2  0  0  0  0  0  0  0  0  0
   16.4601  -18.8235   22.4380 N   0  0  0  0  0  0  0  0  0  0  0  0
   17.3393  -19.0554   24.6398 C   0  0  0  0  0  0  0  0  0  0  0  0
   17.7348  -18.6000   25.8874 O   0  0  0  0  0  0  0  0  0  0  0  0
   17.7526  -20.1791   24.2665 O   0  0  0  0  0  0  0  0  0  0  0  0
  2  1  1  6
  2  3  1  0
  3  4  1  0
  4  5  1  0
  5  6  1  0
  7  6  1  0
  8  2  1  0
  9  8  2  0
 10  8  1  0
 11 12  1  6
 11 10  1  0
 12 13  1  0
 13 14  2  0
 13 17  1  0
 15 24  1  0
 15 11  1  0
 16 15  2  0
 19 18  1  0
 20 19  2  0
 21 19  1  0
 22 21  1  0
 23 22  1  1
 23 24  1  0
 25 23  1  0
 25 26  1  0
 27 25  2  0
M  END
$$$$
