KDQ.pdb
     RDKit          3D

 27 26  0  0  1  0  0  0  0  0999 V2000
   11.1544  -18.6834   15.0568 N   0  0  0  0  0  0  0  0  0  0  0  0
   12.2732  -19.3335   15.6754 C   0  0  1  0  0  0  0  0  0  0  0  0
   13.5277  -19.1112   14.9279 C   0  0  0  0  0  0  0  0  0  0  0  0
   13.4300  -18.0265   13.9178 C   0  0  0  0  0  0  0  0  0  0  0  0
   14.6889  -17.5432   13.2875 C   0  0  0  0  0  0  0  0  0  0  0  0
   15.0548  -18.3944   12.0669 C   0  0  0  0  0  0  0  0  0  0  0  0
   16.2279  -17.9269   11.4037 N   0  0  0  0  0  0  0  0  0  0  0  0
   12.3931  -18.9414   17.1231 C   0  0  0  0  0  0  0  0  0  0  0  0
   12.7578  -17.7629   17.4355 O   0  0  0  0  0  0  0  0  0  0  0  0
   12.1185  -19.8262   18.1964 N   0  0  0  0  0  0  0  0  0  0  0  0
   12.3219  -19.4157   19.5770 C   0  0  1  0  0  0  0  0  0  0  0  0
   11.3964  -20.1381   20.5148 C   0  0  0  0  0  0  0  0  0  0  0  0
   11.5407  -19.6795   21.9202 C   0  0  0  0  0  0  0  0  0  0  0  0
   11.7776  -18.4650   22.1399 O   0  0  0  0  0  0  0  0  0  0  0  0
   13.7406  -19.5837   19.9838 C   0  0  0  0  0  0  0  0  0  0  0  0
   14.5184  -20.0826   19.1449 O   0  0  0  0  0  0  0  0  0  0  0  0
   11.4316  -20.5160   23.0315 O   0  0  0  0  0  0  0  0  0  0  0  0
   17.8029  -16.4160   18.9127 N   0  0  0  0  0  0  0  0  0  0  0  0
   18.4983  -17.2142   19.8422 C   0  0  0  0  0  0  0  0  0  0  0  0
   19.7764  -17.1110   19.8234 O   0  0  0  0  0  0  0  0  0  0  0  0
   17.8375  -18.1401   20.8113 C   0  0  0  0  0  0  0  0  0  0  0  0
   16.3638  -18.2236   20.5420 C   0  0  0  0  0  0  0  0  0  0  0  0
   15.6681  -19.2001   21.4744 C   0  0  2  0  0  0  0  0  0  0  0  0
   14.2384  -19.2136   21.2478 N   0  0  0  0  0  0  0  0  0  0  0  0
   15.9172  -18.7998   22.8867 C   0  0  0  0  0  0  0  0  0  0  0  0
   17.1186  -19.0842   23.5157 O   0  0  0  0  0  0  0  0  0  0  0  0
   15.0393  -18.1919   23.5444 O   0  0  0  0  0  0  0  0  0  0  0  0
  2  1  1  6
  2  3  1  0
  3  4  1  0
  4  5  1  0
  5  6  1  0
  7  6  1  0
  8  2  1  0
  9  8  2  0
 10  8  1  0
 11 12  1  1
 11 10  1  0
 12 13  1  0
 13 14  2  0
 13 17  1  0
 15 24  1  0
 15 11  1  0
 16 15  2  0
 19 18  1  0
 20 19  2  0
 21 19  1  0
 22 21  1  0
 23 22  1  6
 23 24  1  0
 25 23  1  0
 25 26  1  0
 27 25  2  0
M  END
$$$$
