KDQ.pdb
     RDKit          3D

 27 26  0  0  1  0  0  0  0  0999 V2000
    8.7675  -17.5344   20.4597 N   0  0  0  0  0  0  0  0  0  0  0  0
    9.1272  -16.5132   21.4004 C   0  0  1  0  0  0  0  0  0  0  0  0
    8.2767  -15.3126   21.2692 C   0  0  0  0  0  0  0  0  0  0  0  0
    8.3741  -14.6614   19.9376 C   0  0  0  0  0  0  0  0  0  0  0  0
    7.5670  -13.4337   19.6997 C   0  0  0  0  0  0  0  0  0  0  0  0
    7.7064  -12.9562   18.2502 C   0  0  0  0  0  0  0  0  0  0  0  0
    6.8912  -11.8208   17.9657 N   0  0  0  0  0  0  0  0  0  0  0  0
    9.1414  -17.0531   22.8047 C   0  0  0  0  0  0  0  0  0  0  0  0
    8.4970  -18.1139   23.0856 O   0  0  0  0  0  0  0  0  0  0  0  0
    9.8472  -16.4385   23.8699 N   0  0  0  0  0  0  0  0  0  0  0  0
   10.3702  -17.2259   24.9754 C   0  0  1  0  0  0  0  0  0  0  0  0
   11.2466  -18.3477   24.4943 C   0  0  0  0  0  0  0  0  0  0  0  0
   11.7541  -19.1894   25.6080 C   0  0  0  0  0  0  0  0  0  0  0  0
   11.3816  -18.9319   26.7804 O   0  0  0  0  0  0  0  0  0  0  0  0
   11.0827  -16.3677   25.9563 C   0  0  0  0  0  0  0  0  0  0  0  0
   12.1147  -15.7876   25.5615 O   0  0  0  0  0  0  0  0  0  0  0  0
   12.6307  -20.2620   25.4417 O   0  0  0  0  0  0  0  0  0  0  0  0
    6.1071  -12.1545   26.9220 N   0  0  0  0  0  0  0  0  0  0  0  0
    7.3210  -12.6807   26.4377 C   0  0  0  0  0  0  0  0  0  0  0  0
    7.4181  -12.7830   25.1631 O   0  0  0  0  0  0  0  0  0  0  0  0
    8.4561  -13.1084   27.3105 C   0  0  0  0  0  0  0  0  0  0  0  0
    9.0381  -14.4032   26.8244 C   0  0  0  0  0  0  0  0  0  0  0  0
   10.1787  -14.8820   27.7056 C   0  0  2  0  0  0  0  0  0  0  0  0
   10.6558  -16.1825   27.2853 N   0  0  0  0  0  0  0  0  0  0  0  0
    9.7070  -14.9863   29.1139 C   0  0  0  0  0  0  0  0  0  0  0  0
    9.6951  -13.8844   29.9540 O   0  0  0  0  0  0  0  0  0  0  0  0
    9.3068  -16.0814   29.5759 O   0  0  0  0  0  0  0  0  0  0  0  0
  2  1  1  6
  2  3  1  0
  3  4  1  0
  4  5  1  0
  5  6  1  0
  7  6  1  0
  8  2  1  0
  9  8  2  0
 10  8  1  0
 11 12  1  6
 11 10  1  0
 12 13  1  0
 13 14  2  0
 13 17  1  0
 15 24  1  0
 15 11  1  0
 16 15  2  0
 19 18  1  0
 20 19  2  0
 21 19  1  0
 22 21  1  0
 23 22  1  6
 23 24  1  0
 25 23  1  0
 25 26  1  0
 27 25  2  0
M  END
$$$$
