KDQ.pdb
     RDKit          3D

 27 26  0  0  1  0  0  0  0  0999 V2000
   10.1818  -13.4720   19.4206 N   0  0  0  0  0  0  0  0  0  0  0  0
    9.0474  -13.9812   20.1354 C   0  0  1  0  0  0  0  0  0  0  0  0
    7.8867  -14.2041   19.2493 C   0  0  0  0  0  0  0  0  0  0  0  0
    8.0661  -13.6405   17.8867 C   0  0  0  0  0  0  0  0  0  0  0  0
    6.9524  -13.8005   16.9123 C   0  0  0  0  0  0  0  0  0  0  0  0
    7.2857  -13.1213   15.5797 C   0  0  0  0  0  0  0  0  0  0  0  0
    7.8311  -14.0279   14.6230 N   0  0  0  0  0  0  0  0  0  0  0  0
    9.4117  -15.2118   20.9208 C   0  0  0  0  0  0  0  0  0  0  0  0
    8.5050  -15.8829   21.5098 O   0  0  0  0  0  0  0  0  0  0  0  0
   10.7407  -15.6881   21.0527 N   0  0  0  0  0  0  0  0  0  0  0  0
   11.0499  -16.8176   21.9156 C   0  0  1  0  0  0  0  0  0  0  0  0
   12.4204  -17.3691   21.6410 C   0  0  0  0  0  0  0  0  0  0  0  0
   12.5172  -18.0102   20.3047 C   0  0  0  0  0  0  0  0  0  0  0  0
   11.4743  -18.4729   19.7776 O   0  0  0  0  0  0  0  0  0  0  0  0
   10.8901  -16.4587   23.3480 C   0  0  0  0  0  0  0  0  0  0  0  0
   11.2073  -15.2993   23.6835 O   0  0  0  0  0  0  0  0  0  0  0  0
   13.7040  -18.1384   19.5823 O   0  0  0  0  0  0  0  0  0  0  0  0
    8.5156  -13.0391   25.6341 N   0  0  0  0  0  0  0  0  0  0  0  0
    8.3484  -13.8192   26.7952 C   0  0  0  0  0  0  0  0  0  0  0  0
    8.1171  -13.1706   27.8771 O   0  0  0  0  0  0  0  0  0  0  0  0
    8.4258  -15.3113   26.8204 C   0  0  0  0  0  0  0  0  0  0  0  0
    8.8679  -15.8404   25.4878 C   0  0  0  0  0  0  0  0  0  0  0  0
   10.0057  -16.8379   25.6194 C   0  0  2  0  0  0  0  0  0  0  0  0
   10.4069  -17.3493   24.3259 N   0  0  0  0  0  0  0  0  0  0  0  0
    9.5657  -17.9833   26.4626 C   0  0  0  0  0  0  0  0  0  0  0  0
    9.6327  -17.9284   27.8455 O   0  0  0  0  0  0  0  0  0  0  0  0
    9.1212  -19.0318   25.9372 O   0  0  0  0  0  0  0  0  0  0  0  0
  2  1  1  6
  2  3  1  0
  3  4  1  0
  4  5  1  0
  5  6  1  0
  7  6  1  0
  8  2  1  0
  9  8  2  0
 10  8  1  0
 11 12  1  1
 11 10  1  0
 12 13  1  0
 13 14  2  0
 13 17  1  0
 15 24  1  0
 15 11  1  0
 16 15  2  0
 19 18  1  0
 20 19  2  0
 21 19  1  0
 22 21  1  0
 23 22  1  6
 23 24  1  0
 25 23  1  0
 25 26  1  0
 27 25  2  0
M  END
$$$$
