KDQ.pdb
     RDKit          3D

 27 26  0  0  1  0  0  0  0  0999 V2000
    9.8621  -16.1250   16.6997 N   0  0  0  0  0  0  0  0  0  0  0  0
   10.5508  -14.9889   17.2404 C   0  0  1  0  0  0  0  0  0  0  0  0
    9.7652  -14.3123   18.2926 C   0  0  0  0  0  0  0  0  0  0  0  0
    8.4457  -13.8195   17.8209 C   0  0  0  0  0  0  0  0  0  0  0  0
    7.5529  -13.1570   18.8106 C   0  0  0  0  0  0  0  0  0  0  0  0
    6.2680  -12.6555   18.1429 C   0  0  0  0  0  0  0  0  0  0  0  0
    5.3833  -12.0196   19.0636 N   0  0  0  0  0  0  0  0  0  0  0  0
   11.9296  -15.3660   17.7096 C   0  0  0  0  0  0  0  0  0  0  0  0
   12.1543  -16.5393   18.1483 O   0  0  0  0  0  0  0  0  0  0  0  0
   13.0303  -14.4722   17.6955 N   0  0  0  0  0  0  0  0  0  0  0  0
   14.3088  -14.8483   18.2785 C   0  0  1  0  0  0  0  0  0  0  0  0
   15.4393  -14.0368   17.7118 C   0  0  0  0  0  0  0  0  0  0  0  0
   16.7650  -14.4843   18.2104 C   0  0  0  0  0  0  0  0  0  0  0  0
   17.4434  -13.6977   18.9178 O   0  0  0  0  0  0  0  0  0  0  0  0
   14.2705  -14.7583   19.7606 C   0  0  0  0  0  0  0  0  0  0  0  0
   14.2812  -13.6157   20.2623 O   0  0  0  0  0  0  0  0  0  0  0  0
   17.3199  -15.7362   17.9430 O   0  0  0  0  0  0  0  0  0  0  0  0
   10.3747  -16.2323   25.3640 N   0  0  0  0  0  0  0  0  0  0  0  0
   11.2496  -16.7874   24.4094 C   0  0  0  0  0  0  0  0  0  0  0  0
   10.8862  -17.9072   23.9010 O   0  0  0  0  0  0  0  0  0  0  0  0
   12.5328  -16.1531   23.9802 C   0  0  0  0  0  0  0  0  0  0  0  0
   12.7184  -16.2861   22.4973 C   0  0  0  0  0  0  0  0  0  0  0  0
   14.0363  -15.6916   22.0320 C   0  0  2  0  0  0  0  0  0  0  0  0
   14.2238  -15.8811   20.6092 N   0  0  0  0  0  0  0  0  0  0  0  0
   15.1600  -16.3564   22.7475 C   0  0  0  0  0  0  0  0  0  0  0  0
   16.0661  -17.1620   22.0766 O   0  0  0  0  0  0  0  0  0  0  0  0
   15.3136  -16.2020   23.9826 O   0  0  0  0  0  0  0  0  0  0  0  0
  2  1  1  1
  2  3  1  0
  3  4  1  0
  4  5  1  0
  5  6  1  0
  7  6  1  0
  8  2  1  0
  9  8  2  0
 10  8  1  0
 11 12  1  6
 11 10  1  0
 12 13  1  0
 13 14  2  0
 13 17  1  0
 15 24  1  0
 15 11  1  0
 16 15  2  0
 19 18  1  0
 20 19  2  0
 21 19  1  0
 22 21  1  0
 23 22  1  1
 23 24  1  0
 25 23  1  0
 25 26  1  0
 27 25  2  0
M  END
$$$$
