GMP.pdb
     RDKit          3D

 20 20  0  0  1  0  0  0  0  0999 V2000
   19.2938  -11.2490  -15.6036 N   0  0  0  0  0  0  0  0  0  0  0  0
   20.0747  -11.8159  -16.6837 C   0  0  0  0  0  0  0  0  0  0  0  0
   21.2831  -12.5095  -16.1226 C   0  0  0  0  0  0  0  0  0  0  0  0
   22.1142  -11.8835  -15.4228 O   0  0  0  0  0  0  0  0  0  0  0  0
   21.9325  -19.3991  -16.1282 C   0  0  0  0  0  0  0  0  0  0  0  0
   22.6546  -18.6573  -14.6797 S   0  0  0  0  0  0  0  0  0  0  0  0
   23.0947  -16.9270  -14.8454 C   0  0  0  0  0  0  0  0  0  0  0  0
   22.0965  -16.0739  -15.5614 C   0  0  0  0  0  0  0  0  0  0  0  0
   22.5661  -14.6749  -15.8412 C   0  0  2  0  0  0  0  0  0  0  0  0
   21.4783  -13.8733  -16.3880 N   0  0  0  0  0  0  0  0  0  0  0  0
   23.7480  -14.6117  -16.6917 C   0  0  0  0  0  0  0  0  0  0  0  0
   23.4961  -14.6412  -17.9720 O   0  0  0  0  0  0  0  0  0  0  0  0
   25.1065  -14.5241  -16.3770 N   0  0  0  0  0  0  0  0  0  0  0  0
   25.5699  -14.3830  -14.9732 C   0  0  0  0  0  0  0  0  0  0  0  0
   26.8166  -13.5220  -15.2209 C   0  0  0  0  0  0  0  0  0  0  0  0
   27.4562  -14.3848  -16.2853 C   0  0  0  0  0  0  0  0  0  0  0  0
   26.2425  -14.5447  -17.2443 C   0  0  1  0  0  0  0  0  0  0  0  0
   26.4219  -15.7962  -18.0127 C   0  0  0  0  0  0  0  0  0  0  0  0
   25.9498  -16.9785  -17.4707 O   0  0  0  0  0  0  0  0  0  0  0  0
   26.9836  -15.8069  -19.1260 O   0  0  0  0  0  0  0  0  0  0  0  0
  2  1  1  0
  3  2  1  0
  3 10  1  0
  4  3  2  0
  5  6  1  0
  7  6  1  0
  8  7  1  0
  9 11  1  0
  9  8  1  6
  9 10  1  0
 11 13  1  0
 12 11  2  0
 13 14  1  0
 13 17  1  0
 14 15  1  0
 15 16  1  0
 17 16  1  0
 17 18  1  1
 18 19  1  0
 20 18  2  0
M  END
$$$$
