GMP.pdb
     RDKit          3D

 20 20  0  0  1  0  0  0  0  0999 V2000
   29.2939  -20.7472  -16.6099 N   0  0  0  0  0  0  0  0  0  0  0  0
   28.4660  -19.9135  -15.7630 C   0  0  0  0  0  0  0  0  0  0  0  0
   27.5939  -20.7799  -14.8997 C   0  0  0  0  0  0  0  0  0  0  0  0
   27.3239  -21.9567  -15.2383 O   0  0  0  0  0  0  0  0  0  0  0  0
   26.3511  -19.8985   -8.0090 C   0  0  0  0  0  0  0  0  0  0  0  0
   25.7073  -21.3058   -8.8894 S   0  0  0  0  0  0  0  0  0  0  0  0
   25.1092  -20.9638  -10.5449 C   0  0  0  0  0  0  0  0  0  0  0  0
   26.1062  -20.3518  -11.4767 C   0  0  0  0  0  0  0  0  0  0  0  0
   26.1022  -20.9389  -12.8592 C   0  0  2  0  0  0  0  0  0  0  0  0
   27.0791  -20.2608  -13.7022 N   0  0  0  0  0  0  0  0  0  0  0  0
   24.7862  -20.9568  -13.4853 C   0  0  0  0  0  0  0  0  0  0  0  0
   24.3759  -19.7954  -13.9168 O   0  0  0  0  0  0  0  0  0  0  0  0
   23.8847  -22.0011  -13.7063 N   0  0  0  0  0  0  0  0  0  0  0  0
   24.2335  -23.4081  -13.3837 C   0  0  0  0  0  0  0  0  0  0  0  0
   23.4428  -24.1093  -14.4973 C   0  0  0  0  0  0  0  0  0  0  0  0
   22.1062  -23.4464  -14.2513 C   0  0  0  0  0  0  0  0  0  0  0  0
   22.5597  -21.9589  -14.2409 C   0  0  1  0  0  0  0  0  0  0  0  0
   21.5856  -21.1840  -13.4412 C   0  0  0  0  0  0  0  0  0  0  0  0
   20.4192  -20.7578  -14.0515 O   0  0  0  0  0  0  0  0  0  0  0  0
   21.7922  -20.9102  -12.2423 O   0  0  0  0  0  0  0  0  0  0  0  0
  2  1  1  0
  3  2  1  0
  3 10  1  0
  4  3  2  0
  5  6  1  0
  7  6  1  0
  8  7  1  0
  9 11  1  0
  9  8  1  1
  9 10  1  0
 11 13  1  0
 12 11  2  0
 13 14  1  0
 13 17  1  0
 14 15  1  0
 15 16  1  0
 17 16  1  0
 17 18  1  1
 18 19  1  0
 20 18  2  0
M  END
$$$$
