GMP.pdb
     RDKit          3D

 20 20  0  0  1  0  0  0  0  0999 V2000
   20.2911  -20.6999  -13.3325 N   0  0  0  0  0  0  0  0  0  0  0  0
   21.3855  -21.5080  -12.8356 C   0  0  0  0  0  0  0  0  0  0  0  0
   22.6389  -20.6820  -12.7819 C   0  0  0  0  0  0  0  0  0  0  0  0
   22.6470  -19.5014  -13.2044 O   0  0  0  0  0  0  0  0  0  0  0  0
   27.3255  -19.5898   -7.8023 C   0  0  0  0  0  0  0  0  0  0  0  0
   26.0162  -20.7500   -8.1337 S   0  0  0  0  0  0  0  0  0  0  0  0
   25.1170  -20.4725   -9.6601 C   0  0  0  0  0  0  0  0  0  0  0  0
   25.8094  -20.9232  -10.9068 C   0  0  0  0  0  0  0  0  0  0  0  0
   25.0951  -20.5589  -12.1769 C   0  0  2  0  0  0  0  0  0  0  0  0
   23.8103  -21.2435  -12.2519 N   0  0  0  0  0  0  0  0  0  0  0  0
   25.8854  -20.7857  -13.3804 C   0  0  0  0  0  0  0  0  0  0  0  0
   25.7722  -21.9842  -13.8848 O   0  0  0  0  0  0  0  0  0  0  0  0
   26.7442  -19.9437  -14.0914 N   0  0  0  0  0  0  0  0  0  0  0  0
   27.0848  -18.5859  -13.5960 C   0  0  0  0  0  0  0  0  0  0  0  0
   27.2358  -17.8720  -14.9468 C   0  0  0  0  0  0  0  0  0  0  0  0
   28.1932  -18.8487  -15.5915 C   0  0  0  0  0  0  0  0  0  0  0  0
   27.4185  -20.1717  -15.3310 C   0  0  1  0  0  0  0  0  0  0  0  0
   28.3939  -21.2841  -15.3186 C   0  0  0  0  0  0  0  0  0  0  0  0
   28.8266  -21.7977  -16.5283 O   0  0  0  0  0  0  0  0  0  0  0  0
   28.8286  -21.7627  -14.2523 O   0  0  0  0  0  0  0  0  0  0  0  0
  2  1  1  0
  3  2  1  0
  3 10  1  0
  4  3  2  0
  5  6  1  0
  7  6  1  0
  8  7  1  0
  9 11  1  0
  9  8  1  1
  9 10  1  0
 11 13  1  0
 12 11  2  0
 13 14  1  0
 13 17  1  0
 14 15  1  0
 15 16  1  0
 17 16  1  0
 17 18  1  1
 18 19  1  0
 20 18  2  0
M  END
$$$$
