NFI.pdb
     RDKit          3D

 28 28  0  0  1  0  0  0  0  0999 V2000
   19.0949  -14.0775  -18.7801 N   0  0  0  0  0  0  0  0  0  0  0  0
   19.4934  -12.7706  -19.1309 C   0  0  0  0  0  0  0  0  0  0  0  0
   19.5911  -12.4579  -20.3308 O   0  0  0  0  0  0  0  0  0  0  0  0
   19.7911  -11.7824  -18.0855 C   0  0  0  0  0  0  0  0  0  0  0  0
   19.6299  -10.4063  -18.6233 C   0  0  2  0  0  0  0  0  0  0  0  0
   20.6052  -10.0673  -19.6394 N   0  0  0  0  0  0  0  0  0  0  0  0
   19.4940   -9.3485  -17.5967 C   0  0  0  0  0  0  0  0  0  0  0  0
   18.5733   -9.4971  -16.7353 O   0  0  0  0  0  0  0  0  0  0  0  0
   20.3597   -8.2290  -17.5901 N   0  0  0  0  0  0  0  0  0  0  0  0
   20.2086   -7.2059  -16.5625 C   0  0  1  0  0  0  0  0  0  0  0  0
   21.5441   -7.0405  -15.8887 C   0  0  0  0  0  0  0  0  0  0  0  0
   21.9554   -8.1293  -15.0160 C   0  0  0  0  0  0  0  0  0  0  0  0
   22.9418   -9.0334  -15.3678 C   0  0  0  0  0  0  0  0  0  0  0  0
   23.3145  -10.0578  -14.5201 C   0  0  0  0  0  0  0  0  0  0  0  0
   22.7210  -10.2223  -13.2887 C   0  0  0  0  0  0  0  0  0  0  0  0
   21.7302   -9.3140  -12.9343 C   0  0  0  0  0  0  0  0  0  0  0  0
   21.3512   -8.2839  -13.7803 C   0  0  0  0  0  0  0  0  0  0  0  0
   19.7925   -5.9166  -17.1364 C   0  0  0  0  0  0  0  0  0  0  0  0
   20.3968   -5.4679  -18.1134 O   0  0  0  0  0  0  0  0  0  0  0  0
   15.5983   -2.7245  -19.6331 C   0  0  0  0  0  0  0  0  0  0  0  0
   16.6445   -2.6332  -18.5683 C   0  0  0  0  0  0  0  0  0  0  0  0
   17.1087   -3.9695  -18.0436 C   0  0  2  0  0  0  0  0  0  0  0  0
   15.9417   -4.7565  -17.4776 C   0  0  0  0  0  0  0  0  0  0  0  0
   18.2612   -3.8892  -17.0885 C   0  0  2  0  0  0  0  0  0  0  0  0
   18.6931   -5.1560  -16.5879 N   0  0  0  0  0  0  0  0  0  0  0  0
   18.1576   -2.8322  -16.0663 C   0  0  0  0  0  0  0  0  0  0  0  0
   18.0696   -3.1058  -14.6838 O   0  0  0  0  0  0  0  0  0  0  0  0
   18.1383   -1.6029  -16.3338 O   0  0  0  0  0  0  0  0  0  0  0  0
  1  2  1  0
  2  3  2  0
  4  2  1  0
  4  5  1  0
  5  6  1  1
  7  5  1  0
  7  8  2  0
  9  7  1  0
 10  9  1  0
 11 12  1  0
 10 11  1  6
 12 13  2  0
 12 17  1  0
 13 14  1  0
 14 15  2  0
 16 15  1  0
 17 16  2  0
 18 10  1  0
 19 18  2  0
 21 20  1  0
 22 21  1  0
 22 23  1  1
 24 22  1  0
 24 25  1  1
 25 18  1  0
 26 24  1  0
 27 26  1  0
 28 26  2  0
M  END
$$$$
