NFI.pdb
     RDKit          3D

 28 28  0  0  1  0  0  0  0  0999 V2000
   16.7955  -13.2203  -11.2939 N   0  0  0  0  0  0  0  0  0  0  0  0
   15.6138  -12.6577  -11.8202 C   0  0  0  0  0  0  0  0  0  0  0  0
   14.7060  -13.4032  -12.2289 O   0  0  0  0  0  0  0  0  0  0  0  0
   15.4544  -11.1988  -11.8852 C   0  0  0  0  0  0  0  0  0  0  0  0
   14.8278  -10.6977  -10.6342 C   0  0  2  0  0  0  0  0  0  0  0  0
   13.5054  -11.2392  -10.3956 N   0  0  0  0  0  0  0  0  0  0  0  0
   14.8758   -9.2286  -10.4589 C   0  0  0  0  0  0  0  0  0  0  0  0
   14.2069   -8.5286  -11.2802 O   0  0  0  0  0  0  0  0  0  0  0  0
   15.6378   -8.6470   -9.4177 N   0  0  0  0  0  0  0  0  0  0  0  0
   15.7035   -7.1958   -9.2955 C   0  0  1  0  0  0  0  0  0  0  0  0
   15.3731   -6.8463   -7.8695 C   0  0  0  0  0  0  0  0  0  0  0  0
   13.9571   -6.7719   -7.5445 C   0  0  0  0  0  0  0  0  0  0  0  0
   13.2265   -7.8757   -7.1421 C   0  0  0  0  0  0  0  0  0  0  0  0
   11.8830   -7.7777   -6.8382 C   0  0  0  0  0  0  0  0  0  0  0  0
   11.2139   -6.5773   -6.9221 C   0  0  0  0  0  0  0  0  0  0  0  0
   11.9474   -5.4676   -7.3258 C   0  0  0  0  0  0  0  0  0  0  0  0
   13.2958   -5.5591   -7.6325 C   0  0  0  0  0  0  0  0  0  0  0  0
   17.0434   -6.6831   -9.6220 C   0  0  0  0  0  0  0  0  0  0  0  0
   17.8855   -6.5821   -8.7266 O   0  0  0  0  0  0  0  0  0  0  0  0
   21.9556   -7.5184  -12.5672 C   0  0  0  0  0  0  0  0  0  0  0  0
   21.0245   -6.4319  -12.1321 C   0  0  0  0  0  0  0  0  0  0  0  0
   19.6548   -6.9187  -11.7277 C   0  0  2  0  0  0  0  0  0  0  0  0
   19.0829   -7.8451  -12.7843 C   0  0  0  0  0  0  0  0  0  0  0  0
   18.7008   -5.8268  -11.3476 C   0  0  2  0  0  0  0  0  0  0  0  0
   17.4048   -6.2917  -10.9652 N   0  0  0  0  0  0  0  0  0  0  0  0
   18.6894   -4.6605  -12.2490 C   0  0  0  0  0  0  0  0  0  0  0  0
   17.5307   -4.2256  -12.9288 O   0  0  0  0  0  0  0  0  0  0  0  0
   19.7034   -3.9556  -12.4900 O   0  0  0  0  0  0  0  0  0  0  0  0
  1  2  1  0
  2  3  2  0
  4  2  1  0
  4  5  1  0
  5  6  1  6
  7  5  1  0
  7  8  2  0
  9  7  1  0
 10  9  1  0
 11 12  1  0
 10 11  1  1
 12 13  2  0
 12 17  1  0
 13 14  1  0
 14 15  2  0
 16 15  1  0
 17 16  2  0
 18 10  1  0
 19 18  2  0
 21 20  1  0
 22 21  1  0
 22 23  1  6
 24 22  1  0
 24 25  1  6
 25 18  1  0
 26 24  1  0
 27 26  1  0
 28 26  2  0
M  END
$$$$
