NFI.pdb
     RDKit          3D

 28 28  0  0  1  0  0  0  0  0999 V2000
   29.6658  -19.9186  -18.9156 N   0  0  0  0  0  0  0  0  0  0  0  0
   28.3037  -19.6626  -18.6529 C   0  0  0  0  0  0  0  0  0  0  0  0
   27.6729  -18.8777  -19.3830 O   0  0  0  0  0  0  0  0  0  0  0  0
   27.6319  -20.3195  -17.5237 C   0  0  0  0  0  0  0  0  0  0  0  0
   28.6083  -21.1313  -16.7513 C   0  0  2  0  0  0  0  0  0  0  0  0
   29.0448  -22.3238  -17.4485 N   0  0  0  0  0  0  0  0  0  0  0  0
   28.2177  -21.4080  -15.3504 C   0  0  0  0  0  0  0  0  0  0  0  0
   27.5726  -22.4797  -15.1336 O   0  0  0  0  0  0  0  0  0  0  0  0
   28.5563  -20.5080  -14.3120 N   0  0  0  0  0  0  0  0  0  0  0  0
   28.1251  -20.7856  -12.9473 C   0  0  1  0  0  0  0  0  0  0  0  0
   29.0626  -20.0602  -12.0201 C   0  0  0  0  0  0  0  0  0  0  0  0
   30.0198  -20.8907  -11.3058 C   0  0  0  0  0  0  0  0  0  0  0  0
   29.9591  -21.0883   -9.9379 C   0  0  0  0  0  0  0  0  0  0  0  0
   30.8799  -21.8828   -9.2839 C   0  0  0  0  0  0  0  0  0  0  0  0
   31.8970  -22.5125   -9.9657 C   0  0  0  0  0  0  0  0  0  0  0  0
   31.9584  -22.3148  -11.3402 C   0  0  0  0  0  0  0  0  0  0  0  0
   31.0377  -21.5186  -12.0026 C   0  0  0  0  0  0  0  0  0  0  0  0
   26.7499  -20.3211  -12.7068 C   0  0  0  0  0  0  0  0  0  0  0  0
   26.4634  -19.1425  -12.9303 O   0  0  0  0  0  0  0  0  0  0  0  0
   22.6764  -21.4370  -15.2945 C   0  0  0  0  0  0  0  0  0  0  0  0
   23.6722  -20.9134  -14.3092 C   0  0  0  0  0  0  0  0  0  0  0  0
   23.3533  -21.2480  -12.8730 C   0  0  2  0  0  0  0  0  0  0  0  0
   21.9613  -20.7676  -12.5082 C   0  0  0  0  0  0  0  0  0  0  0  0
   24.3905  -20.7947  -11.8903 C   0  0  2  0  0  0  0  0  0  0  0  0
   25.7200  -21.2067  -12.2139 N   0  0  0  0  0  0  0  0  0  0  0  0
   24.0278  -20.9630  -10.4715 C   0  0  0  0  0  0  0  0  0  0  0  0
   23.1018  -20.1268   -9.8103 O   0  0  0  0  0  0  0  0  0  0  0  0
   24.5080  -21.8595   -9.7306 O   0  0  0  0  0  0  0  0  0  0  0  0
  1  2  1  0
  2  3  2  0
  4  2  1  0
  4  5  1  0
  5  6  1  6
  7  5  1  0
  7  8  2  0
  9  7  1  0
 10  9  1  0
 11 12  1  0
 10 11  1  1
 12 13  2  0
 12 17  1  0
 13 14  1  0
 14 15  2  0
 16 15  1  0
 17 16  2  0
 18 10  1  0
 19 18  2  0
 21 20  1  0
 22 21  1  0
 22 23  1  1
 24 22  1  0
 24 25  1  6
 25 18  1  0
 26 24  1  0
 27 26  1  0
 28 26  2  0
M  END
$$$$
