NFI.pdb
     RDKit          3D

 28 28  0  0  1  0  0  0  0  0999 V2000
   24.2341  -21.1162  -16.4053 N   0  0  0  0  0  0  0  0  0  0  0  0
   24.7290  -20.3930  -15.2999 C   0  0  0  0  0  0  0  0  0  0  0  0
   25.1971  -19.2532  -15.4696 O   0  0  0  0  0  0  0  0  0  0  0  0
   24.6918  -20.9814  -13.9543 C   0  0  0  0  0  0  0  0  0  0  0  0
   26.0724  -21.1342  -13.4259 C   0  0  2  0  0  0  0  0  0  0  0  0
   26.8795  -22.0674  -14.1852 N   0  0  0  0  0  0  0  0  0  0  0  0
   26.1581  -21.3714  -11.9672 C   0  0  0  0  0  0  0  0  0  0  0  0
   25.8287  -22.5248  -11.5511 O   0  0  0  0  0  0  0  0  0  0  0  0
   26.5897  -20.3479  -11.0903 N   0  0  0  0  0  0  0  0  0  0  0  0
   26.5826  -20.5802   -9.6511 C   0  0  1  0  0  0  0  0  0  0  0  0
   27.6004  -19.6562   -9.0385 C   0  0  0  0  0  0  0  0  0  0  0  0
   27.7085  -19.7005   -7.5884 C   0  0  0  0  0  0  0  0  0  0  0  0
   28.3498  -20.7285   -6.9207 C   0  0  0  0  0  0  0  0  0  0  0  0
   28.4395  -20.7460   -5.5428 C   0  0  0  0  0  0  0  0  0  0  0  0
   27.8950  -19.7409   -4.7753 C   0  0  0  0  0  0  0  0  0  0  0  0
   27.2509  -18.7073   -5.4455 C   0  0  0  0  0  0  0  0  0  0  0  0
   27.1572  -18.6838   -6.8280 C   0  0  0  0  0  0  0  0  0  0  0  0
   25.2624  -20.3052   -9.0626 C   0  0  0  0  0  0  0  0  0  0  0  0
   24.6913  -19.2454   -9.3307 O   0  0  0  0  0  0  0  0  0  0  0  0
   21.5228  -20.2309  -11.0543 C   0  0  0  0  0  0  0  0  0  0  0  0
   22.4041  -20.0712   -9.8566 C   0  0  0  0  0  0  0  0  0  0  0  0
   22.2425  -21.1580   -8.8227 C   0  0  2  0  0  0  0  0  0  0  0  0
   20.8211  -21.1855   -8.2931 C   0  0  0  0  0  0  0  0  0  0  0  0
   23.2615  -21.1188   -7.7239 C   0  0  2  0  0  0  0  0  0  0  0  0
   24.6115  -21.2422   -8.1759 N   0  0  0  0  0  0  0  0  0  0  0  0
   22.9382  -21.9323   -6.5380 C   0  0  0  0  0  0  0  0  0  0  0  0
   23.5982  -23.1428   -6.2329 O   0  0  0  0  0  0  0  0  0  0  0  0
   22.0525  -21.6220   -5.6999 O   0  0  0  0  0  0  0  0  0  0  0  0
  1  2  1  0
  2  3  2  0
  4  2  1  0
  4  5  1  0
  5  6  1  6
  7  5  1  0
  7  8  2  0
  9  7  1  0
 10  9  1  0
 11 12  1  0
 10 11  1  1
 12 13  2  0
 12 17  1  0
 13 14  1  0
 14 15  2  0
 16 15  1  0
 17 16  2  0
 18 10  1  0
 19 18  2  0
 21 20  1  0
 22 21  1  0
 22 23  1  1
 24 22  1  0
 24 25  1  6
 25 18  1  0
 26 24  1  0
 27 26  1  0
 28 26  2  0
M  END
$$$$
