NFI.pdb
     RDKit          3D

 28 28  0  0  1  0  0  0  0  0999 V2000
   29.2043  -22.3943  -17.9287 N   0  0  0  0  0  0  0  0  0  0  0  0
   28.0537  -21.6011  -18.1204 C   0  0  0  0  0  0  0  0  0  0  0  0
   28.0339  -20.7554  -19.0323 O   0  0  0  0  0  0  0  0  0  0  0  0
   26.8836  -21.7722  -17.2488 C   0  0  0  0  0  0  0  0  0  0  0  0
   27.1847  -22.7578  -16.1780 C   0  0  2  0  0  0  0  0  0  0  0  0
   27.1606  -24.1317  -16.6367 N   0  0  0  0  0  0  0  0  0  0  0  0
   26.4205  -22.5682  -14.9244 C   0  0  0  0  0  0  0  0  0  0  0  0
   25.2845  -23.1304  -14.8521 O   0  0  0  0  0  0  0  0  0  0  0  0
   26.9471  -21.7923  -13.8645 N   0  0  0  0  0  0  0  0  0  0  0  0
   26.1300  -21.5319  -12.6856 C   0  0  1  0  0  0  0  0  0  0  0  0
   27.0214  -20.9081  -11.6458 C   0  0  0  0  0  0  0  0  0  0  0  0
   26.3940  -20.6056  -10.3687 C   0  0  0  0  0  0  0  0  0  0  0  0
   26.5883  -19.4048   -9.7096 C   0  0  0  0  0  0  0  0  0  0  0  0
   25.9796  -19.1421   -8.4982 C   0  0  0  0  0  0  0  0  0  0  0  0
   25.1530  -20.0636   -7.8955 C   0  0  0  0  0  0  0  0  0  0  0  0
   24.9569  -21.2701   -8.5574 C   0  0  0  0  0  0  0  0  0  0  0  0
   25.5648  -21.5403   -9.7731 C   0  0  0  0  0  0  0  0  0  0  0  0
   25.0198  -20.6142  -12.9857 C   0  0  0  0  0  0  0  0  0  0  0  0
   25.2702  -19.4561  -13.3283 O   0  0  0  0  0  0  0  0  0  0  0  0
   22.5459  -19.6134  -16.8348 C   0  0  0  0  0  0  0  0  0  0  0  0
   23.0434  -19.6259  -15.4244 C   0  0  0  0  0  0  0  0  0  0  0  0
   21.9977  -20.0048  -14.4050 C   0  0  2  0  0  0  0  0  0  0  0  0
   20.8081  -19.0665  -14.4848 C   0  0  0  0  0  0  0  0  0  0  0  0
   22.5224  -20.1453  -13.0079 C   0  0  2  0  0  0  0  0  0  0  0  0
   23.6390  -21.0292  -12.8904 N   0  0  0  0  0  0  0  0  0  0  0  0
   21.4948  -20.3184  -11.9652 C   0  0  0  0  0  0  0  0  0  0  0  0
   21.1447  -21.5783  -11.4326 O   0  0  0  0  0  0  0  0  0  0  0  0
   20.8443  -19.3659  -11.4624 O   0  0  0  0  0  0  0  0  0  0  0  0
  1  2  1  0
  2  3  2  0
  4  2  1  0
  4  5  1  0
  5  6  1  6
  7  5  1  0
  7  8  2  0
  9  7  1  0
 10  9  1  0
 11 12  1  0
 10 11  1  1
 12 13  2  0
 12 17  1  0
 13 14  1  0
 14 15  2  0
 16 15  1  0
 17 16  2  0
 18 10  1  0
 19 18  2  0
 21 20  1  0
 22 21  1  0
 22 23  1  1
 24 22  1  0
 24 25  1  6
 25 18  1  0
 26 24  1  0
 27 26  1  0
 28 26  2  0
M  END
$$$$
