NFI.pdb
     RDKit          3D

 28 28  0  0  1  0  0  0  0  0999 V2000
   28.7972  -20.7173  -15.0942 N   0  0  0  0  0  0  0  0  0  0  0  0
   29.2470  -21.9534  -14.5846 C   0  0  0  0  0  0  0  0  0  0  0  0
   29.6763  -22.8215  -15.3651 O   0  0  0  0  0  0  0  0  0  0  0  0
   29.2098  -22.2153  -13.1396 C   0  0  0  0  0  0  0  0  0  0  0  0
   30.2548  -21.4154  -12.4490 C   0  0  2  0  0  0  0  0  0  0  0  0
   31.5963  -21.6894  -12.9223 N   0  0  0  0  0  0  0  0  0  0  0  0
   30.1663  -21.4188  -10.9713 C   0  0  0  0  0  0  0  0  0  0  0  0
   30.5854  -22.4565  -10.3718 O   0  0  0  0  0  0  0  0  0  0  0  0
   29.6359  -20.3073  -10.2741 N   0  0  0  0  0  0  0  0  0  0  0  0
   29.5923  -20.3232   -8.8170 C   0  0  1  0  0  0  0  0  0  0  0  0
   29.8475  -18.9185   -8.3411 C   0  0  0  0  0  0  0  0  0  0  0  0
   29.7616  -18.7081   -6.9043 C   0  0  0  0  0  0  0  0  0  0  0  0
   28.6257  -18.2102   -6.2912 C   0  0  0  0  0  0  0  0  0  0  0  0
   28.5698  -18.0209   -4.9245 C   0  0  0  0  0  0  0  0  0  0  0  0
   29.6418  -18.3205   -4.1140 C   0  0  0  0  0  0  0  0  0  0  0  0
   30.7833  -18.8214   -4.7291 C   0  0  0  0  0  0  0  0  0  0  0  0
   30.8461  -19.0134   -6.1002 C   0  0  0  0  0  0  0  0  0  0  0  0
   28.2838  -20.7739   -8.3173 C   0  0  0  0  0  0  0  0  0  0  0  0
   27.2716  -20.5425   -8.9829 O   0  0  0  0  0  0  0  0  0  0  0  0
   28.5084  -22.1022   -2.8168 C   0  0  0  0  0  0  0  0  0  0  0  0
   28.2575  -22.2836   -4.2800 C   0  0  0  0  0  0  0  0  0  0  0  0
   27.1397  -21.4291   -4.8246 C   0  0  2  0  0  0  0  0  0  0  0  0
   25.8589  -21.6637   -4.0460 C   0  0  0  0  0  0  0  0  0  0  0  0
   26.9388  -21.5486   -6.3053 C   0  0  2  0  0  0  0  0  0  0  0  0
   28.1472  -21.4818   -7.0650 N   0  0  0  0  0  0  0  0  0  0  0  0
   25.8275  -20.7513   -6.8549 C   0  0  0  0  0  0  0  0  0  0  0  0
   24.5789  -21.3108   -7.2038 O   0  0  0  0  0  0  0  0  0  0  0  0
   25.8935  -19.5116   -7.0601 O   0  0  0  0  0  0  0  0  0  0  0  0
  1  2  1  0
  2  3  2  0
  4  2  1  0
  4  5  1  0
  5  6  1  1
  7  5  1  0
  7  8  2  0
  9  7  1  0
 10  9  1  0
 11 12  1  0
 10 11  1  1
 12 13  2  0
 12 17  1  0
 13 14  1  0
 14 15  2  0
 16 15  1  0
 17 16  2  0
 18 10  1  0
 19 18  2  0
 21 20  1  0
 22 21  1  0
 22 23  1  1
 24 22  1  0
 24 25  1  6
 25 18  1  0
 26 24  1  0
 27 26  1  0
 28 26  2  0
M  END
$$$$
