NFI.pdb
     RDKit          3D

 28 28  0  0  1  0  0  0  0  0999 V2000
   29.1292  -18.3043  -16.8190 N   0  0  0  0  0  0  0  0  0  0  0  0
   28.0534  -19.0673  -17.3195 C   0  0  0  0  0  0  0  0  0  0  0  0
   27.9236  -19.2171  -18.5473 O   0  0  0  0  0  0  0  0  0  0  0  0
   27.0908  -19.6831  -16.3963 C   0  0  0  0  0  0  0  0  0  0  0  0
   27.7244  -20.8231  -15.6839 C   0  0  2  0  0  0  0  0  0  0  0  0
   28.0487  -21.9362  -16.5526 N   0  0  0  0  0  0  0  0  0  0  0  0
   27.0252  -21.2539  -14.4523 C   0  0  0  0  0  0  0  0  0  0  0  0
   26.0270  -22.0250  -14.5967 O   0  0  0  0  0  0  0  0  0  0  0  0
   27.4627  -20.8166  -13.1795 N   0  0  0  0  0  0  0  0  0  0  0  0
   26.6355  -21.0693  -12.0059 C   0  0  1  0  0  0  0  0  0  0  0  0
   27.4273  -20.6525  -10.7958 C   0  0  0  0  0  0  0  0  0  0  0  0
   26.6872  -20.5800   -9.5455 C   0  0  0  0  0  0  0  0  0  0  0  0
   25.6946  -21.4850   -9.2143 C   0  0  0  0  0  0  0  0  0  0  0  0
   25.0076  -21.3944   -8.0198 C   0  0  0  0  0  0  0  0  0  0  0  0
   25.2820  -20.4003   -7.1076 C   0  0  0  0  0  0  0  0  0  0  0  0
   26.2796  -19.4909   -7.4394 C   0  0  0  0  0  0  0  0  0  0  0  0
   26.9726  -19.5759   -8.6365 C   0  0  0  0  0  0  0  0  0  0  0  0
   25.3800  -20.3035  -12.0508 C   0  0  0  0  0  0  0  0  0  0  0  0
   25.4255  -19.0770  -12.1726 O   0  0  0  0  0  0  0  0  0  0  0  0
   20.7529  -22.0534  -13.9615 C   0  0  0  0  0  0  0  0  0  0  0  0
   22.1300  -21.5437  -14.2458 C   0  0  0  0  0  0  0  0  0  0  0  0
   22.4353  -20.2074  -13.6153 C   0  0  2  0  0  0  0  0  0  0  0  0
   23.4326  -19.4340  -14.4573 C   0  0  0  0  0  0  0  0  0  0  0  0
   22.8419  -20.2850  -12.1746 C   0  0  2  0  0  0  0  0  0  0  0  0
   24.0895  -20.9465  -11.9556 N   0  0  0  0  0  0  0  0  0  0  0  0
   21.7714  -20.6763  -11.2398 C   0  0  0  0  0  0  0  0  0  0  0  0
   21.7862  -21.8902  -10.5188 O   0  0  0  0  0  0  0  0  0  0  0  0
   20.7581  -19.9684  -11.0044 O   0  0  0  0  0  0  0  0  0  0  0  0
  1  2  1  0
  2  3  2  0
  4  2  1  0
  4  5  1  0
  5  6  1  6
  7  5  1  0
  7  8  2  0
  9  7  1  0
 10  9  1  0
 11 12  1  0
 10 11  1  1
 12 13  2  0
 12 17  1  0
 13 14  1  0
 14 15  2  0
 16 15  1  0
 17 16  2  0
 18 10  1  0
 19 18  2  0
 21 20  1  0
 22 21  1  0
 22 23  1  6
 24 22  1  0
 24 25  1  6
 25 18  1  0
 26 24  1  0
 27 26  1  0
 28 26  2  0
M  END
$$$$
