FEW.pdb
     RDKit          3D

 35 37  0  0  1  0  0  0  0  0999 V2000
    6.4394  -18.4469   21.9328 N   0  0  0  0  0  0  0  0  0  0  0  0
    7.1684  -17.2236   21.7078 C   0  0  1  0  0  0  0  0  0  0  0  0
    6.4483  -16.0334   22.3486 C   0  0  0  0  0  0  0  0  0  0  0  0
    6.9653  -14.7555   21.7929 C   0  0  0  0  0  0  0  0  0  0  0  0
    7.2190  -14.6208   20.4440 C   0  0  0  0  0  0  0  0  0  0  0  0
    7.6995  -13.4304   19.9280 C   0  0  0  0  0  0  0  0  0  0  0  0
    7.9402  -12.3376   20.7519 C   0  0  0  0  0  0  0  0  0  0  0  0
    7.6931  -12.4574   22.0904 C   0  0  0  0  0  0  0  0  0  0  0  0
    7.2156  -13.6462   22.5902 C   0  0  0  0  0  0  0  0  0  0  0  0
    8.4838  -17.3164   22.4309 C   0  0  0  0  0  0  0  0  0  0  0  0
    8.5865  -18.0313   23.4686 O   0  0  0  0  0  0  0  0  0  0  0  0
    9.6273  -16.6175   21.9780 N   0  0  0  0  0  0  0  0  0  0  0  0
   10.9697  -16.9723   22.5126 C   0  0  1  0  0  0  0  0  0  0  0  0
   11.9828  -16.6274   21.4609 C   0  0  0  0  0  0  0  0  0  0  0  0
   11.8327  -17.2545   20.1347 C   0  0  0  0  0  0  0  0  0  0  0  0
   12.9040  -18.3122   19.9840 C   0  0  0  0  0  0  0  0  0  0  0  0
   14.1189  -18.0723   20.1831 O   0  0  0  0  0  0  0  0  0  0  0  0
   11.1460  -16.2969   23.8037 C   0  0  0  0  0  0  0  0  0  0  0  0
   12.0255  -15.3766   23.9610 O   0  0  0  0  0  0  0  0  0  0  0  0
   12.5372  -19.5903   19.6139 O   0  0  0  0  0  0  0  0  0  0  0  0
   10.3852  -16.5843   24.9551 N   0  0  0  0  0  0  0  0  0  0  0  0
   10.8995  -16.3472   26.3086 C   0  0  1  0  0  0  0  0  0  0  0  0
   10.2216  -15.0938   26.8791 C   0  0  0  0  0  0  0  0  0  0  0  0
    8.7486  -15.2000   26.7243 C   0  0  0  0  0  0  0  0  0  0  0  0
    7.9838  -16.3590   26.5475 C   0  0  0  0  0  0  0  0  0  0  0  0
    6.6851  -16.0107   26.4491 N   0  0  0  0  0  0  0  0  0  0  0  0
    6.5535  -14.6771   26.5522 C   0  0  0  0  0  0  0  0  0  0  0  0
    5.4477  -13.8550   26.5140 C   0  0  0  0  0  0  0  0  0  0  0  0
    5.5966  -12.4842   26.6480 C   0  0  0  0  0  0  0  0  0  0  0  0
    6.8637  -12.0038   26.8155 C   0  0  0  0  0  0  0  0  0  0  0  0
    7.9561  -12.8169   26.8532 C   0  0  0  0  0  0  0  0  0  0  0  0
    7.8238  -14.1753   26.7219 C   0  0  0  0  0  0  0  0  0  0  0  0
   10.5066  -17.4753   27.1915 C   0  0  0  0  0  0  0  0  0  0  0  0
    9.7291  -18.5311   26.7571 O   0  0  0  0  0  0  0  0  0  0  0  0
   10.8739  -17.5141   28.3939 O   0  0  0  0  0  0  0  0  0  0  0  0
  2  1  1  1
  2  3  1  0
  3  4  1  0
  4  9  1  0
  5  4  2  0
  5  6  1  0
  6  7  2  0
  7  8  1  0
  9  8  2  0
 10 11  2  0
 10  2  1  0
 12 10  1  0
 13 12  1  0
 13 14  1  6
 15 14  1  0
 16 15  1  0
 17 16  2  0
 18 13  1  0
 19 18  2  0
 20 16  1  0
 21 18  1  0
 22 21  1  0
 22 23  1  1
 23 24  1  0
 24 25  2  0
 24 32  1  0
 25 26  1  0
 26 27  1  0
 27 28  2  0
 28 29  1  0
 30 29  2  0
 31 30  1  0
 32 31  2  0
 32 27  1  0
 33 22  1  0
 34 33  1  0
 35 33  2  0
M  END
$$$$
