FEW.pdb
     RDKit          3D

 35 37  0  0  1  0  0  0  0  0999 V2000
    6.6782  -15.9885   23.5918 N   0  0  0  0  0  0  0  0  0  0  0  0
    6.5832  -16.9110   22.4880 C   0  0  1  0  0  0  0  0  0  0  0  0
    6.0006  -16.2227   21.2501 C   0  0  0  0  0  0  0  0  0  0  0  0
    6.7629  -14.9853   20.9392 C   0  0  0  0  0  0  0  0  0  0  0  0
    7.3536  -14.8082   19.7056 C   0  0  0  0  0  0  0  0  0  0  0  0
    8.0623  -13.6554   19.4173 C   0  0  0  0  0  0  0  0  0  0  0  0
    8.1996  -12.6441   20.3603 C   0  0  0  0  0  0  0  0  0  0  0  0
    7.6194  -12.8066   21.5867 C   0  0  0  0  0  0  0  0  0  0  0  0
    6.9178  -13.9572   21.8601 C   0  0  0  0  0  0  0  0  0  0  0  0
    7.9752  -17.3159   22.0879 C   0  0  0  0  0  0  0  0  0  0  0  0
    8.1475  -18.2513   21.2549 O   0  0  0  0  0  0  0  0  0  0  0  0
    9.1151  -16.6719   22.6236 N   0  0  0  0  0  0  0  0  0  0  0  0
   10.3976  -17.4170   22.7410 C   0  0  1  0  0  0  0  0  0  0  0  0
   11.2967  -16.9506   21.6339 C   0  0  0  0  0  0  0  0  0  0  0  0
   12.6109  -17.6054   21.4982 C   0  0  0  0  0  0  0  0  0  0  0  0
   13.3828  -16.9020   20.4035 C   0  0  0  0  0  0  0  0  0  0  0  0
   13.1746  -17.1210   19.1862 O   0  0  0  0  0  0  0  0  0  0  0  0
   10.9194  -17.2272   24.0996 C   0  0  0  0  0  0  0  0  0  0  0  0
   12.0464  -17.7243   24.4573 O   0  0  0  0  0  0  0  0  0  0  0  0
   14.3534  -15.9841   20.7509 O   0  0  0  0  0  0  0  0  0  0  0  0
   10.2536  -16.4988   25.1062 N   0  0  0  0  0  0  0  0  0  0  0  0
   10.8397  -16.2907   26.4351 C   0  0  1  0  0  0  0  0  0  0  0  0
   10.2299  -15.0223   27.0477 C   0  0  0  0  0  0  0  0  0  0  0  0
    8.7763  -14.9645   26.7498 C   0  0  0  0  0  0  0  0  0  0  0  0
    7.8917  -16.0347   26.5713 C   0  0  0  0  0  0  0  0  0  0  0  0
    6.6623  -15.5433   26.3176 N   0  0  0  0  0  0  0  0  0  0  0  0
    6.6904  -14.1995   26.3194 C   0  0  0  0  0  0  0  0  0  0  0  0
    5.7053  -13.2573   26.1143 C   0  0  0  0  0  0  0  0  0  0  0  0
    6.0123  -11.9077   26.1732 C   0  0  0  0  0  0  0  0  0  0  0  0
    7.3084  -11.5696   26.4382 C   0  0  0  0  0  0  0  0  0  0  0  0
    8.2814  -12.5013   26.6408 C   0  0  0  0  0  0  0  0  0  0  0  0
    7.9921  -13.8405   26.5856 C   0  0  0  0  0  0  0  0  0  0  0  0
   10.4542  -17.4144   27.3269 C   0  0  0  0  0  0  0  0  0  0  0  0
    9.7210  -18.5004   26.8898 O   0  0  0  0  0  0  0  0  0  0  0  0
   10.7870  -17.4211   28.5399 O   0  0  0  0  0  0  0  0  0  0  0  0
  2  1  1  1
  2  3  1  0
  3  4  1  0
  4  9  1  0
  5  4  2  0
  5  6  1  0
  6  7  2  0
  7  8  1  0
  9  8  2  0
 10 11  2  0
 10  2  1  0
 12 10  1  0
 13 12  1  0
 13 14  1  6
 15 14  1  0
 16 15  1  0
 17 16  2  0
 18 13  1  0
 19 18  2  0
 20 16  1  0
 21 18  1  0
 22 21  1  0
 22 23  1  1
 23 24  1  0
 24 25  2  0
 24 32  1  0
 25 26  1  0
 26 27  1  0
 27 28  2  0
 28 29  1  0
 30 29  2  0
 31 30  1  0
 32 31  2  0
 32 27  1  0
 33 22  1  0
 34 33  1  0
 35 33  2  0
M  END
$$$$
