FEW.pdb
     RDKit          3D

 35 37  0  0  1  0  0  0  0  0999 V2000
    5.6615  -16.8321   20.9498 N   0  0  0  0  0  0  0  0  0  0  0  0
    7.0202  -17.0976   20.5474 C   0  0  1  0  0  0  0  0  0  0  0  0
    7.5354  -16.0023   19.6090 C   0  0  0  0  0  0  0  0  0  0  0  0
    7.4594  -14.6746   20.2726 C   0  0  0  0  0  0  0  0  0  0  0  0
    7.8038  -13.5234   19.5957 C   0  0  0  0  0  0  0  0  0  0  0  0
    7.7319  -12.2881   20.2144 C   0  0  0  0  0  0  0  0  0  0  0  0
    7.3113  -12.1709   21.5336 C   0  0  0  0  0  0  0  0  0  0  0  0
    6.9671  -13.3035   22.2161 C   0  0  0  0  0  0  0  0  0  0  0  0
    7.0432  -14.5250   21.5892 C   0  0  0  0  0  0  0  0  0  0  0  0
    7.8999  -17.0118   21.7641 C   0  0  0  0  0  0  0  0  0  0  0  0
    7.3879  -17.0520   22.9194 O   0  0  0  0  0  0  0  0  0  0  0  0
    9.3045  -16.8856   21.6534 N   0  0  0  0  0  0  0  0  0  0  0  0
   10.1877  -17.5803   22.6287 C   0  0  1  0  0  0  0  0  0  0  0  0
   11.5154  -17.7974   21.9643 C   0  0  0  0  0  0  0  0  0  0  0  0
   12.2498  -16.6067   21.4980 C   0  0  0  0  0  0  0  0  0  0  0  0
   13.5425  -17.0643   20.8589 C   0  0  0  0  0  0  0  0  0  0  0  0
   13.6382  -17.3037   19.6314 O   0  0  0  0  0  0  0  0  0  0  0  0
   10.2227  -16.7898   23.8648 C   0  0  0  0  0  0  0  0  0  0  0  0
   10.5082  -15.5394   23.8496 O   0  0  0  0  0  0  0  0  0  0  0  0
   14.6615  -17.2262   21.6506 O   0  0  0  0  0  0  0  0  0  0  0  0
    9.9494  -17.3136   25.1447 N   0  0  0  0  0  0  0  0  0  0  0  0
   10.2072  -16.5501   26.3708 C   0  0  1  0  0  0  0  0  0  0  0  0
    8.9354  -16.5573   27.2303 C   0  0  0  0  0  0  0  0  0  0  0  0
    7.9043  -15.6830   26.6159 C   0  0  0  0  0  0  0  0  0  0  0  0
    6.7580  -16.0693   25.9113 C   0  0  0  0  0  0  0  0  0  0  0  0
    6.0938  -14.9621   25.5236 N   0  0  0  0  0  0  0  0  0  0  0  0
    6.7450  -13.8617   25.9375 C   0  0  0  0  0  0  0  0  0  0  0  0
    6.4704  -12.5188   25.7906 C   0  0  0  0  0  0  0  0  0  0  0  0
    7.3274  -11.5720   26.3273 C   0  0  0  0  0  0  0  0  0  0  0  0
    8.4296  -12.0279   26.9919 C   0  0  0  0  0  0  0  0  0  0  0  0
    8.7004  -13.3552   27.1368 C   0  0  0  0  0  0  0  0  0  0  0  0
    7.8611  -14.3034   26.6109 C   0  0  0  0  0  0  0  0  0  0  0  0
   11.2564  -17.2352   27.1685 C   0  0  0  0  0  0  0  0  0  0  0  0
   11.7858  -16.7003   28.3269 O   0  0  0  0  0  0  0  0  0  0  0  0
   11.7134  -18.3519   26.8132 O   0  0  0  0  0  0  0  0  0  0  0  0
  2  1  1  1
  2  3  1  0
  3  4  1  0
  4  9  1  0
  5  4  2  0
  5  6  1  0
  6  7  2  0
  7  8  1  0
  9  8  2  0
 10 11  2  0
 10  2  1  0
 12 10  1  0
 13 12  1  0
 13 14  1  6
 15 14  1  0
 16 15  1  0
 17 16  2  0
 18 13  1  0
 19 18  2  0
 20 16  1  0
 21 18  1  0
 22 21  1  0
 22 23  1  1
 23 24  1  0
 24 25  2  0
 24 32  1  0
 25 26  1  0
 26 27  1  0
 27 28  2  0
 28 29  1  0
 30 29  2  0
 31 30  1  0
 32 31  2  0
 32 27  1  0
 33 22  1  0
 34 33  1  0
 35 33  2  0
M  END
$$$$
