FEW.pdb
     RDKit          3D

 35 37  0  0  1  0  0  0  0  0999 V2000
    5.8839  -18.5222   21.3742 N   0  0  0  0  0  0  0  0  0  0  0  0
    6.7006  -17.3409   21.2478 C   0  0  1  0  0  0  0  0  0  0  0  0
    5.9722  -16.1122   21.8004 C   0  0  0  0  0  0  0  0  0  0  0  0
    6.6923  -14.8690   21.4197 C   0  0  0  0  0  0  0  0  0  0  0  0
    6.8758  -14.5341   20.0945 C   0  0  0  0  0  0  0  0  0  0  0  0
    7.5457  -13.3762   19.7416 C   0  0  0  0  0  0  0  0  0  0  0  0
    8.0524  -12.5181   20.7100 C   0  0  0  0  0  0  0  0  0  0  0  0
    7.8777  -12.8378   22.0269 C   0  0  0  0  0  0  0  0  0  0  0  0
    7.2100  -13.9917   22.3639 C   0  0  0  0  0  0  0  0  0  0  0  0
    7.9091  -17.5041   22.1280 C   0  0  0  0  0  0  0  0  0  0  0  0
    7.8093  -18.1078   23.2344 O   0  0  0  0  0  0  0  0  0  0  0  0
    9.1734  -16.9950   21.7495 N   0  0  0  0  0  0  0  0  0  0  0  0
   10.3852  -17.3765   22.5240 C   0  0  1  0  0  0  0  0  0  0  0  0
   11.5783  -17.1419   21.6448 C   0  0  0  0  0  0  0  0  0  0  0  0
   11.7790  -18.0567   20.5058 C   0  0  0  0  0  0  0  0  0  0  0  0
   12.9892  -17.5895   19.7271 C   0  0  0  0  0  0  0  0  0  0  0  0
   14.1543  -17.6651   20.1855 O   0  0  0  0  0  0  0  0  0  0  0  0
   10.3781  -16.6325   23.7891 C   0  0  0  0  0  0  0  0  0  0  0  0
   10.6800  -15.3866   23.8325 O   0  0  0  0  0  0  0  0  0  0  0  0
   12.8113  -17.0596   18.4652 O   0  0  0  0  0  0  0  0  0  0  0  0
   10.0442  -17.1989   25.0360 N   0  0  0  0  0  0  0  0  0  0  0  0
   10.4349  -16.5753   26.3054 C   0  0  1  0  0  0  0  0  0  0  0  0
    9.2014  -16.4999   27.2157 C   0  0  0  0  0  0  0  0  0  0  0  0
    8.1659  -15.6356   26.5947 C   0  0  0  0  0  0  0  0  0  0  0  0
    7.0564  -16.0308   25.8381 C   0  0  0  0  0  0  0  0  0  0  0  0
    6.3727  -14.9308   25.4640 N   0  0  0  0  0  0  0  0  0  0  0  0
    6.9761  -13.8266   25.9364 C   0  0  0  0  0  0  0  0  0  0  0  0
    6.6663  -12.4881   25.8242 C   0  0  0  0  0  0  0  0  0  0  0  0
    7.4757  -11.5356   26.4214 C   0  0  0  0  0  0  0  0  0  0  0  0
    8.5679  -11.9817   27.1089 C   0  0  0  0  0  0  0  0  0  0  0  0
    8.8734  -13.3046   27.2194 C   0  0  0  0  0  0  0  0  0  0  0  0
    8.0814  -14.2584   26.6336 C   0  0  0  0  0  0  0  0  0  0  0  0
   11.4176  -17.4448   27.0016 C   0  0  0  0  0  0  0  0  0  0  0  0
   12.0263  -17.0864   28.1888 O   0  0  0  0  0  0  0  0  0  0  0  0
   11.7408  -18.5643   26.5278 O   0  0  0  0  0  0  0  0  0  0  0  0
  2  1  1  1
  2  3  1  0
  3  4  1  0
  4  9  1  0
  5  4  2  0
  5  6  1  0
  6  7  2  0
  7  8  1  0
  9  8  2  0
 10 11  2  0
 10  2  1  0
 12 10  1  0
 13 12  1  0
 13 14  1  6
 15 14  1  0
 16 15  1  0
 17 16  2  0
 18 13  1  0
 19 18  2  0
 20 16  1  0
 21 18  1  0
 22 21  1  0
 22 23  1  1
 23 24  1  0
 24 25  2  0
 24 32  1  0
 25 26  1  0
 26 27  1  0
 27 28  2  0
 28 29  1  0
 30 29  2  0
 31 30  1  0
 32 31  2  0
 32 27  1  0
 33 22  1  0
 34 33  1  0
 35 33  2  0
M  END
$$$$
