FEW.pdb
     RDKit          3D

 35 37  0  0  1  0  0  0  0  0999 V2000
    2.6589    1.6381   70.1870 N   0  0  0  0  0  0  0  0  0  0  0  0
    2.3018    0.5861   71.1058 C   0  0  1  0  0  0  0  0  0  0  0  0
    3.5504   -0.1371   71.6194 C   0  0  0  0  0  0  0  0  0  0  0  0
    4.7538    0.7161   71.4381 C   0  0  0  0  0  0  0  0  0  0  0  0
    5.8960    0.4969   72.1793 C   0  0  0  0  0  0  0  0  0  0  0  0
    7.0157    1.2914   72.0090 C   0  0  0  0  0  0  0  0  0  0  0  0
    7.0226    2.3318   71.0879 C   0  0  0  0  0  0  0  0  0  0  0  0
    5.8976    2.5602   70.3468 C   0  0  0  0  0  0  0  0  0  0  0  0
    4.7916    1.7630   70.5261 C   0  0  0  0  0  0  0  0  0  0  0  0
    1.6862    1.2122   72.3268 C   0  0  0  0  0  0  0  0  0  0  0  0
    0.9380    0.5265   73.0807 O   0  0  0  0  0  0  0  0  0  0  0  0
    1.9228    2.5659   72.6624 N   0  0  0  0  0  0  0  0  0  0  0  0
    3.2145    2.9568   73.2888 C   0  0  1  0  0  0  0  0  0  0  0  0
    3.0348    2.8933   74.7771 C   0  0  0  0  0  0  0  0  0  0  0  0
    1.8711    2.1500   75.2946 C   0  0  0  0  0  0  0  0  0  0  0  0
    0.7692    3.1414   75.5981 C   0  0  0  0  0  0  0  0  0  0  0  0
    0.8737    4.3639   75.3378 O   0  0  0  0  0  0  0  0  0  0  0  0
    4.2712    2.0962   72.7439 C   0  0  0  0  0  0  0  0  0  0  0  0
    4.1296    1.4960   71.6191 O   0  0  0  0  0  0  0  0  0  0  0  0
   -0.3966    2.6901   76.1833 O   0  0  0  0  0  0  0  0  0  0  0  0
    5.5049    1.8599   73.3836 N   0  0  0  0  0  0  0  0  0  0  0  0
    6.3104    0.6651   73.1069 C   0  0  1  0  0  0  0  0  0  0  0  0
    5.4021   -0.4075   72.4901 C   0  0  0  0  0  0  0  0  0  0  0  0
    5.0173   -1.4010   73.5245 C   0  0  0  0  0  0  0  0  0  0  0  0
    5.8588   -2.1207   74.3809 C   0  0  0  0  0  0  0  0  0  0  0  0
    5.1028   -2.9154   75.1647 N   0  0  0  0  0  0  0  0  0  0  0  0
    3.8015   -2.7564   74.8684 C   0  0  0  0  0  0  0  0  0  0  0  0
    2.6619   -3.3363   75.3836 C   0  0  0  0  0  0  0  0  0  0  0  0
    1.4180   -2.9851   74.8853 C   0  0  0  0  0  0  0  0  0  0  0  0
    1.3819   -2.0584   73.8832 C   0  0  0  0  0  0  0  0  0  0  0  0
    2.5084   -1.4857   73.3745 C   0  0  0  0  0  0  0  0  0  0  0  0
    3.7463   -1.8236   73.8579 C   0  0  0  0  0  0  0  0  0  0  0  0
    7.3357    0.9868   72.0814 C   0  0  0  0  0  0  0  0  0  0  0  0
    8.4738    0.2262   71.8954 O   0  0  0  0  0  0  0  0  0  0  0  0
    7.2055    1.9847   71.3269 O   0  0  0  0  0  0  0  0  0  0  0  0
  2  1  1  6
  2  3  1  0
  3  4  1  0
  4  9  1  0
  5  4  2  0
  5  6  1  0
  6  7  2  0
  7  8  1  0
  9  8  2  0
 10 11  2  0
 10  2  1  0
 12 10  1  0
 13 12  1  0
 13 14  1  1
 15 14  1  0
 16 15  1  0
 17 16  2  0
 18 13  1  0
 19 18  2  0
 20 16  1  0
 21 18  1  0
 22 21  1  0
 22 23  1  6
 23 24  1  0
 24 25  2  0
 24 32  1  0
 25 26  1  0
 26 27  1  0
 27 28  2  0
 28 29  1  0
 30 29  2  0
 31 30  1  0
 32 31  2  0
 32 27  1  0
 33 22  1  0
 34 33  1  0
 35 33  2  0
M  END
$$$$
