AHG.pdb
     RDKit          3D

 20 20  0  0  1  0  0  0  0  0999 V2000
   10.7108  -18.3617   22.9876 C   0  0  0  0  0  0  0  0  0  0  0  0
   10.0908  -17.1293   23.6076 C   0  0  2  0  0  0  0  0  0  0  0  0
   10.1642  -15.9843   22.7331 N   0  0  0  0  0  0  0  0  0  0  0  0
   10.8655  -16.8177   24.8532 C   0  0  0  0  0  0  0  0  0  0  0  0
   12.0423  -16.3491   24.7769 O   0  0  0  0  0  0  0  0  0  0  0  0
   10.3256  -17.0296   26.1496 N   0  0  0  0  0  0  0  0  0  0  0  0
   11.1328  -16.7202   27.3533 C   0  0  1  0  0  0  0  0  0  0  0  0
   10.1953  -16.0602   28.3186 C   0  0  0  0  0  0  0  0  0  0  0  0
    9.6490  -14.7642   27.9108 C   0  0  0  0  0  0  0  0  0  0  0  0
    9.9683  -14.0254   26.7871 C   0  0  0  0  0  0  0  0  0  0  0  0
    9.2537  -12.8827   26.7566 N   0  0  0  0  0  0  0  0  0  0  0  0
    8.4787  -12.8833   27.8519 C   0  0  0  0  0  0  0  0  0  0  0  0
    8.7091  -14.0079   28.5501 N   0  0  0  0  0  0  0  0  0  0  0  0
   11.8055  -17.9256   27.8410 C   0  0  0  0  0  0  0  0  0  0  0  0
   12.5195  -17.8327   28.8856 O   0  0  0  0  0  0  0  0  0  0  0  0
   11.7387  -19.2132   27.2567 N   0  0  0  0  0  0  0  0  0  0  0  0
   12.4599  -20.3457   27.8444 C   0  0  0  0  0  0  0  0  0  0  0  0
   13.8174  -20.4652   27.2822 C   0  0  0  0  0  0  0  0  0  0  0  0
   14.3109  -19.6809   26.4320 O   0  0  0  0  0  0  0  0  0  0  0  0
   14.6149  -21.5142   27.7157 O   0  0  0  0  0  0  0  0  0  0  0  0
  2  1  1  6
  2  4  1  0
  2  3  1  0
  4  5  2  0
  6  7  1  0
  6  4  1  0
  7  8  1  1
  9  8  1  0
 10  9  2  0
 11 10  1  0
 12 11  1  0
 12 13  2  0
 13  9  1  0
 14 15  2  0
 14  7  1  0
 16 14  1  0
 17 16  1  0
 18 17  1  0
 19 18  2  0
 20 18  1  0
M  END
$$$$
