AHG.pdb
     RDKit          3D

 20 20  0  0  1  0  0  0  0  0999 V2000
    6.7496  -20.2691   21.3793 C   0  0  0  0  0  0  0  0  0  0  0  0
    6.4780  -19.1488   20.4000 C   0  0  2  0  0  0  0  0  0  0  0  0
    6.7221  -19.5477   19.0352 N   0  0  0  0  0  0  0  0  0  0  0  0
    7.4141  -18.0261   20.7344 C   0  0  0  0  0  0  0  0  0  0  0  0
    8.6572  -18.1367   20.5047 O   0  0  0  0  0  0  0  0  0  0  0  0
    6.9585  -16.8115   21.3125 N   0  0  0  0  0  0  0  0  0  0  0  0
    7.9267  -15.7521   21.6821 C   0  0  1  0  0  0  0  0  0  0  0  0
    7.3136  -14.4601   21.2340 C   0  0  0  0  0  0  0  0  0  0  0  0
    7.4896  -14.1122   19.8225 C   0  0  0  0  0  0  0  0  0  0  0  0
    8.1892  -14.8125   18.8578 C   0  0  0  0  0  0  0  0  0  0  0  0
    8.1232  -14.1741   17.6724 N   0  0  0  0  0  0  0  0  0  0  0  0
    7.3868  -13.0700   17.8696 C   0  0  0  0  0  0  0  0  0  0  0  0
    7.0025  -13.0246   19.1563 N   0  0  0  0  0  0  0  0  0  0  0  0
    8.2611  -15.8397   23.1048 C   0  0  0  0  0  0  0  0  0  0  0  0
    7.3104  -15.8457   23.9449 O   0  0  0  0  0  0  0  0  0  0  0  0
    9.5637  -15.9228   23.6525 N   0  0  0  0  0  0  0  0  0  0  0  0
    9.7652  -16.1157   25.0914 C   0  0  0  0  0  0  0  0  0  0  0  0
   11.1969  -16.2439   25.4186 C   0  0  0  0  0  0  0  0  0  0  0  0
   12.1306  -16.1842   24.5782 O   0  0  0  0  0  0  0  0  0  0  0  0
   11.5493  -16.4449   26.7450 O   0  0  0  0  0  0  0  0  0  0  0  0
  2  1  1  1
  2  4  1  0
  2  3  1  0
  4  5  2  0
  6  7  1  0
  6  4  1  0
  7  8  1  1
  9  8  1  0
 10  9  2  0
 11 10  1  0
 12 11  1  0
 12 13  2  0
 13  9  1  0
 14 15  2  0
 14  7  1  0
 16 14  1  0
 17 16  1  0
 18 17  1  0
 19 18  2  0
 20 18  1  0
M  END
$$$$
