AHG.pdb
     RDKit          3D

 20 20  0  0  1  0  0  0  0  0999 V2000
   12.4166  -18.5323   19.9288 C   0  0  0  0  0  0  0  0  0  0  0  0
   11.9197  -17.3997   19.0582 C   0  0  2  0  0  0  0  0  0  0  0  0
   12.9365  -16.9226   18.1528 N   0  0  0  0  0  0  0  0  0  0  0  0
   11.5362  -16.2714   19.9684 C   0  0  0  0  0  0  0  0  0  0  0  0
   12.3831  -15.3773   20.2744 O   0  0  0  0  0  0  0  0  0  0  0  0
   10.2317  -16.1561   20.5179 N   0  0  0  0  0  0  0  0  0  0  0  0
    9.8893  -15.0093   21.3919 C   0  0  1  0  0  0  0  0  0  0  0  0
    8.4841  -14.6273   21.0374 C   0  0  0  0  0  0  0  0  0  0  0  0
    8.2830  -14.0535   19.7052 C   0  0  0  0  0  0  0  0  0  0  0  0
    9.1330  -13.2185   19.0048 C   0  0  0  0  0  0  0  0  0  0  0  0
    8.5996  -12.9002   17.8084 N   0  0  0  0  0  0  0  0  0  0  0  0
    7.4142  -13.5246   17.7364 C   0  0  0  0  0  0  0  0  0  0  0  0
    7.2160  -14.2188   18.8696 N   0  0  0  0  0  0  0  0  0  0  0  0
   10.1224  -15.3501   22.7965 C   0  0  0  0  0  0  0  0  0  0  0  0
    9.7321  -14.5324   23.6845 O   0  0  0  0  0  0  0  0  0  0  0  0
   10.7494  -16.5244   23.2777 N   0  0  0  0  0  0  0  0  0  0  0  0
   10.8971  -16.7645   24.7159 C   0  0  0  0  0  0  0  0  0  0  0  0
   11.4628  -18.1001   24.9800 C   0  0  0  0  0  0  0  0  0  0  0  0
   11.7778  -18.9317   24.0908 O   0  0  0  0  0  0  0  0  0  0  0  0
   11.6658  -18.4752   26.2999 O   0  0  0  0  0  0  0  0  0  0  0  0
  2  1  1  1
  2  4  1  0
  2  3  1  0
  4  5  2  0
  6  7  1  0
  6  4  1  0
  7  8  1  1
  9  8  1  0
 10  9  2  0
 11 10  1  0
 12 11  1  0
 12 13  2  0
 13  9  1  0
 14 15  2  0
 14  7  1  0
 16 14  1  0
 17 16  1  0
 18 17  1  0
 19 18  2  0
 20 18  1  0
M  END
$$$$
