AHG.pdb
     RDKit          3D

 20 20  0  0  1  0  0  0  0  0999 V2000
   10.8352  -19.3616   19.1820 C   0  0  0  0  0  0  0  0  0  0  0  0
   10.4947  -18.1286   18.3749 C   0  0  2  0  0  0  0  0  0  0  0  0
   11.5136  -17.8160   17.4025 N   0  0  0  0  0  0  0  0  0  0  0  0
   10.3944  -16.9802   19.3339 C   0  0  0  0  0  0  0  0  0  0  0  0
   11.4047  -16.2487   19.5674 O   0  0  0  0  0  0  0  0  0  0  0  0
    9.1859  -16.6665   20.0106 N   0  0  0  0  0  0  0  0  0  0  0  0
    9.1075  -15.4697   20.8811 C   0  0  1  0  0  0  0  0  0  0  0  0
    7.8365  -14.7702   20.5052 C   0  0  0  0  0  0  0  0  0  0  0  0
    7.7687  -14.2318   19.1451 C   0  0  0  0  0  0  0  0  0  0  0  0
    8.1894  -12.9918   18.7024 C   0  0  0  0  0  0  0  0  0  0  0  0
    7.9602  -12.8616   17.3804 N   0  0  0  0  0  0  0  0  0  0  0  0
    7.3958  -14.0083   16.9721 C   0  0  0  0  0  0  0  0  0  0  0  0
    7.2771  -14.8361   18.0238 N   0  0  0  0  0  0  0  0  0  0  0  0
    9.2322  -15.8528   22.2886 C   0  0  0  0  0  0  0  0  0  0  0  0
    8.5287  -16.8204   22.7112 O   0  0  0  0  0  0  0  0  0  0  0  0
   10.0767  -15.2441   23.2478 N   0  0  0  0  0  0  0  0  0  0  0  0
   10.1423  -15.7488   24.6222 C   0  0  0  0  0  0  0  0  0  0  0  0
   11.3096  -16.6286   24.8138 C   0  0  0  0  0  0  0  0  0  0  0  0
   12.0524  -17.0430   23.8875 O   0  0  0  0  0  0  0  0  0  0  0  0
   11.6187  -17.0336   26.1040 O   0  0  0  0  0  0  0  0  0  0  0  0
  2  1  1  1
  2  4  1  0
  2  3  1  0
  4  5  2  0
  6  7  1  0
  6  4  1  0
  7  8  1  1
  9  8  1  0
 10  9  2  0
 11 10  1  0
 12 11  1  0
 12 13  2  0
 13  9  1  0
 14 15  2  0
 14  7  1  0
 16 14  1  0
 17 16  1  0
 18 17  1  0
 19 18  2  0
 20 18  1  0
M  END
$$$$
