AHG.pdb
     RDKit          3D

 20 20  0  0  1  0  0  0  0  0999 V2000
    9.0047  -20.4071   16.9198 C   0  0  0  0  0  0  0  0  0  0  0  0
    8.6465  -19.1754   16.1185 C   0  0  2  0  0  0  0  0  0  0  0  0
    9.2889  -19.1603   14.8268 N   0  0  0  0  0  0  0  0  0  0  0  0
    9.1241  -17.9836   16.8931 C   0  0  0  0  0  0  0  0  0  0  0  0
   10.2756  -17.4964   16.6763 O   0  0  0  0  0  0  0  0  0  0  0  0
    8.3230  -17.3592   17.8857 N   0  0  0  0  0  0  0  0  0  0  0  0
    8.8269  -16.1689   18.6107 C   0  0  1  0  0  0  0  0  0  0  0  0
    7.7190  -15.1605   18.5659 C   0  0  0  0  0  0  0  0  0  0  0  0
    7.9645  -13.8942   19.2591 C   0  0  0  0  0  0  0  0  0  0  0  0
    7.4867  -13.4974   20.4939 C   0  0  0  0  0  0  0  0  0  0  0  0
    7.9312  -12.2608   20.7951 N   0  0  0  0  0  0  0  0  0  0  0  0
    8.6900  -11.8618   19.7631 C   0  0  0  0  0  0  0  0  0  0  0  0
    8.7157  -12.8351   18.8371 N   0  0  0  0  0  0  0  0  0  0  0  0
    9.2937  -16.5443   19.9466 C   0  0  0  0  0  0  0  0  0  0  0  0
    8.6295  -17.4112   20.5921 O   0  0  0  0  0  0  0  0  0  0  0  0
   10.4361  -16.0311   20.6064 N   0  0  0  0  0  0  0  0  0  0  0  0
   10.8444  -16.5461   21.9165 C   0  0  0  0  0  0  0  0  0  0  0  0
   12.0654  -15.8749   22.3982 C   0  0  0  0  0  0  0  0  0  0  0  0
   12.8689  -15.2413   21.6671 O   0  0  0  0  0  0  0  0  0  0  0  0
   12.3573  -15.9413   23.7526 O   0  0  0  0  0  0  0  0  0  0  0  0
  2  1  1  1
  2  4  1  0
  2  3  1  0
  4  5  2  0
  6  7  1  0
  6  4  1  0
  7  8  1  1
  9  8  1  0
 10  9  2  0
 11 10  1  0
 12 11  1  0
 12 13  2  0
 13  9  1  0
 14 15  2  0
 14  7  1  0
 16 14  1  0
 17 16  1  0
 18 17  1  0
 19 18  2  0
 20 18  1  0
M  END
$$$$
