AHG.pdb
     RDKit          3D

 20 20  0  0  1  0  0  0  0  0999 V2000
    9.0046  -18.7495   17.2925 C   0  0  0  0  0  0  0  0  0  0  0  0
    8.8444  -18.8617   18.7923 C   0  0  2  0  0  0  0  0  0  0  0  0
    7.4625  -18.7852   19.1994 N   0  0  0  0  0  0  0  0  0  0  0  0
    9.5786  -17.7081   19.4078 C   0  0  0  0  0  0  0  0  0  0  0  0
   10.2455  -16.9101   18.6807 O   0  0  0  0  0  0  0  0  0  0  0  0
    9.5600  -17.4625   20.8065 N   0  0  0  0  0  0  0  0  0  0  0  0
   10.2429  -16.2712   21.3637 C   0  0  1  0  0  0  0  0  0  0  0  0
    9.1544  -15.3624   21.8488 C   0  0  0  0  0  0  0  0  0  0  0  0
    8.4132  -14.6294   20.8203 C   0  0  0  0  0  0  0  0  0  0  0  0
    8.6433  -14.6156   19.4575 C   0  0  0  0  0  0  0  0  0  0  0  0
    7.7488  -13.8203   18.8374 N   0  0  0  0  0  0  0  0  0  0  0  0
    6.9471  -13.3241   19.7920 C   0  0  0  0  0  0  0  0  0  0  0  0
    7.3381  -13.8040   20.9845 N   0  0  0  0  0  0  0  0  0  0  0  0
   11.2327  -16.6717   22.3653 C   0  0  0  0  0  0  0  0  0  0  0  0
   10.8745  -17.4856   23.2702 O   0  0  0  0  0  0  0  0  0  0  0  0
   12.5786  -16.2377   22.4291 N   0  0  0  0  0  0  0  0  0  0  0  0
   13.5311  -16.8687   23.3470 C   0  0  0  0  0  0  0  0  0  0  0  0
   13.9159  -15.9497   24.4336 C   0  0  0  0  0  0  0  0  0  0  0  0
   14.5863  -14.8974   24.2763 O   0  0  0  0  0  0  0  0  0  0  0  0
   13.5146  -16.2591   25.7248 O   0  0  0  0  0  0  0  0  0  0  0  0
  2  1  1  6
  2  4  1  0
  2  3  1  0
  4  5  2  0
  6  7  1  0
  6  4  1  0
  7  8  1  1
  9  8  1  0
 10  9  2  0
 11 10  1  0
 12 11  1  0
 12 13  2  0
 13  9  1  0
 14 15  2  0
 14  7  1  0
 16 14  1  0
 17 16  1  0
 18 17  1  0
 19 18  2  0
 20 18  1  0
M  END
$$$$
