AHG.pdb
     RDKit          3D

 20 20  0  0  1  0  0  0  0  0999 V2000
   10.4411  -17.4180   18.0097 C   0  0  0  0  0  0  0  0  0  0  0  0
   10.3821  -17.9782   19.4133 C   0  0  2  0  0  0  0  0  0  0  0  0
    9.1527  -18.6902   19.6643 N   0  0  0  0  0  0  0  0  0  0  0  0
   10.4534  -16.8182   20.3610 C   0  0  0  0  0  0  0  0  0  0  0  0
   11.4606  -16.0462   20.3560 O   0  0  0  0  0  0  0  0  0  0  0  0
    9.4155  -16.5379   21.2888 N   0  0  0  0  0  0  0  0  0  0  0  0
    9.4910  -15.3352   22.1514 C   0  0  1  0  0  0  0  0  0  0  0  0
    8.1982  -14.6039   21.9517 C   0  0  0  0  0  0  0  0  0  0  0  0
    7.8454  -14.2732   20.5695 C   0  0  0  0  0  0  0  0  0  0  0  0
    8.1793  -13.1359   19.8585 C   0  0  0  0  0  0  0  0  0  0  0  0
    7.6708  -13.1945   18.6114 N   0  0  0  0  0  0  0  0  0  0  0  0
    7.0135  -14.3604   18.5174 C   0  0  0  0  0  0  0  0  0  0  0  0
    7.1128  -15.0140   19.6872 N   0  0  0  0  0  0  0  0  0  0  0  0
    9.8025  -15.7147   23.5307 C   0  0  0  0  0  0  0  0  0  0  0  0
    9.7802  -14.8108   24.4208 O   0  0  0  0  0  0  0  0  0  0  0  0
   10.1306  -17.0145   23.9851 N   0  0  0  0  0  0  0  0  0  0  0  0
   10.3057  -17.2915   25.4137 C   0  0  0  0  0  0  0  0  0  0  0  0
   11.7312  -17.4393   25.7591 C   0  0  0  0  0  0  0  0  0  0  0  0
   12.6835  -17.2605   24.9574 O   0  0  0  0  0  0  0  0  0  0  0  0
   12.0553  -17.8012   27.0584 O   0  0  0  0  0  0  0  0  0  0  0  0
  2  1  1  6
  2  4  1  0
  2  3  1  0
  4  5  2  0
  6  7  1  0
  6  4  1  0
  7  8  1  1
  9  8  1  0
 10  9  2  0
 11 10  1  0
 12 11  1  0
 12 13  2  0
 13  9  1  0
 14 15  2  0
 14  7  1  0
 16 14  1  0
 17 16  1  0
 18 17  1  0
 19 18  2  0
 20 18  1  0
M  END
$$$$
