WFQ.pdb
     RDKit          3D

 35 37  0  0  1  0  0  0  0  0999 V2000
   22.2347  -20.8298  -11.8262 N   0  0  0  0  0  0  0  0  0  0  0  0
   23.2185  -20.8499  -12.8993 C   0  0  1  0  0  0  0  0  0  0  0  0
   22.6456  -20.2925  -14.1579 C   0  0  0  0  0  0  0  0  0  0  0  0
   21.4248  -20.9653  -14.6421 C   0  0  0  0  0  0  0  0  0  0  0  0
   20.1358  -20.4786  -14.4112 C   0  0  0  0  0  0  0  0  0  0  0  0
   19.2750  -21.2899  -14.9977 N   0  0  0  0  0  0  0  0  0  0  0  0
   19.9130  -22.3161  -15.6230 C   0  0  0  0  0  0  0  0  0  0  0  0
   19.4390  -23.3863  -16.3441 C   0  0  0  0  0  0  0  0  0  0  0  0
   20.3204  -24.2975  -16.8685 C   0  0  0  0  0  0  0  0  0  0  0  0
   21.6648  -24.1084  -16.6528 C   0  0  0  0  0  0  0  0  0  0  0  0
   22.1289  -23.0336  -15.9296 C   0  0  0  0  0  0  0  0  0  0  0  0
   21.2659  -22.0958  -15.3882 C   0  0  0  0  0  0  0  0  0  0  0  0
   24.4918  -20.2191  -12.5503 C   0  0  0  0  0  0  0  0  0  0  0  0
   24.5983  -18.9840  -12.2589 O   0  0  0  0  0  0  0  0  0  0  0  0
   25.6617  -21.0496  -12.5368 N   0  0  0  0  0  0  0  0  0  0  0  0
   26.9788  -20.4509  -12.4307 C   0  0  1  0  0  0  0  0  0  0  0  0
   27.7100  -21.0397  -11.2342 C   0  0  0  0  0  0  0  0  0  0  0  0
   27.0035  -20.8121   -9.9640 C   0  0  0  0  0  0  0  0  0  0  0  0
   27.6387  -20.1328   -8.9542 C   0  0  0  0  0  0  0  0  0  0  0  0
   26.9941  -19.9101   -7.7551 C   0  0  0  0  0  0  0  0  0  0  0  0
   25.7068  -20.3679   -7.5609 C   0  0  0  0  0  0  0  0  0  0  0  0
   25.0482  -21.0512   -8.5563 C   0  0  0  0  0  0  0  0  0  0  0  0
   25.7242  -21.2575   -9.7476 C   0  0  0  0  0  0  0  0  0  0  0  0
   27.6978  -20.6559  -13.6851 C   0  0  0  0  0  0  0  0  0  0  0  0
   28.4681  -21.6391  -13.8195 O   0  0  0  0  0  0  0  0  0  0  0  0
   29.5051  -23.4344  -16.2670 N   0  0  0  0  0  0  0  0  0  0  0  0
   28.1719  -23.6223  -16.7180 C   0  0  0  0  0  0  0  0  0  0  0  0
   27.6445  -24.7625  -16.6042 O   0  0  0  0  0  0  0  0  0  0  0  0
   27.4013  -22.5208  -17.3039 C   0  0  0  0  0  0  0  0  0  0  0  0
   26.9995  -21.5132  -16.3033 C   0  0  0  0  0  0  0  0  0  0  0  0
   27.8174  -20.2599  -16.1870 C   0  0  2  0  0  0  0  0  0  0  0  0
   27.5873  -19.7899  -14.8170 N   0  0  0  0  0  0  0  0  0  0  0  0
   27.6906  -19.2476  -17.2040 C   0  0  0  0  0  0  0  0  0  0  0  0
   26.5195  -18.4649  -17.2765 O   0  0  0  0  0  0  0  0  0  0  0  0
   28.5563  -18.9802  -18.0847 O   0  0  0  0  0  0  0  0  0  0  0  0
  2  1  1  1
  3  2  1  0
  4  3  1  0
  4  5  2  0
  6  5  1  0
  7  6  1  0
  8  7  2  0
  9  8  1  0
 10  9  2  0
 10 11  1  0
 11 12  2  0
 12  7  1  0
 12  4  1  0
 13 14  2  0
 13  2  1  0
 15 13  1  0
 16 15  1  0
 16 17  1  1
 18 19  2  0
 18 17  1  0
 20 19  1  0
 21 20  2  0
 22 21  1  0
 22 23  2  0
 23 18  1  0
 24 25  2  0
 24 16  1  0
 26 27  1  0
 27 28  2  0
 29 27  1  0
 29 30  1  0
 31 30  1  6
 31 32  1  0
 32 24  1  0
 33 31  1  0
 34 33  1  0
 35 33  2  0
M  END
$$$$
