WFQ.pdb
     RDKit          3D

 35 37  0  0  1  0  0  0  0  0999 V2000
   27.0297  -21.3814  -13.6566 N   0  0  0  0  0  0  0  0  0  0  0  0
   26.8256  -20.3795  -12.6201 C   0  0  1  0  0  0  0  0  0  0  0  0
   25.5637  -19.6204  -12.8540 C   0  0  0  0  0  0  0  0  0  0  0  0
   25.4752  -18.9400  -14.1603 C   0  0  0  0  0  0  0  0  0  0  0  0
   24.4542  -19.1783  -15.0836 C   0  0  0  0  0  0  0  0  0  0  0  0
   24.6478  -18.3938  -16.1277 N   0  0  0  0  0  0  0  0  0  0  0  0
   25.7583  -17.6245  -15.9663 C   0  0  0  0  0  0  0  0  0  0  0  0
   26.3465  -16.6828  -16.7771 C   0  0  0  0  0  0  0  0  0  0  0  0
   27.4917  -16.0497  -16.3649 C   0  0  0  0  0  0  0  0  0  0  0  0
   28.0201  -16.3821  -15.1402 C   0  0  0  0  0  0  0  0  0  0  0  0
   27.4234  -17.3261  -14.3362 C   0  0  0  0  0  0  0  0  0  0  0  0
   26.2668  -17.9821  -14.7223 C   0  0  0  0  0  0  0  0  0  0  0  0
   26.9022  -20.9089  -11.2582 C   0  0  0  0  0  0  0  0  0  0  0  0
   26.5406  -22.0907  -10.9509 O   0  0  0  0  0  0  0  0  0  0  0  0
   27.4164  -20.0416  -10.2374 N   0  0  0  0  0  0  0  0  0  0  0  0
   27.2722  -20.3975   -8.8386 C   0  0  1  0  0  0  0  0  0  0  0  0
   28.2347  -19.5694   -8.0014 C   0  0  0  0  0  0  0  0  0  0  0  0
   28.0982  -19.8200   -6.5581 C   0  0  0  0  0  0  0  0  0  0  0  0
   28.7310  -20.9037   -6.0016 C   0  0  0  0  0  0  0  0  0  0  0  0
   28.6145  -21.1570   -4.6505 C   0  0  0  0  0  0  0  0  0  0  0  0
   27.8617  -20.3239   -3.8482 C   0  0  0  0  0  0  0  0  0  0  0  0
   27.2178  -19.2316   -4.3809 C   0  0  0  0  0  0  0  0  0  0  0  0
   27.3556  -19.0064   -5.7407 C   0  0  0  0  0  0  0  0  0  0  0  0
   25.8793  -20.2123   -8.4409 C   0  0  0  0  0  0  0  0  0  0  0  0
   25.2721  -19.1533   -8.7374 O   0  0  0  0  0  0  0  0  0  0  0  0
   22.5362  -21.0534  -11.7825 N   0  0  0  0  0  0  0  0  0  0  0  0
   21.4910  -21.0880  -10.8219 C   0  0  0  0  0  0  0  0  0  0  0  0
   20.2949  -21.0991  -11.2223 O   0  0  0  0  0  0  0  0  0  0  0  0
   21.7759  -21.1168   -9.3837 C   0  0  0  0  0  0  0  0  0  0  0  0
   23.2220  -21.0896   -9.0903 C   0  0  0  0  0  0  0  0  0  0  0  0
   23.6584  -21.1511   -7.6554 C   0  0  2  0  0  0  0  0  0  0  0  0
   25.1236  -21.1824   -7.7121 N   0  0  0  0  0  0  0  0  0  0  0  0
   23.0647  -22.1355   -6.7874 C   0  0  0  0  0  0  0  0  0  0  0  0
   23.8876  -22.9815   -6.0151 O   0  0  0  0  0  0  0  0  0  0  0  0
   21.8253  -22.3355   -6.6448 O   0  0  0  0  0  0  0  0  0  0  0  0
  2  1  1  6
  3  2  1  0
  4  3  1  0
  4  5  2  0
  6  5  1  0
  7  6  1  0
  8  7  2  0
  9  8  1  0
 10  9  2  0
 10 11  1  0
 11 12  2  0
 12  7  1  0
 12  4  1  0
 13 14  2  0
 13  2  1  0
 15 13  1  0
 16 15  1  0
 16 17  1  1
 18 19  2  0
 18 17  1  0
 20 19  1  0
 21 20  2  0
 22 21  1  0
 22 23  2  0
 23 18  1  0
 24 25  2  0
 24 16  1  0
 26 27  1  0
 27 28  2  0
 29 27  1  0
 29 30  1  0
 31 30  1  6
 31 32  1  0
 32 24  1  0
 33 31  1  0
 34 33  1  0
 35 33  2  0
M  END
$$$$
