WFQ.pdb
     RDKit          3D

 35 37  0  0  1  0  0  0  0  0999 V2000
   27.0257  -22.2018  -16.6639 N   0  0  0  0  0  0  0  0  0  0  0  0
   26.1453  -21.2752  -15.9667 C   0  0  1  0  0  0  0  0  0  0  0  0
   24.8505  -21.1237  -16.6903 C   0  0  0  0  0  0  0  0  0  0  0  0
   24.9374  -20.4339  -17.9918 C   0  0  0  0  0  0  0  0  0  0  0  0
   25.1151  -21.1021  -19.2056 C   0  0  0  0  0  0  0  0  0  0  0  0
   25.1207  -20.2062  -20.1754 N   0  0  0  0  0  0  0  0  0  0  0  0
   24.9552  -18.9482  -19.6843 C   0  0  0  0  0  0  0  0  0  0  0  0
   24.9033  -17.7220  -20.3040 C   0  0  0  0  0  0  0  0  0  0  0  0
   24.7331  -16.5866  -19.5529 C   0  0  0  0  0  0  0  0  0  0  0  0
   24.6192  -16.7137  -18.1889 C   0  0  0  0  0  0  0  0  0  0  0  0
   24.6724  -17.9459  -17.5785 C   0  0  0  0  0  0  0  0  0  0  0  0
   24.8419  -19.1106  -18.3078 C   0  0  0  0  0  0  0  0  0  0  0  0
   25.9486  -21.5925  -14.5519 C   0  0  0  0  0  0  0  0  0  0  0  0
   25.3726  -22.6555  -14.1520 O   0  0  0  0  0  0  0  0  0  0  0  0
   26.4395  -20.6514  -13.5866 N   0  0  0  0  0  0  0  0  0  0  0  0
   26.2027  -20.8683  -12.1720 C   0  0  1  0  0  0  0  0  0  0  0  0
   27.2995  -20.1929  -11.3634 C   0  0  0  0  0  0  0  0  0  0  0  0
   27.0298  -20.1993   -9.9172 C   0  0  0  0  0  0  0  0  0  0  0  0
   26.5004  -19.0783   -9.3274 C   0  0  0  0  0  0  0  0  0  0  0  0
   26.2414  -19.0636   -7.9725 C   0  0  0  0  0  0  0  0  0  0  0  0
   26.5120  -20.1744   -7.1997 C   0  0  0  0  0  0  0  0  0  0  0  0
   27.0425  -21.3100   -7.7658 C   0  0  0  0  0  0  0  0  0  0  0  0
   27.2904  -21.2911   -9.1285 C   0  0  0  0  0  0  0  0  0  0  0  0
   24.8702  -20.3774  -11.8312 C   0  0  0  0  0  0  0  0  0  0  0  0
   24.3956  -19.3744  -12.4201 O   0  0  0  0  0  0  0  0  0  0  0  0
   20.7501  -21.3994  -14.3465 N   0  0  0  0  0  0  0  0  0  0  0  0
   19.9307  -20.9153  -13.2927 C   0  0  0  0  0  0  0  0  0  0  0  0
   18.6885  -20.8101  -13.4851 O   0  0  0  0  0  0  0  0  0  0  0  0
   20.4984  -20.5439  -11.9926 C   0  0  0  0  0  0  0  0  0  0  0  0
   21.9553  -20.7683  -11.9238 C   0  0  0  0  0  0  0  0  0  0  0  0
   22.6507  -20.5331  -10.6144 C   0  0  2  0  0  0  0  0  0  0  0  0
   24.0308  -20.9749  -10.8403 N   0  0  0  0  0  0  0  0  0  0  0  0
   22.0462  -21.0294   -9.4048 C   0  0  0  0  0  0  0  0  0  0  0  0
   20.7262  -20.6587   -9.0737 O   0  0  0  0  0  0  0  0  0  0  0  0
   22.6037  -21.7916   -8.5654 O   0  0  0  0  0  0  0  0  0  0  0  0
  2  1  1  6
  3  2  1  0
  4  3  1  0
  4  5  2  0
  6  5  1  0
  7  6  1  0
  8  7  2  0
  9  8  1  0
 10  9  2  0
 10 11  1  0
 11 12  2  0
 12  7  1  0
 12  4  1  0
 13 14  2  0
 13  2  1  0
 15 13  1  0
 16 15  1  0
 16 17  1  1
 18 19  2  0
 18 17  1  0
 20 19  1  0
 21 20  2  0
 22 21  1  0
 22 23  2  0
 23 18  1  0
 24 25  2  0
 24 16  1  0
 26 27  1  0
 27 28  2  0
 29 27  1  0
 29 30  1  0
 31 30  1  6
 31 32  1  0
 32 24  1  0
 33 31  1  0
 34 33  1  0
 35 33  2  0
M  END
$$$$
