WFQ.pdb
     RDKit          3D

 35 37  0  0  1  0  0  0  0  0999 V2000
   24.4990   -8.4165  -20.2449 N   0  0  0  0  0  0  0  0  0  0  0  0
   23.6652   -9.5712  -19.9430 C   0  0  1  0  0  0  0  0  0  0  0  0
   24.3486  -10.8381  -20.3318 C   0  0  0  0  0  0  0  0  0  0  0  0
   24.8988  -10.8582  -21.7008 C   0  0  0  0  0  0  0  0  0  0  0  0
   24.1463  -10.5482  -22.8363 C   0  0  0  0  0  0  0  0  0  0  0  0
   24.9353  -10.6303  -23.8918 N   0  0  0  0  0  0  0  0  0  0  0  0
   26.1997  -10.9840  -23.5350 C   0  0  0  0  0  0  0  0  0  0  0  0
   27.3370  -11.1935  -24.2785 C   0  0  0  0  0  0  0  0  0  0  0  0
   28.5015  -11.5597  -23.6525 C   0  0  0  0  0  0  0  0  0  0  0  0
   28.4927  -11.7074  -22.2858 C   0  0  0  0  0  0  0  0  0  0  0  0
   27.3488  -11.4952  -21.5508 C   0  0  0  0  0  0  0  0  0  0  0  0
   26.1581  -11.1237  -22.1520 C   0  0  0  0  0  0  0  0  0  0  0  0
   23.1818   -9.6107  -18.5625 C   0  0  0  0  0  0  0  0  0  0  0  0
   22.6433  -10.6419  -18.0444 O   0  0  0  0  0  0  0  0  0  0  0  0
   23.3361   -8.4237  -17.7715 N   0  0  0  0  0  0  0  0  0  0  0  0
   22.9868   -8.4361  -16.3636 C   0  0  1  0  0  0  0  0  0  0  0  0
   24.2256   -8.1469  -15.5300 C   0  0  0  0  0  0  0  0  0  0  0  0
   25.2186   -9.2309  -15.5867 C   0  0  0  0  0  0  0  0  0  0  0  0
   26.3477   -9.0686  -16.3504 C   0  0  0  0  0  0  0  0  0  0  0  0
   27.2902  -10.0737  -16.4179 C   0  0  0  0  0  0  0  0  0  0  0  0
   27.1060  -11.2492  -15.7190 C   0  0  0  0  0  0  0  0  0  0  0  0
   25.9837  -11.4371  -14.9467 C   0  0  0  0  0  0  0  0  0  0  0  0
   25.0574  -10.4081  -14.9010 C   0  0  0  0  0  0  0  0  0  0  0  0
   21.9149   -7.4723  -16.1301 C   0  0  0  0  0  0  0  0  0  0  0  0
   22.0345   -6.2852  -16.5234 O   0  0  0  0  0  0  0  0  0  0  0  0
   16.2346  -10.0751  -16.9371 N   0  0  0  0  0  0  0  0  0  0  0  0
   17.0598   -9.4519  -15.9640 C   0  0  0  0  0  0  0  0  0  0  0  0
   17.3401  -10.0823  -14.9080 O   0  0  0  0  0  0  0  0  0  0  0  0
   17.5926   -8.1007  -16.1665 C   0  0  0  0  0  0  0  0  0  0  0  0
   18.3888   -7.6260  -15.0183 C   0  0  0  0  0  0  0  0  0  0  0  0
   19.6157   -6.8059  -15.2932 C   0  0  2  0  0  0  0  0  0  0  0  0
   20.6910   -7.7886  -15.4627 N   0  0  0  0  0  0  0  0  0  0  0  0
   19.9314   -5.7077  -14.4161 C   0  0  0  0  0  0  0  0  0  0  0  0
   20.5766   -5.9519  -13.1859 O   0  0  0  0  0  0  0  0  0  0  0  0
   19.6713   -4.4918  -14.6404 O   0  0  0  0  0  0  0  0  0  0  0  0
  2  1  1  1
  3  2  1  0
  4  3  1  0
  4  5  2  0
  6  5  1  0
  7  6  1  0
  8  7  2  0
  9  8  1  0
 10  9  2  0
 10 11  1  0
 11 12  2  0
 12  7  1  0
 12  4  1  0
 13 14  2  0
 13  2  1  0
 15 13  1  0
 16 15  1  0
 16 17  1  1
 18 19  2  0
 18 17  1  0
 20 19  1  0
 21 20  2  0
 22 21  1  0
 22 23  2  0
 23 18  1  0
 24 25  2  0
 24 16  1  0
 26 27  1  0
 27 28  2  0
 29 27  1  0
 29 30  1  0
 31 30  1  1
 31 32  1  0
 32 24  1  0
 33 31  1  0
 34 33  1  0
 35 33  2  0
M  END
$$$$
