WFQ.pdb
     RDKit          3D

 35 37  0  0  1  0  0  0  0  0999 V2000
   27.2987  -22.0547  -16.6980 N   0  0  0  0  0  0  0  0  0  0  0  0
   27.0785  -21.0108  -15.7073 C   0  0  1  0  0  0  0  0  0  0  0  0
   25.9785  -20.0976  -16.1308 C   0  0  0  0  0  0  0  0  0  0  0  0
   26.1552  -19.4780  -17.4583 C   0  0  0  0  0  0  0  0  0  0  0  0
   25.1717  -19.4921  -18.4503 C   0  0  0  0  0  0  0  0  0  0  0  0
   25.6295  -18.8313  -19.4977 N   0  0  0  0  0  0  0  0  0  0  0  0
   26.8866  -18.3618  -19.2726 C   0  0  0  0  0  0  0  0  0  0  0  0
   27.7494  -17.6382  -20.0614 C   0  0  0  0  0  0  0  0  0  0  0  0
   28.9881  -17.2976  -19.5800 C   0  0  0  0  0  0  0  0  0  0  0  0
   29.3301  -17.6961  -18.3096 C   0  0  0  0  0  0  0  0  0  0  0  0
   28.4590  -18.4201  -17.5282 C   0  0  0  0  0  0  0  0  0  0  0  0
   27.2016  -18.7788  -17.9839 C   0  0  0  0  0  0  0  0  0  0  0  0
   26.8801  -21.5138  -14.3477 C   0  0  0  0  0  0  0  0  0  0  0  0
   26.0739  -22.4590  -14.0675 O   0  0  0  0  0  0  0  0  0  0  0  0
   27.6429  -20.9037  -13.2968 N   0  0  0  0  0  0  0  0  0  0  0  0
   27.1903  -20.9938  -11.9215 C   0  0  1  0  0  0  0  0  0  0  0  0
   28.2196  -20.3513  -11.0045 C   0  0  0  0  0  0  0  0  0  0  0  0
   27.8267  -20.3918   -9.5873 C   0  0  0  0  0  0  0  0  0  0  0  0
   27.0449  -19.3850   -9.0777 C   0  0  0  0  0  0  0  0  0  0  0  0
   26.6668  -19.4038   -7.7511 C   0  0  0  0  0  0  0  0  0  0  0  0
   27.0709  -20.4338   -6.9264 C   0  0  0  0  0  0  0  0  0  0  0  0
   27.8544  -21.4544   -7.4120 C   0  0  0  0  0  0  0  0  0  0  0  0
   28.2160  -21.4048   -8.7482 C   0  0  0  0  0  0  0  0  0  0  0  0
   25.8737  -20.3716  -11.8114 C   0  0  0  0  0  0  0  0  0  0  0  0
   25.5562  -19.4237  -12.5722 O   0  0  0  0  0  0  0  0  0  0  0  0
   22.5820  -19.9184  -14.8904 N   0  0  0  0  0  0  0  0  0  0  0  0
   21.5007  -20.4551  -14.1427 C   0  0  0  0  0  0  0  0  0  0  0  0
   20.3368  -20.3957  -14.6253 O   0  0  0  0  0  0  0  0  0  0  0  0
   21.7127  -21.0777  -12.8321 C   0  0  0  0  0  0  0  0  0  0  0  0
   23.1267  -21.0470  -12.4106 C   0  0  0  0  0  0  0  0  0  0  0  0
   23.4546  -20.4821  -11.0591 C   0  0  2  0  0  0  0  0  0  0  0  0
   24.8787  -20.7751  -10.8677 N   0  0  0  0  0  0  0  0  0  0  0  0
   22.6115  -20.8171   -9.9400 C   0  0  0  0  0  0  0  0  0  0  0  0
   21.3050  -20.2917   -9.8604 O   0  0  0  0  0  0  0  0  0  0  0  0
   22.9383  -21.5611   -8.9725 O   0  0  0  0  0  0  0  0  0  0  0  0
  2  1  1  6
  3  2  1  0
  4  3  1  0
  4  5  2  0
  6  5  1  0
  7  6  1  0
  8  7  2  0
  9  8  1  0
 10  9  2  0
 10 11  1  0
 11 12  2  0
 12  7  1  0
 12  4  1  0
 13 14  2  0
 13  2  1  0
 15 13  1  0
 16 15  1  0
 16 17  1  1
 18 19  2  0
 18 17  1  0
 20 19  1  0
 21 20  2  0
 22 21  1  0
 22 23  2  0
 23 18  1  0
 24 25  2  0
 24 16  1  0
 26 27  1  0
 27 28  2  0
 29 27  1  0
 29 30  1  0
 31 30  1  6
 31 32  1  0
 32 24  1  0
 33 31  1  0
 34 33  1  0
 35 33  2  0
M  END
$$$$
