WFQ.pdb
     RDKit          3D

 35 37  0  0  1  0  0  0  0  0999 V2000
   27.3664  -21.2181  -13.0620 N   0  0  0  0  0  0  0  0  0  0  0  0
   26.3352  -20.6959  -12.1768 C   0  0  1  0  0  0  0  0  0  0  0  0
   24.9824  -20.8527  -12.7838 C   0  0  0  0  0  0  0  0  0  0  0  0
   24.7820  -20.1394  -14.0599 C   0  0  0  0  0  0  0  0  0  0  0  0
   25.7232  -20.1315  -15.0922 C   0  0  0  0  0  0  0  0  0  0  0  0
   25.2295  -19.4335  -16.0983 N   0  0  0  0  0  0  0  0  0  0  0  0
   23.9886  -18.9584  -15.8057 C   0  0  0  0  0  0  0  0  0  0  0  0
   23.1073  -18.1905  -16.5295 C   0  0  0  0  0  0  0  0  0  0  0  0
   21.9005  -17.8391  -15.9797 C   0  0  0  0  0  0  0  0  0  0  0  0
   21.6088  -18.2711  -14.7077 C   0  0  0  0  0  0  0  0  0  0  0  0
   22.4980  -19.0395  -13.9918 C   0  0  0  0  0  0  0  0  0  0  0  0
   23.7232  -19.4121  -14.5183 C   0  0  0  0  0  0  0  0  0  0  0  0
   26.3912  -21.2329  -10.8169 C   0  0  0  0  0  0  0  0  0  0  0  0
   26.8673  -22.3819  -10.5429 O   0  0  0  0  0  0  0  0  0  0  0  0
   25.8859  -20.4086   -9.7569 N   0  0  0  0  0  0  0  0  0  0  0  0
   26.4302  -20.5292   -8.4177 C   0  0  1  0  0  0  0  0  0  0  0  0
   27.5193  -19.4871   -8.2158 C   0  0  0  0  0  0  0  0  0  0  0  0
   28.0600  -19.4831   -6.8475 C   0  0  0  0  0  0  0  0  0  0  0  0
   28.8808  -20.5077   -6.4464 C   0  0  0  0  0  0  0  0  0  0  0  0
   29.3970  -20.5231   -5.1672 C   0  0  0  0  0  0  0  0  0  0  0  0
   29.0928  -19.5098   -4.2812 C   0  0  0  0  0  0  0  0  0  0  0  0
   28.2730  -18.4719   -4.6580 C   0  0  0  0  0  0  0  0  0  0  0  0
   27.7719  -18.4871   -5.9493 C   0  0  0  0  0  0  0  0  0  0  0  0
   25.3448  -20.4023   -7.4490 C   0  0  0  0  0  0  0  0  0  0  0  0
   25.5959  -20.3650   -6.2186 O   0  0  0  0  0  0  0  0  0  0  0  0
   19.6082  -22.7588   -6.1836 N   0  0  0  0  0  0  0  0  0  0  0  0
   20.0082  -22.3516   -7.4838 C   0  0  0  0  0  0  0  0  0  0  0  0
   19.2852  -21.5340   -8.1162 O   0  0  0  0  0  0  0  0  0  0  0  0
   21.2407  -22.8568   -8.0972 C   0  0  0  0  0  0  0  0  0  0  0  0
   22.2210  -21.7871   -8.3665 C   0  0  0  0  0  0  0  0  0  0  0  0
   22.9411  -21.1718   -7.2020 C   0  0  2  0  0  0  0  0  0  0  0  0
   23.9639  -20.3127   -7.8074 N   0  0  0  0  0  0  0  0  0  0  0  0
   23.4168  -22.0273   -6.1452 C   0  0  0  0  0  0  0  0  0  0  0  0
   24.2624  -23.1152   -6.4465 O   0  0  0  0  0  0  0  0  0  0  0  0
   23.1361  -21.9042   -4.9194 O   0  0  0  0  0  0  0  0  0  0  0  0
  2  1  1  6
  3  2  1  0
  4  3  1  0
  4  5  2  0
  6  5  1  0
  7  6  1  0
  8  7  2  0
  9  8  1  0
 10  9  2  0
 10 11  1  0
 11 12  2  0
 12  7  1  0
 12  4  1  0
 13 14  2  0
 13  2  1  0
 15 13  1  0
 16 15  1  0
 16 17  1  1
 18 19  2  0
 18 17  1  0
 20 19  1  0
 21 20  2  0
 22 21  1  0
 22 23  2  0
 23 18  1  0
 24 25  2  0
 24 16  1  0
 26 27  1  0
 27 28  2  0
 29 27  1  0
 29 30  1  0
 31 30  1  6
 31 32  1  0
 32 24  1  0
 33 31  1  0
 34 33  1  0
 35 33  2  0
M  END
$$$$
