WFQ.pdb
     RDKit          3D

 35 37  0  0  1  0  0  0  0  0999 V2000
   28.7447  -21.4372  -16.6805 N   0  0  0  0  0  0  0  0  0  0  0  0
   27.8632  -20.5214  -15.9705 C   0  0  1  0  0  0  0  0  0  0  0  0
   27.0001  -19.7662  -16.9235 C   0  0  0  0  0  0  0  0  0  0  0  0
   27.5432  -18.4675  -17.3659 C   0  0  0  0  0  0  0  0  0  0  0  0
   28.2003  -18.2842  -18.5850 C   0  0  0  0  0  0  0  0  0  0  0  0
   28.5324  -17.0106  -18.6898 N   0  0  0  0  0  0  0  0  0  0  0  0
   28.1339  -16.3064  -17.5960 C   0  0  0  0  0  0  0  0  0  0  0  0
   28.2643  -14.9788  -17.2634 C   0  0  0  0  0  0  0  0  0  0  0  0
   27.7684  -14.5250  -16.0674 C   0  0  0  0  0  0  0  0  0  0  0  0
   27.1503  -15.4235  -15.2307 C   0  0  0  0  0  0  0  0  0  0  0  0
   27.0248  -16.7504  -15.5732 C   0  0  0  0  0  0  0  0  0  0  0  0
   27.5133  -17.2398  -16.7728 C   0  0  0  0  0  0  0  0  0  0  0  0
   27.0823  -21.1529  -14.9064 C   0  0  0  0  0  0  0  0  0  0  0  0
   26.6216  -22.3370  -14.9920 O   0  0  0  0  0  0  0  0  0  0  0  0
   26.8402  -20.3870  -13.7176 N   0  0  0  0  0  0  0  0  0  0  0  0
   25.8904  -20.8589  -12.7279 C   0  0  1  0  0  0  0  0  0  0  0  0
   26.0937  -20.0999  -11.4257 C   0  0  0  0  0  0  0  0  0  0  0  0
   25.1404  -20.4971  -10.3778 C   0  0  0  0  0  0  0  0  0  0  0  0
   25.5754  -21.2748   -9.3335 C   0  0  0  0  0  0  0  0  0  0  0  0
   24.6971  -21.6591   -8.3416 C   0  0  0  0  0  0  0  0  0  0  0  0
   23.3754  -21.2653   -8.3908 C   0  0  0  0  0  0  0  0  0  0  0  0
   22.9142  -20.4862   -9.4261 C   0  0  0  0  0  0  0  0  0  0  0  0
   23.8223  -20.1182  -10.4052 C   0  0  0  0  0  0  0  0  0  0  0  0
   24.5376  -20.7127  -13.2580 C   0  0  0  0  0  0  0  0  0  0  0  0
   24.1759  -19.6283  -13.7789 O   0  0  0  0  0  0  0  0  0  0  0  0
   23.7934  -24.5853  -15.7649 N   0  0  0  0  0  0  0  0  0  0  0  0
   22.7644  -24.9915  -14.8747 C   0  0  0  0  0  0  0  0  0  0  0  0
   22.6823  -26.2082  -14.5521 O   0  0  0  0  0  0  0  0  0  0  0  0
   21.8067  -24.0276  -14.3235 C   0  0  0  0  0  0  0  0  0  0  0  0
   22.0509  -22.6508  -14.7954 C   0  0  0  0  0  0  0  0  0  0  0  0
   22.2047  -21.5641  -13.7713 C   0  0  2  0  0  0  0  0  0  0  0  0
   23.5547  -21.7503  -13.2295 N   0  0  0  0  0  0  0  0  0  0  0  0
   21.1735  -21.3882  -12.7809 C   0  0  0  0  0  0  0  0  0  0  0  0
   19.9122  -20.8831  -13.1595 O   0  0  0  0  0  0  0  0  0  0  0  0
   21.2887  -21.6435  -11.5489 O   0  0  0  0  0  0  0  0  0  0  0  0
  2  1  1  6
  3  2  1  0
  4  3  1  0
  4  5  2  0
  6  5  1  0
  7  6  1  0
  8  7  2  0
  9  8  1  0
 10  9  2  0
 10 11  1  0
 11 12  2  0
 12  7  1  0
 12  4  1  0
 13 14  2  0
 13  2  1  0
 15 13  1  0
 16 15  1  0
 16 17  1  1
 18 19  2  0
 18 17  1  0
 20 19  1  0
 21 20  2  0
 22 21  1  0
 22 23  2  0
 23 18  1  0
 24 25  2  0
 24 16  1  0
 26 27  1  0
 27 28  2  0
 29 27  1  0
 29 30  1  0
 31 30  1  1
 31 32  1  0
 32 24  1  0
 33 31  1  0
 34 33  1  0
 35 33  2  0
M  END
$$$$
