SNH.pdb
     RDKit          3D

 25 25  0  0  1  0  0  0  0  0999 V2000
   11.6022  -15.4927   15.1377 O   0  0  0  0  0  0  0  0  0  0  0  0
   12.3378  -16.6955   15.2055 C   0  0  0  0  0  0  0  0  0  0  0  0
   11.3119  -17.8065   15.3048 C   0  0  2  0  0  0  0  0  0  0  0  0
   10.2971  -17.6736   14.2879 N   0  0  0  0  0  0  0  0  0  0  0  0
   10.7198  -17.8982   16.6439 C   0  0  0  0  0  0  0  0  0  0  0  0
    9.5939  -17.3391   16.8399 O   0  0  0  0  0  0  0  0  0  0  0  0
   11.4966  -22.1775   18.6746 N   0  0  0  0  0  0  0  0  0  0  0  0
   10.6232  -21.1307   19.0943 C   0  0  0  0  0  0  0  0  0  0  0  0
    9.4059  -21.2680   18.9157 O   0  0  0  0  0  0  0  0  0  0  0  0
   11.1734  -19.9191   19.7251 C   0  0  0  0  0  0  0  0  0  0  0  0
   10.7782  -18.6968   18.9652 C   0  0  2  0  0  0  0  0  0  0  0  0
   11.3972  -18.5951   17.6813 N   0  0  0  0  0  0  0  0  0  0  0  0
   11.1018  -17.5126   19.8327 C   0  0  0  0  0  0  0  0  0  0  0  0
   12.2308  -16.9611   19.7908 O   0  0  0  0  0  0  0  0  0  0  0  0
   10.1565  -16.9666   20.7319 N   0  0  0  0  0  0  0  0  0  0  0  0
   10.4721  -15.7584   21.5528 C   0  0  1  0  0  0  0  0  0  0  0  0
    9.1658  -15.0357   21.6452 C   0  0  0  0  0  0  0  0  0  0  0  0
    8.7301  -14.2864   20.4703 C   0  0  0  0  0  0  0  0  0  0  0  0
    9.3173  -14.1148   19.2450 C   0  0  0  0  0  0  0  0  0  0  0  0
    8.4739  -13.3783   18.4789 N   0  0  0  0  0  0  0  0  0  0  0  0
    7.4043  -13.1068   19.2058 C   0  0  0  0  0  0  0  0  0  0  0  0
    7.5344  -13.6422   20.4069 N   0  0  0  0  0  0  0  0  0  0  0  0
   10.8702  -16.2691   22.9105 C   0  0  0  0  0  0  0  0  0  0  0  0
   11.4301  -15.3666   23.8324 O   0  0  0  0  0  0  0  0  0  0  0  0
   10.7261  -17.4297   23.2383 O   0  0  0  0  0  0  0  0  0  0  0  0
  1  2  1  0
  2  3  1  0
  3  5  1  0
  3  4  1  6
  5  6  2  0
  7  8  1  0
  8 10  1  0
  9  8  2  0
 11 10  1  1
 11 13  1  0
 12 11  1  0
 12  5  1  0
 13 15  1  0
 14 13  2  0
 15 16  1  0
 16 23  1  0
 16 17  1  1
 18 17  1  0
 19 18  2  0
 20 19  1  0
 21 20  1  0
 21 22  2  0
 22 18  1  0
 23 25  2  0
 23 24  1  0
M  END
$$$$
