SNH.pdb
     RDKit          3D

 25 25  0  0  1  0  0  0  0  0999 V2000
    9.7985  -12.6552   18.2604 O   0  0  0  0  0  0  0  0  0  0  0  0
    9.1859  -12.9407   19.4996 C   0  0  0  0  0  0  0  0  0  0  0  0
    8.1505  -14.0104   19.2161 C   0  0  2  0  0  0  0  0  0  0  0  0
    7.0304  -13.4727   18.4828 N   0  0  0  0  0  0  0  0  0  0  0  0
    7.7123  -14.6970   20.4363 C   0  0  0  0  0  0  0  0  0  0  0  0
    6.6990  -14.2351   21.0517 O   0  0  0  0  0  0  0  0  0  0  0  0
    6.0586  -18.9372   23.2110 N   0  0  0  0  0  0  0  0  0  0  0  0
    7.4629  -18.7422   23.0534 C   0  0  0  0  0  0  0  0  0  0  0  0
    8.2218  -19.1625   23.9364 O   0  0  0  0  0  0  0  0  0  0  0  0
    7.9828  -18.0535   21.8600 C   0  0  0  0  0  0  0  0  0  0  0  0
    7.8793  -16.5723   22.0125 C   0  0  2  0  0  0  0  0  0  0  0  0
    8.4102  -15.8436   20.9041 N   0  0  0  0  0  0  0  0  0  0  0  0
    8.5710  -16.2106   23.2972 C   0  0  0  0  0  0  0  0  0  0  0  0
    9.8111  -16.0083   23.3369 O   0  0  0  0  0  0  0  0  0  0  0  0
    7.8627  -16.0815   24.5146 N   0  0  0  0  0  0  0  0  0  0  0  0
    8.5429  -15.6275   25.7652 C   0  0  1  0  0  0  0  0  0  0  0  0
    7.4568  -14.9505   26.5394 C   0  0  0  0  0  0  0  0  0  0  0  0
    7.2603  -13.5222   26.3093 C   0  0  0  0  0  0  0  0  0  0  0  0
    7.9835  -12.6228   25.5720 C   0  0  0  0  0  0  0  0  0  0  0  0
    7.3446  -11.4273   25.6307 N   0  0  0  0  0  0  0  0  0  0  0  0
    6.2653  -11.5849   26.3766 C   0  0  0  0  0  0  0  0  0  0  0  0
    6.1924  -12.8358   26.7961 N   0  0  0  0  0  0  0  0  0  0  0  0
    8.9773  -16.8772   26.4810 C   0  0  0  0  0  0  0  0  0  0  0  0
    8.7358  -18.1214   25.8714 O   0  0  0  0  0  0  0  0  0  0  0  0
    9.5276  -16.8505   27.5633 O   0  0  0  0  0  0  0  0  0  0  0  0
  1  2  1  0
  2  3  1  0
  3  5  1  0
  3  4  1  1
  5  6  2  0
  7  8  1  0
  8 10  1  0
  9  8  2  0
 11 10  1  6
 11 13  1  0
 12 11  1  0
 12  5  1  0
 13 15  1  0
 14 13  2  0
 15 16  1  0
 16 23  1  0
 16 17  1  1
 18 17  1  0
 19 18  2  0
 20 19  1  0
 21 20  1  0
 21 22  2  0
 22 18  1  0
 23 25  2  0
 23 24  1  0
M  END
$$$$
