SNH.pdb
     RDKit          3D

 25 25  0  0  1  0  0  0  0  0999 V2000
    7.4028  -12.8110   19.4446 O   0  0  0  0  0  0  0  0  0  0  0  0
    8.6134  -12.3602   18.8756 C   0  0  0  0  0  0  0  0  0  0  0  0
    9.1547  -13.5247   18.0707 C   0  0  2  0  0  0  0  0  0  0  0  0
    8.2101  -13.9504   17.0667 N   0  0  0  0  0  0  0  0  0  0  0  0
    9.5713  -14.6436   18.9233 C   0  0  0  0  0  0  0  0  0  0  0  0
    8.8337  -15.6798   18.9533 O   0  0  0  0  0  0  0  0  0  0  0  0
   14.3751  -14.7839   21.3357 N   0  0  0  0  0  0  0  0  0  0  0  0
   13.5138  -14.9427   20.2098 C   0  0  0  0  0  0  0  0  0  0  0  0
   13.5476  -14.0896   19.3135 O   0  0  0  0  0  0  0  0  0  0  0  0
   12.6095  -16.1023   20.1304 C   0  0  0  0  0  0  0  0  0  0  0  0
   11.2021  -15.7011   20.4238 C   0  0  2  0  0  0  0  0  0  0  0  0
   10.7669  -14.5567   19.6872 N   0  0  0  0  0  0  0  0  0  0  0  0
   11.1064  -15.4759   21.9070 C   0  0  0  0  0  0  0  0  0  0  0  0
   11.5161  -14.4105   22.4337 O   0  0  0  0  0  0  0  0  0  0  0  0
   10.5539  -16.4468   22.7744 N   0  0  0  0  0  0  0  0  0  0  0  0
   10.3841  -16.1780   24.2345 C   0  0  1  0  0  0  0  0  0  0  0  0
    8.9210  -16.3818   24.4696 C   0  0  0  0  0  0  0  0  0  0  0  0
    8.0804  -15.1899   24.5344 C   0  0  0  0  0  0  0  0  0  0  0  0
    8.4071  -13.8603   24.5669 C   0  0  0  0  0  0  0  0  0  0  0  0
    7.2525  -13.1478   24.5617 N   0  0  0  0  0  0  0  0  0  0  0  0
    6.2500  -14.0079   24.5259 C   0  0  0  0  0  0  0  0  0  0  0  0
    6.7220  -15.2419   24.5086 N   0  0  0  0  0  0  0  0  0  0  0  0
   11.1694  -17.2438   24.9488 C   0  0  0  0  0  0  0  0  0  0  0  0
   11.3286  -17.1434   26.3426 O   0  0  0  0  0  0  0  0  0  0  0  0
   11.6694  -18.1852   24.3668 O   0  0  0  0  0  0  0  0  0  0  0  0
  1  2  1  0
  2  3  1  0
  3  5  1  0
  3  4  1  6
  5  6  2  0
  7  8  1  0
  8 10  1  0
  9  8  2  0
 11 10  1  1
 11 13  1  0
 12 11  1  0
 12  5  1  0
 13 15  1  0
 14 13  2  0
 15 16  1  0
 16 23  1  0
 16 17  1  1
 18 17  1  0
 19 18  2  0
 20 19  1  0
 21 20  1  0
 21 22  2  0
 22 18  1  0
 23 25  2  0
 23 24  1  0
M  END
$$$$
