SNH.pdb
     RDKit          3D

 25 25  0  0  1  0  0  0  0  0999 V2000
   13.0334  -17.6431   20.6425 O   0  0  0  0  0  0  0  0  0  0  0  0
   12.4873  -16.7326   21.5727 C   0  0  0  0  0  0  0  0  0  0  0  0
   10.9858  -16.7833   21.3734 C   0  0  2  0  0  0  0  0  0  0  0  0
   10.5187  -15.6419   20.6247 N   0  0  0  0  0  0  0  0  0  0  0  0
   10.2614  -16.9255   22.6412 C   0  0  0  0  0  0  0  0  0  0  0  0
   10.1902  -15.9116   23.4065 O   0  0  0  0  0  0  0  0  0  0  0  0
    6.5445  -18.1305   25.4736 N   0  0  0  0  0  0  0  0  0  0  0  0
    6.9779  -19.4246   25.0582 C   0  0  0  0  0  0  0  0  0  0  0  0
    6.2202  -20.3875   25.2345 O   0  0  0  0  0  0  0  0  0  0  0  0
    8.3011  -19.5946   24.4346 C   0  0  0  0  0  0  0  0  0  0  0  0
    8.9689  -18.2749   24.2342 C   0  0  2  0  0  0  0  0  0  0  0  0
    9.6622  -18.1665   22.9896 N   0  0  0  0  0  0  0  0  0  0  0  0
    9.8901  -18.0633   25.4030 C   0  0  0  0  0  0  0  0  0  0  0  0
   11.1389  -18.0573   25.2579 O   0  0  0  0  0  0  0  0  0  0  0  0
    9.3978  -17.8621   26.7136 N   0  0  0  0  0  0  0  0  0  0  0  0
   10.3236  -17.6750   27.8715 C   0  0  1  0  0  0  0  0  0  0  0  0
    9.7346  -16.5214   28.6197 C   0  0  0  0  0  0  0  0  0  0  0  0
    9.8299  -15.2026   28.0007 C   0  0  0  0  0  0  0  0  0  0  0  0
   10.4268  -14.7970   26.8367 C   0  0  0  0  0  0  0  0  0  0  0  0
   10.1757  -13.4730   26.6797 N   0  0  0  0  0  0  0  0  0  0  0  0
    9.4488  -13.0770   27.7098 C   0  0  0  0  0  0  0  0  0  0  0  0
    9.2274  -14.0988   28.5178 N   0  0  0  0  0  0  0  0  0  0  0  0
   10.2165  -18.9275   28.6977 C   0  0  0  0  0  0  0  0  0  0  0  0
   11.1058  -19.1037   29.7729 O   0  0  0  0  0  0  0  0  0  0  0  0
    9.3920  -19.7898   28.4701 O   0  0  0  0  0  0  0  0  0  0  0  0
  1  2  1  0
  2  3  1  0
  3  5  1  0
  3  4  1  1
  5  6  2  0
  7  8  1  0
  8 10  1  0
  9  8  2  0
 11 10  1  1
 11 13  1  0
 12 11  1  0
 12  5  1  0
 13 15  1  0
 14 13  2  0
 15 16  1  0
 16 23  1  0
 16 17  1  1
 18 17  1  0
 19 18  2  0
 20 19  1  0
 21 20  1  0
 21 22  2  0
 22 18  1  0
 23 25  2  0
 23 24  1  0
M  END
$$$$
