SNH.pdb
     RDKit          3D

 25 25  0  0  1  0  0  0  0  0999 V2000
   -6.1334  -24.1594   24.7917 O   0  0  0  0  0  0  0  0  0  0  0  0
   -5.8781  -25.5232   24.5318 C   0  0  0  0  0  0  0  0  0  0  0  0
   -4.4431  -25.7664   24.9542 C   0  0  2  0  0  0  0  0  0  0  0  0
   -3.9862  -24.7458   25.8660 N   0  0  0  0  0  0  0  0  0  0  0  0
   -3.5409  -25.9014   23.8052 C   0  0  0  0  0  0  0  0  0  0  0  0
   -3.5386  -27.0053   23.1728 O   0  0  0  0  0  0  0  0  0  0  0  0
   -1.2590  -24.4679   19.2154 N   0  0  0  0  0  0  0  0  0  0  0  0
   -0.6364  -24.0282   20.4212 C   0  0  0  0  0  0  0  0  0  0  0  0
    0.5938  -23.8919   20.4367 O   0  0  0  0  0  0  0  0  0  0  0  0
   -1.4538  -23.7468   21.6135 C   0  0  0  0  0  0  0  0  0  0  0  0
   -1.7827  -25.0067   22.3432 C   0  0  2  0  0  0  0  0  0  0  0  0
   -2.7001  -24.8209   23.4227 N   0  0  0  0  0  0  0  0  0  0  0  0
   -0.4831  -25.5970   22.8144 C   0  0  0  0  0  0  0  0  0  0  0  0
    0.3644  -26.0443   22.0007 O   0  0  0  0  0  0  0  0  0  0  0  0
   -0.1548  -25.6764   24.1879 N   0  0  0  0  0  0  0  0  0  0  0  0
    1.1173  -26.3115   24.6475 C   0  0  1  0  0  0  0  0  0  0  0  0
    2.0396  -25.1537   24.8625 C   0  0  0  0  0  0  0  0  0  0  0  0
    2.9138  -24.7788   23.7548 C   0  0  0  0  0  0  0  0  0  0  0  0
    3.0368  -25.2953   22.4924 C   0  0  0  0  0  0  0  0  0  0  0  0
    3.9522  -24.5489   21.8248 N   0  0  0  0  0  0  0  0  0  0  0  0
    4.3772  -23.6052   22.6463 C   0  0  0  0  0  0  0  0  0  0  0  0
    3.7675  -23.7221   23.8128 N   0  0  0  0  0  0  0  0  0  0  0  0
    0.8042  -26.9663   25.9651 C   0  0  0  0  0  0  0  0  0  0  0  0
   -0.4874  -26.8177   26.5014 O   0  0  0  0  0  0  0  0  0  0  0  0
    1.6244  -27.6170   26.5807 O   0  0  0  0  0  0  0  0  0  0  0  0
  1  2  1  0
  2  3  1  0
  3  5  1  0
  3  4  1  1
  5  6  2  0
  7  8  1  0
  8 10  1  0
  9  8  2  0
 11 10  1  1
 11 13  1  0
 12 11  1  0
 12  5  1  0
 13 15  1  0
 14 13  2  0
 15 16  1  0
 16 23  1  0
 16 17  1  1
 18 17  1  0
 19 18  2  0
 20 19  1  0
 21 20  1  0
 21 22  2  0
 22 18  1  0
 23 25  2  0
 23 24  1  0
M  END
$$$$
