SNH.pdb
     RDKit          3D

 25 25  0  0  1  0  0  0  0  0999 V2000
    7.7165  -18.7926   21.6335 O   0  0  0  0  0  0  0  0  0  0  0  0
    8.2063  -19.5451   20.5443 C   0  0  0  0  0  0  0  0  0  0  0  0
    8.2039  -18.6064   19.3545 C   0  0  2  0  0  0  0  0  0  0  0  0
    8.6765  -19.2700   18.1638 N   0  0  0  0  0  0  0  0  0  0  0  0
    8.9573  -17.3751   19.6166 C   0  0  0  0  0  0  0  0  0  0  0  0
   10.1981  -17.3615   19.3352 O   0  0  0  0  0  0  0  0  0  0  0  0
    8.4771  -12.3630   18.1043 N   0  0  0  0  0  0  0  0  0  0  0  0
    8.1279  -13.6027   18.7177 C   0  0  0  0  0  0  0  0  0  0  0  0
    7.6546  -14.5010   18.0096 O   0  0  0  0  0  0  0  0  0  0  0  0
    8.3324  -13.7939   20.1635 C   0  0  0  0  0  0  0  0  0  0  0  0
    9.0712  -15.0624   20.4337 C   0  0  2  0  0  0  0  0  0  0  0  0
    8.3053  -16.2392   20.1692 N   0  0  0  0  0  0  0  0  0  0  0  0
    9.5323  -15.0098   21.8634 C   0  0  0  0  0  0  0  0  0  0  0  0
   10.1914  -14.0330   22.3018 O   0  0  0  0  0  0  0  0  0  0  0  0
    9.2477  -16.0510   22.7774 N   0  0  0  0  0  0  0  0  0  0  0  0
    9.7917  -16.0339   24.1691 C   0  0  1  0  0  0  0  0  0  0  0  0
    8.5729  -16.1165   25.0322 C   0  0  0  0  0  0  0  0  0  0  0  0
    7.7758  -14.9028   25.1840 C   0  0  0  0  0  0  0  0  0  0  0  0
    8.1044  -13.6673   25.6750 C   0  0  0  0  0  0  0  0  0  0  0  0
    7.0193  -12.8640   25.5404 N   0  0  0  0  0  0  0  0  0  0  0  0
    6.0567  -13.5788   24.9849 C   0  0  0  0  0  0  0  0  0  0  0  0
    6.4872  -14.8078   24.7607 N   0  0  0  0  0  0  0  0  0  0  0  0
   10.6061  -17.2903   24.3139 C   0  0  0  0  0  0  0  0  0  0  0  0
   11.2809  -17.5200   25.5263 O   0  0  0  0  0  0  0  0  0  0  0  0
   10.7016  -18.1113   23.4240 O   0  0  0  0  0  0  0  0  0  0  0  0
  1  2  1  0
  2  3  1  0
  3  5  1  0
  3  4  1  6
  5  6  2  0
  7  8  1  0
  8 10  1  0
  9  8  2  0
 11 10  1  1
 11 13  1  0
 12 11  1  0
 12  5  1  0
 13 15  1  0
 14 13  2  0
 15 16  1  0
 16 23  1  0
 16 17  1  1
 18 17  1  0
 19 18  2  0
 20 19  1  0
 21 20  1  0
 21 22  2  0
 22 18  1  0
 23 25  2  0
 23 24  1  0
M  END
$$$$
