SNH.pdb
     RDKit          3D

 25 25  0  0  1  0  0  0  0  0999 V2000
    9.0532  -11.9287   18.1194 O   0  0  0  0  0  0  0  0  0  0  0  0
    8.7386  -12.7082   19.2534 C   0  0  0  0  0  0  0  0  0  0  0  0
    8.6293  -14.1369   18.7598 C   0  0  2  0  0  0  0  0  0  0  0  0
    7.4485  -14.3221   17.9517 N   0  0  0  0  0  0  0  0  0  0  0  0
    8.6861  -15.1096   19.8566 C   0  0  0  0  0  0  0  0  0  0  0  0
    7.5889  -15.5817   20.2950 O   0  0  0  0  0  0  0  0  0  0  0  0
   10.5080  -19.5820   22.3263 N   0  0  0  0  0  0  0  0  0  0  0  0
   11.1567  -18.3258   22.5159 C   0  0  0  0  0  0  0  0  0  0  0  0
   11.6843  -18.0911   23.6108 O   0  0  0  0  0  0  0  0  0  0  0  0
   11.1892  -17.3398   21.4225 C   0  0  0  0  0  0  0  0  0  0  0  0
    9.9635  -16.4882   21.4368 C   0  0  2  0  0  0  0  0  0  0  0  0
    9.9383  -15.5027   20.4025 N   0  0  0  0  0  0  0  0  0  0  0  0
    9.8749  -15.8634   22.8011 C   0  0  0  0  0  0  0  0  0  0  0  0
   10.5065  -14.8130   23.0809 O   0  0  0  0  0  0  0  0  0  0  0  0
    9.0811  -16.4250   23.8282 N   0  0  0  0  0  0  0  0  0  0  0  0
    8.9381  -15.7533   25.1553 C   0  0  1  0  0  0  0  0  0  0  0  0
    7.4753  -15.4561   25.2517 C   0  0  0  0  0  0  0  0  0  0  0  0
    7.0890  -14.1742   25.8341 C   0  0  0  0  0  0  0  0  0  0  0  0
    7.8441  -13.1727   26.3838 C   0  0  0  0  0  0  0  0  0  0  0  0
    7.0079  -12.1601   26.7244 N   0  0  0  0  0  0  0  0  0  0  0  0
    5.7811  -12.5242   26.3951 C   0  0  0  0  0  0  0  0  0  0  0  0
    5.8037  -13.7312   25.8577 N   0  0  0  0  0  0  0  0  0  0  0  0
    9.3194  -16.7805   26.1859 C   0  0  0  0  0  0  0  0  0  0  0  0
    9.7068  -16.3408   27.4644 O   0  0  0  0  0  0  0  0  0  0  0  0
    9.3049  -17.9726   25.9543 O   0  0  0  0  0  0  0  0  0  0  0  0
  1  2  1  0
  2  3  1  0
  3  5  1  0
  3  4  1  1
  5  6  2  0
  7  8  1  0
  8 10  1  0
  9  8  2  0
 11 10  1  1
 11 13  1  0
 12 11  1  0
 12  5  1  0
 13 15  1  0
 14 13  2  0
 15 16  1  0
 16 23  1  0
 16 17  1  1
 18 17  1  0
 19 18  2  0
 20 19  1  0
 21 20  1  0
 21 22  2  0
 22 18  1  0
 23 25  2  0
 23 24  1  0
M  END
$$$$
