SNH.pdb
     RDKit          3D

 25 25  0  0  1  0  0  0  0  0999 V2000
   16.0536  -17.5657   13.1512 O   0  0  0  0  0  0  0  0  0  0  0  0
   16.1324  -17.7095   14.5532 C   0  0  0  0  0  0  0  0  0  0  0  0
   14.7045  -17.8624   15.0374 C   0  0  2  0  0  0  0  0  0  0  0  0
   13.8136  -16.9781   14.3261 N   0  0  0  0  0  0  0  0  0  0  0  0
   14.5882  -17.6861   16.4892 C   0  0  0  0  0  0  0  0  0  0  0  0
   13.9486  -16.6739   16.9197 O   0  0  0  0  0  0  0  0  0  0  0  0
   14.7242  -22.0153   18.8861 N   0  0  0  0  0  0  0  0  0  0  0  0
   14.3074  -20.7208   19.3165 C   0  0  0  0  0  0  0  0  0  0  0  0
   13.0966  -20.5054   19.4585 O   0  0  0  0  0  0  0  0  0  0  0  0
   15.3083  -19.6738   19.5822 C   0  0  0  0  0  0  0  0  0  0  0  0
   15.0195  -18.4461   18.7839 C   0  0  2  0  0  0  0  0  0  0  0  0
   15.1785  -18.6276   17.3756 N   0  0  0  0  0  0  0  0  0  0  0  0
   15.9138  -17.3573   19.3077 C   0  0  0  0  0  0  0  0  0  0  0  0
   16.6733  -16.7110   18.5423 O   0  0  0  0  0  0  0  0  0  0  0  0
   15.9424  -17.0110   20.6787 N   0  0  0  0  0  0  0  0  0  0  0  0
   16.7059  -15.8218   21.1643 C   0  0  1  0  0  0  0  0  0  0  0  0
   15.9809  -14.6596   20.5636 C   0  0  0  0  0  0  0  0  0  0  0  0
   16.4094  -14.2136   19.2411 C   0  0  0  0  0  0  0  0  0  0  0  0
   17.4080  -14.6654   18.4200 C   0  0  0  0  0  0  0  0  0  0  0  0
   17.3539  -13.9517   17.2674 N   0  0  0  0  0  0  0  0  0  0  0  0
   16.3565  -13.0915   17.3740 C   0  0  0  0  0  0  0  0  0  0  0  0
   15.7730  -13.2296   18.5515 N   0  0  0  0  0  0  0  0  0  0  0  0
   16.5459  -15.8058   22.6599 C   0  0  0  0  0  0  0  0  0  0  0  0
   17.3317  -14.9144   23.4122 O   0  0  0  0  0  0  0  0  0  0  0  0
   15.7646  -16.5328   23.2396 O   0  0  0  0  0  0  0  0  0  0  0  0
  1  2  1  0
  2  3  1  0
  3  5  1  0
  3  4  1  6
  5  6  2  0
  7  8  1  0
  8 10  1  0
  9  8  2  0
 11 10  1  1
 11 13  1  0
 12 11  1  0
 12  5  1  0
 13 15  1  0
 14 13  2  0
 15 16  1  0
 16 23  1  0
 16 17  1  6
 18 17  1  0
 19 18  2  0
 20 19  1  0
 21 20  1  0
 21 22  2  0
 22 18  1  0
 23 25  2  0
 23 24  1  0
M  END
$$$$
