ATC.pdb
     RDKit          3D

 19 18  0  0  1  0  0  0  0  0999 V2000
   20.4998  -12.0040  -19.5063 C   0  0  0  0  0  0  0  0  0  0  0  0
   19.6683  -11.9754  -18.2275 C   0  0  2  0  0  0  0  0  0  0  0  0
   18.3822  -12.5990  -18.4231 N   0  0  0  0  0  0  0  0  0  0  0  0
   19.4755  -10.5600  -17.8206 C   0  0  0  0  0  0  0  0  0  0  0  0
   18.9548   -9.7357  -18.6136 O   0  0  0  0  0  0  0  0  0  0  0  0
   17.3766   -9.4466  -15.3233 C   0  0  0  0  0  0  0  0  0  0  0  0
   18.7037   -8.8838  -14.8250 C   0  0  1  0  0  0  0  0  0  0  0  0
   19.2729   -9.7293  -13.8758 O   0  0  0  0  0  0  0  0  0  0  0  0
   19.6377   -8.7803  -16.0304 C   0  0  2  0  0  0  0  0  0  0  0  0
   19.8703  -10.1005  -16.5347 N   0  0  0  0  0  0  0  0  0  0  0  0
   20.8656   -8.0938  -15.5895 C   0  0  0  0  0  0  0  0  0  0  0  0
   22.0006   -8.6180  -15.4801 O   0  0  0  0  0  0  0  0  0  0  0  0
   20.7802   -6.7173  -15.2537 N   0  0  0  0  0  0  0  0  0  0  0  0
   21.8995   -5.9949  -14.7703 C   0  0  1  0  0  0  0  0  0  0  0  0
   22.5293   -5.0554  -15.7457 C   0  0  0  0  0  0  0  0  0  0  0  0
   23.7958   -4.0941  -14.8752 S   0  0  0  0  0  0  0  0  0  0  0  0
   21.4767   -5.2098  -13.5849 C   0  0  0  0  0  0  0  0  0  0  0  0
   22.4234   -4.7736  -12.6421 O   0  0  0  0  0  0  0  0  0  0  0  0
   20.2759   -4.9227  -13.4030 O   0  0  0  0  0  0  0  0  0  0  0  0
  2  3  1  0
  2  4  1  0
  2  1  1  6
  4 10  1  0
  5  4  2  0
  7  8  1  0
  7  6  1  6
  9  7  1  0
  9 10  1  1
 11 13  1  0
 11  9  1  0
 12 11  2  0
 14 13  1  0
 14 17  1  0
 14 15  1  6
 16 15  1  0
 17 18  1  0
 19 17  2  0
M  END
$$$$
