ATC.pdb
     RDKit          3D

 19 18  0  0  1  0  0  0  0  0999 V2000
   26.5701  -36.0077  -12.3499 C   0  0  0  0  0  0  0  0  0  0  0  0
   25.8616  -34.6653  -12.1960 C   0  0  2  0  0  0  0  0  0  0  0  0
   26.0235  -33.8479  -13.3737 N   0  0  0  0  0  0  0  0  0  0  0  0
   26.4347  -33.9601  -11.0212 C   0  0  0  0  0  0  0  0  0  0  0  0
   27.5054  -33.3108  -11.1294 O   0  0  0  0  0  0  0  0  0  0  0  0
   24.7720  -31.3795   -8.9522 C   0  0  0  0  0  0  0  0  0  0  0  0
   25.0807  -32.5263   -7.9953 C   0  0  1  0  0  0  0  0  0  0  0  0
   23.9824  -33.3734   -7.8696 O   0  0  0  0  0  0  0  0  0  0  0  0
   26.2543  -33.3090   -8.5836 C   0  0  2  0  0  0  0  0  0  0  0  0
   25.7955  -33.9984   -9.7522 N   0  0  0  0  0  0  0  0  0  0  0  0
   26.7665  -34.2077   -7.5332 C   0  0  0  0  0  0  0  0  0  0  0  0
   26.4894  -35.4254   -7.4098 O   0  0  0  0  0  0  0  0  0  0  0  0
   27.6535  -33.6695   -6.5644 N   0  0  0  0  0  0  0  0  0  0  0  0
   28.1954  -34.4642   -5.5237 C   0  0  1  0  0  0  0  0  0  0  0  0
   29.5347  -34.0374   -5.0189 C   0  0  0  0  0  0  0  0  0  0  0  0
   30.0446  -35.1866   -3.7131 S   0  0  0  0  0  0  0  0  0  0  0  0
   27.2495  -34.4522   -4.3811 C   0  0  0  0  0  0  0  0  0  0  0  0
   27.0011  -35.6247   -3.6470 O   0  0  0  0  0  0  0  0  0  0  0  0
   26.6583  -33.4039   -4.0512 O   0  0  0  0  0  0  0  0  0  0  0  0
  2  3  1  0
  2  4  1  0
  2  1  1  6
  4 10  1  0
  5  4  2  0
  7  8  1  0
  7  6  1  6
  9  7  1  0
  9 10  1  6
 11 13  1  0
 11  9  1  0
 12 11  2  0
 14 13  1  0
 14 17  1  0
 14 15  1  1
 16 15  1  0
 17 18  1  0
 19 17  2  0
M  END
$$$$
