ATC.pdb
     RDKit          3D

 19 18  0  0  1  0  0  0  0  0999 V2000
   20.1218  -13.3398  -15.6108 C   0  0  0  0  0  0  0  0  0  0  0  0
   18.8311  -12.6894  -16.0994 C   0  0  2  0  0  0  0  0  0  0  0  0
   18.3090  -13.3664  -17.2615 N   0  0  0  0  0  0  0  0  0  0  0  0
   19.1150  -11.2715  -16.4383 C   0  0  0  0  0  0  0  0  0  0  0  0
   19.8668  -10.9869  -17.4044 O   0  0  0  0  0  0  0  0  0  0  0  0
   16.6568   -8.8072  -17.3313 C   0  0  0  0  0  0  0  0  0  0  0  0
   17.3336   -8.1801  -16.1168 C   0  0  1  0  0  0  0  0  0  0  0  0
   16.6029   -8.4343  -14.9586 O   0  0  0  0  0  0  0  0  0  0  0  0
   18.7181   -8.8145  -15.9868 C   0  0  2  0  0  0  0  0  0  0  0  0
   18.5503  -10.2050  -15.6873 N   0  0  0  0  0  0  0  0  0  0  0  0
   19.4560   -8.0734  -14.9477 C   0  0  0  0  0  0  0  0  0  0  0  0
   19.6088   -8.4362  -13.7561 O   0  0  0  0  0  0  0  0  0  0  0  0
   20.0553   -6.8370  -15.3041 N   0  0  0  0  0  0  0  0  0  0  0  0
   20.6949   -6.0124  -14.3453 C   0  0  1  0  0  0  0  0  0  0  0  0
   22.1825   -5.9345  -14.4534 C   0  0  0  0  0  0  0  0  0  0  0  0
   22.7727   -4.6682  -13.2983 S   0  0  0  0  0  0  0  0  0  0  0  0
   20.1533   -4.6372  -14.4710 C   0  0  0  0  0  0  0  0  0  0  0  0
   20.1616   -3.7626  -13.3708 O   0  0  0  0  0  0  0  0  0  0  0  0
   19.6816   -4.2320  -15.5530 O   0  0  0  0  0  0  0  0  0  0  0  0
  2  3  1  0
  2  4  1  0
  2  1  1  6
  4 10  1  0
  5  4  2  0
  7  8  1  0
  7  6  1  6
  9  7  1  0
  9 10  1  1
 11 13  1  0
 11  9  1  0
 12 11  2  0
 14 13  1  0
 14 17  1  0
 14 15  1  6
 16 15  1  0
 17 18  1  0
 19 17  2  0
M  END
$$$$
