ATC.pdb
     RDKit          3D

 19 18  0  0  1  0  0  0  0  0999 V2000
   15.2805   -9.6601  -16.1187 C   0  0  0  0  0  0  0  0  0  0  0  0
   16.6039  -10.3944  -16.3105 C   0  0  2  0  0  0  0  0  0  0  0  0
   16.4775  -11.7963  -15.9940 N   0  0  0  0  0  0  0  0  0  0  0  0
   17.6208   -9.7760  -15.4220 C   0  0  0  0  0  0  0  0  0  0  0  0
   17.4382   -9.7341  -14.1792 O   0  0  0  0  0  0  0  0  0  0  0  0
   21.2253  -10.7039  -15.2246 C   0  0  0  0  0  0  0  0  0  0  0  0
   21.1996   -9.2350  -15.6346 C   0  0  1  0  0  0  0  0  0  0  0  0
   21.2848   -9.1074  -17.0188 O   0  0  0  0  0  0  0  0  0  0  0  0
   19.8705   -8.6505  -15.1569 C   0  0  2  0  0  0  0  0  0  0  0  0
   18.8189   -9.2187  -15.9459 N   0  0  0  0  0  0  0  0  0  0  0  0
   19.9605   -7.1830  -15.2653 C   0  0  0  0  0  0  0  0  0  0  0  0
   19.5552   -6.4922  -16.2315 O   0  0  0  0  0  0  0  0  0  0  0  0
   20.5546   -6.4668  -14.1934 N   0  0  0  0  0  0  0  0  0  0  0  0
   20.7836   -5.0700  -14.2636 C   0  0  1  0  0  0  0  0  0  0  0  0
   19.8580   -4.2245  -13.4519 C   0  0  0  0  0  0  0  0  0  0  0  0
   20.4369   -2.5085  -13.5300 S   0  0  0  0  0  0  0  0  0  0  0  0
   22.1697   -4.7970  -13.8111 C   0  0  0  0  0  0  0  0  0  0  0  0
   22.7533   -5.5684  -12.7913 O   0  0  0  0  0  0  0  0  0  0  0  0
   22.8416   -3.8801  -14.3259 O   0  0  0  0  0  0  0  0  0  0  0  0
  2  3  1  0
  2  4  1  0
  2  1  1  1
  4 10  1  0
  5  4  2  0
  7  8  1  0
  7  6  1  6
  9  7  1  0
  9 10  1  6
 11 13  1  0
 11  9  1  0
 12 11  2  0
 14 13  1  0
 14 17  1  0
 14 15  1  1
 16 15  1  0
 17 18  1  0
 19 17  2  0
M  END
$$$$
