ATC.pdb
     RDKit          3D

 19 18  0  0  1  0  0  0  0  0999 V2000
   17.5851  -10.3564  -18.5123 C   0  0  0  0  0  0  0  0  0  0  0  0
   18.6881  -11.2343  -17.9290 C   0  0  2  0  0  0  0  0  0  0  0  0
   18.1792  -12.5261  -17.5370 N   0  0  0  0  0  0  0  0  0  0  0  0
   19.2618  -10.5476  -16.7436 C   0  0  0  0  0  0  0  0  0  0  0  0
   18.6757  -10.5998  -15.6330 O   0  0  0  0  0  0  0  0  0  0  0  0
   22.5380  -10.9524  -15.1432 C   0  0  0  0  0  0  0  0  0  0  0  0
   22.5277   -9.5030  -15.6179 C   0  0  1  0  0  0  0  0  0  0  0  0
   23.1561   -9.3844  -16.8552 O   0  0  0  0  0  0  0  0  0  0  0  0
   21.0661   -9.0769  -15.7537 C   0  0  2  0  0  0  0  0  0  0  0  0
   20.4788   -9.8182  -16.8293 N   0  0  0  0  0  0  0  0  0  0  0  0
   21.0412   -7.6177  -15.9621 C   0  0  0  0  0  0  0  0  0  0  0  0
   21.0923   -7.0337  -17.0717 O   0  0  0  0  0  0  0  0  0  0  0  0
   20.9517   -6.7790  -14.8204 N   0  0  0  0  0  0  0  0  0  0  0  0
   20.9279   -5.3663  -14.9306 C   0  0  1  0  0  0  0  0  0  0  0  0
   19.6495   -4.7104  -14.5230 C   0  0  0  0  0  0  0  0  0  0  0  0
   18.3318   -5.2984  -15.6202 S   0  0  0  0  0  0  0  0  0  0  0  0
   22.0168   -4.8103  -14.0905 C   0  0  0  0  0  0  0  0  0  0  0  0
   22.3649   -3.4515  -14.1795 O   0  0  0  0  0  0  0  0  0  0  0  0
   22.6422   -5.5365  -13.2913 O   0  0  0  0  0  0  0  0  0  0  0  0
  2  3  1  0
  2  4  1  0
  2  1  1  1
  4 10  1  0
  5  4  2  0
  7  8  1  0
  7  6  1  6
  9  7  1  0
  9 10  1  6
 11 13  1  0
 11  9  1  0
 12 11  2  0
 14 13  1  0
 14 17  1  0
 14 15  1  1
 16 15  1  0
 17 18  1  0
 19 17  2  0
M  END
$$$$
