ATC.pdb
     RDKit          3D

 19 18  0  0  1  0  0  0  0  0999 V2000
   16.7852  -11.1365  -12.7171 C   0  0  0  0  0  0  0  0  0  0  0  0
   16.1636  -10.7276  -11.3852 C   0  0  2  0  0  0  0  0  0  0  0  0
   14.9266  -11.4300  -11.1451 N   0  0  0  0  0  0  0  0  0  0  0  0
   15.9052   -9.2652  -11.4131 C   0  0  0  0  0  0  0  0  0  0  0  0
   15.1339   -8.7722  -12.2743 O   0  0  0  0  0  0  0  0  0  0  0  0
   14.8088   -7.1648   -8.4417 C   0  0  0  0  0  0  0  0  0  0  0  0
   16.1341   -6.5906   -8.9316 C   0  0  1  0  0  0  0  0  0  0  0  0
   17.1993   -7.1210   -8.2079 O   0  0  0  0  0  0  0  0  0  0  0  0
   16.2838   -6.9775  -10.4027 C   0  0  2  0  0  0  0  0  0  0  0  0
   16.5166   -8.3888  -10.4759 N   0  0  0  0  0  0  0  0  0  0  0  0
   17.3790   -6.1701  -10.9703 C   0  0  0  0  0  0  0  0  0  0  0  0
   17.3853   -4.9206  -11.0870 O   0  0  0  0  0  0  0  0  0  0  0  0
   18.5393   -6.8446  -11.4321 N   0  0  0  0  0  0  0  0  0  0  0  0
   19.6359   -6.1458  -11.9957 C   0  0  1  0  0  0  0  0  0  0  0  0
   20.9859   -6.6922  -11.6648 C   0  0  0  0  0  0  0  0  0  0  0  0
   22.2315   -5.6918  -12.5213 S   0  0  0  0  0  0  0  0  0  0  0  0
   19.4885   -6.1504  -13.4717 C   0  0  0  0  0  0  0  0  0  0  0  0
   19.6315   -4.9616  -14.2077 O   0  0  0  0  0  0  0  0  0  0  0  0
   19.2354   -7.2069  -14.0859 O   0  0  0  0  0  0  0  0  0  0  0  0
  2  3  1  0
  2  4  1  0
  2  1  1  6
  4 10  1  0
  5  4  2  0
  7  8  1  0
  7  6  1  1
  9  7  1  0
  9 10  1  1
 11 13  1  0
 11  9  1  0
 12 11  2  0
 14 13  1  0
 14 17  1  0
 14 15  1  6
 16 15  1  0
 17 18  1  0
 19 17  2  0
M  END
$$$$
