ATC.pdb
     RDKit          3D

 19 18  0  0  1  0  0  0  0  0999 V2000
   19.3294  -17.8382  -13.1777 C   0  0  0  0  0  0  0  0  0  0  0  0
   19.3034  -19.1029  -14.0306 C   0  0  2  0  0  0  0  0  0  0  0  0
   17.9849  -19.6874  -14.0634 N   0  0  0  0  0  0  0  0  0  0  0  0
   20.2640  -20.0798  -13.4571 C   0  0  0  0  0  0  0  0  0  0  0  0
   19.9425  -20.7795  -12.4638 O   0  0  0  0  0  0  0  0  0  0  0  0
   21.7292  -23.0221  -14.8514 C   0  0  0  0  0  0  0  0  0  0  0  0
   22.9385  -22.1264  -14.6031 C   0  0  1  0  0  0  0  0  0  0  0  0
   23.2707  -21.4156  -15.7539 O   0  0  0  0  0  0  0  0  0  0  0  0
   22.5590  -21.1426  -13.4967 C   0  0  2  0  0  0  0  0  0  0  0  0
   21.5626  -20.2505  -14.0092 N   0  0  0  0  0  0  0  0  0  0  0  0
   23.7910  -20.4607  -13.0601 C   0  0  0  0  0  0  0  0  0  0  0  0
   24.1437  -19.3016  -13.3873 O   0  0  0  0  0  0  0  0  0  0  0  0
   24.6715  -21.1579  -12.1921 N   0  0  0  0  0  0  0  0  0  0  0  0
   25.9176  -20.6121  -11.7950 C   0  0  1  0  0  0  0  0  0  0  0  0
   26.4582  -21.1188  -10.4983 C   0  0  0  0  0  0  0  0  0  0  0  0
   25.4222  -20.4743   -9.1577 S   0  0  0  0  0  0  0  0  0  0  0  0
   26.9166  -20.9013  -12.8527 C   0  0  0  0  0  0  0  0  0  0  0  0
   28.1587  -20.2435  -12.8614 O   0  0  0  0  0  0  0  0  0  0  0  0
   26.6737  -21.7316  -13.7521 O   0  0  0  0  0  0  0  0  0  0  0  0
  2  3  1  0
  2  4  1  0
  2  1  1  1
  4 10  1  0
  5  4  2  0
  7  8  1  0
  7  6  1  6
  9  7  1  0
  9 10  1  6
 11 13  1  0
 11  9  1  0
 12 11  2  0
 14 13  1  0
 14 17  1  0
 14 15  1  1
 16 15  1  0
 17 18  1  0
 19 17  2  0
M  END
$$$$
