ATC.pdb
     RDKit          3D

 19 18  0  0  1  0  0  0  0  0999 V2000
   17.6957  -11.0594  -17.0841 C   0  0  0  0  0  0  0  0  0  0  0  0
   19.0876  -11.6573  -16.9033 C   0  0  2  0  0  0  0  0  0  0  0  0
   19.0173  -13.0184  -16.4302 N   0  0  0  0  0  0  0  0  0  0  0  0
   19.8338  -10.8297  -15.9213 C   0  0  0  0  0  0  0  0  0  0  0  0
   19.5424  -10.8754  -14.6996 O   0  0  0  0  0  0  0  0  0  0  0  0
   23.3485  -10.8156  -15.1147 C   0  0  0  0  0  0  0  0  0  0  0  0
   23.1098   -9.3964  -15.6199 C   0  0  1  0  0  0  0  0  0  0  0  0
   23.4562   -9.2865  -16.9644 O   0  0  0  0  0  0  0  0  0  0  0  0
   21.6193   -9.0987  -15.4590 C   0  0  2  0  0  0  0  0  0  0  0  0
   20.8891   -9.9699  -16.3304 N   0  0  0  0  0  0  0  0  0  0  0  0
   21.4132   -7.6680  -15.7492 C   0  0  0  0  0  0  0  0  0  0  0  0
   21.0385   -7.1883  -16.8466 O   0  0  0  0  0  0  0  0  0  0  0  0
   21.6538   -6.7318  -14.7098 N   0  0  0  0  0  0  0  0  0  0  0  0
   21.5623   -5.3343  -14.9264 C   0  0  1  0  0  0  0  0  0  0  0  0
   20.1759   -4.7872  -15.0212 C   0  0  0  0  0  0  0  0  0  0  0  0
   19.1807   -5.5229  -13.6967 S   0  0  0  0  0  0  0  0  0  0  0  0
   22.2545   -4.6391  -13.8138 C   0  0  0  0  0  0  0  0  0  0  0  0
   22.4400   -3.2463  -13.8468 O   0  0  0  0  0  0  0  0  0  0  0  0
   22.6840   -5.2762  -12.8303 O   0  0  0  0  0  0  0  0  0  0  0  0
  2  3  1  0
  2  4  1  0
  2  1  1  1
  4 10  1  0
  5  4  2  0
  7  8  1  0
  7  6  1  6
  9  7  1  0
  9 10  1  6
 11 13  1  0
 11  9  1  0
 12 11  2  0
 14 13  1  0
 14 17  1  0
 14 15  1  1
 16 15  1  0
 17 18  1  0
 19 17  2  0
M  END
$$$$
