ATC.pdb
     RDKit          3D

 19 18  0  0  1  0  0  0  0  0999 V2000
   17.0445  -14.4887  -17.9060 C   0  0  0  0  0  0  0  0  0  0  0  0
   16.6633  -13.2453  -17.1083 C   0  0  2  0  0  0  0  0  0  0  0  0
   15.9550  -12.2923  -17.9277 N   0  0  0  0  0  0  0  0  0  0  0  0
   17.9048  -12.6211  -16.5838 C   0  0  0  0  0  0  0  0  0  0  0  0
   18.6645  -13.2641  -15.8163 O   0  0  0  0  0  0  0  0  0  0  0  0
   20.8237  -11.5221  -18.3255 C   0  0  0  0  0  0  0  0  0  0  0  0
   20.2745  -10.2354  -17.7181 C   0  0  1  0  0  0  0  0  0  0  0  0
   19.4520   -9.5728  -18.6260 O   0  0  0  0  0  0  0  0  0  0  0  0
   19.4545  -10.6243  -16.4882 C   0  0  2  0  0  0  0  0  0  0  0  0
   18.2668  -11.2912  -16.9309 N   0  0  0  0  0  0  0  0  0  0  0  0
   19.1875   -9.3950  -15.7193 C   0  0  0  0  0  0  0  0  0  0  0  0
   18.1975   -8.6379  -15.8664 O   0  0  0  0  0  0  0  0  0  0  0  0
   20.1194   -9.0146  -14.7185 N   0  0  0  0  0  0  0  0  0  0  0  0
   20.0128   -7.7819  -14.0275 C   0  0  1  0  0  0  0  0  0  0  0  0
   20.2651   -7.8447  -12.5568 C   0  0  0  0  0  0  0  0  0  0  0  0
   18.9388   -8.8149  -11.7916 S   0  0  0  0  0  0  0  0  0  0  0  0
   20.9809   -6.8259  -14.6185 C   0  0  0  0  0  0  0  0  0  0  0  0
   20.9867   -5.4777  -14.2212 O   0  0  0  0  0  0  0  0  0  0  0  0
   21.8059   -7.1996  -15.4770 O   0  0  0  0  0  0  0  0  0  0  0  0
  2  3  1  0
  2  4  1  0
  2  1  1  6
  4 10  1  0
  5  4  2  0
  7  8  1  0
  7  6  1  6
  9  7  1  0
  9 10  1  6
 11 13  1  0
 11  9  1  0
 12 11  2  0
 14 13  1  0
 14 17  1  0
 14 15  1  1
 16 15  1  0
 17 18  1  0
 19 17  2  0
M  END
$$$$
