VHN.pdb
     RDKit          3D

 26 26  0  0  1  0  0  0  0  0999 V2000
    8.4028  -12.3968   26.3548 C   0  0  0  0  0  0  0  0  0  0  0  0
    6.9645  -12.8149   26.6177 C   0  0  1  0  0  0  0  0  0  0  0  0
    6.1498  -11.6330   27.0807 C   0  0  0  0  0  0  0  0  0  0  0  0
    6.3392  -13.4711   25.4310 C   0  0  2  0  0  0  0  0  0  0  0  0
    4.9882  -13.8321   25.7461 N   0  0  0  0  0  0  0  0  0  0  0  0
    7.1190  -14.6358   24.9393 C   0  0  0  0  0  0  0  0  0  0  0  0
    6.8981  -15.7764   25.4167 O   0  0  0  0  0  0  0  0  0  0  0  0
    8.1113  -14.4682   23.9345 N   0  0  0  0  0  0  0  0  0  0  0  0
    8.9077  -15.5078   23.3564 C   0  0  1  0  0  0  0  0  0  0  0  0
    9.4913  -15.1689   22.0272 C   0  0  0  0  0  0  0  0  0  0  0  0
    8.4658  -14.9077   20.9954 C   0  0  0  0  0  0  0  0  0  0  0  0
    7.1240  -15.0941   21.1263 C   0  0  0  0  0  0  0  0  0  0  0  0
    6.5607  -14.7380   19.9618 N   0  0  0  0  0  0  0  0  0  0  0  0
    7.4984  -14.3311   19.0932 C   0  0  0  0  0  0  0  0  0  0  0  0
    8.6746  -14.4370   19.7346 N   0  0  0  0  0  0  0  0  0  0  0  0
    9.9159  -16.0885   24.3084 C   0  0  0  0  0  0  0  0  0  0  0  0
   10.6193  -15.2856   24.9658 O   0  0  0  0  0  0  0  0  0  0  0  0
    9.6944  -17.0537   27.5895 N   0  0  0  0  0  0  0  0  0  0  0  0
    9.8372  -18.4790   27.4143 C   0  0  0  0  0  0  0  0  0  0  0  0
    9.2776  -19.1576   28.3169 O   0  0  0  0  0  0  0  0  0  0  0  0
   10.5715  -19.0359   26.2798 C   0  0  0  0  0  0  0  0  0  0  0  0
   11.0975  -17.9814   25.3694 C   0  0  2  0  0  0  0  0  0  0  0  0
   10.0696  -17.4847   24.4615 N   0  0  0  0  0  0  0  0  0  0  0  0
   12.2660  -18.4320   24.6083 C   0  0  0  0  0  0  0  0  0  0  0  0
   13.4888  -18.7802   25.1039 O   0  0  0  0  0  0  0  0  0  0  0  0
   12.1369  -18.5113   23.3368 O   0  0  0  0  0  0  0  0  0  0  0  0
  2  1  1  6
  2  3  1  0
  4  2  1  0
  4  5  1  1
  6  4  1  0
  7  6  2  0
  8  6  1  0
  9  8  1  0
  9 10  1  6
 10 11  1  0
 11 12  2  0
 12 13  1  0
 14 13  1  0
 15 11  1  0
 15 14  2  0
 16 23  1  0
 16  9  1  0
 17 16  2  0
 19 18  1  0
 19 20  2  0
 22 21  1  6
 21 19  1  0
 22 24  1  0
 22 23  1  0
 24 25  1  0
 26 24  2  0
M  END
$$$$
