VHN.pdb
     RDKit          3D

 26 26  0  0  1  0  0  0  0  0999 V2000
    6.9839  -15.0697   17.0883 C   0  0  0  0  0  0  0  0  0  0  0  0
    7.5236  -15.0785   18.5101 C   0  0  1  0  0  0  0  0  0  0  0  0
    8.9095  -15.6728   18.5427 C   0  0  0  0  0  0  0  0  0  0  0  0
    7.5025  -13.7212   19.1325 C   0  0  2  0  0  0  0  0  0  0  0  0
    8.2381  -12.8095   18.3065 N   0  0  0  0  0  0  0  0  0  0  0  0
    8.0021  -13.7212   20.5314 C   0  0  0  0  0  0  0  0  0  0  0  0
    9.2238  -13.5321   20.7538 O   0  0  0  0  0  0  0  0  0  0  0  0
    7.1087  -13.9336   21.6173 N   0  0  0  0  0  0  0  0  0  0  0  0
    7.4607  -13.9562   23.0047 C   0  0  1  0  0  0  0  0  0  0  0  0
    6.3431  -13.6109   23.9287 C   0  0  0  0  0  0  0  0  0  0  0  0
    6.7621  -13.5494   25.3448 C   0  0  0  0  0  0  0  0  0  0  0  0
    6.7347  -14.5748   26.2394 C   0  0  0  0  0  0  0  0  0  0  0  0
    7.1966  -14.0948   27.4040 N   0  0  0  0  0  0  0  0  0  0  0  0
    7.5173  -12.7981   27.2817 C   0  0  0  0  0  0  0  0  0  0  0  0
    7.2477  -12.4638   26.0082 N   0  0  0  0  0  0  0  0  0  0  0  0
    8.1970  -15.2011   23.4147 C   0  0  0  0  0  0  0  0  0  0  0  0
    7.7101  -16.3021   23.0653 O   0  0  0  0  0  0  0  0  0  0  0  0
   13.1280  -17.6096   25.8086 N   0  0  0  0  0  0  0  0  0  0  0  0
   12.2266  -17.5328   24.6843 C   0  0  0  0  0  0  0  0  0  0  0  0
   12.1062  -18.6199   24.0581 O   0  0  0  0  0  0  0  0  0  0  0  0
   11.5407  -16.2880   24.3432 C   0  0  0  0  0  0  0  0  0  0  0  0
   10.0649  -16.3854   24.5162 C   0  0  2  0  0  0  0  0  0  0  0  0
    9.3928  -15.1394   24.1649 N   0  0  0  0  0  0  0  0  0  0  0  0
    9.6869  -16.7964   25.8712 C   0  0  0  0  0  0  0  0  0  0  0  0
    9.5932  -18.0707   26.3504 O   0  0  0  0  0  0  0  0  0  0  0  0
    9.4115  -15.8653   26.7060 O   0  0  0  0  0  0  0  0  0  0  0  0
  2  1  1  6
  2  3  1  0
  4  2  1  0
  4  5  1  6
  6  4  1  0
  7  6  2  0
  8  6  1  0
  9  8  1  0
  9 10  1  1
 10 11  1  0
 11 12  2  0
 12 13  1  0
 14 13  1  0
 15 11  1  0
 15 14  2  0
 16 23  1  0
 16  9  1  0
 17 16  2  0
 19 18  1  0
 19 20  2  0
 22 21  1  1
 21 19  1  0
 22 24  1  0
 22 23  1  0
 24 25  1  0
 26 24  2  0
M  END
$$$$
