VHN.pdb
     RDKit          3D

 26 26  0  0  1  0  0  0  0  0999 V2000
    9.4108  -13.0446   19.9483 C   0  0  0  0  0  0  0  0  0  0  0  0
    7.9650  -13.4574   20.1771 C   0  0  1  0  0  0  0  0  0  0  0  0
    7.0266  -12.4303   19.5946 C   0  0  0  0  0  0  0  0  0  0  0  0
    7.6736  -14.8209   19.6423 C   0  0  2  0  0  0  0  0  0  0  0  0
    6.2738  -15.0957   19.7824 N   0  0  0  0  0  0  0  0  0  0  0  0
    8.5069  -15.8769   20.2723 C   0  0  0  0  0  0  0  0  0  0  0  0
    8.2037  -16.3086   21.4123 O   0  0  0  0  0  0  0  0  0  0  0  0
    9.6424  -16.4007   19.5952 N   0  0  0  0  0  0  0  0  0  0  0  0
   10.5355  -17.4000   20.0982 C   0  0  1  0  0  0  0  0  0  0  0  0
   11.3942  -18.0370   19.0595 C   0  0  0  0  0  0  0  0  0  0  0  0
   12.2439  -19.1204   19.5969 C   0  0  0  0  0  0  0  0  0  0  0  0
   13.1857  -18.9986   20.5719 C   0  0  0  0  0  0  0  0  0  0  0  0
   13.7214  -20.2146   20.7571 N   0  0  0  0  0  0  0  0  0  0  0  0
   13.1527  -21.1072   19.9329 C   0  0  0  0  0  0  0  0  0  0  0  0
   12.2402  -20.4282   19.2172 N   0  0  0  0  0  0  0  0  0  0  0  0
   11.3104  -16.9555   21.3074 C   0  0  0  0  0  0  0  0  0  0  0  0
   11.8590  -15.8293   21.2603 O   0  0  0  0  0  0  0  0  0  0  0  0
   12.5913  -15.2440   25.5421 N   0  0  0  0  0  0  0  0  0  0  0  0
   11.4318  -16.0797   25.7402 C   0  0  0  0  0  0  0  0  0  0  0  0
   10.7835  -15.8049   26.7855 O   0  0  0  0  0  0  0  0  0  0  0  0
   11.0827  -17.1337   24.7896 C   0  0  0  0  0  0  0  0  0  0  0  0
   12.0415  -17.2156   23.6532 C   0  0  2  0  0  0  0  0  0  0  0  0
   11.4198  -17.7708   22.4562 N   0  0  0  0  0  0  0  0  0  0  0  0
   13.2472  -17.9762   23.9929 C   0  0  0  0  0  0  0  0  0  0  0  0
   14.3538  -17.5185   24.6473 O   0  0  0  0  0  0  0  0  0  0  0  0
   13.2770  -19.2071   23.6413 O   0  0  0  0  0  0  0  0  0  0  0  0
  2  1  1  6
  2  3  1  0
  4  2  1  0
  4  5  1  1
  6  4  1  0
  7  6  2  0
  8  6  1  0
  9  8  1  0
  9 10  1  6
 10 11  1  0
 11 12  2  0
 12 13  1  0
 14 13  1  0
 15 11  1  0
 15 14  2  0
 16 23  1  0
 16  9  1  0
 17 16  2  0
 19 18  1  0
 19 20  2  0
 22 21  1  1
 21 19  1  0
 22 24  1  0
 22 23  1  0
 24 25  1  0
 26 24  2  0
M  END
$$$$
