VHN.pdb
     RDKit          3D

 26 26  0  0  1  0  0  0  0  0999 V2000
    9.5260  -12.3709   20.2357 C   0  0  0  0  0  0  0  0  0  0  0  0
    8.4283  -13.1733   19.5543 C   0  0  1  0  0  0  0  0  0  0  0  0
    7.3375  -12.2568   19.0592 C   0  0  0  0  0  0  0  0  0  0  0  0
    8.9551  -14.0317   18.4518 C   0  0  2  0  0  0  0  0  0  0  0  0
    7.8645  -14.7155   17.8211 N   0  0  0  0  0  0  0  0  0  0  0  0
   10.0056  -14.9770   18.9094 C   0  0  0  0  0  0  0  0  0  0  0  0
    9.6740  -16.0309   19.5069 O   0  0  0  0  0  0  0  0  0  0  0  0
   11.3802  -14.6970   18.6763 N   0  0  0  0  0  0  0  0  0  0  0  0
   12.4886  -15.4684   19.1514 C   0  0  1  0  0  0  0  0  0  0  0  0
   13.7048  -15.3916   18.2929 C   0  0  0  0  0  0  0  0  0  0  0  0
   13.5227  -16.0338   16.9741 C   0  0  0  0  0  0  0  0  0  0  0  0
   13.1704  -17.3291   16.7493 C   0  0  0  0  0  0  0  0  0  0  0  0
   13.1170  -17.4984   15.4195 N   0  0  0  0  0  0  0  0  0  0  0  0
   13.4234  -16.3546   14.7892 C   0  0  0  0  0  0  0  0  0  0  0  0
   13.6736  -15.4513   15.7523 N   0  0  0  0  0  0  0  0  0  0  0  0
   12.7857  -15.2534   20.6093 C   0  0  0  0  0  0  0  0  0  0  0  0
   12.5992  -14.1040   21.0737 O   0  0  0  0  0  0  0  0  0  0  0  0
   10.9230  -15.7073   25.2185 N   0  0  0  0  0  0  0  0  0  0  0  0
   10.7833  -16.7281   24.2081 C   0  0  0  0  0  0  0  0  0  0  0  0
   10.2052  -17.7699   24.6190 O   0  0  0  0  0  0  0  0  0  0  0  0
   11.2818  -16.5261   22.8490 C   0  0  0  0  0  0  0  0  0  0  0  0
   12.7643  -16.3960   22.8000 C   0  0  2  0  0  0  0  0  0  0  0  0
   13.2570  -16.3024   21.4303 N   0  0  0  0  0  0  0  0  0  0  0  0
   13.4447  -17.4851   23.5061 C   0  0  0  0  0  0  0  0  0  0  0  0
   14.7227  -17.9225   23.3116 O   0  0  0  0  0  0  0  0  0  0  0  0
   12.7758  -18.1017   24.4071 O   0  0  0  0  0  0  0  0  0  0  0  0
  2  1  1  6
  2  3  1  0
  4  2  1  0
  4  5  1  1
  6  4  1  0
  7  6  2  0
  8  6  1  0
  9  8  1  0
  9 10  1  6
 10 11  1  0
 11 12  2  0
 12 13  1  0
 14 13  1  0
 15 11  1  0
 15 14  2  0
 16 23  1  0
 16  9  1  0
 17 16  2  0
 19 18  1  0
 19 20  2  0
 22 21  1  6
 21 19  1  0
 22 24  1  0
 22 23  1  0
 24 25  1  0
 26 24  2  0
M  END
$$$$
