VHN.pdb
     RDKit          3D

 26 26  0  0  1  0  0  0  0  0999 V2000
    9.3521  -20.4958   19.6158 C   0  0  0  0  0  0  0  0  0  0  0  0
    9.9635  -19.9513   18.3342 C   0  0  1  0  0  0  0  0  0  0  0  0
    9.5939  -20.8260   17.1623 C   0  0  0  0  0  0  0  0  0  0  0  0
    9.5861  -18.5278   18.0865 C   0  0  2  0  0  0  0  0  0  0  0  0
   10.1131  -18.1112   16.8203 N   0  0  0  0  0  0  0  0  0  0  0  0
   10.0096  -17.6204   19.1836 C   0  0  0  0  0  0  0  0  0  0  0  0
   11.2248  -17.3315   19.3155 O   0  0  0  0  0  0  0  0  0  0  0  0
    9.0507  -17.0783   20.0831 N   0  0  0  0  0  0  0  0  0  0  0  0
    9.3259  -16.1913   21.1725 C   0  0  1  0  0  0  0  0  0  0  0  0
    8.2537  -15.1899   21.4365 C   0  0  0  0  0  0  0  0  0  0  0  0
    7.9822  -14.3145   20.2770 C   0  0  0  0  0  0  0  0  0  0  0  0
    8.8628  -13.4606   19.6873 C   0  0  0  0  0  0  0  0  0  0  0  0
    8.2150  -12.8617   18.6765 N   0  0  0  0  0  0  0  0  0  0  0  0
    6.9512  -13.3052   18.6022 C   0  0  0  0  0  0  0  0  0  0  0  0
    6.8102  -14.2028   19.5924 N   0  0  0  0  0  0  0  0  0  0  0  0
    9.7877  -16.8974   22.4168 C   0  0  0  0  0  0  0  0  0  0  0  0
    8.9609  -17.6348   23.0034 O   0  0  0  0  0  0  0  0  0  0  0  0
   13.5069  -20.4189   24.5796 N   0  0  0  0  0  0  0  0  0  0  0  0
   13.5665  -18.9776   24.6184 C   0  0  0  0  0  0  0  0  0  0  0  0
   14.1595  -18.5235   25.6336 O   0  0  0  0  0  0  0  0  0  0  0  0
   12.9794  -18.1633   23.5560 C   0  0  0  0  0  0  0  0  0  0  0  0
   11.6031  -17.7016   23.8874 C   0  0  2  0  0  0  0  0  0  0  0  0
   11.1020  -16.7406   22.9112 N   0  0  0  0  0  0  0  0  0  0  0  0
   11.5118  -17.1406   25.2382 C   0  0  0  0  0  0  0  0  0  0  0  0
   11.4721  -17.8288   26.4160 O   0  0  0  0  0  0  0  0  0  0  0  0
   11.4629  -15.8648   25.3363 O   0  0  0  0  0  0  0  0  0  0  0  0
  2  1  1  1
  2  3  1  0
  4  2  1  0
  4  5  1  6
  6  4  1  0
  7  6  2  0
  8  6  1  0
  9  8  1  0
  9 10  1  1
 10 11  1  0
 11 12  2  0
 12 13  1  0
 14 13  1  0
 15 11  1  0
 15 14  2  0
 16 23  1  0
 16  9  1  0
 17 16  2  0
 19 18  1  0
 19 20  2  0
 22 21  1  6
 21 19  1  0
 22 24  1  0
 22 23  1  0
 24 25  1  0
 26 24  2  0
M  END
$$$$
