VHN.pdb
     RDKit          3D

 26 26  0  0  1  0  0  0  0  0999 V2000
    8.2641  -14.6054   17.5888 C   0  0  0  0  0  0  0  0  0  0  0  0
    8.4927  -13.9415   18.9378 C   0  0  1  0  0  0  0  0  0  0  0  0
    7.2846  -13.1313   19.3366 C   0  0  0  0  0  0  0  0  0  0  0  0
    8.8578  -14.9262   19.9994 C   0  0  2  0  0  0  0  0  0  0  0  0
    7.8974  -15.9903   20.0093 N   0  0  0  0  0  0  0  0  0  0  0  0
    9.0005  -14.3020   21.3397 C   0  0  0  0  0  0  0  0  0  0  0  0
   10.0210  -13.6174   21.5997 O   0  0  0  0  0  0  0  0  0  0  0  0
    7.9922  -14.4743   22.3276 N   0  0  0  0  0  0  0  0  0  0  0  0
    8.0158  -13.9417   23.6562 C   0  0  1  0  0  0  0  0  0  0  0  0
    6.6899  -13.9277   24.3372 C   0  0  0  0  0  0  0  0  0  0  0  0
    6.6825  -13.1141   25.5711 C   0  0  0  0  0  0  0  0  0  0  0  0
    7.6573  -12.2555   25.9771 C   0  0  0  0  0  0  0  0  0  0  0  0
    7.2563  -11.7259   27.1427 N   0  0  0  0  0  0  0  0  0  0  0  0
    6.0587  -12.2180   27.4932 C   0  0  0  0  0  0  0  0  0  0  0  0
    5.7066  -13.0756   26.5202 N   0  0  0  0  0  0  0  0  0  0  0  0
    9.1085  -14.5187   24.5125 C   0  0  0  0  0  0  0  0  0  0  0  0
    9.1884  -14.1155   25.6968 O   0  0  0  0  0  0  0  0  0  0  0  0
   11.4114  -18.4466   26.7020 N   0  0  0  0  0  0  0  0  0  0  0  0
   10.0490  -18.4946   26.2288 C   0  0  0  0  0  0  0  0  0  0  0  0
    9.4033  -19.4924   26.6481 O   0  0  0  0  0  0  0  0  0  0  0  0
    9.5135  -17.4594   25.3468 C   0  0  0  0  0  0  0  0  0  0  0  0
   10.5525  -16.4817   24.9202 C   0  0  2  0  0  0  0  0  0  0  0  0
   10.0139  -15.4790   24.0080 N   0  0  0  0  0  0  0  0  0  0  0  0
   11.7198  -17.1331   24.3195 C   0  0  0  0  0  0  0  0  0  0  0  0
   12.2421  -16.9083   23.0789 O   0  0  0  0  0  0  0  0  0  0  0  0
   12.3241  -18.0122   25.0276 O   0  0  0  0  0  0  0  0  0  0  0  0
  2  1  1  6
  2  3  1  0
  4  2  1  0
  4  5  1  1
  6  4  1  0
  7  6  2  0
  8  6  1  0
  9  8  1  0
  9 10  1  1
 10 11  1  0
 11 12  2  0
 12 13  1  0
 14 13  1  0
 15 11  1  0
 15 14  2  0
 16 23  1  0
 16  9  1  0
 17 16  2  0
 19 18  1  0
 19 20  2  0
 22 21  1  6
 21 19  1  0
 22 24  1  0
 22 23  1  0
 24 25  1  0
 26 24  2  0
M  END
$$$$
