VHN.pdb
     RDKit          3D

 26 26  0  0  1  0  0  0  0  0999 V2000
    7.3072  -18.4103   20.9984 C   0  0  0  0  0  0  0  0  0  0  0  0
    8.3353  -17.9691   19.9682 C   0  0  1  0  0  0  0  0  0  0  0  0
    8.0001  -18.5403   18.6131 C   0  0  0  0  0  0  0  0  0  0  0  0
    8.4767  -16.4837   19.9089 C   0  0  2  0  0  0  0  0  0  0  0  0
    9.4281  -16.1384   18.8940 N   0  0  0  0  0  0  0  0  0  0  0  0
    8.8318  -15.8860   21.2216 C   0  0  0  0  0  0  0  0  0  0  0  0
    9.9943  -16.0307   21.6748 O   0  0  0  0  0  0  0  0  0  0  0  0
    7.8670  -15.1534   21.9663 N   0  0  0  0  0  0  0  0  0  0  0  0
    8.0405  -14.6366   23.2899 C   0  0  1  0  0  0  0  0  0  0  0  0
    6.9713  -13.6947   23.7278 C   0  0  0  0  0  0  0  0  0  0  0  0
    7.1515  -13.2210   25.1162 C   0  0  0  0  0  0  0  0  0  0  0  0
    6.2411  -13.3109   26.1239 C   0  0  0  0  0  0  0  0  0  0  0  0
    6.8023  -12.7638   27.2127 N   0  0  0  0  0  0  0  0  0  0  0  0
    8.0398  -12.3282   26.9329 C   0  0  0  0  0  0  0  0  0  0  0  0
    8.2529  -12.6120   25.6368 N   0  0  0  0  0  0  0  0  0  0  0  0
    8.3414  -15.6977   24.3116 C   0  0  0  0  0  0  0  0  0  0  0  0
    7.5461  -16.6632   24.3934 O   0  0  0  0  0  0  0  0  0  0  0  0
   11.1338  -20.0059   26.0238 N   0  0  0  0  0  0  0  0  0  0  0  0
   11.3768  -18.6165   26.3290 C   0  0  0  0  0  0  0  0  0  0  0  0
   11.9863  -18.4375   27.4176 O   0  0  0  0  0  0  0  0  0  0  0  0
   10.9379  -17.5521   25.4286 C   0  0  0  0  0  0  0  0  0  0  0  0
    9.8095  -16.7600   25.9912 C   0  0  2  0  0  0  0  0  0  0  0  0
    9.4757  -15.6159   25.1502 N   0  0  0  0  0  0  0  0  0  0  0  0
   10.0672  -16.3170   27.3641 C   0  0  0  0  0  0  0  0  0  0  0  0
    9.8108  -17.0049   28.5145 O   0  0  0  0  0  0  0  0  0  0  0  0
   10.5904  -15.1578   27.5129 O   0  0  0  0  0  0  0  0  0  0  0  0
  2  1  1  1
  2  3  1  0
  4  2  1  0
  4  5  1  6
  6  4  1  0
  7  6  2  0
  8  6  1  0
  9  8  1  0
  9 10  1  1
 10 11  1  0
 11 12  2  0
 12 13  1  0
 14 13  1  0
 15 11  1  0
 15 14  2  0
 16 23  1  0
 16  9  1  0
 17 16  2  0
 19 18  1  0
 19 20  2  0
 22 21  1  6
 21 19  1  0
 22 24  1  0
 22 23  1  0
 24 25  1  0
 26 24  2  0
M  END
$$$$
