IYT.pdb
     RDKit          3D

 28 28  0  0  1  0  0  0  0  0999 V2000
    6.9697  -16.0226   16.9410 C   0  0  0  0  0  0  0  0  0  0  0  0
    6.8738  -14.8411   17.8681 C   0  0  0  0  0  0  0  0  0  0  0  0
    7.7462  -15.0167   19.0958 C   0  0  2  0  0  0  0  0  0  0  0  0
    7.5496  -16.3468   19.7567 C   0  0  0  0  0  0  0  0  0  0  0  0
    7.5039  -13.8515   19.9992 C   0  0  2  0  0  0  0  0  0  0  0  0
    7.7264  -12.6341   19.2428 N   0  0  0  0  0  0  0  0  0  0  0  0
    8.3345  -13.8923   21.2293 C   0  0  0  0  0  0  0  0  0  0  0  0
    9.5573  -13.6040   21.1595 O   0  0  0  0  0  0  0  0  0  0  0  0
    9.9840  -15.2188   30.0103 O   0  0  0  0  0  0  0  0  0  0  0  0
    9.4769  -14.8874   28.7579 C   0  0  0  0  0  0  0  0  0  0  0  0
    9.6717  -13.6407   28.2006 C   0  0  0  0  0  0  0  0  0  0  0  0
    9.1507  -13.3561   26.9561 C   0  0  0  0  0  0  0  0  0  0  0  0
    8.4277  -14.2614   26.2120 C   0  0  0  0  0  0  0  0  0  0  0  0
    7.8747  -13.9546   24.8868 C   0  0  0  0  0  0  0  0  0  0  0  0
    8.6898  -14.3273   23.7062 C   0  0  2  0  0  0  0  0  0  0  0  0
    7.8269  -14.2416   22.4969 N   0  0  0  0  0  0  0  0  0  0  0  0
    9.3297  -15.6182   23.6552 C   0  0  0  0  0  0  0  0  0  0  0  0
    8.6222  -16.6587   23.3780 O   0  0  0  0  0  0  0  0  0  0  0  0
    8.2439  -15.5129   26.7949 C   0  0  0  0  0  0  0  0  0  0  0  0
    8.7558  -15.8242   28.0414 C   0  0  0  0  0  0  0  0  0  0  0  0
   13.0210  -18.7531   22.9046 C   0  0  0  0  0  0  0  0  0  0  0  0
   12.4560  -17.3499   22.9114 C   0  0  1  0  0  0  0  0  0  0  0  0
   12.0924  -17.0579   21.5902 O   0  0  0  0  0  0  0  0  0  0  0  0
   11.2074  -17.2818   23.7755 C   0  0  2  0  0  0  0  0  0  0  0  0
   10.7063  -15.9328   23.8720 N   0  0  0  0  0  0  0  0  0  0  0  0
   11.4359  -17.8345   25.1141 C   0  0  0  0  0  0  0  0  0  0  0  0
   11.4513  -19.1819   25.3634 O   0  0  0  0  0  0  0  0  0  0  0  0
   11.6269  -17.0558   26.0839 O   0  0  0  0  0  0  0  0  0  0  0  0
  2  3  1  0
  2  1  1  0
  3  4  1  1
  5  3  1  0
  5  6  1  6
  7  5  1  0
  8  7  2  0
  9 10  1  0
 10 11  2  0
 10 20  1  0
 11 12  1  0
 12 13  2  0
 13 14  1  0
 15 14  1  1
 15 16  1  0
 16  7  1  0
 17 15  1  0
 17 18  2  0
 19 13  1  0
 20 19  2  0
 22 24  1  0
 22 21  1  6
 23 22  1  0
 24 25  1  1
 25 17  1  0
 26 24  1  0
 27 26  1  0
 28 26  2  0
M  END
$$$$
