IYT.pdb
     RDKit          3D

 28 28  0  0  1  0  0  0  0  0999 V2000
    9.0845  -12.7207   28.4615 C   0  0  0  0  0  0  0  0  0  0  0  0
    8.0737  -13.8240   28.3004 C   0  0  0  0  0  0  0  0  0  0  0  0
    7.3641  -13.7463   26.9628 C   0  0  2  0  0  0  0  0  0  0  0  0
    6.2833  -12.7089   26.9433 C   0  0  0  0  0  0  0  0  0  0  0  0
    6.8891  -15.1202   26.6169 C   0  0  2  0  0  0  0  0  0  0  0  0
    7.6530  -16.0762   27.3955 N   0  0  0  0  0  0  0  0  0  0  0  0
    6.9684  -15.4092   25.1627 C   0  0  0  0  0  0  0  0  0  0  0  0
    6.0341  -16.0422   24.6062 O   0  0  0  0  0  0  0  0  0  0  0  0
    8.1735  -13.7282   16.5629 O   0  0  0  0  0  0  0  0  0  0  0  0
    8.0750  -13.7563   17.9504 C   0  0  0  0  0  0  0  0  0  0  0  0
    8.6067  -12.7565   18.7380 C   0  0  0  0  0  0  0  0  0  0  0  0
    8.4853  -12.8255   20.1098 C   0  0  0  0  0  0  0  0  0  0  0  0
    7.8496  -13.8573   20.7634 C   0  0  0  0  0  0  0  0  0  0  0  0
    7.7221  -13.9271   22.2245 C   0  0  0  0  0  0  0  0  0  0  0  0
    8.0573  -15.2155   22.8763 C   0  0  2  0  0  0  0  0  0  0  0  0
    8.0485  -15.0097   24.3501 N   0  0  0  0  0  0  0  0  0  0  0  0
    9.3028  -15.8726   22.5676 C   0  0  0  0  0  0  0  0  0  0  0  0
   10.3439  -15.6108   23.2801 O   0  0  0  0  0  0  0  0  0  0  0  0
    7.3209  -14.8548   19.9477 C   0  0  0  0  0  0  0  0  0  0  0  0
    7.4287  -14.8098   18.5697 C   0  0  0  0  0  0  0  0  0  0  0  0
   12.0389  -19.6019   20.8655 C   0  0  0  0  0  0  0  0  0  0  0  0
   10.6867  -18.9414   21.0182 C   0  0  1  0  0  0  0  0  0  0  0  0
   10.0297  -19.6096   22.0597 O   0  0  0  0  0  0  0  0  0  0  0  0
   10.8471  -17.4827   21.4142 C   0  0  2  0  0  0  0  0  0  0  0  0
    9.5687  -16.8265   21.5379 N   0  0  0  0  0  0  0  0  0  0  0  0
   11.7038  -16.7508   20.4761 C   0  0  0  0  0  0  0  0  0  0  0  0
   13.0068  -16.4349   20.7590 O   0  0  0  0  0  0  0  0  0  0  0  0
   11.2407  -16.3903   19.3630 O   0  0  0  0  0  0  0  0  0  0  0  0
  2  3  1  0
  2  1  1  0
  3  4  1  1
  5  3  1  0
  5  6  1  1
  7  5  1  0
  8  7  2  0
  9 10  1  0
 10 11  2  0
 10 20  1  0
 11 12  1  0
 12 13  2  0
 13 14  1  0
 15 14  1  6
 15 16  1  0
 16  7  1  0
 17 15  1  0
 17 18  2  0
 19 13  1  0
 20 19  2  0
 22 24  1  0
 22 21  1  1
 23 22  1  0
 24 25  1  6
 25 17  1  0
 26 24  1  0
 27 26  1  0
 28 26  2  0
M  END
$$$$
