IYT.pdb
     RDKit          3D

 28 28  0  0  1  0  0  0  0  0999 V2000
    8.7848  -16.3343   15.9058 C   0  0  0  0  0  0  0  0  0  0  0  0
    8.1924  -15.1632   16.6424 C   0  0  0  0  0  0  0  0  0  0  0  0
    8.6422  -15.1227   18.0898 C   0  0  2  0  0  0  0  0  0  0  0  0
    8.4635  -16.4374   18.7858 C   0  0  0  0  0  0  0  0  0  0  0  0
    7.9374  -13.9859   18.7558 C   0  0  2  0  0  0  0  0  0  0  0  0
    8.1586  -12.7881   17.9685 N   0  0  0  0  0  0  0  0  0  0  0  0
    8.3527  -13.7977   20.1689 C   0  0  0  0  0  0  0  0  0  0  0  0
    9.3691  -13.1023   20.4273 O   0  0  0  0  0  0  0  0  0  0  0  0
    7.0608  -12.3782   28.8986 O   0  0  0  0  0  0  0  0  0  0  0  0
    6.9892  -12.7362   27.5561 C   0  0  0  0  0  0  0  0  0  0  0  0
    7.4416  -13.9584   27.1039 C   0  0  0  0  0  0  0  0  0  0  0  0
    7.3507  -14.2709   25.7640 C   0  0  0  0  0  0  0  0  0  0  0  0
    6.8227  -13.4179   24.8209 C   0  0  0  0  0  0  0  0  0  0  0  0
    6.7274  -13.7546   23.3948 C   0  0  0  0  0  0  0  0  0  0  0  0
    7.9936  -14.0242   22.6729 C   0  0  2  0  0  0  0  0  0  0  0  0
    7.6641  -14.3618   21.2616 N   0  0  0  0  0  0  0  0  0  0  0  0
    8.8785  -15.0620   23.1405 C   0  0  0  0  0  0  0  0  0  0  0  0
    9.2363  -15.0710   24.3782 O   0  0  0  0  0  0  0  0  0  0  0  0
    6.3727  -12.1903   25.3007 C   0  0  0  0  0  0  0  0  0  0  0  0
    6.4521  -11.8518   26.6393 C   0  0  0  0  0  0  0  0  0  0  0  0
    8.8193  -19.0430   22.3283 C   0  0  0  0  0  0  0  0  0  0  0  0
   10.2152  -18.4634   22.2667 C   0  0  1  0  0  0  0  0  0  0  0  0
   10.4857  -18.2128   20.9150 O   0  0  0  0  0  0  0  0  0  0  0  0
   10.2784  -17.1436   23.0180 C   0  0  2  0  0  0  0  0  0  0  0  0
    9.4441  -16.1437   22.3982 N   0  0  0  0  0  0  0  0  0  0  0  0
   11.6531  -16.6495   23.1439 C   0  0  0  0  0  0  0  0  0  0  0  0
   12.6307  -17.3473   23.8034 O   0  0  0  0  0  0  0  0  0  0  0  0
   11.9651  -15.5429   22.6325 O   0  0  0  0  0  0  0  0  0  0  0  0
  2  3  1  0
  2  1  1  0
  3  4  1  1
  5  3  1  0
  5  6  1  6
  7  5  1  0
  8  7  2  0
  9 10  1  0
 10 11  2  0
 10 20  1  0
 11 12  1  0
 12 13  2  0
 13 14  1  0
 15 14  1  1
 15 16  1  0
 16  7  1  0
 17 15  1  0
 17 18  2  0
 19 13  1  0
 20 19  2  0
 22 24  1  0
 22 21  1  6
 23 22  1  0
 24 25  1  6
 25 17  1  0
 26 24  1  0
 27 26  1  0
 28 26  2  0
M  END
$$$$
