IYT.pdb
     RDKit          3D

 28 28  0  0  1  0  0  0  0  0999 V2000
    6.6807  -12.3292   18.5157 C   0  0  0  0  0  0  0  0  0  0  0  0
    7.1516  -13.6832   18.9734 C   0  0  0  0  0  0  0  0  0  0  0  0
    7.9686  -13.5939   20.2477 C   0  0  2  0  0  0  0  0  0  0  0  0
    9.1410  -12.6705   20.1168 C   0  0  0  0  0  0  0  0  0  0  0  0
    8.3368  -14.9842   20.6529 C   0  0  2  0  0  0  0  0  0  0  0  0
    7.1178  -15.7591   20.7834 N   0  0  0  0  0  0  0  0  0  0  0  0
    9.1495  -15.0272   21.8948 C   0  0  0  0  0  0  0  0  0  0  0  0
   10.3906  -14.8302   21.8288 O   0  0  0  0  0  0  0  0  0  0  0  0
   10.7357  -15.3944   30.7693 O   0  0  0  0  0  0  0  0  0  0  0  0
   10.2201  -15.2334   29.4872 C   0  0  0  0  0  0  0  0  0  0  0  0
   10.3581  -14.0508   28.7906 C   0  0  0  0  0  0  0  0  0  0  0  0
    9.8309  -13.9361   27.5217 C   0  0  0  0  0  0  0  0  0  0  0  0
    9.1562  -14.9546   26.8863 C   0  0  0  0  0  0  0  0  0  0  0  0
    8.5965  -14.8286   25.5347 C   0  0  0  0  0  0  0  0  0  0  0  0
    9.4358  -15.2925   24.4044 C   0  0  2  0  0  0  0  0  0  0  0  0
    8.6050  -15.2805   23.1699 N   0  0  0  0  0  0  0  0  0  0  0  0
   10.0586  -16.5915   24.4597 C   0  0  0  0  0  0  0  0  0  0  0  0
    9.3350  -17.6425   24.2809 O   0  0  0  0  0  0  0  0  0  0  0  0
    9.0295  -16.1385   27.6089 C   0  0  0  0  0  0  0  0  0  0  0  0
    9.5487  -16.2799   28.8829 C   0  0  0  0  0  0  0  0  0  0  0  0
   13.6492  -19.7958   23.6944 C   0  0  0  0  0  0  0  0  0  0  0  0
   13.1356  -18.3732   23.7204 C   0  0  1  0  0  0  0  0  0  0  0  0
   12.7255  -18.0713   22.4151 O   0  0  0  0  0  0  0  0  0  0  0  0
   11.9289  -18.2584   24.6375 C   0  0  2  0  0  0  0  0  0  0  0  0
   11.4334  -16.9049   24.6895 N   0  0  0  0  0  0  0  0  0  0  0  0
   12.2198  -18.7440   25.9900 C   0  0  0  0  0  0  0  0  0  0  0  0
   12.8427  -17.9702   26.9339 O   0  0  0  0  0  0  0  0  0  0  0  0
   11.8919  -19.9149   26.3139 O   0  0  0  0  0  0  0  0  0  0  0  0
  2  3  1  0
  2  1  1  0
  3  4  1  6
  5  3  1  0
  5  6  1  1
  7  5  1  0
  8  7  2  0
  9 10  1  0
 10 11  2  0
 10 20  1  0
 11 12  1  0
 12 13  2  0
 13 14  1  0
 15 14  1  1
 15 16  1  0
 16  7  1  0
 17 15  1  0
 17 18  2  0
 19 13  1  0
 20 19  2  0
 22 24  1  0
 22 21  1  6
 23 22  1  0
 24 25  1  1
 25 17  1  0
 26 24  1  0
 27 26  1  0
 28 26  2  0
M  END
$$$$
