IYT.pdb
     RDKit          3D

 28 28  0  0  1  0  0  0  0  0999 V2000
    6.7359  -12.3072   18.5839 C   0  0  0  0  0  0  0  0  0  0  0  0
    7.0204  -13.6498   19.2013 C   0  0  0  0  0  0  0  0  0  0  0  0
    7.9863  -13.5409   20.3651 C   0  0  2  0  0  0  0  0  0  0  0  0
    9.2369  -12.7971   20.0082 C   0  0  0  0  0  0  0  0  0  0  0  0
    8.2313  -14.9197   20.8863 C   0  0  2  0  0  0  0  0  0  0  0  0
    6.9482  -15.5620   21.0976 N   0  0  0  0  0  0  0  0  0  0  0  0
    9.0603  -14.9322   22.1180 C   0  0  0  0  0  0  0  0  0  0  0  0
   10.2666  -14.5798   22.0551 O   0  0  0  0  0  0  0  0  0  0  0  0
   10.9676  -15.4873   30.9062 O   0  0  0  0  0  0  0  0  0  0  0  0
   10.3883  -15.3748   29.6463 C   0  0  0  0  0  0  0  0  0  0  0  0
    9.7321  -16.4316   29.0502 C   0  0  0  0  0  0  0  0  0  0  0  0
    9.1726  -16.2748   27.7997 C   0  0  0  0  0  0  0  0  0  0  0  0
    9.2280  -15.0981   27.0868 C   0  0  0  0  0  0  0  0  0  0  0  0
    8.6307  -14.9350   25.7554 C   0  0  0  0  0  0  0  0  0  0  0  0
    9.4326  -15.3787   24.5904 C   0  0  2  0  0  0  0  0  0  0  0  0
    8.5689  -15.3228   23.3800 N   0  0  0  0  0  0  0  0  0  0  0  0
   10.0393  -16.6865   24.5938 C   0  0  0  0  0  0  0  0  0  0  0  0
    9.2883  -17.7269   24.4769 O   0  0  0  0  0  0  0  0  0  0  0  0
    9.8954  -14.0456   27.7085 C   0  0  0  0  0  0  0  0  0  0  0  0
   10.4653  -14.1762   28.9618 C   0  0  0  0  0  0  0  0  0  0  0  0
   11.7453  -18.5632   22.2187 C   0  0  0  0  0  0  0  0  0  0  0  0
   12.6459  -18.7092   23.4252 C   0  0  1  0  0  0  0  0  0  0  0  0
   13.6725  -17.7675   23.2753 O   0  0  0  0  0  0  0  0  0  0  0  0
   11.8853  -18.3861   24.7010 C   0  0  2  0  0  0  0  0  0  0  0  0
   11.4239  -17.0196   24.7077 N   0  0  0  0  0  0  0  0  0  0  0  0
   12.6849  -18.6569   25.8997 C   0  0  0  0  0  0  0  0  0  0  0  0
   13.0541  -19.9235   26.2699 O   0  0  0  0  0  0  0  0  0  0  0  0
   13.0550  -17.7006   26.6291 O   0  0  0  0  0  0  0  0  0  0  0  0
  2  3  1  0
  2  1  1  0
  3  4  1  6
  5  3  1  0
  5  6  1  1
  7  5  1  0
  8  7  2  0
  9 10  1  0
 10 11  2  0
 10 20  1  0
 11 12  1  0
 12 13  2  0
 13 14  1  0
 15 14  1  1
 15 16  1  0
 16  7  1  0
 17 15  1  0
 17 18  2  0
 19 13  1  0
 20 19  2  0
 22 24  1  0
 22 21  1  6
 23 22  1  0
 24 25  1  6
 25 17  1  0
 26 24  1  0
 27 26  1  0
 28 26  2  0
M  END
$$$$
