IYT.pdb
     RDKit          3D

 28 28  0  0  1  0  0  0  0  0999 V2000
    6.8283  -15.6987   17.1601 C   0  0  0  0  0  0  0  0  0  0  0  0
    6.9285  -14.5406   18.1158 C   0  0  0  0  0  0  0  0  0  0  0  0
    7.6560  -14.9235   19.3898 C   0  0  2  0  0  0  0  0  0  0  0  0
    7.0732  -16.1394   20.0429 C   0  0  0  0  0  0  0  0  0  0  0  0
    7.6912  -13.7204   20.2753 C   0  0  2  0  0  0  0  0  0  0  0  0
    8.1836  -12.5979   19.5000 N   0  0  0  0  0  0  0  0  0  0  0  0
    8.4957  -13.9323   21.5052 C   0  0  0  0  0  0  0  0  0  0  0  0
    9.7518  -13.9277   21.4309 O   0  0  0  0  0  0  0  0  0  0  0  0
   10.0558  -15.1038   30.3197 O   0  0  0  0  0  0  0  0  0  0  0  0
    9.5303  -14.8339   29.0601 C   0  0  0  0  0  0  0  0  0  0  0  0
    8.6930  -15.7208   28.4157 C   0  0  0  0  0  0  0  0  0  0  0  0
    8.1953  -15.4117   27.1675 C   0  0  0  0  0  0  0  0  0  0  0  0
    8.4881  -14.2416   26.5034 C   0  0  0  0  0  0  0  0  0  0  0  0
    7.9558  -13.9159   25.1742 C   0  0  0  0  0  0  0  0  0  0  0  0
    8.7541  -14.3383   23.9989 C   0  0  2  0  0  0  0  0  0  0  0  0
    7.9270  -14.1427   22.7775 N   0  0  0  0  0  0  0  0  0  0  0  0
    9.2684  -15.6833   23.9274 C   0  0  0  0  0  0  0  0  0  0  0  0
    8.4770  -16.6402   23.5837 O   0  0  0  0  0  0  0  0  0  0  0  0
    9.3350  -13.3620   27.1733 C   0  0  0  0  0  0  0  0  0  0  0  0
    9.8480  -13.6476   28.4255 C   0  0  0  0  0  0  0  0  0  0  0  0
   12.5748  -19.1220   22.9997 C   0  0  0  0  0  0  0  0  0  0  0  0
   12.0780  -17.6933   23.0139 C   0  0  1  0  0  0  0  0  0  0  0  0
   11.5362  -17.4450   21.7459 O   0  0  0  0  0  0  0  0  0  0  0  0
   10.9747  -17.5224   24.0454 C   0  0  2  0  0  0  0  0  0  0  0  0
   10.5973  -16.1378   24.1889 N   0  0  0  0  0  0  0  0  0  0  0  0
   11.3494  -18.0830   25.3473 C   0  0  0  0  0  0  0  0  0  0  0  0
   11.6037  -19.4170   25.5308 O   0  0  0  0  0  0  0  0  0  0  0  0
   11.4457  -17.3242   26.3464 O   0  0  0  0  0  0  0  0  0  0  0  0
  2  3  1  0
  2  1  1  0
  3  4  1  1
  5  3  1  0
  5  6  1  6
  7  5  1  0
  8  7  2  0
  9 10  1  0
 10 11  2  0
 10 20  1  0
 11 12  1  0
 12 13  2  0
 13 14  1  0
 15 14  1  1
 15 16  1  0
 16  7  1  0
 17 15  1  0
 17 18  2  0
 19 13  1  0
 20 19  2  0
 22 24  1  0
 22 21  1  6
 23 22  1  0
 24 25  1  1
 25 17  1  0
 26 24  1  0
 27 26  1  0
 28 26  2  0
M  END
$$$$
