SHG.pdb
     RDKit          3D

 21 21  0  0  1  0  0  0  0  0999 V2000
   23.5802  -36.8222  -12.1437 O   0  0  0  0  0  0  0  0  0  0  0  0
   24.1942  -35.9808  -11.2323 C   0  0  0  0  0  0  0  0  0  0  0  0
   23.9136  -34.5249  -11.5152 C   0  0  2  0  0  0  0  0  0  0  0  0
   24.6716  -34.1328  -12.6602 N   0  0  0  0  0  0  0  0  0  0  0  0
   24.1672  -33.6671  -10.3290 C   0  0  0  0  0  0  0  0  0  0  0  0
   25.1687  -32.9052  -10.3392 O   0  0  0  0  0  0  0  0  0  0  0  0
   23.3595  -33.6415   -9.1764 N   0  0  0  0  0  0  0  0  0  0  0  0
   23.5297  -32.8364   -8.0109 C   0  0  1  0  0  0  0  0  0  0  0  0
   22.3768  -31.8832   -7.8882 C   0  0  0  0  0  0  0  0  0  0  0  0
   22.3251  -30.7968   -8.8423 C   0  0  0  0  0  0  0  0  0  0  0  0
   23.2907  -30.3110   -9.6755 C   0  0  0  0  0  0  0  0  0  0  0  0
   22.7729  -29.2715  -10.3692 N   0  0  0  0  0  0  0  0  0  0  0  0
   21.5009  -29.1136   -9.9710 C   0  0  0  0  0  0  0  0  0  0  0  0
   21.2170  -30.0310   -9.0463 N   0  0  0  0  0  0  0  0  0  0  0  0
   23.5530  -33.6870   -6.7608 C   0  0  0  0  0  0  0  0  0  0  0  0
   22.9197  -34.7713   -6.7326 O   0  0  0  0  0  0  0  0  0  0  0  0
   24.2750  -33.3001   -5.5998 N   0  0  0  0  0  0  0  0  0  0  0  0
   24.3255  -34.0875   -4.3974 C   0  0  0  0  0  0  0  0  0  0  0  0
   25.5810  -34.8326   -4.2308 C   0  0  0  0  0  0  0  0  0  0  0  0
   26.3419  -34.9338   -5.2209 O   0  0  0  0  0  0  0  0  0  0  0  0
   25.9828  -35.4324   -3.0525 O   0  0  0  0  0  0  0  0  0  0  0  0
  2  3  1  0
  2  1  1  0
  3  4  1  6
  3  5  1  0
  5  6  2  0
  7  5  1  0
  7  8  1  0
  8 15  1  0
  8  9  1  1
 10  9  1  0
 11 10  2  0
 12 13  1  0
 12 11  1  0
 13 14  2  0
 14 10  1  0
 15 16  2  0
 17 15  1  0
 17 18  1  0
 19 21  1  0
 19 18  1  0
 20 19  2  0
M  END
$$$$
