SHG.pdb
     RDKit          3D

 21 21  0  0  1  0  0  0  0  0999 V2000
   23.1818  -21.4283  -16.1881 O   0  0  0  0  0  0  0  0  0  0  0  0
   23.3881  -20.5570  -15.1327 C   0  0  0  0  0  0  0  0  0  0  0  0
   24.7969  -20.6291  -14.5955 C   0  0  2  0  0  0  0  0  0  0  0  0
   25.1937  -22.0002  -14.5504 N   0  0  0  0  0  0  0  0  0  0  0  0
   24.9299  -19.9425  -13.2847 C   0  0  0  0  0  0  0  0  0  0  0  0
   24.1401  -19.0008  -13.0147 O   0  0  0  0  0  0  0  0  0  0  0  0
   25.8875  -20.2706  -12.3065 N   0  0  0  0  0  0  0  0  0  0  0  0
   25.6862  -20.4042  -10.9004 C   0  0  1  0  0  0  0  0  0  0  0  0
   24.6379  -21.4469  -10.6417 C   0  0  0  0  0  0  0  0  0  0  0  0
   23.2607  -21.0490  -10.8374 C   0  0  0  0  0  0  0  0  0  0  0  0
   22.6039  -19.9238  -10.4308 C   0  0  0  0  0  0  0  0  0  0  0  0
   21.3164  -20.0107  -10.8368 N   0  0  0  0  0  0  0  0  0  0  0  0
   21.1756  -21.1763  -11.4873 C   0  0  0  0  0  0  0  0  0  0  0  0
   22.3458  -21.8149  -11.4948 N   0  0  0  0  0  0  0  0  0  0  0  0
   26.9546  -20.8517  -10.2093 C   0  0  0  0  0  0  0  0  0  0  0  0
   27.0288  -20.8129   -8.9560 O   0  0  0  0  0  0  0  0  0  0  0  0
   28.0823  -21.3213  -10.9350 N   0  0  0  0  0  0  0  0  0  0  0  0
   29.3252  -21.6954  -10.3157 C   0  0  0  0  0  0  0  0  0  0  0  0
   30.4391  -21.8366  -11.2634 C   0  0  0  0  0  0  0  0  0  0  0  0
   30.2284  -21.5568  -12.4663 O   0  0  0  0  0  0  0  0  0  0  0  0
   31.7092  -22.2586  -10.9189 O   0  0  0  0  0  0  0  0  0  0  0  0
  2  3  1  0
  2  1  1  0
  3  4  1  1
  3  5  1  0
  5  6  2  0
  7  5  1  0
  7  8  1  0
  8 15  1  0
  8  9  1  6
 10  9  1  0
 11 10  2  0
 12 13  1  0
 12 11  1  0
 13 14  2  0
 14 10  1  0
 15 16  2  0
 17 15  1  0
 17 18  1  0
 19 21  1  0
 19 18  1  0
 20 19  2  0
M  END
$$$$
