SHG.pdb
     RDKit          3D

 21 21  0  0  1  0  0  0  0  0999 V2000
   17.1744   -8.1546  -18.4913 O   0  0  0  0  0  0  0  0  0  0  0  0
   18.0608   -7.8931  -17.4611 C   0  0  0  0  0  0  0  0  0  0  0  0
   18.6046   -9.1554  -16.8371 C   0  0  2  0  0  0  0  0  0  0  0  0
   17.5133   -9.8939  -16.2868 N   0  0  0  0  0  0  0  0  0  0  0  0
   19.6731   -8.8716  -15.8446 C   0  0  0  0  0  0  0  0  0  0  0  0
   19.8098   -9.6514  -14.8665 O   0  0  0  0  0  0  0  0  0  0  0  0
   20.5582   -7.7794  -15.9165 N   0  0  0  0  0  0  0  0  0  0  0  0
   21.5552   -7.4020  -14.9683 C   0  0  1  0  0  0  0  0  0  0  0  0
   22.8401   -8.1110  -15.2840 C   0  0  0  0  0  0  0  0  0  0  0  0
   22.8202   -9.5561  -15.2176 C   0  0  0  0  0  0  0  0  0  0  0  0
   22.6119  -10.4791  -16.2012 C   0  0  0  0  0  0  0  0  0  0  0  0
   22.6703  -11.7125  -15.6487 N   0  0  0  0  0  0  0  0  0  0  0  0
   22.9116  -11.5569  -14.3375 C   0  0  0  0  0  0  0  0  0  0  0  0
   23.0045  -10.2556  -14.0633 N   0  0  0  0  0  0  0  0  0  0  0  0
   21.8280   -5.9158  -15.0282 C   0  0  0  0  0  0  0  0  0  0  0  0
   21.9686   -5.3520  -16.1418 O   0  0  0  0  0  0  0  0  0  0  0  0
   21.9329   -5.1213  -13.8548 N   0  0  0  0  0  0  0  0  0  0  0  0
   22.1876   -3.7061  -13.8746 C   0  0  0  0  0  0  0  0  0  0  0  0
   20.9770   -2.8897  -14.0392 C   0  0  0  0  0  0  0  0  0  0  0  0
   19.8766   -3.4806  -14.1367 O   0  0  0  0  0  0  0  0  0  0  0  0
   20.9676   -1.5088  -14.0942 O   0  0  0  0  0  0  0  0  0  0  0  0
  2  3  1  0
  2  1  1  0
  3  4  1  1
  3  5  1  0
  5  6  2  0
  7  5  1  0
  7  8  1  0
  8 15  1  0
  8  9  1  6
 10  9  1  0
 11 10  2  0
 12 13  1  0
 12 11  1  0
 13 14  2  0
 14 10  1  0
 15 16  2  0
 17 15  1  0
 17 18  1  0
 19 21  1  0
 19 18  1  0
 20 19  2  0
M  END
$$$$
