SHG.pdb
     RDKit          3D

 21 21  0  0  1  0  0  0  0  0999 V2000
   14.5855   -5.1227   -8.5018 O   0  0  0  0  0  0  0  0  0  0  0  0
   15.8518   -5.1230   -7.9434 C   0  0  0  0  0  0  0  0  0  0  0  0
   16.9029   -4.6209   -8.9035 C   0  0  2  0  0  0  0  0  0  0  0  0
   16.5449   -3.3014   -9.3159 N   0  0  0  0  0  0  0  0  0  0  0  0
   17.1064   -5.5509  -10.0441 C   0  0  0  0  0  0  0  0  0  0  0  0
   16.6124   -5.2509  -11.1619 O   0  0  0  0  0  0  0  0  0  0  0  0
   17.8212   -6.7612   -9.9681 N   0  0  0  0  0  0  0  0  0  0  0  0
   17.9156   -7.7812  -10.9612 C   0  0  1  0  0  0  0  0  0  0  0  0
   19.3597   -8.0348  -11.2826 C   0  0  0  0  0  0  0  0  0  0  0  0
   20.0276   -7.0482  -12.1034 C   0  0  0  0  0  0  0  0  0  0  0  0
   19.5328   -5.9347  -12.7183 C   0  0  0  0  0  0  0  0  0  0  0  0
   20.5413   -5.3345  -13.3910 N   0  0  0  0  0  0  0  0  0  0  0  0
   21.6491   -6.0670  -13.1962 C   0  0  0  0  0  0  0  0  0  0  0  0
   21.3517   -7.1079  -12.4181 N   0  0  0  0  0  0  0  0  0  0  0  0
   17.3241   -9.0811  -10.4638 C   0  0  0  0  0  0  0  0  0  0  0  0
   17.3944   -9.3716   -9.2439 O   0  0  0  0  0  0  0  0  0  0  0  0
   16.6824   -9.9997  -11.3375 N   0  0  0  0  0  0  0  0  0  0  0  0
   16.1750  -11.2766  -10.9131 C   0  0  0  0  0  0  0  0  0  0  0  0
   14.7145  -11.3097  -10.7549 C   0  0  0  0  0  0  0  0  0  0  0  0
   14.0812  -10.2392  -10.9051 O   0  0  0  0  0  0  0  0  0  0  0  0
   13.9873  -12.4447  -10.4505 O   0  0  0  0  0  0  0  0  0  0  0  0
  2  3  1  0
  2  1  1  0
  3  4  1  6
  3  5  1  0
  5  6  2  0
  7  5  1  0
  7  8  1  0
  8 15  1  0
  8  9  1  1
 10  9  1  0
 11 10  2  0
 12 13  1  0
 12 11  1  0
 13 14  2  0
 14 10  1  0
 15 16  2  0
 17 15  1  0
 17 18  1  0
 19 21  1  0
 19 18  1  0
 20 19  2  0
M  END
$$$$
