SHG.pdb
     RDKit          3D

 21 21  0  0  1  0  0  0  0  0999 V2000
   23.6214  -11.4971  -19.8347 O   0  0  0  0  0  0  0  0  0  0  0  0
   22.6372  -10.8543  -19.1042 C   0  0  0  0  0  0  0  0  0  0  0  0
   23.1106   -9.5384  -18.5362 C   0  0  2  0  0  0  0  0  0  0  0  0
   24.3290   -9.7647  -17.8265 N   0  0  0  0  0  0  0  0  0  0  0  0
   22.0681   -8.8817  -17.7060 C   0  0  0  0  0  0  0  0  0  0  0  0
   20.9564   -8.6169  -18.2329 O   0  0  0  0  0  0  0  0  0  0  0  0
   22.2321   -8.5278  -16.3535 N   0  0  0  0  0  0  0  0  0  0  0  0
   21.3271   -7.7956  -15.5286 C   0  0  1  0  0  0  0  0  0  0  0  0
   20.7367   -8.7122  -14.4970 C   0  0  0  0  0  0  0  0  0  0  0  0
   19.6520   -9.5667  -14.9288 C   0  0  0  0  0  0  0  0  0  0  0  0
   18.9583   -9.5816  -16.1041 C   0  0  0  0  0  0  0  0  0  0  0  0
   18.0202  -10.5537  -16.0340 N   0  0  0  0  0  0  0  0  0  0  0  0
   18.1302  -11.1352  -14.8293 C   0  0  0  0  0  0  0  0  0  0  0  0
   19.1148  -10.5468  -14.1499 N   0  0  0  0  0  0  0  0  0  0  0  0
   22.0397   -6.6819  -14.7946 C   0  0  0  0  0  0  0  0  0  0  0  0
   23.2181   -6.8526  -14.3951 O   0  0  0  0  0  0  0  0  0  0  0  0
   21.4170   -5.4311  -14.5361 N   0  0  0  0  0  0  0  0  0  0  0  0
   22.0878   -4.3255  -13.9069 C   0  0  0  0  0  0  0  0  0  0  0  0
   21.2924   -3.0903  -13.8778 C   0  0  0  0  0  0  0  0  0  0  0  0
   20.2083   -3.0728  -14.5054 O   0  0  0  0  0  0  0  0  0  0  0  0
   21.6586   -1.9411  -13.2033 O   0  0  0  0  0  0  0  0  0  0  0  0
  2  3  1  0
  2  1  1  0
  3  4  1  1
  3  5  1  0
  5  6  2  0
  7  5  1  0
  7  8  1  0
  8 15  1  0
  8  9  1  1
 10  9  1  0
 11 10  2  0
 12 13  1  0
 12 11  1  0
 13 14  2  0
 14 10  1  0
 15 16  2  0
 17 15  1  0
 17 18  1  0
 19 21  1  0
 19 18  1  0
 20 19  2  0
M  END
$$$$
