SHG.pdb
     RDKit          3D

 21 21  0  0  1  0  0  0  0  0999 V2000
   46.0320  -10.7729   -8.3686 O   0  0  0  0  0  0  0  0  0  0  0  0
   44.6506  -10.7250   -8.2983 C   0  0  0  0  0  0  0  0  0  0  0  0
   44.1614   -9.7075   -7.2965 C   0  0  2  0  0  0  0  0  0  0  0  0
   44.5952  -10.1086   -5.9964 N   0  0  0  0  0  0  0  0  0  0  0  0
   42.6923   -9.5028   -7.3812 C   0  0  0  0  0  0  0  0  0  0  0  0
   41.9316  -10.4156   -6.9668 O   0  0  0  0  0  0  0  0  0  0  0  0
   42.0770   -8.3470   -7.8980 N   0  0  0  0  0  0  0  0  0  0  0  0
   40.6818   -8.1086   -8.0770 C   0  0  1  0  0  0  0  0  0  0  0  0
   40.2081   -7.1174   -7.0541 C   0  0  0  0  0  0  0  0  0  0  0  0
   38.7901   -6.8307   -7.0322 C   0  0  0  0  0  0  0  0  0  0  0  0
   37.7665   -7.4007   -7.7323 C   0  0  0  0  0  0  0  0  0  0  0  0
   36.6149   -6.7819   -7.3848 N   0  0  0  0  0  0  0  0  0  0  0  0
   36.9201   -5.8387   -6.4799 C   0  0  0  0  0  0  0  0  0  0  0  0
   38.2344   -5.8577   -6.2575 N   0  0  0  0  0  0  0  0  0  0  0  0
   40.4007   -7.5237   -9.4429 C   0  0  0  0  0  0  0  0  0  0  0  0
   41.1234   -6.5964   -9.8848 O   0  0  0  0  0  0  0  0  0  0  0  0
   39.3340   -7.9907  -10.2572 N   0  0  0  0  0  0  0  0  0  0  0  0
   39.0340   -7.4538  -11.5572 C   0  0  0  0  0  0  0  0  0  0  0  0
   38.2225   -6.2294  -11.5184 C   0  0  0  0  0  0  0  0  0  0  0  0
   37.9408   -5.7446  -10.3980 O   0  0  0  0  0  0  0  0  0  0  0  0
   37.7461   -5.5722  -12.6368 O   0  0  0  0  0  0  0  0  0  0  0  0
  2  3  1  0
  2  1  1  0
  3  4  1  1
  3  5  1  0
  5  6  2  0
  7  5  1  0
  7  8  1  0
  8 15  1  0
  8  9  1  1
 10  9  1  0
 11 10  2  0
 12 13  1  0
 12 11  1  0
 13 14  2  0
 14 10  1  0
 15 16  2  0
 17 15  1  0
 17 18  1  0
 19 21  1  0
 19 18  1  0
 20 19  2  0
M  END
$$$$
