SHG.pdb
     RDKit          3D

 21 21  0  0  1  0  0  0  0  0999 V2000
   18.2708  -12.6196  -16.2237 O   0  0  0  0  0  0  0  0  0  0  0  0
   19.3809  -11.9791  -15.7011 C   0  0  0  0  0  0  0  0  0  0  0  0
   19.0608  -10.5912  -15.2015 C   0  0  2  0  0  0  0  0  0  0  0  0
   18.4067   -9.8736  -16.2486 N   0  0  0  0  0  0  0  0  0  0  0  0
   20.2657   -9.8930  -14.6836 C   0  0  0  0  0  0  0  0  0  0  0  0
   20.8727  -10.3885  -13.6989 O   0  0  0  0  0  0  0  0  0  0  0  0
   20.7880   -8.7006  -15.2192 N   0  0  0  0  0  0  0  0  0  0  0  0
   21.9167   -7.9594  -14.7584 C   0  0  1  0  0  0  0  0  0  0  0  0
   23.0319   -8.0736  -15.7565 C   0  0  0  0  0  0  0  0  0  0  0  0
   23.7374   -9.3358  -15.8039 C   0  0  0  0  0  0  0  0  0  0  0  0
   23.8020  -10.3426  -14.8847 C   0  0  0  0  0  0  0  0  0  0  0  0
   24.6046  -11.3159  -15.3729 N   0  0  0  0  0  0  0  0  0  0  0  0
   25.0335  -10.9178  -16.5809 C   0  0  0  0  0  0  0  0  0  0  0  0
   24.5157   -9.7201  -16.8539 N   0  0  0  0  0  0  0  0  0  0  0  0
   21.5818   -6.4918  -14.6148 C   0  0  0  0  0  0  0  0  0  0  0  0
   22.4560   -5.6904  -14.2009 O   0  0  0  0  0  0  0  0  0  0  0  0
   20.2966   -5.9775  -14.9351 N   0  0  0  0  0  0  0  0  0  0  0  0
   19.9161   -4.6063  -14.7278 C   0  0  0  0  0  0  0  0  0  0  0  0
   20.3630   -3.7008  -15.7953 C   0  0  0  0  0  0  0  0  0  0  0  0
   21.0557   -4.1800  -16.7227 O   0  0  0  0  0  0  0  0  0  0  0  0
   20.0710   -2.3511  -15.8479 O   0  0  0  0  0  0  0  0  0  0  0  0
  2  3  1  0
  2  1  1  0
  3  4  1  6
  3  5  1  0
  5  6  2  0
  7  5  1  0
  7  8  1  0
  8 15  1  0
  8  9  1  6
 10  9  1  0
 11 10  2  0
 12 13  1  0
 12 11  1  0
 13 14  2  0
 14 10  1  0
 15 16  2  0
 17 15  1  0
 17 18  1  0
 19 21  1  0
 19 18  1  0
 20 19  2  0
M  END
$$$$
