SHG.pdb
     RDKit          3D

 21 21  0  0  1  0  0  0  0  0999 V2000
   16.5744   -7.6836  -17.6692 O   0  0  0  0  0  0  0  0  0  0  0  0
   17.5697   -7.3563  -16.7648 C   0  0  0  0  0  0  0  0  0  0  0  0
   17.8447   -8.4712  -15.7851 C   0  0  2  0  0  0  0  0  0  0  0  0
   16.6789   -8.6666  -14.9839 N   0  0  0  0  0  0  0  0  0  0  0  0
   19.0672   -8.2174  -14.9799 C   0  0  0  0  0  0  0  0  0  0  0  0
   19.1369   -8.7025  -13.8208 O   0  0  0  0  0  0  0  0  0  0  0  0
   20.1707   -7.4636  -15.4221 N   0  0  0  0  0  0  0  0  0  0  0  0
   21.4121   -7.2591  -14.7491 C   0  0  1  0  0  0  0  0  0  0  0  0
   22.5251   -7.8573  -15.5593 C   0  0  0  0  0  0  0  0  0  0  0  0
   22.5127   -9.2948  -15.7223 C   0  0  0  0  0  0  0  0  0  0  0  0
   22.6315  -10.2867  -14.7924 C   0  0  0  0  0  0  0  0  0  0  0  0
   22.5789  -11.4785  -15.4301 N   0  0  0  0  0  0  0  0  0  0  0  0
   22.4296  -11.2293  -16.7406 C   0  0  0  0  0  0  0  0  0  0  0  0
   22.3882   -9.9106  -16.9311 N   0  0  0  0  0  0  0  0  0  0  0  0
   21.7070   -5.7847  -14.5879 C   0  0  0  0  0  0  0  0  0  0  0  0
   22.7175   -5.4184  -13.9380 O   0  0  0  0  0  0  0  0  0  0  0  0
   20.8717   -4.7834  -15.1522 N   0  0  0  0  0  0  0  0  0  0  0  0
   21.0901   -3.3734  -14.9722 C   0  0  0  0  0  0  0  0  0  0  0  0
   22.0452   -2.7962  -15.9280 C   0  0  0  0  0  0  0  0  0  0  0  0
   22.6380   -3.5740  -16.7111 O   0  0  0  0  0  0  0  0  0  0  0  0
   22.3366   -1.4487  -16.0240 O   0  0  0  0  0  0  0  0  0  0  0  0
  2  3  1  0
  2  1  1  0
  3  4  1  1
  3  5  1  0
  5  6  2  0
  7  5  1  0
  7  8  1  0
  8 15  1  0
  8  9  1  6
 10  9  1  0
 11 10  2  0
 12 13  1  0
 12 11  1  0
 13 14  2  0
 14 10  1  0
 15 16  2  0
 17 15  1  0
 17 18  1  0
 19 21  1  0
 19 18  1  0
 20 19  2  0
M  END
$$$$
