DWQ.pdb
     RDKit          3D

 32 33  0  0  1  0  0  0  0  0999 V2000
    9.9856  -16.0709   18.0554 N   0  0  0  0  0  0  0  0  0  0  0  0
    9.8412  -17.0553   19.0888 C   0  0  1  0  0  0  0  0  0  0  0  0
   10.9069  -18.0976   18.9263 C   0  0  0  0  0  0  0  0  0  0  0  0
   10.7261  -18.7053   17.5811 C   0  0  0  0  0  0  0  0  0  0  0  0
   11.3575  -18.3053   16.5631 O   0  0  0  0  0  0  0  0  0  0  0  0
    9.8210  -16.4215   20.4273 C   0  0  0  0  0  0  0  0  0  0  0  0
   10.8661  -15.8343   20.8426 O   0  0  0  0  0  0  0  0  0  0  0  0
    9.8433  -19.7610   17.3575 O   0  0  0  0  0  0  0  0  0  0  0  0
    8.7084  -16.4242   21.2827 N   0  0  0  0  0  0  0  0  0  0  0  0
    8.7286  -15.8579   22.6469 C   0  0  1  0  0  0  0  0  0  0  0  0
    7.3129  -15.5406   22.9589 C   0  0  0  0  0  0  0  0  0  0  0  0
    6.9820  -15.1040   24.3071 C   0  0  0  0  0  0  0  0  0  0  0  0
    6.4193  -15.8621   25.3504 C   0  0  0  0  0  0  0  0  0  0  0  0
    6.2572  -15.0645   26.4083 N   0  0  0  0  0  0  0  0  0  0  0  0
    6.6922  -13.8127   26.0998 C   0  0  0  0  0  0  0  0  0  0  0  0
    6.7450  -12.6551   26.8442 C   0  0  0  0  0  0  0  0  0  0  0  0
    7.2494  -11.4753   26.3190 C   0  0  0  0  0  0  0  0  0  0  0  0
    7.7108  -11.4489   25.0247 C   0  0  0  0  0  0  0  0  0  0  0  0
    7.6481  -12.6175   24.2986 C   0  0  0  0  0  0  0  0  0  0  0  0
    7.1526  -13.8121   24.7853 C   0  0  0  0  0  0  0  0  0  0  0  0
    9.4612  -16.6849   23.5945 C   0  0  0  0  0  0  0  0  0  0  0  0
    9.3199  -17.9344   23.6105 O   0  0  0  0  0  0  0  0  0  0  0  0
   14.9078  -18.0025   24.3182 N   0  0  0  0  0  0  0  0  0  0  0  0
   14.5651  -18.2796   25.6532 C   0  0  0  0  0  0  0  0  0  0  0  0
   15.2776  -19.0446   26.3356 O   0  0  0  0  0  0  0  0  0  0  0  0
   13.3484  -17.6867   26.3266 C   0  0  0  0  0  0  0  0  0  0  0  0
   12.5883  -16.8160   25.3736 C   0  0  0  0  0  0  0  0  0  0  0  0
   11.1291  -17.0444   25.4655 C   0  0  2  0  0  0  0  0  0  0  0  0
   10.3788  -16.1742   24.5625 N   0  0  0  0  0  0  0  0  0  0  0  0
   10.5507  -16.9839   26.8299 C   0  0  0  0  0  0  0  0  0  0  0  0
   10.7301  -18.0630   27.7289 O   0  0  0  0  0  0  0  0  0  0  0  0
    9.8861  -16.0363   27.3027 O   0  0  0  0  0  0  0  0  0  0  0  0
  2  1  1  6
  2  3  1  0
  4  3  1  0
  4  8  1  0
  5  4  2  0
  6  7  2  0
  6  2  1  0
  9  6  1  0
 10  9  1  0
 10 11  1  1
 11 12  1  0
 12 13  2  0
 12 20  1  0
 13 14  1  0
 14 15  1  0
 15 16  2  0
 16 17  1  0
 18 17  2  0
 19 18  1  0
 20 19  2  0
 20 15  1  0
 21 10  1  0
 22 21  2  0
 23 24  1  0
 24 25  2  0
 26 24  1  0
 26 27  1  0
 28 27  1  1
 28 29  1  0
 29 21  1  0
 30 28  1  0
 31 30  1  0
 32 30  2  0
M  END
$$$$
