DWQ.pdb
     RDKit          3D

 32 33  0  0  1  0  0  0  0  0999 V2000
    9.3712  -18.0082   22.8191 N   0  0  0  0  0  0  0  0  0  0  0  0
   10.5314  -17.1647   22.8227 C   0  0  1  0  0  0  0  0  0  0  0  0
   10.4594  -16.2260   21.6555 C   0  0  0  0  0  0  0  0  0  0  0  0
   10.9181  -16.9781   20.4574 C   0  0  0  0  0  0  0  0  0  0  0  0
   11.2917  -18.1833   20.5122 O   0  0  0  0  0  0  0  0  0  0  0  0
   10.6910  -16.4860   24.1295 C   0  0  0  0  0  0  0  0  0  0  0  0
   11.6883  -15.7219   24.3048 O   0  0  0  0  0  0  0  0  0  0  0  0
   10.9649  -16.3972   19.1909 O   0  0  0  0  0  0  0  0  0  0  0  0
    9.8013  -16.6306   25.2053 N   0  0  0  0  0  0  0  0  0  0  0  0
   10.0632  -16.0940   26.5563 C   0  0  1  0  0  0  0  0  0  0  0  0
    8.7263  -15.7726   27.1147 C   0  0  0  0  0  0  0  0  0  0  0  0
    7.7564  -15.1132   26.2533 C   0  0  0  0  0  0  0  0  0  0  0  0
    6.9007  -15.7000   25.3028 C   0  0  0  0  0  0  0  0  0  0  0  0
    6.1954  -14.7295   24.7176 N   0  0  0  0  0  0  0  0  0  0  0  0
    6.5547  -13.5289   25.2476 C   0  0  0  0  0  0  0  0  0  0  0  0
    6.1154  -12.2491   24.9903 C   0  0  0  0  0  0  0  0  0  0  0  0
    6.6236  -11.1549   25.6735 C   0  0  0  0  0  0  0  0  0  0  0  0
    7.5897  -11.3404   26.6333 C   0  0  0  0  0  0  0  0  0  0  0  0
    8.0143  -12.6283   26.8738 C   0  0  0  0  0  0  0  0  0  0  0  0
    7.5337  -13.7436   26.2147 C   0  0  0  0  0  0  0  0  0  0  0  0
   10.9390  -16.9467   27.3465 C   0  0  0  0  0  0  0  0  0  0  0  0
   11.4332  -16.5432   28.4302 O   0  0  0  0  0  0  0  0  0  0  0  0
   10.7315  -21.6646   31.8033 N   0  0  0  0  0  0  0  0  0  0  0  0
   10.6637  -21.7190   30.4001 C   0  0  0  0  0  0  0  0  0  0  0  0
    9.7335  -22.3373   29.8426 O   0  0  0  0  0  0  0  0  0  0  0  0
   11.6828  -21.0522   29.5044 C   0  0  0  0  0  0  0  0  0  0  0  0
   11.0094  -20.1423   28.5232 C   0  0  0  0  0  0  0  0  0  0  0  0
   11.9643  -19.1922   27.9105 C   0  0  2  0  0  0  0  0  0  0  0  0
   11.3077  -18.2769   26.9796 N   0  0  0  0  0  0  0  0  0  0  0  0
   13.1586  -19.7980   27.2729 C   0  0  0  0  0  0  0  0  0  0  0  0
   14.3223  -20.0544   28.0378 O   0  0  0  0  0  0  0  0  0  0  0  0
   13.2605  -20.1263   26.0709 O   0  0  0  0  0  0  0  0  0  0  0  0
  2  1  1  1
  2  3  1  0
  4  3  1  0
  4  8  1  0
  5  4  2  0
  6  7  2  0
  6  2  1  0
  9  6  1  0
 10  9  1  0
 10 11  1  1
 11 12  1  0
 12 13  2  0
 12 20  1  0
 13 14  1  0
 14 15  1  0
 15 16  2  0
 16 17  1  0
 18 17  2  0
 19 18  1  0
 20 19  2  0
 20 15  1  0
 21 10  1  0
 22 21  2  0
 23 24  1  0
 24 25  2  0
 26 24  1  0
 26 27  1  0
 28 27  1  6
 28 29  1  0
 29 21  1  0
 30 28  1  0
 31 30  1  0
 32 30  2  0
M  END
$$$$
