DWQ.pdb
     RDKit          3D

 32 33  0  0  1  0  0  0  0  0999 V2000
    9.4270  -16.8003   19.3469 N   0  0  0  0  0  0  0  0  0  0  0  0
   10.3193  -17.2826   20.3613 C   0  0  1  0  0  0  0  0  0  0  0  0
   11.7218  -17.2626   19.8313 C   0  0  0  0  0  0  0  0  0  0  0  0
   11.7342  -18.0800   18.5890 C   0  0  0  0  0  0  0  0  0  0  0  0
   11.2031  -19.2238   18.5216 O   0  0  0  0  0  0  0  0  0  0  0  0
   10.1445  -16.5293   21.6246 C   0  0  0  0  0  0  0  0  0  0  0  0
   10.5765  -15.3385   21.6922 O   0  0  0  0  0  0  0  0  0  0  0  0
   12.3361  -17.6327   17.4136 O   0  0  0  0  0  0  0  0  0  0  0  0
    9.5236  -17.0487   22.7711 N   0  0  0  0  0  0  0  0  0  0  0  0
    9.3588  -16.2848   24.0247 C   0  0  1  0  0  0  0  0  0  0  0  0
    7.9707  -16.5614   24.4707 C   0  0  0  0  0  0  0  0  0  0  0  0
    7.2189  -15.4868   25.1013 C   0  0  0  0  0  0  0  0  0  0  0  0
    5.8462  -15.4534   25.4086 C   0  0  0  0  0  0  0  0  0  0  0  0
    5.5676  -14.2684   25.9564 N   0  0  0  0  0  0  0  0  0  0  0  0
    6.7044  -13.5234   26.0209 C   0  0  0  0  0  0  0  0  0  0  0  0
    6.9388  -12.2553   26.5048 C   0  0  0  0  0  0  0  0  0  0  0  0
    8.2046  -11.6901   26.4801 C   0  0  0  0  0  0  0  0  0  0  0  0
    9.2587  -12.4040   25.9624 C   0  0  0  0  0  0  0  0  0  0  0  0
    9.0015  -13.6695   25.4839 C   0  0  0  0  0  0  0  0  0  0  0  0
    7.7556  -14.2671   25.4901 C   0  0  0  0  0  0  0  0  0  0  0  0
   10.4344  -16.5173   24.9773 C   0  0  0  0  0  0  0  0  0  0  0  0
   10.8110  -17.6836   25.2594 O   0  0  0  0  0  0  0  0  0  0  0  0
    9.2094  -18.0756   29.1191 N   0  0  0  0  0  0  0  0  0  0  0  0
   10.5716  -18.0765   29.4667 C   0  0  0  0  0  0  0  0  0  0  0  0
   10.9470  -18.6268   30.5225 O   0  0  0  0  0  0  0  0  0  0  0  0
   11.6362  -17.4305   28.6095 C   0  0  0  0  0  0  0  0  0  0  0  0
   11.1264  -16.1600   28.0013 C   0  0  0  0  0  0  0  0  0  0  0  0
   11.9502  -15.7339   26.8482 C   0  0  2  0  0  0  0  0  0  0  0  0
   11.1405  -15.4795   25.6585 N   0  0  0  0  0  0  0  0  0  0  0  0
   13.0918  -16.6178   26.5086 C   0  0  0  0  0  0  0  0  0  0  0  0
   14.0537  -16.9502   27.4932 O   0  0  0  0  0  0  0  0  0  0  0  0
   13.3139  -17.1311   25.3904 O   0  0  0  0  0  0  0  0  0  0  0  0
  2  1  1  6
  2  3  1  0
  4  3  1  0
  4  8  1  0
  5  4  2  0
  6  7  2  0
  6  2  1  0
  9  6  1  0
 10  9  1  0
 10 11  1  1
 11 12  1  0
 12 13  2  0
 12 20  1  0
 13 14  1  0
 14 15  1  0
 15 16  2  0
 16 17  1  0
 18 17  2  0
 19 18  1  0
 20 19  2  0
 20 15  1  0
 21 10  1  0
 22 21  2  0
 23 24  1  0
 24 25  2  0
 26 24  1  0
 26 27  1  0
 28 27  1  1
 28 29  1  0
 29 21  1  0
 30 28  1  0
 31 30  1  0
 32 30  2  0
M  END
$$$$
