DWQ.pdb
     RDKit          3D

 32 33  0  0  1  0  0  0  0  0999 V2000
    8.2646  -17.3748   21.8238 N   0  0  0  0  0  0  0  0  0  0  0  0
    9.2773  -16.3664   21.6995 C   0  0  1  0  0  0  0  0  0  0  0  0
    8.7807  -15.2813   20.7914 C   0  0  0  0  0  0  0  0  0  0  0  0
    8.6761  -15.8634   19.4269 C   0  0  0  0  0  0  0  0  0  0  0  0
    8.9688  -17.0659   19.1757 O   0  0  0  0  0  0  0  0  0  0  0  0
    9.7120  -15.8829   23.0302 C   0  0  0  0  0  0  0  0  0  0  0  0
   10.5713  -14.9518   23.0927 O   0  0  0  0  0  0  0  0  0  0  0  0
    8.2457  -15.1141   18.3327 O   0  0  0  0  0  0  0  0  0  0  0  0
    9.2318  -16.3903   24.2474 N   0  0  0  0  0  0  0  0  0  0  0  0
    9.8148  -16.0456   25.5602 C   0  0  1  0  0  0  0  0  0  0  0  0
    8.6566  -15.9069   26.4775 C   0  0  0  0  0  0  0  0  0  0  0  0
    7.5111  -15.1270   26.0335 C   0  0  0  0  0  0  0  0  0  0  0  0
    6.3197  -15.5928   25.4474 C   0  0  0  0  0  0  0  0  0  0  0  0
    5.5487  -14.5391   25.1699 N   0  0  0  0  0  0  0  0  0  0  0  0
    6.1878  -13.4001   25.5517 C   0  0  0  0  0  0  0  0  0  0  0  0
    5.8111  -12.0768   25.4885 C   0  0  0  0  0  0  0  0  0  0  0  0
    6.6330  -11.0637   25.9579 C   0  0  0  0  0  0  0  0  0  0  0  0
    7.8558  -11.3763   26.5018 C   0  0  0  0  0  0  0  0  0  0  0  0
    8.2122  -12.7056   26.5546 C   0  0  0  0  0  0  0  0  0  0  0  0
    7.4224  -13.7432   26.0974 C   0  0  0  0  0  0  0  0  0  0  0  0
   10.8891  -16.9434   25.9581 C   0  0  0  0  0  0  0  0  0  0  0  0
   11.2825  -16.9964   27.1514 O   0  0  0  0  0  0  0  0  0  0  0  0
   11.0287  -22.4711   23.1235 N   0  0  0  0  0  0  0  0  0  0  0  0
   11.9467  -22.6396   24.1749 C   0  0  0  0  0  0  0  0  0  0  0  0
   12.4267  -23.7675   24.4109 O   0  0  0  0  0  0  0  0  0  0  0  0
   12.3971  -21.4995   25.0596 C   0  0  0  0  0  0  0  0  0  0  0  0
   11.7534  -20.2150   24.6356 C   0  0  0  0  0  0  0  0  0  0  0  0
   12.1599  -19.0853   25.5007 C   0  0  2  0  0  0  0  0  0  0  0  0
   11.5749  -17.8197   25.0627 N   0  0  0  0  0  0  0  0  0  0  0  0
   13.6193  -18.9264   25.7120 C   0  0  0  0  0  0  0  0  0  0  0  0
   14.2809  -17.7561   25.2674 O   0  0  0  0  0  0  0  0  0  0  0  0
   14.3735  -19.7538   26.2686 O   0  0  0  0  0  0  0  0  0  0  0  0
  2  1  1  1
  2  3  1  0
  4  3  1  0
  4  8  1  0
  5  4  2  0
  6  7  2  0
  6  2  1  0
  9  6  1  0
 10  9  1  0
 10 11  1  1
 11 12  1  0
 12 13  2  0
 12 20  1  0
 13 14  1  0
 14 15  1  0
 15 16  2  0
 16 17  1  0
 18 17  2  0
 19 18  1  0
 20 19  2  0
 20 15  1  0
 21 10  1  0
 22 21  2  0
 23 24  1  0
 24 25  2  0
 26 24  1  0
 26 27  1  0
 28 27  1  6
 28 29  1  0
 29 21  1  0
 30 28  1  0
 31 30  1  0
 32 30  2  0
M  END
$$$$
