DWQ.pdb
     RDKit          3D

 32 33  0  0  1  0  0  0  0  0999 V2000
    7.3120  -17.6757   21.0681 N   0  0  0  0  0  0  0  0  0  0  0  0
    8.5216  -17.0863   20.5709 C   0  0  1  0  0  0  0  0  0  0  0  0
    8.1895  -16.1730   19.4290 C   0  0  0  0  0  0  0  0  0  0  0  0
    7.7731  -17.0300   18.2872 C   0  0  0  0  0  0  0  0  0  0  0  0
    6.5655  -17.1666   17.9438 O   0  0  0  0  0  0  0  0  0  0  0  0
    9.2811  -16.4320   21.6613 C   0  0  0  0  0  0  0  0  0  0  0  0
   10.1940  -15.6041   21.3603 O   0  0  0  0  0  0  0  0  0  0  0  0
    8.6946  -17.7409   17.5195 O   0  0  0  0  0  0  0  0  0  0  0  0
    9.0578  -16.6667   23.0268 N   0  0  0  0  0  0  0  0  0  0  0  0
    9.8891  -16.0840   24.0998 C   0  0  1  0  0  0  0  0  0  0  0  0
    9.0502  -16.1485   25.3223 C   0  0  0  0  0  0  0  0  0  0  0  0
    7.7995  -15.4050   25.3438 C   0  0  0  0  0  0  0  0  0  0  0  0
    6.4983  -15.8903   25.1173 C   0  0  0  0  0  0  0  0  0  0  0  0
    5.6471  -14.8661   25.2065 N   0  0  0  0  0  0  0  0  0  0  0  0
    6.3392  -13.7277   25.4834 C   0  0  0  0  0  0  0  0  0  0  0  0
    5.9215  -12.4299   25.6787 C   0  0  0  0  0  0  0  0  0  0  0  0
    6.8185  -11.4131   25.9678 C   0  0  0  0  0  0  0  0  0  0  0  0
    8.1600  -11.6960   26.0644 C   0  0  0  0  0  0  0  0  0  0  0  0
    8.5553  -13.0001   25.8650 C   0  0  0  0  0  0  0  0  0  0  0  0
    7.6933  -14.0404   25.5748 C   0  0  0  0  0  0  0  0  0  0  0  0
   11.2228  -16.6634   24.1633 C   0  0  0  0  0  0  0  0  0  0  0  0
   11.3875  -17.9088   24.2232 O   0  0  0  0  0  0  0  0  0  0  0  0
   16.1554  -14.5192   21.0026 N   0  0  0  0  0  0  0  0  0  0  0  0
   16.6932  -15.5899   21.7381 C   0  0  0  0  0  0  0  0  0  0  0  0
   17.8908  -15.9102   21.5911 O   0  0  0  0  0  0  0  0  0  0  0  0
   15.8794  -16.3969   22.7240 C   0  0  0  0  0  0  0  0  0  0  0  0
   14.5367  -15.7691   22.9405 C   0  0  0  0  0  0  0  0  0  0  0  0
   13.7408  -16.5077   23.9458 C   0  0  2  0  0  0  0  0  0  0  0  0
   12.4298  -15.8998   24.1633 N   0  0  0  0  0  0  0  0  0  0  0  0
   14.4108  -16.7537   25.2460 C   0  0  0  0  0  0  0  0  0  0  0  0
   15.3920  -17.7680   25.3618 O   0  0  0  0  0  0  0  0  0  0  0  0
   14.1962  -16.1333   26.3100 O   0  0  0  0  0  0  0  0  0  0  0  0
  2  1  1  1
  2  3  1  0
  4  3  1  0
  4  8  1  0
  5  4  2  0
  6  7  2  0
  6  2  1  0
  9  6  1  0
 10  9  1  0
 10 11  1  1
 11 12  1  0
 12 13  2  0
 12 20  1  0
 13 14  1  0
 14 15  1  0
 15 16  2  0
 16 17  1  0
 18 17  2  0
 19 18  1  0
 20 19  2  0
 20 15  1  0
 21 10  1  0
 22 21  2  0
 23 24  1  0
 24 25  2  0
 26 24  1  0
 26 27  1  0
 28 27  1  6
 28 29  1  0
 29 21  1  0
 30 28  1  0
 31 30  1  0
 32 30  2  0
M  END
$$$$
