DWQ.pdb
     RDKit          3D

 32 33  0  0  1  0  0  0  0  0999 V2000
    7.4365  -17.8961   21.2039 N   0  0  0  0  0  0  0  0  0  0  0  0
    8.4303  -16.8956   20.9408 C   0  0  1  0  0  0  0  0  0  0  0  0
    7.8152  -15.7940   20.1305 C   0  0  0  0  0  0  0  0  0  0  0  0
    7.4020  -16.3833   18.8292 C   0  0  0  0  0  0  0  0  0  0  0  0
    6.5360  -17.2982   18.7407 O   0  0  0  0  0  0  0  0  0  0  0  0
    9.0651  -16.4340   22.1969 C   0  0  0  0  0  0  0  0  0  0  0  0
    9.8845  -15.4666   22.1492 O   0  0  0  0  0  0  0  0  0  0  0  0
    7.9476  -15.9606   17.6178 O   0  0  0  0  0  0  0  0  0  0  0  0
    8.8195  -17.0003   23.4573 N   0  0  0  0  0  0  0  0  0  0  0  0
    9.4816  -16.5462   24.6972 C   0  0  1  0  0  0  0  0  0  0  0  0
    8.3959  -16.4399   25.7032 C   0  0  0  0  0  0  0  0  0  0  0  0
    7.3677  -15.4288   25.5082 C   0  0  0  0  0  0  0  0  0  0  0  0
    6.0193  -15.6203   25.1546 C   0  0  0  0  0  0  0  0  0  0  0  0
    5.4373  -14.4231   25.0564 N   0  0  0  0  0  0  0  0  0  0  0  0
    6.3513  -13.4536   25.3323 C   0  0  0  0  0  0  0  0  0  0  0  0
    6.2424  -12.0812   25.3736 C   0  0  0  0  0  0  0  0  0  0  0  0
    7.3234  -11.2755   25.6971 C   0  0  0  0  0  0  0  0  0  0  0  0
    8.5381  -11.8499   25.9856 C   0  0  0  0  0  0  0  0  0  0  0  0
    8.6243  -13.2236   25.9379 C   0  0  0  0  0  0  0  0  0  0  0  0
    7.5717  -14.0602   25.6196 C   0  0  0  0  0  0  0  0  0  0  0  0
   10.6486  -17.3442   25.0431 C   0  0  0  0  0  0  0  0  0  0  0  0
   10.5278  -18.5255   25.4573 O   0  0  0  0  0  0  0  0  0  0  0  0
   16.9623  -15.9745   24.4555 N   0  0  0  0  0  0  0  0  0  0  0  0
   16.8933  -17.1352   25.2456 C   0  0  0  0  0  0  0  0  0  0  0  0
   17.9375  -17.6407   25.7066 O   0  0  0  0  0  0  0  0  0  0  0  0
   15.5890  -17.8241   25.5771 C   0  0  0  0  0  0  0  0  0  0  0  0
   14.4277  -17.0421   25.0446 C   0  0  0  0  0  0  0  0  0  0  0  0
   13.1367  -17.6948   25.3565 C   0  0  2  0  0  0  0  0  0  0  0  0
   11.9955  -16.8784   24.9482 N   0  0  0  0  0  0  0  0  0  0  0  0
   12.9643  -18.1477   26.7583 C   0  0  0  0  0  0  0  0  0  0  0  0
   12.6044  -17.2220   27.7675 O   0  0  0  0  0  0  0  0  0  0  0  0
   13.1084  -19.3182   27.1732 O   0  0  0  0  0  0  0  0  0  0  0  0
  2  1  1  1
  2  3  1  0
  4  3  1  0
  4  8  1  0
  5  4  2  0
  6  7  2  0
  6  2  1  0
  9  6  1  0
 10  9  1  0
 10 11  1  1
 11 12  1  0
 12 13  2  0
 12 20  1  0
 13 14  1  0
 14 15  1  0
 15 16  2  0
 16 17  1  0
 18 17  2  0
 19 18  1  0
 20 19  2  0
 20 15  1  0
 21 10  1  0
 22 21  2  0
 23 24  1  0
 24 25  2  0
 26 24  1  0
 26 27  1  0
 28 27  1  1
 28 29  1  0
 29 21  1  0
 30 28  1  0
 31 30  1  0
 32 30  2  0
M  END
$$$$
