DWQ.pdb
     RDKit          3D

 32 33  0  0  1  0  0  0  0  0999 V2000
    9.3173  -16.9737   18.7146 N   0  0  0  0  0  0  0  0  0  0  0  0
   10.5508  -16.9099   19.4441 C   0  0  1  0  0  0  0  0  0  0  0  0
   11.5893  -16.2401   18.5948 C   0  0  0  0  0  0  0  0  0  0  0  0
   11.5630  -16.9027   17.2636 C   0  0  0  0  0  0  0  0  0  0  0  0
   12.5940  -17.4009   16.7309 O   0  0  0  0  0  0  0  0  0  0  0  0
   10.3539  -16.2716   20.7660 C   0  0  0  0  0  0  0  0  0  0  0  0
   11.3693  -15.8537   21.4015 O   0  0  0  0  0  0  0  0  0  0  0  0
   10.3921  -17.0164   16.5155 O   0  0  0  0  0  0  0  0  0  0  0  0
    9.1023  -16.0930   21.3752 N   0  0  0  0  0  0  0  0  0  0  0  0
    8.9331  -15.7253   22.7958 C   0  0  1  0  0  0  0  0  0  0  0  0
    7.5837  -15.1137   22.8828 C   0  0  0  0  0  0  0  0  0  0  0  0
    7.0619  -14.7717   24.1974 C   0  0  0  0  0  0  0  0  0  0  0  0
    6.4393  -15.6207   25.1309 C   0  0  0  0  0  0  0  0  0  0  0  0
    6.0911  -14.8921   26.1938 N   0  0  0  0  0  0  0  0  0  0  0  0
    6.4616  -13.5982   25.9941 C   0  0  0  0  0  0  0  0  0  0  0  0
    6.3358  -12.4795   26.7877 C   0  0  0  0  0  0  0  0  0  0  0  0
    6.8064  -11.2412   26.3786 C   0  0  0  0  0  0  0  0  0  0  0  0
    7.4152  -11.1155   25.1529 C   0  0  0  0  0  0  0  0  0  0  0  0
    7.5300  -12.2467   24.3759 C   0  0  0  0  0  0  0  0  0  0  0  0
    7.0739  -13.4971   24.7472 C   0  0  0  0  0  0  0  0  0  0  0  0
    9.2401  -16.8187   23.7061 C   0  0  0  0  0  0  0  0  0  0  0  0
    9.1986  -18.0152   23.3211 O   0  0  0  0  0  0  0  0  0  0  0  0
   14.3472  -16.9694   23.3100 N   0  0  0  0  0  0  0  0  0  0  0  0
   14.4132  -17.5413   24.5926 C   0  0  0  0  0  0  0  0  0  0  0  0
   15.5036  -17.9567   25.0365 O   0  0  0  0  0  0  0  0  0  0  0  0
   13.2041  -17.6851   25.4886 C   0  0  0  0  0  0  0  0  0  0  0  0
   11.9848  -17.1213   24.8257 C   0  0  0  0  0  0  0  0  0  0  0  0
   10.7763  -17.2917   25.6627 C   0  0  2  0  0  0  0  0  0  0  0  0
    9.6055  -16.6434   25.0757 N   0  0  0  0  0  0  0  0  0  0  0  0
   10.9163  -16.8995   27.0862 C   0  0  0  0  0  0  0  0  0  0  0  0
   11.4153  -17.8247   28.0349 O   0  0  0  0  0  0  0  0  0  0  0  0
   10.6279  -15.7836   27.5706 O   0  0  0  0  0  0  0  0  0  0  0  0
  2  1  1  6
  2  3  1  0
  4  3  1  0
  4  8  1  0
  5  4  2  0
  6  7  2  0
  6  2  1  0
  9  6  1  0
 10  9  1  0
 10 11  1  6
 11 12  1  0
 12 13  2  0
 12 20  1  0
 13 14  1  0
 14 15  1  0
 15 16  2  0
 16 17  1  0
 18 17  2  0
 19 18  1  0
 20 19  2  0
 20 15  1  0
 21 10  1  0
 22 21  2  0
 23 24  1  0
 24 25  2  0
 26 24  1  0
 26 27  1  0
 28 27  1  6
 28 29  1  0
 29 21  1  0
 30 28  1  0
 31 30  1  0
 32 30  2  0
M  END
$$$$
