DWQ.pdb
     RDKit          3D

 32 33  0  0  1  0  0  0  0  0999 V2000
    9.9182  -16.6760   21.2283 N   0  0  0  0  0  0  0  0  0  0  0  0
   10.2792  -17.5463   22.3099 C   0  0  1  0  0  0  0  0  0  0  0  0
   11.6880  -18.0194   22.1101 C   0  0  0  0  0  0  0  0  0  0  0  0
   11.7556  -18.6422   20.7613 C   0  0  0  0  0  0  0  0  0  0  0  0
   10.8460  -19.3948   20.3129 O   0  0  0  0  0  0  0  0  0  0  0  0
   10.0456  -16.8929   23.6185 C   0  0  0  0  0  0  0  0  0  0  0  0
   10.8592  -16.0027   24.0122 O   0  0  0  0  0  0  0  0  0  0  0  0
   12.8334  -18.4334   19.9019 O   0  0  0  0  0  0  0  0  0  0  0  0
    8.9693  -17.1937   24.4674 N   0  0  0  0  0  0  0  0  0  0  0  0
    8.7521  -16.5351   25.7717 C   0  0  1  0  0  0  0  0  0  0  0  0
    7.4031  -15.9236   25.6805 C   0  0  0  0  0  0  0  0  0  0  0  0
    7.2694  -14.6375   25.0129 C   0  0  0  0  0  0  0  0  0  0  0  0
    7.4147  -14.3526   23.6427 C   0  0  0  0  0  0  0  0  0  0  0  0
    7.2345  -13.0420   23.4652 N   0  0  0  0  0  0  0  0  0  0  0  0
    6.9760  -12.4560   24.6657 C   0  0  0  0  0  0  0  0  0  0  0  0
    6.7138  -11.1472   25.0053 C   0  0  0  0  0  0  0  0  0  0  0  0
    6.4615  -10.7728   26.3162 C   0  0  0  0  0  0  0  0  0  0  0  0
    6.4708  -11.7229   27.3092 C   0  0  0  0  0  0  0  0  0  0  0  0
    6.7357  -13.0250   26.9471 C   0  0  0  0  0  0  0  0  0  0  0  0
    6.9922  -13.4377   25.6536 C   0  0  0  0  0  0  0  0  0  0  0  0
    9.0229  -17.4107   26.9024 C   0  0  0  0  0  0  0  0  0  0  0  0
    8.8555  -17.0154   28.0844 O   0  0  0  0  0  0  0  0  0  0  0  0
    7.3687  -23.0024   28.1241 N   0  0  0  0  0  0  0  0  0  0  0  0
    6.7929  -21.7302   27.9615 C   0  0  0  0  0  0  0  0  0  0  0  0
    5.5603  -21.6180   27.7988 O   0  0  0  0  0  0  0  0  0  0  0  0
    7.6058  -20.4557   27.9728 C   0  0  0  0  0  0  0  0  0  0  0  0
    9.0663  -20.7612   28.1056 C   0  0  0  0  0  0  0  0  0  0  0  0
    9.8984  -19.5489   27.9384 C   0  0  2  0  0  0  0  0  0  0  0  0
    9.4878  -18.7558   26.7817 N   0  0  0  0  0  0  0  0  0  0  0  0
   11.3645  -19.7710   27.9099 C   0  0  0  0  0  0  0  0  0  0  0  0
   12.2113  -19.0555   28.7909 O   0  0  0  0  0  0  0  0  0  0  0  0
   11.9714  -20.5616   27.1551 O   0  0  0  0  0  0  0  0  0  0  0  0
  2  1  1  6
  2  3  1  0
  4  3  1  0
  4  8  1  0
  5  4  2  0
  6  7  2  0
  6  2  1  0
  9  6  1  0
 10  9  1  0
 10 11  1  6
 11 12  1  0
 12 13  2  0
 12 20  1  0
 13 14  1  0
 14 15  1  0
 15 16  2  0
 16 17  1  0
 18 17  2  0
 19 18  1  0
 20 19  2  0
 20 15  1  0
 21 10  1  0
 22 21  2  0
 23 24  1  0
 24 25  2  0
 26 24  1  0
 26 27  1  0
 28 27  1  6
 28 29  1  0
 29 21  1  0
 30 28  1  0
 31 30  1  0
 32 30  2  0
M  END
$$$$
