DWQ.pdb
     RDKit          3D

 32 33  0  0  1  0  0  0  0  0999 V2000
    9.1642  -17.6709   20.9395 N   0  0  0  0  0  0  0  0  0  0  0  0
   10.4733  -17.2123   21.3051 C   0  0  1  0  0  0  0  0  0  0  0  0
   10.9271  -16.1823   20.3144 C   0  0  0  0  0  0  0  0  0  0  0  0
   11.1298  -16.8796   19.0166 C   0  0  0  0  0  0  0  0  0  0  0  0
   10.7924  -18.0823   18.8303 O   0  0  0  0  0  0  0  0  0  0  0  0
   10.4995  -16.7456   22.7105 C   0  0  0  0  0  0  0  0  0  0  0  0
   11.5427  -16.1689   23.1448 O   0  0  0  0  0  0  0  0  0  0  0  0
   11.7083  -16.2463   17.9175 O   0  0  0  0  0  0  0  0  0  0  0  0
    9.4336  -16.8983   23.6106 N   0  0  0  0  0  0  0  0  0  0  0  0
    9.4978  -16.4831   25.0268 C   0  0  1  0  0  0  0  0  0  0  0  0
    8.1312  -16.0077   25.3566 C   0  0  0  0  0  0  0  0  0  0  0  0
    7.6448  -14.7971   24.7122 C   0  0  0  0  0  0  0  0  0  0  0  0
    7.3813  -14.5880   23.3459 C   0  0  0  0  0  0  0  0  0  0  0  0
    6.9764  -13.3263   23.1850 N   0  0  0  0  0  0  0  0  0  0  0  0
    6.9635  -12.6997   24.3928 C   0  0  0  0  0  0  0  0  0  0  0  0
    6.6171  -11.4158   24.7516 C   0  0  0  0  0  0  0  0  0  0  0  0
    6.6692  -10.9903   26.0701 C   0  0  0  0  0  0  0  0  0  0  0  0
    7.0751  -11.8628   27.0513 C   0  0  0  0  0  0  0  0  0  0  0  0
    7.4172  -13.1412   26.6699 C   0  0  0  0  0  0  0  0  0  0  0  0
    7.3791  -13.6028   25.3681 C   0  0  0  0  0  0  0  0  0  0  0  0
   10.0883  -17.4957   25.8895 C   0  0  0  0  0  0  0  0  0  0  0  0
   10.1549  -17.3295   27.1344 O   0  0  0  0  0  0  0  0  0  0  0  0
   15.4386  -20.3098   25.1898 N   0  0  0  0  0  0  0  0  0  0  0  0
   14.9253  -20.9320   26.3412 C   0  0  0  0  0  0  0  0  0  0  0  0
   15.6655  -21.6466   27.0483 O   0  0  0  0  0  0  0  0  0  0  0  0
   13.4874  -20.7799   26.7826 C   0  0  0  0  0  0  0  0  0  0  0  0
   12.7408  -19.8763   25.8499 C   0  0  0  0  0  0  0  0  0  0  0  0
   11.3481  -19.6539   26.2981 C   0  0  2  0  0  0  0  0  0  0  0  0
   10.6293  -18.7318   25.4213 N   0  0  0  0  0  0  0  0  0  0  0  0
   11.1832  -19.2443   27.7140 C   0  0  0  0  0  0  0  0  0  0  0  0
   11.7026  -18.0060   28.1633 O   0  0  0  0  0  0  0  0  0  0  0  0
   10.6059  -19.9043   28.6053 O   0  0  0  0  0  0  0  0  0  0  0  0
  2  1  1  6
  2  3  1  0
  4  3  1  0
  4  8  1  0
  5  4  2  0
  6  7  2  0
  6  2  1  0
  9  6  1  0
 10  9  1  0
 10 11  1  1
 11 12  1  0
 12 13  2  0
 12 20  1  0
 13 14  1  0
 14 15  1  0
 15 16  2  0
 16 17  1  0
 18 17  2  0
 19 18  1  0
 20 19  2  0
 20 15  1  0
 21 10  1  0
 22 21  2  0
 23 24  1  0
 24 25  2  0
 26 24  1  0
 26 27  1  0
 28 27  1  6
 28 29  1  0
 29 21  1  0
 30 28  1  0
 31 30  1  0
 32 30  2  0
M  END
$$$$
