DWQ.pdb
     RDKit          3D

 32 33  0  0  1  0  0  0  0  0999 V2000
    9.8283  -17.7178   21.4714 N   0  0  0  0  0  0  0  0  0  0  0  0
   10.9205  -16.8401   21.7786 C   0  0  1  0  0  0  0  0  0  0  0  0
   10.9446  -15.7192   20.7829 C   0  0  0  0  0  0  0  0  0  0  0  0
   11.4226  -16.2863   19.4939 C   0  0  0  0  0  0  0  0  0  0  0  0
   11.2759  -17.5031   19.1896 O   0  0  0  0  0  0  0  0  0  0  0  0
   10.8596  -16.3893   23.1882 C   0  0  0  0  0  0  0  0  0  0  0  0
   11.7213  -15.5553   23.6020 O   0  0  0  0  0  0  0  0  0  0  0  0
   12.0665  -15.5060   18.5345 O   0  0  0  0  0  0  0  0  0  0  0  0
    9.8994  -16.8266   24.1136 N   0  0  0  0  0  0  0  0  0  0  0  0
    9.8839  -16.4082   25.5302 C   0  0  1  0  0  0  0  0  0  0  0  0
    8.4512  -16.2127   25.8639 C   0  0  0  0  0  0  0  0  0  0  0  0
    7.7300  -15.1297   25.2124 C   0  0  0  0  0  0  0  0  0  0  0  0
    7.2090  -15.0976   23.9057 C   0  0  0  0  0  0  0  0  0  0  0  0
    6.6470  -13.9033   23.7072 N   0  0  0  0  0  0  0  0  0  0  0  0
    6.7785  -13.1507   24.8332 C   0  0  0  0  0  0  0  0  0  0  0  0
    6.3627  -11.8717   25.1303 C   0  0  0  0  0  0  0  0  0  0  0  0
    6.5992  -11.3000   26.3711 C   0  0  0  0  0  0  0  0  0  0  0  0
    7.2640  -12.0184   27.3358 C   0  0  0  0  0  0  0  0  0  0  0  0
    7.6710  -13.2949   27.0170 C   0  0  0  0  0  0  0  0  0  0  0  0
    7.4552  -13.8992   25.7933 C   0  0  0  0  0  0  0  0  0  0  0  0
   10.6652  -17.2849   26.3901 C   0  0  0  0  0  0  0  0  0  0  0  0
   10.7875  -17.0483   27.6192 O   0  0  0  0  0  0  0  0  0  0  0  0
   11.6637  -23.4258   25.6320 N   0  0  0  0  0  0  0  0  0  0  0  0
   10.5553  -22.5643   25.5571 C   0  0  0  0  0  0  0  0  0  0  0  0
    9.4549  -22.9950   25.1544 O   0  0  0  0  0  0  0  0  0  0  0  0
   10.6237  -21.1055   25.9477 C   0  0  0  0  0  0  0  0  0  0  0  0
   11.9940  -20.7537   26.4401 C   0  0  0  0  0  0  0  0  0  0  0  0
   12.0852  -19.3322   26.8414 C   0  0  2  0  0  0  0  0  0  0  0  0
   11.3435  -18.4570   25.9362 N   0  0  0  0  0  0  0  0  0  0  0  0
   13.4565  -18.8067   27.0492 C   0  0  0  0  0  0  0  0  0  0  0  0
   14.3377  -19.4504   27.9517 O   0  0  0  0  0  0  0  0  0  0  0  0
   13.9504  -17.8050   26.4874 O   0  0  0  0  0  0  0  0  0  0  0  0
  2  1  1  6
  2  3  1  0
  4  3  1  0
  4  8  1  0
  5  4  2  0
  6  7  2  0
  6  2  1  0
  9  6  1  0
 10  9  1  0
 10 11  1  1
 11 12  1  0
 12 13  2  0
 12 20  1  0
 13 14  1  0
 14 15  1  0
 15 16  2  0
 16 17  1  0
 18 17  2  0
 19 18  1  0
 20 19  2  0
 20 15  1  0
 21 10  1  0
 22 21  2  0
 23 24  1  0
 24 25  2  0
 26 24  1  0
 26 27  1  0
 28 27  1  6
 28 29  1  0
 29 21  1  0
 30 28  1  0
 31 30  1  0
 32 30  2  0
M  END
$$$$
