FWQ.pdb
     RDKit          3D

 35 37  0  0  1  0  0  0  0  0999 V2000
    8.6347  -16.2979   21.4204 N   0  0  0  0  0  0  0  0  0  0  0  0
    9.0023  -15.0246   22.0195 C   0  0  1  0  0  0  0  0  0  0  0  0
    7.7581  -14.1870   22.0931 C   0  0  0  0  0  0  0  0  0  0  0  0
    7.4367  -13.7830   20.6979 C   0  0  0  0  0  0  0  0  0  0  0  0
    6.6465  -14.6286   19.9238 C   0  0  0  0  0  0  0  0  0  0  0  0
    6.2887  -14.3441   18.6264 C   0  0  0  0  0  0  0  0  0  0  0  0
    6.7160  -13.1781   18.0411 C   0  0  0  0  0  0  0  0  0  0  0  0
    7.5046  -12.3291   18.8070 C   0  0  0  0  0  0  0  0  0  0  0  0
    7.8542  -12.6247   20.0984 C   0  0  0  0  0  0  0  0  0  0  0  0
    9.6645  -15.2710   23.3089 C   0  0  0  0  0  0  0  0  0  0  0  0
   10.6243  -14.5478   23.6728 O   0  0  0  0  0  0  0  0  0  0  0  0
    9.2267  -16.3282   24.1717 N   0  0  0  0  0  0  0  0  0  0  0  0
    9.7472  -16.5604   25.5050 C   0  0  1  0  0  0  0  0  0  0  0  0
    8.6179  -16.7427   26.4705 C   0  0  0  0  0  0  0  0  0  0  0  0
    7.5589  -15.7377   26.3612 C   0  0  0  0  0  0  0  0  0  0  0  0
    6.2552  -15.8450   25.9478 C   0  0  0  0  0  0  0  0  0  0  0  0
    5.6879  -14.6379   26.0135 N   0  0  0  0  0  0  0  0  0  0  0  0
    6.5936  -13.7277   26.4650 C   0  0  0  0  0  0  0  0  0  0  0  0
    6.5185  -12.3593   26.7257 C   0  0  0  0  0  0  0  0  0  0  0  0
    7.6347  -11.7120   27.2032 C   0  0  0  0  0  0  0  0  0  0  0  0
    8.8402  -12.3366   27.4443 C   0  0  0  0  0  0  0  0  0  0  0  0
    8.9000  -13.7083   27.1776 C   0  0  0  0  0  0  0  0  0  0  0  0
    7.7742  -14.3852   26.6907 C   0  0  0  0  0  0  0  0  0  0  0  0
   10.7534  -17.6284   25.4731 C   0  0  0  0  0  0  0  0  0  0  0  0
   10.4283  -18.8561   25.5533 O   0  0  0  0  0  0  0  0  0  0  0  0
   15.9560  -16.9475   21.8248 N   0  0  0  0  0  0  0  0  0  0  0  0
   15.4904  -16.5480   23.0860 C   0  0  0  0  0  0  0  0  0  0  0  0
   16.1455  -15.6799   23.7546 O   0  0  0  0  0  0  0  0  0  0  0  0
   14.2566  -17.1016   23.6534 C   0  0  0  0  0  0  0  0  0  0  0  0
   14.4140  -17.9767   24.8438 C   0  0  0  0  0  0  0  0  0  0  0  0
   13.1455  -18.4905   25.4059 C   0  0  2  0  0  0  0  0  0  0  0  0
   12.1441  -17.3911   25.3516 N   0  0  0  0  0  0  0  0  0  0  0  0
   13.2037  -18.9455   26.7766 C   0  0  0  0  0  0  0  0  0  0  0  0
   12.6334  -18.4516   27.7900 O   0  0  0  0  0  0  0  0  0  0  0  0
   13.9857  -20.0858   27.0898 O   0  0  0  0  0  0  0  0  0  0  0  0
  2  1  1  1
  2  3  1  0
  4  3  1  0
  5  4  2  0
  6  5  1  0
  7  8  1  0
  7  6  2  0
  8  9  2  0
  9  4  1  0
 10  2  1  0
 11 10  2  0
 12 10  1  0
 13 24  1  0
 13 12  1  0
 13 14  1  1
 15 14  1  0
 16 15  2  0
 17 18  1  0
 17 16  1  0
 18 23  2  0
 19 20  2  0
 19 18  1  0
 20 21  1  0
 21 22  2  0
 23 22  1  0
 23 15  1  0
 24 32  1  0
 25 24  2  0
 26 27  1  0
 27 29  1  0
 28 27  2  0
 30 29  1  0
 31 30  1  1
 31 33  1  0
 32 31  1  0
 33 34  2  0
 33 35  1  0
M  END
$$$$
