FWQ.pdb
     RDKit          3D

 35 37  0  0  1  0  0  0  0  0999 V2000
   10.5534  -15.7459   21.0753 N   0  0  0  0  0  0  0  0  0  0  0  0
    9.5946  -15.5320   22.1479 C   0  0  1  0  0  0  0  0  0  0  0  0
    8.2276  -15.8047   21.5892 C   0  0  0  0  0  0  0  0  0  0  0  0
    7.9143  -14.6788   20.6688 C   0  0  0  0  0  0  0  0  0  0  0  0
    7.9024  -14.9216   19.2977 C   0  0  0  0  0  0  0  0  0  0  0  0
    7.6194  -13.9510   18.3650 C   0  0  0  0  0  0  0  0  0  0  0  0
    7.3309  -12.6734   18.7762 C   0  0  0  0  0  0  0  0  0  0  0  0
    7.3404  -12.4232   20.1424 C   0  0  0  0  0  0  0  0  0  0  0  0
    7.6244  -13.3992   21.0612 C   0  0  0  0  0  0  0  0  0  0  0  0
    9.9712  -16.3584   23.3041 C   0  0  0  0  0  0  0  0  0  0  0  0
   10.9724  -17.1135   23.2396 O   0  0  0  0  0  0  0  0  0  0  0  0
    9.2134  -16.3137   24.5196 N   0  0  0  0  0  0  0  0  0  0  0  0
    9.7048  -16.7739   25.8039 C   0  0  1  0  0  0  0  0  0  0  0  0
    8.9550  -16.0995   26.9100 C   0  0  0  0  0  0  0  0  0  0  0  0
    7.7652  -15.3651   26.4759 C   0  0  0  0  0  0  0  0  0  0  0  0
    6.5259  -15.8074   26.0880 C   0  0  0  0  0  0  0  0  0  0  0  0
    5.7775  -14.7485   25.7689 N   0  0  0  0  0  0  0  0  0  0  0  0
    6.4990  -13.6069   25.9388 C   0  0  0  0  0  0  0  0  0  0  0  0
    6.1971  -12.2559   25.7662 C   0  0  0  0  0  0  0  0  0  0  0  0
    7.1645  -11.3184   26.0458 C   0  0  0  0  0  0  0  0  0  0  0  0
    8.4312  -11.6316   26.4919 C   0  0  0  0  0  0  0  0  0  0  0  0
    8.7188  -12.9901   26.6595 C   0  0  0  0  0  0  0  0  0  0  0  0
    7.7472  -13.9598   26.3797 C   0  0  0  0  0  0  0  0  0  0  0  0
    9.7301  -18.2410   25.8363 C   0  0  0  0  0  0  0  0  0  0  0  0
    9.1617  -18.9396   24.9375 O   0  0  0  0  0  0  0  0  0  0  0  0
   13.8677  -18.4934   23.1149 N   0  0  0  0  0  0  0  0  0  0  0  0
   13.8972  -19.8303   23.5377 C   0  0  0  0  0  0  0  0  0  0  0  0
   14.4775  -20.7082   22.8148 O   0  0  0  0  0  0  0  0  0  0  0  0
   13.2807  -20.2435   24.8026 C   0  0  0  0  0  0  0  0  0  0  0  0
   12.1041  -19.4542   25.2503 C   0  0  0  0  0  0  0  0  0  0  0  0
   11.5606  -19.8479   26.5690 C   0  0  2  0  0  0  0  0  0  0  0  0
   10.3765  -18.9911   26.8485 N   0  0  0  0  0  0  0  0  0  0  0  0
   12.4629  -19.7051   27.6890 C   0  0  0  0  0  0  0  0  0  0  0  0
   13.2385  -18.7429   27.9515 O   0  0  0  0  0  0  0  0  0  0  0  0
   12.5352  -20.7445   28.6504 O   0  0  0  0  0  0  0  0  0  0  0  0
  2  1  1  6
  2  3  1  0
  4  3  1  0
  5  4  2  0
  6  5  1  0
  7  8  1  0
  7  6  2  0
  8  9  2  0
  9  4  1  0
 10  2  1  0
 11 10  2  0
 12 10  1  0
 13 24  1  0
 13 12  1  0
 13 14  1  1
 15 14  1  0
 16 15  2  0
 17 18  1  0
 17 16  1  0
 18 23  2  0
 19 20  2  0
 19 18  1  0
 20 21  1  0
 21 22  2  0
 23 22  1  0
 23 15  1  0
 24 32  1  0
 25 24  2  0
 26 27  1  0
 27 29  1  0
 28 27  2  0
 30 29  1  0
 31 30  1  6
 31 33  1  0
 32 31  1  0
 33 34  2  0
 33 35  1  0
M  END
$$$$
