FWQ.pdb
     RDKit          3D

 35 37  0  0  1  0  0  0  0  0999 V2000
    7.5321  -14.0067   20.4431 N   0  0  0  0  0  0  0  0  0  0  0  0
    8.1792  -15.2905   20.6637 C   0  0  1  0  0  0  0  0  0  0  0  0
    9.0365  -15.5734   19.4638 C   0  0  0  0  0  0  0  0  0  0  0  0
    8.1073  -15.8384   18.3327 C   0  0  0  0  0  0  0  0  0  0  0  0
    7.3880  -17.0306   18.3255 C   0  0  0  0  0  0  0  0  0  0  0  0
    6.5006  -17.3670   17.3297 C   0  0  0  0  0  0  0  0  0  0  0  0
    6.2937  -16.5057   16.2809 C   0  0  0  0  0  0  0  0  0  0  0  0
    7.0074  -15.3141   16.2810 C   0  0  0  0  0  0  0  0  0  0  0  0
    7.8888  -14.9912   17.2791 C   0  0  0  0  0  0  0  0  0  0  0  0
    8.8959  -15.2558   21.9471 C   0  0  0  0  0  0  0  0  0  0  0  0
    9.7502  -14.3625   22.1677 O   0  0  0  0  0  0  0  0  0  0  0  0
    8.6307  -16.2286   22.9654 N   0  0  0  0  0  0  0  0  0  0  0  0
    9.3895  -16.3487   24.1952 C   0  0  1  0  0  0  0  0  0  0  0  0
    8.4585  -16.4846   25.3595 C   0  0  0  0  0  0  0  0  0  0  0  0
    7.4334  -15.4425   25.4408 C   0  0  0  0  0  0  0  0  0  0  0  0
    6.1107  -15.4504   25.0767 C   0  0  0  0  0  0  0  0  0  0  0  0
    5.5912  -14.2481   25.3367 N   0  0  0  0  0  0  0  0  0  0  0  0
    6.5474  -13.4390   25.8693 C   0  0  0  0  0  0  0  0  0  0  0  0
    6.5332  -12.1196   26.3223 C   0  0  0  0  0  0  0  0  0  0  0  0
    7.6910  -11.5807   26.8340 C   0  0  0  0  0  0  0  0  0  0  0  0
    8.8818  -12.2696   26.9297 C   0  0  0  0  0  0  0  0  0  0  0  0
    8.8803  -13.5909   26.4710 C   0  0  0  0  0  0  0  0  0  0  0  0
    7.7114  -14.1574   25.9462 C   0  0  0  0  0  0  0  0  0  0  0  0
   10.4118  -17.3925   24.0555 C   0  0  0  0  0  0  0  0  0  0  0  0
   10.1288  -18.5501   23.6094 O   0  0  0  0  0  0  0  0  0  0  0  0
   15.1606  -15.8634   21.8654 N   0  0  0  0  0  0  0  0  0  0  0  0
   15.3546  -15.8116   23.2534 C   0  0  0  0  0  0  0  0  0  0  0  0
   16.0560  -14.8717   23.7579 O   0  0  0  0  0  0  0  0  0  0  0  0
   14.7596  -16.8132   24.1441 C   0  0  0  0  0  0  0  0  0  0  0  0
   13.9045  -17.8430   23.4990 C   0  0  0  0  0  0  0  0  0  0  0  0
   12.7689  -18.3097   24.3246 C   0  0  2  0  0  0  0  0  0  0  0  0
   11.7733  -17.2060   24.3966 N   0  0  0  0  0  0  0  0  0  0  0  0
   13.0905  -18.6818   25.6837 C   0  0  0  0  0  0  0  0  0  0  0  0
   13.8079  -19.6419   26.0834 O   0  0  0  0  0  0  0  0  0  0  0  0
   12.5625  -17.9118   26.7505 O   0  0  0  0  0  0  0  0  0  0  0  0
  2  1  1  6
  2  3  1  0
  4  3  1  0
  5  4  2  0
  6  5  1  0
  7  8  1  0
  7  6  2  0
  8  9  2  0
  9  4  1  0
 10  2  1  0
 11 10  2  0
 12 10  1  0
 13 24  1  0
 13 12  1  0
 13 14  1  1
 15 14  1  0
 16 15  2  0
 17 18  1  0
 17 16  1  0
 18 23  2  0
 19 20  2  0
 19 18  1  0
 20 21  1  0
 21 22  2  0
 23 22  1  0
 23 15  1  0
 24 32  1  0
 25 24  2  0
 26 27  1  0
 27 29  1  0
 28 27  2  0
 30 29  1  0
 31 30  1  1
 31 33  1  0
 32 31  1  0
 33 34  2  0
 33 35  1  0
M  END
$$$$
