FWQ.pdb
     RDKit          3D

 35 37  0  0  1  0  0  0  0  0999 V2000
    8.3575  -13.3422   17.9706 N   0  0  0  0  0  0  0  0  0  0  0  0
    8.4369  -14.7167   18.4395 C   0  0  1  0  0  0  0  0  0  0  0  0
    9.3906  -15.4448   17.5365 C   0  0  0  0  0  0  0  0  0  0  0  0
    8.6824  -15.6412   16.2431 C   0  0  0  0  0  0  0  0  0  0  0  0
    9.1666  -14.9896   15.1118 C   0  0  0  0  0  0  0  0  0  0  0  0
    8.5877  -15.1097   13.8697 C   0  0  0  0  0  0  0  0  0  0  0  0
    7.4793  -15.9033   13.7077 C   0  0  0  0  0  0  0  0  0  0  0  0
    6.9904  -16.5570   14.8315 C   0  0  0  0  0  0  0  0  0  0  0  0
    7.5763  -16.4285   16.0634 C   0  0  0  0  0  0  0  0  0  0  0  0
    8.8017  -14.7207   19.8638 C   0  0  0  0  0  0  0  0  0  0  0  0
    9.9551  -14.3751   20.2198 O   0  0  0  0  0  0  0  0  0  0  0  0
    7.8538  -15.1094   20.8659 N   0  0  0  0  0  0  0  0  0  0  0  0
    8.0934  -15.0190   22.2931 C   0  0  1  0  0  0  0  0  0  0  0  0
    6.7932  -14.8837   23.0225 C   0  0  0  0  0  0  0  0  0  0  0  0
    6.9147  -14.8755   24.4815 C   0  0  0  0  0  0  0  0  0  0  0  0
    6.7659  -15.8809   25.4029 C   0  0  0  0  0  0  0  0  0  0  0  0
    6.9651  -15.3731   26.6218 N   0  0  0  0  0  0  0  0  0  0  0  0
    7.2450  -14.0445   26.5267 C   0  0  0  0  0  0  0  0  0  0  0  0
    7.5408  -13.0642   27.4742 C   0  0  0  0  0  0  0  0  0  0  0  0
    7.7995  -11.7828   27.0452 C   0  0  0  0  0  0  0  0  0  0  0  0
    7.7853  -11.3987   25.7209 C   0  0  0  0  0  0  0  0  0  0  0  0
    7.4867  -12.3925   24.7831 C   0  0  0  0  0  0  0  0  0  0  0  0
    7.2200  -13.7031   25.2002 C   0  0  0  0  0  0  0  0  0  0  0  0
    8.9704  -16.1132   22.7262 C   0  0  0  0  0  0  0  0  0  0  0  0
    8.5977  -17.3288   22.6758 O   0  0  0  0  0  0  0  0  0  0  0  0
   15.3603  -16.3304   23.0899 N   0  0  0  0  0  0  0  0  0  0  0  0
   14.7935  -16.1610   24.3616 C   0  0  0  0  0  0  0  0  0  0  0  0
   15.5358  -15.8208   25.3430 O   0  0  0  0  0  0  0  0  0  0  0  0
   13.3583  -16.3585   24.5888 C   0  0  0  0  0  0  0  0  0  0  0  0
   12.5426  -16.6958   23.3936 C   0  0  0  0  0  0  0  0  0  0  0  0
   11.1346  -17.0452   23.6840 C   0  0  2  0  0  0  0  0  0  0  0  0
   10.2805  -15.9160   23.2259 N   0  0  0  0  0  0  0  0  0  0  0  0
   10.8190  -17.2802   25.0748 C   0  0  0  0  0  0  0  0  0  0  0  0
   10.3976  -18.3427   25.6131 O   0  0  0  0  0  0  0  0  0  0  0  0
   10.9798  -16.2220   26.0045 O   0  0  0  0  0  0  0  0  0  0  0  0
  2  1  1  6
  2  3  1  0
  4  3  1  0
  5  4  2  0
  6  5  1  0
  7  8  1  0
  7  6  2  0
  8  9  2  0
  9  4  1  0
 10  2  1  0
 11 10  2  0
 12 10  1  0
 13 24  1  0
 13 12  1  0
 13 14  1  1
 15 14  1  0
 16 15  2  0
 17 18  1  0
 17 16  1  0
 18 23  2  0
 19 20  2  0
 19 18  1  0
 20 21  1  0
 21 22  2  0
 23 22  1  0
 23 15  1  0
 24 32  1  0
 25 24  2  0
 26 27  1  0
 27 29  1  0
 28 27  2  0
 30 29  1  0
 31 30  1  1
 31 33  1  0
 32 31  1  0
 33 34  2  0
 33 35  1  0
M  END
$$$$
