FWQ.pdb
     RDKit          3D

 35 37  0  0  1  0  0  0  0  0999 V2000
    7.0067  -12.7158   19.8684 N   0  0  0  0  0  0  0  0  0  0  0  0
    7.2417  -14.1422   20.0291 C   0  0  1  0  0  0  0  0  0  0  0  0
    7.8187  -14.6503   18.7391 C   0  0  0  0  0  0  0  0  0  0  0  0
    7.9900  -16.1190   18.9015 C   0  0  0  0  0  0  0  0  0  0  0  0
    6.9143  -16.8683   19.3710 C   0  0  0  0  0  0  0  0  0  0  0  0
    6.9689  -18.2310   19.5504 C   0  0  0  0  0  0  0  0  0  0  0  0
    8.1255  -18.9113   19.2607 C   0  0  0  0  0  0  0  0  0  0  0  0
    9.2031  -18.1709   18.7916 C   0  0  0  0  0  0  0  0  0  0  0  0
    9.1357  -16.8135   18.6176 C   0  0  0  0  0  0  0  0  0  0  0  0
    8.0805  -14.3627   21.2162 C   0  0  0  0  0  0  0  0  0  0  0  0
    9.0941  -13.6482   21.4131 O   0  0  0  0  0  0  0  0  0  0  0  0
    7.7566  -15.3843   22.1676 N   0  0  0  0  0  0  0  0  0  0  0  0
    8.5229  -15.6514   23.3693 C   0  0  1  0  0  0  0  0  0  0  0  0
    7.5995  -15.9522   24.5085 C   0  0  0  0  0  0  0  0  0  0  0  0
    6.8702  -14.7906   25.0205 C   0  0  0  0  0  0  0  0  0  0  0  0
    5.5513  -14.4319   24.9026 C   0  0  0  0  0  0  0  0  0  0  0  0
    5.3684  -13.2708   25.5361 N   0  0  0  0  0  0  0  0  0  0  0  0
    6.5454  -12.8502   26.0751 C   0  0  0  0  0  0  0  0  0  0  0  0
    6.8998  -11.7339   26.8330 C   0  0  0  0  0  0  0  0  0  0  0  0
    8.2041  -11.6018   27.2507 C   0  0  0  0  0  0  0  0  0  0  0  0
    9.1980  -12.5140   26.9650 C   0  0  0  0  0  0  0  0  0  0  0  0
    8.8273  -13.6274   26.2040 C   0  0  0  0  0  0  0  0  0  0  0  0
    7.5043  -13.7796   25.7690 C   0  0  0  0  0  0  0  0  0  0  0  0
    9.5602  -16.6520   23.0923 C   0  0  0  0  0  0  0  0  0  0  0  0
    9.2748  -17.7967   22.6154 O   0  0  0  0  0  0  0  0  0  0  0  0
   16.4990  -16.9304   20.8878 N   0  0  0  0  0  0  0  0  0  0  0  0
   15.1274  -16.6556   20.7874 C   0  0  0  0  0  0  0  0  0  0  0  0
   14.7214  -15.7588   19.9745 O   0  0  0  0  0  0  0  0  0  0  0  0
   14.1429  -17.3850   21.5932 C   0  0  0  0  0  0  0  0  0  0  0  0
   12.9425  -16.6193   22.0182 C   0  0  0  0  0  0  0  0  0  0  0  0
   11.9847  -17.3817   22.8492 C   0  0  2  0  0  0  0  0  0  0  0  0
   10.9399  -16.4351   23.3255 N   0  0  0  0  0  0  0  0  0  0  0  0
   12.5399  -18.0256   24.0180 C   0  0  0  0  0  0  0  0  0  0  0  0
   12.6082  -17.5807   25.1985 O   0  0  0  0  0  0  0  0  0  0  0  0
   13.0967  -19.3230   23.8889 O   0  0  0  0  0  0  0  0  0  0  0  0
  2  1  1  6
  2  3  1  0
  4  3  1  0
  5  4  2  0
  6  5  1  0
  7  8  1  0
  7  6  2  0
  8  9  2  0
  9  4  1  0
 10  2  1  0
 11 10  2  0
 12 10  1  0
 13 24  1  0
 13 12  1  0
 13 14  1  1
 15 14  1  0
 16 15  2  0
 17 18  1  0
 17 16  1  0
 18 23  2  0
 19 20  2  0
 19 18  1  0
 20 21  1  0
 21 22  2  0
 23 22  1  0
 23 15  1  0
 24 32  1  0
 25 24  2  0
 26 27  1  0
 27 29  1  0
 28 27  2  0
 30 29  1  0
 31 30  1  1
 31 33  1  0
 32 31  1  0
 33 34  2  0
 33 35  1  0
M  END
$$$$
