FWQ.pdb
     RDKit          3D

 35 37  0  0  1  0  0  0  0  0999 V2000
    8.0402  -17.6609   20.2059 N   0  0  0  0  0  0  0  0  0  0  0  0
    8.4063  -17.7593   21.6101 C   0  0  1  0  0  0  0  0  0  0  0  0
    9.3989  -18.8788   21.7381 C   0  0  0  0  0  0  0  0  0  0  0  0
    8.6129  -20.1417   21.7530 C   0  0  0  0  0  0  0  0  0  0  0  0
    9.2856  -21.3438   21.9568 C   0  0  0  0  0  0  0  0  0  0  0  0
    8.6507  -22.5635   21.9935 C   0  0  0  0  0  0  0  0  0  0  0  0
    7.2899  -22.6294   21.8245 C   0  0  0  0  0  0  0  0  0  0  0  0
    6.6116  -21.4345   21.6209 C   0  0  0  0  0  0  0  0  0  0  0  0
    7.2562  -20.2260   21.5863 C   0  0  0  0  0  0  0  0  0  0  0  0
    8.8815  -16.4490   22.0782 C   0  0  0  0  0  0  0  0  0  0  0  0
    9.4838  -15.6789   21.2903 O   0  0  0  0  0  0  0  0  0  0  0  0
    8.6624  -16.0257   23.4297 N   0  0  0  0  0  0  0  0  0  0  0  0
    9.6262  -15.2817   24.2172 C   0  0  1  0  0  0  0  0  0  0  0  0
    9.0865  -15.0413   25.5925 C   0  0  0  0  0  0  0  0  0  0  0  0
    7.7223  -14.5109   25.6242 C   0  0  0  0  0  0  0  0  0  0  0  0
    6.5080  -15.1441   25.5443 C   0  0  0  0  0  0  0  0  0  0  0  0
    5.5434  -14.2228   25.6065 N   0  0  0  0  0  0  0  0  0  0  0  0
    6.0963  -12.9850   25.7273 C   0  0  0  0  0  0  0  0  0  0  0  0
    5.5507  -11.7063   25.8438 C   0  0  0  0  0  0  0  0  0  0  0  0
    6.3997  -10.6311   25.9694 C   0  0  0  0  0  0  0  0  0  0  0  0
    7.7746  -10.7363   25.9879 C   0  0  0  0  0  0  0  0  0  0  0  0
    8.3064  -12.0244   25.8697 C   0  0  0  0  0  0  0  0  0  0  0  0
    7.4583  -13.1320   25.7404 C   0  0  0  0  0  0  0  0  0  0  0  0
   10.9431  -15.9249   24.1392 C   0  0  0  0  0  0  0  0  0  0  0  0
   12.0098  -15.2482   23.9869 O   0  0  0  0  0  0  0  0  0  0  0  0
   11.0463  -21.6406   27.3163 N   0  0  0  0  0  0  0  0  0  0  0  0
   12.1237  -20.7559   27.4699 C   0  0  0  0  0  0  0  0  0  0  0  0
   12.6285  -20.5714   28.6279 O   0  0  0  0  0  0  0  0  0  0  0  0
   12.6921  -20.0407   26.3227 C   0  0  0  0  0  0  0  0  0  0  0  0
   11.7331  -19.2815   25.4791 C   0  0  0  0  0  0  0  0  0  0  0  0
   12.1887  -17.9290   25.0890 C   0  0  2  0  0  0  0  0  0  0  0  0
   11.1374  -17.3248   24.2262 N   0  0  0  0  0  0  0  0  0  0  0  0
   13.4297  -17.8721   24.3502 C   0  0  0  0  0  0  0  0  0  0  0  0
   14.6085  -17.8298   24.8027 O   0  0  0  0  0  0  0  0  0  0  0  0
   13.3862  -17.8569   22.9333 O   0  0  0  0  0  0  0  0  0  0  0  0
  2  1  1  6
  2  3  1  0
  4  3  1  0
  5  4  2  0
  6  5  1  0
  7  8  1  0
  7  6  2  0
  8  9  2  0
  9  4  1  0
 10  2  1  0
 11 10  2  0
 12 10  1  0
 13 24  1  0
 13 12  1  0
 13 14  1  1
 15 14  1  0
 16 15  2  0
 17 18  1  0
 17 16  1  0
 18 23  2  0
 19 20  2  0
 19 18  1  0
 20 21  1  0
 21 22  2  0
 23 22  1  0
 23 15  1  0
 24 32  1  0
 25 24  2  0
 26 27  1  0
 27 29  1  0
 28 27  2  0
 30 29  1  0
 31 30  1  6
 31 33  1  0
 32 31  1  0
 33 34  2  0
 33 35  1  0
M  END
$$$$
