FWQ.pdb
     RDKit          3D

 35 37  0  0  1  0  0  0  0  0999 V2000
    8.4605  -16.0388   21.3731 N   0  0  0  0  0  0  0  0  0  0  0  0
    9.1304  -14.8676   21.9164 C   0  0  1  0  0  0  0  0  0  0  0  0
    8.1055  -13.7759   22.0288 C   0  0  0  0  0  0  0  0  0  0  0  0
    7.6177  -13.5096   20.6489 C   0  0  0  0  0  0  0  0  0  0  0  0
    8.3055  -12.5874   19.8644 C   0  0  0  0  0  0  0  0  0  0  0  0
    7.9390  -12.2753   18.5759 C   0  0  0  0  0  0  0  0  0  0  0  0
    6.8478  -12.8866   18.0101 C   0  0  0  0  0  0  0  0  0  0  0  0
    6.1564  -13.8080   18.7862 C   0  0  0  0  0  0  0  0  0  0  0  0
    6.5318  -14.1097   20.0689 C   0  0  0  0  0  0  0  0  0  0  0  0
    9.7932  -15.2320   23.1772 C   0  0  0  0  0  0  0  0  0  0  0  0
   10.8464  -14.6453   23.5279 O   0  0  0  0  0  0  0  0  0  0  0  0
    9.2509  -16.2507   24.0269 N   0  0  0  0  0  0  0  0  0  0  0  0
    9.7703  -16.5782   25.3404 C   0  0  1  0  0  0  0  0  0  0  0  0
    8.6444  -16.7056   26.3186 C   0  0  0  0  0  0  0  0  0  0  0  0
    7.6078  -15.6803   26.1865 C   0  0  0  0  0  0  0  0  0  0  0  0
    6.2904  -15.7745   25.8152 C   0  0  0  0  0  0  0  0  0  0  0  0
    5.7552  -14.5512   25.8337 N   0  0  0  0  0  0  0  0  0  0  0  0
    6.6957  -13.6430   26.2123 C   0  0  0  0  0  0  0  0  0  0  0  0
    6.6618  -12.2616   26.4035 C   0  0  0  0  0  0  0  0  0  0  0  0
    7.8070  -11.6201   26.8159 C   0  0  0  0  0  0  0  0  0  0  0  0
    9.0032  -12.2627   27.0559 C   0  0  0  0  0  0  0  0  0  0  0  0
    9.0215  -13.6474   26.8592 C   0  0  0  0  0  0  0  0  0  0  0  0
    7.8657  -14.3186   26.4392 C   0  0  0  0  0  0  0  0  0  0  0  0
   10.6839  -17.7232   25.2488 C   0  0  0  0  0  0  0  0  0  0  0  0
   10.2766  -18.9181   25.4083 O   0  0  0  0  0  0  0  0  0  0  0  0
   16.5050  -17.8181   22.5608 N   0  0  0  0  0  0  0  0  0  0  0  0
   16.4333  -19.0284   23.2657 C   0  0  0  0  0  0  0  0  0  0  0  0
   17.4201  -19.8378   23.2319 O   0  0  0  0  0  0  0  0  0  0  0  0
   15.2476  -19.3834   24.0522 C   0  0  0  0  0  0  0  0  0  0  0  0
   14.1531  -18.3789   24.0834 C   0  0  0  0  0  0  0  0  0  0  0  0
   12.9633  -18.7843   24.8637 C   0  0  2  0  0  0  0  0  0  0  0  0
   12.0687  -17.6008   24.9795 N   0  0  0  0  0  0  0  0  0  0  0  0
   13.2218  -19.2549   26.2056 C   0  0  0  0  0  0  0  0  0  0  0  0
   13.1555  -18.6074   27.2885 O   0  0  0  0  0  0  0  0  0  0  0  0
   13.6051  -20.6062   26.3984 O   0  0  0  0  0  0  0  0  0  0  0  0
  2  1  1  1
  2  3  1  0
  4  3  1  0
  5  4  2  0
  6  5  1  0
  7  8  1  0
  7  6  2  0
  8  9  2  0
  9  4  1  0
 10  2  1  0
 11 10  2  0
 12 10  1  0
 13 24  1  0
 13 12  1  0
 13 14  1  1
 15 14  1  0
 16 15  2  0
 17 18  1  0
 17 16  1  0
 18 23  2  0
 19 20  2  0
 19 18  1  0
 20 21  1  0
 21 22  2  0
 23 22  1  0
 23 15  1  0
 24 32  1  0
 25 24  2  0
 26 27  1  0
 27 29  1  0
 28 27  2  0
 30 29  1  0
 31 30  1  1
 31 33  1  0
 32 31  1  0
 33 34  2  0
 33 35  1  0
M  END
$$$$
