FWQ.pdb
     RDKit          3D

 35 37  0  0  1  0  0  0  0  0999 V2000
    8.5464  -13.3770   21.5142 N   0  0  0  0  0  0  0  0  0  0  0  0
    8.6550  -14.8250   21.5972 C   0  0  1  0  0  0  0  0  0  0  0  0
    9.4093  -15.2890   20.3844 C   0  0  0  0  0  0  0  0  0  0  0  0
    8.5719  -14.9392   19.2057 C   0  0  0  0  0  0  0  0  0  0  0  0
    7.2198  -15.2714   19.2257 C   0  0  0  0  0  0  0  0  0  0  0  0
    6.3606  -14.9872   18.1898 C   0  0  0  0  0  0  0  0  0  0  0  0
    6.8303  -14.3458   17.0706 C   0  0  0  0  0  0  0  0  0  0  0  0
    8.1780  -14.0108   17.0431 C   0  0  0  0  0  0  0  0  0  0  0  0
    9.0234  -14.3001   18.0818 C   0  0  0  0  0  0  0  0  0  0  0  0
    9.2616  -15.1907   22.8856 C   0  0  0  0  0  0  0  0  0  0  0  0
   10.3056  -14.6132   23.2771 O   0  0  0  0  0  0  0  0  0  0  0  0
    8.6743  -16.2001   23.7163 N   0  0  0  0  0  0  0  0  0  0  0  0
    9.1545  -16.5477   25.0396 C   0  0  1  0  0  0  0  0  0  0  0  0
    8.0128  -16.5747   26.0073 C   0  0  0  0  0  0  0  0  0  0  0  0
    7.1940  -15.3610   26.0126 C   0  0  0  0  0  0  0  0  0  0  0  0
    5.8934  -15.1508   25.6301 C   0  0  0  0  0  0  0  0  0  0  0  0
    5.6002  -13.8608   25.8120 N   0  0  0  0  0  0  0  0  0  0  0  0
    6.6855  -13.2080   26.3107 C   0  0  0  0  0  0  0  0  0  0  0  0
    6.9096  -11.8832   26.6859 C   0  0  0  0  0  0  0  0  0  0  0  0
    8.1441  -11.5335   27.1824 C   0  0  0  0  0  0  0  0  0  0  0  0
    9.1893  -12.4198   27.3357 C   0  0  0  0  0  0  0  0  0  0  0  0
    8.9494  -13.7441   26.9547 C   0  0  0  0  0  0  0  0  0  0  0  0
    7.6991  -14.1197   26.4465 C   0  0  0  0  0  0  0  0  0  0  0  0
    9.9786  -17.7604   24.9731 C   0  0  0  0  0  0  0  0  0  0  0  0
    9.5125  -18.8626   24.5406 O   0  0  0  0  0  0  0  0  0  0  0  0
   15.4692  -18.1801   22.2651 N   0  0  0  0  0  0  0  0  0  0  0  0
   14.8693  -17.5763   23.3797 C   0  0  0  0  0  0  0  0  0  0  0  0
   15.5008  -16.6732   24.0244 O   0  0  0  0  0  0  0  0  0  0  0  0
   13.5221  -17.9546   23.8186 C   0  0  0  0  0  0  0  0  0  0  0  0
   13.4431  -18.8822   24.9768 C   0  0  0  0  0  0  0  0  0  0  0  0
   12.0791  -19.0901   25.5109 C   0  0  2  0  0  0  0  0  0  0  0  0
   11.3356  -17.8083   25.3746 N   0  0  0  0  0  0  0  0  0  0  0  0
   12.0006  -19.4818   26.8999 C   0  0  0  0  0  0  0  0  0  0  0  0
   12.4373  -20.5363   27.4416 O   0  0  0  0  0  0  0  0  0  0  0  0
   11.3621  -18.6160   27.8233 O   0  0  0  0  0  0  0  0  0  0  0  0
  2  1  1  6
  2  3  1  0
  4  3  1  0
  5  4  2  0
  6  5  1  0
  7  8  1  0
  7  6  2  0
  8  9  2  0
  9  4  1  0
 10  2  1  0
 11 10  2  0
 12 10  1  0
 13 24  1  0
 13 12  1  0
 13 14  1  1
 15 14  1  0
 16 15  2  0
 17 18  1  0
 17 16  1  0
 18 23  2  0
 19 20  2  0
 19 18  1  0
 20 21  1  0
 21 22  2  0
 23 22  1  0
 23 15  1  0
 24 32  1  0
 25 24  2  0
 26 27  1  0
 27 29  1  0
 28 27  2  0
 30 29  1  0
 31 30  1  1
 31 33  1  0
 32 31  1  0
 33 34  2  0
 33 35  1  0
M  END
$$$$
