FWQ.pdb
     RDKit          3D

 35 37  0  0  1  0  0  0  0  0999 V2000
    9.9733  -16.6937   17.9564 N   0  0  0  0  0  0  0  0  0  0  0  0
    9.0598  -17.2841   18.9221 C   0  0  1  0  0  0  0  0  0  0  0  0
    9.1466  -18.7754   18.7688 C   0  0  0  0  0  0  0  0  0  0  0  0
    8.2048  -19.3585   19.7617 C   0  0  0  0  0  0  0  0  0  0  0  0
    6.8854  -19.5832   19.3777 C   0  0  0  0  0  0  0  0  0  0  0  0
    5.9394  -20.1226   20.2181 C   0  0  0  0  0  0  0  0  0  0  0  0
    6.2839  -20.4657   21.5020 C   0  0  0  0  0  0  0  0  0  0  0  0
    7.5984  -20.2448   21.8926 C   0  0  0  0  0  0  0  0  0  0  0  0
    8.5310  -19.7063   21.0455 C   0  0  0  0  0  0  0  0  0  0  0  0
    9.3812  -16.7760   20.2638 C   0  0  0  0  0  0  0  0  0  0  0  0
   10.5715  -16.7596   20.6630 O   0  0  0  0  0  0  0  0  0  0  0  0
    8.3515  -16.2874   21.1326 N   0  0  0  0  0  0  0  0  0  0  0  0
    8.5986  -15.6476   22.4102 C   0  0  1  0  0  0  0  0  0  0  0  0
    7.5408  -14.6244   22.6830 C   0  0  0  0  0  0  0  0  0  0  0  0
    7.0625  -14.6010   24.0665 C   0  0  0  0  0  0  0  0  0  0  0  0
    6.5630  -15.5998   24.8634 C   0  0  0  0  0  0  0  0  0  0  0  0
    6.2485  -15.0781   26.0517 N   0  0  0  0  0  0  0  0  0  0  0  0
    6.5312  -13.7467   26.0592 C   0  0  0  0  0  0  0  0  0  0  0  0
    6.4105  -12.7537   27.0316 C   0  0  0  0  0  0  0  0  0  0  0  0
    6.8091  -11.4729   26.7258 C   0  0  0  0  0  0  0  0  0  0  0  0
    7.3277  -11.1013   25.5033 C   0  0  0  0  0  0  0  0  0  0  0  0
    7.4420  -12.1077   24.5387 C   0  0  0  0  0  0  0  0  0  0  0  0
    7.0411  -13.4179   24.8308 C   0  0  0  0  0  0  0  0  0  0  0  0
    8.8038  -16.6631   23.4498 C   0  0  0  0  0  0  0  0  0  0  0  0
    8.2271  -17.7963   23.4007 O   0  0  0  0  0  0  0  0  0  0  0  0
   14.0816  -17.3827   22.3287 N   0  0  0  0  0  0  0  0  0  0  0  0
   14.0869  -18.2216   23.4525 C   0  0  0  0  0  0  0  0  0  0  0  0
   15.1235  -18.9193   23.7144 O   0  0  0  0  0  0  0  0  0  0  0  0
   12.9253  -18.3096   24.3434 C   0  0  0  0  0  0  0  0  0  0  0  0
   11.7853  -17.4098   24.0299 C   0  0  0  0  0  0  0  0  0  0  0  0
   10.6581  -17.4835   24.9854 C   0  0  2  0  0  0  0  0  0  0  0  0
    9.6444  -16.4749   24.5736 N   0  0  0  0  0  0  0  0  0  0  0  0
   10.9868  -17.2164   26.3674 C   0  0  0  0  0  0  0  0  0  0  0  0
   11.0421  -16.1005   26.9571 O   0  0  0  0  0  0  0  0  0  0  0  0
   11.2988  -18.3035   27.2222 O   0  0  0  0  0  0  0  0  0  0  0  0
  2  1  1  6
  2  3  1  0
  4  3  1  0
  5  4  2  0
  6  5  1  0
  7  8  1  0
  7  6  2  0
  8  9  2  0
  9  4  1  0
 10  2  1  0
 11 10  2  0
 12 10  1  0
 13 24  1  0
 13 12  1  0
 13 14  1  1
 15 14  1  0
 16 15  2  0
 17 18  1  0
 17 16  1  0
 18 23  2  0
 19 20  2  0
 19 18  1  0
 20 21  1  0
 21 22  2  0
 23 22  1  0
 23 15  1  0
 24 32  1  0
 25 24  2  0
 26 27  1  0
 27 29  1  0
 28 27  2  0
 30 29  1  0
 31 30  1  6
 31 33  1  0
 32 31  1  0
 33 34  2  0
 33 35  1  0
M  END
$$$$
