AGK.pdb
     RDKit          3D

 19 18  0  0  1  0  0  0  0  0999 V2000
    7.7470  -18.1099   18.0443 C   0  0  0  0  0  0  0  0  0  0  0  0
    8.3985  -17.6182   19.3198 C   0  0  2  0  0  0  0  0  0  0  0  0
    8.4830  -18.6571   20.3184 N   0  0  0  0  0  0  0  0  0  0  0  0
    7.6207  -16.4960   19.8697 C   0  0  0  0  0  0  0  0  0  0  0  0
    7.5602  -15.4269   19.2159 O   0  0  0  0  0  0  0  0  0  0  0  0
    6.9499  -16.5900   21.0973 N   0  0  0  0  0  0  0  0  0  0  0  0
    6.1846  -15.4714   21.5734 C   0  0  0  0  0  0  0  0  0  0  0  0
    6.8746  -14.9255   22.7716 C   0  0  0  0  0  0  0  0  0  0  0  0
    6.3264  -14.0843   23.5332 O   0  0  0  0  0  0  0  0  0  0  0  0
    8.1955  -15.3125   23.1406 N   0  0  0  0  0  0  0  0  0  0  0  0
    8.5324  -15.7422   24.4866 C   0  0  1  0  0  0  0  0  0  0  0  0
    7.6954  -16.8705   24.9700 C   0  0  0  0  0  0  0  0  0  0  0  0
    7.9691  -17.3957   26.3261 C   0  0  0  0  0  0  0  0  0  0  0  0
    7.4246  -18.7475   26.6452 C   0  0  0  0  0  0  0  0  0  0  0  0
    7.7138  -19.0589   28.1259 C   0  0  0  0  0  0  0  0  0  0  0  0
    7.1191  -20.3487   28.4241 N   0  0  0  0  0  0  0  0  0  0  0  0
    9.9921  -15.9817   24.5187 C   0  0  0  0  0  0  0  0  0  0  0  0
   10.5655  -16.2234   25.6083 O   0  0  0  0  0  0  0  0  0  0  0  0
   10.7762  -15.9494   23.3754 O   0  0  0  0  0  0  0  0  0  0  0  0
  2  1  1  6
  3  2  1  0
  4  5  2  0
  4  2  1  0
  6  4  1  0
  7  6  1  0
  8  7  1  0
  9  8  2  0
 10  8  1  0
 11 12  1  6
 11 10  1  0
 12 13  1  0
 13 14  1  0
 14 15  1  0
 15 16  1  0
 17 11  1  0
 18 17  2  0
 19 17  1  0
M  END
$$$$
