AGK.pdb
     RDKit          3D

 19 18  0  0  1  0  0  0  0  0999 V2000
    6.1691  -18.0609   19.3760 C   0  0  0  0  0  0  0  0  0  0  0  0
    7.3152  -18.6605   20.1635 C   0  0  2  0  0  0  0  0  0  0  0  0
    6.9240  -19.0042   21.5098 N   0  0  0  0  0  0  0  0  0  0  0  0
    8.4272  -17.6981   20.2255 C   0  0  0  0  0  0  0  0  0  0  0  0
    9.0211  -17.3939   19.1630 O   0  0  0  0  0  0  0  0  0  0  0  0
    8.8376  -17.1160   21.4333 N   0  0  0  0  0  0  0  0  0  0  0  0
    9.8604  -16.1074   21.4217 C   0  0  0  0  0  0  0  0  0  0  0  0
   10.0844  -15.6709   22.8250 C   0  0  0  0  0  0  0  0  0  0  0  0
   11.0376  -14.9109   23.1444 O   0  0  0  0  0  0  0  0  0  0  0  0
    9.2426  -16.0785   23.9001 N   0  0  0  0  0  0  0  0  0  0  0  0
    9.4629  -15.6429   25.2681 C   0  0  1  0  0  0  0  0  0  0  0  0
    8.2406  -15.1020   25.9166 C   0  0  0  0  0  0  0  0  0  0  0  0
    7.7853  -13.7550   25.5066 C   0  0  0  0  0  0  0  0  0  0  0  0
    6.5614  -13.2270   26.1766 C   0  0  0  0  0  0  0  0  0  0  0  0
    6.2650  -11.8197   25.6246 C   0  0  0  0  0  0  0  0  0  0  0  0
    5.0621  -11.3394   26.2790 N   0  0  0  0  0  0  0  0  0  0  0  0
   10.1144  -16.7610   25.9855 C   0  0  0  0  0  0  0  0  0  0  0  0
   10.3892  -16.6503   27.2048 O   0  0  0  0  0  0  0  0  0  0  0  0
   10.4457  -17.9533   25.3597 O   0  0  0  0  0  0  0  0  0  0  0  0
  2  1  1  1
  3  2  1  0
  4  5  2  0
  4  2  1  0
  6  4  1  0
  7  6  1  0
  8  7  1  0
  9  8  2  0
 10  8  1  0
 11 12  1  1
 11 10  1  0
 12 13  1  0
 13 14  1  0
 14 15  1  0
 15 16  1  0
 17 11  1  0
 18 17  2  0
 19 17  1  0
M  END
$$$$
