AGK.pdb
     RDKit          3D

 19 18  0  0  1  0  0  0  0  0999 V2000
    8.3493  -21.0615   20.5551 C   0  0  0  0  0  0  0  0  0  0  0  0
    8.4237  -20.0320   21.6631 C   0  0  2  0  0  0  0  0  0  0  0  0
    7.1472  -19.8406   22.3092 N   0  0  0  0  0  0  0  0  0  0  0  0
    8.8712  -18.7436   21.1095 C   0  0  0  0  0  0  0  0  0  0  0  0
   10.0834  -18.6007   20.8193 O   0  0  0  0  0  0  0  0  0  0  0  0
    7.9838  -17.6786   20.8993 N   0  0  0  0  0  0  0  0  0  0  0  0
    8.4717  -16.4515   20.3337 C   0  0  0  0  0  0  0  0  0  0  0  0
    8.8464  -15.5512   21.4557 C   0  0  0  0  0  0  0  0  0  0  0  0
    9.6374  -14.5826   21.2998 O   0  0  0  0  0  0  0  0  0  0  0  0
    8.3408  -15.7192   22.7774 N   0  0  0  0  0  0  0  0  0  0  0  0
    8.5533  -14.7329   23.8223 C   0  0  1  0  0  0  0  0  0  0  0  0
    7.2897  -14.2120   24.4045 C   0  0  0  0  0  0  0  0  0  0  0  0
    7.3957  -13.2279   25.5046 C   0  0  0  0  0  0  0  0  0  0  0  0
    6.1151  -12.7228   26.0795 C   0  0  0  0  0  0  0  0  0  0  0  0
    6.4386  -11.6602   27.1469 C   0  0  0  0  0  0  0  0  0  0  0  0
    5.1768  -11.1614   27.6616 N   0  0  0  0  0  0  0  0  0  0  0  0
    9.5000  -15.3211   24.7955 C   0  0  0  0  0  0  0  0  0  0  0  0
    9.9741  -14.6139   25.7173 O   0  0  0  0  0  0  0  0  0  0  0  0
    9.8996  -16.6476   24.7354 O   0  0  0  0  0  0  0  0  0  0  0  0
  2  1  1  6
  3  2  1  0
  4  5  2  0
  4  2  1  0
  6  4  1  0
  7  6  1  0
  8  7  1  0
  9  8  2  0
 10  8  1  0
 11 12  1  1
 11 10  1  0
 12 13  1  0
 13 14  1  0
 14 15  1  0
 15 16  1  0
 17 11  1  0
 18 17  2  0
 19 17  1  0
M  END
$$$$
