AGK.pdb
     RDKit          3D

 19 18  0  0  1  0  0  0  0  0999 V2000
    9.5925  -18.0287   17.7021 C   0  0  0  0  0  0  0  0  0  0  0  0
   10.2335  -17.9711   19.0728 C   0  0  2  0  0  0  0  0  0  0  0  0
   10.1379  -19.2329   19.7672 N   0  0  0  0  0  0  0  0  0  0  0  0
    9.5729  -16.9346   19.8827 C   0  0  0  0  0  0  0  0  0  0  0  0
    9.6603  -15.7375   19.5174 O   0  0  0  0  0  0  0  0  0  0  0  0
    8.8530  -17.2481   21.0443 N   0  0  0  0  0  0  0  0  0  0  0  0
    8.1890  -16.2011   21.7700 C   0  0  0  0  0  0  0  0  0  0  0  0
    8.9866  -15.9186   22.9922 C   0  0  0  0  0  0  0  0  0  0  0  0
   10.1961  -16.2576   23.0940 O   0  0  0  0  0  0  0  0  0  0  0  0
    8.4431  -15.2491   24.1267 N   0  0  0  0  0  0  0  0  0  0  0  0
    9.2597  -14.8537   25.2610 C   0  0  1  0  0  0  0  0  0  0  0  0
    8.8322  -13.5695   25.8735 C   0  0  0  0  0  0  0  0  0  0  0  0
    7.3797  -13.3355   26.0331 C   0  0  0  0  0  0  0  0  0  0  0  0
    6.9751  -12.1069   26.7763 C   0  0  0  0  0  0  0  0  0  0  0  0
    5.4381  -12.0046   26.7607 C   0  0  0  0  0  0  0  0  0  0  0  0
    5.0716  -10.8323   27.5336 N   0  0  0  0  0  0  0  0  0  0  0  0
    9.3129  -16.0065   26.1869 C   0  0  0  0  0  0  0  0  0  0  0  0
    8.4645  -16.9264   26.0947 O   0  0  0  0  0  0  0  0  0  0  0  0
   10.2772  -16.1211   27.1769 O   0  0  0  0  0  0  0  0  0  0  0  0
  2  1  1  6
  3  2  1  0
  4  5  2  0
  4  2  1  0
  6  4  1  0
  7  6  1  0
  8  7  1  0
  9  8  2  0
 10  8  1  0
 11 12  1  1
 11 10  1  0
 12 13  1  0
 13 14  1  0
 14 15  1  0
 15 16  1  0
 17 11  1  0
 18 17  2  0
 19 17  1  0
M  END
$$$$
