AGK.pdb
     RDKit          3D

 19 18  0  0  1  0  0  0  0  0999 V2000
    7.5169  -12.8865   18.4427 C   0  0  0  0  0  0  0  0  0  0  0  0
    8.6311  -13.5103   19.2567 C   0  0  2  0  0  0  0  0  0  0  0  0
    9.3545  -14.5087   18.5061 N   0  0  0  0  0  0  0  0  0  0  0  0
    8.0677  -14.1409   20.4615 C   0  0  0  0  0  0  0  0  0  0  0  0
    7.4767  -13.4183   21.2997 O   0  0  0  0  0  0  0  0  0  0  0  0
    8.1737  -15.5193   20.6955 N   0  0  0  0  0  0  0  0  0  0  0  0
    7.6307  -16.0763   21.9032 C   0  0  0  0  0  0  0  0  0  0  0  0
    8.5307  -15.6965   23.0237 C   0  0  0  0  0  0  0  0  0  0  0  0
    9.7127  -15.3054   22.8284 O   0  0  0  0  0  0  0  0  0  0  0  0
    8.1227  -15.7478   24.3882 N   0  0  0  0  0  0  0  0  0  0  0  0
    8.9462  -15.2279   25.4658 C   0  0  1  0  0  0  0  0  0  0  0  0
    8.1686  -14.4973   26.4996 C   0  0  0  0  0  0  0  0  0  0  0  0
    7.4199  -13.2945   26.0723 C   0  0  0  0  0  0  0  0  0  0  0  0
    6.6172  -12.5963   27.1182 C   0  0  0  0  0  0  0  0  0  0  0  0
    5.9905  -11.3333   26.4978 C   0  0  0  0  0  0  0  0  0  0  0  0
    5.1387  -10.7294   27.5057 N   0  0  0  0  0  0  0  0  0  0  0  0
    9.7677  -16.3499   25.9713 C   0  0  0  0  0  0  0  0  0  0  0  0
    9.3960  -17.5341   25.7865 O   0  0  0  0  0  0  0  0  0  0  0  0
   10.9562  -16.1510   26.6575 O   0  0  0  0  0  0  0  0  0  0  0  0
  2  1  1  6
  3  2  1  0
  4  5  2  0
  4  2  1  0
  6  4  1  0
  7  6  1  0
  8  7  1  0
  9  8  2  0
 10  8  1  0
 11 12  1  1
 11 10  1  0
 12 13  1  0
 13 14  1  0
 14 15  1  0
 15 16  1  0
 17 11  1  0
 18 17  2  0
 19 17  1  0
M  END
$$$$
