AGK.pdb
     RDKit          3D

 19 18  0  0  1  0  0  0  0  0999 V2000
    8.5695  -12.4515   19.2908 C   0  0  0  0  0  0  0  0  0  0  0  0
    8.6483  -13.7980   18.6025 C   0  0  2  0  0  0  0  0  0  0  0  0
    7.5269  -14.0205   17.7211 N   0  0  0  0  0  0  0  0  0  0  0  0
    8.6744  -14.8676   19.6134 C   0  0  0  0  0  0  0  0  0  0  0  0
    7.6107  -15.4823   19.8682 O   0  0  0  0  0  0  0  0  0  0  0  0
    9.8494  -15.2153   20.2948 N   0  0  0  0  0  0  0  0  0  0  0  0
    9.8401  -16.3326   21.1977 C   0  0  0  0  0  0  0  0  0  0  0  0
    9.8266  -15.7965   22.5841 C   0  0  0  0  0  0  0  0  0  0  0  0
   10.8875  -15.6028   23.2361 O   0  0  0  0  0  0  0  0  0  0  0  0
    8.6211  -15.4663   23.2686 N   0  0  0  0  0  0  0  0  0  0  0  0
    8.6108  -15.0005   24.6443 C   0  0  1  0  0  0  0  0  0  0  0  0
    7.3273  -14.3654   25.0401 C   0  0  0  0  0  0  0  0  0  0  0  0
    7.3805  -13.2777   26.0421 C   0  0  0  0  0  0  0  0  0  0  0  0
    6.1201  -12.5131   26.2707 C   0  0  0  0  0  0  0  0  0  0  0  0
    6.3709  -11.4668   27.3732 C   0  0  0  0  0  0  0  0  0  0  0  0
    5.1303  -10.7416   27.5760 N   0  0  0  0  0  0  0  0  0  0  0  0
    9.0422  -16.1322   25.4943 C   0  0  0  0  0  0  0  0  0  0  0  0
    8.7454  -17.3083   25.1731 O   0  0  0  0  0  0  0  0  0  0  0  0
    9.7746  -15.9512   26.6578 O   0  0  0  0  0  0  0  0  0  0  0  0
  2  1  1  1
  3  2  1  0
  4  5  2  0
  4  2  1  0
  6  4  1  0
  7  6  1  0
  8  7  1  0
  9  8  2  0
 10  8  1  0
 11 12  1  1
 11 10  1  0
 12 13  1  0
 13 14  1  0
 14 15  1  0
 15 16  1  0
 17 11  1  0
 18 17  2  0
 19 17  1  0
M  END
$$$$
