AGK.pdb
     RDKit          3D

 19 18  0  0  1  0  0  0  0  0999 V2000
    5.7247  -18.3838   19.4260 C   0  0  0  0  0  0  0  0  0  0  0  0
    7.0637  -18.7927   20.0031 C   0  0  2  0  0  0  0  0  0  0  0  0
    6.9541  -19.2065   21.3816 N   0  0  0  0  0  0  0  0  0  0  0  0
    8.0015  -17.6610   19.9223 C   0  0  0  0  0  0  0  0  0  0  0  0
    8.3092  -17.2127   18.7917 O   0  0  0  0  0  0  0  0  0  0  0  0
    8.5563  -17.0746   21.0687 N   0  0  0  0  0  0  0  0  0  0  0  0
    9.5859  -16.0825   20.9290 C   0  0  0  0  0  0  0  0  0  0  0  0
    9.9505  -15.6109   22.2908 C   0  0  0  0  0  0  0  0  0  0  0  0
   11.0089  -14.9638   22.5127 O   0  0  0  0  0  0  0  0  0  0  0  0
    9.1343  -15.8558   23.4330 N   0  0  0  0  0  0  0  0  0  0  0  0
    9.5472  -15.4894   24.7764 C   0  0  1  0  0  0  0  0  0  0  0  0
    8.4221  -15.0347   25.6335 C   0  0  0  0  0  0  0  0  0  0  0  0
    7.9552  -13.6400   25.4697 C   0  0  0  0  0  0  0  0  0  0  0  0
    6.7792  -13.2250   26.2885 C   0  0  0  0  0  0  0  0  0  0  0  0
    6.4641  -11.7478   25.9860 C   0  0  0  0  0  0  0  0  0  0  0  0
    5.3072  -11.3776   26.7802 N   0  0  0  0  0  0  0  0  0  0  0  0
   10.3345  -16.6194   25.3174 C   0  0  0  0  0  0  0  0  0  0  0  0
   10.9114  -16.5095   26.4263 O   0  0  0  0  0  0  0  0  0  0  0  0
   10.4704  -17.8222   24.6409 O   0  0  0  0  0  0  0  0  0  0  0  0
  2  1  1  1
  3  2  1  0
  4  5  2  0
  4  2  1  0
  6  4  1  0
  7  6  1  0
  8  7  1  0
  9  8  2  0
 10  8  1  0
 11 12  1  1
 11 10  1  0
 12 13  1  0
 13 14  1  0
 14 15  1  0
 15 16  1  0
 17 11  1  0
 18 17  2  0
 19 17  1  0
M  END
$$$$
