AGK.pdb
     RDKit          3D

 19 18  0  0  1  0  0  0  0  0999 V2000
    9.9225  -19.3700   17.1488 C   0  0  0  0  0  0  0  0  0  0  0  0
   10.4441  -18.3812   18.1702 C   0  0  2  0  0  0  0  0  0  0  0  0
   11.3831  -18.9907   19.0815 N   0  0  0  0  0  0  0  0  0  0  0  0
    9.3190  -17.8346   18.9463 C   0  0  0  0  0  0  0  0  0  0  0  0
    8.4720  -17.1199   18.3583 O   0  0  0  0  0  0  0  0  0  0  0  0
    9.1702  -18.0902   20.3169 N   0  0  0  0  0  0  0  0  0  0  0  0
    8.0305  -17.5643   21.0155 C   0  0  0  0  0  0  0  0  0  0  0  0
    8.5206  -16.5516   21.9872 C   0  0  0  0  0  0  0  0  0  0  0  0
    9.6839  -16.0712   21.9222 O   0  0  0  0  0  0  0  0  0  0  0  0
    7.7148  -16.0564   23.0532 N   0  0  0  0  0  0  0  0  0  0  0  0
    8.1355  -14.9519   23.8974 C   0  0  1  0  0  0  0  0  0  0  0  0
    7.0015  -14.2360   24.5368 C   0  0  0  0  0  0  0  0  0  0  0  0
    7.3245  -13.1235   25.4577 C   0  0  0  0  0  0  0  0  0  0  0  0
    6.1744  -12.4575   26.1355 C   0  0  0  0  0  0  0  0  0  0  0  0
    6.7070  -11.2671   26.9555 C   0  0  0  0  0  0  0  0  0  0  0  0
    5.5766  -10.6715   27.6436 N   0  0  0  0  0  0  0  0  0  0  0  0
    9.1560  -15.4769   24.8312 C   0  0  0  0  0  0  0  0  0  0  0  0
    9.9774  -14.6952   25.3689 O   0  0  0  0  0  0  0  0  0  0  0  0
    9.2521  -16.8237   25.1471 O   0  0  0  0  0  0  0  0  0  0  0  0
  2  1  1  6
  3  2  1  0
  4  5  2  0
  4  2  1  0
  6  4  1  0
  7  6  1  0
  8  7  1  0
  9  8  2  0
 10  8  1  0
 11 12  1  1
 11 10  1  0
 12 13  1  0
 13 14  1  0
 14 15  1  0
 15 16  1  0
 17 11  1  0
 18 17  2  0
 19 17  1  0
M  END
$$$$
