AGK.pdb
     RDKit          3D

 19 18  0  0  1  0  0  0  0  0999 V2000
    9.8439  -20.2524   17.8326 C   0  0  0  0  0  0  0  0  0  0  0  0
   10.6324  -19.8041   19.0452 C   0  0  2  0  0  0  0  0  0  0  0  0
    9.8229  -19.7882   20.2403 N   0  0  0  0  0  0  0  0  0  0  0  0
   11.1626  -18.4503   18.8155 C   0  0  0  0  0  0  0  0  0  0  0  0
   12.1567  -18.3120   18.0627 O   0  0  0  0  0  0  0  0  0  0  0  0
   10.5894  -17.3183   19.4121 N   0  0  0  0  0  0  0  0  0  0  0  0
   11.1558  -16.0222   19.1611 C   0  0  0  0  0  0  0  0  0  0  0  0
   11.9976  -15.6596   20.3314 C   0  0  0  0  0  0  0  0  0  0  0  0
   12.6072  -14.5588   20.4007 O   0  0  0  0  0  0  0  0  0  0  0  0
   12.1733  -16.5256   21.4495 N   0  0  0  0  0  0  0  0  0  0  0  0
   12.9340  -16.1349   22.6235 C   0  0  1  0  0  0  0  0  0  0  0  0
   12.4033  -16.7106   23.8860 C   0  0  0  0  0  0  0  0  0  0  0  0
   11.0248  -16.3448   24.2806 C   0  0  0  0  0  0  0  0  0  0  0  0
   10.5064  -16.9447   25.5444 C   0  0  0  0  0  0  0  0  0  0  0  0
    9.0573  -16.4682   25.7586 C   0  0  0  0  0  0  0  0  0  0  0  0
    8.6151  -16.9814   27.0420 N   0  0  0  0  0  0  0  0  0  0  0  0
   14.3562  -16.4325   22.3442 C   0  0  0  0  0  0  0  0  0  0  0  0
   14.6608  -17.3285   21.5203 O   0  0  0  0  0  0  0  0  0  0  0  0
   15.3937  -15.7539   22.9656 O   0  0  0  0  0  0  0  0  0  0  0  0
  2  1  1  6
  3  2  1  0
  4  5  2  0
  4  2  1  0
  6  4  1  0
  7  6  1  0
  8  7  1  0
  9  8  2  0
 10  8  1  0
 11 12  1  1
 11 10  1  0
 12 13  1  0
 13 14  1  0
 14 15  1  0
 15 16  1  0
 17 11  1  0
 18 17  2  0
 19 17  1  0
M  END
$$$$
