AGK.pdb
     RDKit          3D

 19 18  0  0  1  0  0  0  0  0999 V2000
    8.1654  -16.2920   17.7410 C   0  0  0  0  0  0  0  0  0  0  0  0
    8.3147  -16.7879   19.1640 C   0  0  2  0  0  0  0  0  0  0  0  0
    7.4868  -17.9416   19.4236 N   0  0  0  0  0  0  0  0  0  0  0  0
    7.9398  -15.7165   20.1012 C   0  0  0  0  0  0  0  0  0  0  0  0
    8.7335  -14.7600   20.2720 O   0  0  0  0  0  0  0  0  0  0  0  0
    6.7265  -15.7369   20.8037 N   0  0  0  0  0  0  0  0  0  0  0  0
    6.3520  -14.6034   21.6029 C   0  0  0  0  0  0  0  0  0  0  0  0
    6.9724  -14.7677   22.9437 C   0  0  0  0  0  0  0  0  0  0  0  0
    6.6247  -14.0665   23.9314 O   0  0  0  0  0  0  0  0  0  0  0  0
    7.9971  -15.7232   23.2044 N   0  0  0  0  0  0  0  0  0  0  0  0
    8.5463  -15.9311   24.5329 C   0  0  1  0  0  0  0  0  0  0  0  0
    8.0705  -17.1829   25.1762 C   0  0  0  0  0  0  0  0  0  0  0  0
    8.6733  -17.5590   26.4743 C   0  0  0  0  0  0  0  0  0  0  0  0
    8.2056  -18.8364   27.0869 C   0  0  0  0  0  0  0  0  0  0  0  0
    8.8428  -18.9767   28.4823 C   0  0  0  0  0  0  0  0  0  0  0  0
    8.2568  -20.1447   29.1135 N   0  0  0  0  0  0  0  0  0  0  0  0
   10.0160  -15.7966   24.4265 C   0  0  0  0  0  0  0  0  0  0  0  0
   10.5931  -16.0478   23.3409 O   0  0  0  0  0  0  0  0  0  0  0  0
   10.8055  -15.3987   25.4948 O   0  0  0  0  0  0  0  0  0  0  0  0
  2  1  1  6
  3  2  1  0
  4  5  2  0
  4  2  1  0
  6  4  1  0
  7  6  1  0
  8  7  1  0
  9  8  2  0
 10  8  1  0
 11 12  1  6
 11 10  1  0
 12 13  1  0
 13 14  1  0
 14 15  1  0
 15 16  1  0
 17 11  1  0
 18 17  2  0
 19 17  1  0
M  END
$$$$
