LAV.pdb
     RDKit          3D

 21 20  0  0  1  0  0  0  0  0999 V2000
    8.8398  -12.3549   18.2709 C   0  0  0  0  0  0  0  0  0  0  0  0
    8.1916  -13.6859   18.4038 C   0  0  2  0  0  0  0  0  0  0  0  0
    7.1640  -13.8261   17.2687 C   0  0  0  0  0  0  0  0  0  0  0  0
    7.6232  -14.0652   19.7047 C   0  0  0  0  0  0  0  0  0  0  0  0
    8.4030  -14.9639   20.5937 C   0  0  2  0  0  0  0  0  0  0  0  0
    8.5516  -16.2607   19.8812 N   0  0  0  0  0  0  0  0  0  0  0  0
    7.9288  -15.1908   21.9494 C   0  0  0  0  0  0  0  0  0  0  0  0
    7.2194  -14.3471   22.5368 O   0  0  0  0  0  0  0  0  0  0  0  0
    8.1085  -17.9812   24.5562 C   0  0  0  0  0  0  0  0  0  0  0  0
    7.7958  -16.5887   24.0543 C   0  0  2  0  0  0  0  0  0  0  0  0
    8.2247  -16.3679   22.7095 N   0  0  0  0  0  0  0  0  0  0  0  0
    8.3774  -15.5781   25.0000 C   0  0  0  0  0  0  0  0  0  0  0  0
    9.6090  -15.5623   25.2483 O   0  0  0  0  0  0  0  0  0  0  0  0
    6.9459  -11.7634   25.5496 C   0  0  0  0  0  0  0  0  0  0  0  0
    7.2145  -12.5183   26.8080 C   0  0  1  0  0  0  0  0  0  0  0  0
    5.8981  -13.0007   27.3746 C   0  0  0  0  0  0  0  0  0  0  0  0
    8.1434  -13.6944   26.5956 C   0  0  2  0  0  0  0  0  0  0  0  0
    7.5622  -14.6024   25.6502 N   0  0  0  0  0  0  0  0  0  0  0  0
    8.4339  -14.3555   27.8966 C   0  0  0  0  0  0  0  0  0  0  0  0
    9.3417  -13.7893   28.8112 O   0  0  0  0  0  0  0  0  0  0  0  0
    7.8840  -15.4338   28.2231 O   0  0  0  0  0  0  0  0  0  0  0  0
  2  1  1  1
  3  2  1  0
  4  2  1  0
  5  4  1  0
  5  7  1  0
  5  6  1  6
  7  8  2  0
  7 11  1  0
 10  9  1  1
 10 12  1  0
 11 10  1  0
 12 18  1  0
 12 13  2  0
 15 17  1  0
 15 14  1  6
 16 15  1  0
 17 19  1  0
 17 18  1  6
 19 20  1  0
 21 19  2  0
M  END
$$$$
