LAV.pdb
     RDKit          3D

 21 20  0  0  1  0  0  0  0  0999 V2000
    9.4797  -13.6307   18.9496 C   0  0  0  0  0  0  0  0  0  0  0  0
    8.0110  -13.6868   18.7279 C   0  0  2  0  0  0  0  0  0  0  0  0
    7.5410  -12.2811   18.3194 C   0  0  0  0  0  0  0  0  0  0  0  0
    7.1618  -14.2619   19.7802 C   0  0  0  0  0  0  0  0  0  0  0  0
    7.5514  -15.5605   20.3867 C   0  0  2  0  0  0  0  0  0  0  0  0
    6.8690  -16.6278   19.6079 N   0  0  0  0  0  0  0  0  0  0  0  0
    7.3308  -15.7626   21.8097 C   0  0  0  0  0  0  0  0  0  0  0  0
    6.2211  -15.5272   22.3326 O   0  0  0  0  0  0  0  0  0  0  0  0
    8.6979  -17.7903   24.5773 C   0  0  0  0  0  0  0  0  0  0  0  0
    8.1253  -16.4721   24.1048 C   0  0  2  0  0  0  0  0  0  0  0  0
    8.3373  -16.2358   22.7119 N   0  0  0  0  0  0  0  0  0  0  0  0
    8.6751  -15.3605   24.9508 C   0  0  0  0  0  0  0  0  0  0  0  0
    9.8108  -14.8756   24.7187 O   0  0  0  0  0  0  0  0  0  0  0  0
    7.2368  -11.9404   25.9296 C   0  0  0  0  0  0  0  0  0  0  0  0
    7.5638  -12.7129   27.1633 C   0  0  1  0  0  0  0  0  0  0  0  0
    6.2820  -13.2699   27.7407 C   0  0  0  0  0  0  0  0  0  0  0  0
    8.5416  -13.8389   26.9043 C   0  0  2  0  0  0  0  0  0  0  0  0
    7.9367  -14.8136   26.0441 N   0  0  0  0  0  0  0  0  0  0  0  0
    8.9866  -14.4336   28.1936 C   0  0  0  0  0  0  0  0  0  0  0  0
    8.6568  -15.7591   28.5331 O   0  0  0  0  0  0  0  0  0  0  0  0
    9.6672  -13.7797   29.0188 O   0  0  0  0  0  0  0  0  0  0  0  0
  2  1  1  1
  3  2  1  0
  4  2  1  0
  5  4  1  0
  5  7  1  0
  5  6  1  6
  7  8  2  0
  7 11  1  0
 10  9  1  1
 10 12  1  0
 11 10  1  0
 12 18  1  0
 12 13  2  0
 15 17  1  0
 15 14  1  6
 16 15  1  0
 17 19  1  0
 17 18  1  6
 19 20  1  0
 21 19  2  0
M  END
$$$$
