LAV.pdb
     RDKit          3D

 21 20  0  0  1  0  0  0  0  0999 V2000
    7.5397  -12.4670   24.4519 C   0  0  0  0  0  0  0  0  0  0  0  0
    6.2683  -13.0310   24.9761 C   0  0  2  0  0  0  0  0  0  0  0  0
    5.8315  -12.1752   26.1764 C   0  0  0  0  0  0  0  0  0  0  0  0
    6.2077  -14.4676   25.2791 C   0  0  0  0  0  0  0  0  0  0  0  0
    6.7421  -15.4335   24.2854 C   0  0  2  0  0  0  0  0  0  0  0  0
    5.6208  -16.3330   23.9048 N   0  0  0  0  0  0  0  0  0  0  0  0
    7.9155  -16.2186   24.6336 C   0  0  0  0  0  0  0  0  0  0  0  0
    7.9404  -16.9228   25.6649 O   0  0  0  0  0  0  0  0  0  0  0  0
   11.2473  -17.1481   23.0316 C   0  0  0  0  0  0  0  0  0  0  0  0
   10.2763  -17.0099   24.1834 C   0  0  2  0  0  0  0  0  0  0  0  0
    9.1120  -16.2530   23.8476 N   0  0  0  0  0  0  0  0  0  0  0  0
   10.9934  -16.4359   25.3709 C   0  0  0  0  0  0  0  0  0  0  0  0
   12.0217  -15.7294   25.2227 O   0  0  0  0  0  0  0  0  0  0  0  0
   11.4760  -14.5466   29.6493 C   0  0  0  0  0  0  0  0  0  0  0  0
   10.7259  -15.0130   28.4469 C   0  0  1  0  0  0  0  0  0  0  0  0
   10.6842  -13.8897   27.4355 C   0  0  0  0  0  0  0  0  0  0  0  0
   11.3391  -16.2462   27.8191 C   0  0  2  0  0  0  0  0  0  0  0  0
   10.5403  -16.6673   26.7053 N   0  0  0  0  0  0  0  0  0  0  0  0
   11.4822  -17.3197   28.8394 C   0  0  0  0  0  0  0  0  0  0  0  0
   12.6307  -17.4029   29.6487 O   0  0  0  0  0  0  0  0  0  0  0  0
   10.5904  -18.1836   29.0139 O   0  0  0  0  0  0  0  0  0  0  0  0
  2  1  1  1
  3  2  1  0
  4  2  1  0
  5  4  1  0
  5  7  1  0
  5  6  1  1
  7  8  2  0
  7 11  1  0
 10  9  1  6
 10 12  1  0
 11 10  1  0
 12 18  1  0
 12 13  2  0
 15 17  1  0
 15 14  1  1
 16 15  1  0
 17 19  1  0
 17 18  1  6
 19 20  1  0
 21 19  2  0
M  END
$$$$
