LAV.pdb
     RDKit          3D

 21 20  0  0  1  0  0  0  0  0999 V2000
    9.6695  -13.9943   18.8997 C   0  0  0  0  0  0  0  0  0  0  0  0
    8.2019  -13.8224   18.7386 C   0  0  2  0  0  0  0  0  0  0  0  0
    7.9308  -12.3404   18.4318 C   0  0  0  0  0  0  0  0  0  0  0  0
    7.3137  -14.3330   19.7920 C   0  0  0  0  0  0  0  0  0  0  0  0
    7.5513  -15.6959   20.3325 C   0  0  2  0  0  0  0  0  0  0  0  0
    6.8190  -16.6470   19.4548 N   0  0  0  0  0  0  0  0  0  0  0  0
    7.2365  -15.9603   21.7273 C   0  0  0  0  0  0  0  0  0  0  0  0
    6.0940  -15.7468   22.1847 O   0  0  0  0  0  0  0  0  0  0  0  0
    8.5167  -17.9712   24.5893 C   0  0  0  0  0  0  0  0  0  0  0  0
    7.8987  -16.6978   24.0554 C   0  0  2  0  0  0  0  0  0  0  0  0
    8.1813  -16.4741   22.6729 N   0  0  0  0  0  0  0  0  0  0  0  0
    8.3304  -15.5407   24.9089 C   0  0  0  0  0  0  0  0  0  0  0  0
    9.4277  -14.9637   24.7045 O   0  0  0  0  0  0  0  0  0  0  0  0
    7.0916  -11.9105   27.9741 C   0  0  0  0  0  0  0  0  0  0  0  0
    6.7284  -13.1370   27.2064 C   0  0  1  0  0  0  0  0  0  0  0  0
    5.8875  -12.7331   26.0163 C   0  0  0  0  0  0  0  0  0  0  0  0
    7.9410  -13.9125   26.7383 C   0  0  2  0  0  0  0  0  0  0  0  0
    7.5193  -15.0530   25.9783 N   0  0  0  0  0  0  0  0  0  0  0  0
    8.7795  -14.2997   27.9049 C   0  0  0  0  0  0  0  0  0  0  0  0
    9.6876  -13.3905   28.4791 O   0  0  0  0  0  0  0  0  0  0  0  0
    8.7079  -15.4426   28.4153 O   0  0  0  0  0  0  0  0  0  0  0  0
  2  1  1  1
  3  2  1  0
  4  2  1  0
  5  4  1  0
  5  7  1  0
  5  6  1  6
  7  8  2  0
  7 11  1  0
 10  9  1  1
 10 12  1  0
 11 10  1  0
 12 18  1  0
 12 13  2  0
 15 17  1  0
 15 14  1  6
 16 15  1  0
 17 19  1  0
 17 18  1  1
 19 20  1  0
 21 19  2  0
M  END
$$$$
