LAV.pdb
     RDKit          3D

 21 20  0  0  1  0  0  0  0  0999 V2000
    9.2537  -13.5699   20.7267 C   0  0  0  0  0  0  0  0  0  0  0  0
    8.1313  -13.6977   19.7607 C   0  0  2  0  0  0  0  0  0  0  0  0
    7.6851  -12.2805   19.3651 C   0  0  0  0  0  0  0  0  0  0  0  0
    6.9888  -14.5499   20.1181 C   0  0  0  0  0  0  0  0  0  0  0  0
    7.2488  -15.8996   20.6808 C   0  0  2  0  0  0  0  0  0  0  0  0
    6.2161  -16.8117   20.1214 N   0  0  0  0  0  0  0  0  0  0  0  0
    7.3213  -16.0537   22.1249 C   0  0  0  0  0  0  0  0  0  0  0  0
    6.3873  -15.6771   22.8638 O   0  0  0  0  0  0  0  0  0  0  0  0
    9.0717  -18.2700   24.5256 C   0  0  0  0  0  0  0  0  0  0  0  0
    8.4673  -16.9200   24.2078 C   0  0  2  0  0  0  0  0  0  0  0  0
    8.4379  -16.6342   22.8083 N   0  0  0  0  0  0  0  0  0  0  0  0
    9.1927  -15.8570   24.9808 C   0  0  0  0  0  0  0  0  0  0  0  0
   10.2755  -15.3794   24.5587 O   0  0  0  0  0  0  0  0  0  0  0  0
    8.0235  -12.4960   26.1200 C   0  0  0  0  0  0  0  0  0  0  0  0
    8.5468  -13.2125   27.3193 C   0  0  1  0  0  0  0  0  0  0  0  0
    7.3757  -13.6984   28.1433 C   0  0  0  0  0  0  0  0  0  0  0  0
    9.4392  -14.3804   26.9577 C   0  0  2  0  0  0  0  0  0  0  0  0
    8.6867  -15.3498   26.2162 N   0  0  0  0  0  0  0  0  0  0  0  0
   10.0389  -14.9634   28.1883 C   0  0  0  0  0  0  0  0  0  0  0  0
   11.0385  -14.2774   28.9033 O   0  0  0  0  0  0  0  0  0  0  0  0
    9.6777  -16.0798   28.6301 O   0  0  0  0  0  0  0  0  0  0  0  0
  2  1  1  1
  3  2  1  0
  4  2  1  0
  5  4  1  0
  5  7  1  0
  5  6  1  1
  7  8  2  0
  7 11  1  0
 10  9  1  6
 10 12  1  0
 11 10  1  0
 12 18  1  0
 12 13  2  0
 15 17  1  0
 15 14  1  6
 16 15  1  0
 17 19  1  0
 17 18  1  1
 19 20  1  0
 21 19  2  0
M  END
$$$$
