LAV.pdb
     RDKit          3D

 21 20  0  0  1  0  0  0  0  0999 V2000
    9.3225  -13.9904   18.6579 C   0  0  0  0  0  0  0  0  0  0  0  0
    7.8727  -13.7551   18.8863 C   0  0  2  0  0  0  0  0  0  0  0  0
    7.5793  -12.2781   18.5757 C   0  0  0  0  0  0  0  0  0  0  0  0
    7.2855  -14.1706   20.1676 C   0  0  0  0  0  0  0  0  0  0  0  0
    7.4973  -15.5642   20.6355 C   0  0  2  0  0  0  0  0  0  0  0  0
    6.5165  -16.4197   19.9160 N   0  0  0  0  0  0  0  0  0  0  0  0
    7.4465  -15.8387   22.0626 C   0  0  0  0  0  0  0  0  0  0  0  0
    6.4060  -15.6378   22.7237 O   0  0  0  0  0  0  0  0  0  0  0  0
    9.2034  -17.9615   24.5478 C   0  0  0  0  0  0  0  0  0  0  0  0
    8.5052  -16.6633   24.2077 C   0  0  2  0  0  0  0  0  0  0  0  0
    8.5531  -16.3490   22.8148 N   0  0  0  0  0  0  0  0  0  0  0  0
    9.0738  -15.5585   25.0502 C   0  0  0  0  0  0  0  0  0  0  0  0
   10.1559  -15.0017   24.7376 O   0  0  0  0  0  0  0  0  0  0  0  0
    7.8083  -12.2287   25.9605 C   0  0  0  0  0  0  0  0  0  0  0  0
    8.0963  -12.9358   27.2422 C   0  0  1  0  0  0  0  0  0  0  0  0
    6.7902  -13.4103   27.8384 C   0  0  0  0  0  0  0  0  0  0  0  0
    9.0347  -14.1098   27.0625 C   0  0  2  0  0  0  0  0  0  0  0  0
    8.4142  -15.0993   26.2307 N   0  0  0  0  0  0  0  0  0  0  0  0
    9.4212  -14.6607   28.3895 C   0  0  0  0  0  0  0  0  0  0  0  0
   10.2749  -13.9462   29.2508 O   0  0  0  0  0  0  0  0  0  0  0  0
    9.0031  -15.7742   28.7860 O   0  0  0  0  0  0  0  0  0  0  0  0
  2  1  1  1
  3  2  1  0
  4  2  1  0
  5  4  1  0
  5  7  1  0
  5  6  1  6
  7  8  2  0
  7 11  1  0
 10  9  1  6
 10 12  1  0
 11 10  1  0
 12 18  1  0
 12 13  2  0
 15 17  1  0
 15 14  1  6
 16 15  1  0
 17 19  1  0
 17 18  1  6
 19 20  1  0
 21 19  2  0
M  END
$$$$
