LAV.pdb
     RDKit          3D

 21 20  0  0  1  0  0  0  0  0999 V2000
    9.5367  -13.6725   19.5277 C   0  0  0  0  0  0  0  0  0  0  0  0
    8.1752  -13.6938   18.9315 C   0  0  2  0  0  0  0  0  0  0  0  0
    7.7240  -12.2375   18.7326 C   0  0  0  0  0  0  0  0  0  0  0  0
    7.1352  -14.5037   19.5807 C   0  0  0  0  0  0  0  0  0  0  0  0
    7.5390  -15.7128   20.3429 C   0  0  2  0  0  0  0  0  0  0  0  0
    7.0710  -16.8930   19.5685 N   0  0  0  0  0  0  0  0  0  0  0  0
    7.1288  -15.8334   21.7327 C   0  0  0  0  0  0  0  0  0  0  0  0
    5.9462  -15.6289   22.0787 O   0  0  0  0  0  0  0  0  0  0  0  0
    7.8467  -17.7354   24.6946 C   0  0  0  0  0  0  0  0  0  0  0  0
    7.6244  -16.3369   24.1624 C   0  0  2  0  0  0  0  0  0  0  0  0
    8.0188  -16.1871   22.7974 N   0  0  0  0  0  0  0  0  0  0  0  0
    8.3171  -15.3497   25.0564 C   0  0  0  0  0  0  0  0  0  0  0  0
    9.5655  -15.2123   25.0190 O   0  0  0  0  0  0  0  0  0  0  0  0
    7.0656  -11.6458   25.9683 C   0  0  0  0  0  0  0  0  0  0  0  0
    7.4125  -12.4511   27.1753 C   0  0  1  0  0  0  0  0  0  0  0  0
    6.1326  -12.9254   27.8262 C   0  0  0  0  0  0  0  0  0  0  0  0
    8.2935  -13.6384   26.8508 C   0  0  2  0  0  0  0  0  0  0  0  0
    7.5924  -14.5338   25.9776 N   0  0  0  0  0  0  0  0  0  0  0  0
    8.7263  -14.3097   28.1062 C   0  0  0  0  0  0  0  0  0  0  0  0
    9.6928  -13.7245   28.9457 O   0  0  0  0  0  0  0  0  0  0  0  0
    8.2488  -15.4138   28.4594 O   0  0  0  0  0  0  0  0  0  0  0  0
  2  1  1  1
  3  2  1  0
  4  2  1  0
  5  4  1  0
  5  7  1  0
  5  6  1  6
  7  8  2  0
  7 11  1  0
 10  9  1  1
 10 12  1  0
 11 10  1  0
 12 18  1  0
 12 13  2  0
 15 17  1  0
 15 14  1  6
 16 15  1  0
 17 19  1  0
 17 18  1  6
 19 20  1  0
 21 19  2  0
M  END
$$$$
