LAV.pdb
     RDKit          3D

 21 20  0  0  1  0  0  0  0  0999 V2000
    9.8387  -13.2837   19.3596 C   0  0  0  0  0  0  0  0  0  0  0  0
    8.4561  -13.4965   18.8573 C   0  0  2  0  0  0  0  0  0  0  0  0
    7.7741  -12.1223   18.7549 C   0  0  0  0  0  0  0  0  0  0  0  0
    7.6031  -14.4797   19.5391 C   0  0  0  0  0  0  0  0  0  0  0  0
    8.2357  -15.6757   20.1520 C   0  0  2  0  0  0  0  0  0  0  0  0
    7.8912  -16.8397   19.2930 N   0  0  0  0  0  0  0  0  0  0  0  0
    7.9511  -15.9816   21.5447 C   0  0  0  0  0  0  0  0  0  0  0  0
    6.7869  -15.9294   21.9941 O   0  0  0  0  0  0  0  0  0  0  0  0
    9.5203  -17.8059   24.3972 C   0  0  0  0  0  0  0  0  0  0  0  0
    8.6874  -16.6588   23.8688 C   0  0  2  0  0  0  0  0  0  0  0  0
    8.9517  -16.3592   22.4972 N   0  0  0  0  0  0  0  0  0  0  0  0
    8.8791  -15.4590   24.7506 C   0  0  0  0  0  0  0  0  0  0  0  0
    9.9238  -14.7649   24.6756 O   0  0  0  0  0  0  0  0  0  0  0  0
    7.0804  -11.9811   27.6764 C   0  0  0  0  0  0  0  0  0  0  0  0
    6.8951  -13.1300   26.7429 C   0  0  1  0  0  0  0  0  0  0  0  0
    6.4676  -12.5954   25.3946 C   0  0  0  0  0  0  0  0  0  0  0  0
    8.1483  -13.9649   26.5898 C   0  0  2  0  0  0  0  0  0  0  0  0
    7.8911  -15.0610   25.7019 N   0  0  0  0  0  0  0  0  0  0  0  0
    8.6184  -14.4273   27.9237 C   0  0  0  0  0  0  0  0  0  0  0  0
    8.5564  -15.7867   28.2835 O   0  0  0  0  0  0  0  0  0  0  0  0
    9.0838  -13.6279   28.7700 O   0  0  0  0  0  0  0  0  0  0  0  0
  2  1  1  1
  3  2  1  0
  4  2  1  0
  5  4  1  0
  5  7  1  0
  5  6  1  6
  7  8  2  0
  7 11  1  0
 10  9  1  1
 10 12  1  0
 11 10  1  0
 12 18  1  0
 12 13  2  0
 15 17  1  0
 15 14  1  1
 16 15  1  0
 17 19  1  0
 17 18  1  6
 19 20  1  0
 21 19  2  0
M  END
$$$$
