PEQ.pdb
     RDKit          3D

 26 26  0  0  1  0  0  0  0  0999 V2000
    9.4699  -14.3422   18.4857 N   0  0  0  0  0  0  0  0  0  0  0  0
    8.7369  -14.3359   17.2542 C   0  0  0  0  0  0  0  0  0  0  0  0
    7.7513  -13.2200   17.4254 C   0  0  0  0  0  0  0  0  0  0  0  0
    7.3196  -13.4181   18.8807 C   0  0  0  0  0  0  0  0  0  0  0  0
    8.6278  -13.8049   19.5204 C   0  0  1  0  0  0  0  0  0  0  0  0
    8.4537  -14.7932   20.6203 C   0  0  0  0  0  0  0  0  0  0  0  0
    7.5637  -14.7073   21.4894 O   0  0  0  0  0  0  0  0  0  0  0  0
    9.3402  -15.8977   20.6975 N   0  0  0  0  0  0  0  0  0  0  0  0
    9.3554  -16.7749   21.8647 C   0  0  1  0  0  0  0  0  0  0  0  0
   10.3039  -17.9224   21.6601 C   0  0  0  0  0  0  0  0  0  0  0  0
   10.3133  -18.9226   22.7589 C   0  0  0  0  0  0  0  0  0  0  0  0
   11.1704  -20.0698   22.3490 C   0  0  0  0  0  0  0  0  0  0  0  0
   10.8446  -21.2460   22.6216 O   0  0  0  0  0  0  0  0  0  0  0  0
    9.6162  -15.9590   23.0534 C   0  0  0  0  0  0  0  0  0  0  0  0
   10.6267  -15.2043   23.1756 O   0  0  0  0  0  0  0  0  0  0  0  0
   12.3702  -19.8519   21.6430 O   0  0  0  0  0  0  0  0  0  0  0  0
    5.3585  -12.6607   26.0115 N   0  0  0  0  0  0  0  0  0  0  0  0
    6.5205  -12.4214   26.7872 C   0  0  0  0  0  0  0  0  0  0  0  0
    6.4392  -11.4821   27.6514 O   0  0  0  0  0  0  0  0  0  0  0  0
    7.7276  -13.2368   26.5810 C   0  0  0  0  0  0  0  0  0  0  0  0
    7.7051  -14.2017   25.4610 C   0  0  0  0  0  0  0  0  0  0  0  0
    8.9124  -15.0291   25.3110 C   0  0  2  0  0  0  0  0  0  0  0  0
    8.7331  -15.9639   24.1663 N   0  0  0  0  0  0  0  0  0  0  0  0
    9.3459  -15.7996   26.4457 C   0  0  0  0  0  0  0  0  0  0  0  0
    9.1245  -17.0522   26.4944 O   0  0  0  0  0  0  0  0  0  0  0  0
   10.0187  -15.2776   27.5284 O   0  0  0  0  0  0  0  0  0  0  0  0
  1  2  1  0
  1  5  1  0
  2  3  1  0
  3  4  1  0
  5  4  1  0
  6  7  2  0
  5  6  1  1
  8  6  1  0
  9  8  1  0
  9 10  1  6
 11 10  1  0
 12 11  1  0
 13 12  2  0
 14  9  1  0
 15 14  2  0
 16 12  1  0
 18 17  1  0
 19 18  2  0
 20 18  1  0
 22 21  1  1
 21 20  1  0
 22 23  1  0
 23 14  1  0
 24 22  1  0
 25 24  2  0
 26 24  1  0
M  END
$$$$
