PEQ.pdb
     RDKit          3D

 26 26  0  0  1  0  0  0  0  0999 V2000
    9.2622  -14.2794   18.9769 N   0  0  0  0  0  0  0  0  0  0  0  0
    8.4534  -14.2447   17.7943 C   0  0  0  0  0  0  0  0  0  0  0  0
    7.5252  -13.0907   18.0244 C   0  0  0  0  0  0  0  0  0  0  0  0
    7.1792  -13.2713   19.5047 C   0  0  0  0  0  0  0  0  0  0  0  0
    8.5091  -13.7090   20.0614 C   0  0  1  0  0  0  0  0  0  0  0  0
    8.3664  -14.6894   21.1729 C   0  0  0  0  0  0  0  0  0  0  0  0
    7.5369  -14.5686   22.0960 O   0  0  0  0  0  0  0  0  0  0  0  0
    9.2125  -15.8275   21.1973 N   0  0  0  0  0  0  0  0  0  0  0  0
    9.2248  -16.7362   22.3402 C   0  0  1  0  0  0  0  0  0  0  0  0
    9.9798  -17.9944   22.0161 C   0  0  0  0  0  0  0  0  0  0  0  0
    9.9334  -18.3943   20.5857 C   0  0  0  0  0  0  0  0  0  0  0  0
   10.7925  -19.5970   20.4012 C   0  0  0  0  0  0  0  0  0  0  0  0
   11.5575  -19.6964   19.4169 O   0  0  0  0  0  0  0  0  0  0  0  0
    9.7152  -16.0023   23.5096 C   0  0  0  0  0  0  0  0  0  0  0  0
   10.4242  -14.9550   23.4311 O   0  0  0  0  0  0  0  0  0  0  0  0
   10.7604  -20.6511   21.3357 O   0  0  0  0  0  0  0  0  0  0  0  0
    5.7573  -13.0150   25.5854 N   0  0  0  0  0  0  0  0  0  0  0  0
    6.6348  -12.8063   26.6789 C   0  0  0  0  0  0  0  0  0  0  0  0
    6.2934  -11.8975   27.5115 O   0  0  0  0  0  0  0  0  0  0  0  0
    7.8548  -13.6175   26.8128 C   0  0  0  0  0  0  0  0  0  0  0  0
    8.1356  -14.5936   25.7383 C   0  0  0  0  0  0  0  0  0  0  0  0
    9.3028  -15.4618   25.9581 C   0  0  2  0  0  0  0  0  0  0  0  0
    9.4197  -16.4289   24.8322 N   0  0  0  0  0  0  0  0  0  0  0  0
    9.3663  -16.2065   27.1871 C   0  0  0  0  0  0  0  0  0  0  0  0
    9.1065  -17.4525   27.1978 O   0  0  0  0  0  0  0  0  0  0  0  0
    9.7088  -15.6656   28.4067 O   0  0  0  0  0  0  0  0  0  0  0  0
  1  2  1  0
  1  5  1  0
  2  3  1  0
  3  4  1  0
  5  4  1  0
  6  7  2  0
  5  6  1  1
  8  6  1  0
  9  8  1  0
  9 10  1  6
 11 10  1  0
 12 11  1  0
 13 12  2  0
 14  9  1  0
 15 14  2  0
 16 12  1  0
 18 17  1  0
 19 18  2  0
 20 18  1  0
 22 21  1  6
 21 20  1  0
 22 23  1  0
 23 14  1  0
 24 22  1  0
 25 24  2  0
 26 24  1  0
M  END
$$$$
