PEQ.pdb
     RDKit          3D

 26 26  0  0  1  0  0  0  0  0999 V2000
    9.2874  -13.8793   19.3386 N   0  0  0  0  0  0  0  0  0  0  0  0
    8.4050  -13.8915   18.2094 C   0  0  0  0  0  0  0  0  0  0  0  0
    7.1739  -13.1949   18.7046 C   0  0  0  0  0  0  0  0  0  0  0  0
    7.0479  -13.7711   20.1174 C   0  0  0  0  0  0  0  0  0  0  0  0
    8.4939  -13.8272   20.5370 C   0  0  1  0  0  0  0  0  0  0  0  0
    8.7882  -14.9956   21.4116 C   0  0  0  0  0  0  0  0  0  0  0  0
    8.1083  -15.2953   22.4130 O   0  0  0  0  0  0  0  0  0  0  0  0
    9.8985  -15.8222   21.1024 N   0  0  0  0  0  0  0  0  0  0  0  0
   10.3404  -16.8691   22.0194 C   0  0  1  0  0  0  0  0  0  0  0  0
   11.4746  -17.6568   21.4265 C   0  0  0  0  0  0  0  0  0  0  0  0
   11.9616  -18.7761   22.2737 C   0  0  0  0  0  0  0  0  0  0  0  0
   12.9171  -19.5942   21.4758 C   0  0  0  0  0  0  0  0  0  0  0  0
   13.9512  -19.0849   20.9909 O   0  0  0  0  0  0  0  0  0  0  0  0
   10.6239  -16.2561   23.3195 C   0  0  0  0  0  0  0  0  0  0  0  0
   10.8119  -15.0134   23.4806 O   0  0  0  0  0  0  0  0  0  0  0  0
   12.6739  -20.9637   21.2505 O   0  0  0  0  0  0  0  0  0  0  0  0
    8.7620  -12.6605   26.0088 N   0  0  0  0  0  0  0  0  0  0  0  0
    9.1112  -13.4070   27.1620 C   0  0  0  0  0  0  0  0  0  0  0  0
    9.4550  -12.7294   28.1908 O   0  0  0  0  0  0  0  0  0  0  0  0
    9.0598  -14.8771   27.1345 C   0  0  0  0  0  0  0  0  0  0  0  0
    9.3670  -15.5375   25.8478 C   0  0  0  0  0  0  0  0  0  0  0  0
   10.5403  -16.4251   25.8536 C   0  0  2  0  0  0  0  0  0  0  0  0
   10.7073  -17.0341   24.5054 N   0  0  0  0  0  0  0  0  0  0  0  0
   10.5774  -17.4861   26.8242 C   0  0  0  0  0  0  0  0  0  0  0  0
   10.0474  -18.6138   26.5641 O   0  0  0  0  0  0  0  0  0  0  0  0
   11.1718  -17.3860   28.0627 O   0  0  0  0  0  0  0  0  0  0  0  0
  1  2  1  0
  1  5  1  0
  2  3  1  0
  3  4  1  0
  5  4  1  0
  6  7  2  0
  5  6  1  1
  8  6  1  0
  9  8  1  0
  9 10  1  6
 11 10  1  0
 12 11  1  0
 13 12  2  0
 14  9  1  0
 15 14  2  0
 16 12  1  0
 18 17  1  0
 19 18  2  0
 20 18  1  0
 22 21  1  6
 21 20  1  0
 22 23  1  0
 23 14  1  0
 24 22  1  0
 25 24  2  0
 26 24  1  0
M  END
$$$$
