CWH.pdb
     RDKit          3D

 31 33  0  0  1  0  0  0  0  0999 V2000
   28.6574  -22.6341  -15.4953 N   0  0  0  0  0  0  0  0  0  0  0  0
   28.2779  -21.2844  -15.0636 C   0  0  1  0  0  0  0  0  0  0  0  0
   27.4278  -20.6464  -16.1478 C   0  0  0  0  0  0  0  0  0  0  0  0
   28.4798  -20.1132  -17.5051 S   0  0  0  0  0  0  0  0  0  0  0  0
   27.6230  -21.3247  -13.7451 C   0  0  0  0  0  0  0  0  0  0  0  0
   26.7055  -22.1925  -13.5811 O   0  0  0  0  0  0  0  0  0  0  0  0
   27.9087  -20.4978  -12.6364 N   0  0  0  0  0  0  0  0  0  0  0  0
   27.1472  -20.5961  -11.4305 C   0  0  1  0  0  0  0  0  0  0  0  0
   27.6869  -19.7786  -10.2764 C   0  0  0  0  0  0  0  0  0  0  0  0
   26.9964  -20.0954   -8.9895 C   0  0  0  0  0  0  0  0  0  0  0  0
   25.6493  -20.4591   -8.9138 C   0  0  0  0  0  0  0  0  0  0  0  0
   25.3946  -20.6858   -7.6277 N   0  0  0  0  0  0  0  0  0  0  0  0
   26.4834  -20.4921   -6.8789 C   0  0  0  0  0  0  0  0  0  0  0  0
   26.7301  -20.5876   -5.5321 C   0  0  0  0  0  0  0  0  0  0  0  0
   27.9695  -20.3180   -5.0116 C   0  0  0  0  0  0  0  0  0  0  0  0
   28.9736  -19.9440   -5.8863 C   0  0  0  0  0  0  0  0  0  0  0  0
   28.7643  -19.8370   -7.2480 C   0  0  0  0  0  0  0  0  0  0  0  0
   27.5004  -20.1191   -7.7251 C   0  0  0  0  0  0  0  0  0  0  0  0
   25.7042  -20.3373  -11.6362 C   0  0  0  0  0  0  0  0  0  0  0  0
   25.2320  -19.2101  -11.9347 O   0  0  0  0  0  0  0  0  0  0  0  0
   24.7808  -21.4051  -11.4943 N   0  0  0  0  0  0  0  0  0  0  0  0
   23.4135  -21.2510  -11.9800 C   0  0  1  0  0  0  0  0  0  0  0  0
   22.8242  -22.6374  -12.1257 C   0  0  0  0  0  0  0  0  0  0  0  0
   21.4335  -22.6294  -12.5911 C   0  0  0  0  0  0  0  0  0  0  0  0
   20.6502  -21.5119  -12.8292 C   0  0  0  0  0  0  0  0  0  0  0  0
   19.4572  -21.9448  -13.2381 N   0  0  0  0  0  0  0  0  0  0  0  0
   19.4693  -23.2778  -13.2629 C   0  0  0  0  0  0  0  0  0  0  0  0
   20.6838  -23.7196  -12.8658 N   0  0  0  0  0  0  0  0  0  0  0  0
   22.6540  -20.4268  -11.0237 C   0  0  0  0  0  0  0  0  0  0  0  0
   21.9409  -19.3397  -11.5139 O   0  0  0  0  0  0  0  0  0  0  0  0
   22.6115  -20.6469   -9.7900 O   0  0  0  0  0  0  0  0  0  0  0  0
  2  1  1  6
  3  2  1  0
  4  3  1  0
  5  6  2  0
  5  2  1  0
  7  5  1  0
  8  9  1  1
  8  7  1  0
 10 18  1  0
 10  9  1  0
 11 10  2  0
 12 11  1  0
 12 13  1  0
 13 14  1  0
 13 18  2  0
 14 15  2  0
 15 16  1  0
 17 16  2  0
 18 17  1  0
 19  8  1  0
 20 19  2  0
 21 19  1  0
 22 29  1  0
 22 21  1  0
 22 23  1  1
 24 23  1  0
 25 24  2  0
 26 27  1  0
 26 25  1  0
 27 28  2  0
 28 24  1  0
 29 30  1  0
 31 29  2  0
M  END
$$$$
