CWH.pdb
     RDKit          3D

 31 33  0  0  1  0  0  0  0  0999 V2000
   27.7987  -24.8405  -16.9593 N   0  0  0  0  0  0  0  0  0  0  0  0
   27.7738  -23.3752  -16.8919 C   0  0  1  0  0  0  0  0  0  0  0  0
   27.2714  -22.8344  -18.2188 C   0  0  0  0  0  0  0  0  0  0  0  0
   25.4966  -23.0947  -18.3444 S   0  0  0  0  0  0  0  0  0  0  0  0
   26.9881  -22.9209  -15.7321 C   0  0  0  0  0  0  0  0  0  0  0  0
   26.3875  -23.8159  -15.0537 O   0  0  0  0  0  0  0  0  0  0  0  0
   26.8313  -21.5888  -15.2898 N   0  0  0  0  0  0  0  0  0  0  0  0
   26.0560  -21.2867  -14.1273 C   0  0  1  0  0  0  0  0  0  0  0  0
   26.5709  -20.1193  -13.3127 C   0  0  0  0  0  0  0  0  0  0  0  0
   27.5019  -20.5556  -12.2282 C   0  0  0  0  0  0  0  0  0  0  0  0
   28.8394  -20.8893  -12.4568 C   0  0  0  0  0  0  0  0  0  0  0  0
   29.3552  -21.2016  -11.2707 N   0  0  0  0  0  0  0  0  0  0  0  0
   28.4414  -21.0910  -10.3031 C   0  0  0  0  0  0  0  0  0  0  0  0
   28.4741  -21.3024   -8.9474 C   0  0  0  0  0  0  0  0  0  0  0  0
   27.3612  -21.1180   -8.1680 C   0  0  0  0  0  0  0  0  0  0  0  0
   26.1943  -20.7100   -8.7888 C   0  0  0  0  0  0  0  0  0  0  0  0
   26.1220  -20.4867  -10.1506 C   0  0  0  0  0  0  0  0  0  0  0  0
   27.2682  -20.6848  -10.8932 C   0  0  0  0  0  0  0  0  0  0  0  0
   24.6125  -21.1355  -14.4193 C   0  0  0  0  0  0  0  0  0  0  0  0
   24.1615  -20.4763  -15.3912 O   0  0  0  0  0  0  0  0  0  0  0  0
   23.6637  -21.7602  -13.5693 N   0  0  0  0  0  0  0  0  0  0  0  0
   22.2389  -21.6374  -13.8588 C   0  0  1  0  0  0  0  0  0  0  0  0
   21.5187  -22.6980  -13.0544 C   0  0  0  0  0  0  0  0  0  0  0  0
   20.0830  -22.7695  -13.3445 C   0  0  0  0  0  0  0  0  0  0  0  0
   19.3658  -21.9208  -14.1719 C   0  0  0  0  0  0  0  0  0  0  0  0
   18.0980  -22.3333  -14.1586 N   0  0  0  0  0  0  0  0  0  0  0  0
   18.0009  -23.3974  -13.3609 C   0  0  0  0  0  0  0  0  0  0  0  0
   19.2190  -23.6822  -12.8481 N   0  0  0  0  0  0  0  0  0  0  0  0
   21.7920  -20.2788  -13.5050 C   0  0  0  0  0  0  0  0  0  0  0  0
   20.9242  -19.6255  -14.3714 O   0  0  0  0  0  0  0  0  0  0  0  0
   22.1482  -19.6737  -12.4662 O   0  0  0  0  0  0  0  0  0  0  0  0
  2  1  1  6
  3  2  1  0
  4  3  1  0
  5  6  2  0
  5  2  1  0
  7  5  1  0
  8  9  1  6
  8  7  1  0
 10 18  1  0
 10  9  1  0
 11 10  2  0
 12 11  1  0
 12 13  1  0
 13 14  1  0
 13 18  2  0
 14 15  2  0
 15 16  1  0
 17 16  2  0
 18 17  1  0
 19  8  1  0
 20 19  2  0
 21 19  1  0
 22 29  1  0
 22 21  1  0
 22 23  1  1
 24 23  1  0
 25 24  2  0
 26 27  1  0
 26 25  1  0
 27 28  2  0
 28 24  1  0
 29 30  1  0
 31 29  2  0
M  END
$$$$
