CWH.pdb
     RDKit          3D

 31 33  0  0  1  0  0  0  0  0999 V2000
   19.5939  -27.5926  -11.9553 N   0  0  0  0  0  0  0  0  0  0  0  0
   18.4783  -26.8684  -11.3363 C   0  0  1  0  0  0  0  0  0  0  0  0
   17.2751  -27.7919  -11.2680 C   0  0  0  0  0  0  0  0  0  0  0  0
   16.8000  -28.2892  -12.9294 S   0  0  0  0  0  0  0  0  0  0  0  0
   18.8765  -26.3177  -10.0298 C   0  0  0  0  0  0  0  0  0  0  0  0
   19.3610  -27.1343   -9.1811 O   0  0  0  0  0  0  0  0  0  0  0  0
   18.7782  -24.9705   -9.6175 N   0  0  0  0  0  0  0  0  0  0  0  0
   19.1449  -24.5785   -8.2925 C   0  0  1  0  0  0  0  0  0  0  0  0
   19.8835  -23.2599   -8.2074 C   0  0  0  0  0  0  0  0  0  0  0  0
   19.8538  -22.5124   -9.5011 C   0  0  0  0  0  0  0  0  0  0  0  0
   19.2423  -23.0068  -10.6562 C   0  0  0  0  0  0  0  0  0  0  0  0
   19.3927  -22.0704  -11.5893 N   0  0  0  0  0  0  0  0  0  0  0  0
   20.0568  -21.0150  -11.1110 C   0  0  0  0  0  0  0  0  0  0  0  0
   20.4599  -19.8254  -11.6643 C   0  0  0  0  0  0  0  0  0  0  0  0
   21.1536  -18.8958  -10.9333 C   0  0  0  0  0  0  0  0  0  0  0  0
   21.4394  -19.1904   -9.6124 C   0  0  0  0  0  0  0  0  0  0  0  0
   21.0505  -20.3766   -9.0199 C   0  0  0  0  0  0  0  0  0  0  0  0
   20.3538  -21.2809   -9.7955 C   0  0  0  0  0  0  0  0  0  0  0  0
   18.0082  -24.6132   -7.3447 C   0  0  0  0  0  0  0  0  0  0  0  0
   16.8143  -24.8044   -7.6920 O   0  0  0  0  0  0  0  0  0  0  0  0
   18.2533  -24.4228   -5.9603 N   0  0  0  0  0  0  0  0  0  0  0  0
   17.2904  -24.9116   -4.9791 C   0  0  1  0  0  0  0  0  0  0  0  0
   16.3001  -25.7900   -5.7129 C   0  0  0  0  0  0  0  0  0  0  0  0
   15.1147  -26.1184   -4.9145 C   0  0  0  0  0  0  0  0  0  0  0  0
   14.8639  -25.7240   -3.6104 C   0  0  0  0  0  0  0  0  0  0  0  0
   13.6822  -26.2344   -3.2629 N   0  0  0  0  0  0  0  0  0  0  0  0
   13.1931  -26.9253   -4.2931 C   0  0  0  0  0  0  0  0  0  0  0  0
   14.0655  -26.8649   -5.3242 N   0  0  0  0  0  0  0  0  0  0  0  0
   18.0095  -25.6511   -3.9272 C   0  0  0  0  0  0  0  0  0  0  0  0
   17.3010  -26.0453   -2.7988 O   0  0  0  0  0  0  0  0  0  0  0  0
   19.2263  -25.9477   -3.9879 O   0  0  0  0  0  0  0  0  0  0  0  0
  2  1  1  1
  3  2  1  0
  4  3  1  0
  5  6  2  0
  5  2  1  0
  7  5  1  0
  8  9  1  6
  8  7  1  0
 10 18  1  0
 10  9  1  0
 11 10  2  0
 12 11  1  0
 12 13  1  0
 13 14  1  0
 13 18  2  0
 14 15  2  0
 15 16  1  0
 17 16  2  0
 18 17  1  0
 19  8  1  0
 20 19  2  0
 21 19  1  0
 22 29  1  0
 22 21  1  0
 22 23  1  6
 24 23  1  0
 25 24  2  0
 26 27  1  0
 26 25  1  0
 27 28  2  0
 28 24  1  0
 29 30  1  0
 31 29  2  0
M  END
$$$$
