CWH.pdb
     RDKit          3D

 31 33  0  0  1  0  0  0  0  0999 V2000
   23.7348  -11.4927  -21.1448 N   0  0  0  0  0  0  0  0  0  0  0  0
   24.2135  -10.1126  -21.2795 C   0  0  1  0  0  0  0  0  0  0  0  0
   23.5262   -9.4722  -22.4725 C   0  0  0  0  0  0  0  0  0  0  0  0
   22.1779   -8.4273  -21.9039 S   0  0  0  0  0  0  0  0  0  0  0  0
   24.0261   -9.3716  -20.0207 C   0  0  0  0  0  0  0  0  0  0  0  0
   23.1510   -9.8188  -19.2108 O   0  0  0  0  0  0  0  0  0  0  0  0
   24.7206   -8.2108  -19.6145 N   0  0  0  0  0  0  0  0  0  0  0  0
   24.3732   -7.5316  -18.4055 C   0  0  1  0  0  0  0  0  0  0  0  0
   25.5544   -7.1123  -17.5568 C   0  0  0  0  0  0  0  0  0  0  0  0
   26.1249   -8.2547  -16.7806 C   0  0  0  0  0  0  0  0  0  0  0  0
   27.3945   -8.7857  -17.0228 C   0  0  0  0  0  0  0  0  0  0  0  0
   27.5678   -9.7612  -16.1348 N   0  0  0  0  0  0  0  0  0  0  0  0
   26.4989   -9.8897  -15.3445 C   0  0  0  0  0  0  0  0  0  0  0  0
   26.1907  -10.7321  -14.3057 C   0  0  0  0  0  0  0  0  0  0  0  0
   24.9866  -10.6536  -13.6548 C   0  0  0  0  0  0  0  0  0  0  0  0
   24.0823   -9.6952  -14.0759 C   0  0  0  0  0  0  0  0  0  0  0  0
   24.3560   -8.8293  -15.1174 C   0  0  0  0  0  0  0  0  0  0  0  0
   25.5814   -8.9461  -15.7413 C   0  0  0  0  0  0  0  0  0  0  0  0
   23.4478   -6.3972  -18.6261 C   0  0  0  0  0  0  0  0  0  0  0  0
   23.5014   -5.6360  -19.6262 O   0  0  0  0  0  0  0  0  0  0  0  0
   22.4340   -6.1329  -17.6693 N   0  0  0  0  0  0  0  0  0  0  0  0
   21.4774   -5.0567  -17.9047 C   0  0  1  0  0  0  0  0  0  0  0  0
   20.7292   -5.3843  -19.1789 C   0  0  0  0  0  0  0  0  0  0  0  0
   19.6747   -4.4160  -19.4965 C   0  0  0  0  0  0  0  0  0  0  0  0
   19.8549   -3.0986  -19.8853 C   0  0  0  0  0  0  0  0  0  0  0  0
   18.6443   -2.5729  -20.0749 N   0  0  0  0  0  0  0  0  0  0  0  0
   17.7262   -3.5059  -19.8209 C   0  0  0  0  0  0  0  0  0  0  0  0
   18.3448   -4.6531  -19.4615 N   0  0  0  0  0  0  0  0  0  0  0  0
   20.5737   -4.9550  -16.7455 C   0  0  0  0  0  0  0  0  0  0  0  0
   20.1263   -3.6945  -16.3690 O   0  0  0  0  0  0  0  0  0  0  0  0
   20.1823   -5.9397  -16.0752 O   0  0  0  0  0  0  0  0  0  0  0  0
  2  1  1  1
  3  2  1  0
  4  3  1  0
  5  6  2  0
  5  2  1  0
  7  5  1  0
  8  9  1  6
  8  7  1  0
 10 18  1  0
 10  9  1  0
 11 10  2  0
 12 11  1  0
 12 13  1  0
 13 14  1  0
 13 18  2  0
 14 15  2  0
 15 16  1  0
 17 16  2  0
 18 17  1  0
 19  8  1  0
 20 19  2  0
 21 19  1  0
 22 29  1  0
 22 21  1  0
 22 23  1  6
 24 23  1  0
 25 24  2  0
 26 27  1  0
 26 25  1  0
 27 28  2  0
 28 24  1  0
 29 30  1  0
 31 29  2  0
M  END
$$$$
