CWH.pdb
     RDKit          3D

 31 33  0  0  1  0  0  0  0  0999 V2000
   24.4749  -18.2688  -16.9326 N   0  0  0  0  0  0  0  0  0  0  0  0
   25.4228  -18.9284  -16.0279 C   0  0  1  0  0  0  0  0  0  0  0  0
   26.6970  -18.1046  -15.9714 C   0  0  0  0  0  0  0  0  0  0  0  0
   27.7851  -18.5813  -17.3212 S   0  0  0  0  0  0  0  0  0  0  0  0
   24.8088  -19.1597  -14.7094 C   0  0  0  0  0  0  0  0  0  0  0  0
   24.2545  -18.1611  -14.1461 O   0  0  0  0  0  0  0  0  0  0  0  0
   24.7687  -20.3808  -14.0009 N   0  0  0  0  0  0  0  0  0  0  0  0
   24.2049  -20.4513  -12.6890 C   0  0  1  0  0  0  0  0  0  0  0  0
   23.0035  -21.3641  -12.5679 C   0  0  0  0  0  0  0  0  0  0  0  0
   21.7568  -20.7279  -13.0915 C   0  0  0  0  0  0  0  0  0  0  0  0
   21.4482  -20.6561  -14.4525 C   0  0  0  0  0  0  0  0  0  0  0  0
   20.2660  -20.0515  -14.5368 N   0  0  0  0  0  0  0  0  0  0  0  0
   19.7998  -19.7328  -13.3265 C   0  0  0  0  0  0  0  0  0  0  0  0
   18.6580  -19.1081  -12.8909 C   0  0  0  0  0  0  0  0  0  0  0  0
   18.4251  -18.8933  -11.5570 C   0  0  0  0  0  0  0  0  0  0  0  0
   19.3790  -19.3260  -10.6536 C   0  0  0  0  0  0  0  0  0  0  0  0
   20.5407  -19.9588  -11.0531 C   0  0  0  0  0  0  0  0  0  0  0  0
   20.7303  -20.1533  -12.4062 C   0  0  0  0  0  0  0  0  0  0  0  0
   25.2095  -20.7535  -11.6444 C   0  0  0  0  0  0  0  0  0  0  0  0
   26.0222  -21.7113  -11.7127 O   0  0  0  0  0  0  0  0  0  0  0  0
   25.2798  -19.9304  -10.4909 N   0  0  0  0  0  0  0  0  0  0  0  0
   26.1893  -20.2800   -9.4047 C   0  0  1  0  0  0  0  0  0  0  0  0
   26.5222  -19.0039   -8.6623 C   0  0  0  0  0  0  0  0  0  0  0  0
   27.4271  -19.2134   -7.5275 C   0  0  0  0  0  0  0  0  0  0  0  0
   27.9774  -20.4189   -7.1235 C   0  0  0  0  0  0  0  0  0  0  0  0
   28.7378  -20.1691   -6.0571 N   0  0  0  0  0  0  0  0  0  0  0  0
   28.6814  -18.8649   -5.7853 C   0  0  0  0  0  0  0  0  0  0  0  0
   27.8752  -18.2571   -6.6845 N   0  0  0  0  0  0  0  0  0  0  0  0
   25.5366  -21.2713   -8.5318 C   0  0  0  0  0  0  0  0  0  0  0  0
   26.3425  -22.1177   -7.7803 O   0  0  0  0  0  0  0  0  0  0  0  0
   24.2937  -21.3987   -8.4252 O   0  0  0  0  0  0  0  0  0  0  0  0
  2  1  1  6
  3  2  1  0
  4  3  1  0
  5  6  2  0
  5  2  1  0
  7  5  1  0
  8  9  1  6
  8  7  1  0
 10 18  1  0
 10  9  1  0
 11 10  2  0
 12 11  1  0
 12 13  1  0
 13 14  1  0
 13 18  2  0
 14 15  2  0
 15 16  1  0
 17 16  2  0
 18 17  1  0
 19  8  1  0
 20 19  2  0
 21 19  1  0
 22 29  1  0
 22 21  1  0
 22 23  1  1
 24 23  1  0
 25 24  2  0
 26 27  1  0
 26 25  1  0
 27 28  2  0
 28 24  1  0
 29 30  1  0
 31 29  2  0
M  END
$$$$
