CWH.pdb
     RDKit          3D

 31 33  0  0  1  0  0  0  0  0999 V2000
   30.1212  -21.2381  -12.8536 N   0  0  0  0  0  0  0  0  0  0  0  0
   29.5439  -20.3450  -11.8431 C   0  0  1  0  0  0  0  0  0  0  0  0
   29.4587  -18.9439  -12.4219 C   0  0  0  0  0  0  0  0  0  0  0  0
   28.2541  -18.9138  -13.7566 S   0  0  0  0  0  0  0  0  0  0  0  0
   28.2528  -20.8669  -11.3640 C   0  0  0  0  0  0  0  0  0  0  0  0
   27.8007  -21.9092  -11.9394 O   0  0  0  0  0  0  0  0  0  0  0  0
   27.4597  -20.3303  -10.3259 N   0  0  0  0  0  0  0  0  0  0  0  0
   26.1849  -20.8940  -10.0084 C   0  0  1  0  0  0  0  0  0  0  0  0
   25.7344  -20.6686   -8.5809 C   0  0  0  0  0  0  0  0  0  0  0  0
   26.7197  -19.8614   -7.7994 C   0  0  0  0  0  0  0  0  0  0  0  0
   27.0556  -18.5438   -8.1216 C   0  0  0  0  0  0  0  0  0  0  0  0
   27.9328  -18.1461   -7.2035 N   0  0  0  0  0  0  0  0  0  0  0  0
   28.1797  -19.1166   -6.3200 C   0  0  0  0  0  0  0  0  0  0  0  0
   28.9929  -19.2029   -5.2177 C   0  0  0  0  0  0  0  0  0  0  0  0
   29.0664  -20.3510   -4.4717 C   0  0  0  0  0  0  0  0  0  0  0  0
   28.2932  -21.4294   -4.8621 C   0  0  0  0  0  0  0  0  0  0  0  0
   27.4625  -21.3811   -5.9653 C   0  0  0  0  0  0  0  0  0  0  0  0
   27.4216  -20.2038   -6.6844 C   0  0  0  0  0  0  0  0  0  0  0  0
   25.1264  -20.5050  -10.9676 C   0  0  0  0  0  0  0  0  0  0  0  0
   24.9888  -19.3398  -11.4216 O   0  0  0  0  0  0  0  0  0  0  0  0
   24.2023  -21.4838  -11.4155 N   0  0  0  0  0  0  0  0  0  0  0  0
   23.1709  -21.1196  -12.3812 C   0  0  1  0  0  0  0  0  0  0  0  0
   22.6027  -22.4038  -12.9454 C   0  0  0  0  0  0  0  0  0  0  0  0
   21.5052  -22.1844  -13.8929 C   0  0  0  0  0  0  0  0  0  0  0  0
   20.9240  -20.9685  -14.2142 C   0  0  0  0  0  0  0  0  0  0  0  0
   19.9679  -21.2117  -15.1112 N   0  0  0  0  0  0  0  0  0  0  0  0
   19.9332  -22.5217  -15.3575 C   0  0  0  0  0  0  0  0  0  0  0  0
   20.8772  -23.1400  -14.6129 N   0  0  0  0  0  0  0  0  0  0  0  0
   22.1416  -20.3123  -11.7033 C   0  0  0  0  0  0  0  0  0  0  0  0
   21.8033  -20.6409  -10.3963 O   0  0  0  0  0  0  0  0  0  0  0  0
   21.5498  -19.3434  -12.2354 O   0  0  0  0  0  0  0  0  0  0  0  0
  2  1  1  6
  3  2  1  0
  4  3  1  0
  5  6  2  0
  5  2  1  0
  7  5  1  0
  8  9  1  1
  8  7  1  0
 10 18  1  0
 10  9  1  0
 11 10  2  0
 12 11  1  0
 12 13  1  0
 13 14  1  0
 13 18  2  0
 14 15  2  0
 15 16  1  0
 17 16  2  0
 18 17  1  0
 19  8  1  0
 20 19  2  0
 21 19  1  0
 22 29  1  0
 22 21  1  0
 22 23  1  1
 24 23  1  0
 25 24  2  0
 26 27  1  0
 26 25  1  0
 27 28  2  0
 28 24  1  0
 29 30  1  0
 31 29  2  0
M  END
$$$$
