SEQ.pdb
     RDKit          3D

 25 24  0  0  1  0  0  0  0  0999 V2000
   14.8663  -10.5628  -16.1038 O   0  0  0  0  0  0  0  0  0  0  0  0
   15.4316  -10.8709  -14.8514 C   0  0  0  0  0  0  0  0  0  0  0  0
   16.9389  -10.7793  -15.0181 C   0  0  2  0  0  0  0  0  0  0  0  0
   17.5413  -12.0871  -15.1359 N   0  0  0  0  0  0  0  0  0  0  0  0
   17.4933   -9.9626  -13.9118 C   0  0  0  0  0  0  0  0  0  0  0  0
   17.4100  -10.4047  -12.7175 O   0  0  0  0  0  0  0  0  0  0  0  0
   18.1172   -8.7056  -14.0972 N   0  0  0  0  0  0  0  0  0  0  0  0
   18.6353   -8.0128  -12.9038 C   0  0  1  0  0  0  0  0  0  0  0  0
   19.7176   -7.0839  -13.4741 C   0  0  0  0  0  0  0  0  0  0  0  0
   20.3261   -6.3702  -12.2814 C   0  0  0  0  0  0  0  0  0  0  0  0
   21.3897   -5.4126  -12.6864 C   0  0  0  0  0  0  0  0  0  0  0  0
   21.3272   -4.1751  -12.4848 O   0  0  0  0  0  0  0  0  0  0  0  0
   17.5903   -7.2365  -12.2247 C   0  0  0  0  0  0  0  0  0  0  0  0
   16.7337   -6.6164  -12.8822 O   0  0  0  0  0  0  0  0  0  0  0  0
   22.5008   -5.9426  -13.3220 O   0  0  0  0  0  0  0  0  0  0  0  0
   13.1911   -9.0010   -9.0299 N   0  0  0  0  0  0  0  0  0  0  0  0
   13.2147   -7.6527   -8.5531 C   0  0  0  0  0  0  0  0  0  0  0  0
   12.3119   -7.2049   -7.8475 O   0  0  0  0  0  0  0  0  0  0  0  0
   14.3601   -6.7603   -8.9146 C   0  0  0  0  0  0  0  0  0  0  0  0
   15.4051   -7.4819   -9.7139 C   0  0  0  0  0  0  0  0  0  0  0  0
   16.5296   -6.4794  -10.0473 C   0  0  2  0  0  0  0  0  0  0  0  0
   17.5587   -7.2041  -10.8061 N   0  0  0  0  0  0  0  0  0  0  0  0
   17.0710   -5.8608   -8.8535 C   0  0  0  0  0  0  0  0  0  0  0  0
   18.3065   -6.3626   -8.3647 O   0  0  0  0  0  0  0  0  0  0  0  0
   16.5813   -4.9255   -8.1840 O   0  0  0  0  0  0  0  0  0  0  0  0
  1  2  1  0
  2  3  1  0
  3  5  1  0
  3  4  1  1
  5  6  2  0
  7  8  1  0
  7  5  1  0
  8  9  1  6
  9 10  1  0
 10 11  1  0
 11 12  2  0
 11 15  1  0
 13  8  1  0
 14 13  2  0
 16 17  1  0
 17 19  1  0
 18 17  2  0
 19 20  1  0
 21 20  1  1
 21 23  1  0
 21 22  1  0
 22 13  1  0
 23 24  1  0
 25 23  2  0
M  END
$$$$
