SEQ.pdb
     RDKit          3D

 25 24  0  0  1  0  0  0  0  0999 V2000
   15.8041  -11.8626  -13.9913 O   0  0  0  0  0  0  0  0  0  0  0  0
   17.0656  -11.4098  -14.4233 C   0  0  0  0  0  0  0  0  0  0  0  0
   16.8914  -10.9317  -15.8548 C   0  0  2  0  0  0  0  0  0  0  0  0
   17.1752  -11.9827  -16.8047 N   0  0  0  0  0  0  0  0  0  0  0  0
   17.7072   -9.7097  -16.0532 C   0  0  0  0  0  0  0  0  0  0  0  0
   18.9127   -9.8316  -16.4539 O   0  0  0  0  0  0  0  0  0  0  0  0
   17.2287   -8.3976  -15.8225 N   0  0  0  0  0  0  0  0  0  0  0  0
   18.1545   -7.2762  -16.0636 C   0  0  1  0  0  0  0  0  0  0  0  0
   17.2861   -6.0363  -15.8028 C   0  0  0  0  0  0  0  0  0  0  0  0
   18.1700   -4.8384  -16.0955 C   0  0  0  0  0  0  0  0  0  0  0  0
   17.4410   -3.5525  -15.9303 C   0  0  0  0  0  0  0  0  0  0  0  0
   17.4192   -2.8960  -14.8604 O   0  0  0  0  0  0  0  0  0  0  0  0
   19.3024   -7.3077  -15.1487 C   0  0  0  0  0  0  0  0  0  0  0  0
   19.1495   -7.6122  -13.9510 O   0  0  0  0  0  0  0  0  0  0  0  0
   16.7539   -3.0757  -17.0347 O   0  0  0  0  0  0  0  0  0  0  0  0
   24.5325  -10.0686  -16.3258 N   0  0  0  0  0  0  0  0  0  0  0  0
   24.8842   -9.3356  -15.1490 C   0  0  0  0  0  0  0  0  0  0  0  0
   25.9206   -9.5729  -14.5301 O   0  0  0  0  0  0  0  0  0  0  0  0
   23.9778   -8.2531  -14.6533 C   0  0  0  0  0  0  0  0  0  0  0  0
   22.7411   -8.1262  -15.4937 C   0  0  0  0  0  0  0  0  0  0  0  0
   21.8099   -7.0954  -14.8222 C   0  0  2  0  0  0  0  0  0  0  0  0
   20.5952   -6.9944  -15.6435 N   0  0  0  0  0  0  0  0  0  0  0  0
   22.4600   -5.8107  -14.6554 C   0  0  0  0  0  0  0  0  0  0  0  0
   23.1229   -5.5730  -13.4219 O   0  0  0  0  0  0  0  0  0  0  0  0
   22.5126   -4.8652  -15.4715 O   0  0  0  0  0  0  0  0  0  0  0  0
  1  2  1  0
  2  3  1  0
  3  5  1  0
  3  4  1  6
  5  6  2  0
  7  8  1  0
  7  5  1  0
  8  9  1  1
  9 10  1  0
 10 11  1  0
 11 12  2  0
 11 15  1  0
 13  8  1  0
 14 13  2  0
 16 17  1  0
 17 19  1  0
 18 17  2  0
 19 20  1  0
 21 20  1  6
 21 23  1  0
 21 22  1  0
 22 13  1  0
 23 24  1  0
 25 23  2  0
M  END
$$$$
