SEQ.pdb
     RDKit          3D

 25 24  0  0  1  0  0  0  0  0999 V2000
   16.4301   -9.4124  -17.2108 O   0  0  0  0  0  0  0  0  0  0  0  0
   16.4936   -9.5265  -15.8087 C   0  0  0  0  0  0  0  0  0  0  0  0
   17.9194   -9.9248  -15.4670 C   0  0  2  0  0  0  0  0  0  0  0  0
   18.1849  -11.3016  -15.8155 N   0  0  0  0  0  0  0  0  0  0  0  0
   18.1755   -9.6084  -14.0413 C   0  0  0  0  0  0  0  0  0  0  0  0
   17.7405  -10.4061  -13.1451 O   0  0  0  0  0  0  0  0  0  0  0  0
   18.8804   -8.4616  -13.6037 N   0  0  0  0  0  0  0  0  0  0  0  0
   18.9977   -8.2396  -12.1513 C   0  0  1  0  0  0  0  0  0  0  0  0
   20.3576   -7.5401  -12.0074 C   0  0  0  0  0  0  0  0  0  0  0  0
   20.2590   -6.2640  -12.8222 C   0  0  0  0  0  0  0  0  0  0  0  0
   21.5255   -5.4847  -12.7953 C   0  0  0  0  0  0  0  0  0  0  0  0
   22.1270   -5.1683  -11.7397 O   0  0  0  0  0  0  0  0  0  0  0  0
   17.9183   -7.3863  -11.6390 C   0  0  0  0  0  0  0  0  0  0  0  0
   17.4077   -6.5092  -12.3606 O   0  0  0  0  0  0  0  0  0  0  0  0
   22.0485   -5.0969  -14.0181 O   0  0  0  0  0  0  0  0  0  0  0  0
   13.2096   -9.0984   -8.8353 N   0  0  0  0  0  0  0  0  0  0  0  0
   13.1876   -7.7945   -8.2480 C   0  0  0  0  0  0  0  0  0  0  0  0
   12.1445   -7.2980   -7.8248 O   0  0  0  0  0  0  0  0  0  0  0  0
   14.4574   -7.0101   -8.1405 C   0  0  0  0  0  0  0  0  0  0  0  0
   15.6274   -7.7520   -8.7167 C   0  0  0  0  0  0  0  0  0  0  0  0
   16.3108   -6.8367   -9.7540 C   0  0  2  0  0  0  0  0  0  0  0  0
   17.4534   -7.5743  -10.3113 N   0  0  0  0  0  0  0  0  0  0  0  0
   16.7134   -5.5713   -9.1732 C   0  0  0  0  0  0  0  0  0  0  0  0
   15.7674   -4.5123   -9.2027 O   0  0  0  0  0  0  0  0  0  0  0  0
   17.8075   -5.2845   -8.6406 O   0  0  0  0  0  0  0  0  0  0  0  0
  1  2  1  0
  2  3  1  0
  3  5  1  0
  3  4  1  1
  5  6  2  0
  7  8  1  0
  7  5  1  0
  8  9  1  6
  9 10  1  0
 10 11  1  0
 11 12  2  0
 11 15  1  0
 13  8  1  0
 14 13  2  0
 16 17  1  0
 17 19  1  0
 18 17  2  0
 19 20  1  0
 21 20  1  1
 21 23  1  0
 21 22  1  0
 22 13  1  0
 23 24  1  0
 25 23  2  0
M  END
$$$$
