SEQ.pdb
     RDKit          3D

 25 24  0  0  1  0  0  0  0  0999 V2000
   17.0076  -11.3766  -11.2148 O   0  0  0  0  0  0  0  0  0  0  0  0
   15.6052  -11.4600  -11.3117 C   0  0  0  0  0  0  0  0  0  0  0  0
   15.0384  -10.4704  -10.3079 C   0  0  2  0  0  0  0  0  0  0  0  0
   13.6030  -10.5904  -10.1952 N   0  0  0  0  0  0  0  0  0  0  0  0
   15.4984   -9.1077  -10.6681 C   0  0  0  0  0  0  0  0  0  0  0  0
   15.0628   -8.5739  -11.7424 O   0  0  0  0  0  0  0  0  0  0  0  0
   16.4034   -8.3500   -9.8867 N   0  0  0  0  0  0  0  0  0  0  0  0
   16.8102   -7.0277  -10.3952 C   0  0  1  0  0  0  0  0  0  0  0  0
   16.2946   -6.0595   -9.3199 C   0  0  0  0  0  0  0  0  0  0  0  0
   16.6147   -4.6652   -9.8253 C   0  0  0  0  0  0  0  0  0  0  0  0
   16.1733   -3.6110   -8.8735 C   0  0  0  0  0  0  0  0  0  0  0  0
   16.3215   -2.3811   -9.0777 O   0  0  0  0  0  0  0  0  0  0  0  0
   18.2679   -6.9197  -10.5349 C   0  0  0  0  0  0  0  0  0  0  0  0
   19.0254   -7.4807   -9.7213 O   0  0  0  0  0  0  0  0  0  0  0  0
   15.5690   -4.0378   -7.7022 O   0  0  0  0  0  0  0  0  0  0  0  0
   20.6696   -9.7769  -14.6175 N   0  0  0  0  0  0  0  0  0  0  0  0
   21.8236   -9.0087  -14.2654 C   0  0  0  0  0  0  0  0  0  0  0  0
   22.9469   -9.3192  -14.6593 O   0  0  0  0  0  0  0  0  0  0  0  0
   21.6700   -7.7976  -13.4000 C   0  0  0  0  0  0  0  0  0  0  0  0
   20.2555   -7.6147  -12.9342 C   0  0  0  0  0  0  0  0  0  0  0  0
   20.1958   -6.3330  -12.0771 C   0  0  2  0  0  0  0  0  0  0  0  0
   18.8100   -6.1739  -11.6139 N   0  0  0  0  0  0  0  0  0  0  0  0
   20.6588   -5.1722  -12.8112 C   0  0  0  0  0  0  0  0  0  0  0  0
   22.0458   -4.8731  -12.7465 O   0  0  0  0  0  0  0  0  0  0  0  0
   19.9825   -4.3834  -13.5063 O   0  0  0  0  0  0  0  0  0  0  0  0
  1  2  1  0
  2  3  1  0
  3  5  1  0
  3  4  1  6
  5  6  2  0
  7  8  1  0
  7  5  1  0
  8  9  1  1
  9 10  1  0
 10 11  1  0
 11 12  2  0
 11 15  1  0
 13  8  1  0
 14 13  2  0
 16 17  1  0
 17 19  1  0
 18 17  2  0
 19 20  1  0
 21 20  1  6
 21 23  1  0
 21 22  1  0
 22 13  1  0
 23 24  1  0
 25 23  2  0
M  END
$$$$
