SEQ.pdb
     RDKit          3D

 25 24  0  0  1  0  0  0  0  0999 V2000
   28.1256  -23.3202  -17.5026 O   0  0  0  0  0  0  0  0  0  0  0  0
   26.9737  -22.7882  -16.8918 C   0  0  0  0  0  0  0  0  0  0  0  0
   27.2134  -21.2965  -16.7318 C   0  0  2  0  0  0  0  0  0  0  0  0
   28.4471  -21.0285  -16.0293 N   0  0  0  0  0  0  0  0  0  0  0  0
   26.0198  -20.6857  -16.0992 C   0  0  0  0  0  0  0  0  0  0  0  0
   25.8958  -20.7457  -14.8304 O   0  0  0  0  0  0  0  0  0  0  0  0
   24.9934  -20.0317  -16.8220 N   0  0  0  0  0  0  0  0  0  0  0  0
   23.8244  -19.5449  -16.0676 C   0  0  1  0  0  0  0  0  0  0  0  0
   23.3442  -18.3421  -16.8936 C   0  0  0  0  0  0  0  0  0  0  0  0
   23.3563  -17.1551  -15.9487 C   0  0  0  0  0  0  0  0  0  0  0  0
   22.0516  -16.4413  -15.9316 C   0  0  0  0  0  0  0  0  0  0  0  0
   21.1957  -16.5750  -15.0229 O   0  0  0  0  0  0  0  0  0  0  0  0
   22.7711  -20.5634  -15.9730 C   0  0  0  0  0  0  0  0  0  0  0  0
   22.6532  -21.4362  -16.8533 O   0  0  0  0  0  0  0  0  0  0  0  0
   21.7905  -15.5880  -16.9912 O   0  0  0  0  0  0  0  0  0  0  0  0
   20.4509  -25.2444  -13.7658 N   0  0  0  0  0  0  0  0  0  0  0  0
   19.6521  -24.3728  -12.9608 C   0  0  0  0  0  0  0  0  0  0  0  0
   18.6751  -24.7882  -12.3391 O   0  0  0  0  0  0  0  0  0  0  0  0
   20.0062  -22.9221  -12.8658 C   0  0  0  0  0  0  0  0  0  0  0  0
   21.1969  -22.5771  -13.7113 C   0  0  0  0  0  0  0  0  0  0  0  0
   20.7687  -21.4919  -14.7210 C   0  0  2  0  0  0  0  0  0  0  0  0
   21.8887  -20.5506  -14.8614 N   0  0  0  0  0  0  0  0  0  0  0  0
   19.5487  -20.8256  -14.3104 C   0  0  0  0  0  0  0  0  0  0  0  0
   18.3266  -21.3284  -14.8312 O   0  0  0  0  0  0  0  0  0  0  0  0
   19.4299  -19.8454  -13.5436 O   0  0  0  0  0  0  0  0  0  0  0  0
  1  2  1  0
  2  3  1  0
  3  5  1  0
  3  4  1  1
  5  6  2  0
  7  8  1  0
  7  5  1  0
  8  9  1  6
  9 10  1  0
 10 11  1  0
 11 12  2  0
 11 15  1  0
 13  8  1  0
 14 13  2  0
 16 17  1  0
 17 19  1  0
 18 17  2  0
 19 20  1  0
 21 20  1  1
 21 23  1  0
 21 22  1  0
 22 13  1  0
 23 24  1  0
 25 23  2  0
M  END
$$$$
