MSY.pdb
     RDKit          3D

 27 27  0  0  1  0  0  0  0  0999 V2000
   24.6273  -14.8330  -16.2732 C   0  0  0  0  0  0  0  0  0  0  0  0
   24.4356  -13.0972  -16.6703 S   0  0  0  0  0  0  0  0  0  0  0  0
   24.8513  -12.6841  -18.3642 C   0  0  0  0  0  0  0  0  0  0  0  0
   24.8684  -11.2288  -18.6770 C   0  0  0  0  0  0  0  0  0  0  0  0
   23.6633  -10.4693  -18.2263 C   0  0  2  0  0  0  0  0  0  0  0  0
   22.4774  -10.8830  -18.9630 N   0  0  0  0  0  0  0  0  0  0  0  0
   23.8725   -9.0191  -18.5400 C   0  0  0  0  0  0  0  0  0  0  0  0
   24.8650   -8.3659  -18.0933 O   0  0  0  0  0  0  0  0  0  0  0  0
   20.9451   -6.8906  -20.6577 O   0  0  0  0  0  0  0  0  0  0  0  0
   22.2503   -6.4367  -20.8046 C   0  0  0  0  0  0  0  0  0  0  0  0
   23.1554   -6.8960  -19.6818 C   0  0  2  0  0  0  0  0  0  0  0  0
   22.9646   -8.2890  -19.3615 N   0  0  0  0  0  0  0  0  0  0  0  0
   22.8760   -6.0096  -18.5229 C   0  0  0  0  0  0  0  0  0  0  0  0
   21.7389   -6.0822  -17.9912 O   0  0  0  0  0  0  0  0  0  0  0  0
   21.4786   -8.9390  -13.1012 O   0  0  0  0  0  0  0  0  0  0  0  0
   22.1806   -7.9391  -13.7455 C   0  0  0  0  0  0  0  0  0  0  0  0
   23.2442   -8.2235  -14.5764 C   0  0  0  0  0  0  0  0  0  0  0  0
   23.8976   -7.1745  -15.1858 C   0  0  0  0  0  0  0  0  0  0  0  0
   23.4860   -5.8528  -14.9623 C   0  0  0  0  0  0  0  0  0  0  0  0
   24.2029   -4.7274  -15.5978 C   0  0  0  0  0  0  0  0  0  0  0  0
   23.4446   -4.2568  -16.8044 C   0  0  2  0  0  0  0  0  0  0  0  0
   23.7942   -5.0919  -17.9752 N   0  0  0  0  0  0  0  0  0  0  0  0
   23.7440   -2.8655  -17.1699 C   0  0  0  0  0  0  0  0  0  0  0  0
   24.2526   -2.5242  -18.4088 O   0  0  0  0  0  0  0  0  0  0  0  0
   22.4151   -5.5801  -14.1244 C   0  0  0  0  0  0  0  0  0  0  0  0
   21.7648   -6.6325  -13.5173 C   0  0  0  0  0  0  0  0  0  0  0  0
   23.5485   -1.9272  -16.3608 O   0  0  0  0  0  0  0  0  0  0  0  0
  2  1  1  0
  3  2  1  0
  4  3  1  0
  5  7  1  0
  5  4  1  0
  5  6  1  6
  7  8  2  0
  9 10  1  0
 11 10  1  6
 11 12  1  0
 12  7  1  0
 13 11  1  0
 14 13  2  0
 16 15  1  0
 16 26  2  0
 17 16  1  0
 18 17  2  0
 18 19  1  0
 19 25  2  0
 20 19  1  0
 21 20  1  1
 21 22  1  0
 22 13  1  0
 23 24  1  0
 23 21  1  0
 25 26  1  0
 27 23  2  0
M  END
$$$$
