MSY.pdb
     RDKit          3D

 27 27  0  0  1  0  0  0  0  0999 V2000
   29.9613  -16.3754  -16.7819 C   0  0  0  0  0  0  0  0  0  0  0  0
   29.0878  -17.5756  -15.7800 S   0  0  0  0  0  0  0  0  0  0  0  0
   27.5220  -18.1058  -16.4728 C   0  0  0  0  0  0  0  0  0  0  0  0
   26.7603  -19.0823  -15.6469 C   0  0  0  0  0  0  0  0  0  0  0  0
   27.5941  -20.0993  -14.9377 C   0  0  2  0  0  0  0  0  0  0  0  0
   28.2695  -20.9755  -15.8845 N   0  0  0  0  0  0  0  0  0  0  0  0
   26.6871  -20.9723  -14.1251 C   0  0  0  0  0  0  0  0  0  0  0  0
   26.0020  -21.9063  -14.6444 O   0  0  0  0  0  0  0  0  0  0  0  0
   25.6858  -19.7631  -10.1589 O   0  0  0  0  0  0  0  0  0  0  0  0
   25.5523  -21.1056  -10.4921 C   0  0  0  0  0  0  0  0  0  0  0  0
   25.4159  -21.3237  -11.9836 C   0  0  2  0  0  0  0  0  0  0  0  0
   26.5424  -20.8019  -12.7172 N   0  0  0  0  0  0  0  0  0  0  0  0
   24.1369  -20.6865  -12.3897 C   0  0  0  0  0  0  0  0  0  0  0  0
   24.1821  -19.5063  -12.8212 O   0  0  0  0  0  0  0  0  0  0  0  0
   17.2638  -17.9432  -16.4038 O   0  0  0  0  0  0  0  0  0  0  0  0
   18.3855  -18.5841  -15.9152 C   0  0  0  0  0  0  0  0  0  0  0  0
   18.5292  -19.9533  -15.9995 C   0  0  0  0  0  0  0  0  0  0  0  0
   19.6757  -20.5238  -15.4906 C   0  0  0  0  0  0  0  0  0  0  0  0
   20.6677  -19.7260  -14.9027 C   0  0  0  0  0  0  0  0  0  0  0  0
   21.8858  -20.3418  -14.3359 C   0  0  0  0  0  0  0  0  0  0  0  0
   21.6668  -20.6631  -12.8864 C   0  0  2  0  0  0  0  0  0  0  0  0
   22.8748  -21.3096  -12.3266 N   0  0  0  0  0  0  0  0  0  0  0  0
   20.5470  -21.5873  -12.6610 C   0  0  0  0  0  0  0  0  0  0  0  0
   19.2966  -21.1458  -12.2715 O   0  0  0  0  0  0  0  0  0  0  0  0
   20.5111  -18.3503  -14.8239 C   0  0  0  0  0  0  0  0  0  0  0  0
   19.3629  -17.7844  -15.3343 C   0  0  0  0  0  0  0  0  0  0  0  0
   20.6877  -22.8243  -12.8137 O   0  0  0  0  0  0  0  0  0  0  0  0
  2  1  1  0
  3  2  1  0
  4  3  1  0
  5  7  1  0
  5  4  1  0
  5  6  1  6
  7  8  2  0
  9 10  1  0
 11 10  1  1
 11 12  1  0
 12  7  1  0
 13 11  1  0
 14 13  2  0
 16 15  1  0
 16 26  2  0
 17 16  1  0
 18 17  2  0
 18 19  1  0
 19 25  2  0
 20 19  1  0
 21 20  1  6
 21 22  1  0
 22 13  1  0
 23 24  1  0
 23 21  1  0
 25 26  1  0
 27 23  2  0
M  END
$$$$
