MSY.pdb
     RDKit          3D

 27 27  0  0  1  0  0  0  0  0999 V2000
   28.0999   -9.9930  -17.2091 C   0  0  0  0  0  0  0  0  0  0  0  0
   27.5387  -11.4678  -16.3621 S   0  0  0  0  0  0  0  0  0  0  0  0
   26.3340  -11.1567  -15.0719 C   0  0  0  0  0  0  0  0  0  0  0  0
   25.2887  -10.1515  -15.4081 C   0  0  0  0  0  0  0  0  0  0  0  0
   23.8991  -10.5225  -15.0037 C   0  0  2  0  0  0  0  0  0  0  0  0
   23.4253  -11.6766  -15.7546 N   0  0  0  0  0  0  0  0  0  0  0  0
   22.9855   -9.3868  -15.3511 C   0  0  0  0  0  0  0  0  0  0  0  0
   23.1107   -8.2343  -14.8342 O   0  0  0  0  0  0  0  0  0  0  0  0
   19.5199  -10.0430  -17.6633 O   0  0  0  0  0  0  0  0  0  0  0  0
   20.1287   -8.8005  -17.7930 C   0  0  0  0  0  0  0  0  0  0  0  0
   21.0174   -8.4628  -16.6154 C   0  0  2  0  0  0  0  0  0  0  0  0
   21.9199   -9.5381  -16.2860 N   0  0  0  0  0  0  0  0  0  0  0  0
   20.1137   -8.1219  -15.4867 C   0  0  0  0  0  0  0  0  0  0  0  0
   19.8090   -9.0398  -14.6831 O   0  0  0  0  0  0  0  0  0  0  0  0
   15.5714   -4.4856   -9.0719 O   0  0  0  0  0  0  0  0  0  0  0  0
   16.4937   -4.8784  -10.0220 C   0  0  0  0  0  0  0  0  0  0  0  0
   17.1852   -6.0666   -9.9094 C   0  0  0  0  0  0  0  0  0  0  0  0
   18.0900   -6.3934  -10.8959 C   0  0  0  0  0  0  0  0  0  0  0  0
   18.2977   -5.5346  -11.9847 C   0  0  0  0  0  0  0  0  0  0  0  0
   19.2860   -5.8753  -13.0295 C   0  0  0  0  0  0  0  0  0  0  0  0
   18.6085   -6.6036  -14.1533 C   0  0  2  0  0  0  0  0  0  0  0  0
   19.5723   -6.8426  -15.2507 N   0  0  0  0  0  0  0  0  0  0  0  0
   17.4826   -5.8573  -14.7313 C   0  0  0  0  0  0  0  0  0  0  0  0
   16.1948   -5.9754  -14.2438 O   0  0  0  0  0  0  0  0  0  0  0  0
   17.5962   -4.3426  -12.0862 C   0  0  0  0  0  0  0  0  0  0  0  0
   16.6923   -4.0202  -11.0972 C   0  0  0  0  0  0  0  0  0  0  0  0
   17.6512   -5.0789  -15.7004 O   0  0  0  0  0  0  0  0  0  0  0  0
  2  1  1  0
  3  2  1  0
  4  3  1  0
  5  7  1  0
  5  4  1  0
  5  6  1  6
  7  8  2  0
  9 10  1  0
 11 10  1  6
 11 12  1  0
 12  7  1  0
 13 11  1  0
 14 13  2  0
 16 15  1  0
 16 26  2  0
 17 16  1  0
 18 17  2  0
 18 19  1  0
 19 25  2  0
 20 19  1  0
 21 20  1  1
 21 22  1  0
 22 13  1  0
 23 24  1  0
 23 21  1  0
 25 26  1  0
 27 23  2  0
M  END
$$$$
