MSY.pdb
     RDKit          3D

 27 27  0  0  1  0  0  0  0  0999 V2000
   18.7979  -15.4598  -21.8802 C   0  0  0  0  0  0  0  0  0  0  0  0
   20.3847  -16.2356  -21.5849 S   0  0  0  0  0  0  0  0  0  0  0  0
   20.7290  -16.5621  -19.8564 C   0  0  0  0  0  0  0  0  0  0  0  0
   20.6180  -15.3840  -18.9533 C   0  0  0  0  0  0  0  0  0  0  0  0
   21.6194  -14.3022  -19.1963 C   0  0  2  0  0  0  0  0  0  0  0  0
   22.9471  -14.8576  -19.4180 N   0  0  0  0  0  0  0  0  0  0  0  0
   21.7139  -13.4581  -17.9620 C   0  0  0  0  0  0  0  0  0  0  0  0
   20.6884  -12.9691  -17.3957 O   0  0  0  0  0  0  0  0  0  0  0  0
   25.4211  -11.8027  -16.7930 O   0  0  0  0  0  0  0  0  0  0  0  0
   24.5209  -12.0961  -15.7758 C   0  0  0  0  0  0  0  0  0  0  0  0
   23.0961  -12.2064  -16.2743 C   0  0  2  0  0  0  0  0  0  0  0  0
   22.9664  -13.1558  -17.3519 N   0  0  0  0  0  0  0  0  0  0  0  0
   22.6813  -10.8382  -16.6777 C   0  0  0  0  0  0  0  0  0  0  0  0
   22.7867  -10.5288  -17.8919 O   0  0  0  0  0  0  0  0  0  0  0  0
   19.1433   -3.5061  -18.9994 O   0  0  0  0  0  0  0  0  0  0  0  0
   19.5869   -4.7571  -18.6177 C   0  0  0  0  0  0  0  0  0  0  0  0
   20.7339   -5.3097  -19.1482 C   0  0  0  0  0  0  0  0  0  0  0  0
   21.1157   -6.5625  -18.7200 C   0  0  0  0  0  0  0  0  0  0  0  0
   20.3521   -7.2531  -17.7680 C   0  0  0  0  0  0  0  0  0  0  0  0
   20.7499   -8.6067  -17.3276 C   0  0  0  0  0  0  0  0  0  0  0  0
   21.8140   -8.5072  -16.2739 C   0  0  2  0  0  0  0  0  0  0  0  0
   22.1774   -9.8604  -15.7972 N   0  0  0  0  0  0  0  0  0  0  0  0
   21.3906   -7.7404  -15.0942 C   0  0  0  0  0  0  0  0  0  0  0  0
   21.0925   -8.3493  -13.8899 O   0  0  0  0  0  0  0  0  0  0  0  0
   19.2006   -6.6866  -17.2424 C   0  0  0  0  0  0  0  0  0  0  0  0
   18.8229   -5.4335  -17.6737 C   0  0  0  0  0  0  0  0  0  0  0  0
   21.2813   -6.4917  -15.1389 O   0  0  0  0  0  0  0  0  0  0  0  0
  2  1  1  0
  3  2  1  0
  4  3  1  0
  5  7  1  0
  5  4  1  0
  5  6  1  1
  7  8  2  0
  9 10  1  0
 11 10  1  6
 11 12  1  0
 12  7  1  0
 13 11  1  0
 14 13  2  0
 16 15  1  0
 16 26  2  0
 17 16  1  0
 18 17  2  0
 18 19  1  0
 19 25  2  0
 20 19  1  0
 21 20  1  6
 21 22  1  0
 22 13  1  0
 23 24  1  0
 23 21  1  0
 25 26  1  0
 27 23  2  0
M  END
$$$$
