MSY.pdb
     RDKit          3D

 27 27  0  0  1  0  0  0  0  0999 V2000
   29.7803  -17.8481  -15.9911 C   0  0  0  0  0  0  0  0  0  0  0  0
   29.5722  -17.3805  -17.7073 S   0  0  0  0  0  0  0  0  0  0  0  0
   27.8909  -17.5360  -18.3091 C   0  0  0  0  0  0  0  0  0  0  0  0
   26.8960  -17.9961  -17.3019 C   0  0  0  0  0  0  0  0  0  0  0  0
   25.5253  -18.2549  -17.8372 C   0  0  2  0  0  0  0  0  0  0  0  0
   24.9057  -17.0242  -18.3078 N   0  0  0  0  0  0  0  0  0  0  0  0
   24.6672  -18.7602  -16.7176 C   0  0  0  0  0  0  0  0  0  0  0  0
   23.9357  -17.9889  -16.0238 O   0  0  0  0  0  0  0  0  0  0  0  0
   23.8984  -22.9128  -16.1378 O   0  0  0  0  0  0  0  0  0  0  0  0
   23.0477  -21.9023  -15.7061 C   0  0  0  0  0  0  0  0  0  0  0  0
   23.7924  -20.6475  -15.3040 C   0  0  2  0  0  0  0  0  0  0  0  0
   24.6242  -20.1415  -16.3678 N   0  0  0  0  0  0  0  0  0  0  0  0
   24.5784  -20.9916  -14.0913 C   0  0  0  0  0  0  0  0  0  0  0  0
   25.7806  -21.3248  -14.2481 O   0  0  0  0  0  0  0  0  0  0  0  0
   28.9978  -20.2710   -6.8673 O   0  0  0  0  0  0  0  0  0  0  0  0
   28.3081  -20.2694   -8.0639 C   0  0  0  0  0  0  0  0  0  0  0  0
   28.7887  -20.9296   -9.1755 C   0  0  0  0  0  0  0  0  0  0  0  0
   28.0464  -20.8847  -10.3355 C   0  0  0  0  0  0  0  0  0  0  0  0
   26.8330  -20.1831  -10.3778 C   0  0  0  0  0  0  0  0  0  0  0  0
   26.0499  -20.1159  -11.6295 C   0  0  0  0  0  0  0  0  0  0  0  0
   24.9627  -21.1501  -11.6062 C   0  0  2  0  0  0  0  0  0  0  0  0
   24.0738  -20.9715  -12.7759 N   0  0  0  0  0  0  0  0  0  0  0  0
   24.1129  -21.0699  -10.4103 C   0  0  0  0  0  0  0  0  0  0  0  0
   22.9404  -20.3384  -10.3894 O   0  0  0  0  0  0  0  0  0  0  0  0
   26.3607  -19.5231   -9.2533 C   0  0  0  0  0  0  0  0  0  0  0  0
   27.1066  -19.5711   -8.0955 C   0  0  0  0  0  0  0  0  0  0  0  0
   24.4256  -21.6673   -9.3526 O   0  0  0  0  0  0  0  0  0  0  0  0
  2  1  1  0
  3  2  1  0
  4  3  1  0
  5  7  1  0
  5  4  1  0
  5  6  1  1
  7  8  2  0
  9 10  1  0
 11 10  1  6
 11 12  1  0
 12  7  1  0
 13 11  1  0
 14 13  2  0
 16 15  1  0
 16 26  2  0
 17 16  1  0
 18 17  2  0
 18 19  1  0
 19 25  2  0
 20 19  1  0
 21 20  1  1
 21 22  1  0
 22 13  1  0
 23 24  1  0
 23 21  1  0
 25 26  1  0
 27 23  2  0
M  END
$$$$
