MSY.pdb
     RDKit          3D

 27 27  0  0  1  0  0  0  0  0999 V2000
   29.0011  -17.5114  -18.2390 C   0  0  0  0  0  0  0  0  0  0  0  0
   28.0554  -18.6219  -17.1999 S   0  0  0  0  0  0  0  0  0  0  0  0
   29.0154  -19.9635  -16.4992 C   0  0  0  0  0  0  0  0  0  0  0  0
   28.2458  -20.9270  -15.6652 C   0  0  0  0  0  0  0  0  0  0  0  0
   27.2257  -20.3114  -14.7638 C   0  0  2  0  0  0  0  0  0  0  0  0
   27.8367  -19.3407  -13.8668 N   0  0  0  0  0  0  0  0  0  0  0  0
   26.6502  -21.3879  -13.8947 C   0  0  0  0  0  0  0  0  0  0  0  0
   26.2319  -22.4890  -14.3678 O   0  0  0  0  0  0  0  0  0  0  0  0
   26.1383  -20.1135   -9.9392 O   0  0  0  0  0  0  0  0  0  0  0  0
   25.4652  -21.2817  -10.2758 C   0  0  0  0  0  0  0  0  0  0  0  0
   25.3038  -21.4494  -11.7713 C   0  0  2  0  0  0  0  0  0  0  0  0
   26.5402  -21.2347  -12.4816 N   0  0  0  0  0  0  0  0  0  0  0  0
   24.2419  -20.4995  -12.1919 C   0  0  0  0  0  0  0  0  0  0  0  0
   24.5981  -19.4448  -12.7765 O   0  0  0  0  0  0  0  0  0  0  0  0
   18.2317  -18.9479  -17.9289 O   0  0  0  0  0  0  0  0  0  0  0  0
   19.2191  -19.3154  -17.0358 C   0  0  0  0  0  0  0  0  0  0  0  0
   20.1750  -18.4185  -16.6067 C   0  0  0  0  0  0  0  0  0  0  0  0
   21.1296  -18.8560  -15.7145 C   0  0  0  0  0  0  0  0  0  0  0  0
   21.1235  -20.1819  -15.2582 C   0  0  0  0  0  0  0  0  0  0  0  0
   22.1624  -20.6559  -14.3199 C   0  0  0  0  0  0  0  0  0  0  0  0
   21.8565  -20.1697  -12.9334 C   0  0  2  0  0  0  0  0  0  0  0  0
   22.8622  -20.6949  -11.9831 N   0  0  0  0  0  0  0  0  0  0  0  0
   20.5412  -20.6052  -12.4442 C   0  0  0  0  0  0  0  0  0  0  0  0
   19.4788  -19.7308  -12.3144 O   0  0  0  0  0  0  0  0  0  0  0  0
   20.1570  -21.0741  -15.6975 C   0  0  0  0  0  0  0  0  0  0  0  0
   19.2044  -20.6318  -16.5896 C   0  0  0  0  0  0  0  0  0  0  0  0
   20.3336  -21.7993  -12.1210 O   0  0  0  0  0  0  0  0  0  0  0  0
  2  1  1  0
  3  2  1  0
  4  3  1  0
  5  7  1  0
  5  4  1  0
  5  6  1  1
  7  8  2  0
  9 10  1  0
 11 10  1  1
 11 12  1  0
 12  7  1  0
 13 11  1  0
 14 13  2  0
 16 15  1  0
 16 26  2  0
 17 16  1  0
 18 17  2  0
 18 19  1  0
 19 25  2  0
 20 19  1  0
 21 20  1  6
 21 22  1  0
 22 13  1  0
 23 24  1  0
 23 21  1  0
 25 26  1  0
 27 23  2  0
M  END
$$$$
