MSY.pdb
     RDKit          3D

 27 27  0  0  1  0  0  0  0  0999 V2000
   21.0076  -15.3164  -18.6672 C   0  0  0  0  0  0  0  0  0  0  0  0
   20.5276  -13.7899  -17.8629 S   0  0  0  0  0  0  0  0  0  0  0  0
   19.9602  -12.5165  -18.9895 C   0  0  0  0  0  0  0  0  0  0  0  0
   19.6028  -11.2190  -18.3532 C   0  0  0  0  0  0  0  0  0  0  0  0
   18.4228  -11.2656  -17.4379 C   0  0  2  0  0  0  0  0  0  0  0  0
   17.1852  -11.4328  -18.1867 N   0  0  0  0  0  0  0  0  0  0  0  0
   18.3173   -9.9472  -16.7337 C   0  0  0  0  0  0  0  0  0  0  0  0
   17.9341   -8.8918  -17.3259 O   0  0  0  0  0  0  0  0  0  0  0  0
   18.2535   -9.6026  -12.5372 O   0  0  0  0  0  0  0  0  0  0  0  0
   17.8151   -8.5929  -13.3854 C   0  0  0  0  0  0  0  0  0  0  0  0
   18.6058   -8.5323  -14.6745 C   0  0  2  0  0  0  0  0  0  0  0  0
   18.6426   -9.8041  -15.3532 N   0  0  0  0  0  0  0  0  0  0  0  0
   19.9635   -8.0471  -14.3163 C   0  0  0  0  0  0  0  0  0  0  0  0
   20.9196   -8.8577  -14.4149 O   0  0  0  0  0  0  0  0  0  0  0  0
   20.9548   -2.1579  -18.2160 O   0  0  0  0  0  0  0  0  0  0  0  0
   21.2945   -3.2334  -17.4188 C   0  0  0  0  0  0  0  0  0  0  0  0
   20.7148   -4.4728  -17.5927 C   0  0  0  0  0  0  0  0  0  0  0  0
   21.1030   -5.4997  -16.7599 C   0  0  0  0  0  0  0  0  0  0  0  0
   22.0643   -5.2830  -15.7623 C   0  0  0  0  0  0  0  0  0  0  0  0
   22.4620   -6.3793  -14.8544 C   0  0  0  0  0  0  0  0  0  0  0  0
   21.6483   -6.3181  -13.5948 C   0  0  2  0  0  0  0  0  0  0  0  0
   20.2580   -6.7424  -13.8733 N   0  0  0  0  0  0  0  0  0  0  0  0
   21.5735   -4.9684  -13.0190 C   0  0  0  0  0  0  0  0  0  0  0  0
   22.6884   -4.3163  -12.5272 O   0  0  0  0  0  0  0  0  0  0  0  0
   22.6396   -4.0319  -15.5976 C   0  0  0  0  0  0  0  0  0  0  0  0
   22.2482   -3.0081  -16.4329 C   0  0  0  0  0  0  0  0  0  0  0  0
   20.4825   -4.3534  -12.9503 O   0  0  0  0  0  0  0  0  0  0  0  0
  2  1  1  0
  3  2  1  0
  4  3  1  0
  5  7  1  0
  5  4  1  0
  5  6  1  6
  7  8  2  0
  9 10  1  0
 11 10  1  1
 11 12  1  0
 12  7  1  0
 13 11  1  0
 14 13  2  0
 16 15  1  0
 16 26  2  0
 17 16  1  0
 18 17  2  0
 18 19  1  0
 19 25  2  0
 20 19  1  0
 21 20  1  6
 21 22  1  0
 22 13  1  0
 23 24  1  0
 23 21  1  0
 25 26  1  0
 27 23  2  0
M  END
$$$$
