MSY.pdb
     RDKit          3D

 27 27  0  0  1  0  0  0  0  0999 V2000
   21.4475  -20.9153  -21.5022 C   0  0  0  0  0  0  0  0  0  0  0  0
   23.1347  -20.4670  -21.9021 S   0  0  0  0  0  0  0  0  0  0  0  0
   24.3673  -21.2710  -20.8788 C   0  0  0  0  0  0  0  0  0  0  0  0
   24.2012  -21.0751  -19.4125 C   0  0  0  0  0  0  0  0  0  0  0  0
   25.0677  -20.0163  -18.8121 C   0  0  2  0  0  0  0  0  0  0  0  0
   26.4613  -20.4370  -18.7778 N   0  0  0  0  0  0  0  0  0  0  0  0
   24.6507  -19.8146  -17.3872 C   0  0  0  0  0  0  0  0  0  0  0  0
   25.2189  -20.4147  -16.4237 O   0  0  0  0  0  0  0  0  0  0  0  0
   21.8847  -16.9855  -16.7396 O   0  0  0  0  0  0  0  0  0  0  0  0
   22.2910  -17.5040  -15.5161 C   0  0  0  0  0  0  0  0  0  0  0  0
   23.1785  -18.7207  -15.6661 C   0  0  2  0  0  0  0  0  0  0  0  0
   23.5878  -18.9332  -17.0324 N   0  0  0  0  0  0  0  0  0  0  0  0
   22.4136  -19.8726  -15.1231 C   0  0  0  0  0  0  0  0  0  0  0  0
   21.7461  -20.5658  -15.9324 O   0  0  0  0  0  0  0  0  0  0  0  0
   25.9204  -20.0391   -8.9268 O   0  0  0  0  0  0  0  0  0  0  0  0
   25.0473  -20.6165   -9.8278 C   0  0  0  0  0  0  0  0  0  0  0  0
   23.6979  -20.7198   -9.5612 C   0  0  0  0  0  0  0  0  0  0  0  0
   22.8868  -21.3079  -10.5072 C   0  0  0  0  0  0  0  0  0  0  0  0
   23.4265  -21.7874  -11.7092 C   0  0  0  0  0  0  0  0  0  0  0  0
   22.5589  -22.4395  -12.7124 C   0  0  0  0  0  0  0  0  0  0  0  0
   21.6212  -21.4302  -13.3078 C   0  0  2  0  0  0  0  0  0  0  0  0
   22.3818  -20.2456  -13.7647 N   0  0  0  0  0  0  0  0  0  0  0  0
   20.6115  -20.9461  -12.3565 C   0  0  0  0  0  0  0  0  0  0  0  0
   20.5892  -19.6383  -11.9104 O   0  0  0  0  0  0  0  0  0  0  0  0
   24.7851  -21.6778  -11.9653 C   0  0  0  0  0  0  0  0  0  0  0  0
   25.5922  -21.0888  -11.0162 C   0  0  0  0  0  0  0  0  0  0  0  0
   19.7248  -21.7118  -11.9083 O   0  0  0  0  0  0  0  0  0  0  0  0
  2  1  1  0
  3  2  1  0
  4  3  1  0
  5  7  1  0
  5  4  1  0
  5  6  1  1
  7  8  2  0
  9 10  1  0
 11 10  1  6
 11 12  1  0
 12  7  1  0
 13 11  1  0
 14 13  2  0
 16 15  1  0
 16 26  2  0
 17 16  1  0
 18 17  2  0
 18 19  1  0
 19 25  2  0
 20 19  1  0
 21 20  1  1
 21 22  1  0
 22 13  1  0
 23 24  1  0
 23 21  1  0
 25 26  1  0
 27 23  2  0
M  END
$$$$
