FLY.pdb
     RDKit          3D

 32 33  0  0  1  0  0  0  0  0999 V2000
    5.5332  -18.1543   25.0280 N   0  0  0  0  0  0  0  0  0  0  0  0
    6.2092  -16.8703   25.1221 C   0  0  1  0  0  0  0  0  0  0  0  0
    6.8148  -16.6847   26.4968 C   0  0  0  0  0  0  0  0  0  0  0  0
    7.1717  -15.2248   26.5935 C   0  0  0  0  0  0  0  0  0  0  0  0
    8.4828  -14.8569   26.8372 C   0  0  0  0  0  0  0  0  0  0  0  0
    8.8500  -13.5335   26.9309 C   0  0  0  0  0  0  0  0  0  0  0  0
    7.9094  -12.5370   26.7824 C   0  0  0  0  0  0  0  0  0  0  0  0
    6.6000  -12.9246   26.5386 C   0  0  0  0  0  0  0  0  0  0  0  0
    6.2277  -14.2593   26.4437 C   0  0  0  0  0  0  0  0  0  0  0  0
    7.2829  -16.8528   24.0720 C   0  0  0  0  0  0  0  0  0  0  0  0
    7.7864  -17.9340   23.6299 O   0  0  0  0  0  0  0  0  0  0  0  0
    6.8088  -14.1481   20.1752 C   0  0  0  0  0  0  0  0  0  0  0  0
    7.5320  -13.5586   21.3342 C   0  0  2  0  0  0  0  0  0  0  0  0
    7.9470  -12.1189   20.9349 C   0  0  0  0  0  0  0  0  0  0  0  0
    8.7152  -14.2186   21.8780 C   0  0  0  0  0  0  0  0  0  0  0  0
    8.6960  -15.5910   22.4274 C   0  0  2  0  0  0  0  0  0  0  0  0
    7.7294  -15.6032   23.5781 N   0  0  0  0  0  0  0  0  0  0  0  0
    9.9948  -16.0060   22.9835 C   0  0  0  0  0  0  0  0  0  0  0  0
   10.9295  -16.4040   22.2567 O   0  0  0  0  0  0  0  0  0  0  0  0
   16.1538  -16.7435   20.5902 O   0  0  0  0  0  0  0  0  0  0  0  0
   15.2956  -16.4232   21.6303 C   0  0  0  0  0  0  0  0  0  0  0  0
   15.0370  -17.3542   22.6263 C   0  0  0  0  0  0  0  0  0  0  0  0
   14.1883  -17.0440   23.6590 C   0  0  0  0  0  0  0  0  0  0  0  0
   13.5567  -15.8213   23.7687 C   0  0  0  0  0  0  0  0  0  0  0  0
   12.6296  -15.4934   24.8675 C   0  0  0  0  0  0  0  0  0  0  0  0
   11.5258  -16.4856   24.9529 C   0  0  2  0  0  0  0  0  0  0  0  0
   10.2868  -15.9866   24.3808 N   0  0  0  0  0  0  0  0  0  0  0  0
   11.2348  -17.0275   26.2779 C   0  0  0  0  0  0  0  0  0  0  0  0
   10.0608  -17.0484   26.7233 O   0  0  0  0  0  0  0  0  0  0  0  0
   13.8288  -14.9074   22.7645 C   0  0  0  0  0  0  0  0  0  0  0  0
   14.6784  -15.2042   21.7218 C   0  0  0  0  0  0  0  0  0  0  0  0
   12.2315  -17.5289   27.0708 O   0  0  0  0  0  0  0  0  0  0  0  0
  2  3  1  0
  2  1  1  1
  4  5  2  0
  4  3  1  0
  6  5  1  0
  7  6  2  0
  8  7  1  0
  8  9  2  0
  9  4  1  0
 10  2  1  0
 11 10  2  0
 13 12  1  6
 14 13  1  0
 15 13  1  0
 16 15  1  1
 16 17  1  0
 17 10  1  0
 18 16  1  0
 18 19  2  0
 20 21  1  0
 21 31  2  0
 22 21  1  0
 22 23  2  0
 23 24  1  0
 24 30  2  0
 24 25  1  0
 26 25  1  1
 26 27  1  0
 27 18  1  0
 28 26  1  0
 29 28  2  0
 31 30  1  0
 32 28  1  0
M  END
$$$$
