FLY.pdb
     RDKit          3D

 32 33  0  0  1  0  0  0  0  0999 V2000
    6.5056  -18.1435   25.2996 N   0  0  0  0  0  0  0  0  0  0  0  0
    6.8897  -16.7549   25.1030 C   0  0  1  0  0  0  0  0  0  0  0  0
    7.4688  -16.1753   26.3757 C   0  0  0  0  0  0  0  0  0  0  0  0
    7.2371  -14.6896   26.2917 C   0  0  0  0  0  0  0  0  0  0  0  0
    8.3206  -13.8305   26.2505 C   0  0  0  0  0  0  0  0  0  0  0  0
    8.1511  -12.4667   26.1719 C   0  0  0  0  0  0  0  0  0  0  0  0
    6.8852  -11.9229   26.1321 C   0  0  0  0  0  0  0  0  0  0  0  0
    5.8109  -12.7992   26.1744 C   0  0  0  0  0  0  0  0  0  0  0  0
    5.9800  -14.1755   26.2538 C   0  0  0  0  0  0  0  0  0  0  0  0
    7.9126  -16.7257   24.0036 C   0  0  0  0  0  0  0  0  0  0  0  0
    8.5564  -17.7733   23.6781 O   0  0  0  0  0  0  0  0  0  0  0  0
    6.6216  -14.3438   20.2743 C   0  0  0  0  0  0  0  0  0  0  0  0
    7.5922  -13.6170   21.1366 C   0  0  2  0  0  0  0  0  0  0  0  0
    7.8553  -12.2395   20.4752 C   0  0  0  0  0  0  0  0  0  0  0  0
    8.8910  -14.2081   21.4447 C   0  0  0  0  0  0  0  0  0  0  0  0
    9.0465  -15.5125   22.1232 C   0  0  2  0  0  0  0  0  0  0  0  0
    8.1505  -15.5033   23.3297 N   0  0  0  0  0  0  0  0  0  0  0  0
   10.4101  -15.7374   22.6313 C   0  0  0  0  0  0  0  0  0  0  0  0
   11.3905  -15.8564   21.8665 O   0  0  0  0  0  0  0  0  0  0  0  0
    9.4693  -16.7778   30.2786 O   0  0  0  0  0  0  0  0  0  0  0  0
   10.1631  -16.3480   29.1585 C   0  0  0  0  0  0  0  0  0  0  0  0
   10.1356  -15.0079   28.7989 C   0  0  0  0  0  0  0  0  0  0  0  0
   10.8201  -14.5754   27.6911 C   0  0  0  0  0  0  0  0  0  0  0  0
   11.5577  -15.4218   26.8878 C   0  0  0  0  0  0  0  0  0  0  0  0
   12.2780  -14.9616   25.6862 C   0  0  0  0  0  0  0  0  0  0  0  0
   12.0715  -15.8936   24.5466 C   0  0  2  0  0  0  0  0  0  0  0  0
   10.7176  -15.8359   24.0219 N   0  0  0  0  0  0  0  0  0  0  0  0
   12.4159  -17.2944   24.7768 C   0  0  0  0  0  0  0  0  0  0  0  0
   13.5629  -17.6210   25.1703 O   0  0  0  0  0  0  0  0  0  0  0  0
   11.5716  -16.7543   27.2646 C   0  0  0  0  0  0  0  0  0  0  0  0
   10.8896  -17.2034   28.3738 C   0  0  0  0  0  0  0  0  0  0  0  0
   11.4995  -18.2903   24.5722 O   0  0  0  0  0  0  0  0  0  0  0  0
  2  3  1  0
  2  1  1  1
  4  5  2  0
  4  3  1  0
  6  5  1  0
  7  6  2  0
  8  7  1  0
  8  9  2  0
  9  4  1  0
 10  2  1  0
 11 10  2  0
 13 12  1  6
 14 13  1  0
 15 13  1  0
 16 15  1  1
 16 17  1  0
 17 10  1  0
 18 16  1  0
 18 19  2  0
 20 21  1  0
 21 31  2  0
 22 21  1  0
 22 23  2  0
 23 24  1  0
 24 30  2  0
 24 25  1  0
 26 25  1  1
 26 27  1  0
 27 18  1  0
 28 26  1  0
 29 28  2  0
 31 30  1  0
 32 28  1  0
M  END
$$$$
