FLY.pdb
     RDKit          3D

 32 33  0  0  1  0  0  0  0  0999 V2000
    8.2281  -17.4361   27.1311 N   0  0  0  0  0  0  0  0  0  0  0  0
    8.1502  -16.4899   26.0297 C   0  0  1  0  0  0  0  0  0  0  0  0
    9.4152  -15.6630   25.9451 C   0  0  0  0  0  0  0  0  0  0  0  0
    9.4170  -14.7905   27.1727 C   0  0  0  0  0  0  0  0  0  0  0  0
   10.3077  -15.0551   28.1975 C   0  0  0  0  0  0  0  0  0  0  0  0
   10.3422  -14.2804   29.3348 C   0  0  0  0  0  0  0  0  0  0  0  0
    9.4810  -13.2138   29.4779 C   0  0  0  0  0  0  0  0  0  0  0  0
    8.5950  -12.9634   28.4404 C   0  0  0  0  0  0  0  0  0  0  0  0
    8.5588  -13.7440   27.2922 C   0  0  0  0  0  0  0  0  0  0  0  0
    7.9616  -17.2855   24.7698 C   0  0  0  0  0  0  0  0  0  0  0  0
    7.7902  -18.5453   24.8084 O   0  0  0  0  0  0  0  0  0  0  0  0
    4.7391  -17.4884   20.8610 C   0  0  0  0  0  0  0  0  0  0  0  0
    5.5897  -16.3179   21.2079 C   0  0  2  0  0  0  0  0  0  0  0  0
    5.3171  -15.2195   20.1480 C   0  0  0  0  0  0  0  0  0  0  0  0
    7.0377  -16.4662   21.3199 C   0  0  0  0  0  0  0  0  0  0  0  0
    7.6855  -17.3868   22.2784 C   0  0  2  0  0  0  0  0  0  0  0  0
    7.9776  -16.6050   23.5282 N   0  0  0  0  0  0  0  0  0  0  0  0
    8.9840  -17.8922   21.8023 C   0  0  0  0  0  0  0  0  0  0  0  0
    9.5050  -18.9255   22.2723 O   0  0  0  0  0  0  0  0  0  0  0  0
    7.5706  -12.2889   17.4412 O   0  0  0  0  0  0  0  0  0  0  0  0
    8.2738  -12.9694   18.4227 C   0  0  0  0  0  0  0  0  0  0  0  0
    8.2441  -12.5181   19.7347 C   0  0  0  0  0  0  0  0  0  0  0  0
    8.9379  -13.1868   20.7115 C   0  0  0  0  0  0  0  0  0  0  0  0
    9.6875  -14.3179   20.4578 C   0  0  0  0  0  0  0  0  0  0  0  0
   10.4492  -15.0263   21.5030 C   0  0  0  0  0  0  0  0  0  0  0  0
   10.8721  -16.3739   21.0390 C   0  0  2  0  0  0  0  0  0  0  0  0
    9.7425  -17.2497   20.7776 N   0  0  0  0  0  0  0  0  0  0  0  0
   11.8216  -17.0894   21.8878 C   0  0  0  0  0  0  0  0  0  0  0  0
   12.9698  -17.3798   21.4698 O   0  0  0  0  0  0  0  0  0  0  0  0
    9.7034  -14.7509   19.1425 C   0  0  0  0  0  0  0  0  0  0  0  0
    9.0121  -14.0903   18.1511 C   0  0  0  0  0  0  0  0  0  0  0  0
   11.4888  -17.4623   23.1621 O   0  0  0  0  0  0  0  0  0  0  0  0
  2  3  1  0
  2  1  1  1
  4  5  2  0
  4  3  1  0
  6  5  1  0
  7  6  2  0
  8  7  1  0
  8  9  2  0
  9  4  1  0
 10  2  1  0
 11 10  2  0
 13 12  1  6
 14 13  1  0
 15 13  1  0
 16 15  1  6
 16 17  1  0
 17 10  1  0
 18 16  1  0
 18 19  2  0
 20 21  1  0
 21 31  2  0
 22 21  1  0
 22 23  2  0
 23 24  1  0
 24 30  2  0
 24 25  1  0
 26 25  1  1
 26 27  1  0
 27 18  1  0
 28 26  1  0
 29 28  2  0
 31 30  1  0
 32 28  1  0
M  END
$$$$
