FLY.pdb
     RDKit          3D

 32 33  0  0  1  0  0  0  0  0999 V2000
    5.7205  -18.4110   21.8386 N   0  0  0  0  0  0  0  0  0  0  0  0
    6.2956  -17.3364   22.6315 C   0  0  1  0  0  0  0  0  0  0  0  0
    6.4925  -17.7772   24.0661 C   0  0  0  0  0  0  0  0  0  0  0  0
    6.8799  -16.5363   24.8265 C   0  0  0  0  0  0  0  0  0  0  0  0
    6.4491  -16.3720   26.1308 C   0  0  0  0  0  0  0  0  0  0  0  0
    6.7830  -15.2532   26.8600 C   0  0  0  0  0  0  0  0  0  0  0  0
    7.5615  -14.2631   26.3003 C   0  0  0  0  0  0  0  0  0  0  0  0
    7.9842  -14.4448   24.9917 C   0  0  0  0  0  0  0  0  0  0  0  0
    7.6483  -15.5728   24.2543 C   0  0  0  0  0  0  0  0  0  0  0  0
    7.6153  -16.9793   22.0095 C   0  0  0  0  0  0  0  0  0  0  0  0
    8.3781  -17.8761   21.5281 O   0  0  0  0  0  0  0  0  0  0  0  0
    7.9089  -13.8835   18.5193 C   0  0  0  0  0  0  0  0  0  0  0  0
    8.0192  -13.3929   19.9196 C   0  0  2  0  0  0  0  0  0  0  0  0
    8.0910  -11.8451   19.8617 C   0  0  0  0  0  0  0  0  0  0  0  0
    9.1100  -13.8484   20.7765 C   0  0  0  0  0  0  0  0  0  0  0  0
    9.2547  -15.2491   21.2270 C   0  0  2  0  0  0  0  0  0  0  0  0
    7.9997  -15.6172   21.9673 N   0  0  0  0  0  0  0  0  0  0  0  0
   10.3594  -15.4343   22.1829 C   0  0  0  0  0  0  0  0  0  0  0  0
   11.3268  -14.6460   22.2377 O   0  0  0  0  0  0  0  0  0  0  0  0
   11.5529  -14.8127   30.6409 O   0  0  0  0  0  0  0  0  0  0  0  0
   11.2468  -14.8689   29.2903 C   0  0  0  0  0  0  0  0  0  0  0  0
   11.4528  -16.0443   28.5819 C   0  0  0  0  0  0  0  0  0  0  0  0
   11.1522  -16.1070   27.2446 C   0  0  0  0  0  0  0  0  0  0  0  0
   10.6406  -15.0357   26.5401 C   0  0  0  0  0  0  0  0  0  0  0  0
   10.3351  -15.0959   25.0988 C   0  0  0  0  0  0  0  0  0  0  0  0
   10.8177  -16.3682   24.5003 C   0  0  2  0  0  0  0  0  0  0  0  0
   10.4128  -16.5164   23.1126 N   0  0  0  0  0  0  0  0  0  0  0  0
   10.4757  -17.5970   25.2126 C   0  0  0  0  0  0  0  0  0  0  0  0
    9.5137  -18.3130   24.8396 O   0  0  0  0  0  0  0  0  0  0  0  0
   10.4428  -13.8731   27.2661 C   0  0  0  0  0  0  0  0  0  0  0  0
   10.7398  -13.7948   28.6088 C   0  0  0  0  0  0  0  0  0  0  0  0
   11.1936  -18.0040   26.3045 O   0  0  0  0  0  0  0  0  0  0  0  0
  2  3  1  0
  2  1  1  6
  4  5  2  0
  4  3  1  0
  6  5  1  0
  7  6  2  0
  8  7  1  0
  8  9  2  0
  9  4  1  0
 10  2  1  0
 11 10  2  0
 13 12  1  6
 14 13  1  0
 15 13  1  0
 16 15  1  1
 16 17  1  0
 17 10  1  0
 18 16  1  0
 18 19  2  0
 20 21  1  0
 21 31  2  0
 22 21  1  0
 22 23  2  0
 23 24  1  0
 24 30  2  0
 24 25  1  0
 26 25  1  1
 26 27  1  0
 27 18  1  0
 28 26  1  0
 29 28  2  0
 31 30  1  0
 32 28  1  0
M  END
$$$$
