FLY.pdb
     RDKit          3D

 32 33  0  0  1  0  0  0  0  0999 V2000
    8.4771  -14.2503   25.4718 N   0  0  0  0  0  0  0  0  0  0  0  0
    7.5942  -15.3920   25.2945 C   0  0  1  0  0  0  0  0  0  0  0  0
    6.1451  -14.9697   25.4084 C   0  0  0  0  0  0  0  0  0  0  0  0
    6.1691  -13.5660   25.9535 C   0  0  0  0  0  0  0  0  0  0  0  0
    6.8261  -13.3063   27.1430 C   0  0  0  0  0  0  0  0  0  0  0  0
    6.8724  -12.0370   27.6735 C   0  0  0  0  0  0  0  0  0  0  0  0
    6.2590  -10.9873   27.0241 C   0  0  0  0  0  0  0  0  0  0  0  0
    5.6053  -11.2663   25.8330 C   0  0  0  0  0  0  0  0  0  0  0  0
    5.5574  -12.5464   25.2962 C   0  0  0  0  0  0  0  0  0  0  0  0
    7.8667  -15.9599   23.9310 C   0  0  0  0  0  0  0  0  0  0  0  0
    7.4958  -17.1372   23.6242 O   0  0  0  0  0  0  0  0  0  0  0  0
    7.8680  -13.3907   19.1283 C   0  0  0  0  0  0  0  0  0  0  0  0
    7.9623  -14.1797   20.3863 C   0  0  2  0  0  0  0  0  0  0  0  0
    7.7927  -13.1882   21.5663 C   0  0  0  0  0  0  0  0  0  0  0  0
    9.1461  -14.9880   20.6624 C   0  0  0  0  0  0  0  0  0  0  0  0
    9.2841  -15.8373   21.8647 C   0  0  2  0  0  0  0  0  0  0  0  0
    8.5486  -15.1569   22.9848 N   0  0  0  0  0  0  0  0  0  0  0  0
   10.6791  -15.9713   22.3170 C   0  0  0  0  0  0  0  0  0  0  0  0
   11.3401  -14.9928   22.7241 O   0  0  0  0  0  0  0  0  0  0  0  0
   11.0896  -14.7481   29.0240 O   0  0  0  0  0  0  0  0  0  0  0  0
   10.9511  -15.5688   27.9158 C   0  0  0  0  0  0  0  0  0  0  0  0
   12.0728  -15.9560   27.1964 C   0  0  0  0  0  0  0  0  0  0  0  0
   11.9432  -16.7683   26.0981 C   0  0  0  0  0  0  0  0  0  0  0  0
   10.7237  -17.2378   25.6528 C   0  0  0  0  0  0  0  0  0  0  0  0
   10.5810  -18.0951   24.4615 C   0  0  0  0  0  0  0  0  0  0  0  0
   11.7361  -17.9307   23.5401 C   0  0  2  0  0  0  0  0  0  0  0  0
   11.3794  -17.2153   22.3267 N   0  0  0  0  0  0  0  0  0  0  0  0
   12.4500  -19.1481   23.1630 C   0  0  0  0  0  0  0  0  0  0  0  0
   13.4376  -19.5494   23.8270 O   0  0  0  0  0  0  0  0  0  0  0  0
    9.6179  -16.8395   26.3850 C   0  0  0  0  0  0  0  0  0  0  0  0
    9.7322  -16.0245   27.4895 C   0  0  0  0  0  0  0  0  0  0  0  0
   12.0630  -19.8867   22.0775 O   0  0  0  0  0  0  0  0  0  0  0  0
  2  3  1  0
  2  1  1  6
  4  5  2  0
  4  3  1  0
  6  5  1  0
  7  6  2  0
  8  7  1  0
  8  9  2  0
  9  4  1  0
 10  2  1  0
 11 10  2  0
 13 12  1  6
 14 13  1  0
 15 13  1  0
 16 15  1  6
 16 17  1  0
 17 10  1  0
 18 16  1  0
 18 19  2  0
 20 21  1  0
 21 31  2  0
 22 21  1  0
 22 23  2  0
 23 24  1  0
 24 30  2  0
 24 25  1  0
 26 25  1  6
 26 27  1  0
 27 18  1  0
 28 26  1  0
 29 28  2  0
 31 30  1  0
 32 28  1  0
M  END
$$$$
