FLY.pdb
     RDKit          3D

 32 33  0  0  1  0  0  0  0  0999 V2000
    5.4538  -18.3725   24.1811 N   0  0  0  0  0  0  0  0  0  0  0  0
    6.1071  -17.1049   24.4654 C   0  0  1  0  0  0  0  0  0  0  0  0
    6.8078  -17.1537   25.8062 C   0  0  0  0  0  0  0  0  0  0  0  0
    7.0461  -15.7187   26.1962 C   0  0  0  0  0  0  0  0  0  0  0  0
    8.3379  -15.2771   26.4196 C   0  0  0  0  0  0  0  0  0  0  0  0
    8.5978  -13.9731   26.7760 C   0  0  0  0  0  0  0  0  0  0  0  0
    7.5657  -13.0708   26.9192 C   0  0  0  0  0  0  0  0  0  0  0  0
    6.2773  -13.5313   26.6913 C   0  0  0  0  0  0  0  0  0  0  0  0
    6.0132  -14.8466   26.3317 C   0  0  0  0  0  0  0  0  0  0  0  0
    7.1003  -16.8579   23.3661 C   0  0  0  0  0  0  0  0  0  0  0  0
    7.6662  -17.8245   22.7634 O   0  0  0  0  0  0  0  0  0  0  0  0
    8.2408  -11.8121   19.8673 C   0  0  0  0  0  0  0  0  0  0  0  0
    8.3586  -13.2794   20.0842 C   0  0  2  0  0  0  0  0  0  0  0  0
    7.7151  -13.9797   18.8595 C   0  0  0  0  0  0  0  0  0  0  0  0
    7.7972  -13.8947   21.2832 C   0  0  0  0  0  0  0  0  0  0  0  0
    8.1259  -15.2692   21.7175 C   0  0  2  0  0  0  0  0  0  0  0  0
    7.3988  -15.5208   23.0085 N   0  0  0  0  0  0  0  0  0  0  0  0
    9.5565  -15.4516   22.0146 C   0  0  0  0  0  0  0  0  0  0  0  0
   10.4375  -14.7351   21.4943 O   0  0  0  0  0  0  0  0  0  0  0  0
   11.6087  -14.8105   30.3716 O   0  0  0  0  0  0  0  0  0  0  0  0
   11.1544  -14.9354   29.0682 C   0  0  0  0  0  0  0  0  0  0  0  0
   11.2946  -13.8770   28.1817 C   0  0  0  0  0  0  0  0  0  0  0  0
   10.8470  -13.9935   26.8898 C   0  0  0  0  0  0  0  0  0  0  0  0
   10.2464  -15.1381   26.4049 C   0  0  0  0  0  0  0  0  0  0  0  0
    9.7477  -15.2579   25.0224 C   0  0  0  0  0  0  0  0  0  0  0  0
   10.6159  -16.1538   24.2140 C   0  0  2  0  0  0  0  0  0  0  0  0
   10.0457  -16.4496   22.9106 N   0  0  0  0  0  0  0  0  0  0  0  0
   11.0163  -17.4129   24.8371 C   0  0  0  0  0  0  0  0  0  0  0  0
   10.4158  -18.4838   24.5726 O   0  0  0  0  0  0  0  0  0  0  0  0
   10.1166  -16.1816   27.3060 C   0  0  0  0  0  0  0  0  0  0  0  0
   10.5610  -16.0795   28.6057 C   0  0  0  0  0  0  0  0  0  0  0  0
   12.0570  -17.4626   25.7247 O   0  0  0  0  0  0  0  0  0  0  0  0
  2  3  1  0
  2  1  1  6
  4  5  2  0
  4  3  1  0
  6  5  1  0
  7  6  2  0
  8  7  1  0
  8  9  2  0
  9  4  1  0
 10  2  1  0
 11 10  2  0
 13 12  1  1
 14 13  1  0
 15 13  1  0
 16 15  1  1
 16 17  1  0
 17 10  1  0
 18 16  1  0
 18 19  2  0
 20 21  1  0
 21 31  2  0
 22 21  1  0
 22 23  2  0
 23 24  1  0
 24 30  2  0
 24 25  1  0
 26 25  1  1
 26 27  1  0
 27 18  1  0
 28 26  1  0
 29 28  2  0
 31 30  1  0
 32 28  1  0
M  END
$$$$
