FLY.pdb
     RDKit          3D

 32 33  0  0  1  0  0  0  0  0999 V2000
    5.9483  -18.3363   23.9722 N   0  0  0  0  0  0  0  0  0  0  0  0
    6.4451  -16.9841   24.1703 C   0  0  1  0  0  0  0  0  0  0  0  0
    6.7393  -16.7319   25.6335 C   0  0  0  0  0  0  0  0  0  0  0  0
    6.6876  -15.2372   25.8101 C   0  0  0  0  0  0  0  0  0  0  0  0
    7.8095  -14.5631   26.2580 C   0  0  0  0  0  0  0  0  0  0  0  0
    7.8035  -13.1974   26.4307 C   0  0  0  0  0  0  0  0  0  0  0  0
    6.6678  -12.4655   26.1582 C   0  0  0  0  0  0  0  0  0  0  0  0
    5.5526  -13.1581   25.7101 C   0  0  0  0  0  0  0  0  0  0  0  0
    5.5568  -14.5359   25.5353 C   0  0  0  0  0  0  0  0  0  0  0  0
    7.6985  -16.8447   23.3544 C   0  0  0  0  0  0  0  0  0  0  0  0
    8.3022  -17.8673   22.8988 O   0  0  0  0  0  0  0  0  0  0  0  0
    8.0937  -14.0036   18.9956 C   0  0  0  0  0  0  0  0  0  0  0  0
    7.9055  -13.5085   20.3861 C   0  0  2  0  0  0  0  0  0  0  0  0
    7.9218  -11.9590   20.3301 C   0  0  0  0  0  0  0  0  0  0  0  0
    8.8245  -13.9165   21.4445 C   0  0  0  0  0  0  0  0  0  0  0  0
    9.0140  -15.3244   21.8539 C   0  0  2  0  0  0  0  0  0  0  0  0
    8.2012  -15.5460   23.0984 N   0  0  0  0  0  0  0  0  0  0  0  0
   10.4067  -15.6349   22.2176 C   0  0  0  0  0  0  0  0  0  0  0  0
   11.3738  -15.0217   21.7186 O   0  0  0  0  0  0  0  0  0  0  0  0
   11.5742  -15.1973   30.7538 O   0  0  0  0  0  0  0  0  0  0  0  0
   11.3107  -15.2371   29.3938 C   0  0  0  0  0  0  0  0  0  0  0  0
   11.6304  -14.1487   28.5943 C   0  0  0  0  0  0  0  0  0  0  0  0
   11.3722  -14.1811   27.2471 C   0  0  0  0  0  0  0  0  0  0  0  0
   10.7947  -15.2672   26.6204 C   0  0  0  0  0  0  0  0  0  0  0  0
   10.4990  -15.2959   25.1761 C   0  0  0  0  0  0  0  0  0  0  0  0
   11.2647  -16.3712   24.4924 C   0  0  2  0  0  0  0  0  0  0  0  0
   10.7593  -16.6490   23.1586 N   0  0  0  0  0  0  0  0  0  0  0  0
   11.3939  -17.6381   25.2080 C   0  0  0  0  0  0  0  0  0  0  0  0
   12.2718  -17.7933   26.0926 O   0  0  0  0  0  0  0  0  0  0  0  0
   10.4838  -16.3420   27.4365 C   0  0  0  0  0  0  0  0  0  0  0  0
   10.7369  -16.3242   28.7902 C   0  0  0  0  0  0  0  0  0  0  0  0
   10.5623  -18.6909   24.9369 O   0  0  0  0  0  0  0  0  0  0  0  0
  2  3  1  0
  2  1  1  1
  4  5  2  0
  4  3  1  0
  6  5  1  0
  7  6  2  0
  8  7  1  0
  8  9  2  0
  9  4  1  0
 10  2  1  0
 11 10  2  0
 13 12  1  6
 14 13  1  0
 15 13  1  0
 16 15  1  1
 16 17  1  0
 17 10  1  0
 18 16  1  0
 18 19  2  0
 20 21  1  0
 21 31  2  0
 22 21  1  0
 22 23  2  0
 23 24  1  0
 24 30  2  0
 24 25  1  0
 26 25  1  1
 26 27  1  0
 27 18  1  0
 28 26  1  0
 29 28  2  0
 31 30  1  0
 32 28  1  0
M  END
$$$$
