FLY.pdb
     RDKit          3D

 32 33  0  0  1  0  0  0  0  0999 V2000
    8.3792  -16.1389   26.1375 N   0  0  0  0  0  0  0  0  0  0  0  0
    7.2066  -16.6403   25.4388 C   0  0  1  0  0  0  0  0  0  0  0  0
    5.9908  -15.7991   25.7634 C   0  0  0  0  0  0  0  0  0  0  0  0
    6.5233  -14.4543   26.1831 C   0  0  0  0  0  0  0  0  0  0  0  0
    7.8724  -14.3073   26.4515 C   0  0  0  0  0  0  0  0  0  0  0  0
    8.3985  -13.0948   26.8360 C   0  0  0  0  0  0  0  0  0  0  0  0
    7.5838  -11.9903   26.9629 C   0  0  0  0  0  0  0  0  0  0  0  0
    6.2341  -12.1563   26.6897 C   0  0  0  0  0  0  0  0  0  0  0  0
    5.7014  -13.3790   26.3017 C   0  0  0  0  0  0  0  0  0  0  0  0
    7.5042  -16.5816   23.9678 C   0  0  0  0  0  0  0  0  0  0  0  0
    7.2148  -17.5537   23.2003 O   0  0  0  0  0  0  0  0  0  0  0  0
    8.8589  -12.1245   19.8329 C   0  0  0  0  0  0  0  0  0  0  0  0
    8.6026  -13.5492   20.1767 C   0  0  2  0  0  0  0  0  0  0  0  0
    7.2535  -13.9458   19.5233 C   0  0  0  0  0  0  0  0  0  0  0  0
    8.5524  -13.9731   21.5728 C   0  0  0  0  0  0  0  0  0  0  0  0
    8.4783  -15.3906   21.9863 C   0  0  2  0  0  0  0  0  0  0  0  0
    8.1170  -15.4172   23.4448 N   0  0  0  0  0  0  0  0  0  0  0  0
    9.7692  -16.0903   21.8747 C   0  0  0  0  0  0  0  0  0  0  0  0
   10.0360  -16.8379   20.9103 O   0  0  0  0  0  0  0  0  0  0  0  0
   13.2452  -14.9725   16.6863 O   0  0  0  0  0  0  0  0  0  0  0  0
   13.2298  -15.1267   18.0636 C   0  0  0  0  0  0  0  0  0  0  0  0
   13.4424  -16.3789   18.6226 C   0  0  0  0  0  0  0  0  0  0  0  0
   13.4285  -16.5389   19.9854 C   0  0  0  0  0  0  0  0  0  0  0  0
   13.2085  -15.4943   20.8606 C   0  0  0  0  0  0  0  0  0  0  0  0
   13.1742  -15.6683   22.3245 C   0  0  0  0  0  0  0  0  0  0  0  0
   12.1033  -16.6173   22.7275 C   0  0  2  0  0  0  0  0  0  0  0  0
   10.8071  -15.9715   22.8478 N   0  0  0  0  0  0  0  0  0  0  0  0
   12.3426  -17.3969   23.9395 C   0  0  0  0  0  0  0  0  0  0  0  0
   13.4455  -17.9650   24.1344 O   0  0  0  0  0  0  0  0  0  0  0  0
   12.9987  -14.2538   20.2818 C   0  0  0  0  0  0  0  0  0  0  0  0
   13.0098  -14.0776   18.9158 C   0  0  0  0  0  0  0  0  0  0  0  0
   11.3738  -17.5294   24.8973 O   0  0  0  0  0  0  0  0  0  0  0  0
  2  3  1  0
  2  1  1  1
  4  5  2  0
  4  3  1  0
  6  5  1  0
  7  6  2  0
  8  7  1  0
  8  9  2  0
  9  4  1  0
 10  2  1  0
 11 10  2  0
 13 12  1  1
 14 13  1  0
 15 13  1  0
 16 15  1  1
 16 17  1  0
 17 10  1  0
 18 16  1  0
 18 19  2  0
 20 21  1  0
 21 31  2  0
 22 21  1  0
 22 23  2  0
 23 24  1  0
 24 30  2  0
 24 25  1  0
 26 25  1  1
 26 27  1  0
 27 18  1  0
 28 26  1  0
 29 28  2  0
 31 30  1  0
 32 28  1  0
M  END
$$$$
