FLY.pdb
     RDKit          3D

 32 33  0  0  1  0  0  0  0  0999 V2000
    5.8293  -18.1166   24.5371 N   0  0  0  0  0  0  0  0  0  0  0  0
    6.3227  -16.7512   24.6168 C   0  0  1  0  0  0  0  0  0  0  0  0
    6.6392  -16.3801   26.0497 C   0  0  0  0  0  0  0  0  0  0  0  0
    6.6555  -14.8747   26.0890 C   0  0  0  0  0  0  0  0  0  0  0  0
    7.8657  -14.2045   26.0932 C   0  0  0  0  0  0  0  0  0  0  0  0
    7.9233  -12.8296   26.1268 C   0  0  0  0  0  0  0  0  0  0  0  0
    6.7644  -12.0840   26.1573 C   0  0  0  0  0  0  0  0  0  0  0  0
    5.5604  -12.7728   26.1526 C   0  0  0  0  0  0  0  0  0  0  0  0
    5.5004  -14.1600   26.1187 C   0  0  0  0  0  0  0  0  0  0  0  0
    7.5621  -16.6740   23.7718 C   0  0  0  0  0  0  0  0  0  0  0  0
    8.2052  -17.7239   23.4525 O   0  0  0  0  0  0  0  0  0  0  0  0
    7.2097  -14.3739   19.8007 C   0  0  0  0  0  0  0  0  0  0  0  0
    7.7663  -13.5992   20.9426 C   0  0  2  0  0  0  0  0  0  0  0  0
    8.0122  -12.1523   20.4421 C   0  0  0  0  0  0  0  0  0  0  0  0
    8.9866  -14.0433   21.6096 C   0  0  0  0  0  0  0  0  0  0  0  0
    9.1019  -15.3427   22.3055 C   0  0  2  0  0  0  0  0  0  0  0  0
    8.0066  -15.4034   23.3327 N   0  0  0  0  0  0  0  0  0  0  0  0
   10.3647  -15.4866   23.0490 C   0  0  0  0  0  0  0  0  0  0  0  0
   11.2351  -14.5907   23.0556 O   0  0  0  0  0  0  0  0  0  0  0  0
   10.1199  -13.6158   29.4893 O   0  0  0  0  0  0  0  0  0  0  0  0
   10.5769  -14.5449   28.5679 C   0  0  0  0  0  0  0  0  0  0  0  0
    9.8342  -15.6886   28.3112 C   0  0  0  0  0  0  0  0  0  0  0  0
   10.2806  -16.6127   27.4004 C   0  0  0  0  0  0  0  0  0  0  0  0
   11.4627  -16.4668   26.7024 C   0  0  0  0  0  0  0  0  0  0  0  0
   11.9531  -17.4683   25.7376 C   0  0  0  0  0  0  0  0  0  0  0  0
   12.0118  -16.9058   24.3628 C   0  0  2  0  0  0  0  0  0  0  0  0
   10.6917  -16.6474   23.8131 N   0  0  0  0  0  0  0  0  0  0  0  0
   12.7792  -17.6643   23.3781 C   0  0  0  0  0  0  0  0  0  0  0  0
   12.2481  -18.0597   22.3109 O   0  0  0  0  0  0  0  0  0  0  0  0
   12.1879  -15.3187   26.9738 C   0  0  0  0  0  0  0  0  0  0  0  0
   11.7527  -14.3822   27.8852 C   0  0  0  0  0  0  0  0  0  0  0  0
   14.0979  -17.9645   23.5888 O   0  0  0  0  0  0  0  0  0  0  0  0
  2  3  1  0
  2  1  1  1
  4  5  2  0
  4  3  1  0
  6  5  1  0
  7  6  2  0
  8  7  1  0
  8  9  2  0
  9  4  1  0
 10  2  1  0
 11 10  2  0
 13 12  1  6
 14 13  1  0
 15 13  1  0
 16 15  1  1
 16 17  1  0
 17 10  1  0
 18 16  1  0
 18 19  2  0
 20 21  1  0
 21 31  2  0
 22 21  1  0
 22 23  2  0
 23 24  1  0
 24 30  2  0
 24 25  1  0
 26 25  1  1
 26 27  1  0
 27 18  1  0
 28 26  1  0
 29 28  2  0
 31 30  1  0
 32 28  1  0
M  END
$$$$
