FLY.pdb
     RDKit          3D

 32 33  0  0  1  0  0  0  0  0999 V2000
    5.2009  -18.4404   21.9751 N   0  0  0  0  0  0  0  0  0  0  0  0
    5.7900  -17.4760   22.8901 C   0  0  1  0  0  0  0  0  0  0  0  0
    5.7870  -18.0117   24.3058 C   0  0  0  0  0  0  0  0  0  0  0  0
    6.1764  -16.8516   25.1836 C   0  0  0  0  0  0  0  0  0  0  0  0
    5.6849  -15.5889   24.9046 C   0  0  0  0  0  0  0  0  0  0  0  0
    6.0155  -14.5031   25.6835 C   0  0  0  0  0  0  0  0  0  0  0  0
    6.8517  -14.6528   26.7690 C   0  0  0  0  0  0  0  0  0  0  0  0
    7.3348  -15.9258   27.0335 C   0  0  0  0  0  0  0  0  0  0  0  0
    7.0024  -17.0225   26.2487 C   0  0  0  0  0  0  0  0  0  0  0  0
    7.1976  -17.2255   22.4298 C   0  0  0  0  0  0  0  0  0  0  0  0
    7.8823  -18.1462   21.8809 O   0  0  0  0  0  0  0  0  0  0  0  0
    8.0850  -13.7875   19.4587 C   0  0  0  0  0  0  0  0  0  0  0  0
    8.1919  -13.4567   20.9054 C   0  0  2  0  0  0  0  0  0  0  0  0
    8.5236  -11.9455   21.0096 C   0  0  0  0  0  0  0  0  0  0  0  0
    9.1388  -14.1707   21.7568 C   0  0  0  0  0  0  0  0  0  0  0  0
    9.0819  -15.6306   21.9839 C   0  0  2  0  0  0  0  0  0  0  0  0
    7.7546  -15.9374   22.6183 N   0  0  0  0  0  0  0  0  0  0  0  0
   10.1045  -16.1054   22.9311 C   0  0  0  0  0  0  0  0  0  0  0  0
   11.3177  -15.8503   22.7786 O   0  0  0  0  0  0  0  0  0  0  0  0
   10.1270  -11.7642   27.9961 O   0  0  0  0  0  0  0  0  0  0  0  0
   10.1997  -13.0939   27.6120 C   0  0  0  0  0  0  0  0  0  0  0  0
    9.0354  -13.8101   27.3727 C   0  0  0  0  0  0  0  0  0  0  0  0
    9.0999  -15.1269   26.9922 C   0  0  0  0  0  0  0  0  0  0  0  0
   10.2926  -15.8024   26.8283 C   0  0  0  0  0  0  0  0  0  0  0  0
   10.3629  -17.2226   26.4382 C   0  0  0  0  0  0  0  0  0  0  0  0
   10.7943  -17.3702   25.0232 C   0  0  2  0  0  0  0  0  0  0  0  0
    9.7952  -16.8855   24.0860 N   0  0  0  0  0  0  0  0  0  0  0  0
   11.2098  -18.7059   24.6022 C   0  0  0  0  0  0  0  0  0  0  0  0
   10.6543  -19.2792   23.6328 O   0  0  0  0  0  0  0  0  0  0  0  0
   11.4418  -15.0690   27.0721 C   0  0  0  0  0  0  0  0  0  0  0  0
   11.3931  -13.7467   27.4546 C   0  0  0  0  0  0  0  0  0  0  0  0
   12.2163  -19.3698   25.2500 O   0  0  0  0  0  0  0  0  0  0  0  0
  2  3  1  0
  2  1  1  6
  4  5  2  0
  4  3  1  0
  6  5  1  0
  7  6  2  0
  8  7  1  0
  8  9  2  0
  9  4  1  0
 10  2  1  0
 11 10  2  0
 13 12  1  6
 14 13  1  0
 15 13  1  0
 16 15  1  1
 16 17  1  0
 17 10  1  0
 18 16  1  0
 18 19  2  0
 20 21  1  0
 21 31  2  0
 22 21  1  0
 22 23  2  0
 23 24  1  0
 24 30  2  0
 24 25  1  0
 26 25  1  1
 26 27  1  0
 27 18  1  0
 28 26  1  0
 29 28  2  0
 31 30  1  0
 32 28  1  0
M  END
$$$$
