FLY.pdb
     RDKit          3D

 32 33  0  0  1  0  0  0  0  0999 V2000
    6.3301  -17.2264   25.1603 N   0  0  0  0  0  0  0  0  0  0  0  0
    6.9875  -16.0421   24.6314 C   0  0  1  0  0  0  0  0  0  0  0  0
    8.0258  -15.5275   25.6052 C   0  0  0  0  0  0  0  0  0  0  0  0
    7.5643  -14.1514   26.0069 C   0  0  0  0  0  0  0  0  0  0  0  0
    7.2504  -13.2239   25.0296 C   0  0  0  0  0  0  0  0  0  0  0  0
    6.8233  -11.9565   25.3554 C   0  0  0  0  0  0  0  0  0  0  0  0
    6.6982  -11.5810   26.6757 C   0  0  0  0  0  0  0  0  0  0  0  0
    7.0173  -12.5238   27.6418 C   0  0  0  0  0  0  0  0  0  0  0  0
    7.4484  -13.8030   27.3150 C   0  0  0  0  0  0  0  0  0  0  0  0
    7.6366  -16.4331   23.3346 C   0  0  0  0  0  0  0  0  0  0  0  0
    7.6371  -17.6419   22.9391 O   0  0  0  0  0  0  0  0  0  0  0  0
    6.4661  -13.8231   20.0059 C   0  0  0  0  0  0  0  0  0  0  0  0
    7.8584  -13.5405   20.4479 C   0  0  2  0  0  0  0  0  0  0  0  0
    8.3743  -12.3426   19.6093 C   0  0  0  0  0  0  0  0  0  0  0  0
    8.8768  -14.5848   20.3892 C   0  0  0  0  0  0  0  0  0  0  0  0
    8.8317  -15.8072   21.2195 C   0  0  2  0  0  0  0  0  0  0  0  0
    8.2530  -15.4260   22.5531 N   0  0  0  0  0  0  0  0  0  0  0  0
   10.1668  -16.3617   21.4994 C   0  0  0  0  0  0  0  0  0  0  0  0
   10.7894  -17.0451   20.6594 O   0  0  0  0  0  0  0  0  0  0  0  0
   14.5451  -14.4478   17.5395 O   0  0  0  0  0  0  0  0  0  0  0  0
   14.2187  -14.7148   18.8598 C   0  0  0  0  0  0  0  0  0  0  0  0
   14.6021  -15.9164   19.4385 C   0  0  0  0  0  0  0  0  0  0  0  0
   14.2823  -16.1875   20.7450 C   0  0  0  0  0  0  0  0  0  0  0  0
   13.5792  -15.3072   21.5429 C   0  0  0  0  0  0  0  0  0  0  0  0
   13.2182  -15.6052   22.9411 C   0  0  0  0  0  0  0  0  0  0  0  0
   12.1832  -16.6700   23.0132 C   0  0  2  0  0  0  0  0  0  0  0  0
   10.8487  -16.1651   22.7381 N   0  0  0  0  0  0  0  0  0  0  0  0
   12.1338  -17.4514   24.2465 C   0  0  0  0  0  0  0  0  0  0  0  0
   11.0455  -17.6528   24.8400 O   0  0  0  0  0  0  0  0  0  0  0  0
   13.2065  -14.1146   20.9457 C   0  0  0  0  0  0  0  0  0  0  0  0
   13.5203  -13.8283   19.6354 C   0  0  0  0  0  0  0  0  0  0  0  0
   13.2702  -17.9872   24.7896 O   0  0  0  0  0  0  0  0  0  0  0  0
  2  3  1  0
  2  1  1  1
  4  5  2  0
  4  3  1  0
  6  5  1  0
  7  6  2  0
  8  7  1  0
  8  9  2  0
  9  4  1  0
 10  2  1  0
 11 10  2  0
 13 12  1  6
 14 13  1  0
 15 13  1  0
 16 15  1  6
 16 17  1  0
 17 10  1  0
 18 16  1  0
 18 19  2  0
 20 21  1  0
 21 31  2  0
 22 21  1  0
 22 23  2  0
 23 24  1  0
 24 30  2  0
 24 25  1  0
 26 25  1  1
 26 27  1  0
 27 18  1  0
 28 26  1  0
 29 28  2  0
 31 30  1  0
 32 28  1  0
M  END
$$$$
