RAA.pdb
     RDKit          3D

 22 21  0  0  1  0  0  0  0  0999 V2000
   28.3679  -31.5470  -21.6894 N   0  0  0  0  0  0  0  0  0  0  0  0
   29.4693  -31.2224  -20.8587 C   0  0  0  0  0  0  0  0  0  0  0  0
   30.4358  -30.5462  -21.3860 N   0  0  0  0  0  0  0  0  0  0  0  0
   29.5665  -31.5928  -19.5112 N   0  0  0  0  0  0  0  0  0  0  0  0
   28.5141  -32.3278  -18.8289 C   0  0  0  0  0  0  0  0  0  0  0  0
   27.3445  -31.3894  -18.5787 C   0  0  0  0  0  0  0  0  0  0  0  0
   26.5258  -31.8836  -17.4312 C   0  0  0  0  0  0  0  0  0  0  0  0
   26.4652  -30.8797  -16.3225 C   0  0  2  0  0  0  0  0  0  0  0  0
   27.7783  -30.8445  -15.6521 N   0  0  0  0  0  0  0  0  0  0  0  0
   25.4026  -31.2026  -15.3674 C   0  0  0  0  0  0  0  0  0  0  0  0
   25.6482  -31.5521  -14.2013 O   0  0  0  0  0  0  0  0  0  0  0  0
   31.2900  -30.2366  -20.8806 C   0  0  0  0  0  0  0  0  0  0  0  0
   21.6891  -30.8554  -15.4592 C   0  0  1  0  0  0  0  0  0  0  0  0
   22.9717  -31.4227  -14.8703 N   0  0  0  0  0  0  0  0  0  0  0  0
   24.0399  -31.1106  -15.7997 C   0  0  0  0  0  0  0  0  0  0  0  0
   22.8903  -32.8893  -14.7346 O   0  0  0  0  0  0  0  0  0  0  0  0
   23.5155  -33.6255  -15.5003 C   0  0  0  0  0  0  0  0  0  0  0  0
   22.0854  -35.6055  -14.9944 C   0  0  1  0  0  0  0  0  0  0  0  0
   21.9515  -34.9435  -13.6432 N   0  0  0  0  0  0  0  0  0  0  0  0
   22.0872  -33.5152  -13.7138 C   0  0  0  0  0  0  0  0  0  0  0  0
   23.0094  -35.4947  -12.7678 O   0  0  0  0  0  0  0  0  0  0  0  0
   24.1460  -34.9655  -12.7750 O   0  0  0  0  0  0  0  0  0  0  0  0
  1  2  1  0
  2  4  1  0
  3  2  2  0
  4  5  1  0
  5  6  1  0
  6  7  1  0
  7  8  1  0
  8 10  1  0
  8  9  1  1
 10 14  1  0
 10 11  2  0
 13 15  1  0
 13 12  1  1
 14 13  1  0
 15 16  2  0
 18 17  1  6
 19 18  1  0
 19 15  1  0
 20 22  1  0
 20 18  1  0
 21 20  2  0
M  END
$$$$
