RAA.pdb
     RDKit          3D

 22 21  0  0  1  0  0  0  0  0999 V2000
   47.6774  -13.4558   -7.3818 N   0  0  0  0  0  0  0  0  0  0  0  0
   46.4048  -13.6585   -6.7919 C   0  0  0  0  0  0  0  0  0  0  0  0
   46.3618  -14.3000   -5.6712 N   0  0  0  0  0  0  0  0  0  0  0  0
   45.2033  -13.2072   -7.3534 N   0  0  0  0  0  0  0  0  0  0  0  0
   45.1610  -12.4462   -8.5912 C   0  0  0  0  0  0  0  0  0  0  0  0
   44.7906  -11.0073   -8.2691 C   0  0  0  0  0  0  0  0  0  0  0  0
   43.3189  -10.8947   -8.0395 C   0  0  0  0  0  0  0  0  0  0  0  0
   42.8952   -9.4706   -7.8577 C   0  0  2  0  0  0  0  0  0  0  0  0
   42.8802   -9.1685   -6.4142 N   0  0  0  0  0  0  0  0  0  0  0  0
   41.5800   -9.2247   -8.4537 C   0  0  0  0  0  0  0  0  0  0  0  0
   41.3738   -9.3522   -9.6717 O   0  0  0  0  0  0  0  0  0  0  0  0
   45.5006  -14.4632   -5.1120 C   0  0  0  0  0  0  0  0  0  0  0  0
   38.2506   -8.2905   -7.0067 C   0  0  2  0  0  0  0  0  0  0  0  0
   39.1928   -8.5735   -8.1668 N   0  0  0  0  0  0  0  0  0  0  0  0
   40.5028   -8.8243   -7.5983 C   0  0  0  0  0  0  0  0  0  0  0  0
   39.2938   -7.4079   -9.0652 O   0  0  0  0  0  0  0  0  0  0  0  0
   40.1054   -6.5087   -8.8368 C   0  0  0  0  0  0  0  0  0  0  0  0
   37.7704   -6.2738  -12.3629 C   0  0  2  0  0  0  0  0  0  0  0  0
   38.5225   -6.1031  -11.0639 N   0  0  0  0  0  0  0  0  0  0  0  0
   38.4592   -7.2732  -10.2330 C   0  0  0  0  0  0  0  0  0  0  0  0
   37.9214   -4.9576  -10.3458 O   0  0  0  0  0  0  0  0  0  0  0  0
   37.1386   -5.1772   -9.3913 O   0  0  0  0  0  0  0  0  0  0  0  0
  1  2  1  0
  2  4  1  0
  3  2  2  0
  4  5  1  0
  5  6  1  0
  6  7  1  0
  7  8  1  0
  8 10  1  0
  8  9  1  1
 10 14  1  0
 10 11  2  0
 13 15  1  0
 13 12  1  1
 14 13  1  0
 15 16  2  0
 18 17  1  6
 19 18  1  0
 19 15  1  0
 20 22  1  0
 20 18  1  0
 21 20  2  0
M  END
$$$$
