RAA.pdb
     RDKit          3D

 22 21  0  0  1  0  0  0  0  0999 V2000
   16.8968  -16.6940    4.7690 N   0  0  0  0  0  0  0  0  0  0  0  0
   16.5980  -15.7972    3.7130 C   0  0  0  0  0  0  0  0  0  0  0  0
   15.4263  -15.8786    3.1744 N   0  0  0  0  0  0  0  0  0  0  0  0
   17.4956  -14.8386    3.2254 N   0  0  0  0  0  0  0  0  0  0  0  0
   18.6443  -14.3873    3.9935 C   0  0  0  0  0  0  0  0  0  0  0  0
   18.3694  -12.9826    4.5061 C   0  0  0  0  0  0  0  0  0  0  0  0
   19.5484  -12.4746    5.2698 C   0  0  0  0  0  0  0  0  0  0  0  0
   19.1421  -11.8770    6.5807 C   0  0  2  0  0  0  0  0  0  0  0  0
   19.4341  -10.4319    6.5457 N   0  0  0  0  0  0  0  0  0  0  0  0
   19.8361  -12.5205    7.6986 C   0  0  0  0  0  0  0  0  0  0  0  0
   21.0385  -12.3167    7.9333 O   0  0  0  0  0  0  0  0  0  0  0  0
   15.0864  -15.2784    2.3966 C   0  0  0  0  0  0  0  0  0  0  0  0
   18.6834  -14.6696   10.5314 C   0  0  1  0  0  0  0  0  0  0  0  0
   19.7669  -14.0667    9.6504 N   0  0  0  0  0  0  0  0  0  0  0  0
   19.0981  -13.4119    8.5431 C   0  0  0  0  0  0  0  0  0  0  0  0
   20.6501  -15.1139    9.1034 O   0  0  0  0  0  0  0  0  0  0  0  0
   20.3652  -15.6874    8.0502 C   0  0  0  0  0  0  0  0  0  0  0  0
   24.1244  -16.4626    9.8083 C   0  0  2  0  0  0  0  0  0  0  0  0
   22.7405  -16.4968    9.2035 N   0  0  0  0  0  0  0  0  0  0  0  0
   21.8680  -15.5053    9.7685 C   0  0  0  0  0  0  0  0  0  0  0  0
   22.1780  -17.8432    9.4486 O   0  0  0  0  0  0  0  0  0  0  0  0
   22.5662  -18.8053    8.7445 O   0  0  0  0  0  0  0  0  0  0  0  0
  1  2  1  0
  2  4  1  0
  3  2  2  0
  4  5  1  0
  5  6  1  0
  6  7  1  0
  7  8  1  0
  8 10  1  0
  8  9  1  6
 10 14  1  0
 10 11  2  0
 13 15  1  0
 13 12  1  1
 14 13  1  0
 15 16  2  0
 18 17  1  6
 19 18  1  0
 19 15  1  0
 20 22  1  0
 20 18  1  0
 21 20  2  0
M  END
$$$$
