RAA.pdb
     RDKit          3D

 22 21  0  0  1  0  0  0  0  0999 V2000
   36.3346  -11.4450   -9.0615 N   0  0  0  0  0  0  0  0  0  0  0  0
   36.9781  -11.6983   -7.8243 C   0  0  0  0  0  0  0  0  0  0  0  0
   36.2307  -11.9900   -6.8115 N   0  0  0  0  0  0  0  0  0  0  0  0
   38.3661  -11.6481   -7.6418 N   0  0  0  0  0  0  0  0  0  0  0  0
   39.0257  -10.5233   -6.9993 C   0  0  0  0  0  0  0  0  0  0  0  0
   38.5265   -9.2351   -7.6338 C   0  0  0  0  0  0  0  0  0  0  0  0
   39.1744   -8.0570   -6.9829 C   0  0  0  0  0  0  0  0  0  0  0  0
   40.6019   -7.9066   -7.4077 C   0  0  2  0  0  0  0  0  0  0  0  0
   41.4547   -8.6237   -6.4415 N   0  0  0  0  0  0  0  0  0  0  0  0
   40.9873   -6.4961   -7.4940 C   0  0  0  0  0  0  0  0  0  0  0  0
   41.4087   -5.8664   -6.5102 O   0  0  0  0  0  0  0  0  0  0  0  0
   36.5797  -12.1880   -5.8524 C   0  0  0  0  0  0  0  0  0  0  0  0
   41.4407   -4.1625  -10.3708 C   0  0  1  0  0  0  0  0  0  0  0  0
   41.3161   -4.4548   -8.8833 N   0  0  0  0  0  0  0  0  0  0  0  0
   40.8711   -5.8288   -8.7565 C   0  0  0  0  0  0  0  0  0  0  0  0
   40.3076   -3.5819   -8.2534 O   0  0  0  0  0  0  0  0  0  0  0  0
   39.1147   -3.8921   -8.2650 C   0  0  0  0  0  0  0  0  0  0  0  0
   40.2818   -0.3433   -6.2458 C   0  0  2  0  0  0  0  0  0  0  0  0
   39.6757   -1.4971   -7.0096 N   0  0  0  0  0  0  0  0  0  0  0  0
   40.6698   -2.3458   -7.6056 C   0  0  0  0  0  0  0  0  0  0  0  0
   38.8150   -0.9288   -8.0705 O   0  0  0  0  0  0  0  0  0  0  0  0
   39.2250   -0.9282   -9.2554 O   0  0  0  0  0  0  0  0  0  0  0  0
  1  2  1  0
  2  4  1  0
  3  2  2  0
  4  5  1  0
  5  6  1  0
  6  7  1  0
  7  8  1  0
  8 10  1  0
  8  9  1  1
 10 14  1  0
 10 11  2  0
 13 15  1  0
 13 12  1  1
 14 13  1  0
 15 16  2  0
 18 17  1  1
 19 18  1  0
 19 15  1  0
 20 22  1  0
 20 18  1  0
 21 20  2  0
M  END
$$$$
