RAA.pdb
     RDKit          3D

 22 21  0  0  1  0  0  0  0  0999 V2000
   25.8895  -22.7709  -15.5339 N   0  0  0  0  0  0  0  0  0  0  0  0
   25.5094  -23.8695  -14.7231 C   0  0  0  0  0  0  0  0  0  0  0  0
   25.4364  -25.0300  -15.2865 N   0  0  0  0  0  0  0  0  0  0  0  0
   25.2098  -23.7659  -13.3586 N   0  0  0  0  0  0  0  0  0  0  0  0
   25.0937  -22.4838  -12.6832 C   0  0  0  0  0  0  0  0  0  0  0  0
   23.7641  -21.8503  -13.0603 C   0  0  0  0  0  0  0  0  0  0  0  0
   23.9863  -20.4812  -13.6147 C   0  0  0  0  0  0  0  0  0  0  0  0
   23.1099  -20.2154  -14.7988 C   0  0  2  0  0  0  0  0  0  0  0  0
   23.7823  -20.7361  -16.0037 N   0  0  0  0  0  0  0  0  0  0  0  0
   22.8233  -18.7860  -14.9406 C   0  0  0  0  0  0  0  0  0  0  0  0
   22.4906  -18.0812  -13.9738 O   0  0  0  0  0  0  0  0  0  0  0  0
   25.2235  -25.9191  -14.7914 C   0  0  0  0  0  0  0  0  0  0  0  0
   23.5485  -16.2044  -17.4159 C   0  0  2  0  0  0  0  0  0  0  0  0
   22.5641  -16.7990  -16.4204 N   0  0  0  0  0  0  0  0  0  0  0  0
   22.9317  -18.1896  -16.2387 C   0  0  0  0  0  0  0  0  0  0  0  0
   21.1855  -16.7493  -16.9428 O   0  0  0  0  0  0  0  0  0  0  0  0
   20.7751  -17.6196  -17.7131 C   0  0  0  0  0  0  0  0  0  0  0  0
   17.8964  -15.3215  -16.1019 C   0  0  2  0  0  0  0  0  0  0  0  0
   18.9511  -15.6263  -17.1396 N   0  0  0  0  0  0  0  0  0  0  0  0
   20.2718  -15.6951  -16.5787 C   0  0  0  0  0  0  0  0  0  0  0  0
   18.9040  -14.5511  -18.1550 O   0  0  0  0  0  0  0  0  0  0  0  0
   17.8630  -14.3996  -18.8371 O   0  0  0  0  0  0  0  0  0  0  0  0
  1  2  1  0
  2  4  1  0
  3  2  2  0
  4  5  1  0
  5  6  1  0
  6  7  1  0
  7  8  1  0
  8 10  1  0
  8  9  1  6
 10 14  1  0
 10 11  2  0
 13 15  1  0
 13 12  1  1
 14 13  1  0
 15 16  2  0
 18 17  1  1
 19 18  1  0
 19 15  1  0
 20 22  1  0
 20 18  1  0
 21 20  2  0
M  END
$$$$
