RAA.pdb
     RDKit          3D

 22 21  0  0  1  0  0  0  0  0999 V2000
   25.8498  -20.7193  -10.8068 N   0  0  0  0  0  0  0  0  0  0  0  0
   27.1344  -20.8352  -11.3942 C   0  0  0  0  0  0  0  0  0  0  0  0
   27.9296  -21.7351  -10.9176 N   0  0  0  0  0  0  0  0  0  0  0  0
   27.5845  -20.0337  -12.4513 N   0  0  0  0  0  0  0  0  0  0  0  0
   26.6720  -19.3143  -13.3248 C   0  0  0  0  0  0  0  0  0  0  0  0
   26.2828  -20.2218  -14.4808 C   0  0  0  0  0  0  0  0  0  0  0  0
   24.7959  -20.2764  -14.6129 C   0  0  0  0  0  0  0  0  0  0  0  0
   24.1856  -21.2041  -13.6090 C   0  0  2  0  0  0  0  0  0  0  0  0
   24.7394  -22.5540  -13.8234 N   0  0  0  0  0  0  0  0  0  0  0  0
   22.7248  -21.2189  -13.7149 C   0  0  0  0  0  0  0  0  0  0  0  0
   22.1195  -22.0883  -14.3631 O   0  0  0  0  0  0  0  0  0  0  0  0
   28.9226  -21.8604  -11.1989 C   0  0  0  0  0  0  0  0  0  0  0  0
   20.0264  -19.2771  -12.0190 C   0  0  2  0  0  0  0  0  0  0  0  0
   20.5293  -20.2086  -13.1114 N   0  0  0  0  0  0  0  0  0  0  0  0
   21.9777  -20.1948  -13.0474 C   0  0  0  0  0  0  0  0  0  0  0  0
   20.1205  -19.7312  -14.4459 O   0  0  0  0  0  0  0  0  0  0  0  0
   20.8001  -18.8984  -15.0492 C   0  0  0  0  0  0  0  0  0  0  0  0
   17.5909  -20.6242  -17.1074 C   0  0  2  0  0  0  0  0  0  0  0  0
   18.4904  -19.6746  -16.3515 N   0  0  0  0  0  0  0  0  0  0  0  0
   18.9252  -20.2125  -15.0925 C   0  0  0  0  0  0  0  0  0  0  0  0
   17.7285  -18.4282  -16.1163 O   0  0  0  0  0  0  0  0  0  0  0  0
   17.3995  -18.1247  -14.9451 O   0  0  0  0  0  0  0  0  0  0  0  0
  1  2  1  0
  2  4  1  0
  3  2  2  0
  4  5  1  0
  5  6  1  0
  6  7  1  0
  7  8  1  0
  8 10  1  0
  8  9  1  6
 10 14  1  0
 10 11  2  0
 13 15  1  0
 13 12  1  1
 14 13  1  0
 15 16  2  0
 18 17  1  6
 19 18  1  0
 19 15  1  0
 20 22  1  0
 20 18  1  0
 21 20  2  0
M  END
$$$$
