FLM.pdb
     RDKit          3D

 28 28  0  0  1  0  0  0  0  0999 V2000
    7.7998  -20.5768   20.4710 N   0  0  0  0  0  0  0  0  0  0  0  0
    7.4267  -19.5786   21.4883 C   0  0  1  0  0  0  0  0  0  0  0  0
    7.9460  -20.0793   22.8236 C   0  0  0  0  0  0  0  0  0  0  0  0
    7.8157  -19.0783   23.8992 C   0  0  0  0  0  0  0  0  0  0  0  0
    8.7948  -18.8786   24.8341 C   0  0  0  0  0  0  0  0  0  0  0  0
    8.6874  -17.9297   25.8482 C   0  0  0  0  0  0  0  0  0  0  0  0
    7.5362  -17.1684   25.8944 C   0  0  0  0  0  0  0  0  0  0  0  0
    6.5451  -17.3576   24.9625 C   0  0  0  0  0  0  0  0  0  0  0  0
    6.6679  -18.3156   23.9498 C   0  0  0  0  0  0  0  0  0  0  0  0
    8.2048  -18.3543   21.1842 C   0  0  0  0  0  0  0  0  0  0  0  0
    9.4564  -18.3923   21.1621 O   0  0  0  0  0  0  0  0  0  0  0  0
    9.1685  -13.4557   19.2567 C   0  0  0  0  0  0  0  0  0  0  0  0
    8.2605  -13.4268   20.4979 C   0  0  1  0  0  0  0  0  0  0  0  0
    7.2797  -12.3010   20.2707 C   0  0  0  0  0  0  0  0  0  0  0  0
    7.4787  -14.7143   20.5946 C   0  0  0  0  0  0  0  0  0  0  0  0
    8.3952  -15.8549   20.9113 C   0  0  2  0  0  0  0  0  0  0  0  0
    7.6070  -17.0941   20.9049 N   0  0  0  0  0  0  0  0  0  0  0  0
    9.0993  -15.7123   22.1886 C   0  0  0  0  0  0  0  0  0  0  0  0
   10.3360  -15.4448   22.1519 O   0  0  0  0  0  0  0  0  0  0  0  0
    6.2231  -11.3974   25.5086 C   0  0  0  0  0  0  0  0  0  0  0  0
    6.7349  -12.4351   26.9296 S   0  0  0  0  0  0  0  0  0  0  0  0
    8.1309  -13.4680   26.3544 C   0  0  0  0  0  0  0  0  0  0  0  0
    7.7305  -14.2734   25.1435 C   0  0  0  0  0  0  0  0  0  0  0  0
    8.8890  -15.0393   24.6189 C   0  0  2  0  0  0  0  0  0  0  0  0
    8.5116  -15.8505   23.4564 N   0  0  0  0  0  0  0  0  0  0  0  0
    9.5911  -15.8158   25.6146 C   0  0  0  0  0  0  0  0  0  0  0  0
    9.9960  -15.1913   26.6630 O   0  0  0  0  0  0  0  0  0  0  0  0
    9.8947  -17.1581   25.6079 O   0  0  0  0  0  0  0  0  0  0  0  0
  2  1  1  6
  3  2  1  0
  4  9  2  0
  4  3  1  0
  5  4  1  0
  6  7  1  0
  6  5  2  0
  7  8  2  0
  8  9  1  0
 10 17  1  0
 10  2  1  0
 11 10  2  0
 13 12  1  6
 14 13  1  0
 16 15  1  1
 15 13  1  0
 16 17  1  0
 18 16  1  0
 19 18  2  0
 21 20  1  0
 21 22  1  0
 22 23  1  0
 24 23  1  1
 24 26  1  0
 24 25  1  0
 25 18  1  0
 26 28  1  0
 27 26  2  0
M  END
$$$$
