FLM.pdb
     RDKit          3D

 28 28  0  0  1  0  0  0  0  0999 V2000
    7.4310  -19.8261   21.3188 N   0  0  0  0  0  0  0  0  0  0  0  0
    6.8292  -18.5826   21.8310 C   0  0  1  0  0  0  0  0  0  0  0  0
    6.4906  -18.8137   23.2923 C   0  0  0  0  0  0  0  0  0  0  0  0
    5.3972  -19.7861   23.4787 C   0  0  0  0  0  0  0  0  0  0  0  0
    4.1985  -19.6714   22.8288 C   0  0  0  0  0  0  0  0  0  0  0  0
    3.1624  -20.5885   22.9891 C   0  0  0  0  0  0  0  0  0  0  0  0
    3.3742  -21.6516   23.8447 C   0  0  0  0  0  0  0  0  0  0  0  0
    4.5724  -21.7800   24.5037 C   0  0  0  0  0  0  0  0  0  0  0  0
    5.6036  -20.8495   24.3322 C   0  0  0  0  0  0  0  0  0  0  0  0
    7.9010  -17.5590   21.8203 C   0  0  0  0  0  0  0  0  0  0  0  0
    9.0937  -17.8935   22.0045 O   0  0  0  0  0  0  0  0  0  0  0  0
    6.8532  -12.8541   19.3452 C   0  0  0  0  0  0  0  0  0  0  0  0
    7.5694  -14.1337   19.8093 C   0  0  1  0  0  0  0  0  0  0  0  0
    8.6388  -14.4097   18.7791 C   0  0  0  0  0  0  0  0  0  0  0  0
    8.2498  -13.8918   21.1347 C   0  0  0  0  0  0  0  0  0  0  0  0
    8.7408  -15.1841   21.7090 C   0  0  2  0  0  0  0  0  0  0  0  0
    7.6602  -16.1733   21.6068 N   0  0  0  0  0  0  0  0  0  0  0  0
    9.1986  -15.0797   23.0972 C   0  0  0  0  0  0  0  0  0  0  0  0
   10.2228  -14.3723   23.3273 O   0  0  0  0  0  0  0  0  0  0  0  0
    7.5478  -11.0054   26.9588 C   0  0  0  0  0  0  0  0  0  0  0  0
    6.4776  -12.3985   27.4804 S   0  0  0  0  0  0  0  0  0  0  0  0
    7.4804  -13.9210   27.3292 C   0  0  0  0  0  0  0  0  0  0  0  0
    7.3929  -14.4763   25.9295 C   0  0  0  0  0  0  0  0  0  0  0  0
    8.6504  -15.1767   25.5658 C   0  0  2  0  0  0  0  0  0  0  0  0
    8.5919  -15.7050   24.1985 N   0  0  0  0  0  0  0  0  0  0  0  0
    9.0702  -16.1811   26.5156 C   0  0  0  0  0  0  0  0  0  0  0  0
    9.1516  -17.3909   26.0881 O   0  0  0  0  0  0  0  0  0  0  0  0
    9.4071  -16.0298   27.8413 O   0  0  0  0  0  0  0  0  0  0  0  0
  2  1  1  1
  3  2  1  0
  4  9  2  0
  4  3  1  0
  5  4  1  0
  6  7  1  0
  6  5  2  0
  7  8  2  0
  8  9  1  0
 10 17  1  0
 10  2  1  0
 11 10  2  0
 13 12  1  6
 14 13  1  0
 16 15  1  1
 15 13  1  0
 16 17  1  0
 18 16  1  0
 19 18  2  0
 21 20  1  0
 21 22  1  0
 22 23  1  0
 24 23  1  1
 24 26  1  0
 24 25  1  0
 25 18  1  0
 26 28  1  0
 27 26  2  0
M  END
$$$$
