FLM.pdb
     RDKit          3D

 28 28  0  0  1  0  0  0  0  0999 V2000
    7.3470  -19.3746   25.7666 N   0  0  0  0  0  0  0  0  0  0  0  0
    7.6857  -18.0316   26.2687 C   0  0  1  0  0  0  0  0  0  0  0  0
    9.0899  -18.1042   26.8399 C   0  0  0  0  0  0  0  0  0  0  0  0
    9.3194  -17.1246   27.9186 C   0  0  0  0  0  0  0  0  0  0  0  0
    9.5924  -17.5043   29.2047 C   0  0  0  0  0  0  0  0  0  0  0  0
    9.8206  -16.5887   30.2293 C   0  0  0  0  0  0  0  0  0  0  0  0
    9.7648  -15.2457   29.9131 C   0  0  0  0  0  0  0  0  0  0  0  0
    9.4921  -14.8497   28.6265 C   0  0  0  0  0  0  0  0  0  0  0  0
    9.2645  -15.7821   27.6080 C   0  0  0  0  0  0  0  0  0  0  0  0
    7.7760  -17.1474   25.0825 C   0  0  0  0  0  0  0  0  0  0  0  0
    8.0185  -17.6311   23.9531 O   0  0  0  0  0  0  0  0  0  0  0  0
    7.3768  -11.8730   26.2064 C   0  0  0  0  0  0  0  0  0  0  0  0
    7.2608  -13.3533   25.8050 C   0  0  1  0  0  0  0  0  0  0  0  0
    5.8672  -13.7835   26.1975 C   0  0  0  0  0  0  0  0  0  0  0  0
    7.3876  -13.4926   24.3074 C   0  0  0  0  0  0  0  0  0  0  0  0
    7.4129  -14.9389   23.9215 C   0  0  2  0  0  0  0  0  0  0  0  0
    7.5990  -15.7371   25.1401 N   0  0  0  0  0  0  0  0  0  0  0  0
    8.4471  -15.2718   22.9382 C   0  0  0  0  0  0  0  0  0  0  0  0
    8.1828  -16.1719   22.0883 O   0  0  0  0  0  0  0  0  0  0  0  0
   12.0810  -14.6746   27.4024 C   0  0  0  0  0  0  0  0  0  0  0  0
   13.3197  -15.4795   26.3181 S   0  0  0  0  0  0  0  0  0  0  0  0
   12.3915  -16.2914   24.9668 C   0  0  0  0  0  0  0  0  0  0  0  0
   11.1310  -15.5242   24.6544 C   0  0  0  0  0  0  0  0  0  0  0  0
   10.9635  -15.3696   23.1873 C   0  0  2  0  0  0  0  0  0  0  0  0
    9.7146  -14.6721   22.8623 N   0  0  0  0  0  0  0  0  0  0  0  0
   11.1083  -16.5961   22.4377 C   0  0  0  0  0  0  0  0  0  0  0  0
   10.1677  -17.4650   22.5529 O   0  0  0  0  0  0  0  0  0  0  0  0
   12.1272  -16.9793   21.5958 O   0  0  0  0  0  0  0  0  0  0  0  0
  2  1  1  6
  3  2  1  0
  4  9  2  0
  4  3  1  0
  5  4  1  0
  6  7  1  0
  6  5  2  0
  7  8  2  0
  8  9  1  0
 10 17  1  0
 10  2  1  0
 11 10  2  0
 13 12  1  6
 14 13  1  0
 16 15  1  1
 15 13  1  0
 16 17  1  0
 18 16  1  0
 19 18  2  0
 21 20  1  0
 21 22  1  0
 22 23  1  0
 24 23  1  1
 24 26  1  0
 24 25  1  0
 25 18  1  0
 26 28  1  0
 27 26  2  0
M  END
$$$$
