FLM.pdb
     RDKit          3D

 28 28  0  0  1  0  0  0  0  0999 V2000
    7.4496  -16.7706   25.8970 N   0  0  0  0  0  0  0  0  0  0  0  0
    6.6632  -17.0972   24.6947 C   0  0  1  0  0  0  0  0  0  0  0  0
    5.5716  -16.0501   24.5712 C   0  0  0  0  0  0  0  0  0  0  0  0
    5.9513  -14.7557   25.1680 C   0  0  0  0  0  0  0  0  0  0  0  0
    5.9314  -13.5881   24.4546 C   0  0  0  0  0  0  0  0  0  0  0  0
    6.2781  -12.3586   25.0098 C   0  0  0  0  0  0  0  0  0  0  0  0
    6.6548  -12.3385   26.3383 C   0  0  0  0  0  0  0  0  0  0  0  0
    6.6792  -13.5026   27.0670 C   0  0  0  0  0  0  0  0  0  0  0  0
    6.3284  -14.7304   26.4943 C   0  0  0  0  0  0  0  0  0  0  0  0
    7.5598  -16.8867   23.5334 C   0  0  0  0  0  0  0  0  0  0  0  0
    7.9051  -17.8564   22.8199 O   0  0  0  0  0  0  0  0  0  0  0  0
    7.9456  -12.0490   20.9610 C   0  0  0  0  0  0  0  0  0  0  0  0
    7.8573  -13.5344   21.3503 C   0  0  1  0  0  0  0  0  0  0  0  0
    7.4283  -14.2678   20.1016 C   0  0  0  0  0  0  0  0  0  0  0  0
    9.2214  -14.0454   21.7460 C   0  0  0  0  0  0  0  0  0  0  0  0
    9.1377  -15.4828   22.1562 C   0  0  2  0  0  0  0  0  0  0  0  0
    8.0730  -15.6139   23.1592 N   0  0  0  0  0  0  0  0  0  0  0  0
   10.3944  -16.0231   22.6818 C   0  0  0  0  0  0  0  0  0  0  0  0
   11.4341  -15.8910   21.9720 O   0  0  0  0  0  0  0  0  0  0  0  0
   10.6757  -13.2292   27.9615 C   0  0  0  0  0  0  0  0  0  0  0  0
   11.6838  -14.6447   28.5430 S   0  0  0  0  0  0  0  0  0  0  0  0
   12.2794  -15.5184   27.0503 C   0  0  0  0  0  0  0  0  0  0  0  0
   11.1567  -15.7006   26.0596 C   0  0  0  0  0  0  0  0  0  0  0  0
   11.6374  -16.4159   24.8508 C   0  0  2  0  0  0  0  0  0  0  0  0
   10.5399  -16.6805   23.9141 N   0  0  0  0  0  0  0  0  0  0  0  0
   12.4091  -17.6052   25.1287 C   0  0  0  0  0  0  0  0  0  0  0  0
   13.4622  -17.4618   25.8523 O   0  0  0  0  0  0  0  0  0  0  0  0
   12.1760  -18.9005   24.7264 O   0  0  0  0  0  0  0  0  0  0  0  0
  2  1  1  1
  3  2  1  0
  4  9  2  0
  4  3  1  0
  5  4  1  0
  6  7  1  0
  6  5  2  0
  7  8  2  0
  8  9  1  0
 10 17  1  0
 10  2  1  0
 11 10  2  0
 13 12  1  6
 14 13  1  0
 16 15  1  1
 15 13  1  0
 16 17  1  0
 18 16  1  0
 19 18  2  0
 21 20  1  0
 21 22  1  0
 22 23  1  0
 24 23  1  1
 24 26  1  0
 24 25  1  0
 25 18  1  0
 26 28  1  0
 27 26  2  0
M  END
$$$$
