FLM.pdb
     RDKit          3D

 28 28  0  0  1  0  0  0  0  0999 V2000
    7.8629  -16.4443   25.9613 N   0  0  0  0  0  0  0  0  0  0  0  0
    6.7683  -16.8613   25.0677 C   0  0  1  0  0  0  0  0  0  0  0  0
    5.6531  -15.8424   25.2144 C   0  0  0  0  0  0  0  0  0  0  0  0
    6.1298  -14.5427   25.7236 C   0  0  0  0  0  0  0  0  0  0  0  0
    7.1368  -14.4435   26.6447 C   0  0  0  0  0  0  0  0  0  0  0  0
    7.6021  -13.2217   27.1254 C   0  0  0  0  0  0  0  0  0  0  0  0
    7.0087  -12.0736   26.6388 C   0  0  0  0  0  0  0  0  0  0  0  0
    5.9970  -12.1576   25.7137 C   0  0  0  0  0  0  0  0  0  0  0  0
    5.5403  -13.3931   25.2409 C   0  0  0  0  0  0  0  0  0  0  0  0
    7.2738  -16.7122   23.6824 C   0  0  0  0  0  0  0  0  0  0  0  0
    7.0300  -17.5914   22.8246 O   0  0  0  0  0  0  0  0  0  0  0  0
    7.9813  -12.4832   20.7568 C   0  0  0  0  0  0  0  0  0  0  0  0
    7.8527  -13.8876   21.3707 C   0  0  1  0  0  0  0  0  0  0  0  0
    6.9750  -14.6759   20.4276 C   0  0  0  0  0  0  0  0  0  0  0  0
    9.2055  -14.5556   21.4172 C   0  0  0  0  0  0  0  0  0  0  0  0
    9.1574  -15.7631   22.3008 C   0  0  2  0  0  0  0  0  0  0  0  0
    8.0436  -15.5993   23.2439 N   0  0  0  0  0  0  0  0  0  0  0  0
   10.4032  -16.0132   23.0309 C   0  0  0  0  0  0  0  0  0  0  0  0
   11.4860  -15.9779   22.3762 O   0  0  0  0  0  0  0  0  0  0  0  0
    9.7170  -15.5727   29.2161 C   0  0  0  0  0  0  0  0  0  0  0  0
   10.7487  -14.2778   28.4307 S   0  0  0  0  0  0  0  0  0  0  0  0
   10.9312  -14.7423   26.6708 C   0  0  0  0  0  0  0  0  0  0  0  0
   11.6422  -16.0664   26.5431 C   0  0  0  0  0  0  0  0  0  0  0  0
   11.7660  -16.4576   25.1163 C   0  0  2  0  0  0  0  0  0  0  0  0
   10.4943  -16.2919   24.4041 N   0  0  0  0  0  0  0  0  0  0  0  0
   12.3375  -17.7673   24.9041 C   0  0  0  0  0  0  0  0  0  0  0  0
   11.5607  -18.6722   24.4237 O   0  0  0  0  0  0  0  0  0  0  0  0
   13.6223  -18.1988   25.1429 O   0  0  0  0  0  0  0  0  0  0  0  0
  2  1  1  1
  3  2  1  0
  4  9  2  0
  4  3  1  0
  5  4  1  0
  6  7  1  0
  6  5  2  0
  7  8  2  0
  8  9  1  0
 10 17  1  0
 10  2  1  0
 11 10  2  0
 13 12  1  6
 14 13  1  0
 16 15  1  1
 15 13  1  0
 16 17  1  0
 18 16  1  0
 19 18  2  0
 21 20  1  0
 21 22  1  0
 22 23  1  0
 24 23  1  1
 24 26  1  0
 24 25  1  0
 25 18  1  0
 26 28  1  0
 27 26  2  0
M  END
$$$$
