FLM.pdb
     RDKit          3D

 28 28  0  0  1  0  0  0  0  0999 V2000
    6.0574  -18.6775   23.8527 N   0  0  0  0  0  0  0  0  0  0  0  0
    6.2444  -17.2203   23.9633 C   0  0  1  0  0  0  0  0  0  0  0  0
    6.3112  -16.8849   25.4420 C   0  0  0  0  0  0  0  0  0  0  0  0
    6.3360  -15.4324   25.6980 C   0  0  0  0  0  0  0  0  0  0  0  0
    7.3694  -14.8240   26.3570 C   0  0  0  0  0  0  0  0  0  0  0  0
    7.4086  -13.4522   26.5958 C   0  0  0  0  0  0  0  0  0  0  0  0
    6.3500  -12.6917   26.1398 C   0  0  0  0  0  0  0  0  0  0  0  0
    5.3059  -13.2886   25.4764 C   0  0  0  0  0  0  0  0  0  0  0  0
    5.2810  -14.6685   25.2447 C   0  0  0  0  0  0  0  0  0  0  0  0
    7.5912  -16.9247   23.4196 C   0  0  0  0  0  0  0  0  0  0  0  0
    8.5047  -17.7775   23.5009 O   0  0  0  0  0  0  0  0  0  0  0  0
    7.8242  -12.3714   20.4036 C   0  0  0  0  0  0  0  0  0  0  0  0
    7.8383  -13.8219   20.9153 C   0  0  1  0  0  0  0  0  0  0  0  0
    7.5691  -14.6916   19.7101 C   0  0  0  0  0  0  0  0  0  0  0  0
    9.2090  -14.1685   21.4439 C   0  0  0  0  0  0  0  0  0  0  0  0
    9.1964  -15.5314   22.0632 C   0  0  2  0  0  0  0  0  0  0  0  0
    7.9299  -15.6957   22.7883 N   0  0  0  0  0  0  0  0  0  0  0  0
   10.3271  -15.7851   22.9603 C   0  0  0  0  0  0  0  0  0  0  0  0
   11.4909  -15.7523   22.4636 O   0  0  0  0  0  0  0  0  0  0  0  0
   10.7003  -13.3711   28.8330 C   0  0  0  0  0  0  0  0  0  0  0  0
   11.7687  -14.8526   28.9803 S   0  0  0  0  0  0  0  0  0  0  0  0
   12.2185  -15.3516   27.2788 C   0  0  0  0  0  0  0  0  0  0  0  0
   11.0720  -16.0757   26.6184 C   0  0  0  0  0  0  0  0  0  0  0  0
   11.3789  -16.3490   25.1918 C   0  0  2  0  0  0  0  0  0  0  0  0
   10.2244  -16.0649   24.3325 N   0  0  0  0  0  0  0  0  0  0  0  0
   11.9296  -17.6607   24.9406 C   0  0  0  0  0  0  0  0  0  0  0  0
   11.0959  -18.6028   24.6754 O   0  0  0  0  0  0  0  0  0  0  0  0
   13.2468  -18.0596   24.9400 O   0  0  0  0  0  0  0  0  0  0  0  0
  2  1  1  1
  3  2  1  0
  4  9  2  0
  4  3  1  0
  5  4  1  0
  6  7  1  0
  6  5  2  0
  7  8  2  0
  8  9  1  0
 10 17  1  0
 10  2  1  0
 11 10  2  0
 13 12  1  6
 14 13  1  0
 16 15  1  1
 15 13  1  0
 16 17  1  0
 18 16  1  0
 19 18  2  0
 21 20  1  0
 21 22  1  0
 22 23  1  0
 24 23  1  1
 24 26  1  0
 24 25  1  0
 25 18  1  0
 26 28  1  0
 27 26  2  0
M  END
$$$$
