FLM.pdb
     RDKit          3D

 28 28  0  0  1  0  0  0  0  0999 V2000
    6.2138  -19.7646   21.5032 N   0  0  0  0  0  0  0  0  0  0  0  0
    6.2625  -18.5438   22.3265 C   0  0  1  0  0  0  0  0  0  0  0  0
    6.2617  -18.9796   23.7803 C   0  0  0  0  0  0  0  0  0  0  0  0
    6.3845  -17.8464   24.7166 C   0  0  0  0  0  0  0  0  0  0  0  0
    5.5768  -16.7445   24.6404 C   0  0  0  0  0  0  0  0  0  0  0  0
    5.6767  -15.6730   25.5248 C   0  0  0  0  0  0  0  0  0  0  0  0
    6.6380  -15.7456   26.5136 C   0  0  0  0  0  0  0  0  0  0  0  0
    7.4557  -16.8456   26.6027 C   0  0  0  0  0  0  0  0  0  0  0  0
    7.3431  -17.9140   25.7058 C   0  0  0  0  0  0  0  0  0  0  0  0
    7.5891  -17.9268   22.0892 C   0  0  0  0  0  0  0  0  0  0  0  0
    8.6316  -18.6118   22.2002 O   0  0  0  0  0  0  0  0  0  0  0  0
    8.1182  -12.4162   20.7415 C   0  0  0  0  0  0  0  0  0  0  0  0
    7.9523  -13.8464   21.2826 C   0  0  1  0  0  0  0  0  0  0  0  0
    6.5264  -14.2432   20.9814 C   0  0  0  0  0  0  0  0  0  0  0  0
    8.8661  -14.7887   20.5374 C   0  0  0  0  0  0  0  0  0  0  0  0
    9.0799  -16.0398   21.3313 C   0  0  2  0  0  0  0  0  0  0  0  0
    7.7664  -16.5617   21.7304 N   0  0  0  0  0  0  0  0  0  0  0  0
    9.9284  -15.8548   22.5117 C   0  0  0  0  0  0  0  0  0  0  0  0
   11.1346  -15.5206   22.3226 O   0  0  0  0  0  0  0  0  0  0  0  0
    9.2609  -11.6710   26.6013 C   0  0  0  0  0  0  0  0  0  0  0  0
    9.8681  -12.8118   27.9005 S   0  0  0  0  0  0  0  0  0  0  0  0
   10.4997  -14.3000   27.0445 C   0  0  0  0  0  0  0  0  0  0  0  0
    9.7313  -14.5442   25.7698 C   0  0  0  0  0  0  0  0  0  0  0  0
   10.3348  -15.6625   25.0020 C   0  0  2  0  0  0  0  0  0  0  0  0
    9.5111  -16.0206   23.8422 N   0  0  0  0  0  0  0  0  0  0  0  0
   10.6767  -16.8176   25.7994 C   0  0  0  0  0  0  0  0  0  0  0  0
   10.0582  -17.9133   25.5346 O   0  0  0  0  0  0  0  0  0  0  0  0
   11.5909  -16.9216   26.8228 O   0  0  0  0  0  0  0  0  0  0  0  0
  2  1  1  6
  3  2  1  0
  4  9  2  0
  4  3  1  0
  5  4  1  0
  6  7  1  0
  6  5  2  0
  7  8  2  0
  8  9  1  0
 10 17  1  0
 10  2  1  0
 11 10  2  0
 13 12  1  6
 14 13  1  0
 16 15  1  1
 15 13  1  0
 16 17  1  0
 18 16  1  0
 19 18  2  0
 21 20  1  0
 21 22  1  0
 22 23  1  0
 24 23  1  1
 24 26  1  0
 24 25  1  0
 25 18  1  0
 26 28  1  0
 27 26  2  0
M  END
$$$$
