FLM.pdb
     RDKit          3D

 28 28  0  0  1  0  0  0  0  0999 V2000
    7.1366  -16.9572   20.6298 N   0  0  0  0  0  0  0  0  0  0  0  0
    6.2412  -16.7026   21.7717 C   0  0  1  0  0  0  0  0  0  0  0  0
    5.8160  -18.0518   22.3214 C   0  0  0  0  0  0  0  0  0  0  0  0
    4.5612  -18.5435   21.7216 C   0  0  0  0  0  0  0  0  0  0  0  0
    4.4732  -18.9050   20.4048 C   0  0  0  0  0  0  0  0  0  0  0  0
    3.2967  -19.3800   19.8298 C   0  0  0  0  0  0  0  0  0  0  0  0
    2.1833  -19.4831   20.6402 C   0  0  0  0  0  0  0  0  0  0  0  0
    2.2568  -19.1242   21.9639 C   0  0  0  0  0  0  0  0  0  0  0  0
    3.4464  -18.6481   22.5267 C   0  0  0  0  0  0  0  0  0  0  0  0
    7.0716  -16.0779   22.8286 C   0  0  0  0  0  0  0  0  0  0  0  0
    8.2991  -16.3186   22.8902 O   0  0  0  0  0  0  0  0  0  0  0  0
    8.5060  -12.0181   26.0900 C   0  0  0  0  0  0  0  0  0  0  0  0
    7.4397  -12.9542   26.6838 C   0  0  1  0  0  0  0  0  0  0  0  0
    6.5345  -12.0789   27.5178 C   0  0  0  0  0  0  0  0  0  0  0  0
    6.6119  -13.5604   25.5767 C   0  0  0  0  0  0  0  0  0  0  0  0
    7.4282  -14.5447   24.7983 C   0  0  2  0  0  0  0  0  0  0  0  0
    6.5525  -15.1915   23.8127 N   0  0  0  0  0  0  0  0  0  0  0  0
    8.0863  -15.5570   25.6287 C   0  0  0  0  0  0  0  0  0  0  0  0
    7.3520  -16.4062   26.2135 O   0  0  0  0  0  0  0  0  0  0  0  0
   14.1333  -17.3248   24.6469 C   0  0  0  0  0  0  0  0  0  0  0  0
   13.4953  -18.8922   25.3501 S   0  0  0  0  0  0  0  0  0  0  0  0
   11.9397  -18.4857   26.2228 C   0  0  0  0  0  0  0  0  0  0  0  0
   11.2899  -17.2706   25.6093 C   0  0  0  0  0  0  0  0  0  0  0  0
   10.1203  -16.8402   26.4161 C   0  0  2  0  0  0  0  0  0  0  0  0
    9.4719  -15.6614   25.8313 N   0  0  0  0  0  0  0  0  0  0  0  0
   10.3987  -16.6618   27.8224 C   0  0  0  0  0  0  0  0  0  0  0  0
   10.4966  -15.4529   28.2493 O   0  0  0  0  0  0  0  0  0  0  0  0
   10.5755  -17.6176   28.7966 O   0  0  0  0  0  0  0  0  0  0  0  0
  2  1  1  6
  3  2  1  0
  4  9  2  0
  4  3  1  0
  5  4  1  0
  6  7  1  0
  6  5  2  0
  7  8  2  0
  8  9  1  0
 10 17  1  0
 10  2  1  0
 11 10  2  0
 13 12  1  6
 14 13  1  0
 16 15  1  1
 15 13  1  0
 16 17  1  0
 18 16  1  0
 19 18  2  0
 21 20  1  0
 21 22  1  0
 22 23  1  0
 24 23  1  6
 24 26  1  0
 24 25  1  0
 25 18  1  0
 26 28  1  0
 27 26  2  0
M  END
$$$$
