FLM.pdb
     RDKit          3D

 28 28  0  0  1  0  0  0  0  0999 V2000
    8.8092  -15.8842   26.1061 N   0  0  0  0  0  0  0  0  0  0  0  0
    7.5590  -16.5052   25.6349 C   0  0  1  0  0  0  0  0  0  0  0  0
    6.4100  -15.6829   26.1890 C   0  0  0  0  0  0  0  0  0  0  0  0
    6.7668  -14.2661   26.3918 C   0  0  0  0  0  0  0  0  0  0  0  0
    8.0590  -13.8580   26.5826 C   0  0  0  0  0  0  0  0  0  0  0  0
    8.4092  -12.5222   26.7652 C   0  0  0  0  0  0  0  0  0  0  0  0
    7.3946  -11.5856   26.7494 C   0  0  0  0  0  0  0  0  0  0  0  0
    6.0929  -11.9804   26.5587 C   0  0  0  0  0  0  0  0  0  0  0  0
    5.7572  -13.3269   26.3771 C   0  0  0  0  0  0  0  0  0  0  0  0
    7.5210  -16.3160   24.1654 C   0  0  0  0  0  0  0  0  0  0  0  0
    6.8645  -17.1029   23.4455 O   0  0  0  0  0  0  0  0  0  0  0  0
    6.9953  -13.7117   19.6793 C   0  0  0  0  0  0  0  0  0  0  0  0
    8.4536  -13.5846   20.1516 C   0  0  1  0  0  0  0  0  0  0  0  0
    8.8770  -12.1728   19.8218 C   0  0  0  0  0  0  0  0  0  0  0  0
    8.5269  -13.7557   21.6495 C   0  0  0  0  0  0  0  0  0  0  0  0
    8.2026  -15.1678   22.0266 C   0  0  2  0  0  0  0  0  0  0  0  0
    8.2022  -15.2643   23.4920 N   0  0  0  0  0  0  0  0  0  0  0  0
    9.1195  -16.1588   21.4566 C   0  0  0  0  0  0  0  0  0  0  0  0
    9.0355  -16.3925   20.2154 O   0  0  0  0  0  0  0  0  0  0  0  0
   12.1231  -13.2403   19.8362 C   0  0  0  0  0  0  0  0  0  0  0  0
   13.6260  -14.2231   20.2015 S   0  0  0  0  0  0  0  0  0  0  0  0
   13.3524  -15.0248   21.8228 C   0  0  0  0  0  0  0  0  0  0  0  0
   11.8784  -15.2246   22.0732 C   0  0  0  0  0  0  0  0  0  0  0  0
   11.5317  -16.6675   22.0279 C   0  0  2  0  0  0  0  0  0  0  0  0
   10.0874  -16.8753   22.1789 N   0  0  0  0  0  0  0  0  0  0  0  0
   12.2941  -17.4932   22.9356 C   0  0  0  0  0  0  0  0  0  0  0  0
   13.3499  -18.0565   22.4652 O   0  0  0  0  0  0  0  0  0  0  0  0
   12.0534  -17.7697   24.2620 O   0  0  0  0  0  0  0  0  0  0  0  0
  2  1  1  1
  3  2  1  0
  4  9  2  0
  4  3  1  0
  5  4  1  0
  6  7  1  0
  6  5  2  0
  7  8  2  0
  8  9  1  0
 10 17  1  0
 10  2  1  0
 11 10  2  0
 13 12  1  1
 14 13  1  0
 16 15  1  1
 15 13  1  0
 16 17  1  0
 18 16  1  0
 19 18  2  0
 21 20  1  0
 21 22  1  0
 22 23  1  0
 24 23  1  1
 24 26  1  0
 24 25  1  0
 25 18  1  0
 26 28  1  0
 27 26  2  0
M  END
$$$$
