VEA.pdb
     RDKit          3D

 22 21  0  0  1  0  0  0  0  0999 V2000
    7.5542  -12.1798   27.1181 C   0  0  0  0  0  0  0  0  0  0  0  0
    7.0719  -12.2450   25.6858 C   0  0  2  0  0  0  0  0  0  0  0  0
    6.0815  -11.1230   25.4653 C   0  0  0  0  0  0  0  0  0  0  0  0
    6.3753  -13.5515   25.3837 C   0  0  2  0  0  0  0  0  0  0  0  0
    5.1972  -13.7487   26.1691 N   0  0  0  0  0  0  0  0  0  0  0  0
    7.2629  -14.7125   25.4845 C   0  0  0  0  0  0  0  0  0  0  0  0
    7.2756  -15.5055   26.4683 O   0  0  0  0  0  0  0  0  0  0  0  0
    8.1779  -14.9980   24.4350 N   0  0  0  0  0  0  0  0  0  0  0  0
    9.1960  -16.0513   24.5589 C   0  0  1  0  0  0  0  0  0  0  0  0
    9.7989  -16.2111   23.2048 C   0  0  0  0  0  0  0  0  0  0  0  0
    8.8822  -16.6746   22.1291 C   0  0  0  0  0  0  0  0  0  0  0  0
    9.4896  -17.5281   21.1044 C   0  0  0  0  0  0  0  0  0  0  0  0
   10.0408  -17.0419   20.0861 O   0  0  0  0  0  0  0  0  0  0  0  0
   10.1817  -15.6933   25.6114 C   0  0  0  0  0  0  0  0  0  0  0  0
   10.7907  -14.5959   25.6263 O   0  0  0  0  0  0  0  0  0  0  0  0
    9.4970  -18.9246   21.1892 O   0  0  0  0  0  0  0  0  0  0  0  0
   10.5268  -15.0426   28.5221 C   0  0  0  0  0  0  0  0  0  0  0  0
   11.2076  -16.1916   27.8269 C   0  0  2  0  0  0  0  0  0  0  0  0
   10.4501  -16.6224   26.6427 N   0  0  0  0  0  0  0  0  0  0  0  0
   11.3556  -17.3472   28.7554 C   0  0  0  0  0  0  0  0  0  0  0  0
   10.6599  -18.3647   28.5268 O   0  0  0  0  0  0  0  0  0  0  0  0
   12.2294  -17.3204   29.8449 O   0  0  0  0  0  0  0  0  0  0  0  0
  2  1  1  1
  2  3  1  0
  2  4  1  0
  4  6  1  0
  4  5  1  1
  6  8  1  0
  6  7  2  0
  8  9  1  0
  9 14  1  0
 10 11  1  0
  9 10  1  6
 12 16  1  0
 12 11  1  0
 13 12  2  0
 14 19  1  0
 14 15  2  0
 18 17  1  1
 18 20  1  0
 19 18  1  0
 20 22  1  0
 21 20  2  0
M  END
$$$$
