VEA.pdb
     RDKit          3D

 22 21  0  0  1  0  0  0  0  0999 V2000
    7.3288  -12.7540   21.6128 C   0  0  0  0  0  0  0  0  0  0  0  0
    8.4333  -13.3714   20.7837 C   0  0  2  0  0  0  0  0  0  0  0  0
    8.3312  -12.8293   19.3752 C   0  0  0  0  0  0  0  0  0  0  0  0
    8.3147  -14.8765   20.7166 C   0  0  2  0  0  0  0  0  0  0  0  0
    7.2173  -15.3129   19.9112 N   0  0  0  0  0  0  0  0  0  0  0  0
    8.2689  -15.5085   22.0373 C   0  0  0  0  0  0  0  0  0  0  0  0
    7.1983  -15.7705   22.6555 O   0  0  0  0  0  0  0  0  0  0  0  0
    9.4778  -15.8632   22.6953 N   0  0  0  0  0  0  0  0  0  0  0  0
    9.4819  -16.4898   24.0253 C   0  0  1  0  0  0  0  0  0  0  0  0
   10.3277  -17.7119   23.9088 C   0  0  0  0  0  0  0  0  0  0  0  0
   11.7584  -17.4895   23.5682 C   0  0  0  0  0  0  0  0  0  0  0  0
   12.5704  -18.7010   23.4253 C   0  0  0  0  0  0  0  0  0  0  0  0
   13.3330  -19.0931   24.3428 O   0  0  0  0  0  0  0  0  0  0  0  0
    9.9656  -15.5256   25.0471 C   0  0  0  0  0  0  0  0  0  0  0  0
   10.9247  -14.7426   24.8415 O   0  0  0  0  0  0  0  0  0  0  0  0
   12.5519  -19.4932   22.2723 O   0  0  0  0  0  0  0  0  0  0  0  0
    8.6642  -13.5437   27.6623 C   0  0  0  0  0  0  0  0  0  0  0  0
    9.7672  -14.5070   27.3125 C   0  0  2  0  0  0  0  0  0  0  0  0
    9.3236  -15.4826   26.3059 N   0  0  0  0  0  0  0  0  0  0  0  0
   10.2249  -15.2371   28.5277 C   0  0  0  0  0  0  0  0  0  0  0  0
   10.6592  -14.5523   29.4838 O   0  0  0  0  0  0  0  0  0  0  0  0
   10.1810  -16.6301   28.6207 O   0  0  0  0  0  0  0  0  0  0  0  0
  2  1  1  1
  2  3  1  0
  2  4  1  0
  4  6  1  0
  4  5  1  1
  6  8  1  0
  6  7  2  0
  8  9  1  0
  9 14  1  0
 10 11  1  0
  9 10  1  6
 12 16  1  0
 12 11  1  0
 13 12  2  0
 14 19  1  0
 14 15  2  0
 18 17  1  1
 18 20  1  0
 19 18  1  0
 20 22  1  0
 21 20  2  0
M  END
$$$$
