VEA.pdb
     RDKit          3D

 22 21  0  0  1  0  0  0  0  0999 V2000
    7.3846  -12.6016   21.6212 C   0  0  0  0  0  0  0  0  0  0  0  0
    8.4420  -13.2696   20.7702 C   0  0  2  0  0  0  0  0  0  0  0  0
    8.3414  -12.7175   19.3654 C   0  0  0  0  0  0  0  0  0  0  0  0
    8.2479  -14.7666   20.7007 C   0  0  2  0  0  0  0  0  0  0  0  0
    7.1023  -15.1443   19.9336 N   0  0  0  0  0  0  0  0  0  0  0  0
    8.2189  -15.4038   22.0193 C   0  0  0  0  0  0  0  0  0  0  0  0
    7.1648  -15.5771   22.6944 O   0  0  0  0  0  0  0  0  0  0  0  0
    9.4262  -15.8683   22.6085 N   0  0  0  0  0  0  0  0  0  0  0  0
    9.4589  -16.4380   23.9634 C   0  0  1  0  0  0  0  0  0  0  0  0
   10.3292  -17.6460   23.8878 C   0  0  0  0  0  0  0  0  0  0  0  0
   10.5603  -18.3692   25.1669 C   0  0  0  0  0  0  0  0  0  0  0  0
   11.3970  -19.5685   25.0734 C   0  0  0  0  0  0  0  0  0  0  0  0
   12.6475  -19.5068   25.1707 O   0  0  0  0  0  0  0  0  0  0  0  0
    9.9335  -15.4217   24.9379 C   0  0  0  0  0  0  0  0  0  0  0  0
   10.9440  -14.7058   24.7342 O   0  0  0  0  0  0  0  0  0  0  0  0
   10.8671  -20.8476   24.8719 O   0  0  0  0  0  0  0  0  0  0  0  0
    8.5959  -13.3503   27.5753 C   0  0  0  0  0  0  0  0  0  0  0  0
    9.7024  -14.2723   27.1366 C   0  0  2  0  0  0  0  0  0  0  0  0
    9.2222  -15.2483   26.1473 N   0  0  0  0  0  0  0  0  0  0  0  0
   10.2647  -15.0034   28.3065 C   0  0  0  0  0  0  0  0  0  0  0  0
   10.0961  -16.2450   28.3473 O   0  0  0  0  0  0  0  0  0  0  0  0
   10.9567  -14.3516   29.3299 O   0  0  0  0  0  0  0  0  0  0  0  0
  2  1  1  1
  2  3  1  0
  2  4  1  0
  4  6  1  0
  4  5  1  1
  6  8  1  0
  6  7  2  0
  8  9  1  0
  9 14  1  0
 10 11  1  0
  9 10  1  6
 12 16  1  0
 12 11  1  0
 13 12  2  0
 14 19  1  0
 14 15  2  0
 18 17  1  1
 18 20  1  0
 19 18  1  0
 20 22  1  0
 21 20  2  0
M  END
$$$$
