CNF.pdb
     RDKit          3D

 26 26  0  0  1  0  0  0  0  0999 V2000
    6.6326  -13.9148   19.3799 N   0  0  0  0  0  0  0  0  0  0  0  0
    8.0094  -14.1538   19.8308 C   0  0  1  0  0  0  0  0  0  0  0  0
    8.4892  -12.8143   20.3842 C   0  0  0  0  0  0  0  0  0  0  0  0
    7.4441  -12.4297   21.8179 S   0  0  0  0  0  0  0  0  0  0  0  0
    8.0218  -15.1413   20.9441 C   0  0  0  0  0  0  0  0  0  0  0  0
    6.9336  -15.5086   21.4818 O   0  0  0  0  0  0  0  0  0  0  0  0
   10.8062  -18.1729   19.3519 N   0  0  0  0  0  0  0  0  0  0  0  0
   10.1662  -18.4434   20.5974 C   0  0  0  0  0  0  0  0  0  0  0  0
    9.3637  -19.3903   20.6404 O   0  0  0  0  0  0  0  0  0  0  0  0
   10.4467  -17.6377   21.7703 C   0  0  0  0  0  0  0  0  0  0  0  0
    9.3620  -16.7677   22.2916 C   0  0  2  0  0  0  0  0  0  0  0  0
    9.2842  -15.6332   21.3558 N   0  0  0  0  0  0  0  0  0  0  0  0
    9.5304  -16.2330   23.6411 C   0  0  0  0  0  0  0  0  0  0  0  0
   10.5490  -15.5020   23.9134 O   0  0  0  0  0  0  0  0  0  0  0  0
    8.6596  -16.4313   24.7426 N   0  0  0  0  0  0  0  0  0  0  0  0
    8.9953  -16.0760   26.1089 C   0  0  1  0  0  0  0  0  0  0  0  0
    7.7916  -15.5924   26.8464 C   0  0  0  0  0  0  0  0  0  0  0  0
    7.4107  -14.2234   26.5267 C   0  0  0  0  0  0  0  0  0  0  0  0
    6.1244  -13.8540   26.1637 C   0  0  0  0  0  0  0  0  0  0  0  0
    5.7794  -12.5596   25.8639 C   0  0  0  0  0  0  0  0  0  0  0  0
    6.7577  -11.5878   25.9281 C   0  0  0  0  0  0  0  0  0  0  0  0
    8.0621  -11.9135   26.2880 C   0  0  0  0  0  0  0  0  0  0  0  0
    8.3657  -13.2199   26.5801 C   0  0  0  0  0  0  0  0  0  0  0  0
    9.6905  -17.1357   26.8278 C   0  0  0  0  0  0  0  0  0  0  0  0
   10.3192  -16.8280   28.0445 O   0  0  0  0  0  0  0  0  0  0  0  0
    9.7868  -18.3308   26.4575 O   0  0  0  0  0  0  0  0  0  0  0  0
  2  1  1  1
  3  2  1  0
  3  4  1  0
  5  6  2  0
  5  2  1  0
  7  8  1  0
  8  9  2  0
  8 10  1  0
 11 10  1  6
 11 13  1  0
 11 12  1  0
 12  5  1  0
 13 15  1  0
 14 13  2  0
 15 16  1  0
 16 17  1  1
 17 18  1  0
 18 23  2  0
 19 20  2  0
 19 18  1  0
 20 21  1  0
 21 22  2  0
 23 22  1  0
 24 25  1  0
 24 16  1  0
 26 24  2  0
M  END
$$$$
