CNF.pdb
     RDKit          3D

 26 26  0  0  1  0  0  0  0  0999 V2000
   11.5142  -17.5295   18.3152 N   0  0  0  0  0  0  0  0  0  0  0  0
   10.3241  -17.7822   19.1373 C   0  0  1  0  0  0  0  0  0  0  0  0
   10.6111  -19.0917   19.8678 C   0  0  0  0  0  0  0  0  0  0  0  0
   10.2597  -20.4366   18.7002 S   0  0  0  0  0  0  0  0  0  0  0  0
   10.1681  -16.7114   20.1589 C   0  0  0  0  0  0  0  0  0  0  0  0
   11.1862  -16.2472   20.7557 O   0  0  0  0  0  0  0  0  0  0  0  0
    7.1867  -13.9071   18.4389 N   0  0  0  0  0  0  0  0  0  0  0  0
    7.7324  -13.5594   19.7099 C   0  0  0  0  0  0  0  0  0  0  0  0
    8.4169  -12.5256   19.7810 O   0  0  0  0  0  0  0  0  0  0  0  0
    7.4930  -14.3879   20.8760 C   0  0  0  0  0  0  0  0  0  0  0  0
    8.6275  -15.1859   21.4066 C   0  0  2  0  0  0  0  0  0  0  0  0
    8.8533  -16.2537   20.4179 N   0  0  0  0  0  0  0  0  0  0  0  0
    8.4458  -15.8096   22.7156 C   0  0  0  0  0  0  0  0  0  0  0  0
    8.1781  -17.0620   22.7921 O   0  0  0  0  0  0  0  0  0  0  0  0
    8.5363  -15.1675   23.9766 N   0  0  0  0  0  0  0  0  0  0  0  0
    8.3906  -15.8581   25.2445 C   0  0  1  0  0  0  0  0  0  0  0  0
    8.6165  -14.9276   26.3890 C   0  0  0  0  0  0  0  0  0  0  0  0
    7.7417  -13.7631   26.3881 C   0  0  0  0  0  0  0  0  0  0  0  0
    8.0759  -12.5578   25.7894 C   0  0  0  0  0  0  0  0  0  0  0  0
    7.2418  -11.4676   25.7970 C   0  0  0  0  0  0  0  0  0  0  0  0
    6.0194  -11.5805   26.4284 C   0  0  0  0  0  0  0  0  0  0  0  0
    5.6427  -12.7714   27.0423 C   0  0  0  0  0  0  0  0  0  0  0  0
    6.5060  -13.8382   27.0121 C   0  0  0  0  0  0  0  0  0  0  0  0
    7.1327  -16.5833   25.3667 C   0  0  0  0  0  0  0  0  0  0  0  0
    6.9683  -17.4771   26.4365 O   0  0  0  0  0  0  0  0  0  0  0  0
    6.1530  -16.4865   24.5887 O   0  0  0  0  0  0  0  0  0  0  0  0
  2  1  1  6
  3  2  1  0
  3  4  1  0
  5  6  2  0
  5  2  1  0
  7  8  1  0
  8  9  2  0
  8 10  1  0
 11 10  1  6
 11 13  1  0
 11 12  1  0
 12  5  1  0
 13 15  1  0
 14 13  2  0
 15 16  1  0
 16 17  1  1
 17 18  1  0
 18 23  2  0
 19 20  2  0
 19 18  1  0
 20 21  1  0
 21 22  2  0
 23 22  1  0
 24 25  1  0
 24 16  1  0
 26 24  2  0
M  END
$$$$
