CNF.pdb
     RDKit          3D

 26 26  0  0  1  0  0  0  0  0999 V2000
    7.1318  -14.6617   18.2613 N   0  0  0  0  0  0  0  0  0  0  0  0
    8.0401  -14.4758   19.3998 C   0  0  1  0  0  0  0  0  0  0  0  0
    8.0466  -12.9728   19.6674 C   0  0  0  0  0  0  0  0  0  0  0  0
    9.0237  -12.2043   18.3443 S   0  0  0  0  0  0  0  0  0  0  0  0
    7.4966  -15.1546   20.6075 C   0  0  0  0  0  0  0  0  0  0  0  0
    6.3054  -15.5898   20.6116 O   0  0  0  0  0  0  0  0  0  0  0  0
    6.0254  -18.6656   23.6105 N   0  0  0  0  0  0  0  0  0  0  0  0
    7.3539  -18.5869   23.0978 C   0  0  0  0  0  0  0  0  0  0  0  0
    8.1529  -19.4797   23.4250 O   0  0  0  0  0  0  0  0  0  0  0  0
    7.7529  -17.4998   22.2245 C   0  0  0  0  0  0  0  0  0  0  0  0
    7.9985  -16.1699   22.8378 C   0  0  2  0  0  0  0  0  0  0  0  0
    8.3630  -15.2829   21.7201 N   0  0  0  0  0  0  0  0  0  0  0  0
    9.0537  -16.0880   23.8456 C   0  0  0  0  0  0  0  0  0  0  0  0
   10.0575  -16.8846   23.7820 O   0  0  0  0  0  0  0  0  0  0  0  0
    9.1079  -15.1880   24.9400 N   0  0  0  0  0  0  0  0  0  0  0  0
    9.0403  -15.6035   26.3287 C   0  0  1  0  0  0  0  0  0  0  0  0
    7.7445  -15.1959   26.9462 C   0  0  0  0  0  0  0  0  0  0  0  0
    7.3813  -13.8071   26.6999 C   0  0  0  0  0  0  0  0  0  0  0  0
    8.2763  -12.7534   26.8069 C   0  0  0  0  0  0  0  0  0  0  0  0
    7.9199  -11.4486   26.5727 C   0  0  0  0  0  0  0  0  0  0  0  0
    6.6140  -11.1787   26.2156 C   0  0  0  0  0  0  0  0  0  0  0  0
    5.6820  -12.2053   26.0963 C   0  0  0  0  0  0  0  0  0  0  0  0
    6.0791  -13.4967   26.3392 C   0  0  0  0  0  0  0  0  0  0  0  0
    9.3189  -17.0205   26.5225 C   0  0  0  0  0  0  0  0  0  0  0  0
   10.0133  -17.4222   27.6744 O   0  0  0  0  0  0  0  0  0  0  0  0
    8.9912  -17.9451   25.7399 O   0  0  0  0  0  0  0  0  0  0  0  0
  2  1  1  6
  3  2  1  0
  3  4  1  0
  5  6  2  0
  5  2  1  0
  7  8  1  0
  8  9  2  0
  8 10  1  0
 11 10  1  6
 11 13  1  0
 11 12  1  0
 12  5  1  0
 13 15  1  0
 14 13  2  0
 15 16  1  0
 16 17  1  6
 17 18  1  0
 18 23  2  0
 19 20  2  0
 19 18  1  0
 20 21  1  0
 21 22  2  0
 23 22  1  0
 24 25  1  0
 24 16  1  0
 26 24  2  0
M  END
$$$$
