CNF.pdb
     RDKit          3D

 26 26  0  0  1  0  0  0  0  0999 V2000
    6.5350  -15.1167   19.1756 N   0  0  0  0  0  0  0  0  0  0  0  0
    7.6596  -14.5684   19.9441 C   0  0  1  0  0  0  0  0  0  0  0  0
    7.1259  -13.2860   20.5777 C   0  0  0  0  0  0  0  0  0  0  0  0
    8.5056  -12.5299   21.4836 S   0  0  0  0  0  0  0  0  0  0  0  0
    8.0356  -15.5006   21.0415 C   0  0  0  0  0  0  0  0  0  0  0  0
    7.1421  -16.1709   21.6420 O   0  0  0  0  0  0  0  0  0  0  0  0
   10.7819  -19.2385   20.6823 N   0  0  0  0  0  0  0  0  0  0  0  0
   11.2562  -17.8942   20.6355 C   0  0  0  0  0  0  0  0  0  0  0  0
   11.7089  -17.4791   19.5560 O   0  0  0  0  0  0  0  0  0  0  0  0
   11.2091  -17.0456   21.8106 C   0  0  0  0  0  0  0  0  0  0  0  0
    9.8759  -16.6234   22.3102 C   0  0  2  0  0  0  0  0  0  0  0  0
    9.4107  -15.5930   21.3664 N   0  0  0  0  0  0  0  0  0  0  0  0
    9.8189  -16.0634   23.6588 C   0  0  0  0  0  0  0  0  0  0  0  0
   10.6837  -15.1876   24.0212 O   0  0  0  0  0  0  0  0  0  0  0  0
    8.8749  -16.3842   24.6670 N   0  0  0  0  0  0  0  0  0  0  0  0
    9.0046  -15.9724   26.0524 C   0  0  1  0  0  0  0  0  0  0  0  0
    7.6844  -15.5615   26.6137 C   0  0  0  0  0  0  0  0  0  0  0  0
    7.3803  -14.1478   26.4397 C   0  0  0  0  0  0  0  0  0  0  0  0
    6.1617  -13.6813   25.9705 C   0  0  0  0  0  0  0  0  0  0  0  0
    5.8889  -12.3455   25.8105 C   0  0  0  0  0  0  0  0  0  0  0  0
    6.8722  -11.4315   26.1317 C   0  0  0  0  0  0  0  0  0  0  0  0
    8.1102  -11.8550   26.6062 C   0  0  0  0  0  0  0  0  0  0  0  0
    8.3427  -13.2000   26.7518 C   0  0  0  0  0  0  0  0  0  0  0  0
    9.6733  -16.9603   26.8891 C   0  0  0  0  0  0  0  0  0  0  0  0
   10.0393  -18.1909   26.3217 O   0  0  0  0  0  0  0  0  0  0  0  0
    9.9630  -16.8174   28.1016 O   0  0  0  0  0  0  0  0  0  0  0  0
  2  1  1  6
  3  2  1  0
  3  4  1  0
  5  6  2  0
  5  2  1  0
  7  8  1  0
  8  9  2  0
  8 10  1  0
 11 10  1  6
 11 13  1  0
 11 12  1  0
 12  5  1  0
 13 15  1  0
 14 13  2  0
 15 16  1  0
 16 17  1  1
 17 18  1  0
 18 23  2  0
 19 20  2  0
 19 18  1  0
 20 21  1  0
 21 22  2  0
 23 22  1  0
 24 25  1  0
 24 16  1  0
 26 24  2  0
M  END
$$$$
