CNF.pdb
     RDKit          3D

 26 26  0  0  1  0  0  0  0  0999 V2000
    7.7668  -14.2994   17.3279 N   0  0  0  0  0  0  0  0  0  0  0  0
    8.4774  -14.0064   18.5790 C   0  0  1  0  0  0  0  0  0  0  0  0
    7.7668  -12.7911   19.1695 C   0  0  0  0  0  0  0  0  0  0  0  0
    8.5175  -12.4764   20.7922 S   0  0  0  0  0  0  0  0  0  0  0  0
    8.3239  -15.1370   19.5345 C   0  0  0  0  0  0  0  0  0  0  0  0
    7.2157  -15.7467   19.6271 O   0  0  0  0  0  0  0  0  0  0  0  0
    9.4789  -19.8574   21.7383 N   0  0  0  0  0  0  0  0  0  0  0  0
   10.3917  -18.7628   21.7920 C   0  0  0  0  0  0  0  0  0  0  0  0
   11.3188  -18.8242   22.6162 O   0  0  0  0  0  0  0  0  0  0  0  0
   10.2383  -17.6201   20.9122 C   0  0  0  0  0  0  0  0  0  0  0  0
    9.3449  -16.5187   21.3526 C   0  0  2  0  0  0  0  0  0  0  0  0
    9.4558  -15.4827   20.3118 N   0  0  0  0  0  0  0  0  0  0  0  0
    9.6401  -15.8999   22.6431 C   0  0  0  0  0  0  0  0  0  0  0  0
   10.1317  -14.7155   22.6833 O   0  0  0  0  0  0  0  0  0  0  0  0
    9.4370  -16.4770   23.9223 N   0  0  0  0  0  0  0  0  0  0  0  0
    8.8474  -15.7668   25.0420 C   0  0  1  0  0  0  0  0  0  0  0  0
    7.6646  -14.9686   24.6055 C   0  0  0  0  0  0  0  0  0  0  0  0
    7.3448  -13.8528   25.4853 C   0  0  0  0  0  0  0  0  0  0  0  0
    6.0546  -13.5445   25.8891 C   0  0  0  0  0  0  0  0  0  0  0  0
    5.7675  -12.4888   26.7183 C   0  0  0  0  0  0  0  0  0  0  0  0
    6.8105  -11.7036   27.1667 C   0  0  0  0  0  0  0  0  0  0  0  0
    8.1213  -11.9765   26.7868 C   0  0  0  0  0  0  0  0  0  0  0  0
    8.3658  -13.0417   25.9563 C   0  0  0  0  0  0  0  0  0  0  0  0
    8.5399  -16.6284   26.1760 C   0  0  0  0  0  0  0  0  0  0  0  0
    9.1060  -16.3301   27.4254 O   0  0  0  0  0  0  0  0  0  0  0  0
    7.7983  -17.6403   26.1472 O   0  0  0  0  0  0  0  0  0  0  0  0
  2  1  1  6
  3  2  1  0
  3  4  1  0
  5  6  2  0
  5  2  1  0
  7  8  1  0
  8  9  2  0
  8 10  1  0
 11 10  1  6
 11 13  1  0
 11 12  1  0
 12  5  1  0
 13 15  1  0
 14 13  2  0
 15 16  1  0
 16 17  1  6
 17 18  1  0
 18 23  2  0
 19 20  2  0
 19 18  1  0
 20 21  1  0
 21 22  2  0
 23 22  1  0
 24 25  1  0
 24 16  1  0
 26 24  2  0
M  END
$$$$
