CNF.pdb
     RDKit          3D

 26 26  0  0  1  0  0  0  0  0999 V2000
    6.3902  -15.2638   19.0037 N   0  0  0  0  0  0  0  0  0  0  0  0
    7.4362  -15.2022   20.0323 C   0  0  1  0  0  0  0  0  0  0  0  0
    7.8367  -13.7311   20.1104 C   0  0  0  0  0  0  0  0  0  0  0  0
    9.2581  -13.6291   21.2352 S   0  0  0  0  0  0  0  0  0  0  0  0
    6.8804  -15.5974   21.3551 C   0  0  0  0  0  0  0  0  0  0  0  0
    5.8485  -15.0184   21.8112 O   0  0  0  0  0  0  0  0  0  0  0  0
    4.7657  -18.1271   21.9116 N   0  0  0  0  0  0  0  0  0  0  0  0
    5.7014  -19.0404   22.4813 C   0  0  0  0  0  0  0  0  0  0  0  0
    5.4862  -20.2546   22.3334 O   0  0  0  0  0  0  0  0  0  0  0  0
    6.8626  -18.5625   23.2070 C   0  0  0  0  0  0  0  0  0  0  0  0
    7.0357  -17.0949   23.3528 C   0  0  2  0  0  0  0  0  0  0  0  0
    7.5522  -16.6292   22.0546 N   0  0  0  0  0  0  0  0  0  0  0  0
    7.9487  -16.6343   24.3968 C   0  0  0  0  0  0  0  0  0  0  0  0
    9.2133  -16.6315   24.1803 O   0  0  0  0  0  0  0  0  0  0  0  0
    7.5893  -16.1637   25.6852 N   0  0  0  0  0  0  0  0  0  0  0  0
    8.5522  -15.7588   26.6924 C   0  0  1  0  0  0  0  0  0  0  0  0
    7.9416  -14.8031   27.6621 C   0  0  0  0  0  0  0  0  0  0  0  0
    7.3947  -13.6018   27.0463 C   0  0  0  0  0  0  0  0  0  0  0  0
    8.1811  -12.5866   26.5231 C   0  0  0  0  0  0  0  0  0  0  0  0
    7.6521  -11.4589   25.9462 C   0  0  0  0  0  0  0  0  0  0  0  0
    6.2786  -11.3346   25.8863 C   0  0  0  0  0  0  0  0  0  0  0  0
    5.4509  -12.3291   26.3990 C   0  0  0  0  0  0  0  0  0  0  0  0
    6.0199  -13.4413   26.9678 C   0  0  0  0  0  0  0  0  0  0  0  0
    9.1970  -16.8817   27.3605 C   0  0  0  0  0  0  0  0  0  0  0  0
    8.7502  -18.1826   27.0805 O   0  0  0  0  0  0  0  0  0  0  0  0
   10.1390  -16.8002   28.1856 O   0  0  0  0  0  0  0  0  0  0  0  0
  2  1  1  6
  3  2  1  0
  3  4  1  0
  5  6  2  0
  5  2  1  0
  7  8  1  0
  8  9  2  0
  8 10  1  0
 11 10  1  6
 11 13  1  0
 11 12  1  0
 12  5  1  0
 13 15  1  0
 14 13  2  0
 15 16  1  0
 16 17  1  1
 17 18  1  0
 18 23  2  0
 19 20  2  0
 19 18  1  0
 20 21  1  0
 21 22  2  0
 23 22  1  0
 24 25  1  0
 24 16  1  0
 26 24  2  0
M  END
$$$$
