CNF.pdb
     RDKit          3D

 26 26  0  0  1  0  0  0  0  0999 V2000
    6.2737  -15.0031   20.5130 N   0  0  0  0  0  0  0  0  0  0  0  0
    7.7142  -14.8093   20.7214 C   0  0  1  0  0  0  0  0  0  0  0  0
    7.8517  -13.3994   21.2904 C   0  0  0  0  0  0  0  0  0  0  0  0
    6.7988  -13.3201   22.7672 S   0  0  0  0  0  0  0  0  0  0  0  0
    8.2195  -15.7674   21.7419 C   0  0  0  0  0  0  0  0  0  0  0  0
    7.4102  -16.5156   22.3692 O   0  0  0  0  0  0  0  0  0  0  0  0
   12.2130  -17.4193   19.9219 N   0  0  0  0  0  0  0  0  0  0  0  0
   11.6775  -17.9243   21.1435 C   0  0  0  0  0  0  0  0  0  0  0  0
   11.3161  -19.1122   21.1681 O   0  0  0  0  0  0  0  0  0  0  0  0
   11.5613  -17.0756   22.3139 C   0  0  0  0  0  0  0  0  0  0  0  0
   10.2017  -16.8150   22.8513 C   0  0  2  0  0  0  0  0  0  0  0  0
    9.6176  -15.7942   21.9649 N   0  0  0  0  0  0  0  0  0  0  0  0
   10.1133  -16.3274   24.2261 C   0  0  0  0  0  0  0  0  0  0  0  0
   10.9607  -15.4623   24.6501 O   0  0  0  0  0  0  0  0  0  0  0  0
    9.1549  -16.7112   25.1981 N   0  0  0  0  0  0  0  0  0  0  0  0
    9.2816  -16.4184   26.6137 C   0  0  1  0  0  0  0  0  0  0  0  0
    7.9856  -15.9413   27.1789 C   0  0  0  0  0  0  0  0  0  0  0  0
    7.5891  -14.6178   26.7178 C   0  0  0  0  0  0  0  0  0  0  0  0
    6.4003  -14.3667   26.0498 C   0  0  0  0  0  0  0  0  0  0  0  0
    6.0396  -13.1139   25.6198 C   0  0  0  0  0  0  0  0  0  0  0  0
    6.8998  -12.0625   25.8653 C   0  0  0  0  0  0  0  0  0  0  0  0
    8.1036  -12.2687   26.5327 C   0  0  0  0  0  0  0  0  0  0  0  0
    8.4269  -13.5370   26.9461 C   0  0  0  0  0  0  0  0  0  0  0  0
    9.8439  -17.5200   27.3840 C   0  0  0  0  0  0  0  0  0  0  0  0
   10.0948  -18.7398   26.7361 O   0  0  0  0  0  0  0  0  0  0  0  0
   10.1346  -17.4871   28.6042 O   0  0  0  0  0  0  0  0  0  0  0  0
  2  1  1  1
  3  2  1  0
  3  4  1  0
  5  6  2  0
  5  2  1  0
  7  8  1  0
  8  9  2  0
  8 10  1  0
 11 10  1  6
 11 13  1  0
 11 12  1  0
 12  5  1  0
 13 15  1  0
 14 13  2  0
 15 16  1  0
 16 17  1  1
 17 18  1  0
 18 23  2  0
 19 20  2  0
 19 18  1  0
 20 21  1  0
 21 22  2  0
 23 22  1  0
 24 25  1  0
 24 16  1  0
 26 24  2  0
M  END
$$$$
