CNF.pdb
     RDKit          3D

 26 26  0  0  1  0  0  0  0  0999 V2000
    7.3740  -15.0677   18.2780 N   0  0  0  0  0  0  0  0  0  0  0  0
    8.2981  -14.6933   19.3558 C   0  0  1  0  0  0  0  0  0  0  0  0
    7.9519  -13.2462   19.6974 C   0  0  0  0  0  0  0  0  0  0  0  0
    8.6694  -12.2085   18.3920 S   0  0  0  0  0  0  0  0  0  0  0  0
    8.0424  -15.5238   20.5640 C   0  0  0  0  0  0  0  0  0  0  0  0
    6.8925  -15.5334   21.0987 O   0  0  0  0  0  0  0  0  0  0  0  0
    7.3486  -19.9450   21.5914 N   0  0  0  0  0  0  0  0  0  0  0  0
    8.4552  -19.2402   21.0321 C   0  0  0  0  0  0  0  0  0  0  0  0
    8.6159  -19.3004   19.8021 O   0  0  0  0  0  0  0  0  0  0  0  0
    9.3585  -18.4807   21.8751 C   0  0  0  0  0  0  0  0  0  0  0  0
    8.9507  -17.1092   22.2724 C   0  0  2  0  0  0  0  0  0  0  0  0
    9.1276  -16.2818   21.0670 N   0  0  0  0  0  0  0  0  0  0  0  0
    9.6945  -16.4855   23.3648 C   0  0  0  0  0  0  0  0  0  0  0  0
   10.9513  -16.2631   23.2334 O   0  0  0  0  0  0  0  0  0  0  0  0
    9.1698  -16.0724   24.6157 N   0  0  0  0  0  0  0  0  0  0  0  0
    9.9904  -15.6200   25.7237 C   0  0  1  0  0  0  0  0  0  0  0  0
    9.9222  -14.1365   25.8685 C   0  0  0  0  0  0  0  0  0  0  0  0
    8.5719  -13.6191   26.0424 C   0  0  0  0  0  0  0  0  0  0  0  0
    7.5870  -13.7141   25.0710 C   0  0  0  0  0  0  0  0  0  0  0  0
    6.3182  -13.2209   25.2481 C   0  0  0  0  0  0  0  0  0  0  0  0
    6.0143  -12.6053   26.4457 C   0  0  0  0  0  0  0  0  0  0  0  0
    6.9720  -12.4878   27.4487 C   0  0  0  0  0  0  0  0  0  0  0  0
    8.2292  -12.9943   27.2316 C   0  0  0  0  0  0  0  0  0  0  0  0
    9.7017  -16.3075   26.9755 C   0  0  0  0  0  0  0  0  0  0  0  0
   10.5414  -16.0859   28.0783 O   0  0  0  0  0  0  0  0  0  0  0  0
    8.7501  -17.1015   27.1725 O   0  0  0  0  0  0  0  0  0  0  0  0
  2  1  1  6
  3  2  1  0
  3  4  1  0
  5  6  2  0
  5  2  1  0
  7  8  1  0
  8  9  2  0
  8 10  1  0
 11 10  1  6
 11 13  1  0
 11 12  1  0
 12  5  1  0
 13 15  1  0
 14 13  2  0
 15 16  1  0
 16 17  1  1
 17 18  1  0
 18 23  2  0
 19 20  2  0
 19 18  1  0
 20 21  1  0
 21 22  2  0
 23 22  1  0
 24 25  1  0
 24 16  1  0
 26 24  2  0
M  END
$$$$
