AQF.pdb
     RDKit          3D

 26 26  0  0  1  0  0  0  0  0999 V2000
   27.4295  -17.7990  -15.5703 C   0  0  0  0  0  0  0  0  0  0  0  0
   28.0807  -18.8744  -14.7274 C   0  0  2  0  0  0  0  0  0  0  0  0
   28.1514  -20.0936  -15.5027 N   0  0  0  0  0  0  0  0  0  0  0  0
   27.2421  -19.0372  -13.5034 C   0  0  0  0  0  0  0  0  0  0  0  0
   27.0335  -18.0191  -12.8453 O   0  0  0  0  0  0  0  0  0  0  0  0
   22.2462  -22.3575  -12.7962 N   0  0  0  0  0  0  0  0  0  0  0  0
   22.2547  -20.9852  -13.1586 C   0  0  0  0  0  0  0  0  0  0  0  0
   21.2363  -20.4436  -13.6075 O   0  0  0  0  0  0  0  0  0  0  0  0
   23.5538  -20.2489  -12.9654 C   0  0  0  0  0  0  0  0  0  0  0  0
   24.5267  -21.1647  -12.2660 C   0  0  0  0  0  0  0  0  0  0  0  0
   25.8590  -20.5078  -11.9979 C   0  0  2  0  0  0  0  0  0  0  0  0
   26.7081  -20.2792  -13.1042 N   0  0  0  0  0  0  0  0  0  0  0  0
   26.4922  -20.8643  -10.7265 C   0  0  0  0  0  0  0  0  0  0  0  0
   27.3150  -21.8234  -10.6053 O   0  0  0  0  0  0  0  0  0  0  0  0
   26.2381  -20.1587   -9.4998 N   0  0  0  0  0  0  0  0  0  0  0  0
   26.8158  -20.5521   -8.2281 C   0  0  1  0  0  0  0  0  0  0  0  0
   27.5813  -19.3645   -7.7067 C   0  0  0  0  0  0  0  0  0  0  0  0
   28.1608  -19.5653   -6.3630 C   0  0  0  0  0  0  0  0  0  0  0  0
   29.1977  -20.4348   -6.1028 C   0  0  0  0  0  0  0  0  0  0  0  0
   29.7174  -20.5941   -4.8152 C   0  0  0  0  0  0  0  0  0  0  0  0
   29.1956  -19.8768   -3.7750 C   0  0  0  0  0  0  0  0  0  0  0  0
   28.1632  -19.0053   -4.0100 C   0  0  0  0  0  0  0  0  0  0  0  0
   27.6538  -18.8505   -5.2779 C   0  0  0  0  0  0  0  0  0  0  0  0
   25.8246  -21.0769   -7.2917 C   0  0  0  0  0  0  0  0  0  0  0  0
   24.5894  -20.8902   -7.4584 O   0  0  0  0  0  0  0  0  0  0  0  0
   26.2003  -21.8062   -6.1750 O   0  0  0  0  0  0  0  0  0  0  0  0
  2  1  1  6
  3  2  1  0
  4  5  2  0
  4  2  1  0
  6  7  1  0
  7  9  1  0
  8  7  2  0
  9 10  1  0
 11 10  1  6
 11 12  1  0
 12  4  1  0
 13 11  1  0
 14 13  2  0
 15 13  1  0
 16 24  1  0
 16 15  1  0
 17 18  1  0
 16 17  1  1
 18 19  2  0
 19 20  1  0
 21 20  2  0
 22 21  1  0
 23 18  1  0
 23 22  2  0
 24 26  1  0
 25 24  2  0
M  END
$$$$
