AQF.pdb
     RDKit          3D

 26 26  0  0  1  0  0  0  0  0999 V2000
   19.9813  -12.7121    4.7177 C   0  0  0  0  0  0  0  0  0  0  0  0
   18.4746  -12.7714    4.8504 C   0  0  2  0  0  0  0  0  0  0  0  0
   18.0575  -11.8091    5.8466 N   0  0  0  0  0  0  0  0  0  0  0  0
   18.1256  -14.1690    5.2415 C   0  0  0  0  0  0  0  0  0  0  0  0
   18.1986  -14.4347    6.4403 O   0  0  0  0  0  0  0  0  0  0  0  0
   16.0521  -18.8432    1.4786 N   0  0  0  0  0  0  0  0  0  0  0  0
   16.0314  -19.5103    2.7314 C   0  0  0  0  0  0  0  0  0  0  0  0
   15.5377  -20.6403    2.8377 O   0  0  0  0  0  0  0  0  0  0  0  0
   16.6355  -18.7700    3.8950 C   0  0  0  0  0  0  0  0  0  0  0  0
   16.9792  -17.3709    3.4493 C   0  0  0  0  0  0  0  0  0  0  0  0
   17.5416  -16.5233    4.5646 C   0  0  2  0  0  0  0  0  0  0  0  0
   17.7315  -15.1470    4.3059 N   0  0  0  0  0  0  0  0  0  0  0  0
   18.5217  -17.1870    5.4268 C   0  0  0  0  0  0  0  0  0  0  0  0
   19.7465  -17.3124    5.1175 O   0  0  0  0  0  0  0  0  0  0  0  0
   18.1837  -17.7569    6.7028 N   0  0  0  0  0  0  0  0  0  0  0  0
   19.1315  -18.5003    7.5118 C   0  0  1  0  0  0  0  0  0  0  0  0
   19.3274  -17.7222    8.7863 C   0  0  0  0  0  0  0  0  0  0  0  0
   20.5381  -16.8762    8.7944 C   0  0  0  0  0  0  0  0  0  0  0  0
   21.7957  -17.3429    8.4788 C   0  0  0  0  0  0  0  0  0  0  0  0
   22.9158  -16.5072    8.4982 C   0  0  0  0  0  0  0  0  0  0  0  0
   22.7787  -15.1899    8.8367 C   0  0  0  0  0  0  0  0  0  0  0  0
   21.5368  -14.7029    9.1547 C   0  0  0  0  0  0  0  0  0  0  0  0
   20.4364  -15.5274    9.1348 C   0  0  0  0  0  0  0  0  0  0  0  0
   18.7330  -19.8905    7.7206 C   0  0  0  0  0  0  0  0  0  0  0  0
   17.6356  -20.3382    7.2921 O   0  0  0  0  0  0  0  0  0  0  0  0
   19.5473  -20.7814    8.4010 O   0  0  0  0  0  0  0  0  0  0  0  0
  2  1  1  1
  3  2  1  0
  4  5  2  0
  4  2  1  0
  6  7  1  0
  7  9  1  0
  8  7  2  0
  9 10  1  0
 11 10  1  6
 11 12  1  0
 12  4  1  0
 13 11  1  0
 14 13  2  0
 15 13  1  0
 16 24  1  0
 16 15  1  0
 17 18  1  0
 16 17  1  1
 18 19  2  0
 19 20  1  0
 21 20  2  0
 22 21  1  0
 23 18  1  0
 23 22  2  0
 24 26  1  0
 25 24  2  0
M  END
$$$$
