AQF.pdb
     RDKit          3D

 26 26  0  0  1  0  0  0  0  0999 V2000
   19.8265  -31.3407   -3.4978 C   0  0  0  0  0  0  0  0  0  0  0  0
   20.0323  -32.3479   -4.6088 C   0  0  2  0  0  0  0  0  0  0  0  0
   19.1145  -33.4489   -4.4141 N   0  0  0  0  0  0  0  0  0  0  0  0
   21.4570  -32.7879   -4.5406 C   0  0  0  0  0  0  0  0  0  0  0  0
   21.7226  -33.6497   -3.7041 O   0  0  0  0  0  0  0  0  0  0  0  0
   26.0280  -32.0174   -8.7898 N   0  0  0  0  0  0  0  0  0  0  0  0
   26.7683  -32.6700   -7.7696 C   0  0  0  0  0  0  0  0  0  0  0  0
   27.9333  -33.0370   -7.9703 O   0  0  0  0  0  0  0  0  0  0  0  0
   26.0598  -32.8814   -6.4580 C   0  0  0  0  0  0  0  0  0  0  0  0
   24.6375  -32.3992   -6.5961 C   0  0  0  0  0  0  0  0  0  0  0  0
   23.8392  -32.5609   -5.3253 C   0  0  2  0  0  0  0  0  0  0  0  0
   22.4597  -32.2591   -5.3786 N   0  0  0  0  0  0  0  0  0  0  0  0
   24.5518  -32.2342   -4.0883 C   0  0  0  0  0  0  0  0  0  0  0  0
   24.7325  -31.0443   -3.6845 O   0  0  0  0  0  0  0  0  0  0  0  0
   25.1112  -33.2336   -3.2193 N   0  0  0  0  0  0  0  0  0  0  0  0
   25.8251  -32.9087   -1.9984 C   0  0  1  0  0  0  0  0  0  0  0  0
   24.8636  -33.1163   -0.8581 C   0  0  0  0  0  0  0  0  0  0  0  0
   25.4155  -32.7636    0.4658 C   0  0  0  0  0  0  0  0  0  0  0  0
   25.3408  -31.5000    1.0103 C   0  0  0  0  0  0  0  0  0  0  0  0
   25.8761  -31.2091    2.2681 C   0  0  0  0  0  0  0  0  0  0  0  0
   26.4934  -32.1915    2.9909 C   0  0  0  0  0  0  0  0  0  0  0  0
   26.5798  -33.4569    2.4694 C   0  0  0  0  0  0  0  0  0  0  0  0
   26.0522  -33.7403    1.2315 C   0  0  0  0  0  0  0  0  0  0  0  0
   27.0787  -33.6465   -1.8596 C   0  0  0  0  0  0  0  0  0  0  0  0
   27.2129  -34.8174   -2.3059 O   0  0  0  0  0  0  0  0  0  0  0  0
   28.1794  -33.0891   -1.2290 O   0  0  0  0  0  0  0  0  0  0  0  0
  2  1  1  1
  3  2  1  0
  4  5  2  0
  4  2  1  0
  6  7  1  0
  7  9  1  0
  8  7  2  0
  9 10  1  0
 11 10  1  6
 11 12  1  0
 12  4  1  0
 13 11  1  0
 14 13  2  0
 15 13  1  0
 16 24  1  0
 16 15  1  0
 17 18  1  0
 16 17  1  1
 18 19  2  0
 19 20  1  0
 21 20  2  0
 22 21  1  0
 23 18  1  0
 23 22  2  0
 24 26  1  0
 25 24  2  0
M  END
$$$$
