AQF.pdb
     RDKit          3D

 26 26  0  0  1  0  0  0  0  0999 V2000
   28.2733  -17.5487  -14.3453 C   0  0  0  0  0  0  0  0  0  0  0  0
   27.0446  -18.2924  -14.8231 C   0  0  2  0  0  0  0  0  0  0  0  0
   26.1384  -17.3468  -15.4372 N   0  0  0  0  0  0  0  0  0  0  0  0
   26.4406  -18.9511  -13.6274 C   0  0  0  0  0  0  0  0  0  0  0  0
   25.7714  -18.2314  -12.8876 O   0  0  0  0  0  0  0  0  0  0  0  0
   24.4357  -24.7280  -13.0278 N   0  0  0  0  0  0  0  0  0  0  0  0
   23.5631  -23.6585  -13.3586 C   0  0  0  0  0  0  0  0  0  0  0  0
   22.4290  -23.8818  -13.8013 O   0  0  0  0  0  0  0  0  0  0  0  0
   24.0956  -22.2671  -13.1408 C   0  0  0  0  0  0  0  0  0  0  0  0
   25.4559  -22.3675  -12.4974 C   0  0  0  0  0  0  0  0  0  0  0  0
   26.0799  -21.0183  -12.2352 C   0  0  2  0  0  0  0  0  0  0  0  0
   26.6142  -20.3205  -13.3419 N   0  0  0  0  0  0  0  0  0  0  0  0
   26.7792  -20.8861  -10.9554 C   0  0  0  0  0  0  0  0  0  0  0  0
   27.9952  -21.2117  -10.7916 O   0  0  0  0  0  0  0  0  0  0  0  0
   26.1499  -20.3750   -9.7680 N   0  0  0  0  0  0  0  0  0  0  0  0
   26.6436  -20.6501   -8.4315 C   0  0  1  0  0  0  0  0  0  0  0  0
   27.5552  -19.5116   -8.0563 C   0  0  0  0  0  0  0  0  0  0  0  0
   28.0725  -19.5854   -6.6748 C   0  0  0  0  0  0  0  0  0  0  0  0
   29.0311  -20.4876   -6.2675 C   0  0  0  0  0  0  0  0  0  0  0  0
   29.4939  -20.5231   -4.9492 C   0  0  0  0  0  0  0  0  0  0  0  0
   28.9934  -19.6473   -4.0265 C   0  0  0  0  0  0  0  0  0  0  0  0
   28.0385  -18.7404   -4.4087 C   0  0  0  0  0  0  0  0  0  0  0  0
   27.5851  -18.7077   -5.7065 C   0  0  0  0  0  0  0  0  0  0  0  0
   25.5718  -20.8943   -7.4688 C   0  0  0  0  0  0  0  0  0  0  0  0
   24.3813  -20.5513   -7.6995 O   0  0  0  0  0  0  0  0  0  0  0  0
   25.8181  -21.5164   -6.2555 O   0  0  0  0  0  0  0  0  0  0  0  0
  2  1  1  1
  3  2  1  0
  4  5  2  0
  4  2  1  0
  6  7  1  0
  7  9  1  0
  8  7  2  0
  9 10  1  0
 11 10  1  6
 11 12  1  0
 12  4  1  0
 13 11  1  0
 14 13  2  0
 15 13  1  0
 16 24  1  0
 16 15  1  0
 17 18  1  0
 16 17  1  1
 18 19  2  0
 19 20  1  0
 21 20  2  0
 22 21  1  0
 23 18  1  0
 23 22  2  0
 24 26  1  0
 25 24  2  0
M  END
$$$$
