AQF.pdb
     RDKit          3D

 26 26  0  0  1  0  0  0  0  0999 V2000
   19.0194  -11.5683  -15.5145 C   0  0  0  0  0  0  0  0  0  0  0  0
   19.3669  -10.1116  -15.7347 C   0  0  2  0  0  0  0  0  0  0  0  0
   20.5770  -10.0364  -16.5236 N   0  0  0  0  0  0  0  0  0  0  0  0
   19.5386   -9.4952  -14.3860 C   0  0  0  0  0  0  0  0  0  0  0  0
   20.6572   -9.5865  -13.8827 O   0  0  0  0  0  0  0  0  0  0  0  0
   21.8429   -5.3754  -12.5662 N   0  0  0  0  0  0  0  0  0  0  0  0
   20.8597   -5.0156  -13.5247 C   0  0  0  0  0  0  0  0  0  0  0  0
   21.0133   -4.0207  -14.2449 O   0  0  0  0  0  0  0  0  0  0  0  0
   19.6461   -5.9031  -13.6056 C   0  0  0  0  0  0  0  0  0  0  0  0
   19.7983   -7.0193  -12.6029 C   0  0  0  0  0  0  0  0  0  0  0  0
   18.6254   -7.9694  -12.6028 C   0  0  2  0  0  0  0  0  0  0  0  0
   18.4908   -8.8398  -13.7080 N   0  0  0  0  0  0  0  0  0  0  0  0
   17.3950   -7.4506  -12.0016 C   0  0  0  0  0  0  0  0  0  0  0  0
   16.4697   -6.9028  -12.6764 O   0  0  0  0  0  0  0  0  0  0  0  0
   17.1247   -7.5153  -10.5910 N   0  0  0  0  0  0  0  0  0  0  0  0
   15.8762   -7.0647  -10.0046 C   0  0  1  0  0  0  0  0  0  0  0  0
   15.8276   -7.6092   -8.6013 C   0  0  0  0  0  0  0  0  0  0  0  0
   14.5519   -7.3554   -7.9015 C   0  0  0  0  0  0  0  0  0  0  0  0
   13.4502   -8.1768   -8.0040 C   0  0  0  0  0  0  0  0  0  0  0  0
   12.2613   -7.8999   -7.3234 C   0  0  0  0  0  0  0  0  0  0  0  0
   12.1713   -6.7896   -6.5309 C   0  0  0  0  0  0  0  0  0  0  0  0
   13.2550   -5.9574   -6.4135 C   0  0  0  0  0  0  0  0  0  0  0  0
   14.4235   -6.2323   -7.0843 C   0  0  0  0  0  0  0  0  0  0  0  0
   15.7002   -5.6165  -10.0856 C   0  0  0  0  0  0  0  0  0  0  0  0
   14.5617   -5.0922  -10.2167 O   0  0  0  0  0  0  0  0  0  0  0  0
   16.7815   -4.7523  -10.0212 O   0  0  0  0  0  0  0  0  0  0  0  0
  2  1  1  1
  3  2  1  0
  4  5  2  0
  4  2  1  0
  6  7  1  0
  7  9  1  0
  8  7  2  0
  9 10  1  0
 11 10  1  6
 11 12  1  0
 12  4  1  0
 13 11  1  0
 14 13  2  0
 15 13  1  0
 16 24  1  0
 16 15  1  0
 17 18  1  0
 16 17  1  1
 18 19  2  0
 19 20  1  0
 21 20  2  0
 22 21  1  0
 23 18  1  0
 23 22  2  0
 24 26  1  0
 25 24  2  0
M  END
$$$$
