AQF.pdb
     RDKit          3D

 26 26  0  0  1  0  0  0  0  0999 V2000
   19.2237  -10.9162  -15.0503 C   0  0  0  0  0  0  0  0  0  0  0  0
   17.8514  -10.2918  -14.9156 C   0  0  2  0  0  0  0  0  0  0  0  0
   17.3097  -10.0700  -16.2383 N   0  0  0  0  0  0  0  0  0  0  0  0
   18.0247   -9.0159  -14.1604 C   0  0  0  0  0  0  0  0  0  0  0  0
   18.4040   -8.0436  -14.8114 O   0  0  0  0  0  0  0  0  0  0  0  0
   15.4724   -7.5402   -8.6270 N   0  0  0  0  0  0  0  0  0  0  0  0
   16.1336   -6.3152   -8.9042 C   0  0  0  0  0  0  0  0  0  0  0  0
   15.9214   -5.3115   -8.2117 O   0  0  0  0  0  0  0  0  0  0  0  0
   17.0879   -6.3171  -10.0688 C   0  0  0  0  0  0  0  0  0  0  0  0
   17.0138   -7.6609  -10.7495 C   0  0  0  0  0  0  0  0  0  0  0  0
   17.8522   -7.7285  -12.0029 C   0  0  2  0  0  0  0  0  0  0  0  0
   17.7735   -8.9079  -12.7775 N   0  0  0  0  0  0  0  0  0  0  0  0
   19.1523   -7.0589  -11.9276 C   0  0  0  0  0  0  0  0  0  0  0  0
   20.1635   -7.5680  -11.3532 O   0  0  0  0  0  0  0  0  0  0  0  0
   19.4002   -5.7628  -12.4985 N   0  0  0  0  0  0  0  0  0  0  0  0
   20.7203   -5.1627  -12.5521 C   0  0  1  0  0  0  0  0  0  0  0  0
   21.6309   -6.1616  -13.2163 C   0  0  0  0  0  0  0  0  0  0  0  0
   21.7948   -5.9529  -14.6693 C   0  0  0  0  0  0  0  0  0  0  0  0
   22.4460   -4.8677  -15.2143 C   0  0  0  0  0  0  0  0  0  0  0  0
   22.5796   -4.7090  -16.5965 C   0  0  0  0  0  0  0  0  0  0  0  0
   22.0567   -5.6450  -17.4446 C   0  0  0  0  0  0  0  0  0  0  0  0
   21.4042   -6.7336  -16.9250 C   0  0  0  0  0  0  0  0  0  0  0  0
   21.2743   -6.8872  -15.5647 C   0  0  0  0  0  0  0  0  0  0  0  0
   20.7207   -3.8461  -13.1859 C   0  0  0  0  0  0  0  0  0  0  0  0
   19.7540   -3.4476  -13.8895 O   0  0  0  0  0  0  0  0  0  0  0  0
   21.7878   -2.9743  -13.0405 O   0  0  0  0  0  0  0  0  0  0  0  0
  2  1  1  6
  3  2  1  0
  4  5  2  0
  4  2  1  0
  6  7  1  0
  7  9  1  0
  8  7  2  0
  9 10  1  0
 11 10  1  1
 11 12  1  0
 12  4  1  0
 13 11  1  0
 14 13  2  0
 15 13  1  0
 16 24  1  0
 16 15  1  0
 17 18  1  0
 16 17  1  6
 18 19  2  0
 19 20  1  0
 21 20  2  0
 22 21  1  0
 23 18  1  0
 23 22  2  0
 24 26  1  0
 25 24  2  0
M  END
$$$$
