AQF.pdb
     RDKit          3D

 26 26  0  0  1  0  0  0  0  0999 V2000
   19.6423  -11.9078  -18.2239 C   0  0  0  0  0  0  0  0  0  0  0  0
   20.2771  -11.2090  -17.0408 C   0  0  2  0  0  0  0  0  0  0  0  0
   19.7332  -11.7694  -15.8232 N   0  0  0  0  0  0  0  0  0  0  0  0
   19.9673   -9.7550  -17.1750 C   0  0  0  0  0  0  0  0  0  0  0  0
   20.4782   -9.1741  -18.1314 O   0  0  0  0  0  0  0  0  0  0  0  0
   14.9098   -6.9566  -17.5091 N   0  0  0  0  0  0  0  0  0  0  0  0
   15.6110   -7.7902  -18.4192 C   0  0  0  0  0  0  0  0  0  0  0  0
   15.0373   -8.2751  -19.4029 O   0  0  0  0  0  0  0  0  0  0  0  0
   17.0645   -8.0398  -18.1161 C   0  0  0  0  0  0  0  0  0  0  0  0
   17.4132   -7.3441  -16.8243 C   0  0  0  0  0  0  0  0  0  0  0  0
   18.7936   -7.6954  -16.3248 C   0  0  2  0  0  0  0  0  0  0  0  0
   19.1378   -9.0649  -16.2679 N   0  0  0  0  0  0  0  0  0  0  0  0
   19.3233   -6.8246  -15.2734 C   0  0  0  0  0  0  0  0  0  0  0  0
   18.8824   -6.8260  -14.0829 O   0  0  0  0  0  0  0  0  0  0  0  0
   20.3918   -5.8886  -15.4958 N   0  0  0  0  0  0  0  0  0  0  0  0
   20.9147   -5.0246  -14.4538 C   0  0  1  0  0  0  0  0  0  0  0  0
   22.3349   -5.4550  -14.1971 C   0  0  0  0  0  0  0  0  0  0  0  0
   22.4738   -6.8763  -13.8198 C   0  0  0  0  0  0  0  0  0  0  0  0
   21.9096   -7.4225  -12.6875 C   0  0  0  0  0  0  0  0  0  0  0  0
   22.0652   -8.7741  -12.3677 C   0  0  0  0  0  0  0  0  0  0  0  0
   22.7929   -9.5901  -13.1883 C   0  0  0  0  0  0  0  0  0  0  0  0
   23.3639   -9.0688  -14.3210 C   0  0  0  0  0  0  0  0  0  0  0  0
   23.2091   -7.7385  -14.6331 C   0  0  0  0  0  0  0  0  0  0  0  0
   20.7725   -3.6048  -14.7682 C   0  0  0  0  0  0  0  0  0  0  0  0
   21.0796   -2.7071  -13.9388 O   0  0  0  0  0  0  0  0  0  0  0  0
   20.2922   -3.1812  -15.9969 O   0  0  0  0  0  0  0  0  0  0  0  0
  2  1  1  6
  3  2  1  0
  4  5  2  0
  4  2  1  0
  6  7  1  0
  7  9  1  0
  8  7  2  0
  9 10  1  0
 11 10  1  1
 11 12  1  0
 12  4  1  0
 13 11  1  0
 14 13  2  0
 15 13  1  0
 16 24  1  0
 16 15  1  0
 17 18  1  0
 16 17  1  6
 18 19  2  0
 19 20  1  0
 21 20  2  0
 22 21  1  0
 23 18  1  0
 23 22  2  0
 24 26  1  0
 25 24  2  0
M  END
$$$$
