DYQ.pdb
     RDKit          3D

 30 30  0  0  1  0  0  0  0  0999 V2000
   29.0350  -29.9828  -18.0465 N   0  0  0  0  0  0  0  0  0  0  0  0
   27.7154  -30.5663  -17.8965 C   0  0  1  0  0  0  0  0  0  0  0  0
   27.7938  -31.5181  -16.7176 C   0  0  0  0  0  0  0  0  0  0  0  0
   28.6412  -32.6950  -17.0406 C   0  0  0  0  0  0  0  0  0  0  0  0
   29.0435  -32.9296  -18.2186 O   0  0  0  0  0  0  0  0  0  0  0  0
   26.7644  -29.4580  -17.6335 C   0  0  0  0  0  0  0  0  0  0  0  0
   27.0554  -28.5016  -16.8714 O   0  0  0  0  0  0  0  0  0  0  0  0
   29.0378  -33.6008  -16.0687 O   0  0  0  0  0  0  0  0  0  0  0  0
   20.2663  -23.6646  -18.7944 O   0  0  0  0  0  0  0  0  0  0  0  0
   21.2458  -24.6645  -18.9298 C   0  0  0  0  0  0  0  0  0  0  0  0
   22.5630  -24.3547  -18.7444 C   0  0  0  0  0  0  0  0  0  0  0  0
   23.5158  -25.3614  -18.8837 C   0  0  0  0  0  0  0  0  0  0  0  0
   23.1698  -26.6524  -19.2011 C   0  0  0  0  0  0  0  0  0  0  0  0
   24.2062  -27.6775  -19.3359 C   0  0  0  0  0  0  0  0  0  0  0  0
   24.4952  -28.4215  -18.0469 C   0  0  2  0  0  0  0  0  0  0  0  0
   25.4784  -29.4650  -18.2571 N   0  0  0  0  0  0  0  0  0  0  0  0
   23.2815  -28.9760  -17.4040 C   0  0  0  0  0  0  0  0  0  0  0  0
   22.6276  -29.8845  -18.0058 O   0  0  0  0  0  0  0  0  0  0  0  0
   21.8442  -26.9735  -19.3899 C   0  0  0  0  0  0  0  0  0  0  0  0
   20.9000  -25.9483  -19.2457 C   0  0  0  0  0  0  0  0  0  0  0  0
   21.8052  -27.9770  -11.3323 N   0  0  0  0  0  0  0  0  0  0  0  0
   20.7325  -28.8122  -11.7386 C   0  0  0  0  0  0  0  0  0  0  0  0
   19.8888  -29.1758  -10.8557 O   0  0  0  0  0  0  0  0  0  0  0  0
   20.6383  -29.2134  -13.1486 C   0  0  0  0  0  0  0  0  0  0  0  0
   21.6931  -28.7285  -14.0481 C   0  0  0  0  0  0  0  0  0  0  0  0
   21.6072  -29.1515  -15.4895 C   0  0  2  0  0  0  0  0  0  0  0  0
   22.7930  -28.5648  -16.1549 N   0  0  0  0  0  0  0  0  0  0  0  0
   20.3807  -28.9221  -16.1998 C   0  0  0  0  0  0  0  0  0  0  0  0
   19.5001  -29.9434  -16.5008 O   0  0  0  0  0  0  0  0  0  0  0  0
   20.0620  -27.7695  -16.5863 O   0  0  0  0  0  0  0  0  0  0  0  0
  2  1  1  1
  2  3  1  0
  3  4  1  0
  4  5  2  0
  6  2  1  0
  7  6  2  0
  8  4  1  0
  9 10  1  0
 10 20  2  0
 10 11  1  0
 11 12  2  0
 12 13  1  0
 13 14  1  0
 15 14  1  6
 15 16  1  0
 16  6  1  0
 17 15  1  0
 17 27  1  0
 18 17  2  0
 19 13  2  0
 20 19  1  0
 22 21  1  0
 23 22  2  0
 24 22  1  0
 25 24  1  0
 26 27  1  0
 26 25  1  1
 28 26  1  0
 29 28  1  0
 30 28  2  0
M  END
$$$$
