DYQ.pdb
     RDKit          3D

 30 30  0  0  1  0  0  0  0  0999 V2000
   19.1727  -11.0230  -17.0043 N   0  0  0  0  0  0  0  0  0  0  0  0
   19.0289   -9.6081  -16.7184 C   0  0  1  0  0  0  0  0  0  0  0  0
   17.6737   -9.1921  -17.2593 C   0  0  0  0  0  0  0  0  0  0  0  0
   17.6850   -9.1497  -18.7444 C   0  0  0  0  0  0  0  0  0  0  0  0
   16.6383   -9.3479  -19.4298 O   0  0  0  0  0  0  0  0  0  0  0  0
   19.0968   -9.4409  -15.2455 C   0  0  0  0  0  0  0  0  0  0  0  0
   18.5164  -10.2332  -14.4610 O   0  0  0  0  0  0  0  0  0  0  0  0
   18.8433   -8.8904  -19.4610 O   0  0  0  0  0  0  0  0  0  0  0  0
   21.9142   -6.3208   -7.4309 O   0  0  0  0  0  0  0  0  0  0  0  0
   21.7611   -6.6174   -8.7971 C   0  0  0  0  0  0  0  0  0  0  0  0
   21.3179   -5.6526   -9.6562 C   0  0  0  0  0  0  0  0  0  0  0  0
   21.1739   -5.9693  -11.0052 C   0  0  0  0  0  0  0  0  0  0  0  0
   21.4641   -7.2197  -11.4944 C   0  0  0  0  0  0  0  0  0  0  0  0
   21.2985   -7.5058  -12.9206 C   0  0  0  0  0  0  0  0  0  0  0  0
   19.9598   -8.1298  -13.2629 C   0  0  2  0  0  0  0  0  0  0  0  0
   19.8391   -8.3534  -14.6895 N   0  0  0  0  0  0  0  0  0  0  0  0
   18.8036   -7.3515  -12.7615 C   0  0  0  0  0  0  0  0  0  0  0  0
   18.4454   -6.3077  -13.3918 O   0  0  0  0  0  0  0  0  0  0  0  0
   21.9115   -8.1984  -10.6353 C   0  0  0  0  0  0  0  0  0  0  0  0
   22.0502   -7.8618   -9.2822 C   0  0  0  0  0  0  0  0  0  0  0  0
   14.2919   -9.8602   -9.2415 N   0  0  0  0  0  0  0  0  0  0  0  0
   13.9027   -8.4964   -9.1975 C   0  0  0  0  0  0  0  0  0  0  0  0
   12.8142   -8.2030   -8.6037 O   0  0  0  0  0  0  0  0  0  0  0  0
   14.7670   -7.4897   -9.8277 C   0  0  0  0  0  0  0  0  0  0  0  0
   16.0235   -7.9695  -10.4173 C   0  0  0  0  0  0  0  0  0  0  0  0
   16.8530   -6.9626  -11.1668 C   0  0  2  0  0  0  0  0  0  0  0  0
   18.0602   -7.6901  -11.6210 N   0  0  0  0  0  0  0  0  0  0  0  0
   17.1458   -5.7076  -10.5337 C   0  0  0  0  0  0  0  0  0  0  0  0
   16.3605   -4.5861  -10.7199 O   0  0  0  0  0  0  0  0  0  0  0  0
   18.1452   -5.5787   -9.7828 O   0  0  0  0  0  0  0  0  0  0  0  0
  2  1  1  1
  2  3  1  0
  3  4  1  0
  4  5  2  0
  6  2  1  0
  7  6  2  0
  8  4  1  0
  9 10  1  0
 10 20  2  0
 10 11  1  0
 11 12  2  0
 12 13  1  0
 13 14  1  0
 15 14  1  6
 15 16  1  0
 16  6  1  0
 17 15  1  0
 17 27  1  0
 18 17  2  0
 19 13  2  0
 20 19  1  0
 22 21  1  0
 23 22  2  0
 24 22  1  0
 25 24  1  0
 26 27  1  0
 26 25  1  1
 28 26  1  0
 29 28  1  0
 30 28  2  0
M  END
$$$$
