DYQ.pdb
     RDKit          3D

 30 30  0  0  1  0  0  0  0  0999 V2000
   19.3099  -10.2555    8.3538 N   0  0  0  0  0  0  0  0  0  0  0  0
   20.0149  -11.0245    7.3459 C   0  0  1  0  0  0  0  0  0  0  0  0
   21.2973  -11.5140    7.9924 C   0  0  0  0  0  0  0  0  0  0  0  0
   22.2935  -10.4164    8.0937 C   0  0  0  0  0  0  0  0  0  0  0  0
   22.6733   -9.7587    7.0799 O   0  0  0  0  0  0  0  0  0  0  0  0
   19.1400  -12.1578    6.9559 C   0  0  0  0  0  0  0  0  0  0  0  0
   18.4971  -12.8224    7.8075 O   0  0  0  0  0  0  0  0  0  0  0  0
   22.8617  -10.0525    9.3050 O   0  0  0  0  0  0  0  0  0  0  0  0
   15.7599  -18.4181    1.6116 O   0  0  0  0  0  0  0  0  0  0  0  0
   16.3702  -17.2543    2.1126 C   0  0  0  0  0  0  0  0  0  0  0  0
   17.7163  -17.0763    1.9660 C   0  0  0  0  0  0  0  0  0  0  0  0
   18.2991  -15.9157    2.4702 C   0  0  0  0  0  0  0  0  0  0  0  0
   17.5612  -14.9485    3.1083 C   0  0  0  0  0  0  0  0  0  0  0  0
   18.2173  -13.7444    3.6209 C   0  0  0  0  0  0  0  0  0  0  0  0
   18.3285  -13.7107    5.1326 C   0  0  2  0  0  0  0  0  0  0  0  0
   19.0153  -12.5149    5.5777 N   0  0  0  0  0  0  0  0  0  0  0  0
   18.9704  -14.9182    5.7014 C   0  0  0  0  0  0  0  0  0  0  0  0
   20.2333  -15.0377    5.6231 O   0  0  0  0  0  0  0  0  0  0  0  0
   16.2034  -15.1199    3.2605 C   0  0  0  0  0  0  0  0  0  0  0  0
   15.6347  -16.2931    2.7472 C   0  0  0  0  0  0  0  0  0  0  0  0
   22.7741  -16.7540    9.1016 N   0  0  0  0  0  0  0  0  0  0  0  0
   21.6014  -17.3699    9.6105 C   0  0  0  0  0  0  0  0  0  0  0  0
   21.5004  -17.5151   10.8723 O   0  0  0  0  0  0  0  0  0  0  0  0
   20.5609  -17.8046    8.6691 C   0  0  0  0  0  0  0  0  0  0  0  0
   19.8449  -16.7507    7.9388 C   0  0  0  0  0  0  0  0  0  0  0  0
   18.9064  -17.1936    6.8494 C   0  0  2  0  0  0  0  0  0  0  0  0
   18.2730  -15.9583    6.3336 N   0  0  0  0  0  0  0  0  0  0  0  0
   17.9671  -18.2408    7.1368 C   0  0  0  0  0  0  0  0  0  0  0  0
   18.3497  -19.5632    7.2553 O   0  0  0  0  0  0  0  0  0  0  0  0
   16.7444  -17.9912    7.2856 O   0  0  0  0  0  0  0  0  0  0  0  0
  2  1  1  1
  2  3  1  0
  3  4  1  0
  4  5  2  0
  6  2  1  0
  7  6  2  0
  8  4  1  0
  9 10  1  0
 10 20  2  0
 10 11  1  0
 11 12  2  0
 12 13  1  0
 13 14  1  0
 15 14  1  6
 15 16  1  0
 16  6  1  0
 17 15  1  0
 17 27  1  0
 18 17  2  0
 19 13  2  0
 20 19  1  0
 22 21  1  0
 23 22  2  0
 24 22  1  0
 25 24  1  0
 26 27  1  0
 26 25  1  1
 28 26  1  0
 29 28  1  0
 30 28  2  0
M  END
$$$$
