DYQ.pdb
     RDKit          3D

 30 30  0  0  1  0  0  0  0  0999 V2000
   29.5989  -31.2578  -17.4209 N   0  0  0  0  0  0  0  0  0  0  0  0
   28.2139  -31.0798  -17.0282 C   0  0  1  0  0  0  0  0  0  0  0  0
   28.2001  -30.9958  -15.5133 C   0  0  0  0  0  0  0  0  0  0  0  0
   28.6227  -32.2844  -14.9062 C   0  0  0  0  0  0  0  0  0  0  0  0
   28.1301  -32.7078  -13.8188 O   0  0  0  0  0  0  0  0  0  0  0  0
   27.7340  -29.8175  -17.6433 C   0  0  0  0  0  0  0  0  0  0  0  0
   28.5280  -28.9759  -18.1348 O   0  0  0  0  0  0  0  0  0  0  0  0
   29.5803  -33.0937  -15.4982 O   0  0  0  0  0  0  0  0  0  0  0  0
   24.1132  -24.2685  -23.0220 O   0  0  0  0  0  0  0  0  0  0  0  0
   24.6254  -25.3208  -22.2422 C   0  0  0  0  0  0  0  0  0  0  0  0
   24.0525  -26.5587  -22.3114 C   0  0  0  0  0  0  0  0  0  0  0  0
   24.5767  -27.5860  -21.5299 C   0  0  0  0  0  0  0  0  0  0  0  0
   25.6496  -27.3903  -20.6947 C   0  0  0  0  0  0  0  0  0  0  0  0
   26.1670  -28.5006  -19.8930 C   0  0  0  0  0  0  0  0  0  0  0  0
   25.7731  -28.4284  -18.4307 C   0  0  2  0  0  0  0  0  0  0  0  0
   26.3331  -29.5376  -17.6852 N   0  0  0  0  0  0  0  0  0  0  0  0
   24.3091  -28.3497  -18.2198 C   0  0  0  0  0  0  0  0  0  0  0  0
   23.5854  -29.3378  -18.5588 O   0  0  0  0  0  0  0  0  0  0  0  0
   26.2333  -26.1455  -20.6188 C   0  0  0  0  0  0  0  0  0  0  0  0
   25.6928  -25.1245  -21.4118 C   0  0  0  0  0  0  0  0  0  0  0  0
   21.3659  -24.5804  -14.4299 N   0  0  0  0  0  0  0  0  0  0  0  0
   20.2739  -24.8156  -15.3049 C   0  0  0  0  0  0  0  0  0  0  0  0
   19.1109  -24.4670  -14.9186 O   0  0  0  0  0  0  0  0  0  0  0  0
   20.5300  -25.4402  -16.6095 C   0  0  0  0  0  0  0  0  0  0  0  0
   21.9247  -25.7791  -16.9205 C   0  0  0  0  0  0  0  0  0  0  0  0
   22.1854  -27.1553  -17.4699 C   0  0  2  0  0  0  0  0  0  0  0  0
   23.6512  -27.2438  -17.6613 N   0  0  0  0  0  0  0  0  0  0  0  0
   21.4323  -27.5921  -18.6116 C   0  0  0  0  0  0  0  0  0  0  0  0
   21.4733  -26.9261  -19.8216 O   0  0  0  0  0  0  0  0  0  0  0  0
   20.6917  -28.6055  -18.5498 O   0  0  0  0  0  0  0  0  0  0  0  0
  2  1  1  6
  2  3  1  0
  3  4  1  0
  4  5  2  0
  6  2  1  0
  7  6  2  0
  8  4  1  0
  9 10  1  0
 10 20  2  0
 10 11  1  0
 11 12  2  0
 12 13  1  0
 13 14  1  0
 15 14  1  6
 15 16  1  0
 16  6  1  0
 17 15  1  0
 17 27  1  0
 18 17  2  0
 19 13  2  0
 20 19  1  0
 22 21  1  0
 23 22  2  0
 24 22  1  0
 25 24  1  0
 26 27  1  0
 26 25  1  6
 28 26  1  0
 29 28  1  0
 30 28  2  0
M  END
$$$$
