DYQ.pdb
     RDKit          3D

 30 30  0  0  1  0  0  0  0  0999 V2000
   28.8150  -21.1422  -17.5231 N   0  0  0  0  0  0  0  0  0  0  0  0
   27.7204  -22.0516  -17.8043 C   0  0  1  0  0  0  0  0  0  0  0  0
   28.3473  -23.3669  -18.2274 C   0  0  0  0  0  0  0  0  0  0  0  0
   29.2559  -23.1734  -19.3869 C   0  0  0  0  0  0  0  0  0  0  0  0
   28.9992  -22.3452  -20.3103 O   0  0  0  0  0  0  0  0  0  0  0  0
   26.9351  -22.2050  -16.5546 C   0  0  0  0  0  0  0  0  0  0  0  0
   26.1905  -23.1985  -16.3573 O   0  0  0  0  0  0  0  0  0  0  0  0
   30.4353  -23.8900  -19.5207 O   0  0  0  0  0  0  0  0  0  0  0  0
   23.8578  -20.3075   -8.4462 O   0  0  0  0  0  0  0  0  0  0  0  0
   24.6124  -20.3471   -9.6323 C   0  0  0  0  0  0  0  0  0  0  0  0
   24.3566  -19.4508  -10.6305 C   0  0  0  0  0  0  0  0  0  0  0  0
   25.1169  -19.5089  -11.7964 C   0  0  0  0  0  0  0  0  0  0  0  0
   26.1131  -20.4386  -11.9702 C   0  0  0  0  0  0  0  0  0  0  0  0
   26.8869  -20.4607  -13.2128 C   0  0  0  0  0  0  0  0  0  0  0  0
   26.2200  -21.2400  -14.3293 C   0  0  2  0  0  0  0  0  0  0  0  0
   27.0176  -21.2033  -15.5385 N   0  0  0  0  0  0  0  0  0  0  0  0
   24.8349  -20.7962  -14.6094 C   0  0  0  0  0  0  0  0  0  0  0  0
   24.6542  -19.7356  -15.2859 O   0  0  0  0  0  0  0  0  0  0  0  0
   26.3778  -21.3460  -10.9690 C   0  0  0  0  0  0  0  0  0  0  0  0
   25.6031  -21.2726   -9.8037 C   0  0  0  0  0  0  0  0  0  0  0  0
   19.6555  -23.5801  -14.6347 N   0  0  0  0  0  0  0  0  0  0  0  0
   19.2258  -22.3655  -15.2293 C   0  0  0  0  0  0  0  0  0  0  0  0
   17.9733  -22.1765  -15.3674 O   0  0  0  0  0  0  0  0  0  0  0  0
   20.2344  -21.3843  -15.6508 C   0  0  0  0  0  0  0  0  0  0  0  0
   21.6377  -21.7120  -15.3676 C   0  0  0  0  0  0  0  0  0  0  0  0
   22.3118  -20.9327  -14.2712 C   0  0  2  0  0  0  0  0  0  0  0  0
   23.6865  -21.4749  -14.1754 N   0  0  0  0  0  0  0  0  0  0  0  0
   21.6505  -20.8228  -13.0015 C   0  0  0  0  0  0  0  0  0  0  0  0
   20.7851  -19.7866  -12.7075 O   0  0  0  0  0  0  0  0  0  0  0  0
   21.8430  -21.6721  -12.0954 O   0  0  0  0  0  0  0  0  0  0  0  0
  2  1  1  1
  2  3  1  0
  3  4  1  0
  4  5  2  0
  6  2  1  0
  7  6  2  0
  8  4  1  0
  9 10  1  0
 10 20  2  0
 10 11  1  0
 11 12  2  0
 12 13  1  0
 13 14  1  0
 15 14  1  1
 15 16  1  0
 16  6  1  0
 17 15  1  0
 17 27  1  0
 18 17  2  0
 19 13  2  0
 20 19  1  0
 22 21  1  0
 23 22  2  0
 24 22  1  0
 25 24  1  0
 26 27  1  0
 26 25  1  6
 28 26  1  0
 29 28  1  0
 30 28  2  0
M  END
$$$$
