DEK.pdb
     RDKit          3D

 27 26  0  0  1  0  0  0  0  0999 V2000
   27.0507  -15.8226  -20.2044 N   0  0  0  0  0  0  0  0  0  0  0  0
   26.2022  -15.6933  -19.0462 C   0  0  1  0  0  0  0  0  0  0  0  0
   25.1084  -14.7109  -19.3385 C   0  0  0  0  0  0  0  0  0  0  0  0
   25.6933  -13.3541  -19.4642 C   0  0  0  0  0  0  0  0  0  0  0  0
   26.7017  -13.0288  -18.8150 O   0  0  0  0  0  0  0  0  0  0  0  0
   25.7001  -17.0129  -18.6281 C   0  0  0  0  0  0  0  0  0  0  0  0
   24.6259  -17.4644  -19.1271 O   0  0  0  0  0  0  0  0  0  0  0  0
   25.1244  -12.4081  -20.3159 O   0  0  0  0  0  0  0  0  0  0  0  0
   26.3587  -17.8214  -17.6848 N   0  0  0  0  0  0  0  0  0  0  0  0
   25.9354  -19.1395  -17.2979 C   0  0  1  0  0  0  0  0  0  0  0  0
   27.0634  -20.0844  -17.0193 C   0  0  0  0  0  0  0  0  0  0  0  0
   26.5890  -21.4733  -16.6762 C   0  0  0  0  0  0  0  0  0  0  0  0
   27.7600  -22.3492  -16.5100 C   0  0  0  0  0  0  0  0  0  0  0  0
   28.9120  -21.8928  -16.6315 O   0  0  0  0  0  0  0  0  0  0  0  0
   25.0477  -19.0986  -16.0912 C   0  0  0  0  0  0  0  0  0  0  0  0
   25.4647  -18.5224  -15.0298 O   0  0  0  0  0  0  0  0  0  0  0  0
   27.5878  -23.6836  -16.2184 O   0  0  0  0  0  0  0  0  0  0  0  0
   23.7811  -19.6593  -16.0615 N   0  0  0  0  0  0  0  0  0  0  0  0
   22.8446  -19.5322  -14.8890 C   0  0  1  0  0  0  0  0  0  0  0  0
   21.5268  -20.0317  -15.3739 C   0  0  0  0  0  0  0  0  0  0  0  0
   20.3624  -20.1089  -14.5070 C   0  0  0  0  0  0  0  0  0  0  0  0
   19.0226  -20.4799  -14.9583 C   0  0  0  0  0  0  0  0  0  0  0  0
   17.9325  -20.4563  -13.9132 C   0  0  0  0  0  0  0  0  0  0  0  0
   16.6319  -20.6024  -14.5089 N   0  0  0  0  0  0  0  0  0  0  0  0
   23.4138  -20.3206  -13.8048 C   0  0  0  0  0  0  0  0  0  0  0  0
   24.0709  -21.5467  -14.0755 O   0  0  0  0  0  0  0  0  0  0  0  0
   23.3770  -20.0094  -12.6211 O   0  0  0  0  0  0  0  0  0  0  0  0
  2  1  1  6
  3  2  1  0
  4  3  1  0
  5  4  2  0
  6  7  2  0
  6  2  1  0
  8  4  1  0
  9  6  1  0
 10 11  1  1
 10  9  1  0
 11 12  1  0
 13 17  1  0
 13 12  1  0
 14 13  2  0
 15 18  1  0
 15 10  1  0
 16 15  2  0
 19 18  1  0
 19 20  1  6
 21 20  1  0
 22 21  1  0
 23 22  1  0
 24 23  1  0
 25 26  1  0
 25 19  1  0
 27 25  2  0
M  END
$$$$
