DEK.pdb
     RDKit          3D

 27 26  0  0  1  0  0  0  0  0999 V2000
   16.4696  -12.9868  -13.8889 N   0  0  0  0  0  0  0  0  0  0  0  0
   16.0124  -13.1008  -15.2512 C   0  0  1  0  0  0  0  0  0  0  0  0
   14.7673  -13.9346  -15.2895 C   0  0  0  0  0  0  0  0  0  0  0  0
   15.0659  -15.2807  -14.7440 C   0  0  0  0  0  0  0  0  0  0  0  0
   16.0686  -15.9141  -15.1149 O   0  0  0  0  0  0  0  0  0  0  0  0
   15.8348  -11.7656  -15.8462 C   0  0  0  0  0  0  0  0  0  0  0  0
   15.4203  -11.6584  -17.0394 O   0  0  0  0  0  0  0  0  0  0  0  0
   14.2264  -15.8698  -13.7994 O   0  0  0  0  0  0  0  0  0  0  0  0
   16.1046  -10.5733  -15.1514 N   0  0  0  0  0  0  0  0  0  0  0  0
   15.9895   -9.2546  -15.7117 C   0  0  1  0  0  0  0  0  0  0  0  0
   15.3179   -8.2658  -14.8095 C   0  0  0  0  0  0  0  0  0  0  0  0
   13.8623   -8.5822  -14.5787 C   0  0  0  0  0  0  0  0  0  0  0  0
   13.3016   -7.5917  -13.6457 C   0  0  0  0  0  0  0  0  0  0  0  0
   13.7545   -7.4853  -12.4908 O   0  0  0  0  0  0  0  0  0  0  0  0
   17.3286   -8.7039  -16.0985 C   0  0  0  0  0  0  0  0  0  0  0  0
   18.3446   -8.9661  -15.3696 O   0  0  0  0  0  0  0  0  0  0  0  0
   12.2689   -6.7741  -14.0459 O   0  0  0  0  0  0  0  0  0  0  0  0
   17.5294   -7.9143  -17.2190 N   0  0  0  0  0  0  0  0  0  0  0  0
   18.8518   -7.2801  -17.5610 C   0  0  1  0  0  0  0  0  0  0  0  0
   18.8352   -7.0932  -19.0396 C   0  0  0  0  0  0  0  0  0  0  0  0
   19.9171   -6.4287  -19.7473 C   0  0  0  0  0  0  0  0  0  0  0  0
   19.9569   -6.2337  -21.1954 C   0  0  0  0  0  0  0  0  0  0  0  0
   21.1553   -5.4932  -21.7396 C   0  0  0  0  0  0  0  0  0  0  0  0
   21.1556   -5.4811  -23.1775 N   0  0  0  0  0  0  0  0  0  0  0  0
   18.9322   -6.0360  -16.8082 C   0  0  0  0  0  0  0  0  0  0  0  0
   20.1875   -5.5282  -16.3903 O   0  0  0  0  0  0  0  0  0  0  0  0
   17.9694   -5.3517  -16.4852 O   0  0  0  0  0  0  0  0  0  0  0  0
  2  1  1  1
  3  2  1  0
  4  3  1  0
  5  4  2  0
  6  7  2  0
  6  2  1  0
  8  4  1  0
  9  6  1  0
 10 11  1  1
 10  9  1  0
 11 12  1  0
 13 17  1  0
 13 12  1  0
 14 13  2  0
 15 18  1  0
 15 10  1  0
 16 15  2  0
 19 18  1  0
 19 20  1  6
 21 20  1  0
 22 21  1  0
 23 22  1  0
 24 23  1  0
 25 26  1  0
 25 19  1  0
 27 25  2  0
M  END
$$$$
