DEK.pdb
     RDKit          3D

 27 26  0  0  1  0  0  0  0  0999 V2000
   14.5818  -19.1000    5.1190 N   0  0  0  0  0  0  0  0  0  0  0  0
   15.9290  -19.6058    5.2026 C   0  0  1  0  0  0  0  0  0  0  0  0
   16.6647  -19.2716    3.9401 C   0  0  0  0  0  0  0  0  0  0  0  0
   16.1352  -20.1042    2.8331 C   0  0  0  0  0  0  0  0  0  0  0  0
   16.2532  -21.3411    2.8491 O   0  0  0  0  0  0  0  0  0  0  0  0
   16.5941  -19.0963    6.4136 C   0  0  0  0  0  0  0  0  0  0  0  0
   16.4201  -17.8916    6.7674 O   0  0  0  0  0  0  0  0  0  0  0  0
   15.4907  -19.5177    1.7447 O   0  0  0  0  0  0  0  0  0  0  0  0
   17.4312  -19.8873    7.2203 N   0  0  0  0  0  0  0  0  0  0  0  0
   18.1054  -19.4245    8.4024 C   0  0  1  0  0  0  0  0  0  0  0  0
   18.6167  -20.5234    9.2819 C   0  0  0  0  0  0  0  0  0  0  0  0
   19.2119  -20.0112   10.5685 C   0  0  0  0  0  0  0  0  0  0  0  0
   19.7208  -21.1526   11.3457 C   0  0  0  0  0  0  0  0  0  0  0  0
   20.8913  -21.1556   11.7702 O   0  0  0  0  0  0  0  0  0  0  0  0
   19.2530  -18.5227    8.0619 C   0  0  0  0  0  0  0  0  0  0  0  0
   19.9576  -18.7743    7.0263 O   0  0  0  0  0  0  0  0  0  0  0  0
   18.9025  -22.2280   11.6089 O   0  0  0  0  0  0  0  0  0  0  0  0
   19.5980  -17.4149    8.8191 N   0  0  0  0  0  0  0  0  0  0  0  0
   20.7780  -16.5323    8.5084 C   0  0  1  0  0  0  0  0  0  0  0  0
   20.2178  -15.1621    8.3349 C   0  0  0  0  0  0  0  0  0  0  0  0
   21.0621  -14.0097    8.0660 C   0  0  0  0  0  0  0  0  0  0  0  0
   20.5588  -12.6616    7.8098 C   0  0  0  0  0  0  0  0  0  0  0  0
   21.5979  -11.5920    7.5709 C   0  0  0  0  0  0  0  0  0  0  0  0
   20.9919  -10.3552    7.1578 N   0  0  0  0  0  0  0  0  0  0  0  0
   21.7048  -16.6557    9.6250 C   0  0  0  0  0  0  0  0  0  0  0  0
   23.0486  -16.2251    9.4951 O   0  0  0  0  0  0  0  0  0  0  0  0
   21.4193  -17.1198   10.7216 O   0  0  0  0  0  0  0  0  0  0  0  0
  2  1  1  6
  3  2  1  0
  4  3  1  0
  5  4  2  0
  6  7  2  0
  6  2  1  0
  8  4  1  0
  9  6  1  0
 10 11  1  6
 10  9  1  0
 11 12  1  0
 13 17  1  0
 13 12  1  0
 14 13  2  0
 15 18  1  0
 15 10  1  0
 16 15  2  0
 19 18  1  0
 19 20  1  1
 21 20  1  0
 22 21  1  0
 23 22  1  0
 24 23  1  0
 25 26  1  0
 25 19  1  0
 27 25  2  0
M  END
$$$$
