DEK.pdb
     RDKit          3D

 27 26  0  0  1  0  0  0  0  0999 V2000
   17.8463  -12.2392  -16.9910 N   0  0  0  0  0  0  0  0  0  0  0  0
   17.3675  -11.6775  -15.7528 C   0  0  1  0  0  0  0  0  0  0  0  0
   17.4263  -12.7209  -14.6782 C   0  0  0  0  0  0  0  0  0  0  0  0
   16.4372  -13.7844  -14.9774 C   0  0  0  0  0  0  0  0  0  0  0  0
   15.5445  -13.6090  -15.8239 O   0  0  0  0  0  0  0  0  0  0  0  0
   18.1203  -10.4571  -15.4180 C   0  0  0  0  0  0  0  0  0  0  0  0
   17.9245   -9.8824  -14.3053 O   0  0  0  0  0  0  0  0  0  0  0  0
   16.4850  -15.0100  -14.3144 O   0  0  0  0  0  0  0  0  0  0  0  0
   19.0668   -9.8777  -16.2815 N   0  0  0  0  0  0  0  0  0  0  0  0
   19.8121   -8.6821  -15.9963 C   0  0  1  0  0  0  0  0  0  0  0  0
   21.2279   -8.7161  -16.4829 C   0  0  0  0  0  0  0  0  0  0  0  0
   22.1564   -9.4192  -15.5260 C   0  0  0  0  0  0  0  0  0  0  0  0
   23.4788   -9.5539  -16.1577 C   0  0  0  0  0  0  0  0  0  0  0  0
   24.4284   -8.8355  -15.7937 O   0  0  0  0  0  0  0  0  0  0  0  0
   19.1459   -7.4698  -16.5729 C   0  0  0  0  0  0  0  0  0  0  0  0
   18.5863   -7.5515  -17.7186 O   0  0  0  0  0  0  0  0  0  0  0  0
   23.6745  -10.4784  -17.1588 O   0  0  0  0  0  0  0  0  0  0  0  0
   19.1026   -6.2467  -15.9235 N   0  0  0  0  0  0  0  0  0  0  0  0
   18.2574   -5.0900  -16.3881 C   0  0  1  0  0  0  0  0  0  0  0  0
   16.8472   -5.4944  -16.1253 C   0  0  0  0  0  0  0  0  0  0  0  0
   15.7490   -4.5429  -16.1682 C   0  0  0  0  0  0  0  0  0  0  0  0
   14.3646   -4.8670  -15.8296 C   0  0  0  0  0  0  0  0  0  0  0  0
   13.3854   -3.7172  -15.8382 C   0  0  0  0  0  0  0  0  0  0  0  0
   12.0903   -4.1280  -15.3674 N   0  0  0  0  0  0  0  0  0  0  0  0
   18.6881   -3.9210  -15.6339 C   0  0  0  0  0  0  0  0  0  0  0  0
   18.4325   -2.6156  -16.1228 O   0  0  0  0  0  0  0  0  0  0  0  0
   19.2803   -3.9601  -14.5628 O   0  0  0  0  0  0  0  0  0  0  0  0
  2  1  1  6
  3  2  1  0
  4  3  1  0
  5  4  2  0
  6  7  2  0
  6  2  1  0
  8  4  1  0
  9  6  1  0
 10 11  1  6
 10  9  1  0
 11 12  1  0
 13 17  1  0
 13 12  1  0
 14 13  2  0
 15 18  1  0
 15 10  1  0
 16 15  2  0
 19 18  1  0
 19 20  1  1
 21 20  1  0
 22 21  1  0
 23 22  1  0
 24 23  1  0
 25 26  1  0
 25 19  1  0
 27 25  2  0
M  END
$$$$
