DEK.pdb
     RDKit          3D

 27 26  0  0  1  0  0  0  0  0999 V2000
   18.1817  -12.8975  -14.9013 N   0  0  0  0  0  0  0  0  0  0  0  0
   17.2742  -12.0339  -15.6145 C   0  0  1  0  0  0  0  0  0  0  0  0
   16.0296  -12.7955  -15.9576 C   0  0  0  0  0  0  0  0  0  0  0  0
   16.3820  -13.9295  -16.8457 C   0  0  0  0  0  0  0  0  0  0  0  0
   17.1876  -13.7845  -17.7806 O   0  0  0  0  0  0  0  0  0  0  0  0
   17.0104  -10.8120  -14.8362 C   0  0  0  0  0  0  0  0  0  0  0  0
   16.6517  -10.9033  -13.6238 O   0  0  0  0  0  0  0  0  0  0  0  0
   15.8163  -15.1892  -16.6526 O   0  0  0  0  0  0  0  0  0  0  0  0
   17.1364   -9.5181  -15.3721 N   0  0  0  0  0  0  0  0  0  0  0  0
   16.9566   -8.3019  -14.6274 C   0  0  1  0  0  0  0  0  0  0  0  0
   17.7462   -7.1432  -15.1532 C   0  0  0  0  0  0  0  0  0  0  0  0
   17.5704   -5.8949  -14.3268 C   0  0  0  0  0  0  0  0  0  0  0  0
   18.4427   -4.8395  -14.8663 C   0  0  0  0  0  0  0  0  0  0  0  0
   19.2483   -4.2462  -14.1251 O   0  0  0  0  0  0  0  0  0  0  0  0
   15.5137   -7.9007  -14.5719 C   0  0  0  0  0  0  0  0  0  0  0  0
   14.8787   -7.7047  -15.6631 O   0  0  0  0  0  0  0  0  0  0  0  0
   18.3727   -4.5005  -16.1987 O   0  0  0  0  0  0  0  0  0  0  0  0
   14.8193   -7.7276  -13.3855 N   0  0  0  0  0  0  0  0  0  0  0  0
   13.3364   -7.4731  -13.3216 C   0  0  1  0  0  0  0  0  0  0  0  0
   12.8515   -8.2313  -12.1336 C   0  0  0  0  0  0  0  0  0  0  0  0
   11.4721   -8.1594  -11.6805 C   0  0  0  0  0  0  0  0  0  0  0  0
   10.9543   -8.8545  -10.5036 C   0  0  0  0  0  0  0  0  0  0  0  0
    9.4683   -8.7424  -10.2583 C   0  0  0  0  0  0  0  0  0  0  0  0
    9.0843   -9.4175   -9.0482 N   0  0  0  0  0  0  0  0  0  0  0  0
   13.1582   -6.0315  -13.2166 C   0  0  0  0  0  0  0  0  0  0  0  0
   14.1608   -5.2243  -12.6239 O   0  0  0  0  0  0  0  0  0  0  0  0
   12.1744   -5.4188  -13.6117 O   0  0  0  0  0  0  0  0  0  0  0  0
  2  1  1  1
  3  2  1  0
  4  3  1  0
  5  4  2  0
  6  7  2  0
  6  2  1  0
  8  4  1  0
  9  6  1  0
 10 11  1  6
 10  9  1  0
 11 12  1  0
 13 17  1  0
 13 12  1  0
 14 13  2  0
 15 18  1  0
 15 10  1  0
 16 15  2  0
 19 18  1  0
 19 20  1  1
 21 20  1  0
 22 21  1  0
 23 22  1  0
 24 23  1  0
 25 26  1  0
 25 19  1  0
 27 25  2  0
M  END
$$$$
