SWP.pdb
     RDKit          3D

 28 30  0  0  1  0  0  0  0  0999 V2000
    7.1099  -22.4650   21.9521 O   0  0  0  0  0  0  0  0  0  0  0  0
    7.2495  -21.6365   23.0522 C   0  0  0  0  0  0  0  0  0  0  0  0
    5.9296  -21.0953   23.5452 C   0  0  2  0  0  0  0  0  0  0  0  0
    4.8114  -21.4115   22.7084 N   0  0  0  0  0  0  0  0  0  0  0  0
    6.0563  -19.6270   23.7071 C   0  0  0  0  0  0  0  0  0  0  0  0
    5.5244  -18.8592   22.8341 O   0  0  0  0  0  0  0  0  0  0  0  0
    6.7275  -18.9810   24.7629 N   0  0  0  0  0  0  0  0  0  0  0  0
    6.9693  -17.5391   24.8185 C   0  0  1  0  0  0  0  0  0  0  0  0
    6.8776  -17.0016   26.2035 C   0  0  0  0  0  0  0  0  0  0  0  0
    6.8028  -15.5326   26.3244 C   0  0  0  0  0  0  0  0  0  0  0  0
    5.6670  -14.7628   26.0444 C   0  0  0  0  0  0  0  0  0  0  0  0
    5.9450  -13.4658   26.2349 N   0  0  0  0  0  0  0  0  0  0  0  0
    7.2247  -13.3348   26.6333 C   0  0  0  0  0  0  0  0  0  0  0  0
    7.9889  -12.2419   26.9638 C   0  0  0  0  0  0  0  0  0  0  0  0
    9.2938  -12.4570   27.3519 C   0  0  0  0  0  0  0  0  0  0  0  0
    9.8545  -13.7066   27.4207 C   0  0  0  0  0  0  0  0  0  0  0  0
    9.0707  -14.7855   27.0848 C   0  0  0  0  0  0  0  0  0  0  0  0
    7.7649  -14.6189   26.6915 C   0  0  0  0  0  0  0  0  0  0  0  0
    8.1491  -17.1854   24.0448 C   0  0  0  0  0  0  0  0  0  0  0  0
    9.1073  -18.0333   24.0154 O   0  0  0  0  0  0  0  0  0  0  0  0
    8.3310  -15.9888   23.3187 N   0  0  0  0  0  0  0  0  0  0  0  0
    7.5768  -14.7528   23.3848 C   0  0  0  0  0  0  0  0  0  0  0  0
    7.7272  -14.0721   22.0308 C   0  0  0  0  0  0  0  0  0  0  0  0
    8.6657  -14.9377   21.2297 C   0  0  0  0  0  0  0  0  0  0  0  0
    9.3452  -15.7612   22.3117 C   0  0  1  0  0  0  0  0  0  0  0  0
   10.5237  -15.0199   22.7869 C   0  0  0  0  0  0  0  0  0  0  0  0
   10.6744  -14.5745   24.0654 O   0  0  0  0  0  0  0  0  0  0  0  0
   11.4333  -14.7945   21.9488 O   0  0  0  0  0  0  0  0  0  0  0  0
  2  1  1  0
  3  4  1  6
  3  2  1  0
  5  3  1  0
  6  5  2  0
  7  5  1  0
  8  7  1  0
  9 10  1  0
  8  9  1  1
 10 18  1  0
 11 12  1  0
 11 10  2  0
 12 13  1  0
 13 18  2  0
 13 14  1  0
 14 15  2  0
 15 16  1  0
 17 16  2  0
 18 17  1  0
 19 21  1  0
 19  8  1  0
 20 19  2  0
 21 25  1  0
 22 23  1  0
 22 21  1  0
 23 24  1  0
 24 25  1  0
 25 26  1  1
 26 27  1  0
 28 26  2  0
M  END
$$$$
