SWP.pdb
     RDKit          3D

 28 30  0  0  1  0  0  0  0  0999 V2000
    7.6316  -21.5685   22.8815 O   0  0  0  0  0  0  0  0  0  0  0  0
    6.9267  -21.4199   24.0636 C   0  0  0  0  0  0  0  0  0  0  0  0
    5.9177  -20.2990   24.0032 C   0  0  2  0  0  0  0  0  0  0  0  0
    4.8909  -20.4801   23.0216 N   0  0  0  0  0  0  0  0  0  0  0  0
    6.6430  -19.0280   23.7654 C   0  0  0  0  0  0  0  0  0  0  0  0
    6.5323  -18.4548   22.6280 O   0  0  0  0  0  0  0  0  0  0  0  0
    7.4663  -18.3749   24.7027 N   0  0  0  0  0  0  0  0  0  0  0  0
    8.2519  -17.1765   24.4070 C   0  0  1  0  0  0  0  0  0  0  0  0
    8.4575  -16.3225   25.6087 C   0  0  0  0  0  0  0  0  0  0  0  0
    7.3908  -15.3447   25.8984 C   0  0  0  0  0  0  0  0  0  0  0  0
    6.0329  -15.6582   26.0362 C   0  0  0  0  0  0  0  0  0  0  0  0
    5.3352  -14.5389   26.2736 N   0  0  0  0  0  0  0  0  0  0  0  0
    6.1729  -13.4850   26.3016 C   0  0  0  0  0  0  0  0  0  0  0  0
    5.9722  -12.1423   26.5124 C   0  0  0  0  0  0  0  0  0  0  0  0
    7.0711  -11.3109   26.4873 C   0  0  0  0  0  0  0  0  0  0  0  0
    8.3450  -11.7661   26.2624 C   0  0  0  0  0  0  0  0  0  0  0  0
    8.5218  -13.1139   26.0536 C   0  0  0  0  0  0  0  0  0  0  0  0
    7.4555  -13.9801   26.0690 C   0  0  0  0  0  0  0  0  0  0  0  0
    9.4288  -17.5139   23.6218 C   0  0  0  0  0  0  0  0  0  0  0  0
    9.9289  -18.6805   23.7859 O   0  0  0  0  0  0  0  0  0  0  0  0
   10.0686  -16.6688   22.6899 N   0  0  0  0  0  0  0  0  0  0  0  0
    9.7449  -15.3067   22.3146 C   0  0  0  0  0  0  0  0  0  0  0  0
   10.2669  -15.1041   20.8984 C   0  0  0  0  0  0  0  0  0  0  0  0
   10.9706  -16.3836   20.5252 C   0  0  0  0  0  0  0  0  0  0  0  0
   11.2164  -17.0223   21.8826 C   0  0  1  0  0  0  0  0  0  0  0  0
   12.5030  -16.5309   22.3999 C   0  0  0  0  0  0  0  0  0  0  0  0
   12.6354  -15.8284   23.5595 O   0  0  0  0  0  0  0  0  0  0  0  0
   13.5278  -16.7843   21.7171 O   0  0  0  0  0  0  0  0  0  0  0  0
  2  1  1  0
  3  4  1  6
  3  2  1  0
  5  3  1  0
  6  5  2  0
  7  5  1  0
  8  7  1  0
  9 10  1  0
  8  9  1  1
 10 18  1  0
 11 12  1  0
 11 10  2  0
 12 13  1  0
 13 18  2  0
 13 14  1  0
 14 15  2  0
 15 16  1  0
 17 16  2  0
 18 17  1  0
 19 21  1  0
 19  8  1  0
 20 19  2  0
 21 25  1  0
 22 23  1  0
 22 21  1  0
 23 24  1  0
 24 25  1  0
 25 26  1  1
 26 27  1  0
 28 26  2  0
M  END
$$$$
