SWP.pdb
     RDKit          3D

 28 30  0  0  1  0  0  0  0  0999 V2000
    6.2979  -20.7050   21.1323 O   0  0  0  0  0  0  0  0  0  0  0  0
    5.8701  -21.1756   22.3618 C   0  0  0  0  0  0  0  0  0  0  0  0
    4.8072  -20.3019   22.9823 C   0  0  2  0  0  0  0  0  0  0  0  0
    3.5796  -20.2515   22.2468 N   0  0  0  0  0  0  0  0  0  0  0  0
    5.3635  -18.9385   23.1551 C   0  0  0  0  0  0  0  0  0  0  0  0
    4.9670  -18.0043   22.3776 O   0  0  0  0  0  0  0  0  0  0  0  0
    6.3155  -18.5662   24.1236 N   0  0  0  0  0  0  0  0  0  0  0  0
    6.8693  -17.2180   24.2510 C   0  0  1  0  0  0  0  0  0  0  0  0
    7.1389  -16.8471   25.6671 C   0  0  0  0  0  0  0  0  0  0  0  0
    6.7362  -15.4849   26.0676 C   0  0  0  0  0  0  0  0  0  0  0  0
    5.4130  -15.0563   26.2304 C   0  0  0  0  0  0  0  0  0  0  0  0
    5.3993  -13.7616   26.5760 N   0  0  0  0  0  0  0  0  0  0  0  0
    6.6635  -13.3040   26.6528 C   0  0  0  0  0  0  0  0  0  0  0  0
    7.1906  -12.0758   26.9707 C   0  0  0  0  0  0  0  0  0  0  0  0
    8.5620  -11.9388   26.9685 C   0  0  0  0  0  0  0  0  0  0  0  0
    9.4135  -12.9699   26.6643 C   0  0  0  0  0  0  0  0  0  0  0  0
    8.8632  -14.1901   26.3488 C   0  0  0  0  0  0  0  0  0  0  0  0
    7.5016  -14.3729   26.3376 C   0  0  0  0  0  0  0  0  0  0  0  0
    7.9442  -17.0110   23.2933 C   0  0  0  0  0  0  0  0  0  0  0  0
    8.5955  -18.0439   22.9100 O   0  0  0  0  0  0  0  0  0  0  0  0
    8.3324  -15.7699   22.7446 N   0  0  0  0  0  0  0  0  0  0  0  0
    7.8961  -14.4340   23.0996 C   0  0  0  0  0  0  0  0  0  0  0  0
    8.0759  -13.5678   21.8600 C   0  0  0  0  0  0  0  0  0  0  0  0
    8.7094  -14.4546   20.8188 C   0  0  0  0  0  0  0  0  0  0  0  0
    9.2748  -15.5861   21.6619 C   0  0  1  0  0  0  0  0  0  0  0  0
   10.6321  -15.2123   22.0889 C   0  0  0  0  0  0  0  0  0  0  0  0
   11.6938  -15.1149   21.2410 O   0  0  0  0  0  0  0  0  0  0  0  0
   10.8009  -14.9730   23.3115 O   0  0  0  0  0  0  0  0  0  0  0  0
  2  1  1  0
  3  4  1  6
  3  2  1  0
  5  3  1  0
  6  5  2  0
  7  5  1  0
  8  7  1  0
  9 10  1  0
  8  9  1  1
 10 18  1  0
 11 12  1  0
 11 10  2  0
 12 13  1  0
 13 18  2  0
 13 14  1  0
 14 15  2  0
 15 16  1  0
 17 16  2  0
 18 17  1  0
 19 21  1  0
 19  8  1  0
 20 19  2  0
 21 25  1  0
 22 23  1  0
 22 21  1  0
 23 24  1  0
 24 25  1  0
 25 26  1  1
 26 27  1  0
 28 26  2  0
M  END
$$$$
