SWP.pdb
     RDKit          3D

 28 30  0  0  1  0  0  0  0  0999 V2000
   12.6902  -17.5363   21.8254 O   0  0  0  0  0  0  0  0  0  0  0  0
   11.4018  -17.9968   21.6151 C   0  0  0  0  0  0  0  0  0  0  0  0
   10.4026  -16.8775   21.4510 C   0  0  2  0  0  0  0  0  0  0  0  0
   10.7750  -15.8897   20.4833 N   0  0  0  0  0  0  0  0  0  0  0  0
   10.1826  -16.2480   22.7751 C   0  0  0  0  0  0  0  0  0  0  0  0
   10.7811  -15.1514   23.0471 O   0  0  0  0  0  0  0  0  0  0  0  0
    9.3522  -16.7604   23.7904 N   0  0  0  0  0  0  0  0  0  0  0  0
    9.1935  -16.1430   25.1073 C   0  0  1  0  0  0  0  0  0  0  0  0
    7.8438  -16.3830   25.6872 C   0  0  0  0  0  0  0  0  0  0  0  0
    6.8513  -15.3100   25.4834 C   0  0  0  0  0  0  0  0  0  0  0  0
    5.5215  -15.5126   25.0939 C   0  0  0  0  0  0  0  0  0  0  0  0
    4.9017  -14.3300   24.9793 N   0  0  0  0  0  0  0  0  0  0  0  0
    5.7644  -13.3401   25.2781 C   0  0  0  0  0  0  0  0  0  0  0  0
    5.6330  -11.9732   25.3222 C   0  0  0  0  0  0  0  0  0  0  0  0
    6.7335  -11.2276   25.6864 C   0  0  0  0  0  0  0  0  0  0  0  0
    7.9431  -11.7905   26.0035 C   0  0  0  0  0  0  0  0  0  0  0  0
    8.0513  -13.1606   25.9521 C   0  0  0  0  0  0  0  0  0  0  0  0
    6.9810  -13.9439   25.5936 C   0  0  0  0  0  0  0  0  0  0  0  0
   10.3413  -16.4323   25.9524 C   0  0  0  0  0  0  0  0  0  0  0  0
   11.2632  -17.1696   25.4579 O   0  0  0  0  0  0  0  0  0  0  0  0
   10.5319  -15.9686   27.2718 N   0  0  0  0  0  0  0  0  0  0  0  0
    9.7095  -15.0673   28.0544 C   0  0  0  0  0  0  0  0  0  0  0  0
   10.6283  -14.4040   29.0719 C   0  0  0  0  0  0  0  0  0  0  0  0
   11.9851  -15.0325   28.8821 C   0  0  0  0  0  0  0  0  0  0  0  0
   11.6449  -16.3098   28.1315 C   0  0  1  0  0  0  0  0  0  0  0  0
   11.3563  -17.3635   29.1169 C   0  0  0  0  0  0  0  0  0  0  0  0
   12.3021  -17.9387   29.9106 O   0  0  0  0  0  0  0  0  0  0  0  0
   10.1612  -17.7410   29.2165 O   0  0  0  0  0  0  0  0  0  0  0  0
  2  1  1  0
  3  4  1  6
  3  2  1  0
  5  3  1  0
  6  5  2  0
  7  5  1  0
  8  7  1  0
  9 10  1  0
  8  9  1  1
 10 18  1  0
 11 12  1  0
 11 10  2  0
 12 13  1  0
 13 18  2  0
 13 14  1  0
 14 15  2  0
 15 16  1  0
 17 16  2  0
 18 17  1  0
 19 21  1  0
 19  8  1  0
 20 19  2  0
 21 25  1  0
 22 23  1  0
 22 21  1  0
 23 24  1  0
 24 25  1  0
 25 26  1  1
 26 27  1  0
 28 26  2  0
M  END
$$$$
