SWP.pdb
     RDKit          3D

 28 30  0  0  1  0  0  0  0  0999 V2000
    7.2296  -20.1779   21.4585 O   0  0  0  0  0  0  0  0  0  0  0  0
    6.9599  -20.4146   22.7954 C   0  0  0  0  0  0  0  0  0  0  0  0
    5.9346  -19.4619   23.3605 C   0  0  2  0  0  0  0  0  0  0  0  0
    4.5895  -19.7281   22.9478 N   0  0  0  0  0  0  0  0  0  0  0  0
    6.3255  -18.0802   22.9917 C   0  0  0  0  0  0  0  0  0  0  0  0
    5.6406  -17.4568   22.1103 O   0  0  0  0  0  0  0  0  0  0  0  0
    7.4124  -17.3703   23.5372 N   0  0  0  0  0  0  0  0  0  0  0  0
    7.7592  -15.9967   23.1715 C   0  0  1  0  0  0  0  0  0  0  0  0
    8.3611  -15.2428   24.3050 C   0  0  0  0  0  0  0  0  0  0  0  0
    7.4111  -14.6648   25.2754 C   0  0  0  0  0  0  0  0  0  0  0  0
    6.3896  -15.3762   25.9170 C   0  0  0  0  0  0  0  0  0  0  0  0
    5.6989  -14.5497   26.7144 N   0  0  0  0  0  0  0  0  0  0  0  0
    6.2183  -13.3099   26.6338 C   0  0  0  0  0  0  0  0  0  0  0  0
    5.8922  -12.1231   27.2444 C   0  0  0  0  0  0  0  0  0  0  0  0
    6.6497  -11.0110   26.9459 C   0  0  0  0  0  0  0  0  0  0  0  0
    7.7060  -11.0416   26.0718 C   0  0  0  0  0  0  0  0  0  0  0  0
    8.0137  -12.2404   25.4723 C   0  0  0  0  0  0  0  0  0  0  0  0
    7.2858  -13.3747   25.7391 C   0  0  0  0  0  0  0  0  0  0  0  0
    8.4678  -15.9660   21.9017 C   0  0  0  0  0  0  0  0  0  0  0  0
    9.0777  -17.0329   21.5442 O   0  0  0  0  0  0  0  0  0  0  0  0
    8.5407  -14.8629   21.0243 N   0  0  0  0  0  0  0  0  0  0  0  0
    8.0359  -13.5158   21.2016 C   0  0  0  0  0  0  0  0  0  0  0  0
    7.7854  -12.9524   19.8090 C   0  0  0  0  0  0  0  0  0  0  0  0
    8.2492  -14.0101   18.8406 C   0  0  0  0  0  0  0  0  0  0  0  0
    9.1503  -14.8700   19.7119 C   0  0  1  0  0  0  0  0  0  0  0  0
   10.5103  -14.3108   19.6658 C   0  0  0  0  0  0  0  0  0  0  0  0
   11.1479  -13.7782   20.7454 O   0  0  0  0  0  0  0  0  0  0  0  0
   11.1010  -14.3351   18.5563 O   0  0  0  0  0  0  0  0  0  0  0  0
  2  1  1  0
  3  4  1  6
  3  2  1  0
  5  3  1  0
  6  5  2  0
  7  5  1  0
  8  7  1  0
  9 10  1  0
  8  9  1  1
 10 18  1  0
 11 12  1  0
 11 10  2  0
 12 13  1  0
 13 18  2  0
 13 14  1  0
 14 15  2  0
 15 16  1  0
 17 16  2  0
 18 17  1  0
 19 21  1  0
 19  8  1  0
 20 19  2  0
 21 25  1  0
 22 23  1  0
 22 21  1  0
 23 24  1  0
 24 25  1  0
 25 26  1  1
 26 27  1  0
 28 26  2  0
M  END
$$$$
