SWP.pdb
     RDKit          3D

 28 30  0  0  1  0  0  0  0  0999 V2000
    8.3802  -19.7736   19.7122 O   0  0  0  0  0  0  0  0  0  0  0  0
    7.0193  -19.5657   19.8570 C   0  0  0  0  0  0  0  0  0  0  0  0
    6.6407  -18.1070   19.7744 C   0  0  2  0  0  0  0  0  0  0  0  0
    6.9564  -17.4841   18.5241 N   0  0  0  0  0  0  0  0  0  0  0  0
    7.2988  -17.3881   20.8916 C   0  0  0  0  0  0  0  0  0  0  0  0
    8.3866  -16.7553   20.6661 O   0  0  0  0  0  0  0  0  0  0  0  0
    6.8237  -17.3363   22.2162 N   0  0  0  0  0  0  0  0  0  0  0  0
    7.4756  -16.5875   23.2908 C   0  0  1  0  0  0  0  0  0  0  0  0
    6.5389  -16.2529   24.3981 C   0  0  0  0  0  0  0  0  0  0  0  0
    7.0912  -15.4203   25.4842 C   0  0  0  0  0  0  0  0  0  0  0  0
    7.8301  -15.9069   26.5697 C   0  0  0  0  0  0  0  0  0  0  0  0
    8.1595  -14.8919   27.3803 N   0  0  0  0  0  0  0  0  0  0  0  0
    7.6707  -13.7411   26.8801 C   0  0  0  0  0  0  0  0  0  0  0  0
    7.7340  -12.4382   27.3113 C   0  0  0  0  0  0  0  0  0  0  0  0
    7.1233  -11.4707   26.5427 C   0  0  0  0  0  0  0  0  0  0  0  0
    6.4612  -11.7542   25.3757 C   0  0  0  0  0  0  0  0  0  0  0  0
    6.4104  -13.0654   24.9640 C   0  0  0  0  0  0  0  0  0  0  0  0
    7.0042  -14.0631   25.6985 C   0  0  0  0  0  0  0  0  0  0  0  0
    8.7408  -17.2061   23.6543 C   0  0  0  0  0  0  0  0  0  0  0  0
    8.8061  -18.4832   23.6016 O   0  0  0  0  0  0  0  0  0  0  0  0
    9.9075  -16.5221   24.0580 N   0  0  0  0  0  0  0  0  0  0  0  0
   10.0900  -15.1139   24.3491 C   0  0  0  0  0  0  0  0  0  0  0  0
   11.5576  -14.7978   24.0930 C   0  0  0  0  0  0  0  0  0  0  0  0
   12.2091  -16.1063   23.7256 C   0  0  0  0  0  0  0  0  0  0  0  0
   11.2096  -17.1221   24.2546 C   0  0  1  0  0  0  0  0  0  0  0  0
   11.5435  -17.4136   25.6575 C   0  0  0  0  0  0  0  0  0  0  0  0
   12.6909  -18.0337   26.0506 O   0  0  0  0  0  0  0  0  0  0  0  0
   10.7081  -17.0621   26.5287 O   0  0  0  0  0  0  0  0  0  0  0  0
  2  1  1  0
  3  4  1  6
  3  2  1  0
  5  3  1  0
  6  5  2  0
  7  5  1  0
  8  7  1  0
  9 10  1  0
  8  9  1  1
 10 18  1  0
 11 12  1  0
 11 10  2  0
 12 13  1  0
 13 18  2  0
 13 14  1  0
 14 15  2  0
 15 16  1  0
 17 16  2  0
 18 17  1  0
 19 21  1  0
 19  8  1  0
 20 19  2  0
 21 25  1  0
 22 23  1  0
 22 21  1  0
 23 24  1  0
 24 25  1  0
 25 26  1  1
 26 27  1  0
 28 26  2  0
M  END
$$$$
