SWP.pdb
     RDKit          3D

 28 30  0  0  1  0  0  0  0  0999 V2000
    8.4849  -20.6816   20.7865 O   0  0  0  0  0  0  0  0  0  0  0  0
    7.2539  -20.4417   21.3724 C   0  0  0  0  0  0  0  0  0  0  0  0
    6.7400  -19.0491   21.0992 C   0  0  2  0  0  0  0  0  0  0  0  0
    6.8771  -18.6247   19.7384 N   0  0  0  0  0  0  0  0  0  0  0  0
    7.4354  -18.1064   22.0080 C   0  0  0  0  0  0  0  0  0  0  0  0
    8.4395  -17.4485   21.5682 O   0  0  0  0  0  0  0  0  0  0  0  0
    7.0828  -17.8615   23.3491 N   0  0  0  0  0  0  0  0  0  0  0  0
    7.8032  -16.9418   24.2299 C   0  0  1  0  0  0  0  0  0  0  0  0
    6.9307  -16.3763   25.2951 C   0  0  0  0  0  0  0  0  0  0  0  0
    7.3459  -15.0724   25.8478 C   0  0  0  0  0  0  0  0  0  0  0  0
    6.9147  -13.8275   25.3731 C   0  0  0  0  0  0  0  0  0  0  0  0
    7.4978  -12.8502   26.0808 N   0  0  0  0  0  0  0  0  0  0  0  0
    8.3039  -13.3913   27.0140 C   0  0  0  0  0  0  0  0  0  0  0  0
    9.1064  -12.8396   27.9831 C   0  0  0  0  0  0  0  0  0  0  0  0
    9.8107  -13.6932   28.8047 C   0  0  0  0  0  0  0  0  0  0  0  0
    9.7430  -15.0585   28.6943 C   0  0  0  0  0  0  0  0  0  0  0  0
    8.9335  -15.5881   27.7168 C   0  0  0  0  0  0  0  0  0  0  0  0
    8.2136  -14.7757   26.8746 C   0  0  0  0  0  0  0  0  0  0  0  0
    9.0728  -17.5168   24.6459 C   0  0  0  0  0  0  0  0  0  0  0  0
    9.0680  -18.7406   25.0206 O   0  0  0  0  0  0  0  0  0  0  0  0
   10.3139  -16.8451   24.6704 N   0  0  0  0  0  0  0  0  0  0  0  0
   10.5961  -15.4342   24.4957 C   0  0  0  0  0  0  0  0  0  0  0  0
   12.0217  -15.3319   23.9698 C   0  0  0  0  0  0  0  0  0  0  0  0
   12.5565  -16.7407   23.9351 C   0  0  0  0  0  0  0  0  0  0  0  0
   11.6045  -17.4684   24.8705 C   0  0  1  0  0  0  0  0  0  0  0  0
   12.1295  -17.3621   26.2407 C   0  0  0  0  0  0  0  0  0  0  0  0
   12.1161  -16.2121   26.9706 O   0  0  0  0  0  0  0  0  0  0  0  0
   12.6145  -18.4045   26.7493 O   0  0  0  0  0  0  0  0  0  0  0  0
  2  1  1  0
  3  4  1  6
  3  2  1  0
  5  3  1  0
  6  5  2  0
  7  5  1  0
  8  7  1  0
  9 10  1  0
  8  9  1  1
 10 18  1  0
 11 12  1  0
 11 10  2  0
 12 13  1  0
 13 18  2  0
 13 14  1  0
 14 15  2  0
 15 16  1  0
 17 16  2  0
 18 17  1  0
 19 21  1  0
 19  8  1  0
 20 19  2  0
 21 25  1  0
 22 23  1  0
 22 21  1  0
 23 24  1  0
 24 25  1  0
 25 26  1  1
 26 27  1  0
 28 26  2  0
M  END
$$$$
