SWP.pdb
     RDKit          3D

 28 30  0  0  1  0  0  0  0  0999 V2000
    7.5660  -21.3612   22.1551 O   0  0  0  0  0  0  0  0  0  0  0  0
    6.8428  -21.4314   23.3333 C   0  0  0  0  0  0  0  0  0  0  0  0
    5.6517  -20.5044   23.3419 C   0  0  2  0  0  0  0  0  0  0  0  0
    4.8322  -20.5839   22.1702 N   0  0  0  0  0  0  0  0  0  0  0  0
    6.1383  -19.1181   23.5403 C   0  0  0  0  0  0  0  0  0  0  0  0
    6.2761  -18.3579   22.5216 O   0  0  0  0  0  0  0  0  0  0  0  0
    6.4728  -18.5444   24.7819 N   0  0  0  0  0  0  0  0  0  0  0  0
    7.0174  -17.1956   24.9402 C   0  0  1  0  0  0  0  0  0  0  0  0
    6.8331  -16.6678   26.3197 C   0  0  0  0  0  0  0  0  0  0  0  0
    7.1751  -15.2463   26.5202 C   0  0  0  0  0  0  0  0  0  0  0  0
    6.3276  -14.1700   26.2297 C   0  0  0  0  0  0  0  0  0  0  0  0
    6.9533  -13.0178   26.5070 N   0  0  0  0  0  0  0  0  0  0  0  0
    8.1891  -13.2790   26.9738 C   0  0  0  0  0  0  0  0  0  0  0  0
    9.2122  -12.4685   27.4027 C   0  0  0  0  0  0  0  0  0  0  0  0
   10.3735  -13.0676   27.8408 C   0  0  0  0  0  0  0  0  0  0  0  0
   10.5470  -14.4277   27.8655 C   0  0  0  0  0  0  0  0  0  0  0  0
    9.5095  -15.2191   27.4311 C   0  0  0  0  0  0  0  0  0  0  0  0
    8.3337  -14.6658   26.9851 C   0  0  0  0  0  0  0  0  0  0  0  0
    8.3520  -17.1096   24.3682 C   0  0  0  0  0  0  0  0  0  0  0  0
    9.1181  -18.1249   24.5109 O   0  0  0  0  0  0  0  0  0  0  0  0
    8.8783  -16.0049   23.6650 N   0  0  0  0  0  0  0  0  0  0  0  0
    8.3872  -14.6428   23.5975 C   0  0  0  0  0  0  0  0  0  0  0  0
    8.8736  -14.0641   22.2755 C   0  0  0  0  0  0  0  0  0  0  0  0
    9.7282  -15.1314   21.6412 C   0  0  0  0  0  0  0  0  0  0  0  0
   10.0572  -16.0252   22.8259 C   0  0  1  0  0  0  0  0  0  0  0  0
   11.2757  -15.5109   23.4702 C   0  0  0  0  0  0  0  0  0  0  0  0
   12.5191  -15.6003   22.9212 O   0  0  0  0  0  0  0  0  0  0  0  0
   11.1400  -14.9605   24.5924 O   0  0  0  0  0  0  0  0  0  0  0  0
  2  1  1  0
  3  4  1  6
  3  2  1  0
  5  3  1  0
  6  5  2  0
  7  5  1  0
  8  7  1  0
  9 10  1  0
  8  9  1  1
 10 18  1  0
 11 12  1  0
 11 10  2  0
 12 13  1  0
 13 18  2  0
 13 14  1  0
 14 15  2  0
 15 16  1  0
 17 16  2  0
 18 17  1  0
 19 21  1  0
 19  8  1  0
 20 19  2  0
 21 25  1  0
 22 23  1  0
 22 21  1  0
 23 24  1  0
 24 25  1  0
 25 26  1  1
 26 27  1  0
 28 26  2  0
M  END
$$$$
