HEF.pdb
     RDKit          3D

 31 32  0  0  1  0  0  0  0  0999 V2000
   23.5605  -14.4470  -20.4984 N   0  0  0  0  0  0  0  0  0  0  0  0
   23.1245  -14.1981  -19.1490 C   0  0  1  0  0  0  0  0  0  0  0  0
   24.1534  -14.7234  -18.1970 C   0  0  0  0  0  0  0  0  0  0  0  0
   24.0880  -16.2068  -18.2519 C   0  0  0  0  0  0  0  0  0  0  0  0
   24.5992  -17.0538  -19.2129 C   0  0  0  0  0  0  0  0  0  0  0  0
   24.3017  -18.3299  -18.8464 N   0  0  0  0  0  0  0  0  0  0  0  0
   23.6261  -18.2878  -17.6943 C   0  0  0  0  0  0  0  0  0  0  0  0
   23.5004  -17.0053  -17.3403 N   0  0  0  0  0  0  0  0  0  0  0  0
   22.8224  -12.7545  -18.9551 C   0  0  0  0  0  0  0  0  0  0  0  0
   23.5589  -11.8855  -19.4800 O   0  0  0  0  0  0  0  0  0  0  0  0
   21.7224  -12.3370  -18.1907 N   0  0  0  0  0  0  0  0  0  0  0  0
   21.2991  -10.9815  -17.9765 C   0  0  1  0  0  0  0  0  0  0  0  0
   19.7946  -10.8811  -18.0130 C   0  0  0  0  0  0  0  0  0  0  0  0
   19.3070   -9.4574  -17.8674 C   0  0  0  0  0  0  0  0  0  0  0  0
   17.8321   -9.4701  -17.8432 C   0  0  0  0  0  0  0  0  0  0  0  0
   17.2138   -8.5921  -17.2095 O   0  0  0  0  0  0  0  0  0  0  0  0
   21.7444  -10.4816  -16.6318 C   0  0  0  0  0  0  0  0  0  0  0  0
   21.6257  -11.2060  -15.6040 O   0  0  0  0  0  0  0  0  0  0  0  0
   17.1659  -10.4651  -18.5293 O   0  0  0  0  0  0  0  0  0  0  0  0
   22.3072   -9.1864  -16.4812 N   0  0  0  0  0  0  0  0  0  0  0  0
   22.7283   -8.7118  -15.1497 C   0  0  1  0  0  0  0  0  0  0  0  0
   24.0613   -8.0703  -15.3506 C   0  0  0  0  0  0  0  0  0  0  0  0
   25.0409   -9.0977  -15.7726 C   0  0  0  0  0  0  0  0  0  0  0  0
   25.3168  -10.1926  -14.9517 C   0  0  0  0  0  0  0  0  0  0  0  0
   26.2194  -11.1767  -15.3027 C   0  0  0  0  0  0  0  0  0  0  0  0
   26.8609  -11.0440  -16.5246 C   0  0  0  0  0  0  0  0  0  0  0  0
   26.6276   -9.9900  -17.3680 C   0  0  0  0  0  0  0  0  0  0  0  0
   25.7208   -9.0319  -16.9794 C   0  0  0  0  0  0  0  0  0  0  0  0
   21.6808   -7.8352  -14.6156 C   0  0  0  0  0  0  0  0  0  0  0  0
   21.5493   -7.5279  -13.2690 O   0  0  0  0  0  0  0  0  0  0  0  0
   20.8442   -7.3223  -15.3967 O   0  0  0  0  0  0  0  0  0  0  0  0
  2  1  1  6
  2  3  1  0
  3  4  1  0
  4  8  1  0
  4  5  2  0
  5  6  1  0
  7  6  1  0
  8  7  2  0
  9  2  1  0
  9 11  1  0
 10  9  2  0
 12 11  1  0
 12 13  1  1
 14 13  1  0
 15 14  1  0
 16 15  2  0
 17 12  1  0
 18 17  2  0
 19 15  1  0
 20 17  1  0
 21 20  1  0
 21 22  1  6
 23 22  1  0
 24 23  2  0
 25 24  1  0
 26 27  1  0
 26 25  2  0
 27 28  2  0
 28 23  1  0
 29 21  1  0
 30 29  1  0
 31 29  2  0
M  END
$$$$
