HEF.pdb
     RDKit          3D

 31 32  0  0  1  0  0  0  0  0999 V2000
   27.5862  -18.7550  -15.6374 N   0  0  0  0  0  0  0  0  0  0  0  0
   26.2608  -19.1076  -16.0752 C   0  0  1  0  0  0  0  0  0  0  0  0
   26.3234  -19.5824  -17.4935 C   0  0  0  0  0  0  0  0  0  0  0  0
   26.6705  -18.4089  -18.3361 C   0  0  0  0  0  0  0  0  0  0  0  0
   27.1934  -17.1945  -17.9435 C   0  0  0  0  0  0  0  0  0  0  0  0
   27.3501  -16.4275  -19.0564 N   0  0  0  0  0  0  0  0  0  0  0  0
   26.9396  -17.1346  -20.1133 C   0  0  0  0  0  0  0  0  0  0  0  0
   26.5312  -18.3285  -19.6733 N   0  0  0  0  0  0  0  0  0  0  0  0
   25.6496  -20.0967  -15.1473 C   0  0  0  0  0  0  0  0  0  0  0  0
   24.7544  -20.8719  -15.5608 O   0  0  0  0  0  0  0  0  0  0  0  0
   26.0538  -20.1840  -13.8066 N   0  0  0  0  0  0  0  0  0  0  0  0
   25.4155  -20.9491  -12.7725 C   0  0  1  0  0  0  0  0  0  0  0  0
   26.2859  -21.0125  -11.5422 C   0  0  0  0  0  0  0  0  0  0  0  0
   25.5837  -21.6604  -10.3705 C   0  0  0  0  0  0  0  0  0  0  0  0
   25.8111  -20.8293   -9.1732 C   0  0  0  0  0  0  0  0  0  0  0  0
   26.4915  -19.7881   -9.2600 O   0  0  0  0  0  0  0  0  0  0  0  0
   24.1129  -20.3235  -12.3622 C   0  0  0  0  0  0  0  0  0  0  0  0
   24.0850  -19.1650  -11.8601 O   0  0  0  0  0  0  0  0  0  0  0  0
   25.2598  -21.2299   -7.9731 O   0  0  0  0  0  0  0  0  0  0  0  0
   22.8838  -21.0158  -12.5267 N   0  0  0  0  0  0  0  0  0  0  0  0
   21.6043  -20.2903  -12.4166 C   0  0  1  0  0  0  0  0  0  0  0  0
   21.6962  -19.1568  -13.3837 C   0  0  0  0  0  0  0  0  0  0  0  0
   20.4275  -18.3932  -13.3657 C   0  0  0  0  0  0  0  0  0  0  0  0
   19.5019  -18.5331  -14.4014 C   0  0  0  0  0  0  0  0  0  0  0  0
   18.3052  -17.8451  -14.4276 C   0  0  0  0  0  0  0  0  0  0  0  0
   18.0412  -16.9889  -13.3694 C   0  0  0  0  0  0  0  0  0  0  0  0
   18.9143  -16.8141  -12.3284 C   0  0  0  0  0  0  0  0  0  0  0  0
   20.0951  -17.5189  -12.3419 C   0  0  0  0  0  0  0  0  0  0  0  0
   20.5104  -21.2372  -12.6569 C   0  0  0  0  0  0  0  0  0  0  0  0
   19.2862  -21.1775  -12.0068 O   0  0  0  0  0  0  0  0  0  0  0  0
   20.6633  -22.1619  -13.4903 O   0  0  0  0  0  0  0  0  0  0  0  0
  2  1  1  1
  2  3  1  0
  3  4  1  0
  4  8  1  0
  4  5  2  0
  5  6  1  0
  7  6  1  0
  8  7  2  0
  9  2  1  0
  9 11  1  0
 10  9  2  0
 12 11  1  0
 12 13  1  1
 14 13  1  0
 15 14  1  0
 16 15  2  0
 17 12  1  0
 18 17  2  0
 19 15  1  0
 20 17  1  0
 21 20  1  0
 21 22  1  6
 23 22  1  0
 24 23  2  0
 25 24  1  0
 26 27  1  0
 26 25  2  0
 27 28  2  0
 28 23  1  0
 29 21  1  0
 30 29  1  0
 31 29  2  0
M  END
$$$$
