HEF.pdb
     RDKit          3D

 31 32  0  0  1  0  0  0  0  0999 V2000
   18.2843   -8.0106  -20.8319 N   0  0  0  0  0  0  0  0  0  0  0  0
   19.2258   -6.9232  -20.7703 C   0  0  1  0  0  0  0  0  0  0  0  0
   19.9128   -6.7945  -22.0940 C   0  0  0  0  0  0  0  0  0  0  0  0
   20.6847   -8.0450  -22.3133 C   0  0  0  0  0  0  0  0  0  0  0  0
   21.9062   -8.4041  -21.7830 C   0  0  0  0  0  0  0  0  0  0  0  0
   22.2227   -9.6383  -22.2605 N   0  0  0  0  0  0  0  0  0  0  0  0
   21.2344  -10.0422  -23.0642 C   0  0  0  0  0  0  0  0  0  0  0  0
   20.3097   -9.0778  -23.0920 N   0  0  0  0  0  0  0  0  0  0  0  0
   18.5516   -5.6723  -20.3303 C   0  0  0  0  0  0  0  0  0  0  0  0
   17.4723   -5.3222  -20.8650 O   0  0  0  0  0  0  0  0  0  0  0  0
   19.0997   -4.8656  -19.3217 N   0  0  0  0  0  0  0  0  0  0  0  0
   18.4951   -3.7000  -18.7403 C   0  0  1  0  0  0  0  0  0  0  0  0
   18.1151   -3.9573  -17.3034 C   0  0  0  0  0  0  0  0  0  0  0  0
   17.4275   -2.7710  -16.6664 C   0  0  0  0  0  0  0  0  0  0  0  0
   17.0849   -3.1226  -15.2753 C   0  0  0  0  0  0  0  0  0  0  0  0
   17.6989   -2.5887  -14.3306 O   0  0  0  0  0  0  0  0  0  0  0  0
   19.4459   -2.5372  -18.7460 C   0  0  0  0  0  0  0  0  0  0  0  0
   20.6154   -2.6595  -18.2849 O   0  0  0  0  0  0  0  0  0  0  0  0
   16.0828   -4.0448  -15.0518 O   0  0  0  0  0  0  0  0  0  0  0  0
   19.0564   -1.2747  -19.2670 N   0  0  0  0  0  0  0  0  0  0  0  0
   19.9808   -0.1275  -19.1982 C   0  0  1  0  0  0  0  0  0  0  0  0
   19.7842    0.6288  -20.4702 C   0  0  0  0  0  0  0  0  0  0  0  0
   20.6545    1.8270  -20.4674 C   0  0  0  0  0  0  0  0  0  0  0  0
   20.1779    3.0474  -19.9855 C   0  0  0  0  0  0  0  0  0  0  0  0
   20.9518    4.1905  -19.9601 C   0  0  0  0  0  0  0  0  0  0  0  0
   22.2490    4.0904  -20.4391 C   0  0  0  0  0  0  0  0  0  0  0  0
   22.7667    2.9181  -20.9233 C   0  0  0  0  0  0  0  0  0  0  0  0
   21.9615    1.8032  -20.9305 C   0  0  0  0  0  0  0  0  0  0  0  0
   19.7011    0.6222  -17.9691 C   0  0  0  0  0  0  0  0  0  0  0  0
   20.6757    1.2786  -17.2313 O   0  0  0  0  0  0  0  0  0  0  0  0
   18.5251    0.6894  -17.5384 O   0  0  0  0  0  0  0  0  0  0  0  0
  2  1  1  6
  2  3  1  0
  3  4  1  0
  4  8  1  0
  4  5  2  0
  5  6  1  0
  7  6  1  0
  8  7  2  0
  9  2  1  0
  9 11  1  0
 10  9  2  0
 12 11  1  0
 12 13  1  1
 14 13  1  0
 15 14  1  0
 16 15  2  0
 17 12  1  0
 18 17  2  0
 19 15  1  0
 20 17  1  0
 21 20  1  0
 21 22  1  6
 23 22  1  0
 24 23  2  0
 25 24  1  0
 26 27  1  0
 26 25  2  0
 27 28  2  0
 28 23  1  0
 29 21  1  0
 30 29  1  0
 31 29  2  0
M  END
$$$$
