HEF.pdb
     RDKit          3D

 31 32  0  0  1  0  0  0  0  0999 V2000
   28.2875  -22.1896  -18.2871 N   0  0  0  0  0  0  0  0  0  0  0  0
   27.4650  -22.5504  -17.1619 C   0  0  1  0  0  0  0  0  0  0  0  0
   28.3415  -22.7983  -15.9740 C   0  0  0  0  0  0  0  0  0  0  0  0
   29.2270  -23.9429  -16.3108 C   0  0  0  0  0  0  0  0  0  0  0  0
   30.6047  -24.0005  -16.2804 C   0  0  0  0  0  0  0  0  0  0  0  0
   30.9794  -25.2502  -16.6667 N   0  0  0  0  0  0  0  0  0  0  0  0
   29.8756  -25.9551  -16.9315 C   0  0  0  0  0  0  0  0  0  0  0  0
   28.8219  -25.1621  -16.7150 N   0  0  0  0  0  0  0  0  0  0  0  0
   26.4237  -21.5155  -16.9223 C   0  0  0  0  0  0  0  0  0  0  0  0
   26.7623  -20.3428  -16.6334 O   0  0  0  0  0  0  0  0  0  0  0  0
   25.0576  -21.8224  -17.0119 N   0  0  0  0  0  0  0  0  0  0  0  0
   23.9653  -20.9562  -16.6669 C   0  0  1  0  0  0  0  0  0  0  0  0
   22.8060  -21.1590  -17.6103 C   0  0  0  0  0  0  0  0  0  0  0  0
   21.6364  -20.2558  -17.2907 C   0  0  0  0  0  0  0  0  0  0  0  0
   21.8148  -18.9864  -18.0207 C   0  0  0  0  0  0  0  0  0  0  0  0
   21.8368  -18.9847  -19.2674 O   0  0  0  0  0  0  0  0  0  0  0  0
   23.4640  -21.2433  -15.2803 C   0  0  0  0  0  0  0  0  0  0  0  0
   23.3378  -22.4328  -14.8747 O   0  0  0  0  0  0  0  0  0  0  0  0
   21.9554  -17.8194  -17.2976 O   0  0  0  0  0  0  0  0  0  0  0  0
   23.1195  -20.1893  -14.3929 N   0  0  0  0  0  0  0  0  0  0  0  0
   22.6619  -20.4930  -13.0240 C   0  0  1  0  0  0  0  0  0  0  0  0
   23.1530  -19.3689  -12.1734 C   0  0  0  0  0  0  0  0  0  0  0  0
   24.0004  -19.9108  -11.0865 C   0  0  0  0  0  0  0  0  0  0  0  0
   25.3356  -20.2403  -11.3268 C   0  0  0  0  0  0  0  0  0  0  0  0
   26.1652  -20.7457  -10.3457 C   0  0  0  0  0  0  0  0  0  0  0  0
   25.6216  -20.9217   -9.0825 C   0  0  0  0  0  0  0  0  0  0  0  0
   24.3183  -20.6151   -8.7925 C   0  0  0  0  0  0  0  0  0  0  0  0
   23.5265  -20.1141   -9.7992 C   0  0  0  0  0  0  0  0  0  0  0  0
   21.2069  -20.6754  -13.0497 C   0  0  0  0  0  0  0  0  0  0  0  0
   20.5104  -21.4262  -12.1137 O   0  0  0  0  0  0  0  0  0  0  0  0
   20.5306  -20.1345  -13.9569 O   0  0  0  0  0  0  0  0  0  0  0  0
  2  1  1  6
  2  3  1  0
  3  4  1  0
  4  8  1  0
  4  5  2  0
  5  6  1  0
  7  6  1  0
  8  7  2  0
  9  2  1  0
  9 11  1  0
 10  9  2  0
 12 11  1  0
 12 13  1  6
 14 13  1  0
 15 14  1  0
 16 15  2  0
 17 12  1  0
 18 17  2  0
 19 15  1  0
 20 17  1  0
 21 20  1  0
 21 22  1  1
 23 22  1  0
 24 23  2  0
 25 24  1  0
 26 27  1  0
 26 25  2  0
 27 28  2  0
 28 23  1  0
 29 21  1  0
 30 29  1  0
 31 29  2  0
M  END
$$$$
