HEF.pdb
     RDKit          3D

 31 32  0  0  1  0  0  0  0  0999 V2000
   40.2620  -28.5740  -17.3081 N   0  0  0  0  0  0  0  0  0  0  0  0
   39.6292  -29.8647  -17.3886 C   0  0  1  0  0  0  0  0  0  0  0  0
   39.9255  -30.6344  -16.1393 C   0  0  0  0  0  0  0  0  0  0  0  0
   41.3130  -31.1521  -16.2593 C   0  0  0  0  0  0  0  0  0  0  0  0
   41.7340  -32.3791  -16.7279 C   0  0  0  0  0  0  0  0  0  0  0  0
   43.0924  -32.4103  -16.6558 N   0  0  0  0  0  0  0  0  0  0  0  0
   43.5121  -31.2433  -16.1585 C   0  0  0  0  0  0  0  0  0  0  0  0
   42.4351  -30.4884  -15.9216 N   0  0  0  0  0  0  0  0  0  0  0  0
   38.1743  -29.7176  -17.6611 C   0  0  0  0  0  0  0  0  0  0  0  0
   37.5321  -28.7760  -17.1374 O   0  0  0  0  0  0  0  0  0  0  0  0
   37.4955  -30.6162  -18.4978 N   0  0  0  0  0  0  0  0  0  0  0  0
   36.0992  -30.5807  -18.8317 C   0  0  1  0  0  0  0  0  0  0  0  0
   35.9035  -30.7247  -20.3204 C   0  0  0  0  0  0  0  0  0  0  0  0
   34.4626  -30.5310  -20.7350 C   0  0  0  0  0  0  0  0  0  0  0  0
   34.3670  -30.7269  -22.1940 C   0  0  0  0  0  0  0  0  0  0  0  0
   35.3790  -31.0553  -22.8441 O   0  0  0  0  0  0  0  0  0  0  0  0
   35.3570  -31.7100  -18.1757 C   0  0  0  0  0  0  0  0  0  0  0  0
   35.8191  -32.8852  -18.2017 O   0  0  0  0  0  0  0  0  0  0  0  0
   33.1465  -30.5387  -22.8100 O   0  0  0  0  0  0  0  0  0  0  0  0
   34.1210  -31.4871  -17.5128 N   0  0  0  0  0  0  0  0  0  0  0  0
   33.4603  -32.5882  -16.7871 C   0  0  1  0  0  0  0  0  0  0  0  0
   33.0507  -32.0177  -15.4698 C   0  0  0  0  0  0  0  0  0  0  0  0
   34.2273  -31.9634  -14.5721 C   0  0  0  0  0  0  0  0  0  0  0  0
   34.6182  -33.0910  -13.8479 C   0  0  0  0  0  0  0  0  0  0  0  0
   35.7087  -33.0901  -13.0011 C   0  0  0  0  0  0  0  0  0  0  0  0
   36.4233  -31.9074  -12.8867 C   0  0  0  0  0  0  0  0  0  0  0  0
   36.0831  -30.7722  -13.5739 C   0  0  0  0  0  0  0  0  0  0  0  0
   34.9897  -30.8168  -14.4067 C   0  0  0  0  0  0  0  0  0  0  0  0
   32.3674  -33.1035  -17.6184 C   0  0  0  0  0  0  0  0  0  0  0  0
   31.9837  -32.5320  -18.8230 O   0  0  0  0  0  0  0  0  0  0  0  0
   31.7273  -34.1147  -17.2432 O   0  0  0  0  0  0  0  0  0  0  0  0
  2  1  1  1
  2  3  1  0
  3  4  1  0
  4  8  1  0
  4  5  2  0
  5  6  1  0
  7  6  1  0
  8  7  2  0
  9  2  1  0
  9 11  1  0
 10  9  2  0
 12 11  1  0
 12 13  1  6
 14 13  1  0
 15 14  1  0
 16 15  2  0
 17 12  1  0
 18 17  2  0
 19 15  1  0
 20 17  1  0
 21 20  1  0
 21 22  1  1
 23 22  1  0
 24 23  2  0
 25 24  1  0
 26 27  1  0
 26 25  2  0
 27 28  2  0
 28 23  1  0
 29 21  1  0
 30 29  1  0
 31 29  2  0
M  END
$$$$
