HEF.pdb
     RDKit          3D

 31 32  0  0  1  0  0  0  0  0999 V2000
   16.4399  -12.8094  -18.7353 N   0  0  0  0  0  0  0  0  0  0  0  0
   16.9764  -12.2568  -17.5189 C   0  0  1  0  0  0  0  0  0  0  0  0
   18.1378  -13.0894  -17.0731 C   0  0  0  0  0  0  0  0  0  0  0  0
   17.6180  -14.4503  -16.7811 C   0  0  0  0  0  0  0  0  0  0  0  0
   16.6039  -14.8157  -15.9205 C   0  0  0  0  0  0  0  0  0  0  0  0
   16.4734  -16.1689  -15.9790 N   0  0  0  0  0  0  0  0  0  0  0  0
   17.3745  -16.6392  -16.8463 C   0  0  0  0  0  0  0  0  0  0  0  0
   18.0616  -15.5988  -17.3272 N   0  0  0  0  0  0  0  0  0  0  0  0
   17.3152  -10.8200  -17.7023 C   0  0  0  0  0  0  0  0  0  0  0  0
   18.3664  -10.4975  -18.3058 O   0  0  0  0  0  0  0  0  0  0  0  0
   16.4791   -9.8061  -17.2108 N   0  0  0  0  0  0  0  0  0  0  0  0
   16.7588   -8.3975  -17.2088 C   0  0  1  0  0  0  0  0  0  0  0  0
   15.4812   -7.6008  -17.1187 C   0  0  0  0  0  0  0  0  0  0  0  0
   14.6506   -7.6968  -18.3784 C   0  0  0  0  0  0  0  0  0  0  0  0
   13.3318   -7.0908  -18.1143 C   0  0  0  0  0  0  0  0  0  0  0  0
   13.1777   -5.8598  -18.2392 O   0  0  0  0  0  0  0  0  0  0  0  0
   17.6039   -8.0152  -16.0273 C   0  0  0  0  0  0  0  0  0  0  0  0
   17.3736   -8.5042  -14.8858 O   0  0  0  0  0  0  0  0  0  0  0  0
   12.2901   -7.9104  -17.7302 O   0  0  0  0  0  0  0  0  0  0  0  0
   18.6791   -7.0971  -16.1619 N   0  0  0  0  0  0  0  0  0  0  0  0
   19.5107   -6.7535  -14.9932 C   0  0  1  0  0  0  0  0  0  0  0  0
   20.8593   -7.3300  -15.2714 C   0  0  0  0  0  0  0  0  0  0  0  0
   21.7512   -7.0689  -14.1184 C   0  0  0  0  0  0  0  0  0  0  0  0
   21.9633   -8.0520  -13.1502 C   0  0  0  0  0  0  0  0  0  0  0  0
   22.7872   -7.8565  -12.0597 C   0  0  0  0  0  0  0  0  0  0  0  0
   23.4143   -6.6249  -11.9497 C   0  0  0  0  0  0  0  0  0  0  0  0
   23.2410   -5.6256  -12.8706 C   0  0  0  0  0  0  0  0  0  0  0  0
   22.4116   -5.8623  -13.9417 C   0  0  0  0  0  0  0  0  0  0  0  0
   19.4728   -5.2992  -14.8068 C   0  0  0  0  0  0  0  0  0  0  0  0
   19.6081   -4.6793  -13.5730 O   0  0  0  0  0  0  0  0  0  0  0  0
   19.3098   -4.5513  -15.8003 O   0  0  0  0  0  0  0  0  0  0  0  0
  2  1  1  6
  2  3  1  0
  3  4  1  0
  4  8  1  0
  4  5  2  0
  5  6  1  0
  7  6  1  0
  8  7  2  0
  9  2  1  0
  9 11  1  0
 10  9  2  0
 12 11  1  0
 12 13  1  1
 14 13  1  0
 15 14  1  0
 16 15  2  0
 17 12  1  0
 18 17  2  0
 19 15  1  0
 20 17  1  0
 21 20  1  0
 21 22  1  6
 23 22  1  0
 24 23  2  0
 25 24  1  0
 26 27  1  0
 26 25  2  0
 27 28  2  0
 28 23  1  0
 29 21  1  0
 30 29  1  0
 31 29  2  0
M  END
$$$$
