HEF.pdb
     RDKit          3D

 31 32  0  0  1  0  0  0  0  0999 V2000
   22.9559  -13.3045  -20.0496 N   0  0  0  0  0  0  0  0  0  0  0  0
   21.8445  -13.1764  -19.1434 C   0  0  1  0  0  0  0  0  0  0  0  0
   21.9446  -14.2376  -18.0923 C   0  0  0  0  0  0  0  0  0  0  0  0
   21.5890  -15.5292  -18.7349 C   0  0  0  0  0  0  0  0  0  0  0  0
   20.4661  -16.3056  -18.5382 C   0  0  0  0  0  0  0  0  0  0  0  0
   20.5672  -17.3982  -19.3429 N   0  0  0  0  0  0  0  0  0  0  0  0
   21.7144  -17.3127  -20.0226 C   0  0  0  0  0  0  0  0  0  0  0  0
   22.3263  -16.1838  -19.6524 N   0  0  0  0  0  0  0  0  0  0  0  0
   21.7796  -11.7982  -18.5873 C   0  0  0  0  0  0  0  0  0  0  0  0
   22.8313  -11.2219  -18.2200 O   0  0  0  0  0  0  0  0  0  0  0  0
   20.5576  -11.1204  -18.4617 N   0  0  0  0  0  0  0  0  0  0  0  0
   20.3704   -9.7866  -17.9633 C   0  0  1  0  0  0  0  0  0  0  0  0
   19.0554   -9.2203  -18.4376 C   0  0  0  0  0  0  0  0  0  0  0  0
   18.8575   -7.7836  -18.0103 C   0  0  0  0  0  0  0  0  0  0  0  0
   17.4588   -7.4039  -18.2856 C   0  0  0  0  0  0  0  0  0  0  0  0
   16.8252   -7.9815  -19.1908 O   0  0  0  0  0  0  0  0  0  0  0  0
   20.3451   -9.7686  -16.4615 C   0  0  0  0  0  0  0  0  0  0  0  0
   19.8086  -10.7119  -15.8153 O   0  0  0  0  0  0  0  0  0  0  0  0
   16.8804   -6.4069  -17.5266 O   0  0  0  0  0  0  0  0  0  0  0  0
   20.9204   -8.6946  -15.7319 N   0  0  0  0  0  0  0  0  0  0  0  0
   20.9283   -8.7209  -14.2572 C   0  0  1  0  0  0  0  0  0  0  0  0
   22.3463   -8.4845  -13.8548 C   0  0  0  0  0  0  0  0  0  0  0  0
   22.8103   -7.1997  -14.4266 C   0  0  0  0  0  0  0  0  0  0  0  0
   22.5205   -5.9936  -13.7860 C   0  0  0  0  0  0  0  0  0  0  0  0
   22.9333   -4.7717  -14.2786 C   0  0  0  0  0  0  0  0  0  0  0  0
   23.6625   -4.7755  -15.4578 C   0  0  0  0  0  0  0  0  0  0  0  0
   23.9742   -5.9295  -16.1270 C   0  0  0  0  0  0  0  0  0  0  0  0
   23.5433   -7.1250  -15.6015 C   0  0  0  0  0  0  0  0  0  0  0  0
   19.9611   -7.7322  -13.7691 C   0  0  0  0  0  0  0  0  0  0  0  0
   19.3631   -6.7780  -14.5794 O   0  0  0  0  0  0  0  0  0  0  0  0
   19.6395   -7.7262  -12.5569 O   0  0  0  0  0  0  0  0  0  0  0  0
  2  1  1  6
  2  3  1  0
  3  4  1  0
  4  8  1  0
  4  5  2  0
  5  6  1  0
  7  6  1  0
  8  7  2  0
  9  2  1  0
  9 11  1  0
 10  9  2  0
 12 11  1  0
 12 13  1  6
 14 13  1  0
 15 14  1  0
 16 15  2  0
 17 12  1  0
 18 17  2  0
 19 15  1  0
 20 17  1  0
 21 20  1  0
 21 22  1  1
 23 22  1  0
 24 23  2  0
 25 24  1  0
 26 27  1  0
 26 25  2  0
 27 28  2  0
 28 23  1  0
 29 21  1  0
 30 29  1  0
 31 29  2  0
M  END
$$$$
