HEF.pdb
     RDKit          3D

 31 32  0  0  1  0  0  0  0  0999 V2000
   25.9498  -18.6036  -18.0548 N   0  0  0  0  0  0  0  0  0  0  0  0
   25.0828  -18.0768  -17.0333 C   0  0  1  0  0  0  0  0  0  0  0  0
   24.1066  -17.1303  -17.6594 C   0  0  0  0  0  0  0  0  0  0  0  0
   24.8761  -15.9475  -18.1246 C   0  0  0  0  0  0  0  0  0  0  0  0
   26.2257  -15.6952  -17.9929 C   0  0  0  0  0  0  0  0  0  0  0  0
   26.4842  -14.4911  -18.5716 N   0  0  0  0  0  0  0  0  0  0  0  0
   25.3368  -14.0021  -19.0508 C   0  0  0  0  0  0  0  0  0  0  0  0
   24.3706  -14.8844  -18.7789 N   0  0  0  0  0  0  0  0  0  0  0  0
   24.4333  -19.1817  -16.2781 C   0  0  0  0  0  0  0  0  0  0  0  0
   23.9136  -20.1411  -16.8968 O   0  0  0  0  0  0  0  0  0  0  0  0
   24.3867  -19.1764  -14.8758 N   0  0  0  0  0  0  0  0  0  0  0  0
   23.7243  -20.1396  -14.0417 C   0  0  1  0  0  0  0  0  0  0  0  0
   24.3593  -20.1866  -12.6743 C   0  0  0  0  0  0  0  0  0  0  0  0
   23.8297  -21.3237  -11.8303 C   0  0  0  0  0  0  0  0  0  0  0  0
   24.2928  -22.5951  -12.4178 C   0  0  0  0  0  0  0  0  0  0  0  0
   25.4840  -22.9406  -12.2906 O   0  0  0  0  0  0  0  0  0  0  0  0
   22.2781  -19.7832  -13.8470 C   0  0  0  0  0  0  0  0  0  0  0  0
   21.9458  -18.6253  -13.4675 O   0  0  0  0  0  0  0  0  0  0  0  0
   23.3861  -23.3787  -13.1022 O   0  0  0  0  0  0  0  0  0  0  0  0
   21.2508  -20.7352  -14.0825 N   0  0  0  0  0  0  0  0  0  0  0  0
   19.8414  -20.3825  -13.8282 C   0  0  1  0  0  0  0  0  0  0  0  0
   19.1234  -20.6284  -15.1138 C   0  0  0  0  0  0  0  0  0  0  0  0
   19.2718  -19.4452  -15.9919 C   0  0  0  0  0  0  0  0  0  0  0  0
   20.4570  -19.2313  -16.6979 C   0  0  0  0  0  0  0  0  0  0  0  0
   20.6415  -18.1453  -17.5302 C   0  0  0  0  0  0  0  0  0  0  0  0
   19.5898  -17.2495  -17.6485 C   0  0  0  0  0  0  0  0  0  0  0  0
   18.4059  -17.4114  -16.9785 C   0  0  0  0  0  0  0  0  0  0  0  0
   18.2643  -18.5071  -16.1597 C   0  0  0  0  0  0  0  0  0  0  0  0
   19.3662  -21.1633  -12.6812 C   0  0  0  0  0  0  0  0  0  0  0  0
   18.2144  -20.8597  -11.9698 O   0  0  0  0  0  0  0  0  0  0  0  0
   20.0179  -22.1650  -12.3009 O   0  0  0  0  0  0  0  0  0  0  0  0
  2  1  1  6
  2  3  1  0
  3  4  1  0
  4  8  1  0
  4  5  2  0
  5  6  1  0
  7  6  1  0
  8  7  2  0
  9  2  1  0
  9 11  1  0
 10  9  2  0
 12 11  1  0
 12 13  1  1
 14 13  1  0
 15 14  1  0
 16 15  2  0
 17 12  1  0
 18 17  2  0
 19 15  1  0
 20 17  1  0
 21 20  1  0
 21 22  1  6
 23 22  1  0
 24 23  2  0
 25 24  1  0
 26 27  1  0
 26 25  2  0
 27 28  2  0
 28 23  1  0
 29 21  1  0
 30 29  1  0
 31 29  2  0
M  END
$$$$
