HEF.pdb
     RDKit          3D

 31 32  0  0  1  0  0  0  0  0999 V2000
   17.7094  -12.5763  -18.3221 N   0  0  0  0  0  0  0  0  0  0  0  0
   18.2497  -11.9265  -17.1565 C   0  0  1  0  0  0  0  0  0  0  0  0
   19.7298  -12.1468  -17.1147 C   0  0  0  0  0  0  0  0  0  0  0  0
   19.9544  -13.6113  -17.0035 C   0  0  0  0  0  0  0  0  0  0  0  0
   20.5773  -14.4548  -17.8994 C   0  0  0  0  0  0  0  0  0  0  0  0
   20.5532  -15.7110  -17.3770 N   0  0  0  0  0  0  0  0  0  0  0  0
   19.9360  -15.6600  -16.1929 C   0  0  0  0  0  0  0  0  0  0  0  0
   19.5774  -14.3917  -15.9725 N   0  0  0  0  0  0  0  0  0  0  0  0
   17.8652  -10.4897  -17.1335 C   0  0  0  0  0  0  0  0  0  0  0  0
   18.1621   -9.7474  -18.1000 O   0  0  0  0  0  0  0  0  0  0  0  0
   17.1719   -9.9386  -16.0453 N   0  0  0  0  0  0  0  0  0  0  0  0
   16.7747   -8.5668  -15.8946 C   0  0  1  0  0  0  0  0  0  0  0  0
   15.4615   -8.4701  -15.1590 C   0  0  0  0  0  0  0  0  0  0  0  0
   14.3085   -9.0326  -15.9590 C   0  0  0  0  0  0  0  0  0  0  0  0
   13.4353   -9.7941  -15.0459 C   0  0  0  0  0  0  0  0  0  0  0  0
   12.4681   -9.2301  -14.4972 O   0  0  0  0  0  0  0  0  0  0  0  0
   17.7872   -7.7947  -15.0976 C   0  0  0  0  0  0  0  0  0  0  0  0
   18.4736   -8.3649  -14.2038 O   0  0  0  0  0  0  0  0  0  0  0  0
   13.7144  -11.1263  -14.8183 O   0  0  0  0  0  0  0  0  0  0  0  0
   17.9978   -6.4090  -15.3267 N   0  0  0  0  0  0  0  0  0  0  0  0
   19.1090   -5.7078  -14.6566 C   0  0  1  0  0  0  0  0  0  0  0  0
   20.3545   -6.3941  -15.1109 C   0  0  0  0  0  0  0  0  0  0  0  0
   21.5224   -5.5292  -14.8260 C   0  0  0  0  0  0  0  0  0  0  0  0
   21.9818   -5.3678  -13.5177 C   0  0  0  0  0  0  0  0  0  0  0  0
   23.0672   -4.5748  -13.2029 C   0  0  0  0  0  0  0  0  0  0  0  0
   23.7049   -3.9261  -14.2493 C   0  0  0  0  0  0  0  0  0  0  0  0
   23.2955   -4.0493  -15.5507 C   0  0  0  0  0  0  0  0  0  0  0  0
   22.2098   -4.8492  -15.8201 C   0  0  0  0  0  0  0  0  0  0  0  0
   19.0214   -4.2802  -14.9813 C   0  0  0  0  0  0  0  0  0  0  0  0
   19.5413   -3.2764  -14.1771 O   0  0  0  0  0  0  0  0  0  0  0  0
   18.4497   -3.9191  -16.0376 O   0  0  0  0  0  0  0  0  0  0  0  0
  2  1  1  6
  2  3  1  0
  3  4  1  0
  4  8  1  0
  4  5  2  0
  5  6  1  0
  7  6  1  0
  8  7  2  0
  9  2  1  0
  9 11  1  0
 10  9  2  0
 12 11  1  0
 12 13  1  1
 14 13  1  0
 15 14  1  0
 16 15  2  0
 17 12  1  0
 18 17  2  0
 19 15  1  0
 20 17  1  0
 21 20  1  0
 21 22  1  6
 23 22  1  0
 24 23  2  0
 25 24  1  0
 26 27  1  0
 26 25  2  0
 27 28  2  0
 28 23  1  0
 29 21  1  0
 30 29  1  0
 31 29  2  0
M  END
$$$$
