GVM.pdb
     RDKit          3D

 20 19  0  0  1  0  0  0  0  0999 V2000
   14.7894  -14.4817  -15.2477 N   0  0  0  0  0  0  0  0  0  0  0  0
   14.7958  -13.1066  -14.8206 C   0  0  0  0  0  0  0  0  0  0  0  0
   15.6753  -12.2809  -15.6778 C   0  0  0  0  0  0  0  0  0  0  0  0
   16.3879  -12.8068  -16.5567 O   0  0  0  0  0  0  0  0  0  0  0  0
   14.9512   -9.5807  -18.1336 C   0  0  0  0  0  0  0  0  0  0  0  0
   15.9660   -9.0341  -17.1924 C   0  0  1  0  0  0  0  0  0  0  0  0
   15.2898   -8.0121  -16.3024 C   0  0  0  0  0  0  0  0  0  0  0  0
   16.6546  -10.0665  -16.3475 C   0  0  2  0  0  0  0  0  0  0  0  0
   15.7644  -10.8527  -15.5570 N   0  0  0  0  0  0  0  0  0  0  0  0
   17.7608   -9.4709  -15.5486 C   0  0  0  0  0  0  0  0  0  0  0  0
   17.5424   -9.1263  -14.3636 O   0  0  0  0  0  0  0  0  0  0  0  0
   25.1475   -9.9446  -13.5427 C   0  0  0  0  0  0  0  0  0  0  0  0
   23.8719  -10.3841  -14.7514 S   0  0  0  0  0  0  0  0  0  0  0  0
   22.4024   -9.3315  -14.4086 C   0  0  0  0  0  0  0  0  0  0  0  0
   21.3170   -9.7180  -15.3593 C   0  0  0  0  0  0  0  0  0  0  0  0
   20.1225   -8.8416  -15.2168 C   0  0  2  0  0  0  0  0  0  0  0  0
   19.0392   -9.2945  -16.1127 N   0  0  0  0  0  0  0  0  0  0  0  0
   20.4165   -7.4204  -15.4750 C   0  0  0  0  0  0  0  0  0  0  0  0
   20.1971   -6.8306  -16.5434 O   0  0  0  0  0  0  0  0  0  0  0  0
   20.9906   -6.6444  -14.4507 O   0  0  0  0  0  0  0  0  0  0  0  0
  1  2  1  0
  3  2  1  0
  4  3  2  0
  6  5  1  1
  6  8  1  0
  7  6  1  0
  8  9  1  1
  8 10  1  0
  9  3  1  0
 10 17  1  0
 11 10  2  0
 12 13  1  0
 13 14  1  0
 16 15  1  6
 15 14  1  0
 16 18  1  0
 17 16  1  0
 18 19  2  0
 18 20  1  0
M  END
$$$$
