GVM.pdb
     RDKit          3D

 20 19  0  0  1  0  0  0  0  0999 V2000
   28.5661  -19.1090  -16.2339 N   0  0  0  0  0  0  0  0  0  0  0  0
   27.8284  -18.6322  -15.0930 C   0  0  0  0  0  0  0  0  0  0  0  0
   26.9065  -19.6683  -14.5768 C   0  0  0  0  0  0  0  0  0  0  0  0
   26.3456  -20.4686  -15.3525 O   0  0  0  0  0  0  0  0  0  0  0  0
   27.4155  -21.0702  -10.9160 C   0  0  0  0  0  0  0  0  0  0  0  0
   26.0255  -21.3594  -11.3616 C   0  0  1  0  0  0  0  0  0  0  0  0
   25.0696  -20.8541  -10.3009 C   0  0  0  0  0  0  0  0  0  0  0  0
   25.6616  -20.7718  -12.6943 C   0  0  2  0  0  0  0  0  0  0  0  0
   26.6037  -19.8172  -13.1809 N   0  0  0  0  0  0  0  0  0  0  0  0
   24.2643  -20.2577  -12.7028 C   0  0  0  0  0  0  0  0  0  0  0  0
   23.9893  -19.2237  -12.0502 O   0  0  0  0  0  0  0  0  0  0  0  0
   21.6447  -18.3621  -17.4202 C   0  0  0  0  0  0  0  0  0  0  0  0
   20.0138  -18.5997  -16.6684 S   0  0  0  0  0  0  0  0  0  0  0  0
   20.2819  -19.1632  -14.9377 C   0  0  0  0  0  0  0  0  0  0  0  0
   21.6347  -19.7910  -14.8534 C   0  0  0  0  0  0  0  0  0  0  0  0
   21.9245  -20.2924  -13.4823 C   0  0  2  0  0  0  0  0  0  0  0  0
   23.2598  -20.9216  -13.4334 N   0  0  0  0  0  0  0  0  0  0  0  0
   20.9111  -21.2431  -12.9903 C   0  0  0  0  0  0  0  0  0  0  0  0
   21.0523  -22.4741  -12.9450 O   0  0  0  0  0  0  0  0  0  0  0  0
   19.6769  -20.7482  -12.5290 O   0  0  0  0  0  0  0  0  0  0  0  0
  1  2  1  0
  3  2  1  0
  4  3  2  0
  6  5  1  1
  6  8  1  0
  7  6  1  0
  8  9  1  1
  8 10  1  0
  9  3  1  0
 10 17  1  0
 11 10  2  0
 12 13  1  0
 13 14  1  0
 16 15  1  6
 15 14  1  0
 16 18  1  0
 17 16  1  0
 18 19  2  0
 18 20  1  0
M  END
$$$$
