GVM.pdb
     RDKit          3D

 20 19  0  0  1  0  0  0  0  0999 V2000
   21.7032  -16.5048  -17.9513 N   0  0  0  0  0  0  0  0  0  0  0  0
   22.1385  -16.4088  -16.5822 C   0  0  0  0  0  0  0  0  0  0  0  0
   23.2048  -17.3914  -16.2862 C   0  0  0  0  0  0  0  0  0  0  0  0
   23.2114  -18.5121  -16.8347 O   0  0  0  0  0  0  0  0  0  0  0  0
   27.5622  -18.5456  -14.1299 C   0  0  0  0  0  0  0  0  0  0  0  0
   26.5440  -17.5335  -14.5211 C   0  0  1  0  0  0  0  0  0  0  0  0
   27.1437  -16.6407  -15.5875 C   0  0  0  0  0  0  0  0  0  0  0  0
   25.2471  -18.1092  -15.0115 C   0  0  2  0  0  0  0  0  0  0  0  0
   24.2775  -17.1256  -15.3691 N   0  0  0  0  0  0  0  0  0  0  0  0
   24.7109  -19.1306  -14.0703 C   0  0  0  0  0  0  0  0  0  0  0  0
   24.0549  -18.7560  -13.0703 O   0  0  0  0  0  0  0  0  0  0  0  0
   22.4961  -25.3872  -14.7812 C   0  0  0  0  0  0  0  0  0  0  0  0
   24.1941  -25.4638  -14.1551 S   0  0  0  0  0  0  0  0  0  0  0  0
   24.5049  -23.9132  -13.2149 C   0  0  0  0  0  0  0  0  0  0  0  0
   24.0531  -22.7601  -14.0500 C   0  0  0  0  0  0  0  0  0  0  0  0
   24.2963  -21.4589  -13.3696 C   0  0  2  0  0  0  0  0  0  0  0  0
   24.9354  -20.5025  -14.2961 N   0  0  0  0  0  0  0  0  0  0  0  0
   25.1154  -21.5900  -12.1511 C   0  0  0  0  0  0  0  0  0  0  0  0
   26.3502  -21.4862  -12.1086 O   0  0  0  0  0  0  0  0  0  0  0  0
   24.4777  -21.8533  -10.9242 O   0  0  0  0  0  0  0  0  0  0  0  0
  1  2  1  0
  3  2  1  0
  4  3  2  0
  6  5  1  6
  6  8  1  0
  7  6  1  0
  8  9  1  1
  8 10  1  0
  9  3  1  0
 10 17  1  0
 11 10  2  0
 12 13  1  0
 13 14  1  0
 16 15  1  6
 15 14  1  0
 16 18  1  0
 17 16  1  0
 18 19  2  0
 18 20  1  0
M  END
$$$$
