GVM.pdb
     RDKit          3D

 20 19  0  0  1  0  0  0  0  0999 V2000
   14.7451  -22.6730   -2.1685 N   0  0  0  0  0  0  0  0  0  0  0  0
   14.1790  -22.6617   -0.8445 C   0  0  0  0  0  0  0  0  0  0  0  0
   15.1714  -22.2222    0.1614 C   0  0  0  0  0  0  0  0  0  0  0  0
   16.3571  -22.0067   -0.1621 O   0  0  0  0  0  0  0  0  0  0  0  0
   16.1377  -19.9688    4.4515 C   0  0  0  0  0  0  0  0  0  0  0  0
   15.2038  -20.4540    3.3995 C   0  0  1  0  0  0  0  0  0  0  0  0
   14.7457  -19.2638    2.5823 C   0  0  0  0  0  0  0  0  0  0  0  0
   15.7767  -21.5031    2.4911 C   0  0  2  0  0  0  0  0  0  0  0  0
   14.8425  -22.0197    1.5446 N   0  0  0  0  0  0  0  0  0  0  0  0
   16.4693  -22.5737    3.2598 C   0  0  0  0  0  0  0  0  0  0  0  0
   15.7904  -23.4903    3.7791 O   0  0  0  0  0  0  0  0  0  0  0  0
   21.6845  -25.3609    0.0984 C   0  0  0  0  0  0  0  0  0  0  0  0
   21.6735  -24.6617    1.7694 S   0  0  0  0  0  0  0  0  0  0  0  0
   19.9149  -24.4732    2.2761 C   0  0  0  0  0  0  0  0  0  0  0  0
   19.8835  -23.9095    3.6590 C   0  0  0  0  0  0  0  0  0  0  0  0
   18.4896  -23.6880    4.1316 C   0  0  2  0  0  0  0  0  0  0  0  0
   17.8701  -22.5614    3.4047 N   0  0  0  0  0  0  0  0  0  0  0  0
   18.4049  -23.4467    5.5833 C   0  0  0  0  0  0  0  0  0  0  0  0
   18.4267  -22.3301    6.1220 O   0  0  0  0  0  0  0  0  0  0  0  0
   18.2893  -24.5471    6.4533 O   0  0  0  0  0  0  0  0  0  0  0  0
  1  2  1  0
  3  2  1  0
  4  3  2  0
  6  5  1  1
  6  8  1  0
  7  6  1  0
  8  9  1  1
  8 10  1  0
  9  3  1  0
 10 17  1  0
 11 10  2  0
 12 13  1  0
 13 14  1  0
 16 15  1  6
 15 14  1  0
 16 18  1  0
 17 16  1  0
 18 19  2  0
 18 20  1  0
M  END
$$$$
