GVM.pdb
     RDKit          3D

 20 19  0  0  1  0  0  0  0  0999 V2000
   28.1335  -21.6152  -16.6679 N   0  0  0  0  0  0  0  0  0  0  0  0
   27.4595  -22.1452  -15.5111 C   0  0  0  0  0  0  0  0  0  0  0  0
   27.1801  -21.0844  -14.5178 C   0  0  0  0  0  0  0  0  0  0  0  0
   27.1850  -19.8814  -14.8489 O   0  0  0  0  0  0  0  0  0  0  0  0
   24.7707  -19.6730  -14.3107 C   0  0  0  0  0  0  0  0  0  0  0  0
   24.7333  -20.2153  -12.9255 C   0  0  1  0  0  0  0  0  0  0  0  0
   23.8892  -21.4729  -12.9280 C   0  0  0  0  0  0  0  0  0  0  0  0
   26.0810  -20.5097  -12.3332 C   0  0  2  0  0  0  0  0  0  0  0  0
   26.8916  -21.3636  -13.1390 N   0  0  0  0  0  0  0  0  0  0  0  0
   25.9690  -20.9823  -10.9258 C   0  0  0  0  0  0  0  0  0  0  0  0
   25.7349  -22.1933  -10.7042 O   0  0  0  0  0  0  0  0  0  0  0  0
   29.5782  -19.2983   -5.7344 C   0  0  0  0  0  0  0  0  0  0  0  0
   27.8818  -19.2289   -5.1030 S   0  0  0  0  0  0  0  0  0  0  0  0
   26.8547  -20.3290   -6.1612 C   0  0  0  0  0  0  0  0  0  0  0  0
   26.8435  -19.7700   -7.5464 C   0  0  0  0  0  0  0  0  0  0  0  0
   26.0866  -20.6418   -8.4857 C   0  0  2  0  0  0  0  0  0  0  0  0
   26.1233  -20.0834   -9.8525 N   0  0  0  0  0  0  0  0  0  0  0  0
   24.6869  -20.8530   -8.0748 C   0  0  0  0  0  0  0  0  0  0  0  0
   24.3260  -21.5109   -7.0878 O   0  0  0  0  0  0  0  0  0  0  0  0
   23.6557  -20.2770   -8.8404 O   0  0  0  0  0  0  0  0  0  0  0  0
  1  2  1  0
  3  2  1  0
  4  3  2  0
  6  5  1  6
  6  8  1  0
  7  6  1  0
  8  9  1  6
  8 10  1  0
  9  3  1  0
 10 17  1  0
 11 10  2  0
 12 13  1  0
 13 14  1  0
 16 15  1  1
 15 14  1  0
 16 18  1  0
 17 16  1  0
 18 19  2  0
 18 20  1  0
M  END
$$$$
