GVM.pdb
     RDKit          3D

 20 19  0  0  1  0  0  0  0  0999 V2000
   22.5779  -17.0288  -16.6844 N   0  0  0  0  0  0  0  0  0  0  0  0
   23.6624  -16.8321  -15.7578 C   0  0  0  0  0  0  0  0  0  0  0  0
   23.5809  -17.7806  -14.6248 C   0  0  0  0  0  0  0  0  0  0  0  0
   22.9077  -17.5081  -13.6102 O   0  0  0  0  0  0  0  0  0  0  0  0
   23.5429  -22.3734  -12.9559 C   0  0  0  0  0  0  0  0  0  0  0  0
   23.6078  -21.3390  -14.0238 C   0  0  1  0  0  0  0  0  0  0  0  0
   22.2287  -21.1951  -14.6332 C   0  0  0  0  0  0  0  0  0  0  0  0
   24.1026  -19.9978  -13.5652 C   0  0  2  0  0  0  0  0  0  0  0  0
   24.2560  -19.0481  -14.6187 N   0  0  0  0  0  0  0  0  0  0  0  0
   25.3228  -20.1238  -12.7214 C   0  0  0  0  0  0  0  0  0  0  0  0
   26.4370  -20.2714  -13.2757 O   0  0  0  0  0  0  0  0  0  0  0  0
   27.2954  -18.1331   -6.5569 C   0  0  0  0  0  0  0  0  0  0  0  0
   27.1426  -19.9381   -6.5525 S   0  0  0  0  0  0  0  0  0  0  0  0
   27.4178  -20.5184   -8.2765 C   0  0  0  0  0  0  0  0  0  0  0  0
   26.2217  -20.1497   -9.0918 C   0  0  0  0  0  0  0  0  0  0  0  0
   26.4565  -20.3704  -10.5448 C   0  0  2  0  0  0  0  0  0  0  0  0
   25.2316  -20.0783  -11.3166 N   0  0  0  0  0  0  0  0  0  0  0  0
   26.9218  -21.7348  -10.8526 C   0  0  0  0  0  0  0  0  0  0  0  0
   26.2110  -22.7506  -10.8348 O   0  0  0  0  0  0  0  0  0  0  0  0
   28.2718  -21.9348  -11.1973 O   0  0  0  0  0  0  0  0  0  0  0  0
  1  2  1  0
  3  2  1  0
  4  3  2  0
  6  5  1  1
  6  8  1  0
  7  6  1  0
  8  9  1  6
  8 10  1  0
  9  3  1  0
 10 17  1  0
 11 10  2  0
 12 13  1  0
 13 14  1  0
 16 15  1  1
 15 14  1  0
 16 18  1  0
 17 16  1  0
 18 19  2  0
 18 20  1  0
M  END
$$$$
