GVM.pdb
     RDKit          3D

 20 19  0  0  1  0  0  0  0  0999 V2000
   28.3535  -18.3090  -15.6870 N   0  0  0  0  0  0  0  0  0  0  0  0
   28.2790  -19.4544  -14.8177 C   0  0  0  0  0  0  0  0  0  0  0  0
   27.4298  -19.1800  -13.6373 C   0  0  0  0  0  0  0  0  0  0  0  0
   27.2035  -18.0089  -13.2710 O   0  0  0  0  0  0  0  0  0  0  0  0
   24.0206  -19.4781  -13.4104 C   0  0  0  0  0  0  0  0  0  0  0  0
   24.4639  -20.1918  -12.1822 C   0  0  1  0  0  0  0  0  0  0  0  0
   24.2277  -21.6747  -12.3805 C   0  0  0  0  0  0  0  0  0  0  0  0
   25.8967  -19.9522  -11.8031 C   0  0  2  0  0  0  0  0  0  0  0  0
   26.8242  -20.2199  -12.8536 N   0  0  0  0  0  0  0  0  0  0  0  0
   26.2498  -20.6441  -10.5330 C   0  0  0  0  0  0  0  0  0  0  0  0
   26.6063  -21.8450  -10.5696 O   0  0  0  0  0  0  0  0  0  0  0  0
   29.0919  -18.3582   -5.6449 C   0  0  0  0  0  0  0  0  0  0  0  0
   28.3728  -19.6998   -4.6629 S   0  0  0  0  0  0  0  0  0  0  0  0
   27.3485  -20.7245   -5.7968 C   0  0  0  0  0  0  0  0  0  0  0  0
   27.1210  -19.9487   -7.0528 C   0  0  0  0  0  0  0  0  0  0  0  0
   26.3955  -20.7535   -8.0732 C   0  0  2  0  0  0  0  0  0  0  0  0
   26.1858  -19.9620   -9.3024 N   0  0  0  0  0  0  0  0  0  0  0  0
   25.1016  -21.2672   -7.5886 C   0  0  0  0  0  0  0  0  0  0  0  0
   23.9903  -20.8702   -7.9691 O   0  0  0  0  0  0  0  0  0  0  0  0
   25.0914  -22.2874   -6.6189 O   0  0  0  0  0  0  0  0  0  0  0  0
  1  2  1  0
  3  2  1  0
  4  3  2  0
  6  5  1  6
  6  8  1  0
  7  6  1  0
  8  9  1  6
  8 10  1  0
  9  3  1  0
 10 17  1  0
 11 10  2  0
 12 13  1  0
 13 14  1  0
 16 15  1  1
 15 14  1  0
 16 18  1  0
 17 16  1  0
 18 19  2  0
 18 20  1  0
M  END
$$$$
