GVM.pdb
     RDKit          3D

 20 19  0  0  1  0  0  0  0  0999 V2000
   20.8788  -23.7176  -14.0411 N   0  0  0  0  0  0  0  0  0  0  0  0
   20.5348  -22.3466  -13.7662 C   0  0  0  0  0  0  0  0  0  0  0  0
   20.9021  -21.4629  -14.8949 C   0  0  0  0  0  0  0  0  0  0  0  0
   21.4972  -21.9156  -15.8938 O   0  0  0  0  0  0  0  0  0  0  0  0
   19.2348  -20.3756  -17.5165 C   0  0  0  0  0  0  0  0  0  0  0  0
   19.7741  -19.0850  -17.0085 C   0  0  1  0  0  0  0  0  0  0  0  0
   18.6383  -18.3105  -16.3728 C   0  0  0  0  0  0  0  0  0  0  0  0
   20.9049  -19.2221  -16.0306 C   0  0  2  0  0  0  0  0  0  0  0  0
   20.6045  -20.0581  -14.9142 N   0  0  0  0  0  0  0  0  0  0  0  0
   21.4435  -17.8940  -15.6270 C   0  0  0  0  0  0  0  0  0  0  0  0
   20.9971  -17.3413  -14.5946 O   0  0  0  0  0  0  0  0  0  0  0  0
   27.5631  -13.2478  -15.0084 C   0  0  0  0  0  0  0  0  0  0  0  0
   26.8789  -14.8448  -15.5211 S   0  0  0  0  0  0  0  0  0  0  0  0
   25.0458  -14.7097  -15.4416 C   0  0  0  0  0  0  0  0  0  0  0  0
   24.4622  -16.0397  -15.7905 C   0  0  0  0  0  0  0  0  0  0  0  0
   22.9782  -15.9810  -15.8890 C   0  0  2  0  0  0  0  0  0  0  0  0
   22.4425  -17.2619  -16.3926 N   0  0  0  0  0  0  0  0  0  0  0  0
   22.5004  -14.8761  -16.7397 C   0  0  0  0  0  0  0  0  0  0  0  0
   22.2166  -13.7385  -16.3366 O   0  0  0  0  0  0  0  0  0  0  0  0
   22.3433  -15.0962  -18.1211 O   0  0  0  0  0  0  0  0  0  0  0  0
  1  2  1  0
  3  2  1  0
  4  3  2  0
  6  5  1  1
  6  8  1  0
  7  6  1  0
  8  9  1  1
  8 10  1  0
  9  3  1  0
 10 17  1  0
 11 10  2  0
 12 13  1  0
 13 14  1  0
 16 15  1  6
 15 14  1  0
 16 18  1  0
 17 16  1  0
 18 19  2  0
 18 20  1  0
M  END
$$$$
