GVM.pdb
     RDKit          3D

 20 19  0  0  1  0  0  0  0  0999 V2000
   28.6933  -18.1989  -15.4528 N   0  0  0  0  0  0  0  0  0  0  0  0
   27.8906  -19.3379  -15.0900 C   0  0  0  0  0  0  0  0  0  0  0  0
   27.0014  -19.0281  -13.9484 C   0  0  0  0  0  0  0  0  0  0  0  0
   26.1429  -18.1267  -14.0332 O   0  0  0  0  0  0  0  0  0  0  0  0
   24.3684  -19.8975  -13.7676 C   0  0  0  0  0  0  0  0  0  0  0  0
   24.7376  -20.4582  -12.4396 C   0  0  1  0  0  0  0  0  0  0  0  0
   24.9507  -21.9498  -12.5939 C   0  0  0  0  0  0  0  0  0  0  0  0
   25.9511  -19.8342  -11.8135 C   0  0  2  0  0  0  0  0  0  0  0  0
   27.0667  -19.7287  -12.6966 N   0  0  0  0  0  0  0  0  0  0  0  0
   26.2988  -20.4890  -10.5223 C   0  0  0  0  0  0  0  0  0  0  0  0
   26.8347  -21.6217  -10.5360 O   0  0  0  0  0  0  0  0  0  0  0  0
   30.0095  -19.3334   -5.2101 C   0  0  0  0  0  0  0  0  0  0  0  0
   28.2702  -19.3174   -4.7043 S   0  0  0  0  0  0  0  0  0  0  0  0
   27.3609  -20.4612   -5.8222 C   0  0  0  0  0  0  0  0  0  0  0  0
   27.0434  -19.7287   -7.0847 C   0  0  0  0  0  0  0  0  0  0  0  0
   26.3249  -20.5955   -8.0582 C   0  0  2  0  0  0  0  0  0  0  0  0
   26.0307  -19.8476   -9.2974 N   0  0  0  0  0  0  0  0  0  0  0  0
   25.0775  -21.1620   -7.5142 C   0  0  0  0  0  0  0  0  0  0  0  0
   23.9350  -20.8591   -7.8889 O   0  0  0  0  0  0  0  0  0  0  0  0
   25.1538  -22.1235   -6.4891 O   0  0  0  0  0  0  0  0  0  0  0  0
  1  2  1  0
  3  2  1  0
  4  3  2  0
  6  5  1  6
  6  8  1  0
  7  6  1  0
  8  9  1  6
  8 10  1  0
  9  3  1  0
 10 17  1  0
 11 10  2  0
 12 13  1  0
 13 14  1  0
 16 15  1  1
 15 14  1  0
 16 18  1  0
 17 16  1  0
 18 19  2  0
 18 20  1  0
M  END
$$$$
