GVM.pdb
     RDKit          3D

 20 19  0  0  1  0  0  0  0  0999 V2000
   27.9550  -21.9942  -17.2125 N   0  0  0  0  0  0  0  0  0  0  0  0
   27.9663  -22.5668  -15.8914 C   0  0  0  0  0  0  0  0  0  0  0  0
   27.6087  -21.5616  -14.8659 C   0  0  0  0  0  0  0  0  0  0  0  0
   28.2460  -20.4934  -14.7684 O   0  0  0  0  0  0  0  0  0  0  0  0
   24.8290  -19.4598  -14.8606 C   0  0  0  0  0  0  0  0  0  0  0  0
   24.7886  -20.0705  -13.5042 C   0  0  1  0  0  0  0  0  0  0  0  0
   23.6732  -21.0947  -13.4750 C   0  0  0  0  0  0  0  0  0  0  0  0
   26.0755  -20.7088  -13.0679 C   0  0  2  0  0  0  0  0  0  0  0  0
   26.5293  -21.7455  -13.9367 N   0  0  0  0  0  0  0  0  0  0  0  0
   26.0190  -21.1357  -11.6426 C   0  0  0  0  0  0  0  0  0  0  0  0
   25.7493  -22.3293  -11.3721 O   0  0  0  0  0  0  0  0  0  0  0  0
   29.3931  -19.7993   -5.9846 C   0  0  0  0  0  0  0  0  0  0  0  0
   27.7086  -19.1627   -5.7889 S   0  0  0  0  0  0  0  0  0  0  0  0
   26.6076  -20.1812   -6.8546 C   0  0  0  0  0  0  0  0  0  0  0  0
   26.8630  -19.8129   -8.2795 C   0  0  0  0  0  0  0  0  0  0  0  0
   26.1146  -20.6928   -9.2181 C   0  0  2  0  0  0  0  0  0  0  0  0
   26.2648  -20.2134  -10.6070 N   0  0  0  0  0  0  0  0  0  0  0  0
   24.6830  -20.8049   -8.8853 C   0  0  0  0  0  0  0  0  0  0  0  0
   23.7755  -20.1455   -9.4134 O   0  0  0  0  0  0  0  0  0  0  0  0
   24.2813  -21.7221   -7.8961 O   0  0  0  0  0  0  0  0  0  0  0  0
  1  2  1  0
  3  2  1  0
  4  3  2  0
  6  5  1  6
  6  8  1  0
  7  6  1  0
  8  9  1  6
  8 10  1  0
  9  3  1  0
 10 17  1  0
 11 10  2  0
 12 13  1  0
 13 14  1  0
 16 15  1  1
 15 14  1  0
 16 18  1  0
 17 16  1  0
 18 19  2  0
 18 20  1  0
M  END
$$$$
