SCW.pdb
     RDKit          3D

 27 28  0  0  1  0  0  0  0  0999 V2000
   28.7481  -35.6427    2.3156 O   0  0  0  0  0  0  0  0  0  0  0  0
   29.3992  -36.8682    2.1921 C   0  0  0  0  0  0  0  0  0  0  0  0
   30.7864  -36.6733    1.6655 C   0  0  2  0  0  0  0  0  0  0  0  0
   31.6776  -36.0848    2.6388 N   0  0  0  0  0  0  0  0  0  0  0  0
   30.7598  -35.9518    0.3871 C   0  0  0  0  0  0  0  0  0  0  0  0
   31.5527  -34.9588    0.2953 O   0  0  0  0  0  0  0  0  0  0  0  0
   29.9450  -36.2697   -0.7112 N   0  0  0  0  0  0  0  0  0  0  0  0
   30.0697  -35.5825   -1.9676 C   0  0  1  0  0  0  0  0  0  0  0  0
   31.4267  -35.8620   -2.5355 C   0  0  0  0  0  0  0  0  0  0  0  0
   31.5554  -37.6123   -2.9912 S   0  0  0  0  0  0  0  0  0  0  0  0
   28.9680  -35.9305   -2.8941 C   0  0  0  0  0  0  0  0  0  0  0  0
   28.4725  -37.0825   -2.8005 O   0  0  0  0  0  0  0  0  0  0  0  0
   28.4396  -35.0726   -3.8639 N   0  0  0  0  0  0  0  0  0  0  0  0
   27.2250  -35.4393   -4.5834 C   0  0  1  0  0  0  0  0  0  0  0  0
   26.3625  -34.2579   -4.8442 C   0  0  0  0  0  0  0  0  0  0  0  0
   26.7406  -33.5958   -6.1164 C   0  0  0  0  0  0  0  0  0  0  0  0
   27.9919  -33.7494   -6.7345 C   0  0  0  0  0  0  0  0  0  0  0  0
   28.0000  -33.0708   -7.8729 N   0  0  0  0  0  0  0  0  0  0  0  0
   26.8160  -32.4676   -8.0506 C   0  0  0  0  0  0  0  0  0  0  0  0
   26.3482  -31.6405   -9.0830 C   0  0  0  0  0  0  0  0  0  0  0  0
   25.0917  -31.1238   -9.0411 C   0  0  0  0  0  0  0  0  0  0  0  0
   24.3100  -31.4441   -7.9543 C   0  0  0  0  0  0  0  0  0  0  0  0
   24.7713  -32.2602   -6.9359 C   0  0  0  0  0  0  0  0  0  0  0  0
   26.0359  -32.7886   -6.9680 C   0  0  0  0  0  0  0  0  0  0  0  0
   27.5698  -36.2330   -5.7582 C   0  0  0  0  0  0  0  0  0  0  0  0
   26.7157  -36.9617   -6.3737 O   0  0  0  0  0  0  0  0  0  0  0  0
   28.8439  -36.2607   -6.3086 O   0  0  0  0  0  0  0  0  0  0  0  0
  2  1  1  0
  3  2  1  0
  3  4  1  1
  5  6  2  0
  5  3  1  0
  7  5  1  0
  8  7  1  0
  8  9  1  6
 10  9  1  0
 11 13  1  0
 11  8  1  0
 12 11  2  0
 14 25  1  0
 14 13  1  0
 14 15  1  6
 15 16  1  0
 16 24  1  0
 16 17  2  0
 17 18  1  0
 19 20  2  0
 19 18  1  0
 21 20  1  0
 22 21  2  0
 23 22  1  0
 23 24  2  0
 24 19  1  0
 25 27  1  0
 26 25  2  0
M  END
$$$$
