SCW.pdb
     RDKit          3D

 27 28  0  0  1  0  0  0  0  0999 V2000
   29.8138  -19.2479  -14.1786 O   0  0  0  0  0  0  0  0  0  0  0  0
   28.7188  -19.8775  -13.5907 C   0  0  0  0  0  0  0  0  0  0  0  0
   29.0119  -20.2114  -12.1617 C   0  0  2  0  0  0  0  0  0  0  0  0
   30.2634  -20.9146  -11.9960 N   0  0  0  0  0  0  0  0  0  0  0  0
   27.8705  -20.8980  -11.5442 C   0  0  0  0  0  0  0  0  0  0  0  0
   28.1515  -21.9396  -10.8666 O   0  0  0  0  0  0  0  0  0  0  0  0
   26.5281  -20.4991  -11.6447 N   0  0  0  0  0  0  0  0  0  0  0  0
   25.4559  -21.3309  -11.1706 C   0  0  1  0  0  0  0  0  0  0  0  0
   25.5259  -21.3999   -9.6765 C   0  0  0  0  0  0  0  0  0  0  0  0
   25.4934  -19.7260   -8.9801 S   0  0  0  0  0  0  0  0  0  0  0  0
   24.1411  -20.8680  -11.6709 C   0  0  0  0  0  0  0  0  0  0  0  0
   23.8738  -19.6446  -11.5560 O   0  0  0  0  0  0  0  0  0  0  0  0
   23.1768  -21.6912  -12.2610 N   0  0  0  0  0  0  0  0  0  0  0  0
   21.9833  -21.1071  -12.8626 C   0  0  1  0  0  0  0  0  0  0  0  0
   22.0065  -21.2130  -14.3444 C   0  0  0  0  0  0  0  0  0  0  0  0
   23.1010  -20.3924  -14.9177 C   0  0  0  0  0  0  0  0  0  0  0  0
   24.4113  -20.8604  -15.1054 C   0  0  0  0  0  0  0  0  0  0  0  0
   25.1348  -19.9084  -15.6771 N   0  0  0  0  0  0  0  0  0  0  0  0
   24.3756  -18.8226  -15.8824 C   0  0  0  0  0  0  0  0  0  0  0  0
   24.6851  -17.5733  -16.4412 C   0  0  0  0  0  0  0  0  0  0  0  0
   23.7380  -16.6030  -16.5357 C   0  0  0  0  0  0  0  0  0  0  0  0
   22.4787  -16.8977  -16.0643 C   0  0  0  0  0  0  0  0  0  0  0  0
   22.1732  -18.1301  -15.5133 C   0  0  0  0  0  0  0  0  0  0  0  0
   23.1196  -19.1171  -15.4142 C   0  0  0  0  0  0  0  0  0  0  0  0
   20.7919  -21.6470  -12.2159 C   0  0  0  0  0  0  0  0  0  0  0  0
   20.8416  -22.6029  -11.3655 O   0  0  0  0  0  0  0  0  0  0  0  0
   19.5120  -21.1692  -12.4616 O   0  0  0  0  0  0  0  0  0  0  0  0
  2  1  1  0
  3  2  1  0
  3  4  1  6
  5  6  2  0
  5  3  1  0
  7  5  1  0
  8  7  1  0
  8  9  1  1
 10  9  1  0
 11 13  1  0
 11  8  1  0
 12 11  2  0
 14 25  1  0
 14 13  1  0
 14 15  1  6
 15 16  1  0
 16 24  1  0
 16 17  2  0
 17 18  1  0
 19 20  2  0
 19 18  1  0
 21 20  1  0
 22 21  2  0
 23 22  1  0
 23 24  2  0
 24 19  1  0
 25 27  1  0
 26 25  2  0
M  END
$$$$
