SCW.pdb
     RDKit          3D

 27 28  0  0  1  0  0  0  0  0999 V2000
   20.3945  -11.0909  -14.6104 O   0  0  0  0  0  0  0  0  0  0  0  0
   20.4416  -10.1714  -15.6561 C   0  0  0  0  0  0  0  0  0  0  0  0
   21.2112   -8.9543  -15.2487 C   0  0  2  0  0  0  0  0  0  0  0  0
   22.5401   -9.2647  -14.7737 N   0  0  0  0  0  0  0  0  0  0  0  0
   20.4319   -8.1374  -14.3100 C   0  0  0  0  0  0  0  0  0  0  0  0
   20.7832   -8.2119  -13.0877 O   0  0  0  0  0  0  0  0  0  0  0  0
   19.3566   -7.3028  -14.6544 N   0  0  0  0  0  0  0  0  0  0  0  0
   18.6274   -6.5626  -13.6612 C   0  0  1  0  0  0  0  0  0  0  0  0
   18.1358   -5.2889  -14.2760 C   0  0  0  0  0  0  0  0  0  0  0  0
   17.1932   -4.3381  -13.0531 S   0  0  0  0  0  0  0  0  0  0  0  0
   17.5448   -7.3739  -13.0586 C   0  0  0  0  0  0  0  0  0  0  0  0
   16.8451   -8.0754  -13.8329 O   0  0  0  0  0  0  0  0  0  0  0  0
   17.2447   -7.4165  -11.6934 N   0  0  0  0  0  0  0  0  0  0  0  0
   16.1588   -8.2605  -11.2076 C   0  0  1  0  0  0  0  0  0  0  0  0
   16.3584   -8.6504   -9.7879 C   0  0  0  0  0  0  0  0  0  0  0  0
   15.0578   -8.7955   -9.0899 C   0  0  0  0  0  0  0  0  0  0  0  0
   14.2808   -9.9645   -9.1222 C   0  0  0  0  0  0  0  0  0  0  0  0
   13.2061   -9.7926   -8.3657 N   0  0  0  0  0  0  0  0  0  0  0  0
   13.2217   -8.5651   -7.8269 C   0  0  0  0  0  0  0  0  0  0  0  0
   12.3116   -7.9202   -6.9756 C   0  0  0  0  0  0  0  0  0  0  0  0
   12.5346   -6.6448   -6.5617 C   0  0  0  0  0  0  0  0  0  0  0  0
   13.6782   -6.0232   -7.0099 C   0  0  0  0  0  0  0  0  0  0  0  0
   14.5761   -6.6595   -7.8494 C   0  0  0  0  0  0  0  0  0  0  0  0
   14.3628   -7.9461   -8.2722 C   0  0  0  0  0  0  0  0  0  0  0  0
   14.8761   -7.6339  -11.5093 C   0  0  0  0  0  0  0  0  0  0  0  0
   14.7193   -6.3635  -11.5412 O   0  0  0  0  0  0  0  0  0  0  0  0
   13.7253   -8.3571  -11.7913 O   0  0  0  0  0  0  0  0  0  0  0  0
  2  1  1  0
  3  2  1  0
  3  4  1  1
  5  6  2  0
  5  3  1  0
  7  5  1  0
  8  7  1  0
  8  9  1  6
 10  9  1  0
 11 13  1  0
 11  8  1  0
 12 11  2  0
 14 25  1  0
 14 13  1  0
 14 15  1  1
 15 16  1  0
 16 24  1  0
 16 17  2  0
 17 18  1  0
 19 20  2  0
 19 18  1  0
 21 20  1  0
 22 21  2  0
 23 22  1  0
 23 24  2  0
 24 19  1  0
 25 27  1  0
 26 25  2  0
M  END
$$$$
