SCW.pdb
     RDKit          3D

 27 28  0  0  1  0  0  0  0  0999 V2000
   24.2384  -15.6951  -19.2662 O   0  0  0  0  0  0  0  0  0  0  0  0
   23.6060  -15.9706  -18.0557 C   0  0  0  0  0  0  0  0  0  0  0  0
   22.1256  -15.7951  -18.1866 C   0  0  2  0  0  0  0  0  0  0  0  0
   21.5534  -16.6198  -19.2261 N   0  0  0  0  0  0  0  0  0  0  0  0
   21.7803  -14.3737  -18.3129 C   0  0  0  0  0  0  0  0  0  0  0  0
   21.6068  -13.9497  -19.5016 O   0  0  0  0  0  0  0  0  0  0  0  0
   21.6319  -13.4732  -17.2459 N   0  0  0  0  0  0  0  0  0  0  0  0
   21.2423  -12.1064  -17.4603 C   0  0  1  0  0  0  0  0  0  0  0  0
   19.7630  -11.9913  -17.2595 C   0  0  0  0  0  0  0  0  0  0  0  0
   19.2554  -10.2560  -17.3985 S   0  0  0  0  0  0  0  0  0  0  0  0
   22.0193  -11.1754  -16.6101 C   0  0  0  0  0  0  0  0  0  0  0  0
   22.2283  -11.5150  -15.4176 O   0  0  0  0  0  0  0  0  0  0  0  0
   22.5367   -9.9481  -17.0365 N   0  0  0  0  0  0  0  0  0  0  0  0
   23.2658   -9.0962  -16.1037 C   0  0  1  0  0  0  0  0  0  0  0  0
   24.5215   -8.5743  -16.7021 C   0  0  0  0  0  0  0  0  0  0  0  0
   25.4027   -9.6848  -17.1381 C   0  0  0  0  0  0  0  0  0  0  0  0
   25.7159   -9.9519  -18.4805 C   0  0  0  0  0  0  0  0  0  0  0  0
   26.5583  -10.9736  -18.5349 N   0  0  0  0  0  0  0  0  0  0  0  0
   26.8264  -11.4076  -17.2951 C   0  0  0  0  0  0  0  0  0  0  0  0
   27.6415  -12.4556  -16.8412 C   0  0  0  0  0  0  0  0  0  0  0  0
   27.7509  -12.7226  -15.5129 C   0  0  0  0  0  0  0  0  0  0  0  0
   27.0352  -11.9289  -14.6453 C   0  0  0  0  0  0  0  0  0  0  0  0
   26.2314  -10.8949  -15.0930 C   0  0  0  0  0  0  0  0  0  0  0  0
   26.1144  -10.6151  -16.4300 C   0  0  0  0  0  0  0  0  0  0  0  0
   22.3674   -8.0855  -15.5554 C   0  0  0  0  0  0  0  0  0  0  0  0
   21.2706   -7.7542  -16.1269 O   0  0  0  0  0  0  0  0  0  0  0  0
   22.6211   -7.4057  -14.3720 O   0  0  0  0  0  0  0  0  0  0  0  0
  2  1  1  0
  3  2  1  0
  3  4  1  6
  5  6  2  0
  5  3  1  0
  7  5  1  0
  8  7  1  0
  8  9  1  1
 10  9  1  0
 11 13  1  0
 11  8  1  0
 12 11  2  0
 14 25  1  0
 14 13  1  0
 14 15  1  6
 15 16  1  0
 16 24  1  0
 16 17  2  0
 17 18  1  0
 19 20  2  0
 19 18  1  0
 21 20  1  0
 22 21  2  0
 23 22  1  0
 23 24  2  0
 24 19  1  0
 25 27  1  0
 26 25  2  0
M  END
$$$$
