SCW.pdb
     RDKit          3D

 27 28  0  0  1  0  0  0  0  0999 V2000
   25.9097  -24.3750  -17.6006 O   0  0  0  0  0  0  0  0  0  0  0  0
   25.7099  -23.1216  -17.0258 C   0  0  0  0  0  0  0  0  0  0  0  0
   26.8262  -22.1942  -17.3912 C   0  0  2  0  0  0  0  0  0  0  0  0
   27.7342  -22.7647  -18.3597 N   0  0  0  0  0  0  0  0  0  0  0  0
   27.4983  -21.6909  -16.1868 C   0  0  0  0  0  0  0  0  0  0  0  0
   28.7593  -21.5356  -16.2806 O   0  0  0  0  0  0  0  0  0  0  0  0
   26.8673  -21.3771  -14.9724 N   0  0  0  0  0  0  0  0  0  0  0  0
   27.5531  -20.6689  -13.9263 C   0  0  1  0  0  0  0  0  0  0  0  0
   28.0455  -19.3644  -14.4721 C   0  0  0  0  0  0  0  0  0  0  0  0
   26.7010  -18.1477  -14.4677 S   0  0  0  0  0  0  0  0  0  0  0  0
   26.7044  -20.5131  -12.7227 C   0  0  0  0  0  0  0  0  0  0  0  0
   25.4861  -20.8060  -12.8292 O   0  0  0  0  0  0  0  0  0  0  0  0
   27.1586  -20.0646  -11.4784 N   0  0  0  0  0  0  0  0  0  0  0  0
   26.7130  -20.7221  -10.2550 C   0  0  1  0  0  0  0  0  0  0  0  0
   27.7546  -20.6776   -9.1963 C   0  0  0  0  0  0  0  0  0  0  0  0
   27.1384  -20.6190   -7.8484 C   0  0  0  0  0  0  0  0  0  0  0  0
   25.8925  -21.1850   -7.5344 C   0  0  0  0  0  0  0  0  0  0  0  0
   25.6460  -21.0041   -6.2448 N   0  0  0  0  0  0  0  0  0  0  0  0
   26.6645  -20.3433   -5.6761 C   0  0  0  0  0  0  0  0  0  0  0  0
   26.8622  -19.9144   -4.3548 C   0  0  0  0  0  0  0  0  0  0  0  0
   27.9885  -19.2373   -4.0076 C   0  0  0  0  0  0  0  0  0  0  0  0
   28.9134  -18.9945   -4.9979 C   0  0  0  0  0  0  0  0  0  0  0  0
   28.7186  -19.4179   -6.3012 C   0  0  0  0  0  0  0  0  0  0  0  0
   27.5875  -20.1030   -6.6630 C   0  0  0  0  0  0  0  0  0  0  0  0
   25.4049  -20.2050   -9.8671 C   0  0  0  0  0  0  0  0  0  0  0  0
   25.0208  -19.0169  -10.1504 O   0  0  0  0  0  0  0  0  0  0  0  0
   24.4692  -20.9544   -9.1672 O   0  0  0  0  0  0  0  0  0  0  0  0
  2  1  1  0
  3  2  1  0
  3  4  1  6
  5  6  2  0
  5  3  1  0
  7  5  1  0
  8  7  1  0
  8  9  1  6
 10  9  1  0
 11 13  1  0
 11  8  1  0
 12 11  2  0
 14 25  1  0
 14 13  1  0
 14 15  1  1
 15 16  1  0
 16 24  1  0
 16 17  2  0
 17 18  1  0
 19 20  2  0
 19 18  1  0
 21 20  1  0
 22 21  2  0
 23 22  1  0
 23 24  2  0
 24 19  1  0
 25 27  1  0
 26 25  2  0
M  END
$$$$
