WML.pdb
     RDKit          3D

 31 32  0  0  1  0  0  0  0  0999 V2000
    6.1654  -18.3466   24.3076 N   0  0  0  0  0  0  0  0  0  0  0  0
    6.8202  -17.0643   24.1361 C   0  0  1  0  0  0  0  0  0  0  0  0
    7.1417  -16.4229   25.4777 C   0  0  0  0  0  0  0  0  0  0  0  0
    6.3044  -15.2521   25.7665 C   0  0  0  0  0  0  0  0  0  0  0  0
    5.0636  -15.2278   26.3396 C   0  0  0  0  0  0  0  0  0  0  0  0
    4.6274  -13.9516   26.4348 N   0  0  0  0  0  0  0  0  0  0  0  0
    5.5666  -13.1456   25.9319 C   0  0  0  0  0  0  0  0  0  0  0  0
    5.6073  -11.7571   25.7970 C   0  0  0  0  0  0  0  0  0  0  0  0
    6.7315  -11.2085   25.2304 C   0  0  0  0  0  0  0  0  0  0  0  0
    7.7972  -11.9845   24.8015 C   0  0  0  0  0  0  0  0  0  0  0  0
    7.7501  -13.3532   24.9377 C   0  0  0  0  0  0  0  0  0  0  0  0
    6.6292  -13.9331   25.5054 C   0  0  0  0  0  0  0  0  0  0  0  0
    8.1469  -17.3024   23.4845 C   0  0  0  0  0  0  0  0  0  0  0  0
    8.6694  -18.4213   23.4987 O   0  0  0  0  0  0  0  0  0  0  0  0
    7.5905  -12.2833   20.8097 C   0  0  0  0  0  0  0  0  0  0  0  0
    8.5135  -13.8073   20.4715 S   0  0  0  0  0  0  0  0  0  0  0  0
    9.8567  -13.9878   21.6840 C   0  0  0  0  0  0  0  0  0  0  0  0
   10.5762  -15.2813   21.3482 C   0  0  0  0  0  0  0  0  0  0  0  0
   10.1901  -16.3000   22.3616 C   0  0  2  0  0  0  0  0  0  0  0  0
    8.8587  -16.2689   22.8285 N   0  0  0  0  0  0  0  0  0  0  0  0
   11.1155  -16.3195   23.5345 C   0  0  0  0  0  0  0  0  0  0  0  0
   12.3707  -16.2299   23.3464 O   0  0  0  0  0  0  0  0  0  0  0  0
   11.6179  -13.9342   27.3935 C   0  0  0  0  0  0  0  0  0  0  0  0
   10.4999  -14.9521   27.5676 C   0  0  2  0  0  0  0  0  0  0  0  0
    9.6965  -14.7633   28.7973 C   0  0  0  0  0  0  0  0  0  0  0  0
   10.9538  -16.3219   27.2493 C   0  0  0  0  0  0  0  0  0  0  0  0
   11.6684  -16.5618   25.9750 C   0  0  2  0  0  0  0  0  0  0  0  0
   10.6847  -16.4321   24.8580 N   0  0  0  0  0  0  0  0  0  0  0  0
   12.2175  -17.9024   25.8392 C   0  0  0  0  0  0  0  0  0  0  0  0
   11.6816  -18.7650   25.1162 O   0  0  0  0  0  0  0  0  0  0  0  0
   13.3707  -18.2941   26.5088 O   0  0  0  0  0  0  0  0  0  0  0  0
  2  1  1  1
  2  3  1  0
  3  4  1  0
  4 12  1  0
  4  5  2  0
  5  6  1  0
  7  6  1  0
  7  8  2  0
  9  8  1  0
 10  9  2  0
 11 10  1  0
 11 12  2  0
 12  7  1  0
 13  2  1  0
 13 14  2  0
 16 17  1  0
 16 15  1  0
 17 18  1  0
 19 18  1  6
 19 20  1  0
 20 13  1  0
 21 19  1  0
 22 21  2  0
 24 26  1  0
 24 23  1  1
 25 24  1  0
 27 28  1  0
 27 26  1  1
 28 21  1  0
 29 27  1  0
 30 29  2  0
 31 29  1  0
M  END
$$$$
