WML.pdb
     RDKit          3D

 31 32  0  0  1  0  0  0  0  0999 V2000
    6.5742  -18.9476   25.2468 N   0  0  0  0  0  0  0  0  0  0  0  0
    6.7667  -17.6116   24.7170 C   0  0  1  0  0  0  0  0  0  0  0  0
    7.1976  -16.6408   25.8063 C   0  0  0  0  0  0  0  0  0  0  0  0
    6.2494  -15.5361   25.9949 C   0  0  0  0  0  0  0  0  0  0  0  0
    4.8925  -15.6101   26.1434 C   0  0  0  0  0  0  0  0  0  0  0  0
    4.3792  -14.3684   26.2937 N   0  0  0  0  0  0  0  0  0  0  0  0
    5.3826  -13.4878   26.2451 C   0  0  0  0  0  0  0  0  0  0  0  0
    5.3873  -12.0960   26.3481 C   0  0  0  0  0  0  0  0  0  0  0  0
    6.6001  -11.4583   26.2580 C   0  0  0  0  0  0  0  0  0  0  0  0
    7.7871  -12.1499   26.0720 C   0  0  0  0  0  0  0  0  0  0  0  0
    7.7750  -13.5224   25.9714 C   0  0  0  0  0  0  0  0  0  0  0  0
    6.5666  -14.1912   26.0586 C   0  0  0  0  0  0  0  0  0  0  0  0
    7.9098  -17.6539   23.7512 C   0  0  0  0  0  0  0  0  0  0  0  0
    8.6715  -18.6251   23.7113 O   0  0  0  0  0  0  0  0  0  0  0  0
    9.7424  -11.9725   19.6948 C   0  0  0  0  0  0  0  0  0  0  0  0
    8.3269  -13.0277   20.1092 S   0  0  0  0  0  0  0  0  0  0  0  0
    8.7645  -14.1162   21.4986 C   0  0  0  0  0  0  0  0  0  0  0  0
    9.1699  -15.4494   20.8971 C   0  0  0  0  0  0  0  0  0  0  0  0
    9.2902  -16.4369   22.0036 C   0  0  2  0  0  0  0  0  0  0  0  0
    8.1702  -16.5951   22.8476 N   0  0  0  0  0  0  0  0  0  0  0  0
   10.5036  -16.2085   22.8449 C   0  0  0  0  0  0  0  0  0  0  0  0
   11.6226  -15.9784   22.2848 O   0  0  0  0  0  0  0  0  0  0  0  0
   11.1674  -13.4561   26.3273 C   0  0  0  0  0  0  0  0  0  0  0  0
   10.5981  -14.7591   26.8698 C   0  0  2  0  0  0  0  0  0  0  0  0
   10.1770  -14.6909   28.2880 C   0  0  0  0  0  0  0  0  0  0  0  0
   11.4041  -15.9243   26.4496 C   0  0  0  0  0  0  0  0  0  0  0  0
   11.7577  -16.0725   25.0196 C   0  0  2  0  0  0  0  0  0  0  0  0
   10.4924  -16.2309   24.2410 N   0  0  0  0  0  0  0  0  0  0  0  0
   12.5380  -17.2624   24.7156 C   0  0  0  0  0  0  0  0  0  0  0  0
   12.0534  -18.2287   24.0947 O   0  0  0  0  0  0  0  0  0  0  0  0
   13.8675  -17.3861   25.1012 O   0  0  0  0  0  0  0  0  0  0  0  0
  2  1  1  1
  2  3  1  0
  3  4  1  0
  4 12  1  0
  4  5  2  0
  5  6  1  0
  7  6  1  0
  7  8  2  0
  9  8  1  0
 10  9  2  0
 11 10  1  0
 11 12  2  0
 12  7  1  0
 13  2  1  0
 13 14  2  0
 16 17  1  0
 16 15  1  0
 17 18  1  0
 19 18  1  6
 19 20  1  0
 20 13  1  0
 21 19  1  0
 22 21  2  0
 24 26  1  0
 24 23  1  1
 25 24  1  0
 27 28  1  0
 27 26  1  1
 28 21  1  0
 29 27  1  0
 30 29  2  0
 31 29  1  0
M  END
$$$$
