WML.pdb
     RDKit          3D

 31 32  0  0  1  0  0  0  0  0999 V2000
    6.0695  -18.3756   24.7354 N   0  0  0  0  0  0  0  0  0  0  0  0
    6.6720  -17.0873   24.4532 C   0  0  1  0  0  0  0  0  0  0  0  0
    7.2466  -16.4569   25.7130 C   0  0  0  0  0  0  0  0  0  0  0  0
    6.5404  -15.2336   26.1130 C   0  0  0  0  0  0  0  0  0  0  0  0
    5.2468  -15.1114   26.5376 C   0  0  0  0  0  0  0  0  0  0  0  0
    4.9749  -13.8158   26.8126 N   0  0  0  0  0  0  0  0  0  0  0  0
    6.0730  -13.0937   26.5730 C   0  0  0  0  0  0  0  0  0  0  0  0
    6.3158  -11.7250   26.6973 C   0  0  0  0  0  0  0  0  0  0  0  0
    7.5701  -11.2719   26.3696 C   0  0  0  0  0  0  0  0  0  0  0  0
    8.5722  -12.1231   25.9300 C   0  0  0  0  0  0  0  0  0  0  0  0
    8.3256  -13.4717   25.8099 C   0  0  0  0  0  0  0  0  0  0  0  0
    7.0702  -13.9560   26.1333 C   0  0  0  0  0  0  0  0  0  0  0  0
    7.8467  -17.3100   23.5522 C   0  0  0  0  0  0  0  0  0  0  0  0
    8.4461  -18.3897   23.5457 O   0  0  0  0  0  0  0  0  0  0  0  0
    9.3969  -12.4155   19.5747 C   0  0  0  0  0  0  0  0  0  0  0  0
    7.9920  -13.4620   20.0437 S   0  0  0  0  0  0  0  0  0  0  0  0
    8.5383  -15.1913   20.1776 C   0  0  0  0  0  0  0  0  0  0  0  0
    9.7934  -15.1871   21.0310 C   0  0  0  0  0  0  0  0  0  0  0  0
    9.6141  -16.1857   22.1194 C   0  0  2  0  0  0  0  0  0  0  0  0
    8.3221  -16.3056   22.6744 N   0  0  0  0  0  0  0  0  0  0  0  0
   10.6032  -16.0102   23.2254 C   0  0  0  0  0  0  0  0  0  0  0  0
   11.6719  -15.3528   23.0146 O   0  0  0  0  0  0  0  0  0  0  0  0
   10.5116  -13.5862   26.8185 C   0  0  0  0  0  0  0  0  0  0  0  0
    9.7434  -14.8735   27.0812 C   0  0  2  0  0  0  0  0  0  0  0  0
    8.9016  -14.8375   28.2991 C   0  0  0  0  0  0  0  0  0  0  0  0
   10.5879  -16.0671   26.8670 C   0  0  0  0  0  0  0  0  0  0  0  0
   11.3693  -16.1763   25.6142 C   0  0  2  0  0  0  0  0  0  0  0  0
   10.4295  -16.5326   24.5087 N   0  0  0  0  0  0  0  0  0  0  0  0
   12.3641  -17.2381   25.6192 C   0  0  0  0  0  0  0  0  0  0  0  0
   13.4355  -17.1359   26.2482 O   0  0  0  0  0  0  0  0  0  0  0  0
   12.1732  -18.4255   24.9224 O   0  0  0  0  0  0  0  0  0  0  0  0
  2  1  1  1
  2  3  1  0
  3  4  1  0
  4 12  1  0
  4  5  2  0
  5  6  1  0
  7  6  1  0
  7  8  2  0
  9  8  1  0
 10  9  2  0
 11 10  1  0
 11 12  2  0
 12  7  1  0
 13  2  1  0
 13 14  2  0
 16 17  1  0
 16 15  1  0
 17 18  1  0
 19 18  1  6
 19 20  1  0
 20 13  1  0
 21 19  1  0
 22 21  2  0
 24 26  1  0
 24 23  1  1
 25 24  1  0
 27 28  1  0
 27 26  1  1
 28 21  1  0
 29 27  1  0
 30 29  2  0
 31 29  1  0
M  END
$$$$
