WML.pdb
     RDKit          3D

 31 32  0  0  1  0  0  0  0  0999 V2000
   10.3537  -17.5950   21.5429 N   0  0  0  0  0  0  0  0  0  0  0  0
    9.4876  -16.5144   21.9727 C   0  0  1  0  0  0  0  0  0  0  0  0
    8.0286  -16.8196   21.6680 C   0  0  0  0  0  0  0  0  0  0  0  0
    7.3784  -15.7686   20.8756 C   0  0  0  0  0  0  0  0  0  0  0  0
    6.0963  -15.7459   20.4019 C   0  0  0  0  0  0  0  0  0  0  0  0
    5.8807  -14.6003   19.7170 N   0  0  0  0  0  0  0  0  0  0  0  0
    7.0041  -13.8776   19.7385 C   0  0  0  0  0  0  0  0  0  0  0  0
    7.3036  -12.6314   19.1862 C   0  0  0  0  0  0  0  0  0  0  0  0
    8.5707  -12.1397   19.3824 C   0  0  0  0  0  0  0  0  0  0  0  0
    9.5317  -12.8369   20.0981 C   0  0  0  0  0  0  0  0  0  0  0  0
    9.2293  -14.0653   20.6399 C   0  0  0  0  0  0  0  0  0  0  0  0
    7.9598  -14.5851   20.4577 C   0  0  0  0  0  0  0  0  0  0  0  0
    9.5676  -16.4189   23.4646 C   0  0  0  0  0  0  0  0  0  0  0  0
   10.6005  -16.7292   24.0661 O   0  0  0  0  0  0  0  0  0  0  0  0
    8.3674  -11.7959   27.1025 C   0  0  0  0  0  0  0  0  0  0  0  0
    6.7498  -12.4091   26.5582 S   0  0  0  0  0  0  0  0  0  0  0  0
    6.9810  -13.7598   25.3628 C   0  0  0  0  0  0  0  0  0  0  0  0
    7.2488  -15.0162   26.1710 C   0  0  0  0  0  0  0  0  0  0  0  0
    8.4728  -15.6630   25.6257 C   0  0  2  0  0  0  0  0  0  0  0  0
    8.4760  -15.9737   24.2491 N   0  0  0  0  0  0  0  0  0  0  0  0
    8.8703  -16.8783   26.3986 C   0  0  0  0  0  0  0  0  0  0  0  0
    7.9771  -17.5741   26.9792 O   0  0  0  0  0  0  0  0  0  0  0  0
   11.2138  -20.2877   25.1002 C   0  0  0  0  0  0  0  0  0  0  0  0
   12.2295  -19.3042   25.6635 C   0  0  2  0  0  0  0  0  0  0  0  0
   13.6371  -19.6454   25.3546 C   0  0  0  0  0  0  0  0  0  0  0  0
   11.9064  -18.9215   27.0537 C   0  0  0  0  0  0  0  0  0  0  0  0
   10.5253  -18.4980   27.3777 C   0  0  2  0  0  0  0  0  0  0  0  0
   10.1905  -17.3139   26.5303 N   0  0  0  0  0  0  0  0  0  0  0  0
   10.3437  -18.0436   28.7479 C   0  0  0  0  0  0  0  0  0  0  0  0
   10.2549  -18.8414   29.7016 O   0  0  0  0  0  0  0  0  0  0  0  0
   10.2598  -16.6937   29.0680 O   0  0  0  0  0  0  0  0  0  0  0  0
  2  1  1  1
  2  3  1  0
  3  4  1  0
  4 12  1  0
  4  5  2  0
  5  6  1  0
  7  6  1  0
  7  8  2  0
  9  8  1  0
 10  9  2  0
 11 10  1  0
 11 12  2  0
 12  7  1  0
 13  2  1  0
 13 14  2  0
 16 17  1  0
 16 15  1  0
 17 18  1  0
 19 18  1  1
 19 20  1  0
 20 13  1  0
 21 19  1  0
 22 21  2  0
 24 26  1  0
 24 23  1  1
 25 24  1  0
 27 28  1  0
 27 26  1  1
 28 21  1  0
 29 27  1  0
 30 29  2  0
 31 29  1  0
M  END
$$$$
