WML.pdb
     RDKit          3D

 31 32  0  0  1  0  0  0  0  0999 V2000
    6.0038  -17.3852   23.6172 N   0  0  0  0  0  0  0  0  0  0  0  0
    6.9252  -16.4124   24.1715 C   0  0  1  0  0  0  0  0  0  0  0  0
    6.7150  -16.2409   25.6686 C   0  0  0  0  0  0  0  0  0  0  0  0
    5.9913  -15.0092   26.0066 C   0  0  0  0  0  0  0  0  0  0  0  0
    4.7629  -14.8915   26.5947 C   0  0  0  0  0  0  0  0  0  0  0  0
    4.4465  -13.5848   26.7381 N   0  0  0  0  0  0  0  0  0  0  0  0
    5.4514  -12.8511   26.2519 C   0  0  0  0  0  0  0  0  0  0  0  0
    5.6184  -11.4683   26.1636 C   0  0  0  0  0  0  0  0  0  0  0  0
    6.7833  -11.0055   25.6027 C   0  0  0  0  0  0  0  0  0  0  0  0
    7.7695  -11.8604   25.1354 C   0  0  0  0  0  0  0  0  0  0  0  0
    7.5982  -13.2229   25.2258 C   0  0  0  0  0  0  0  0  0  0  0  0
    6.4336  -13.7172   25.7866 C   0  0  0  0  0  0  0  0  0  0  0  0
    8.3143  -16.9518   24.0272 C   0  0  0  0  0  0  0  0  0  0  0  0
    8.9103  -17.4371   24.9938 O   0  0  0  0  0  0  0  0  0  0  0  0
    7.2716  -13.1648   18.9168 C   0  0  0  0  0  0  0  0  0  0  0  0
    8.5840  -13.1661   20.1684 S   0  0  0  0  0  0  0  0  0  0  0  0
    8.7756  -14.8417   20.8485 C   0  0  0  0  0  0  0  0  0  0  0  0
    9.8083  -14.7470   21.9567 C   0  0  0  0  0  0  0  0  0  0  0  0
   10.1049  -16.1263   22.4296 C   0  0  2  0  0  0  0  0  0  0  0  0
    9.0039  -16.9320   22.7906 N   0  0  0  0  0  0  0  0  0  0  0  0
   11.1065  -16.1480   23.5380 C   0  0  0  0  0  0  0  0  0  0  0  0
   12.2732  -15.6805   23.3403 O   0  0  0  0  0  0  0  0  0  0  0  0
   11.5117  -13.9757   27.1386 C   0  0  0  0  0  0  0  0  0  0  0  0
   10.5885  -15.1587   27.3929 C   0  0  2  0  0  0  0  0  0  0  0  0
    9.7578  -15.0264   28.6117 C   0  0  0  0  0  0  0  0  0  0  0  0
   11.2773  -16.4469   27.1696 C   0  0  0  0  0  0  0  0  0  0  0  0
   11.9085  -16.7034   25.8552 C   0  0  2  0  0  0  0  0  0  0  0  0
   10.8418  -16.6600   24.8099 N   0  0  0  0  0  0  0  0  0  0  0  0
   12.5086  -18.0226   25.7259 C   0  0  0  0  0  0  0  0  0  0  0  0
   12.0177  -18.9019   24.9912 O   0  0  0  0  0  0  0  0  0  0  0  0
   13.6632  -18.3740   26.4152 O   0  0  0  0  0  0  0  0  0  0  0  0
  2  1  1  1
  2  3  1  0
  3  4  1  0
  4 12  1  0
  4  5  2  0
  5  6  1  0
  7  6  1  0
  7  8  2  0
  9  8  1  0
 10  9  2  0
 11 10  1  0
 11 12  2  0
 12  7  1  0
 13  2  1  0
 13 14  2  0
 16 17  1  0
 16 15  1  0
 17 18  1  0
 19 18  1  1
 19 20  1  0
 20 13  1  0
 21 19  1  0
 22 21  2  0
 24 26  1  0
 24 23  1  1
 25 24  1  0
 27 28  1  0
 27 26  1  1
 28 21  1  0
 29 27  1  0
 30 29  2  0
 31 29  1  0
M  END
$$$$
