WCI.pdb
     RDKit          3D

 29 30  0  0  1  0  0  0  0  0999 V2000
    7.2212  -16.2785   21.0198 N   0  0  0  0  0  0  0  0  0  0  0  0
    8.3056  -15.7027   21.7447 C   0  0  1  0  0  0  0  0  0  0  0  0
    8.0104  -14.3740   22.3893 C   0  0  0  0  0  0  0  0  0  0  0  0
    7.2019  -14.4402   23.6037 C   0  0  0  0  0  0  0  0  0  0  0  0
    6.6307  -15.6004   24.1267 C   0  0  0  0  0  0  0  0  0  0  0  0
    5.9443  -15.3038   25.2322 N   0  0  0  0  0  0  0  0  0  0  0  0
    6.0353  -13.9919   25.4674 C   0  0  0  0  0  0  0  0  0  0  0  0
    5.5082  -13.2131   26.4788 C   0  0  0  0  0  0  0  0  0  0  0  0
    5.7787  -11.8621   26.4655 C   0  0  0  0  0  0  0  0  0  0  0  0
    6.5445  -11.2969   25.4866 C   0  0  0  0  0  0  0  0  0  0  0  0
    7.0706  -12.0785   24.4762 C   0  0  0  0  0  0  0  0  0  0  0  0
    6.8215  -13.4300   24.4562 C   0  0  0  0  0  0  0  0  0  0  0  0
    8.8943  -16.6576   22.7175 C   0  0  0  0  0  0  0  0  0  0  0  0
    8.1510  -17.5505   23.1982 O   0  0  0  0  0  0  0  0  0  0  0  0
   10.2502  -16.6201   23.1365 N   0  0  0  0  0  0  0  0  0  0  0  0
   10.7794  -17.5679   24.0676 C   0  0  1  0  0  0  0  0  0  0  0  0
   11.8310  -18.4823   23.4421 C   0  0  0  0  0  0  0  0  0  0  0  0
   12.3548  -19.6464   24.7309 S   0  0  0  0  0  0  0  0  0  0  0  0
   11.3292  -16.9115   25.2906 C   0  0  0  0  0  0  0  0  0  0  0  0
   12.3756  -16.2180   25.2380 O   0  0  0  0  0  0  0  0  0  0  0  0
    9.8285  -13.0373   27.8027 C   0  0  0  0  0  0  0  0  0  0  0  0
   10.7061  -14.1575   27.2860 C   0  0  0  0  0  0  0  0  0  0  0  0
   10.6391  -15.3027   28.2822 C   0  0  2  0  0  0  0  0  0  0  0  0
   11.3376  -14.8608   29.5516 C   0  0  0  0  0  0  0  0  0  0  0  0
   11.3598  -16.5259   27.7563 C   0  0  2  0  0  0  0  0  0  0  0  0
   10.6980  -17.0411   26.5567 N   0  0  0  0  0  0  0  0  0  0  0  0
   11.3791  -17.5422   28.8299 C   0  0  0  0  0  0  0  0  0  0  0  0
   10.5621  -18.4866   28.8234 O   0  0  0  0  0  0  0  0  0  0  0  0
   12.2993  -17.4658   29.8570 O   0  0  0  0  0  0  0  0  0  0  0  0
  2  1  1  1
  2 13  1  0
  3  4  1  0
  3  2  1  0
  4 12  1  0
  5  4  2  0
  5  6  1  0
  6  7  1  0
  7  8  1  0
  8  9  2  0
 10  9  1  0
 11 10  2  0
 12  7  2  0
 12 11  1  0
 13 14  2  0
 15 13  1  0
 15 16  1  0
 16 17  1  6
 17 18  1  0
 19 16  1  0
 19 20  2  0
 21 22  1  0
 23 22  1  0
 23 25  1  0
 23 24  1  1
 25 26  1  6
 26 19  1  0
 27 25  1  0
 28 27  2  0
 29 27  1  0
M  END
$$$$
