WCI.pdb
     RDKit          3D

 29 30  0  0  1  0  0  0  0  0999 V2000
    6.4521  -18.1734   24.2093 N   0  0  0  0  0  0  0  0  0  0  0  0
    7.3482  -17.0677   24.2948 C   0  0  1  0  0  0  0  0  0  0  0  0
    7.3930  -16.3825   25.6351 C   0  0  0  0  0  0  0  0  0  0  0  0
    6.5522  -15.1942   25.7521 C   0  0  0  0  0  0  0  0  0  0  0  0
    5.2158  -15.1914   26.1518 C   0  0  0  0  0  0  0  0  0  0  0  0
    4.7444  -13.9429   26.1336 N   0  0  0  0  0  0  0  0  0  0  0  0
    5.7135  -13.1129   25.7379 C   0  0  0  0  0  0  0  0  0  0  0  0
    5.7197  -11.7427   25.5652 C   0  0  0  0  0  0  0  0  0  0  0  0
    6.8886  -11.1471   25.1442 C   0  0  0  0  0  0  0  0  0  0  0  0
    8.0156  -11.8787   24.9013 C   0  0  0  0  0  0  0  0  0  0  0  0
    8.0064  -13.2492   25.0749 C   0  0  0  0  0  0  0  0  0  0  0  0
    6.8583  -13.8784   25.4934 C   0  0  0  0  0  0  0  0  0  0  0  0
    8.7107  -17.4174   23.8195 C   0  0  0  0  0  0  0  0  0  0  0  0
    9.1574  -18.5623   24.0851 O   0  0  0  0  0  0  0  0  0  0  0  0
    9.5393  -16.5318   23.0814 N   0  0  0  0  0  0  0  0  0  0  0  0
   10.9644  -16.6508   23.0858 C   0  0  1  0  0  0  0  0  0  0  0  0
   11.6404  -15.6553   22.1449 C   0  0  0  0  0  0  0  0  0  0  0  0
   10.8011  -15.7876   20.5422 S   0  0  0  0  0  0  0  0  0  0  0  0
   11.5368  -16.5319   24.4595 C   0  0  0  0  0  0  0  0  0  0  0  0
   12.6117  -15.9132   24.6613 O   0  0  0  0  0  0  0  0  0  0  0  0
    9.9486  -13.4804   27.9160 C   0  0  0  0  0  0  0  0  0  0  0  0
   10.9227  -14.4241   27.2434 C   0  0  0  0  0  0  0  0  0  0  0  0
   10.5659  -15.8410   27.6599 C   0  0  2  0  0  0  0  0  0  0  0  0
   10.8431  -15.9772   29.1429 C   0  0  0  0  0  0  0  0  0  0  0  0
   11.4218  -16.8555   26.9316 C   0  0  2  0  0  0  0  0  0  0  0  0
   10.8961  -17.1079   25.5890 N   0  0  0  0  0  0  0  0  0  0  0  0
   11.4438  -18.0963   27.7351 C   0  0  0  0  0  0  0  0  0  0  0  0
   10.8139  -19.1066   27.3583 O   0  0  0  0  0  0  0  0  0  0  0  0
   12.1600  -18.1605   28.9142 O   0  0  0  0  0  0  0  0  0  0  0  0
  2  1  1  1
  2 13  1  0
  3  4  1  0
  3  2  1  0
  4 12  1  0
  5  4  2  0
  5  6  1  0
  6  7  1  0
  7  8  1  0
  8  9  2  0
 10  9  1  0
 11 10  2  0
 12  7  2  0
 12 11  1  0
 13 14  2  0
 15 13  1  0
 15 16  1  0
 16 17  1  6
 17 18  1  0
 19 16  1  0
 19 20  2  0
 21 22  1  0
 23 22  1  0
 23 25  1  0
 23 24  1  1
 25 26  1  6
 26 19  1  0
 27 25  1  0
 28 27  2  0
 29 27  1  0
M  END
$$$$
