WCI.pdb
     RDKit          3D

 29 30  0  0  1  0  0  0  0  0999 V2000
    6.7230  -17.2091   25.2091 N   0  0  0  0  0  0  0  0  0  0  0  0
    7.5301  -16.6909   24.1541 C   0  0  1  0  0  0  0  0  0  0  0  0
    7.7865  -15.2081   24.2140 C   0  0  0  0  0  0  0  0  0  0  0  0
    6.8582  -14.4518   25.0502 C   0  0  0  0  0  0  0  0  0  0  0  0
    5.6728  -14.9513   25.5896 C   0  0  0  0  0  0  0  0  0  0  0  0
    5.0584  -13.9935   26.2871 N   0  0  0  0  0  0  0  0  0  0  0  0
    5.7873  -12.8751   26.2344 C   0  0  0  0  0  0  0  0  0  0  0  0
    5.5782  -11.6292   26.7924 C   0  0  0  0  0  0  0  0  0  0  0  0
    6.5221  -10.6510   26.5677 C   0  0  0  0  0  0  0  0  0  0  0  0
    7.6367  -10.8932   25.8172 C   0  0  0  0  0  0  0  0  0  0  0  0
    7.8432  -12.1406   25.2603 C   0  0  0  0  0  0  0  0  0  0  0  0
    6.9228  -13.1411   25.4624 C   0  0  0  0  0  0  0  0  0  0  0  0
    8.7943  -17.4530   23.9945 C   0  0  0  0  0  0  0  0  0  0  0  0
    9.0090  -18.4178   24.7717 O   0  0  0  0  0  0  0  0  0  0  0  0
    9.7760  -17.1544   23.0133 N   0  0  0  0  0  0  0  0  0  0  0  0
   11.1516  -17.5027   23.1909 C   0  0  1  0  0  0  0  0  0  0  0  0
   12.0163  -17.1117   21.9939 C   0  0  0  0  0  0  0  0  0  0  0  0
   11.1521  -17.6863   20.5061 S   0  0  0  0  0  0  0  0  0  0  0  0
   11.7213  -16.9310   24.4469 C   0  0  0  0  0  0  0  0  0  0  0  0
   12.1575  -15.7531   24.4820 O   0  0  0  0  0  0  0  0  0  0  0  0
   10.3921  -13.6469   27.6490 C   0  0  0  0  0  0  0  0  0  0  0  0
   11.5149  -14.5864   27.2639 C   0  0  0  0  0  0  0  0  0  0  0  0
   10.9476  -15.9945   27.2028 C   0  0  2  0  0  0  0  0  0  0  0  0
   10.3486  -16.3173   28.5562 C   0  0  0  0  0  0  0  0  0  0  0  0
   12.0355  -17.0092   26.9216 C   0  0  2  0  0  0  0  0  0  0  0  0
   11.7941  -17.6874   25.6471 N   0  0  0  0  0  0  0  0  0  0  0  0
   12.0603  -17.9751   28.0406 C   0  0  0  0  0  0  0  0  0  0  0  0
   11.4178  -19.0435   27.9700 O   0  0  0  0  0  0  0  0  0  0  0  0
   12.7932  -17.7139   29.1817 O   0  0  0  0  0  0  0  0  0  0  0  0
  2  1  1  1
  2 13  1  0
  3  4  1  0
  3  2  1  0
  4 12  1  0
  5  4  2  0
  5  6  1  0
  6  7  1  0
  7  8  1  0
  8  9  2  0
 10  9  1  0
 11 10  2  0
 12  7  2  0
 12 11  1  0
 13 14  2  0
 15 13  1  0
 15 16  1  0
 16 17  1  6
 17 18  1  0
 19 16  1  0
 19 20  2  0
 21 22  1  0
 23 22  1  0
 23 25  1  0
 23 24  1  1
 25 26  1  6
 26 19  1  0
 27 25  1  0
 28 27  2  0
 29 27  1  0
M  END
$$$$
