WCI.pdb
     RDKit          3D

 29 30  0  0  1  0  0  0  0  0999 V2000
    5.6097  -18.6257   20.9259 N   0  0  0  0  0  0  0  0  0  0  0  0
    6.3372  -17.6362   21.6503 C   0  0  1  0  0  0  0  0  0  0  0  0
    5.9338  -16.2125   21.3700 C   0  0  0  0  0  0  0  0  0  0  0  0
    6.6898  -15.5514   20.3097 C   0  0  0  0  0  0  0  0  0  0  0  0
    7.0645  -16.1409   19.1023 C   0  0  0  0  0  0  0  0  0  0  0  0
    7.7576  -15.2654   18.3713 N   0  0  0  0  0  0  0  0  0  0  0  0
    7.8598  -14.1152   19.0432 C   0  0  0  0  0  0  0  0  0  0  0  0
    8.4710  -12.9221   18.7113 C   0  0  0  0  0  0  0  0  0  0  0  0
    8.4085  -11.8867   19.6181 C   0  0  0  0  0  0  0  0  0  0  0  0
    7.7638  -12.0230   20.8140 C   0  0  0  0  0  0  0  0  0  0  0  0
    7.1532  -13.2176   21.1433 C   0  0  0  0  0  0  0  0  0  0  0  0
    7.1954  -14.2730   20.2639 C   0  0  0  0  0  0  0  0  0  0  0  0
    6.3576  -17.9163   23.1083 C   0  0  0  0  0  0  0  0  0  0  0  0
    5.2580  -18.0386   23.7055 O   0  0  0  0  0  0  0  0  0  0  0  0
    7.5491  -18.0539   23.8677 N   0  0  0  0  0  0  0  0  0  0  0  0
    7.5617  -17.8941   25.2888 C   0  0  1  0  0  0  0  0  0  0  0  0
    7.7913  -19.2118   26.0266 C   0  0  0  0  0  0  0  0  0  0  0  0
    9.3999  -19.8500   25.4827 S   0  0  0  0  0  0  0  0  0  0  0  0
    8.5572  -16.8743   25.7336 C   0  0  0  0  0  0  0  0  0  0  0  0
    9.5312  -16.5599   25.0047 O   0  0  0  0  0  0  0  0  0  0  0  0
    7.4529  -12.1039   26.8235 C   0  0  0  0  0  0  0  0  0  0  0  0
    8.3246  -13.2753   26.4238 C   0  0  0  0  0  0  0  0  0  0  0  0
    8.8664  -13.9108   27.6930 C   0  0  2  0  0  0  0  0  0  0  0  0
    9.9596  -13.0138   28.2362 C   0  0  0  0  0  0  0  0  0  0  0  0
    9.4765  -15.2666   27.4067 C   0  0  2  0  0  0  0  0  0  0  0  0
    8.4471  -16.2200   26.9898 N   0  0  0  0  0  0  0  0  0  0  0  0
   10.1620  -15.7278   28.6327 C   0  0  0  0  0  0  0  0  0  0  0  0
   11.3703  -15.4723   28.8174 O   0  0  0  0  0  0  0  0  0  0  0  0
    9.4799  -16.4476   29.5939 O   0  0  0  0  0  0  0  0  0  0  0  0
  2  1  1  6
  2 13  1  0
  3  4  1  0
  3  2  1  0
  4 12  1  0
  5  4  2  0
  5  6  1  0
  6  7  1  0
  7  8  1  0
  8  9  2  0
 10  9  1  0
 11 10  2  0
 12  7  2  0
 12 11  1  0
 13 14  2  0
 15 13  1  0
 15 16  1  0
 16 17  1  1
 17 18  1  0
 19 16  1  0
 19 20  2  0
 21 22  1  0
 23 22  1  0
 23 25  1  0
 23 24  1  6
 25 26  1  1
 26 19  1  0
 27 25  1  0
 28 27  2  0
 29 27  1  0
M  END
$$$$
