WCI.pdb
     RDKit          3D

 29 30  0  0  1  0  0  0  0  0999 V2000
    6.3266  -17.9403   24.5472 N   0  0  0  0  0  0  0  0  0  0  0  0
    7.3283  -16.9292   24.4626 C   0  0  1  0  0  0  0  0  0  0  0  0
    7.5638  -16.1541   25.7322 C   0  0  0  0  0  0  0  0  0  0  0  0
    6.6532  -15.0338   25.9524 C   0  0  0  0  0  0  0  0  0  0  0  0
    5.4973  -15.0790   26.7320 C   0  0  0  0  0  0  0  0  0  0  0  0
    4.8916  -13.8900   26.7060 N   0  0  0  0  0  0  0  0  0  0  0  0
    5.5978  -13.0536   25.9403 C   0  0  0  0  0  0  0  0  0  0  0  0
    5.3868  -11.7293   25.6099 C   0  0  0  0  0  0  0  0  0  0  0  0
    6.3042  -11.1114   24.7883 C   0  0  0  0  0  0  0  0  0  0  0  0
    7.3950  -11.7776   24.3079 C   0  0  0  0  0  0  0  0  0  0  0  0
    7.6035  -13.1023   24.6401 C   0  0  0  0  0  0  0  0  0  0  0  0
    6.7091  -13.7519   25.4570 C   0  0  0  0  0  0  0  0  0  0  0  0
    8.6006  -17.4514   23.9030 C   0  0  0  0  0  0  0  0  0  0  0  0
    8.9158  -18.6424   24.1540 O   0  0  0  0  0  0  0  0  0  0  0  0
    9.4828  -16.6820   23.0997 N   0  0  0  0  0  0  0  0  0  0  0  0
   10.8996  -16.8721   23.1390 C   0  0  1  0  0  0  0  0  0  0  0  0
   11.6342  -16.0360   22.0927 C   0  0  0  0  0  0  0  0  0  0  0  0
   10.4391  -15.6601   20.7808 S   0  0  0  0  0  0  0  0  0  0  0  0
   11.4667  -16.6140   24.4957 C   0  0  0  0  0  0  0  0  0  0  0  0
   12.4757  -15.8806   24.6465 O   0  0  0  0  0  0  0  0  0  0  0  0
   10.2619  -13.5939   28.3706 C   0  0  0  0  0  0  0  0  0  0  0  0
   10.5674  -14.5315   27.2220 C   0  0  0  0  0  0  0  0  0  0  0  0
   10.5162  -15.9544   27.7522 C   0  0  2  0  0  0  0  0  0  0  0  0
   10.9752  -15.9331   29.1957 C   0  0  0  0  0  0  0  0  0  0  0  0
   11.4531  -16.8585   26.9795 C   0  0  2  0  0  0  0  0  0  0  0  0
   10.8945  -17.1815   25.6656 N   0  0  0  0  0  0  0  0  0  0  0  0
   11.6707  -18.0827   27.7794 C   0  0  0  0  0  0  0  0  0  0  0  0
   12.4424  -18.0693   28.7611 O   0  0  0  0  0  0  0  0  0  0  0  0
   11.0256  -19.2603   27.4563 O   0  0  0  0  0  0  0  0  0  0  0  0
  2  1  1  1
  2 13  1  0
  3  4  1  0
  3  2  1  0
  4 12  1  0
  5  4  2  0
  5  6  1  0
  6  7  1  0
  7  8  1  0
  8  9  2  0
 10  9  1  0
 11 10  2  0
 12  7  2  0
 12 11  1  0
 13 14  2  0
 15 13  1  0
 15 16  1  0
 16 17  1  6
 17 18  1  0
 19 16  1  0
 19 20  2  0
 21 22  1  0
 23 22  1  0
 23 25  1  0
 23 24  1  1
 25 26  1  6
 26 19  1  0
 27 25  1  0
 28 27  2  0
 29 27  1  0
M  END
$$$$
