WCI.pdb
     RDKit          3D

 29 30  0  0  1  0  0  0  0  0999 V2000
    6.3357  -17.4627   25.5378 N   0  0  0  0  0  0  0  0  0  0  0  0
    6.9078  -16.4034   24.7741 C   0  0  1  0  0  0  0  0  0  0  0  0
    8.1163  -15.7500   25.3910 C   0  0  0  0  0  0  0  0  0  0  0  0
    7.8267  -14.7764   26.4403 C   0  0  0  0  0  0  0  0  0  0  0  0
    8.0068  -14.9901   27.8069 C   0  0  0  0  0  0  0  0  0  0  0  0
    7.6295  -13.9039   28.4847 N   0  0  0  0  0  0  0  0  0  0  0  0
    7.2051  -12.9743   27.6242 C   0  0  0  0  0  0  0  0  0  0  0  0
    6.7239  -11.6968   27.8335 C   0  0  0  0  0  0  0  0  0  0  0  0
    6.3596  -10.9522   26.7330 C   0  0  0  0  0  0  0  0  0  0  0  0
    6.4665  -11.4509   25.4664 C   0  0  0  0  0  0  0  0  0  0  0  0
    6.9482  -12.7291   25.2600 C   0  0  0  0  0  0  0  0  0  0  0  0
    7.3209  -13.5017   26.3339 C   0  0  0  0  0  0  0  0  0  0  0  0
    7.1687  -16.8076   23.3694 C   0  0  0  0  0  0  0  0  0  0  0  0
    7.3843  -18.0232   23.1309 O   0  0  0  0  0  0  0  0  0  0  0  0
    7.1887  -15.8992   22.2786 N   0  0  0  0  0  0  0  0  0  0  0  0
    8.0239  -16.1084   21.1368 C   0  0  1  0  0  0  0  0  0  0  0  0
    7.8449  -15.0282   20.0717 C   0  0  0  0  0  0  0  0  0  0  0  0
    8.7360  -15.5884   18.5942 S   0  0  0  0  0  0  0  0  0  0  0  0
    9.4649  -16.2338   21.5065 C   0  0  0  0  0  0  0  0  0  0  0  0
   10.0538  -15.3187   22.1345 O   0  0  0  0  0  0  0  0  0  0  0  0
   11.5263  -19.5853   24.6313 C   0  0  0  0  0  0  0  0  0  0  0  0
   11.3056  -18.3450   23.7919 C   0  0  0  0  0  0  0  0  0  0  0  0
   11.9507  -18.5760   22.4358 C   0  0  2  0  0  0  0  0  0  0  0  0
   13.4511  -18.6375   22.6352 C   0  0  0  0  0  0  0  0  0  0  0  0
   11.6538  -17.4328   21.4886 C   0  0  2  0  0  0  0  0  0  0  0  0
   10.2266  -17.3840   21.1673 N   0  0  0  0  0  0  0  0  0  0  0  0
   12.4663  -17.6268   20.2688 C   0  0  0  0  0  0  0  0  0  0  0  0
   12.1415  -18.4839   19.4207 O   0  0  0  0  0  0  0  0  0  0  0  0
   13.5965  -16.8651   20.0455 O   0  0  0  0  0  0  0  0  0  0  0  0
  2  1  1  1
  2 13  1  0
  3  4  1  0
  3  2  1  0
  4 12  1  0
  5  4  2  0
  5  6  1  0
  6  7  1  0
  7  8  1  0
  8  9  2  0
 10  9  1  0
 11 10  2  0
 12  7  2  0
 12 11  1  0
 13 14  2  0
 15 13  1  0
 15 16  1  0
 16 17  1  6
 17 18  1  0
 19 16  1  0
 19 20  2  0
 21 22  1  0
 23 22  1  0
 23 25  1  0
 23 24  1  1
 25 26  1  6
 26 19  1  0
 27 25  1  0
 28 27  2  0
 29 27  1  0
M  END
$$$$
