WCI.pdb
     RDKit          3D

 29 30  0  0  1  0  0  0  0  0999 V2000
    6.2942  -17.3142   24.3580 N   0  0  0  0  0  0  0  0  0  0  0  0
    7.5479  -16.6501   24.4994 C   0  0  1  0  0  0  0  0  0  0  0  0
    7.6630  -15.7493   25.7008 C   0  0  0  0  0  0  0  0  0  0  0  0
    6.6750  -14.6760   25.7677 C   0  0  0  0  0  0  0  0  0  0  0  0
    5.4880  -14.7207   26.4990 C   0  0  0  0  0  0  0  0  0  0  0  0
    4.8115  -13.5831   26.3268 N   0  0  0  0  0  0  0  0  0  0  0  0
    5.5005  -12.7814   25.5098 C   0  0  0  0  0  0  0  0  0  0  0  0
    5.2237  -11.5134   25.0377 C   0  0  0  0  0  0  0  0  0  0  0  0
    6.1395  -10.9202   24.1963 C   0  0  0  0  0  0  0  0  0  0  0  0
    7.2913  -11.5565   23.8321 C   0  0  0  0  0  0  0  0  0  0  0  0
    7.5655  -12.8248   24.3060 C   0  0  0  0  0  0  0  0  0  0  0  0
    6.6750  -13.4486   25.1469 C   0  0  0  0  0  0  0  0  0  0  0  0
    8.6905  -17.5950   24.4196 C   0  0  0  0  0  0  0  0  0  0  0  0
    8.9096  -18.3472   25.4029 O   0  0  0  0  0  0  0  0  0  0  0  0
    9.5510  -17.6979   23.2951 N   0  0  0  0  0  0  0  0  0  0  0  0
   10.8858  -17.1852   23.3161 C   0  0  1  0  0  0  0  0  0  0  0  0
   11.1015  -16.0653   22.2998 C   0  0  0  0  0  0  0  0  0  0  0  0
   12.8932  -15.8256   22.1482 S   0  0  0  0  0  0  0  0  0  0  0  0
   11.2949  -16.7308   24.6781 C   0  0  0  0  0  0  0  0  0  0  0  0
   11.8798  -15.6313   24.8450 O   0  0  0  0  0  0  0  0  0  0  0  0
   10.2283  -13.6545   27.9074 C   0  0  0  0  0  0  0  0  0  0  0  0
   11.0764  -14.6771   27.1816 C   0  0  0  0  0  0  0  0  0  0  0  0
   10.7743  -16.0427   27.7750 C   0  0  2  0  0  0  0  0  0  0  0  0
   11.1296  -16.0027   29.2471 C   0  0  0  0  0  0  0  0  0  0  0  0
   11.6155  -17.1192   27.1226 C   0  0  2  0  0  0  0  0  0  0  0  0
   11.0423  -17.5152   25.8353 N   0  0  0  0  0  0  0  0  0  0  0  0
   11.6853  -18.2693   28.0490 C   0  0  0  0  0  0  0  0  0  0  0  0
   11.0647  -19.3235   27.7983 O   0  0  0  0  0  0  0  0  0  0  0  0
   12.4368  -18.1988   29.2056 O   0  0  0  0  0  0  0  0  0  0  0  0
  2  1  1  1
  2 13  1  0
  3  4  1  0
  3  2  1  0
  4 12  1  0
  5  4  2  0
  5  6  1  0
  6  7  1  0
  7  8  1  0
  8  9  2  0
 10  9  1  0
 11 10  2  0
 12  7  2  0
 12 11  1  0
 13 14  2  0
 15 13  1  0
 15 16  1  0
 16 17  1  6
 17 18  1  0
 19 16  1  0
 19 20  2  0
 21 22  1  0
 23 22  1  0
 23 25  1  0
 23 24  1  1
 25 26  1  6
 26 19  1  0
 27 25  1  0
 28 27  2  0
 29 27  1  0
M  END
$$$$
