WCI.pdb
     RDKit          3D

 29 30  0  0  1  0  0  0  0  0999 V2000
    6.4510  -17.5431   24.2511 N   0  0  0  0  0  0  0  0  0  0  0  0
    7.5476  -16.6510   24.0653 C   0  0  1  0  0  0  0  0  0  0  0  0
    7.8228  -15.7259   25.2213 C   0  0  0  0  0  0  0  0  0  0  0  0
    6.7758  -14.7445   25.4926 C   0  0  0  0  0  0  0  0  0  0  0  0
    5.4455  -15.0479   25.7824 C   0  0  0  0  0  0  0  0  0  0  0  0
    4.7561  -13.9190   25.9607 N   0  0  0  0  0  0  0  0  0  0  0  0
    5.5741  -12.8748   25.8016 C   0  0  0  0  0  0  0  0  0  0  0  0
    5.3384  -11.5167   25.8877 C   0  0  0  0  0  0  0  0  0  0  0  0
    6.3962  -10.6598   25.6753 C   0  0  0  0  0  0  0  0  0  0  0  0
    7.6466  -11.1267   25.3875 C   0  0  0  0  0  0  0  0  0  0  0  0
    7.8794  -12.4858   25.3021 C   0  0  0  0  0  0  0  0  0  0  0  0
    6.8482  -13.3710   25.5072 C   0  0  0  0  0  0  0  0  0  0  0  0
    8.7780  -17.3630   23.6367 C   0  0  0  0  0  0  0  0  0  0  0  0
    8.9554  -18.5400   24.0417 O   0  0  0  0  0  0  0  0  0  0  0  0
    9.7672  -16.7901   22.7947 N   0  0  0  0  0  0  0  0  0  0  0  0
   11.1629  -17.0217   23.0034 C   0  0  1  0  0  0  0  0  0  0  0  0
   12.0354  -16.3448   21.9480 C   0  0  0  0  0  0  0  0  0  0  0  0
   11.4236  -16.8863   20.3284 S   0  0  0  0  0  0  0  0  0  0  0  0
   11.6037  -16.6190   24.3718 C   0  0  0  0  0  0  0  0  0  0  0  0
   12.2145  -15.5377   24.5629 O   0  0  0  0  0  0  0  0  0  0  0  0
   10.7005  -13.3518   27.3393 C   0  0  0  0  0  0  0  0  0  0  0  0
   11.5886  -14.4836   26.8681 C   0  0  0  0  0  0  0  0  0  0  0  0
   10.9365  -15.7930   27.2789 C   0  0  2  0  0  0  0  0  0  0  0  0
   10.8542  -15.8212   28.7912 C   0  0  0  0  0  0  0  0  0  0  0  0
   11.7674  -16.9787   26.8361 C   0  0  2  0  0  0  0  0  0  0  0  0
   11.3534  -17.4341   25.5081 N   0  0  0  0  0  0  0  0  0  0  0  0
   11.6046  -18.0518   27.8401 C   0  0  0  0  0  0  0  0  0  0  0  0
   12.1705  -17.9720   28.9504 O   0  0  0  0  0  0  0  0  0  0  0  0
   10.8251  -19.1591   27.5688 O   0  0  0  0  0  0  0  0  0  0  0  0
  2  1  1  1
  2 13  1  0
  3  4  1  0
  3  2  1  0
  4 12  1  0
  5  4  2  0
  5  6  1  0
  6  7  1  0
  7  8  1  0
  8  9  2  0
 10  9  1  0
 11 10  2  0
 12  7  2  0
 12 11  1  0
 13 14  2  0
 15 13  1  0
 15 16  1  0
 16 17  1  6
 17 18  1  0
 19 16  1  0
 19 20  2  0
 21 22  1  0
 23 22  1  0
 23 25  1  0
 23 24  1  1
 25 26  1  6
 26 19  1  0
 27 25  1  0
 28 27  2  0
 29 27  1  0
M  END
$$$$
