WCI.pdb
     RDKit          3D

 29 30  0  0  1  0  0  0  0  0999 V2000
    5.8569  -18.1093   23.7608 N   0  0  0  0  0  0  0  0  0  0  0  0
    6.7410  -17.0191   24.0111 C   0  0  1  0  0  0  0  0  0  0  0  0
    6.9060  -16.6492   25.4616 C   0  0  0  0  0  0  0  0  0  0  0  0
    6.4398  -15.3117   25.8171 C   0  0  0  0  0  0  0  0  0  0  0  0
    5.1843  -15.0124   26.3461 C   0  0  0  0  0  0  0  0  0  0  0  0
    5.0806  -13.6957   26.5389 N   0  0  0  0  0  0  0  0  0  0  0  0
    6.2174  -13.1052   26.1596 C   0  0  0  0  0  0  0  0  0  0  0  0
    6.5960  -11.7770   26.1679 C   0  0  0  0  0  0  0  0  0  0  0  0
    7.8570  -11.4591   25.7128 C   0  0  0  0  0  0  0  0  0  0  0  0
    8.7175  -12.4196   25.2641 C   0  0  0  0  0  0  0  0  0  0  0  0
    8.3360  -13.7473   25.2571 C   0  0  0  0  0  0  0  0  0  0  0  0
    7.0853  -14.1024   25.7031 C   0  0  0  0  0  0  0  0  0  0  0  0
    8.0558  -17.2047   23.3467 C   0  0  0  0  0  0  0  0  0  0  0  0
    8.5584  -18.3571   23.3347 O   0  0  0  0  0  0  0  0  0  0  0  0
    8.7790  -16.1540   22.7234 N   0  0  0  0  0  0  0  0  0  0  0  0
   10.1332  -16.3201   22.2944 C   0  0  1  0  0  0  0  0  0  0  0  0
   10.4875  -15.4269   21.1070 C   0  0  0  0  0  0  0  0  0  0  0  0
    8.9964  -15.2913   20.0829 S   0  0  0  0  0  0  0  0  0  0  0  0
   11.1074  -16.1101   23.4060 C   0  0  0  0  0  0  0  0  0  0  0  0
   12.0036  -15.2332   23.3240 O   0  0  0  0  0  0  0  0  0  0  0  0
    9.8544  -13.5588   27.9876 C   0  0  0  0  0  0  0  0  0  0  0  0
   10.8701  -14.6261   27.6399 C   0  0  0  0  0  0  0  0  0  0  0  0
   10.4874  -15.2163   26.2931 C   0  0  2  0  0  0  0  0  0  0  0  0
    9.1242  -15.8615   26.4348 C   0  0  0  0  0  0  0  0  0  0  0  0
   11.4680  -16.2891   25.8692 C   0  0  2  0  0  0  0  0  0  0  0  0
   11.0637  -16.8860   24.5953 N   0  0  0  0  0  0  0  0  0  0  0  0
   11.5223  -17.3078   26.9393 C   0  0  0  0  0  0  0  0  0  0  0  0
   10.8467  -18.3545   26.8527 O   0  0  0  0  0  0  0  0  0  0  0  0
   12.3196  -17.1209   28.0513 O   0  0  0  0  0  0  0  0  0  0  0  0
  2  1  1  1
  2 13  1  0
  3  4  1  0
  3  2  1  0
  4 12  1  0
  5  4  2  0
  5  6  1  0
  6  7  1  0
  7  8  1  0
  8  9  2  0
 10  9  1  0
 11 10  2  0
 12  7  2  0
 12 11  1  0
 13 14  2  0
 15 13  1  0
 15 16  1  0
 16 17  1  6
 17 18  1  0
 19 16  1  0
 19 20  2  0
 21 22  1  0
 23 22  1  0
 23 25  1  0
 23 24  1  1
 25 26  1  6
 26 19  1  0
 27 25  1  0
 28 27  2  0
 29 27  1  0
M  END
$$$$
