GQG.pdb
     RDKit          3D

 18 17  0  0  1  0  0  0  0  0999 V2000
   15.3040   -9.2189  -10.3265 N   0  0  0  0  0  0  0  0  0  0  0  0
   15.7927   -8.2148  -11.2435 C   0  0  0  0  0  0  0  0  0  0  0  0
   17.0790   -8.5759  -11.8524 C   0  0  0  0  0  0  0  0  0  0  0  0
   17.8394   -9.4851  -11.3857 O   0  0  0  0  0  0  0  0  0  0  0  0
   19.8146  -11.2688  -15.5296 N   0  0  0  0  0  0  0  0  0  0  0  0
   18.4138  -11.1914  -15.3773 C   0  0  0  0  0  0  0  0  0  0  0  0
   17.7031  -12.2458  -15.4836 O   0  0  0  0  0  0  0  0  0  0  0  0
   17.7551   -9.9142  -15.0908 C   0  0  0  0  0  0  0  0  0  0  0  0
   18.6215   -8.7207  -14.9934 C   0  0  0  0  0  0  0  0  0  0  0  0
   18.7979   -8.0933  -13.6668 C   0  0  2  0  0  0  0  0  0  0  0  0
   17.4969   -7.8829  -13.0127 N   0  0  0  0  0  0  0  0  0  0  0  0
   19.6034   -6.9084  -13.5072 C   0  0  0  0  0  0  0  0  0  0  0  0
   19.1741   -5.7101  -13.5119 O   0  0  0  0  0  0  0  0  0  0  0  0
   21.0298   -7.0439  -13.3229 N   0  0  0  0  0  0  0  0  0  0  0  0
   21.8464   -5.8563  -13.0680 C   0  0  0  0  0  0  0  0  0  0  0  0
   22.0314   -5.1259  -14.3337 C   0  0  0  0  0  0  0  0  0  0  0  0
   21.5403   -5.5948  -15.3977 O   0  0  0  0  0  0  0  0  0  0  0  0
   22.7230   -3.9366  -14.4266 O   0  0  0  0  0  0  0  0  0  0  0  0
  1  2  1  0
  3  2  1  0
  3  4  2  0
  5  6  1  0
  6  8  1  0
  7  6  2  0
  9  8  1  0
 10  9  1  6
 10 11  1  0
 11  3  1  0
 12 10  1  0
 12 13  2  0
 14 12  1  0
 15 14  1  0
 15 16  1  0
 16 17  2  0
 16 18  1  0
M  END
$$$$
