GQG.pdb
     RDKit          3D

 18 17  0  0  1  0  0  0  0  0999 V2000
   15.0329  -11.5633  -11.3117 N   0  0  0  0  0  0  0  0  0  0  0  0
   15.6062  -10.7713  -10.2478 C   0  0  0  0  0  0  0  0  0  0  0  0
   15.3866   -9.3307  -10.4271 C   0  0  0  0  0  0  0  0  0  0  0  0
   14.8006   -8.8371  -11.4448 O   0  0  0  0  0  0  0  0  0  0  0  0
   12.6664   -5.6020   -6.7161 N   0  0  0  0  0  0  0  0  0  0  0  0
   12.6083   -6.9280   -7.1956 C   0  0  0  0  0  0  0  0  0  0  0  0
   11.6748   -7.7053   -6.8050 O   0  0  0  0  0  0  0  0  0  0  0  0
   13.6036   -7.4313   -8.1459 C   0  0  0  0  0  0  0  0  0  0  0  0
   14.6931   -6.5080   -8.5266 C   0  0  0  0  0  0  0  0  0  0  0  0
   15.7034   -6.9832   -9.4951 C   0  0  2  0  0  0  0  0  0  0  0  0
   15.8464   -8.4458   -9.4237 N   0  0  0  0  0  0  0  0  0  0  0  0
   17.0130   -6.3836   -9.5560 C   0  0  0  0  0  0  0  0  0  0  0  0
   17.9326   -6.5133   -8.6855 O   0  0  0  0  0  0  0  0  0  0  0  0
   17.3575   -5.5534  -10.6870 N   0  0  0  0  0  0  0  0  0  0  0  0
   18.6431   -4.8543  -10.7115 C   0  0  0  0  0  0  0  0  0  0  0  0
   18.7915   -4.1771  -12.0112 C   0  0  0  0  0  0  0  0  0  0  0  0
   18.7404   -4.8566  -13.0737 O   0  0  0  0  0  0  0  0  0  0  0  0
   18.9867   -2.8180  -12.1381 O   0  0  0  0  0  0  0  0  0  0  0  0
  1  2  1  0
  3  2  1  0
  3  4  2  0
  5  6  1  0
  6  8  1  0
  7  6  2  0
  9  8  1  0
 10  9  1  1
 10 11  1  0
 11  3  1  0
 12 10  1  0
 12 13  2  0
 14 12  1  0
 15 14  1  0
 15 16  1  0
 16 17  2  0
 16 18  1  0
M  END
$$$$
