GQG.pdb
     RDKit          3D

 18 17  0  0  1  0  0  0  0  0999 V2000
   28.3635  -11.6470  -16.1778 N   0  0  0  0  0  0  0  0  0  0  0  0
   26.9770  -11.4896  -15.8028 C   0  0  0  0  0  0  0  0  0  0  0  0
   26.3436  -10.3255  -16.4347 C   0  0  0  0  0  0  0  0  0  0  0  0
   26.9575   -9.5484  -17.2360 O   0  0  0  0  0  0  0  0  0  0  0  0
   22.3093  -12.1039  -20.0811 N   0  0  0  0  0  0  0  0  0  0  0  0
   22.4128  -11.5228  -18.7992 C   0  0  0  0  0  0  0  0  0  0  0  0
   21.4089  -11.5362  -18.0118 O   0  0  0  0  0  0  0  0  0  0  0  0
   23.6631  -10.9052  -18.3492 C   0  0  0  0  0  0  0  0  0  0  0  0
   23.6291   -9.4555  -18.0634 C   0  0  0  0  0  0  0  0  0  0  0  0
   24.2109   -8.9819  -16.7899 C   0  0  2  0  0  0  0  0  0  0  0  0
   24.9871  -10.0509  -16.1421 N   0  0  0  0  0  0  0  0  0  0  0  0
   23.3946   -8.3252  -15.7996 C   0  0  0  0  0  0  0  0  0  0  0  0
   22.7597   -8.9000  -14.8579 O   0  0  0  0  0  0  0  0  0  0  0  0
   23.2552   -6.8879  -15.8398 N   0  0  0  0  0  0  0  0  0  0  0  0
   22.3899   -6.2136  -14.8711 C   0  0  0  0  0  0  0  0  0  0  0  0
   22.5287   -4.7571  -15.0425 C   0  0  0  0  0  0  0  0  0  0  0  0
   21.8880   -3.9796  -14.2821 O   0  0  0  0  0  0  0  0  0  0  0  0
   23.3330   -4.1818  -16.0034 O   0  0  0  0  0  0  0  0  0  0  0  0
  1  2  1  0
  3  2  1  0
  3  4  2  0
  5  6  1  0
  6  8  1  0
  7  6  2  0
  9  8  1  0
 10  9  1  6
 10 11  1  0
 11  3  1  0
 12 10  1  0
 12 13  2  0
 14 12  1  0
 15 14  1  0
 15 16  1  0
 16 17  2  0
 16 18  1  0
M  END
$$$$
