GQG.pdb
     RDKit          3D

 18 17  0  0  1  0  0  0  0  0999 V2000
   26.4679  -25.1001  -16.5741 N   0  0  0  0  0  0  0  0  0  0  0  0
   26.2895  -23.6662  -16.5774 C   0  0  0  0  0  0  0  0  0  0  0  0
   25.3086  -23.2110  -15.5842 C   0  0  0  0  0  0  0  0  0  0  0  0
   24.5366  -24.0043  -14.9539 O   0  0  0  0  0  0  0  0  0  0  0  0
   25.4571  -23.1421  -11.1794 N   0  0  0  0  0  0  0  0  0  0  0  0
   25.3897  -21.7373  -11.2958 C   0  0  0  0  0  0  0  0  0  0  0  0
   24.8834  -21.0444  -10.3515 O   0  0  0  0  0  0  0  0  0  0  0  0
   25.8999  -21.0532  -12.4869 C   0  0  0  0  0  0  0  0  0  0  0  0
   24.9033  -20.4078  -13.3672 C   0  0  0  0  0  0  0  0  0  0  0  0
   24.2310  -21.2398  -14.3871 C   0  0  2  0  0  0  0  0  0  0  0  0
   25.2139  -21.8261  -15.3119 N   0  0  0  0  0  0  0  0  0  0  0  0
   23.1164  -20.7286  -15.1452 C   0  0  0  0  0  0  0  0  0  0  0  0
   23.1950  -19.9831  -16.1741 O   0  0  0  0  0  0  0  0  0  0  0  0
   21.7719  -21.0659  -14.7385 N   0  0  0  0  0  0  0  0  0  0  0  0
   20.6304  -20.4801  -15.4425 C   0  0  0  0  0  0  0  0  0  0  0  0
   19.3877  -21.0281  -14.8722 C   0  0  0  0  0  0  0  0  0  0  0  0
   19.4538  -21.9514  -14.0141 O   0  0  0  0  0  0  0  0  0  0  0  0
   18.1318  -20.5833  -15.2274 O   0  0  0  0  0  0  0  0  0  0  0  0
  1  2  1  0
  3  2  1  0
  3  4  2  0
  5  6  1  0
  6  8  1  0
  7  6  2  0
  9  8  1  0
 10  9  1  6
 10 11  1  0
 11  3  1  0
 12 10  1  0
 12 13  2  0
 14 12  1  0
 15 14  1  0
 15 16  1  0
 16 17  2  0
 16 18  1  0
M  END
$$$$
