GQG.pdb
     RDKit          3D

 18 17  0  0  1  0  0  0  0  0999 V2000
   17.8159  -11.1623  -15.9522 N   0  0  0  0  0  0  0  0  0  0  0  0
   18.6612  -10.7933  -14.8399 C   0  0  0  0  0  0  0  0  0  0  0  0
   18.5704   -9.3672  -14.5027 C   0  0  0  0  0  0  0  0  0  0  0  0
   18.0236   -8.5051  -15.2646 O   0  0  0  0  0  0  0  0  0  0  0  0
   18.6523   -4.5183   -8.9757 N   0  0  0  0  0  0  0  0  0  0  0  0
   18.6047   -5.7976   -9.5696 C   0  0  0  0  0  0  0  0  0  0  0  0
   18.7256   -6.8404   -8.8444 O   0  0  0  0  0  0  0  0  0  0  0  0
   18.4112   -5.9526  -11.0138 C   0  0  0  0  0  0  0  0  0  0  0  0
   18.4999   -7.3239  -11.5581 C   0  0  0  0  0  0  0  0  0  0  0  0
   19.1680   -7.5145  -12.8626 C   0  0  2  0  0  0  0  0  0  0  0  0
   19.1151   -8.9262  -13.2739 N   0  0  0  0  0  0  0  0  0  0  0  0
   20.4954   -7.0038  -13.0985 C   0  0  0  0  0  0  0  0  0  0  0  0
   21.5733   -7.4821  -12.6191 O   0  0  0  0  0  0  0  0  0  0  0  0
   20.6666   -5.8477  -13.9477 N   0  0  0  0  0  0  0  0  0  0  0  0
   21.9979   -5.2662  -14.1252 C   0  0  0  0  0  0  0  0  0  0  0  0
   21.9386   -4.2622  -15.2014 C   0  0  0  0  0  0  0  0  0  0  0  0
   22.8549   -4.2285  -16.0689 O   0  0  0  0  0  0  0  0  0  0  0  0
   20.9213   -3.3390  -15.3195 O   0  0  0  0  0  0  0  0  0  0  0  0
  1  2  1  0
  3  2  1  0
  3  4  2  0
  5  6  1  0
  6  8  1  0
  7  6  2  0
  9  8  1  0
 10  9  1  1
 10 11  1  0
 11  3  1  0
 12 10  1  0
 12 13  2  0
 14 12  1  0
 15 14  1  0
 15 16  1  0
 16 17  2  0
 16 18  1  0
M  END
$$$$
