GQG.pdb
     RDKit          3D

 18 17  0  0  1  0  0  0  0  0999 V2000
   26.6627  -25.4650  -16.3833 N   0  0  0  0  0  0  0  0  0  0  0  0
   26.7778  -24.0506  -16.1112 C   0  0  0  0  0  0  0  0  0  0  0  0
   25.5872  -23.4972  -15.4540 C   0  0  0  0  0  0  0  0  0  0  0  0
   24.5065  -24.1546  -15.3029 O   0  0  0  0  0  0  0  0  0  0  0  0
   25.5580  -20.9153  -10.0671 N   0  0  0  0  0  0  0  0  0  0  0  0
   24.1985  -20.9642  -10.4424 C   0  0  0  0  0  0  0  0  0  0  0  0
   23.2893  -20.7973   -9.5628 O   0  0  0  0  0  0  0  0  0  0  0  0
   23.8079  -21.1984  -11.8351 C   0  0  0  0  0  0  0  0  0  0  0  0
   24.8967  -21.2827  -12.8311 C   0  0  0  0  0  0  0  0  0  0  0  0
   24.5328  -21.5216  -14.2436 C   0  0  2  0  0  0  0  0  0  0  0  0
   25.6392  -22.1712  -14.9640 N   0  0  0  0  0  0  0  0  0  0  0  0
   23.9948  -20.4630  -15.0609 C   0  0  0  0  0  0  0  0  0  0  0  0
   22.9581  -19.7727  -14.7977 O   0  0  0  0  0  0  0  0  0  0  0  0
   24.6575  -20.1197  -16.2978 N   0  0  0  0  0  0  0  0  0  0  0  0
   24.1104  -19.0603  -17.1465 C   0  0  0  0  0  0  0  0  0  0  0  0
   24.9739  -18.9053  -18.3298 C   0  0  0  0  0  0  0  0  0  0  0  0
   25.1313  -19.8813  -19.1146 O   0  0  0  0  0  0  0  0  0  0  0  0
   25.6335  -17.7340  -18.6367 O   0  0  0  0  0  0  0  0  0  0  0  0
  1  2  1  0
  3  2  1  0
  3  4  2  0
  5  6  1  0
  6  8  1  0
  7  6  2  0
  9  8  1  0
 10  9  1  1
 10 11  1  0
 11  3  1  0
 12 10  1  0
 12 13  2  0
 14 12  1  0
 15 14  1  0
 15 16  1  0
 16 17  2  0
 16 18  1  0
M  END
$$$$
