GQG.pdb
     RDKit          3D

 18 17  0  0  1  0  0  0  0  0999 V2000
   18.0479  -10.3535  -12.7931 N   0  0  0  0  0  0  0  0  0  0  0  0
   17.9337   -9.9507  -11.4102 C   0  0  0  0  0  0  0  0  0  0  0  0
   16.8850   -8.9463  -11.1932 C   0  0  0  0  0  0  0  0  0  0  0  0
   16.2404   -8.3962  -12.1443 O   0  0  0  0  0  0  0  0  0  0  0  0
   12.1742   -9.1006   -7.3017 N   0  0  0  0  0  0  0  0  0  0  0  0
   12.3971   -9.5549   -8.6191 C   0  0  0  0  0  0  0  0  0  0  0  0
   11.5757  -10.3686   -9.1589 O   0  0  0  0  0  0  0  0  0  0  0  0
   13.5594   -9.1013   -9.3874 C   0  0  0  0  0  0  0  0  0  0  0  0
   14.4750   -8.1524   -8.7196 C   0  0  0  0  0  0  0  0  0  0  0  0
   15.5650   -7.5551   -9.5194 C   0  0  2  0  0  0  0  0  0  0  0  0
   16.5732   -8.5691   -9.8659 N   0  0  0  0  0  0  0  0  0  0  0  0
   16.2338   -6.3548   -9.0832 C   0  0  0  0  0  0  0  0  0  0  0  0
   17.2634   -6.3055   -8.3364 O   0  0  0  0  0  0  0  0  0  0  0  0
   15.7259   -5.0702   -9.5061 N   0  0  0  0  0  0  0  0  0  0  0  0
   16.3329   -3.8423   -8.9904 C   0  0  0  0  0  0  0  0  0  0  0  0
   17.1399   -3.2261  -10.0575 C   0  0  0  0  0  0  0  0  0  0  0  0
   17.3127   -3.8485  -11.1419 O   0  0  0  0  0  0  0  0  0  0  0  0
   17.7293   -1.9852   -9.9394 O   0  0  0  0  0  0  0  0  0  0  0  0
  1  2  1  0
  3  2  1  0
  3  4  2  0
  5  6  1  0
  6  8  1  0
  7  6  2  0
  9  8  1  0
 10  9  1  1
 10 11  1  0
 11  3  1  0
 12 10  1  0
 12 13  2  0
 14 12  1  0
 15 14  1  0
 15 16  1  0
 16 17  2  0
 16 18  1  0
M  END
$$$$
