GQG.pdb
     RDKit          3D

 18 17  0  0  1  0  0  0  0  0999 V2000
   22.8247  -16.4556  -19.1391 N   0  0  0  0  0  0  0  0  0  0  0  0
   23.3550  -17.7765  -18.8901 C   0  0  0  0  0  0  0  0  0  0  0  0
   23.3658  -18.1275  -17.4645 C   0  0  0  0  0  0  0  0  0  0  0  0
   23.2262  -17.2680  -16.5348 O   0  0  0  0  0  0  0  0  0  0  0  0
   21.0053  -18.6877  -13.2707 N   0  0  0  0  0  0  0  0  0  0  0  0
   20.8806  -20.0110  -13.7449 C   0  0  0  0  0  0  0  0  0  0  0  0
   20.4817  -20.9335  -12.9587 O   0  0  0  0  0  0  0  0  0  0  0  0
   21.1969  -20.3474  -15.1355 C   0  0  0  0  0  0  0  0  0  0  0  0
   22.5420  -20.8992  -15.4019 C   0  0  0  0  0  0  0  0  0  0  0  0
   23.6349  -19.9536  -15.7116 C   0  0  2  0  0  0  0  0  0  0  0  0
   23.5392  -19.4841  -17.1027 N   0  0  0  0  0  0  0  0  0  0  0  0
   25.0073  -20.2835  -15.4183 C   0  0  0  0  0  0  0  0  0  0  0  0
   25.4570  -20.6631  -14.2896 O   0  0  0  0  0  0  0  0  0  0  0  0
   25.9957  -20.1894  -16.4677 N   0  0  0  0  0  0  0  0  0  0  0  0
   27.4039  -20.4504  -16.1661 C   0  0  0  0  0  0  0  0  0  0  0  0
   27.6552  -21.8971  -16.2837 C   0  0  0  0  0  0  0  0  0  0  0  0
   28.8187  -22.3427  -16.0814 O   0  0  0  0  0  0  0  0  0  0  0  0
   26.6752  -22.8112  -16.6079 O   0  0  0  0  0  0  0  0  0  0  0  0
  1  2  1  0
  3  2  1  0
  3  4  2  0
  5  6  1  0
  6  8  1  0
  7  6  2  0
  9  8  1  0
 10  9  1  6
 10 11  1  0
 11  3  1  0
 12 10  1  0
 12 13  2  0
 14 12  1  0
 15 14  1  0
 15 16  1  0
 16 17  2  0
 16 18  1  0
M  END
$$$$
