GQG.pdb
     RDKit          3D

 18 17  0  0  1  0  0  0  0  0999 V2000
   24.8398  -31.1764   -8.8304 N   0  0  0  0  0  0  0  0  0  0  0  0
   25.9108  -32.1168   -8.5929 C   0  0  0  0  0  0  0  0  0  0  0  0
   25.7003  -32.9292   -7.3882 C   0  0  0  0  0  0  0  0  0  0  0  0
   24.7101  -32.7669   -6.6034 O   0  0  0  0  0  0  0  0  0  0  0  0
   24.2690  -37.8724   -4.3598 N   0  0  0  0  0  0  0  0  0  0  0  0
   23.9633  -36.7286   -5.1277 C   0  0  0  0  0  0  0  0  0  0  0  0
   23.0586  -35.9202   -4.7325 O   0  0  0  0  0  0  0  0  0  0  0  0
   24.6751  -36.4458   -6.3769 C   0  0  0  0  0  0  0  0  0  0  0  0
   26.1238  -36.1713   -6.2751 C   0  0  0  0  0  0  0  0  0  0  0  0
   26.5504  -34.8080   -5.8959 C   0  0  2  0  0  0  0  0  0  0  0  0
   26.6398  -33.9412   -7.0815 N   0  0  0  0  0  0  0  0  0  0  0  0
   27.7118  -34.5967   -5.0684 C   0  0  0  0  0  0  0  0  0  0  0  0
   28.9024  -34.4269   -5.4855 O   0  0  0  0  0  0  0  0  0  0  0  0
   27.5596  -34.5676   -3.6321 N   0  0  0  0  0  0  0  0  0  0  0  0
   28.7183  -34.2872   -2.7832 C   0  0  0  0  0  0  0  0  0  0  0  0
   28.2945  -34.3230   -1.3729 C   0  0  0  0  0  0  0  0  0  0  0  0
   27.2531  -33.7019   -1.0226 O   0  0  0  0  0  0  0  0  0  0  0  0
   28.9819  -35.0085   -0.3937 O   0  0  0  0  0  0  0  0  0  0  0  0
  1  2  1  0
  3  2  1  0
  3  4  2  0
  5  6  1  0
  6  8  1  0
  7  6  2  0
  9  8  1  0
 10  9  1  6
 10 11  1  0
 11  3  1  0
 12 10  1  0
 12 13  2  0
 14 12  1  0
 15 14  1  0
 15 16  1  0
 16 17  2  0
 16 18  1  0
M  END
$$$$
