GQG.pdb
     RDKit          3D

 18 17  0  0  1  0  0  0  0  0999 V2000
   16.6462  -11.2118  -15.0710 N   0  0  0  0  0  0  0  0  0  0  0  0
   17.2161   -9.9989  -15.6110 C   0  0  0  0  0  0  0  0  0  0  0  0
   18.5518   -9.7081  -15.0749 C   0  0  0  0  0  0  0  0  0  0  0  0
   18.9876  -10.2036  -13.9853 O   0  0  0  0  0  0  0  0  0  0  0  0
   23.9340   -9.9286  -17.7718 N   0  0  0  0  0  0  0  0  0  0  0  0
   24.2472   -9.1658  -16.6266 C   0  0  0  0  0  0  0  0  0  0  0  0
   25.4662   -8.9248  -16.3366 O   0  0  0  0  0  0  0  0  0  0  0  0
   23.1907   -8.6354  -15.7608 C   0  0  0  0  0  0  0  0  0  0  0  0
   21.7948   -8.8909  -16.1741 C   0  0  0  0  0  0  0  0  0  0  0  0
   20.7078   -8.3764  -15.3148 C   0  0  2  0  0  0  0  0  0  0  0  0
   19.3974   -8.8366  -15.8005 N   0  0  0  0  0  0  0  0  0  0  0  0
   20.6230   -6.9758  -14.9839 C   0  0  0  0  0  0  0  0  0  0  0  0
   19.9290   -6.1055  -15.6014 O   0  0  0  0  0  0  0  0  0  0  0  0
   21.3753   -6.4692  -13.8595 N   0  0  0  0  0  0  0  0  0  0  0  0
   21.2306   -5.0690  -13.4589 C   0  0  0  0  0  0  0  0  0  0  0  0
   21.9275   -4.2193  -14.4398 C   0  0  0  0  0  0  0  0  0  0  0  0
   21.9317   -2.9669  -14.2829 O   0  0  0  0  0  0  0  0  0  0  0  0
   22.5885   -4.7212  -15.5409 O   0  0  0  0  0  0  0  0  0  0  0  0
  1  2  1  0
  3  2  1  0
  3  4  2  0
  5  6  1  0
  6  8  1  0
  7  6  2  0
  9  8  1  0
 10  9  1  6
 10 11  1  0
 11  3  1  0
 12 10  1  0
 12 13  2  0
 14 12  1  0
 15 14  1  0
 15 16  1  0
 16 17  2  0
 16 18  1  0
M  END
$$$$
