GQG.pdb
     RDKit          3D

 18 17  0  0  1  0  0  0  0  0999 V2000
   18.3966  -21.9078  -10.5645 N   0  0  0  0  0  0  0  0  0  0  0  0
   18.9878  -22.2542  -11.8366 C   0  0  0  0  0  0  0  0  0  0  0  0
   20.1157  -21.3860  -12.1969 C   0  0  0  0  0  0  0  0  0  0  0  0
   20.3131  -20.2449  -11.6663 O   0  0  0  0  0  0  0  0  0  0  0  0
   25.8092  -23.3209  -13.9694 N   0  0  0  0  0  0  0  0  0  0  0  0
   25.7962  -21.9891  -14.4358 C   0  0  0  0  0  0  0  0  0  0  0  0
   26.8495  -21.4848  -14.9499 O   0  0  0  0  0  0  0  0  0  0  0  0
   24.5847  -21.1697  -14.3461 C   0  0  0  0  0  0  0  0  0  0  0  0
   23.3667  -21.8292  -13.8301 C   0  0  0  0  0  0  0  0  0  0  0  0
   22.1371  -21.0194  -13.6999 C   0  0  2  0  0  0  0  0  0  0  0  0
   21.0285  -21.8352  -13.1798 N   0  0  0  0  0  0  0  0  0  0  0  0
   21.6576  -20.2162  -14.7968 C   0  0  0  0  0  0  0  0  0  0  0  0
   20.9614  -20.6342  -15.7771 O   0  0  0  0  0  0  0  0  0  0  0  0
   21.9704  -18.8062  -14.8290 N   0  0  0  0  0  0  0  0  0  0  0  0
   21.4458  -17.9692  -15.9088 C   0  0  0  0  0  0  0  0  0  0  0  0
   22.3864  -18.0095  -17.0417 C   0  0  0  0  0  0  0  0  0  0  0  0
   23.1354  -19.0145  -17.1901 O   0  0  0  0  0  0  0  0  0  0  0  0
   22.4991  -16.9942  -17.9679 O   0  0  0  0  0  0  0  0  0  0  0  0
  1  2  1  0
  3  2  1  0
  3  4  2  0
  5  6  1  0
  6  8  1  0
  7  6  2  0
  9  8  1  0
 10  9  1  6
 10 11  1  0
 11  3  1  0
 12 10  1  0
 12 13  2  0
 14 12  1  0
 15 14  1  0
 15 16  1  0
 16 17  2  0
 16 18  1  0
M  END
$$$$
