GQG.pdb
     RDKit          3D

 18 17  0  0  1  0  0  0  0  0999 V2000
   23.7827  -10.5224  -18.8715 N   0  0  0  0  0  0  0  0  0  0  0  0
   24.1424   -9.8507  -17.6438 C   0  0  0  0  0  0  0  0  0  0  0  0
   23.0880   -8.9541  -17.1539 C   0  0  0  0  0  0  0  0  0  0  0  0
   22.7285   -7.8995  -17.7714 O   0  0  0  0  0  0  0  0  0  0  0  0
   17.9977  -11.0773  -14.3713 N   0  0  0  0  0  0  0  0  0  0  0  0
   18.3915  -10.9515  -15.7206 C   0  0  0  0  0  0  0  0  0  0  0  0
   17.7651  -11.5930  -16.6285 O   0  0  0  0  0  0  0  0  0  0  0  0
   19.5107  -10.0864  -16.1028 C   0  0  0  0  0  0  0  0  0  0  0  0
   20.1957   -9.3573  -15.0148 C   0  0  0  0  0  0  0  0  0  0  0  0
   21.3346   -8.4846  -15.3692 C   0  0  2  0  0  0  0  0  0  0  0  0
   22.4384   -9.2736  -15.9385 N   0  0  0  0  0  0  0  0  0  0  0  0
   21.8700   -7.5406  -14.4202 C   0  0  0  0  0  0  0  0  0  0  0  0
   22.6450   -7.8189  -13.4495 O   0  0  0  0  0  0  0  0  0  0  0  0
   21.5236   -6.1435  -14.5420 N   0  0  0  0  0  0  0  0  0  0  0  0
   22.0148   -5.1832  -13.5527 C   0  0  0  0  0  0  0  0  0  0  0  0
   21.6115   -3.8277  -13.9646 C   0  0  0  0  0  0  0  0  0  0  0  0
   20.9956   -3.6685  -15.0548 O   0  0  0  0  0  0  0  0  0  0  0  0
   21.8723   -2.7003  -13.2148 O   0  0  0  0  0  0  0  0  0  0  0  0
  1  2  1  0
  3  2  1  0
  3  4  2  0
  5  6  1  0
  6  8  1  0
  7  6  2  0
  9  8  1  0
 10  9  1  1
 10 11  1  0
 11  3  1  0
 12 10  1  0
 12 13  2  0
 14 12  1  0
 15 14  1  0
 15 16  1  0
 16 17  2  0
 16 18  1  0
M  END
$$$$
