GQG.pdb
     RDKit          3D

 18 17  0  0  1  0  0  0  0  0999 V2000
   13.9775  -12.6786  -11.9393 N   0  0  0  0  0  0  0  0  0  0  0  0
   14.9532  -12.0968  -11.0464 C   0  0  0  0  0  0  0  0  0  0  0  0
   15.2654  -10.7001  -11.3742 C   0  0  0  0  0  0  0  0  0  0  0  0
   14.7958  -10.1034  -12.3970 O   0  0  0  0  0  0  0  0  0  0  0  0
   15.2276   -5.8920   -7.6309 N   0  0  0  0  0  0  0  0  0  0  0  0
   14.3039   -6.7993   -8.1922 C   0  0  0  0  0  0  0  0  0  0  0  0
   13.0925   -6.8036   -7.7911 O   0  0  0  0  0  0  0  0  0  0  0  0
   14.7109   -7.7396   -9.2397 C   0  0  0  0  0  0  0  0  0  0  0  0
   16.1309   -7.7130   -9.6488 C   0  0  0  0  0  0  0  0  0  0  0  0
   16.5534   -8.5924  -10.7590 C   0  0  2  0  0  0  0  0  0  0  0  0
   16.1285   -9.9799  -10.5155 N   0  0  0  0  0  0  0  0  0  0  0  0
   17.9163   -8.5920  -11.2290 C   0  0  0  0  0  0  0  0  0  0  0  0
   18.9335   -8.9701  -10.5637 O   0  0  0  0  0  0  0  0  0  0  0  0
   18.2013   -8.1297  -12.5677 N   0  0  0  0  0  0  0  0  0  0  0  0
   19.5839   -8.0957  -13.0467 C   0  0  0  0  0  0  0  0  0  0  0  0
   19.9983   -6.6910  -13.2039 C   0  0  0  0  0  0  0  0  0  0  0  0
   19.1822   -5.7691  -12.9258 O   0  0  0  0  0  0  0  0  0  0  0  0
   21.2496   -6.3163  -13.6456 O   0  0  0  0  0  0  0  0  0  0  0  0
  1  2  1  0
  3  2  1  0
  3  4  2  0
  5  6  1  0
  6  8  1  0
  7  6  2  0
  9  8  1  0
 10  9  1  1
 10 11  1  0
 11  3  1  0
 12 10  1  0
 12 13  2  0
 14 12  1  0
 15 14  1  0
 15 16  1  0
 16 17  2  0
 16 18  1  0
M  END
$$$$
