AAD.pdb
     RDKit          3D

 19 18  0  0  1  0  0  0  0  0999 V2000
    8.6117  -12.1753   19.3795 C   0  0  0  0  0  0  0  0  0  0  0  0
    7.8784  -13.4283   19.0227 C   0  0  2  0  0  0  0  0  0  0  0  0
    6.4653  -13.2406   19.1072 N   0  0  0  0  0  0  0  0  0  0  0  0
    8.3716  -14.6164   19.7663 C   0  0  0  0  0  0  0  0  0  0  0  0
    8.0101  -14.7275   20.9688 O   0  0  0  0  0  0  0  0  0  0  0  0
    9.8690  -17.9794   19.1303 C   0  0  0  0  0  0  0  0  0  0  0  0
    9.6755  -16.7415   20.0024 C   0  0  2  0  0  0  0  0  0  0  0  0
    9.2058  -15.6190   19.2323 N   0  0  0  0  0  0  0  0  0  0  0  0
   10.9987  -16.4720   20.6318 C   0  0  0  0  0  0  0  0  0  0  0  0
   11.7435  -15.6273   20.0889 O   0  0  0  0  0  0  0  0  0  0  0  0
   11.4354  -17.1288   21.8055 N   0  0  0  0  0  0  0  0  0  0  0  0
   12.7024  -16.8431   22.4777 C   0  0  1  0  0  0  0  0  0  0  0  0
   12.5212  -16.7233   23.9518 C   0  0  0  0  0  0  0  0  0  0  0  0
   13.7329  -16.4060   24.7126 C   0  0  0  0  0  0  0  0  0  0  0  0
   14.8506  -16.1526   24.2228 O   0  0  0  0  0  0  0  0  0  0  0  0
   13.5616  -18.0306   22.1906 C   0  0  0  0  0  0  0  0  0  0  0  0
   14.7651  -18.0457   22.4991 O   0  0  0  0  0  0  0  0  0  0  0  0
   13.6643  -16.3764   26.1161 O   0  0  0  0  0  0  0  0  0  0  0  0
   13.0710  -19.1784   21.5674 O   0  0  0  0  0  0  0  0  0  0  0  0
  2  1  1  1
  2  4  1  0
  2  3  1  0
  4  5  2  0
  7  6  1  6
  7  9  1  0
  8  4  1  0
  8  7  1  0
  9 10  2  0
 11 12  1  0
 11  9  1  0
 12 16  1  0
 12 13  1  1
 14 15  2  0
 14 13  1  0
 16 17  2  0
 16 19  1  0
 18 14  1  0
M  END
$$$$
