AAD.pdb
     RDKit          3D

 19 18  0  0  1  0  0  0  0  0999 V2000
    7.9337  -14.5228   14.9063 C   0  0  0  0  0  0  0  0  0  0  0  0
    8.8063  -15.1255   15.9600 C   0  0  2  0  0  0  0  0  0  0  0  0
    8.3476  -16.4270   16.3271 N   0  0  0  0  0  0  0  0  0  0  0  0
    9.0247  -14.2179   17.1161 C   0  0  0  0  0  0  0  0  0  0  0  0
    9.9970  -13.4193   17.0390 O   0  0  0  0  0  0  0  0  0  0  0  0
    7.3019  -13.2528   20.3524 C   0  0  0  0  0  0  0  0  0  0  0  0
    8.4592  -13.2527   19.3568 C   0  0  2  0  0  0  0  0  0  0  0  0
    8.2332  -14.1838   18.2816 N   0  0  0  0  0  0  0  0  0  0  0  0
    9.6775  -13.5938   20.1435 C   0  0  0  0  0  0  0  0  0  0  0  0
    9.9255  -12.9132   21.1623 O   0  0  0  0  0  0  0  0  0  0  0  0
   10.5508  -14.6461   19.7832 N   0  0  0  0  0  0  0  0  0  0  0  0
   11.6670  -15.1006   20.6115 C   0  0  1  0  0  0  0  0  0  0  0  0
   11.7640  -16.5874   20.6255 C   0  0  0  0  0  0  0  0  0  0  0  0
   10.8696  -17.2692   21.5650 C   0  0  0  0  0  0  0  0  0  0  0  0
   10.5959  -16.8804   22.7171 O   0  0  0  0  0  0  0  0  0  0  0  0
   12.8839  -14.5423   19.9497 C   0  0  0  0  0  0  0  0  0  0  0  0
   12.8236  -14.0188   18.8244 O   0  0  0  0  0  0  0  0  0  0  0  0
   10.2508  -18.4662   21.1653 O   0  0  0  0  0  0  0  0  0  0  0  0
   14.1443  -14.5745   20.5472 O   0  0  0  0  0  0  0  0  0  0  0  0
  2  1  1  6
  2  4  1  0
  2  3  1  0
  4  5  2  0
  7  6  1  1
  7  9  1  0
  8  4  1  0
  8  7  1  0
  9 10  2  0
 11 12  1  0
 11  9  1  0
 12 16  1  0
 12 13  1  6
 14 15  2  0
 14 13  1  0
 16 17  2  0
 16 19  1  0
 18 14  1  0
M  END
$$$$
