AAD.pdb
     RDKit          3D

 19 18  0  0  1  0  0  0  0  0999 V2000
    7.7048  -16.8074   15.3020 C   0  0  0  0  0  0  0  0  0  0  0  0
    7.8438  -15.3210   15.2232 C   0  0  2  0  0  0  0  0  0  0  0  0
    8.3090  -14.9141   13.9359 N   0  0  0  0  0  0  0  0  0  0  0  0
    8.6277  -14.7547   16.3513 C   0  0  0  0  0  0  0  0  0  0  0  0
    9.8836  -14.8083   16.2571 O   0  0  0  0  0  0  0  0  0  0  0  0
    8.0178  -12.9789   19.6540 C   0  0  0  0  0  0  0  0  0  0  0  0
    8.8813  -13.6012   18.5597 C   0  0  2  0  0  0  0  0  0  0  0  0
    8.0769  -14.1678   17.5081 N   0  0  0  0  0  0  0  0  0  0  0  0
    9.7216  -14.6295   19.2351 C   0  0  0  0  0  0  0  0  0  0  0  0
    9.3110  -15.8102   19.2388 O   0  0  0  0  0  0  0  0  0  0  0  0
   10.9505  -14.3209   19.8629 N   0  0  0  0  0  0  0  0  0  0  0  0
   11.7786  -15.3018   20.5635 C   0  0  1  0  0  0  0  0  0  0  0  0
   13.1937  -14.8465   20.6644 C   0  0  0  0  0  0  0  0  0  0  0  0
   13.9365  -14.8110   19.4016 C   0  0  0  0  0  0  0  0  0  0  0  0
   13.9483  -15.7134   18.5421 O   0  0  0  0  0  0  0  0  0  0  0  0
   11.1962  -15.3800   21.9366 C   0  0  0  0  0  0  0  0  0  0  0  0
   11.6573  -16.1568   22.7897 O   0  0  0  0  0  0  0  0  0  0  0  0
   14.7121  -13.6777   19.1026 O   0  0  0  0  0  0  0  0  0  0  0  0
   10.1142  -14.5960   22.3383 O   0  0  0  0  0  0  0  0  0  0  0  0
  2  1  1  6
  2  4  1  0
  2  3  1  0
  4  5  2  0
  7  6  1  1
  7  9  1  0
  8  4  1  0
  8  7  1  0
  9 10  2  0
 11 12  1  0
 11  9  1  0
 12 16  1  0
 12 13  1  1
 14 15  2  0
 14 13  1  0
 16 17  2  0
 16 19  1  0
 18 14  1  0
M  END
$$$$
