AAD.pdb
     RDKit          3D

 19 18  0  0  1  0  0  0  0  0999 V2000
   -1.1559  -26.6340   28.2235 C   0  0  0  0  0  0  0  0  0  0  0  0
   -2.4868  -26.2721   27.6467 C   0  0  2  0  0  0  0  0  0  0  0  0
   -2.4554  -26.3014   26.2193 N   0  0  0  0  0  0  0  0  0  0  0  0
   -3.0350  -25.0107   28.2092 C   0  0  0  0  0  0  0  0  0  0  0  0
   -3.2941  -25.0012   29.4428 O   0  0  0  0  0  0  0  0  0  0  0  0
   -3.9039  -21.4928   27.0835 C   0  0  0  0  0  0  0  0  0  0  0  0
   -3.9628  -22.6917   28.0267 C   0  0  2  0  0  0  0  0  0  0  0  0
   -3.2848  -23.8352   27.4730 N   0  0  0  0  0  0  0  0  0  0  0  0
   -5.4096  -22.9597   28.2601 C   0  0  0  0  0  0  0  0  0  0  0  0
   -6.0353  -23.5960   27.3846 O   0  0  0  0  0  0  0  0  0  0  0  0
   -6.0903  -22.5259   29.4212 N   0  0  0  0  0  0  0  0  0  0  0  0
   -7.4680  -22.8938   29.7455 C   0  0  1  0  0  0  0  0  0  0  0  0
   -7.5156  -24.0382   30.6985 C   0  0  0  0  0  0  0  0  0  0  0  0
   -8.8505  -24.4016   31.1818 C   0  0  0  0  0  0  0  0  0  0  0  0
   -9.9154  -24.2492   30.5524 O   0  0  0  0  0  0  0  0  0  0  0  0
   -8.0378  -21.6848   30.4119 C   0  0  0  0  0  0  0  0  0  0  0  0
   -9.2307  -21.6403   30.7570 O   0  0  0  0  0  0  0  0  0  0  0  0
   -8.9770  -24.9728   32.4596 O   0  0  0  0  0  0  0  0  0  0  0  0
   -7.2753  -20.5484   30.6835 O   0  0  0  0  0  0  0  0  0  0  0  0
  2  1  1  1
  2  4  1  0
  2  3  1  0
  4  5  2  0
  7  6  1  6
  7  9  1  0
  8  4  1  0
  8  7  1  0
  9 10  2  0
 11 12  1  0
 11  9  1  0
 12 16  1  0
 12 13  1  1
 14 15  2  0
 14 13  1  0
 16 17  2  0
 16 19  1  0
 18 14  1  0
M  END
$$$$
