AAD.pdb
     RDKit          3D

 19 18  0  0  1  0  0  0  0  0999 V2000
    7.9862  -18.2206   18.2970 C   0  0  0  0  0  0  0  0  0  0  0  0
    9.2938  -17.4958   18.2872 C   0  0  2  0  0  0  0  0  0  0  0  0
    9.9841  -17.6940   17.0530 N   0  0  0  0  0  0  0  0  0  0  0  0
   10.1195  -17.7806   19.4893 C   0  0  0  0  0  0  0  0  0  0  0  0
    9.6271  -17.4685   20.6069 O   0  0  0  0  0  0  0  0  0  0  0  0
   13.3009  -19.6060   20.4100 C   0  0  0  0  0  0  0  0  0  0  0  0
   12.1625  -18.6222   20.6683 C   0  0  2  0  0  0  0  0  0  0  0  0
   11.4006  -18.3679   19.4730 N   0  0  0  0  0  0  0  0  0  0  0  0
   12.8016  -17.3844   21.1965 C   0  0  0  0  0  0  0  0  0  0  0  0
   13.2663  -16.5681   20.3715 O   0  0  0  0  0  0  0  0  0  0  0  0
   12.8994  -17.1044   22.5792 N   0  0  0  0  0  0  0  0  0  0  0  0
   13.3889  -15.8383   23.1233 C   0  0  1  0  0  0  0  0  0  0  0  0
   12.6740  -15.4728   24.3784 C   0  0  0  0  0  0  0  0  0  0  0  0
   12.7131  -16.4794   25.4428 C   0  0  0  0  0  0  0  0  0  0  0  0
   13.2837  -17.5853   25.3738 O   0  0  0  0  0  0  0  0  0  0  0  0
   14.8262  -16.0911   23.4410 C   0  0  0  0  0  0  0  0  0  0  0  0
   15.2678  -17.2468   23.5565 O   0  0  0  0  0  0  0  0  0  0  0  0
   12.0619  -16.2072   26.6581 O   0  0  0  0  0  0  0  0  0  0  0  0
   15.7468  -15.0588   23.6243 O   0  0  0  0  0  0  0  0  0  0  0  0
  2  1  1  6
  2  4  1  0
  2  3  1  0
  4  5  2  0
  7  6  1  6
  7  9  1  0
  8  4  1  0
  8  7  1  0
  9 10  2  0
 11 12  1  0
 11  9  1  0
 12 16  1  0
 12 13  1  1
 14 15  2  0
 14 13  1  0
 16 17  2  0
 16 19  1  0
 18 14  1  0
M  END
$$$$
