AAD.pdb
     RDKit          3D

 19 18  0  0  1  0  0  0  0  0999 V2000
    7.9347  -16.6412   15.5620 C   0  0  0  0  0  0  0  0  0  0  0  0
    8.4926  -16.7286   16.9463 C   0  0  2  0  0  0  0  0  0  0  0  0
    7.5777  -17.3759   17.8312 N   0  0  0  0  0  0  0  0  0  0  0  0
    8.9925  -15.4230   17.4496 C   0  0  0  0  0  0  0  0  0  0  0  0
   10.1461  -15.0731   17.0810 O   0  0  0  0  0  0  0  0  0  0  0  0
    7.7303  -12.4481   19.4329 C   0  0  0  0  0  0  0  0  0  0  0  0
    8.8048  -13.2921   18.7519 C   0  0  2  0  0  0  0  0  0  0  0  0
    8.2797  -14.5548   18.3007 N   0  0  0  0  0  0  0  0  0  0  0  0
    9.8892  -13.4662   19.7586 C   0  0  0  0  0  0  0  0  0  0  0  0
   10.5261  -12.4509   20.1139 O   0  0  0  0  0  0  0  0  0  0  0  0
   10.2183  -14.7223   20.3186 N   0  0  0  0  0  0  0  0  0  0  0  0
   11.1760  -14.9046   21.4087 C   0  0  1  0  0  0  0  0  0  0  0  0
   10.7678  -16.0177   22.3112 C   0  0  0  0  0  0  0  0  0  0  0  0
   11.7219  -16.3521   23.3720 C   0  0  0  0  0  0  0  0  0  0  0  0
   12.7782  -15.7375   23.6167 O   0  0  0  0  0  0  0  0  0  0  0  0
   12.4558  -15.2739   20.7330 C   0  0  0  0  0  0  0  0  0  0  0  0
   13.5347  -14.7564   21.0677 O   0  0  0  0  0  0  0  0  0  0  0  0
   11.4541  -17.4536   24.2027 O   0  0  0  0  0  0  0  0  0  0  0  0
   12.5158  -16.2094   19.6996 O   0  0  0  0  0  0  0  0  0  0  0  0
  2  1  1  6
  2  4  1  0
  2  3  1  0
  4  5  2  0
  7  6  1  1
  7  9  1  0
  8  4  1  0
  8  7  1  0
  9 10  2  0
 11 12  1  0
 11  9  1  0
 12 16  1  0
 12 13  1  1
 14 15  2  0
 14 13  1  0
 16 17  2  0
 16 19  1  0
 18 14  1  0
M  END
$$$$
