AAD.pdb
     RDKit          3D

 19 18  0  0  1  0  0  0  0  0999 V2000
    5.8895  -17.8509   18.2992 C   0  0  0  0  0  0  0  0  0  0  0  0
    6.5125  -16.7025   17.5726 C   0  0  2  0  0  0  0  0  0  0  0  0
    6.9973  -17.1049   16.2911 N   0  0  0  0  0  0  0  0  0  0  0  0
    7.5166  -15.9774   18.3936 C   0  0  0  0  0  0  0  0  0  0  0  0
    8.6989  -16.4137   18.3656 O   0  0  0  0  0  0  0  0  0  0  0  0
    7.6868  -13.0009   20.7476 C   0  0  0  0  0  0  0  0  0  0  0  0
    8.2231  -14.2630   20.0769 C   0  0  2  0  0  0  0  0  0  0  0  0
    7.2479  -14.8490   19.1940 N   0  0  0  0  0  0  0  0  0  0  0  0
    8.6007  -15.1868   21.1831 C   0  0  0  0  0  0  0  0  0  0  0  0
    7.6809  -15.7593   21.8068 O   0  0  0  0  0  0  0  0  0  0  0  0
    9.9444  -15.4354   21.5469 N   0  0  0  0  0  0  0  0  0  0  0  0
   10.3574  -16.4839   22.4790 C   0  0  1  0  0  0  0  0  0  0  0  0
   10.8381  -17.6953   21.7570 C   0  0  0  0  0  0  0  0  0  0  0  0
   10.3013  -18.9712   22.2383 C   0  0  0  0  0  0  0  0  0  0  0  0
    9.5933  -19.1230   23.2527 O   0  0  0  0  0  0  0  0  0  0  0  0
   11.4971  -15.8895   23.2395 C   0  0  0  0  0  0  0  0  0  0  0  0
   11.5233  -15.9079   24.4817 O   0  0  0  0  0  0  0  0  0  0  0  0
   10.5902  -20.1433   21.5187 O   0  0  0  0  0  0  0  0  0  0  0  0
   12.5860  -15.2863   22.6094 O   0  0  0  0  0  0  0  0  0  0  0  0
  2  1  1  1
  2  4  1  0
  2  3  1  0
  4  5  2  0
  7  6  1  1
  7  9  1  0
  8  4  1  0
  8  7  1  0
  9 10  2  0
 11 12  1  0
 11  9  1  0
 12 16  1  0
 12 13  1  6
 14 15  2  0
 14 13  1  0
 16 17  2  0
 16 19  1  0
 18 14  1  0
M  END
$$$$
