AAD.pdb
     RDKit          3D

 19 18  0  0  1  0  0  0  0  0999 V2000
   -1.3414  -21.1652   25.3151 C   0  0  0  0  0  0  0  0  0  0  0  0
   -1.6898  -22.4477   24.6304 C   0  0  2  0  0  0  0  0  0  0  0  0
   -1.6372  -22.3051   23.2105 N   0  0  0  0  0  0  0  0  0  0  0  0
   -2.9585  -23.0403   25.1275 C   0  0  0  0  0  0  0  0  0  0  0  0
   -4.0288  -22.4744   24.7764 O   0  0  0  0  0  0  0  0  0  0  0  0
   -4.1364  -26.1796   26.8712 C   0  0  0  0  0  0  0  0  0  0  0  0
   -4.3110  -24.7535   26.3553 C   0  0  2  0  0  0  0  0  0  0  0  0
   -3.0535  -24.1772   25.9548 N   0  0  0  0  0  0  0  0  0  0  0  0
   -4.9462  -23.9902   27.4659 C   0  0  0  0  0  0  0  0  0  0  0  0
   -4.1964  -23.4434   28.3036 O   0  0  0  0  0  0  0  0  0  0  0  0
   -6.3479  -23.8640   27.6035 N   0  0  0  0  0  0  0  0  0  0  0  0
   -6.9975  -23.0411   28.6231 C   0  0  1  0  0  0  0  0  0  0  0  0
   -8.1041  -22.2292   28.0432 C   0  0  0  0  0  0  0  0  0  0  0  0
   -7.6883  -21.1301   27.1675 C   0  0  0  0  0  0  0  0  0  0  0  0
   -6.6874  -20.4071   27.3375 O   0  0  0  0  0  0  0  0  0  0  0  0
   -7.5727  -24.0206   29.5928 C   0  0  0  0  0  0  0  0  0  0  0  0
   -8.1075  -23.6442   30.6494 O   0  0  0  0  0  0  0  0  0  0  0  0
   -8.4612  -20.8393   26.0304 O   0  0  0  0  0  0  0  0  0  0  0  0
   -7.5444  -25.3982   29.3736 O   0  0  0  0  0  0  0  0  0  0  0  0
  2  1  1  1
  2  4  1  0
  2  3  1  0
  4  5  2  0
  7  6  1  1
  7  9  1  0
  8  4  1  0
  8  7  1  0
  9 10  2  0
 11 12  1  0
 11  9  1  0
 12 16  1  0
 12 13  1  6
 14 15  2  0
 14 13  1  0
 16 17  2  0
 16 19  1  0
 18 14  1  0
M  END
$$$$
