AAD.pdb
     RDKit          3D

 19 18  0  0  1  0  0  0  0  0999 V2000
    6.9963  -19.3138   20.0391 C   0  0  0  0  0  0  0  0  0  0  0  0
    6.7919  -17.8342   20.1013 C   0  0  2  0  0  0  0  0  0  0  0  0
    6.7188  -17.2682   18.7922 N   0  0  0  0  0  0  0  0  0  0  0  0
    7.7652  -17.1549   20.9953 C   0  0  0  0  0  0  0  0  0  0  0  0
    8.9760  -17.1811   20.6455 O   0  0  0  0  0  0  0  0  0  0  0  0
    7.7410  -14.9789   24.1039 C   0  0  0  0  0  0  0  0  0  0  0  0
    8.4068  -15.7723   22.9824 C   0  0  2  0  0  0  0  0  0  0  0  0
    7.4385  -16.4899   22.1941 N   0  0  0  0  0  0  0  0  0  0  0  0
    9.3750  -16.6890   23.6471 C   0  0  0  0  0  0  0  0  0  0  0  0
    8.9822  -17.8372   23.9470 O   0  0  0  0  0  0  0  0  0  0  0  0
   10.7044  -16.3109   23.9461 N   0  0  0  0  0  0  0  0  0  0  0  0
   11.6754  -17.1878   24.5996 C   0  0  1  0  0  0  0  0  0  0  0  0
   13.0645  -16.6714   24.4463 C   0  0  0  0  0  0  0  0  0  0  0  0
   13.5568  -16.5842   23.0687 C   0  0  0  0  0  0  0  0  0  0  0  0
   13.0821  -17.1922   22.0897 O   0  0  0  0  0  0  0  0  0  0  0  0
   11.3039  -17.1557   26.0459 C   0  0  0  0  0  0  0  0  0  0  0  0
   10.5173  -16.3030   26.4912 O   0  0  0  0  0  0  0  0  0  0  0  0
   14.6563  -15.7536   22.7925 O   0  0  0  0  0  0  0  0  0  0  0  0
   11.8108  -18.0688   26.9711 O   0  0  0  0  0  0  0  0  0  0  0  0
  2  1  1  6
  2  4  1  0
  2  3  1  0
  4  5  2  0
  7  6  1  1
  7  9  1  0
  8  4  1  0
  8  7  1  0
  9 10  2  0
 11 12  1  0
 11  9  1  0
 12 16  1  0
 12 13  1  1
 14 15  2  0
 14 13  1  0
 16 17  2  0
 16 19  1  0
 18 14  1  0
M  END
$$$$
