AAD.pdb
     RDKit          3D

 19 18  0  0  1  0  0  0  0  0999 V2000
    7.8181  -17.3590   17.8472 C   0  0  0  0  0  0  0  0  0  0  0  0
    8.7221  -17.7930   18.9560 C   0  0  2  0  0  0  0  0  0  0  0  0
    8.2305  -18.9745   19.5897 N   0  0  0  0  0  0  0  0  0  0  0  0
    9.0422  -16.6932   19.9025 C   0  0  0  0  0  0  0  0  0  0  0  0
   10.1556  -16.1204   19.7562 O   0  0  0  0  0  0  0  0  0  0  0  0
    7.2908  -14.6650   22.5821 C   0  0  0  0  0  0  0  0  0  0  0  0
    8.4965  -15.0903   21.7477 C   0  0  2  0  0  0  0  0  0  0  0  0
    8.2017  -16.2469   20.9420 N   0  0  0  0  0  0  0  0  0  0  0  0
    9.5958  -15.3519   22.7186 C   0  0  0  0  0  0  0  0  0  0  0  0
    9.9277  -14.4258   23.4900 O   0  0  0  0  0  0  0  0  0  0  0  0
   10.2674  -16.5938   22.7971 N   0  0  0  0  0  0  0  0  0  0  0  0
   11.2694  -16.9176   23.8119 C   0  0  1  0  0  0  0  0  0  0  0  0
   11.3054  -18.3802   24.0939 C   0  0  0  0  0  0  0  0  0  0  0  0
   12.3191  -18.8117   25.0602 C   0  0  0  0  0  0  0  0  0  0  0  0
   13.5524  -18.7643   24.8866 O   0  0  0  0  0  0  0  0  0  0  0  0
   12.5715  -16.5095   23.2047 C   0  0  0  0  0  0  0  0  0  0  0  0
   13.4387  -15.9215   23.8726 O   0  0  0  0  0  0  0  0  0  0  0  0
   11.8998  -19.3279   26.2983 O   0  0  0  0  0  0  0  0  0  0  0  0
   12.8880  -16.7606   21.8692 O   0  0  0  0  0  0  0  0  0  0  0  0
  2  1  1  6
  2  4  1  0
  2  3  1  0
  4  5  2  0
  7  6  1  1
  7  9  1  0
  8  4  1  0
  8  7  1  0
  9 10  2  0
 11 12  1  0
 11  9  1  0
 12 16  1  0
 12 13  1  6
 14 15  2  0
 14 13  1  0
 16 17  2  0
 16 19  1  0
 18 14  1  0
M  END
$$$$
