IWL.pdb
     RDKit          3D

 31 32  0  0  1  0  0  0  0  0999 V2000
    6.3387  -12.5989   18.5675 C   0  0  0  0  0  0  0  0  0  0  0  0
    6.9420  -13.9791   18.8539 C   0  0  0  0  0  0  0  0  0  0  0  0
    7.7773  -13.8822   20.1106 C   0  0  2  0  0  0  0  0  0  0  0  0
    8.7883  -12.7676   20.0274 C   0  0  0  0  0  0  0  0  0  0  0  0
    8.3520  -15.1910   20.5364 C   0  0  2  0  0  0  0  0  0  0  0  0
    7.2628  -16.1602   20.5806 N   0  0  0  0  0  0  0  0  0  0  0  0
    9.1313  -15.1667   21.7743 C   0  0  0  0  0  0  0  0  0  0  0  0
   10.1927  -14.4836   21.7881 O   0  0  0  0  0  0  0  0  0  0  0  0
    8.7982  -15.8448   22.9621 N   0  0  0  0  0  0  0  0  0  0  0  0
    9.6598  -15.8026   24.1642 C   0  0  1  0  0  0  0  0  0  0  0  0
    8.8385  -16.2471   25.3438 C   0  0  0  0  0  0  0  0  0  0  0  0
    7.6856  -15.4079   25.6715 C   0  0  0  0  0  0  0  0  0  0  0  0
    6.3354  -15.7276   25.6310 C   0  0  0  0  0  0  0  0  0  0  0  0
    5.6036  -14.6652   25.9888 N   0  0  0  0  0  0  0  0  0  0  0  0
    6.4193  -13.6358   26.2704 C   0  0  0  0  0  0  0  0  0  0  0  0
    6.1369  -12.3487   26.6780 C   0  0  0  0  0  0  0  0  0  0  0  0
    7.1959  -11.4981   26.8943 C   0  0  0  0  0  0  0  0  0  0  0  0
    8.4951  -11.9263   26.7073 C   0  0  0  0  0  0  0  0  0  0  0  0
    8.7620  -13.2058   26.3026 C   0  0  0  0  0  0  0  0  0  0  0  0
    7.7280  -14.0797   26.0780 C   0  0  0  0  0  0  0  0  0  0  0  0
   10.7304  -16.8087   23.9379 C   0  0  0  0  0  0  0  0  0  0  0  0
   10.5012  -17.7991   23.1832 O   0  0  0  0  0  0  0  0  0  0  0  0
   16.6267  -16.6500   23.0975 C   0  0  0  0  0  0  0  0  0  0  0  0
   15.4008  -17.5544   23.1311 C   0  0  2  0  0  0  0  0  0  0  0  0
   15.3324  -18.3792   21.9078 C   0  0  0  0  0  0  0  0  0  0  0  0
   14.1796  -16.8591   23.5842 C   0  0  0  0  0  0  0  0  0  0  0  0
   13.0786  -17.6344   24.1946 C   0  0  2  0  0  0  0  0  0  0  0  0
   11.9920  -16.6945   24.5333 N   0  0  0  0  0  0  0  0  0  0  0  0
   13.3698  -18.4264   25.3856 C   0  0  0  0  0  0  0  0  0  0  0  0
   13.7112  -19.6484   25.3411 O   0  0  0  0  0  0  0  0  0  0  0  0
   13.2706  -17.8221   26.6536 O   0  0  0  0  0  0  0  0  0  0  0  0
  2  1  1  0
  3  2  1  0
  3  4  1  6
  5  3  1  0
  5  6  1  1
  7  5  1  0
  8  7  2  0
  9  7  1  0
 10 21  1  0
 10  9  1  0
 10 11  1  1
 12 11  1  0
 13 12  2  0
 14 13  1  0
 15 14  1  0
 15 20  2  0
 16 15  1  0
 17 16  2  0
 17 18  1  0
 18 19  2  0
 19 20  1  0
 20 12  1  0
 21 28  1  0
 22 21  2  0
 24 23  1  6
 24 25  1  0
 24 26  1  0
 27 26  1  1
 27 29  1  0
 28 27  1  0
 29 30  2  0
 29 31  1  0
M  END
$$$$
