IWL.pdb
     RDKit          3D

 31 32  0  0  1  0  0  0  0  0999 V2000
   13.6087  -18.0971   18.4835 C   0  0  0  0  0  0  0  0  0  0  0  0
   12.0902  -18.0377   18.6882 C   0  0  0  0  0  0  0  0  0  0  0  0
   11.8117  -17.2863   19.9704 C   0  0  2  0  0  0  0  0  0  0  0  0
   12.6371  -17.8096   21.1177 C   0  0  0  0  0  0  0  0  0  0  0  0
   10.3568  -17.1655   20.2764 C   0  0  2  0  0  0  0  0  0  0  0  0
    9.7111  -16.5480   19.1234 N   0  0  0  0  0  0  0  0  0  0  0  0
   10.0286  -16.4892   21.5315 C   0  0  0  0  0  0  0  0  0  0  0  0
   10.3698  -15.2802   21.6550 O   0  0  0  0  0  0  0  0  0  0  0  0
    9.3598  -17.0741   22.6234 N   0  0  0  0  0  0  0  0  0  0  0  0
    9.0786  -16.3277   23.8695 C   0  0  1  0  0  0  0  0  0  0  0  0
    7.7733  -16.8256   24.4281 C   0  0  0  0  0  0  0  0  0  0  0  0
    6.8920  -15.8057   24.9972 C   0  0  0  0  0  0  0  0  0  0  0  0
    5.6228  -15.9548   25.5394 C   0  0  0  0  0  0  0  0  0  0  0  0
    5.1506  -14.7647   25.9305 N   0  0  0  0  0  0  0  0  0  0  0  0
    6.0633  -13.8145   25.6688 C   0  0  0  0  0  0  0  0  0  0  0  0
    6.0342  -12.4532   25.8887 C   0  0  0  0  0  0  0  0  0  0  0  0
    7.1343  -11.7193   25.5107 C   0  0  0  0  0  0  0  0  0  0  0  0
    8.2271  -12.3326   24.9311 C   0  0  0  0  0  0  0  0  0  0  0  0
    8.2437  -13.6841   24.7183 C   0  0  0  0  0  0  0  0  0  0  0  0
    7.1619  -14.4453   25.0839 C   0  0  0  0  0  0  0  0  0  0  0  0
   10.1607  -16.6935   24.8208 C   0  0  0  0  0  0  0  0  0  0  0  0
   10.9596  -17.6289   24.5213 O   0  0  0  0  0  0  0  0  0  0  0  0
   10.4272  -13.4676   27.6429 C   0  0  0  0  0  0  0  0  0  0  0  0
    9.9958  -14.7428   28.3567 C   0  0  2  0  0  0  0  0  0  0  0  0
    9.3580  -14.4219   29.6496 C   0  0  0  0  0  0  0  0  0  0  0  0
   11.0219  -15.8040   28.3187 C   0  0  0  0  0  0  0  0  0  0  0  0
   11.2619  -16.5466   27.0630 C   0  0  2  0  0  0  0  0  0  0  0  0
   10.3279  -16.0315   26.0426 N   0  0  0  0  0  0  0  0  0  0  0  0
   11.1378  -18.0007   27.0867 C   0  0  0  0  0  0  0  0  0  0  0  0
   10.1371  -18.6206   26.6111 O   0  0  0  0  0  0  0  0  0  0  0  0
   12.1680  -18.7689   27.6625 O   0  0  0  0  0  0  0  0  0  0  0  0
  2  1  1  0
  3  2  1  0
  3  4  1  1
  5  3  1  0
  5  6  1  6
  7  5  1  0
  8  7  2  0
  9  7  1  0
 10 21  1  0
 10  9  1  0
 10 11  1  1
 12 11  1  0
 13 12  2  0
 14 13  1  0
 15 14  1  0
 15 20  2  0
 16 15  1  0
 17 16  2  0
 17 18  1  0
 18 19  2  0
 19 20  1  0
 20 12  1  0
 21 28  1  0
 22 21  2  0
 24 23  1  1
 24 25  1  0
 24 26  1  0
 27 26  1  1
 27 29  1  0
 28 27  1  0
 29 30  2  0
 29 31  1  0
M  END
$$$$
