IWL.pdb
     RDKit          3D

 31 32  0  0  1  0  0  0  0  0999 V2000
    8.4571  -13.7512   15.9245 C   0  0  0  0  0  0  0  0  0  0  0  0
    9.3188  -14.6380   16.8311 C   0  0  0  0  0  0  0  0  0  0  0  0
    8.9695  -14.3301   18.2696 C   0  0  2  0  0  0  0  0  0  0  0  0
    9.0769  -12.8571   18.5699 C   0  0  0  0  0  0  0  0  0  0  0  0
    9.6837  -15.2014   19.2471 C   0  0  2  0  0  0  0  0  0  0  0  0
    9.3722  -16.5874   18.9159 N   0  0  0  0  0  0  0  0  0  0  0  0
    9.4467  -14.8954   20.6580 C   0  0  0  0  0  0  0  0  0  0  0  0
    9.8513  -13.7823   21.0946 O   0  0  0  0  0  0  0  0  0  0  0  0
    8.8013  -15.7414   21.5796 N   0  0  0  0  0  0  0  0  0  0  0  0
    8.3395  -15.2637   22.9016 C   0  0  1  0  0  0  0  0  0  0  0  0
    7.0142  -15.9120   23.1961 C   0  0  0  0  0  0  0  0  0  0  0  0
    6.2957  -15.3954   24.3612 C   0  0  0  0  0  0  0  0  0  0  0  0
    5.3163  -16.0143   25.1260 C   0  0  0  0  0  0  0  0  0  0  0  0
    4.9009  -15.1865   26.0927 N   0  0  0  0  0  0  0  0  0  0  0  0
    5.5707  -14.0255   26.0045 C   0  0  0  0  0  0  0  0  0  0  0  0
    5.4923  -12.8804   26.7695 C   0  0  0  0  0  0  0  0  0  0  0  0
    6.3164  -11.8305   26.4378 C   0  0  0  0  0  0  0  0  0  0  0  0
    7.1901  -11.9276   25.3731 C   0  0  0  0  0  0  0  0  0  0  0  0
    7.2583  -13.0692   24.6219 C   0  0  0  0  0  0  0  0  0  0  0  0
    6.4495  -14.1352   24.9263 C   0  0  0  0  0  0  0  0  0  0  0  0
    9.3314  -15.7645   23.8890 C   0  0  0  0  0  0  0  0  0  0  0  0
   10.2236  -16.5801   23.5126 O   0  0  0  0  0  0  0  0  0  0  0  0
   11.2515  -16.6293   28.9472 C   0  0  0  0  0  0  0  0  0  0  0  0
   11.1837  -15.1703   28.5130 C   0  0  2  0  0  0  0  0  0  0  0  0
   11.0917  -14.2835   29.6905 C   0  0  0  0  0  0  0  0  0  0  0  0
   10.2599  -14.9439   27.3836 C   0  0  0  0  0  0  0  0  0  0  0  0
   10.3868  -15.7608   26.1579 C   0  0  2  0  0  0  0  0  0  0  0  0
    9.3128  -15.3589   25.2285 N   0  0  0  0  0  0  0  0  0  0  0  0
   10.3416  -17.2138   26.2891 C   0  0  0  0  0  0  0  0  0  0  0  0
    9.2645  -17.8623   26.4656 O   0  0  0  0  0  0  0  0  0  0  0  0
   11.5415  -17.9475   26.2206 O   0  0  0  0  0  0  0  0  0  0  0  0
  2  1  1  0
  3  2  1  0
  3  4  1  1
  5  3  1  0
  5  6  1  1
  7  5  1  0
  8  7  2  0
  9  7  1  0
 10 21  1  0
 10  9  1  0
 10 11  1  1
 12 11  1  0
 13 12  2  0
 14 13  1  0
 15 14  1  0
 15 20  2  0
 16 15  1  0
 17 16  2  0
 17 18  1  0
 18 19  2  0
 19 20  1  0
 20 12  1  0
 21 28  1  0
 22 21  2  0
 24 23  1  1
 24 25  1  0
 24 26  1  0
 27 26  1  1
 27 29  1  0
 28 27  1  0
 29 30  2  0
 29 31  1  0
M  END
$$$$
