IWL.pdb
     RDKit          3D

 31 32  0  0  1  0  0  0  0  0999 V2000
   14.3414  -17.4593   17.9244 C   0  0  0  0  0  0  0  0  0  0  0  0
   12.9314  -17.9871   18.2151 C   0  0  0  0  0  0  0  0  0  0  0  0
   12.2848  -17.0800   19.2375 C   0  0  2  0  0  0  0  0  0  0  0  0
   13.1669  -16.8742   20.4421 C   0  0  0  0  0  0  0  0  0  0  0  0
   10.8856  -17.4742   19.5713 C   0  0  2  0  0  0  0  0  0  0  0  0
   10.1274  -17.5155   18.3259 N   0  0  0  0  0  0  0  0  0  0  0  0
   10.2296  -16.6672   20.6004 C   0  0  0  0  0  0  0  0  0  0  0  0
   10.1668  -15.4197   20.4184 O   0  0  0  0  0  0  0  0  0  0  0  0
    9.6574  -17.1647   21.7864 N   0  0  0  0  0  0  0  0  0  0  0  0
    9.0414  -16.2786   22.7986 C   0  0  1  0  0  0  0  0  0  0  0  0
    7.6846  -16.8317   23.1402 C   0  0  0  0  0  0  0  0  0  0  0  0
    6.9086  -16.0632   24.1138 C   0  0  0  0  0  0  0  0  0  0  0  0
    5.8777  -16.4908   24.9394 C   0  0  0  0  0  0  0  0  0  0  0  0
    5.4204  -15.4648   25.6677 N   0  0  0  0  0  0  0  0  0  0  0  0
    6.1118  -14.3552   25.3591 C   0  0  0  0  0  0  0  0  0  0  0  0
    6.0074  -13.0664   25.8395 C   0  0  0  0  0  0  0  0  0  0  0  0
    6.8652  -12.1206   25.3284 C   0  0  0  0  0  0  0  0  0  0  0  0
    7.7967  -12.4580   24.3669 C   0  0  0  0  0  0  0  0  0  0  0  0
    7.8903  -13.7402   23.8985 C   0  0  0  0  0  0  0  0  0  0  0  0
    7.0491  -14.7080   24.3876 C   0  0  0  0  0  0  0  0  0  0  0  0
    9.9007  -16.3761   24.0076 C   0  0  0  0  0  0  0  0  0  0  0  0
   10.6354  -17.3950   24.1657 O   0  0  0  0  0  0  0  0  0  0  0  0
    9.3365  -14.3157   29.6372 C   0  0  0  0  0  0  0  0  0  0  0  0
   10.4324  -14.7638   28.6780 C   0  0  2  0  0  0  0  0  0  0  0  0
   11.7402  -14.2189   29.0953 C   0  0  0  0  0  0  0  0  0  0  0  0
   10.0410  -14.6538   27.2585 C   0  0  0  0  0  0  0  0  0  0  0  0
   10.6312  -15.5729   26.2622 C   0  0  2  0  0  0  0  0  0  0  0  0
    9.9263  -15.3707   24.9811 N   0  0  0  0  0  0  0  0  0  0  0  0
   10.6242  -17.0032   26.5534 C   0  0  0  0  0  0  0  0  0  0  0  0
   11.6285  -17.6216   27.0232 O   0  0  0  0  0  0  0  0  0  0  0  0
    9.4557  -17.7490   26.3057 O   0  0  0  0  0  0  0  0  0  0  0  0
  2  1  1  0
  3  2  1  0
  3  4  1  1
  5  3  1  0
  5  6  1  6
  7  5  1  0
  8  7  2  0
  9  7  1  0
 10 21  1  0
 10  9  1  0
 10 11  1  1
 12 11  1  0
 13 12  2  0
 14 13  1  0
 15 14  1  0
 15 20  2  0
 16 15  1  0
 17 16  2  0
 17 18  1  0
 18 19  2  0
 19 20  1  0
 20 12  1  0
 21 28  1  0
 22 21  2  0
 24 23  1  1
 24 25  1  0
 24 26  1  0
 27 26  1  1
 27 29  1  0
 28 27  1  0
 29 30  2  0
 29 31  1  0
M  END
$$$$
