IWL.pdb
     RDKit          3D

 31 32  0  0  1  0  0  0  0  0999 V2000
    7.2372  -12.8549   18.0813 C   0  0  0  0  0  0  0  0  0  0  0  0
    7.3286  -14.1679   18.8679 C   0  0  0  0  0  0  0  0  0  0  0  0
    8.2466  -13.9521   20.0498 C   0  0  2  0  0  0  0  0  0  0  0  0
    9.5223  -13.2568   19.6494 C   0  0  0  0  0  0  0  0  0  0  0  0
    8.4577  -15.1848   20.8626 C   0  0  2  0  0  0  0  0  0  0  0  0
    7.2295  -15.9697   20.8049 N   0  0  0  0  0  0  0  0  0  0  0  0
    8.9198  -14.9669   22.2335 C   0  0  0  0  0  0  0  0  0  0  0  0
    9.4646  -13.8603   22.5018 O   0  0  0  0  0  0  0  0  0  0  0  0
    8.8093  -15.8918   23.2890 N   0  0  0  0  0  0  0  0  0  0  0  0
    9.4453  -15.6675   24.6059 C   0  0  1  0  0  0  0  0  0  0  0  0
    8.4249  -15.9566   25.6730 C   0  0  0  0  0  0  0  0  0  0  0  0
    7.2287  -15.1144   25.6575 C   0  0  0  0  0  0  0  0  0  0  0  0
    5.9025  -15.4872   25.4859 C   0  0  0  0  0  0  0  0  0  0  0  0
    5.1161  -14.4042   25.5163 N   0  0  0  0  0  0  0  0  0  0  0  0
    5.8715  -13.3092   25.7034 C   0  0  0  0  0  0  0  0  0  0  0  0
    5.5199  -11.9791   25.8027 C   0  0  0  0  0  0  0  0  0  0  0  0
    6.5272  -11.0630   25.9972 C   0  0  0  0  0  0  0  0  0  0  0  0
    7.8434  -11.4694   26.0889 C   0  0  0  0  0  0  0  0  0  0  0  0
    8.1791  -12.7921   25.9888 C   0  0  0  0  0  0  0  0  0  0  0  0
    7.1981  -13.7318   25.7945 C   0  0  0  0  0  0  0  0  0  0  0  0
   10.5309  -16.6770   24.7153 C   0  0  0  0  0  0  0  0  0  0  0  0
   11.4273  -16.7228   23.8225 O   0  0  0  0  0  0  0  0  0  0  0  0
   10.5342  -15.2500   29.8824 C   0  0  0  0  0  0  0  0  0  0  0  0
   11.1302  -15.5358   28.5095 C   0  0  2  0  0  0  0  0  0  0  0  0
   10.8315  -14.4316   27.5753 C   0  0  0  0  0  0  0  0  0  0  0  0
   10.9069  -16.9238   28.0580 C   0  0  0  0  0  0  0  0  0  0  0  0
   11.6003  -17.4226   26.8512 C   0  0  2  0  0  0  0  0  0  0  0  0
   10.5961  -17.5820   25.7812 N   0  0  0  0  0  0  0  0  0  0  0  0
   12.3467  -18.6729   26.9513 C   0  0  0  0  0  0  0  0  0  0  0  0
   13.5913  -18.7214   27.1975 O   0  0  0  0  0  0  0  0  0  0  0  0
   11.6697  -19.8938   26.7672 O   0  0  0  0  0  0  0  0  0  0  0  0
  2  1  1  0
  3  2  1  0
  3  4  1  6
  5  3  1  0
  5  6  1  1
  7  5  1  0
  8  7  2  0
  9  7  1  0
 10 21  1  0
 10  9  1  0
 10 11  1  1
 12 11  1  0
 13 12  2  0
 14 13  1  0
 15 14  1  0
 15 20  2  0
 16 15  1  0
 17 16  2  0
 17 18  1  0
 18 19  2  0
 19 20  1  0
 20 12  1  0
 21 28  1  0
 22 21  2  0
 24 23  1  1
 24 25  1  0
 24 26  1  0
 27 26  1  1
 27 29  1  0
 28 27  1  0
 29 30  2  0
 29 31  1  0
M  END
$$$$
