IWL.pdb
     RDKit          3D

 31 32  0  0  1  0  0  0  0  0999 V2000
    8.1441  -17.3456   17.0630 C   0  0  0  0  0  0  0  0  0  0  0  0
    7.2970  -16.7586   18.1984 C   0  0  0  0  0  0  0  0  0  0  0  0
    8.2189  -16.3903   19.3389 C   0  0  2  0  0  0  0  0  0  0  0  0
    9.2444  -17.4634   19.5998 C   0  0  0  0  0  0  0  0  0  0  0  0
    7.4913  -15.9379   20.5598 C   0  0  2  0  0  0  0  0  0  0  0  0
    6.6416  -14.8151   20.1789 N   0  0  0  0  0  0  0  0  0  0  0  0
    8.3295  -15.6379   21.7207 C   0  0  0  0  0  0  0  0  0  0  0  0
    9.0777  -14.6231   21.6597 O   0  0  0  0  0  0  0  0  0  0  0  0
    8.3753  -16.3889   22.9105 N   0  0  0  0  0  0  0  0  0  0  0  0
    9.2687  -16.0337   24.0352 C   0  0  1  0  0  0  0  0  0  0  0  0
    8.5214  -16.2721   25.3190 C   0  0  0  0  0  0  0  0  0  0  0  0
    7.4855  -15.2920   25.6462 C   0  0  0  0  0  0  0  0  0  0  0  0
    6.1124  -15.4733   25.7390 C   0  0  0  0  0  0  0  0  0  0  0  0
    5.5180  -14.3127   26.0422 N   0  0  0  0  0  0  0  0  0  0  0  0
    6.4489  -13.3512   26.1572 C   0  0  0  0  0  0  0  0  0  0  0  0
    6.3259  -12.0097   26.4537 C   0  0  0  0  0  0  0  0  0  0  0  0
    7.4755  -11.2564   26.5038 C   0  0  0  0  0  0  0  0  0  0  0  0
    8.7076  -11.8316   26.2640 C   0  0  0  0  0  0  0  0  0  0  0  0
    8.8162  -13.1636   25.9708 C   0  0  0  0  0  0  0  0  0  0  0  0
    7.6884  -13.9434   25.9131 C   0  0  0  0  0  0  0  0  0  0  0  0
   10.4054  -16.9897   23.9748 C   0  0  0  0  0  0  0  0  0  0  0  0
   10.2195  -18.1443   23.4897 O   0  0  0  0  0  0  0  0  0  0  0  0
   15.6680  -18.4216   24.7078 C   0  0  0  0  0  0  0  0  0  0  0  0
   15.1954  -17.6746   23.4667 C   0  0  2  0  0  0  0  0  0  0  0  0
   16.3234  -16.9676   22.8270 C   0  0  0  0  0  0  0  0  0  0  0  0
   13.9303  -16.9428   23.6771 C   0  0  0  0  0  0  0  0  0  0  0  0
   12.7990  -17.6138   24.3522 C   0  0  2  0  0  0  0  0  0  0  0  0
   11.6827  -16.6517   24.4367 N   0  0  0  0  0  0  0  0  0  0  0  0
   13.0182  -18.1601   25.6879 C   0  0  0  0  0  0  0  0  0  0  0  0
   13.5236  -19.3061   25.8956 O   0  0  0  0  0  0  0  0  0  0  0  0
   12.6557  -17.3931   26.8118 O   0  0  0  0  0  0  0  0  0  0  0  0
  2  1  1  0
  3  2  1  0
  3  4  1  1
  5  3  1  0
  5  6  1  6
  7  5  1  0
  8  7  2  0
  9  7  1  0
 10 21  1  0
 10  9  1  0
 10 11  1  1
 12 11  1  0
 13 12  2  0
 14 13  1  0
 15 14  1  0
 15 20  2  0
 16 15  1  0
 17 16  2  0
 17 18  1  0
 18 19  2  0
 19 20  1  0
 20 12  1  0
 21 28  1  0
 22 21  2  0
 24 23  1  1
 24 25  1  0
 24 26  1  0
 27 26  1  1
 27 29  1  0
 28 27  1  0
 29 30  2  0
 29 31  1  0
M  END
$$$$
