IWL.pdb
     RDKit          3D

 31 32  0  0  1  0  0  0  0  0999 V2000
    9.0443  -16.0662   15.4497 C   0  0  0  0  0  0  0  0  0  0  0  0
    8.2713  -14.9973   16.2315 C   0  0  0  0  0  0  0  0  0  0  0  0
    8.6894  -15.0733   17.6826 C   0  0  2  0  0  0  0  0  0  0  0  0
    8.6637  -16.4885   18.2003 C   0  0  0  0  0  0  0  0  0  0  0  0
    7.9723  -14.0967   18.5525 C   0  0  2  0  0  0  0  0  0  0  0  0
    8.1973  -12.7645   18.0027 N   0  0  0  0  0  0  0  0  0  0  0  0
    8.2837  -14.1739   19.9800 C   0  0  0  0  0  0  0  0  0  0  0  0
    9.4068  -13.7420   20.3614 O   0  0  0  0  0  0  0  0  0  0  0  0
    7.4328  -14.6925   20.9743 N   0  0  0  0  0  0  0  0  0  0  0  0
    7.8043  -14.7009   22.4064 C   0  0  1  0  0  0  0  0  0  0  0  0
    6.5374  -14.7013   23.2180 C   0  0  0  0  0  0  0  0  0  0  0  0
    6.7100  -14.7185   24.6707 C   0  0  0  0  0  0  0  0  0  0  0  0
    6.8441  -15.8087   25.5196 C   0  0  0  0  0  0  0  0  0  0  0  0
    6.9593  -15.3901   26.7859 N   0  0  0  0  0  0  0  0  0  0  0  0
    6.9070  -14.0482   26.8189 C   0  0  0  0  0  0  0  0  0  0  0  0
    6.9816  -13.1700   27.8799 C   0  0  0  0  0  0  0  0  0  0  0  0
    6.8971  -11.8249   27.6056 C   0  0  0  0  0  0  0  0  0  0  0  0
    6.7428  -11.3770   26.3088 C   0  0  0  0  0  0  0  0  0  0  0  0
    6.6701  -12.2585   25.2648 C   0  0  0  0  0  0  0  0  0  0  0  0
    6.7511  -13.6074   25.5043 C   0  0  0  0  0  0  0  0  0  0  0  0
    8.5068  -15.9898   22.6411 C   0  0  0  0  0  0  0  0  0  0  0  0
    8.2481  -16.9814   21.8978 O   0  0  0  0  0  0  0  0  0  0  0  0
   13.3345  -18.1214   23.1694 C   0  0  0  0  0  0  0  0  0  0  0  0
   12.3830  -17.8738   22.0053 C   0  0  2  0  0  0  0  0  0  0  0  0
   13.1400  -17.6317   20.7604 C   0  0  0  0  0  0  0  0  0  0  0  0
   11.2738  -16.9611   22.3472 C   0  0  0  0  0  0  0  0  0  0  0  0
   10.4924  -17.1874   23.5817 C   0  0  2  0  0  0  0  0  0  0  0  0
    9.4527  -16.1426   23.6615 N   0  0  0  0  0  0  0  0  0  0  0  0
   11.2045  -17.2052   24.8557 C   0  0  0  0  0  0  0  0  0  0  0  0
   11.5411  -18.2762   25.4487 O   0  0  0  0  0  0  0  0  0  0  0  0
   11.5410  -15.9845   25.4718 O   0  0  0  0  0  0  0  0  0  0  0  0
  2  1  1  0
  3  2  1  0
  3  4  1  1
  5  3  1  0
  5  6  1  6
  7  5  1  0
  8  7  2  0
  9  7  1  0
 10 21  1  0
 10  9  1  0
 10 11  1  1
 12 11  1  0
 13 12  2  0
 14 13  1  0
 15 14  1  0
 15 20  2  0
 16 15  1  0
 17 16  2  0
 17 18  1  0
 18 19  2  0
 19 20  1  0
 20 12  1  0
 21 28  1  0
 22 21  2  0
 24 23  1  1
 24 25  1  0
 24 26  1  0
 27 26  1  6
 27 29  1  0
 28 27  1  0
 29 30  2  0
 29 31  1  0
M  END
$$$$
