PLP.pdb
     RDKit          3D

 23 24  0  0  1  0  0  0  0  0999 V2000
    7.8455  -16.4421   20.8828 N   0  0  0  0  0  0  0  0  0  0  0  0
    7.6162  -16.5726   19.4533 C   0  0  0  0  0  0  0  0  0  0  0  0
    7.7134  -15.1787   18.8769 C   0  0  0  0  0  0  0  0  0  0  0  0
    8.1405  -14.3214   20.0546 C   0  0  0  0  0  0  0  0  0  0  0  0
    8.7615  -15.3462   20.9602 C   0  0  1  0  0  0  0  0  0  0  0  0
    8.9573  -14.8489   22.3438 C   0  0  0  0  0  0  0  0  0  0  0  0
   10.0174  -14.2282   22.6162 O   0  0  0  0  0  0  0  0  0  0  0  0
    7.1009  -11.4752   26.1985 C   0  0  0  0  0  0  0  0  0  0  0  0
    6.7209  -12.9000   26.2303 C   0  0  1  0  0  0  0  0  0  0  0  0
    5.2797  -12.9505   26.7765 C   0  0  0  0  0  0  0  0  0  0  0  0
    6.8863  -13.7513   25.0535 C   0  0  0  0  0  0  0  0  0  0  0  0
    8.1802  -14.3813   24.6912 C   0  0  2  0  0  0  0  0  0  0  0  0
    8.0142  -15.0377   23.3676 N   0  0  0  0  0  0  0  0  0  0  0  0
    8.8061  -15.2374   25.6741 C   0  0  0  0  0  0  0  0  0  0  0  0
    8.6854  -16.5165   25.5675 O   0  0  0  0  0  0  0  0  0  0  0  0
    9.5845  -14.8524   26.8116 N   0  0  0  0  0  0  0  0  0  0  0  0
    9.6188  -13.5804   27.4361 C   0  0  0  0  0  0  0  0  0  0  0  0
   10.3557  -13.8102   28.7521 C   0  0  0  0  0  0  0  0  0  0  0  0
   11.3549  -14.8873   28.3791 C   0  0  0  0  0  0  0  0  0  0  0  0
   10.5003  -15.7776   27.4988 C   0  0  1  0  0  0  0  0  0  0  0  0
    9.7551  -16.7007   28.3710 C   0  0  0  0  0  0  0  0  0  0  0  0
   10.4197  -17.7195   29.0102 O   0  0  0  0  0  0  0  0  0  0  0  0
    8.5302  -16.5620   28.5307 O   0  0  0  0  0  0  0  0  0  0  0  0
  2  3  1  0
  2  1  1  0
  3  4  1  0
  5  4  1  0
  5  1  1  0
  5  6  1  1
  6  7  2  0
  9  8  1  6
  9 10  1  0
 11  9  1  0
 12 11  1  1
 12 14  1  0
 13  6  1  0
 13 12  1  0
 14 15  2  0
 16 14  1  0
 16 17  1  0
 17 18  1  0
 19 18  1  0
 20 16  1  0
 20 19  1  0
 21 22  1  0
 20 21  1  1
 23 21  2  0
M  END
$$$$
