PLP.pdb
     RDKit          3D

 23 24  0  0  1  0  0  0  0  0999 V2000
    7.5494  -16.2477   21.3867 N   0  0  0  0  0  0  0  0  0  0  0  0
    7.2611  -16.3427   19.9651 C   0  0  0  0  0  0  0  0  0  0  0  0
    7.5234  -14.9721   19.3843 C   0  0  0  0  0  0  0  0  0  0  0  0
    8.0957  -14.1820   20.5472 C   0  0  0  0  0  0  0  0  0  0  0  0
    8.6037  -15.2823   21.4346 C   0  0  1  0  0  0  0  0  0  0  0  0
    8.9058  -14.8191   22.8108 C   0  0  0  0  0  0  0  0  0  0  0  0
   10.0021  -14.2395   23.0241 O   0  0  0  0  0  0  0  0  0  0  0  0
    5.2983  -12.3234   26.4428 C   0  0  0  0  0  0  0  0  0  0  0  0
    6.4889  -12.7462   25.6819 C   0  0  1  0  0  0  0  0  0  0  0  0
    7.5200  -11.6086   25.8260 C   0  0  0  0  0  0  0  0  0  0  0  0
    7.0946  -14.0591   25.8968 C   0  0  0  0  0  0  0  0  0  0  0  0
    8.3594  -14.4789   25.2436 C   0  0  2  0  0  0  0  0  0  0  0  0
    8.0250  -14.9966   23.8907 N   0  0  0  0  0  0  0  0  0  0  0  0
    9.2367  -15.3565   25.9858 C   0  0  0  0  0  0  0  0  0  0  0  0
    9.3526  -16.5884   25.6243 O   0  0  0  0  0  0  0  0  0  0  0  0
   10.0413  -15.0410   27.1264 N   0  0  0  0  0  0  0  0  0  0  0  0
   10.0500  -13.8286   27.8606 C   0  0  0  0  0  0  0  0  0  0  0  0
   10.8434  -14.1424   29.1253 C   0  0  0  0  0  0  0  0  0  0  0  0
   11.8686  -15.1402   28.6243 C   0  0  0  0  0  0  0  0  0  0  0  0
   11.0168  -15.9843   27.6971 C   0  0  1  0  0  0  0  0  0  0  0  0
   10.3403  -17.0106   28.5078 C   0  0  0  0  0  0  0  0  0  0  0  0
   11.0675  -18.0506   29.0348 O   0  0  0  0  0  0  0  0  0  0  0  0
    9.1170  -16.9398   28.7166 O   0  0  0  0  0  0  0  0  0  0  0  0
  2  3  1  0
  2  1  1  0
  3  4  1  0
  5  4  1  0
  5  1  1  0
  5  6  1  1
  6  7  2  0
  9  8  1  1
  9 10  1  0
 11  9  1  0
 12 11  1  1
 12 14  1  0
 13  6  1  0
 13 12  1  0
 14 15  2  0
 16 14  1  0
 16 17  1  0
 17 18  1  0
 19 18  1  0
 20 16  1  0
 20 19  1  0
 21 22  1  0
 20 21  1  1
 23 21  2  0
M  END
$$$$
