PLP.pdb
     RDKit          3D

 23 24  0  0  1  0  0  0  0  0999 V2000
    9.2443  -15.4542   20.5269 N   0  0  0  0  0  0  0  0  0  0  0  0
    8.9548  -16.3974   19.4592 C   0  0  0  0  0  0  0  0  0  0  0  0
    8.6821  -17.7260   20.1263 C   0  0  0  0  0  0  0  0  0  0  0  0
    8.7088  -17.4062   21.6100 C   0  0  0  0  0  0  0  0  0  0  0  0
    8.4303  -15.9303   21.6025 C   0  0  1  0  0  0  0  0  0  0  0  0
    8.7404  -15.2791   22.8985 C   0  0  0  0  0  0  0  0  0  0  0  0
    9.9026  -14.8350   23.0864 O   0  0  0  0  0  0  0  0  0  0  0  0
    5.2318  -12.1560   26.2933 C   0  0  0  0  0  0  0  0  0  0  0  0
    6.4175  -12.6730   25.5846 C   0  0  1  0  0  0  0  0  0  0  0  0
    7.5039  -11.5859   25.7100 C   0  0  0  0  0  0  0  0  0  0  0  0
    6.9462  -14.0053   25.8714 C   0  0  0  0  0  0  0  0  0  0  0  0
    8.1779  -14.5365   25.2362 C   0  0  2  0  0  0  0  0  0  0  0  0
    7.7970  -15.1337   23.9291 N   0  0  0  0  0  0  0  0  0  0  0  0
    9.0210  -15.4016   26.0308 C   0  0  0  0  0  0  0  0  0  0  0  0
    9.0928  -16.6556   25.7403 O   0  0  0  0  0  0  0  0  0  0  0  0
    9.8339  -15.0512   27.1553 N   0  0  0  0  0  0  0  0  0  0  0  0
    9.8095  -13.8365   27.8853 C   0  0  0  0  0  0  0  0  0  0  0  0
   10.6378  -14.1148   29.1361 C   0  0  0  0  0  0  0  0  0  0  0  0
   11.6911  -15.0744   28.6190 C   0  0  0  0  0  0  0  0  0  0  0  0
   10.8553  -15.9542   27.7105 C   0  0  1  0  0  0  0  0  0  0  0  0
   10.2340  -17.0026   28.5369 C   0  0  0  0  0  0  0  0  0  0  0  0
   11.0094  -18.0149   29.0489 O   0  0  0  0  0  0  0  0  0  0  0  0
    9.0138  -16.9752   28.7723 O   0  0  0  0  0  0  0  0  0  0  0  0
  2  3  1  0
  2  1  1  0
  3  4  1  0
  5  4  1  0
  5  1  1  0
  5  6  1  1
  6  7  2  0
  9  8  1  1
  9 10  1  0
 11  9  1  0
 12 11  1  1
 12 14  1  0
 13  6  1  0
 13 12  1  0
 14 15  2  0
 16 14  1  0
 16 17  1  0
 17 18  1  0
 19 18  1  0
 20 16  1  0
 20 19  1  0
 21 22  1  0
 20 21  1  1
 23 21  2  0
M  END
$$$$
