PLP.pdb
     RDKit          3D

 23 24  0  0  1  0  0  0  0  0999 V2000
    7.4193  -16.2309   21.1904 N   0  0  0  0  0  0  0  0  0  0  0  0
    7.1954  -16.2922   19.7554 C   0  0  0  0  0  0  0  0  0  0  0  0
    7.6377  -14.9589   19.1976 C   0  0  0  0  0  0  0  0  0  0  0  0
    8.2340  -14.2383   20.3931 C   0  0  0  0  0  0  0  0  0  0  0  0
    8.5705  -15.3889   21.2980 C   0  0  1  0  0  0  0  0  0  0  0  0
    8.8513  -14.9632   22.6908 C   0  0  0  0  0  0  0  0  0  0  0  0
    9.9526  -14.4083   22.9404 O   0  0  0  0  0  0  0  0  0  0  0  0
    5.1280  -12.5054   26.2748 C   0  0  0  0  0  0  0  0  0  0  0  0
    6.2963  -12.9341   25.4833 C   0  0  1  0  0  0  0  0  0  0  0  0
    7.3091  -11.7729   25.5445 C   0  0  0  0  0  0  0  0  0  0  0  0
    6.9361  -14.2265   25.7221 C   0  0  0  0  0  0  0  0  0  0  0  0
    8.2293  -14.6111   25.1036 C   0  0  2  0  0  0  0  0  0  0  0  0
    7.9449  -15.1502   23.7476 N   0  0  0  0  0  0  0  0  0  0  0  0
    9.1154  -15.4542   25.8747 C   0  0  0  0  0  0  0  0  0  0  0  0
    9.2411  -16.6973   25.5571 O   0  0  0  0  0  0  0  0  0  0  0  0
    9.9193  -15.0916   27.0017 N   0  0  0  0  0  0  0  0  0  0  0  0
    9.9422  -13.8430   27.6722 C   0  0  0  0  0  0  0  0  0  0  0  0
   10.7253  -14.1021   28.9557 C   0  0  0  0  0  0  0  0  0  0  0  0
   11.7383  -15.1390   28.5123 C   0  0  0  0  0  0  0  0  0  0  0  0
   10.8785  -16.0178   27.6255 C   0  0  1  0  0  0  0  0  0  0  0  0
   10.1836  -16.9910   28.4847 C   0  0  0  0  0  0  0  0  0  0  0  0
   10.8879  -18.0295   29.0449 O   0  0  0  0  0  0  0  0  0  0  0  0
    8.9655  -16.8768   28.7044 O   0  0  0  0  0  0  0  0  0  0  0  0
  2  3  1  0
  2  1  1  0
  3  4  1  0
  5  4  1  0
  5  1  1  0
  5  6  1  1
  6  7  2  0
  9  8  1  1
  9 10  1  0
 11  9  1  0
 12 11  1  1
 12 14  1  0
 13  6  1  0
 13 12  1  0
 14 15  2  0
 16 14  1  0
 16 17  1  0
 17 18  1  0
 19 18  1  0
 20 16  1  0
 20 19  1  0
 21 22  1  0
 20 21  1  1
 23 21  2  0
M  END
$$$$
