PLP.pdb
     RDKit          3D

 23 24  0  0  1  0  0  0  0  0999 V2000
    7.9495  -16.8276   21.0210 N   0  0  0  0  0  0  0  0  0  0  0  0
    7.9170  -17.1467   19.6031 C   0  0  0  0  0  0  0  0  0  0  0  0
    8.4883  -15.9469   18.8828 C   0  0  0  0  0  0  0  0  0  0  0  0
    8.9504  -15.0307   20.0014 C   0  0  0  0  0  0  0  0  0  0  0  0
    9.1120  -16.0020   21.1356 C   0  0  1  0  0  0  0  0  0  0  0  0
    9.2225  -15.3335   22.4550 C   0  0  0  0  0  0  0  0  0  0  0  0
   10.3026  -14.7598   22.7508 O   0  0  0  0  0  0  0  0  0  0  0  0
    7.2107  -11.5924   25.9756 C   0  0  0  0  0  0  0  0  0  0  0  0
    6.8537  -13.0166   26.1157 C   0  0  1  0  0  0  0  0  0  0  0  0
    5.4166  -13.0487   26.6738 C   0  0  0  0  0  0  0  0  0  0  0  0
    7.0261  -13.9503   25.0043 C   0  0  0  0  0  0  0  0  0  0  0  0
    8.3259  -14.5922   24.6864 C   0  0  2  0  0  0  0  0  0  0  0  0
    8.1770  -15.3098   23.3929 N   0  0  0  0  0  0  0  0  0  0  0  0
    8.9429  -15.3996   25.7151 C   0  0  0  0  0  0  0  0  0  0  0  0
    8.7549  -16.6750   25.7159 O   0  0  0  0  0  0  0  0  0  0  0  0
    9.7792  -14.9673   26.7929 N   0  0  0  0  0  0  0  0  0  0  0  0
    9.8546  -13.6665   27.3509 C   0  0  0  0  0  0  0  0  0  0  0  0
   10.6533  -13.8390   28.6394 C   0  0  0  0  0  0  0  0  0  0  0  0
   11.6240  -14.9438   28.2723 C   0  0  0  0  0  0  0  0  0  0  0  0
   10.7200  -15.8672   27.4799 C   0  0  1  0  0  0  0  0  0  0  0  0
   10.0109  -16.7382   28.4321 C   0  0  0  0  0  0  0  0  0  0  0  0
    8.6714  -16.5418   28.6672 O   0  0  0  0  0  0  0  0  0  0  0  0
   10.6182  -17.6482   29.0224 O   0  0  0  0  0  0  0  0  0  0  0  0
  2  3  1  0
  2  1  1  0
  3  4  1  0
  5  4  1  0
  5  1  1  0
  5  6  1  1
  6  7  2  0
  9  8  1  6
  9 10  1  0
 11  9  1  0
 12 11  1  1
 12 14  1  0
 13  6  1  0
 13 12  1  0
 14 15  2  0
 16 14  1  0
 16 17  1  0
 17 18  1  0
 19 18  1  0
 20 16  1  0
 20 19  1  0
 21 22  1  0
 20 21  1  1
 23 21  2  0
M  END
$$$$
