PLP.pdb
     RDKit          3D

 23 24  0  0  1  0  0  0  0  0999 V2000
    7.5506  -16.4499   21.2771 N   0  0  0  0  0  0  0  0  0  0  0  0
    7.3558  -16.6026   19.8446 C   0  0  0  0  0  0  0  0  0  0  0  0
    7.8052  -15.3053   19.2125 C   0  0  0  0  0  0  0  0  0  0  0  0
    8.3751  -14.5080   20.3718 C   0  0  0  0  0  0  0  0  0  0  0  0
    8.6968  -15.5977   21.3541 C   0  0  1  0  0  0  0  0  0  0  0  0
    8.9482  -15.0838   22.7225 C   0  0  0  0  0  0  0  0  0  0  0  0
   10.0318  -14.4868   22.9519 O   0  0  0  0  0  0  0  0  0  0  0  0
    5.1913  -12.5102   26.2212 C   0  0  0  0  0  0  0  0  0  0  0  0
    6.3685  -12.9500   25.4491 C   0  0  1  0  0  0  0  0  0  0  0  0
    7.3847  -11.7920   25.5138 C   0  0  0  0  0  0  0  0  0  0  0  0
    7.0003  -14.2426   25.7078 C   0  0  0  0  0  0  0  0  0  0  0  0
    8.3019  -14.6358   25.1130 C   0  0  2  0  0  0  0  0  0  0  0  0
    8.0328  -15.2316   23.7777 N   0  0  0  0  0  0  0  0  0  0  0  0
    9.1927  -15.4371   25.9223 C   0  0  0  0  0  0  0  0  0  0  0  0
    9.4146  -16.6637   25.5937 O   0  0  0  0  0  0  0  0  0  0  0  0
    9.9053  -15.0469   27.1004 N   0  0  0  0  0  0  0  0  0  0  0  0
    9.7518  -13.8454   27.8367 C   0  0  0  0  0  0  0  0  0  0  0  0
   10.5137  -14.0830   29.1370 C   0  0  0  0  0  0  0  0  0  0  0  0
   11.6606  -14.9640   28.6830 C   0  0  0  0  0  0  0  0  0  0  0  0
   10.9469  -15.8864   27.7147 C   0  0  1  0  0  0  0  0  0  0  0  0
   10.3450  -16.9838   28.4903 C   0  0  0  0  0  0  0  0  0  0  0  0
    8.9833  -17.0233   28.6706 O   0  0  0  0  0  0  0  0  0  0  0  0
   11.0624  -17.8723   28.9813 O   0  0  0  0  0  0  0  0  0  0  0  0
  2  3  1  0
  2  1  1  0
  3  4  1  0
  5  4  1  0
  5  1  1  0
  5  6  1  1
  6  7  2  0
  9  8  1  1
  9 10  1  0
 11  9  1  0
 12 11  1  1
 12 14  1  0
 13  6  1  0
 13 12  1  0
 14 15  2  0
 16 14  1  0
 16 17  1  0
 17 18  1  0
 19 18  1  0
 20 16  1  0
 20 19  1  0
 21 22  1  0
 20 21  1  1
 23 21  2  0
M  END
$$$$
