PLP.pdb
     RDKit          3D

 23 24  0  0  1  0  0  0  0  0999 V2000
    9.2297  -15.3959   20.3670 N   0  0  0  0  0  0  0  0  0  0  0  0
    9.0484  -16.3747   19.3077 C   0  0  0  0  0  0  0  0  0  0  0  0
    9.0160  -17.7285   19.9791 C   0  0  0  0  0  0  0  0  0  0  0  0
    9.0533  -17.4059   21.4619 C   0  0  0  0  0  0  0  0  0  0  0  0
    8.5460  -15.9922   21.4728 C   0  0  1  0  0  0  0  0  0  0  0  0
    8.8030  -15.2980   22.7581 C   0  0  0  0  0  0  0  0  0  0  0  0
    9.9214  -14.7486   22.9326 O   0  0  0  0  0  0  0  0  0  0  0  0
    5.2340  -12.1980   26.0922 C   0  0  0  0  0  0  0  0  0  0  0  0
    6.3834  -12.7515   25.3518 C   0  0  1  0  0  0  0  0  0  0  0  0
    7.4700  -11.6574   25.3603 C   0  0  0  0  0  0  0  0  0  0  0  0
    6.9322  -14.0652   25.6832 C   0  0  0  0  0  0  0  0  0  0  0  0
    8.1908  -14.5841   25.0923 C   0  0  2  0  0  0  0  0  0  0  0  0
    7.8557  -15.2240   23.7928 N   0  0  0  0  0  0  0  0  0  0  0  0
    9.0332  -15.4086   25.9297 C   0  0  0  0  0  0  0  0  0  0  0  0
    9.1752  -16.6586   25.6484 O   0  0  0  0  0  0  0  0  0  0  0  0
    9.7751  -15.0193   27.0899 N   0  0  0  0  0  0  0  0  0  0  0  0
    9.6569  -13.8080   27.8165 C   0  0  0  0  0  0  0  0  0  0  0  0
   10.4395  -14.0460   29.1044 C   0  0  0  0  0  0  0  0  0  0  0  0
   11.5619  -14.9516   28.6376 C   0  0  0  0  0  0  0  0  0  0  0  0
   10.8136  -15.8709   27.6927 C   0  0  1  0  0  0  0  0  0  0  0  0
   10.2078  -16.9497   28.4910 C   0  0  0  0  0  0  0  0  0  0  0  0
   11.0062  -17.9321   29.0254 O   0  0  0  0  0  0  0  0  0  0  0  0
    8.9798  -16.9749   28.6827 O   0  0  0  0  0  0  0  0  0  0  0  0
  2  3  1  0
  2  1  1  0
  3  4  1  0
  5  4  1  0
  5  1  1  0
  5  6  1  1
  6  7  2  0
  9  8  1  1
  9 10  1  0
 11  9  1  0
 12 11  1  1
 12 14  1  0
 13  6  1  0
 13 12  1  0
 14 15  2  0
 16 14  1  0
 16 17  1  0
 17 18  1  0
 19 18  1  0
 20 16  1  0
 20 19  1  0
 21 22  1  0
 20 21  1  1
 23 21  2  0
M  END
$$$$
