PLP.pdb
     RDKit          3D

 23 24  0  0  1  0  0  0  0  0999 V2000
    9.1910  -15.4419   20.3902 N   0  0  0  0  0  0  0  0  0  0  0  0
    8.9898  -16.4290   19.3423 C   0  0  0  0  0  0  0  0  0  0  0  0
    8.8940  -17.7702   20.0326 C   0  0  0  0  0  0  0  0  0  0  0  0
    8.9189  -17.4268   21.5111 C   0  0  0  0  0  0  0  0  0  0  0  0
    8.4664  -15.9947   21.4926 C   0  0  1  0  0  0  0  0  0  0  0  0
    8.7286  -15.2914   22.7719 C   0  0  0  0  0  0  0  0  0  0  0  0
    9.8635  -14.7804   22.9566 O   0  0  0  0  0  0  0  0  0  0  0  0
    5.1620  -12.1512   26.1365 C   0  0  0  0  0  0  0  0  0  0  0  0
    6.3374  -12.6751   25.4159 C   0  0  1  0  0  0  0  0  0  0  0  0
    7.4362  -11.6007   25.5429 C   0  0  0  0  0  0  0  0  0  0  0  0
    6.8536  -14.0153   25.6884 C   0  0  0  0  0  0  0  0  0  0  0  0
    8.1097  -14.5313   25.0897 C   0  0  2  0  0  0  0  0  0  0  0  0
    7.7687  -15.1678   23.7901 N   0  0  0  0  0  0  0  0  0  0  0  0
    8.9572  -15.3572   25.9205 C   0  0  0  0  0  0  0  0  0  0  0  0
    9.0648  -16.6153   25.6609 O   0  0  0  0  0  0  0  0  0  0  0  0
    9.7388  -14.9613   27.0520 N   0  0  0  0  0  0  0  0  0  0  0  0
    9.6960  -13.7177   27.7308 C   0  0  0  0  0  0  0  0  0  0  0  0
   10.4885  -13.9449   29.0146 C   0  0  0  0  0  0  0  0  0  0  0  0
   11.5543  -14.9253   28.5670 C   0  0  0  0  0  0  0  0  0  0  0  0
   10.7429  -15.8412   27.6722 C   0  0  1  0  0  0  0  0  0  0  0  0
   10.0970  -16.8546   28.5231 C   0  0  0  0  0  0  0  0  0  0  0  0
   10.8547  -17.8512   29.0897 O   0  0  0  0  0  0  0  0  0  0  0  0
    8.8721  -16.8119   28.7301 O   0  0  0  0  0  0  0  0  0  0  0  0
  2  3  1  0
  2  1  1  0
  3  4  1  0
  5  4  1  0
  5  1  1  0
  5  6  1  1
  6  7  2  0
  9  8  1  1
  9 10  1  0
 11  9  1  0
 12 11  1  1
 12 14  1  0
 13  6  1  0
 13 12  1  0
 14 15  2  0
 16 14  1  0
 16 17  1  0
 17 18  1  0
 19 18  1  0
 20 16  1  0
 20 19  1  0
 21 22  1  0
 20 21  1  1
 23 21  2  0
M  END
$$$$
