PLP.pdb
     RDKit          3D

 23 24  0  0  1  0  0  0  0  0999 V2000
    7.6463  -16.4241   21.3431 N   0  0  0  0  0  0  0  0  0  0  0  0
    7.3567  -16.5230   19.9220 C   0  0  0  0  0  0  0  0  0  0  0  0
    7.6062  -15.1508   19.3395 C   0  0  0  0  0  0  0  0  0  0  0  0
    8.1734  -14.3545   20.5008 C   0  0  0  0  0  0  0  0  0  0  0  0
    8.6923  -15.4495   21.3884 C   0  0  1  0  0  0  0  0  0  0  0  0
    8.9925  -14.9823   22.7638 C   0  0  0  0  0  0  0  0  0  0  0  0
   10.1034  -14.4344   22.9846 O   0  0  0  0  0  0  0  0  0  0  0  0
    5.3195  -12.3408   26.2162 C   0  0  0  0  0  0  0  0  0  0  0  0
    6.5148  -12.8033   25.4864 C   0  0  1  0  0  0  0  0  0  0  0  0
    7.5425  -11.6566   25.5702 C   0  0  0  0  0  0  0  0  0  0  0  0
    7.1225  -14.1002   25.7789 C   0  0  0  0  0  0  0  0  0  0  0  0
    8.4006  -14.5459   25.1704 C   0  0  2  0  0  0  0  0  0  0  0  0
    8.0942  -15.1224   23.8347 N   0  0  0  0  0  0  0  0  0  0  0  0
    9.2632  -15.3891   25.9676 C   0  0  0  0  0  0  0  0  0  0  0  0
    9.4338  -16.6208   25.6274 O   0  0  0  0  0  0  0  0  0  0  0  0
    9.9974  -15.0380   27.1447 N   0  0  0  0  0  0  0  0  0  0  0  0
    9.9145  -13.8275   27.8776 C   0  0  0  0  0  0  0  0  0  0  0  0
   10.6613  -14.1056   29.1786 C   0  0  0  0  0  0  0  0  0  0  0  0
   11.7547  -15.0534   28.7272 C   0  0  0  0  0  0  0  0  0  0  0  0
   10.9882  -15.9352   27.7615 C   0  0  1  0  0  0  0  0  0  0  0  0
   10.3232  -16.9934   28.5401 C   0  0  0  0  0  0  0  0  0  0  0  0
   11.0716  -18.0051   29.0920 O   0  0  0  0  0  0  0  0  0  0  0  0
    9.0906  -16.9747   28.6995 O   0  0  0  0  0  0  0  0  0  0  0  0
  2  3  1  0
  2  1  1  0
  3  4  1  0
  5  4  1  0
  5  1  1  0
  5  6  1  1
  6  7  2  0
  9  8  1  1
  9 10  1  0
 11  9  1  0
 12 11  1  1
 12 14  1  0
 13  6  1  0
 13 12  1  0
 14 15  2  0
 16 14  1  0
 16 17  1  0
 17 18  1  0
 19 18  1  0
 20 16  1  0
 20 19  1  0
 21 22  1  0
 20 21  1  1
 23 21  2  0
M  END
$$$$
