PLP.pdb
     RDKit          3D

 23 24  0  0  1  0  0  0  0  0999 V2000
    7.8303  -16.6928   20.9556 N   0  0  0  0  0  0  0  0  0  0  0  0
    7.6807  -16.9407   19.5310 C   0  0  0  0  0  0  0  0  0  0  0  0
    8.1341  -15.6812   18.8292 C   0  0  0  0  0  0  0  0  0  0  0  0
    8.6594  -14.8028   19.9502 C   0  0  0  0  0  0  0  0  0  0  0  0
    8.9638  -15.8221   21.0106 C   0  0  1  0  0  0  0  0  0  0  0  0
    9.1677  -15.2172   22.3494 C   0  0  0  0  0  0  0  0  0  0  0  0
   10.2840  -14.6996   22.6126 O   0  0  0  0  0  0  0  0  0  0  0  0
    7.4050  -11.4730   26.0686 C   0  0  0  0  0  0  0  0  0  0  0  0
    6.9968  -12.8891   26.1259 C   0  0  1  0  0  0  0  0  0  0  0  0
    5.5632  -12.9027   26.6938 C   0  0  0  0  0  0  0  0  0  0  0  0
    7.1273  -13.7596   24.9589 C   0  0  0  0  0  0  0  0  0  0  0  0
    8.3855  -14.4708   24.6218 C   0  0  2  0  0  0  0  0  0  0  0  0
    8.1724  -15.1941   23.3404 N   0  0  0  0  0  0  0  0  0  0  0  0
    8.9823  -15.2975   25.6470 C   0  0  0  0  0  0  0  0  0  0  0  0
    8.8294  -16.5765   25.5969 O   0  0  0  0  0  0  0  0  0  0  0  0
    9.7624  -14.8816   26.7725 N   0  0  0  0  0  0  0  0  0  0  0  0
    9.8377  -13.5804   27.3295 C   0  0  0  0  0  0  0  0  0  0  0  0
   10.5515  -13.7670   28.6650 C   0  0  0  0  0  0  0  0  0  0  0  0
   11.5134  -14.8985   28.3618 C   0  0  0  0  0  0  0  0  0  0  0  0
   10.6355  -15.8022   27.5189 C   0  0  1  0  0  0  0  0  0  0  0  0
    9.8470  -16.6496   28.4289 C   0  0  0  0  0  0  0  0  0  0  0  0
   10.4648  -17.6611   29.1242 O   0  0  0  0  0  0  0  0  0  0  0  0
    8.6276  -16.4537   28.5702 O   0  0  0  0  0  0  0  0  0  0  0  0
  2  3  1  0
  2  1  1  0
  3  4  1  0
  5  4  1  0
  5  1  1  0
  5  6  1  1
  6  7  2  0
  9  8  1  6
  9 10  1  0
 11  9  1  0
 12 11  1  1
 12 14  1  0
 13  6  1  0
 13 12  1  0
 14 15  2  0
 16 14  1  0
 16 17  1  0
 17 18  1  0
 19 18  1  0
 20 16  1  0
 20 19  1  0
 21 22  1  0
 20 21  1  1
 23 21  2  0
M  END
$$$$
