WNQ.pdb
     RDKit          3D

 32 33  0  0  1  0  0  0  0  0999 V2000
   20.7483   -7.4034  -16.4486 N   0  0  0  0  0  0  0  0  0  0  0  0
   21.4830   -8.6508  -16.4819 C   0  0  1  0  0  0  0  0  0  0  0  0
   22.0702   -8.8893  -15.1316 C   0  0  0  0  0  0  0  0  0  0  0  0
   23.5379   -8.5998  -15.1394 C   0  0  0  0  0  0  0  0  0  0  0  0
   24.1959   -7.3884  -15.1409 C   0  0  0  0  0  0  0  0  0  0  0  0
   25.5369   -7.5777  -15.1498 N   0  0  0  0  0  0  0  0  0  0  0  0
   25.7797   -8.8950  -15.1543 C   0  0  0  0  0  0  0  0  0  0  0  0
   26.9483   -9.6181  -15.1628 C   0  0  0  0  0  0  0  0  0  0  0  0
   26.9425  -11.0033  -15.1651 C   0  0  0  0  0  0  0  0  0  0  0  0
   25.7269  -11.6380  -15.1587 C   0  0  0  0  0  0  0  0  0  0  0  0
   24.5558  -10.9159  -15.1503 C   0  0  0  0  0  0  0  0  0  0  0  0
   24.5671   -9.5500  -15.1479 C   0  0  0  0  0  0  0  0  0  0  0  0
   20.6667   -9.7117  -17.0278 C   0  0  0  0  0  0  0  0  0  0  0  0
   19.4236   -9.6981  -16.8189 O   0  0  0  0  0  0  0  0  0  0  0  0
   20.2374  -11.4151  -21.9274 N   0  0  0  0  0  0  0  0  0  0  0  0
   20.9647  -11.4410  -20.7371 C   0  0  0  0  0  0  0  0  0  0  0  0
   21.8289  -10.5202  -20.5648 O   0  0  0  0  0  0  0  0  0  0  0  0
   20.8454  -12.4214  -19.6472 C   0  0  0  0  0  0  0  0  0  0  0  0
   20.3356  -11.8445  -18.3610 C   0  0  2  0  0  0  0  0  0  0  0  0
   21.1307  -10.8077  -17.8030 N   0  0  0  0  0  0  0  0  0  0  0  0
   20.0122  -12.9288  -17.3895 C   0  0  0  0  0  0  0  0  0  0  0  0
   20.6469  -13.0709  -16.3130 O   0  0  0  0  0  0  0  0  0  0  0  0
   15.8688  -15.4654  -14.0513 N   0  0  0  0  0  0  0  0  0  0  0  0
   15.5807  -14.3945  -14.9238 C   0  0  0  0  0  0  0  0  0  0  0  0
   14.3970  -14.0034  -15.0283 O   0  0  0  0  0  0  0  0  0  0  0  0
   16.6689  -13.7660  -15.6877 C   0  0  0  0  0  0  0  0  0  0  0  0
   18.0354  -14.3262  -15.4258 C   0  0  0  0  0  0  0  0  0  0  0  0
   18.6301  -14.9179  -16.6461 C   0  0  2  0  0  0  0  0  0  0  0  0
   18.9667  -13.8642  -17.6253 N   0  0  0  0  0  0  0  0  0  0  0  0
   17.6361  -15.7627  -17.3487 C   0  0  0  0  0  0  0  0  0  0  0  0
   17.1263  -15.4622  -18.4683 O   0  0  0  0  0  0  0  0  0  0  0  0
   17.2371  -16.9524  -16.7592 O   0  0  0  0  0  0  0  0  0  0  0  0
  2  1  1  1
  2 13  1  0
  2  3  1  0
  3  4  1  0
  4 12  1  0
  4  5  2  0
  5  6  1  0
  7  8  2  0
  7  6  1  0
  9  8  1  0
 10  9  2  0
 11 10  1  0
 11 12  2  0
 12  7  1  0
 13 20  1  0
 13 14  2  0
 15 16  1  0
 16 18  1  0
 17 16  2  0
 19 18  1  6
 20 19  1  0
 21 22  2  0
 21 19  1  0
 23 24  1  0
 24 26  1  0
 25 24  2  0
 27 26  1  0
 28 27  1  1
 28 29  1  0
 29 21  1  0
 30 28  1  0
 30 32  1  0
 31 30  2  0
M  END
$$$$
