WNQ.pdb
     RDKit          3D

 32 33  0  0  1  0  0  0  0  0999 V2000
   25.8830  -20.2391  -15.5245 N   0  0  0  0  0  0  0  0  0  0  0  0
   24.9120  -19.2773  -15.0459 C   0  0  1  0  0  0  0  0  0  0  0  0
   24.3734  -18.5271  -16.2172 C   0  0  0  0  0  0  0  0  0  0  0  0
   25.4711  -17.7916  -16.9188 C   0  0  0  0  0  0  0  0  0  0  0  0
   26.0786  -18.0607  -18.1266 C   0  0  0  0  0  0  0  0  0  0  0  0
   27.0338  -17.1381  -18.3924 N   0  0  0  0  0  0  0  0  0  0  0  0
   27.0703  -16.2611  -17.3806 C   0  0  0  0  0  0  0  0  0  0  0  0
   27.8428  -15.1480  -17.1514 C   0  0  0  0  0  0  0  0  0  0  0  0
   27.6907  -14.3847  -16.0055 C   0  0  0  0  0  0  0  0  0  0  0  0
   26.7389  -14.7746  -15.0986 C   0  0  0  0  0  0  0  0  0  0  0  0
   25.9645  -15.8888  -15.3262 C   0  0  0  0  0  0  0  0  0  0  0  0
   26.1185  -16.6381  -16.4579 C   0  0  0  0  0  0  0  0  0  0  0  0
   23.9410  -19.9146  -14.1851 C   0  0  0  0  0  0  0  0  0  0  0  0
   24.0824  -21.1341  -13.8990 O   0  0  0  0  0  0  0  0  0  0  0  0
   19.4320  -20.4130  -10.8766 N   0  0  0  0  0  0  0  0  0  0  0  0
   20.5834  -19.6821  -10.5823 C   0  0  0  0  0  0  0  0  0  0  0  0
   20.9017  -19.5703   -9.3533 O   0  0  0  0  0  0  0  0  0  0  0  0
   21.4809  -19.0191  -11.5406 C   0  0  0  0  0  0  0  0  0  0  0  0
   21.8889  -19.8854  -12.6938 C   0  0  2  0  0  0  0  0  0  0  0  0
   22.8035  -19.2924  -13.6051 N   0  0  0  0  0  0  0  0  0  0  0  0
   20.6913  -20.4752  -13.3586 C   0  0  0  0  0  0  0  0  0  0  0  0
   20.1155  -19.9070  -14.3217 O   0  0  0  0  0  0  0  0  0  0  0  0
   21.0971  -26.6364  -13.7241 N   0  0  0  0  0  0  0  0  0  0  0  0
   19.9443  -26.3940  -14.5007 C   0  0  0  0  0  0  0  0  0  0  0  0
   19.4681  -27.3292  -15.1816 O   0  0  0  0  0  0  0  0  0  0  0  0
   19.3319  -25.0569  -14.4953 C   0  0  0  0  0  0  0  0  0  0  0  0
   20.0183  -24.0467  -13.6247 C   0  0  0  0  0  0  0  0  0  0  0  0
   19.5505  -22.6702  -13.9060 C   0  0  2  0  0  0  0  0  0  0  0  0
   20.1320  -21.7147  -12.9410 N   0  0  0  0  0  0  0  0  0  0  0  0
   18.0890  -22.5652  -13.6855 C   0  0  0  0  0  0  0  0  0  0  0  0
   17.5678  -21.8997  -12.7425 O   0  0  0  0  0  0  0  0  0  0  0  0
   17.2346  -23.2247  -14.5556 O   0  0  0  0  0  0  0  0  0  0  0  0
  2  1  1  6
  2 13  1  0
  2  3  1  0
  3  4  1  0
  4 12  1  0
  4  5  2  0
  5  6  1  0
  7  8  2  0
  7  6  1  0
  9  8  1  0
 10  9  2  0
 11 10  1  0
 11 12  2  0
 12  7  1  0
 13 20  1  0
 13 14  2  0
 15 16  1  0
 16 18  1  0
 17 16  2  0
 19 18  1  1
 20 19  1  0
 21 22  2  0
 21 19  1  0
 23 24  1  0
 24 26  1  0
 25 24  2  0
 27 26  1  0
 28 27  1  1
 28 29  1  0
 29 21  1  0
 30 28  1  0
 30 32  1  0
 31 30  2  0
M  END
$$$$
