WNQ.pdb
     RDKit          3D

 32 33  0  0  1  0  0  0  0  0999 V2000
   14.9833  -14.7242    5.3535 N   0  0  0  0  0  0  0  0  0  0  0  0
   16.1185  -15.5865    5.0987 C   0  0  1  0  0  0  0  0  0  0  0  0
   17.3075  -15.0219    5.8004 C   0  0  0  0  0  0  0  0  0  0  0  0
   17.9936  -14.0100    4.9382 C   0  0  0  0  0  0  0  0  0  0  0  0
   18.0681  -12.6405    5.0778 C   0  0  0  0  0  0  0  0  0  0  0  0
   18.7921  -12.1001    4.0688 N   0  0  0  0  0  0  0  0  0  0  0  0
   19.1992  -13.0885    3.2617 C   0  0  0  0  0  0  0  0  0  0  0  0
   19.9506  -13.0902    2.1111 C   0  0  0  0  0  0  0  0  0  0  0  0
   20.2463  -14.2662    1.4413 C   0  0  0  0  0  0  0  0  0  0  0  0
   19.7637  -15.4387    1.9636 C   0  0  0  0  0  0  0  0  0  0  0  0
   19.0112  -15.4392    3.1154 C   0  0  0  0  0  0  0  0  0  0  0  0
   18.7225  -14.2767    3.7721 C   0  0  0  0  0  0  0  0  0  0  0  0
   15.7908  -16.9642    5.3896 C   0  0  0  0  0  0  0  0  0  0  0  0
   15.0905  -17.2266    6.4044 O   0  0  0  0  0  0  0  0  0  0  0  0
   15.4743  -22.2832    5.5662 N   0  0  0  0  0  0  0  0  0  0  0  0
   15.2429  -21.7322    4.3055 C   0  0  0  0  0  0  0  0  0  0  0  0
   14.7882  -22.5119    3.4058 O   0  0  0  0  0  0  0  0  0  0  0  0
   15.4669  -20.3381    3.8933 C   0  0  0  0  0  0  0  0  0  0  0  0
   16.0039  -19.4590    4.9822 C   0  0  2  0  0  0  0  0  0  0  0  0
   16.1865  -18.0955    4.6274 N   0  0  0  0  0  0  0  0  0  0  0  0
   17.2104  -20.0734    5.6076 C   0  0  0  0  0  0  0  0  0  0  0  0
   18.3768  -19.7466    5.2690 O   0  0  0  0  0  0  0  0  0  0  0  0
   17.6541  -23.4433    4.4958 N   0  0  0  0  0  0  0  0  0  0  0  0
   18.5006  -24.2182    5.3167 C   0  0  0  0  0  0  0  0  0  0  0  0
   18.4414  -25.4653    5.2373 O   0  0  0  0  0  0  0  0  0  0  0  0
   19.4269  -23.5493    6.2428 C   0  0  0  0  0  0  0  0  0  0  0  0
   19.3074  -22.0550    6.2925 C   0  0  0  0  0  0  0  0  0  0  0  0
   18.3064  -21.6166    7.2918 C   0  0  2  0  0  0  0  0  0  0  0  0
   17.1103  -21.0641    6.6235 N   0  0  0  0  0  0  0  0  0  0  0  0
   18.8329  -20.4840    8.0890 C   0  0  0  0  0  0  0  0  0  0  0  0
   18.3465  -19.3153    8.0538 O   0  0  0  0  0  0  0  0  0  0  0  0
   19.9155  -20.7047    8.9264 O   0  0  0  0  0  0  0  0  0  0  0  0
  2  1  1  1
  2 13  1  0
  2  3  1  0
  3  4  1  0
  4 12  1  0
  4  5  2  0
  5  6  1  0
  7  8  2  0
  7  6  1  0
  9  8  1  0
 10  9  2  0
 11 10  1  0
 11 12  2  0
 12  7  1  0
 13 20  1  0
 13 14  2  0
 15 16  1  0
 16 18  1  0
 17 16  2  0
 19 18  1  6
 20 19  1  0
 21 22  2  0
 21 19  1  0
 23 24  1  0
 24 26  1  0
 25 24  2  0
 27 26  1  0
 28 27  1  6
 28 29  1  0
 29 21  1  0
 30 28  1  0
 30 32  1  0
 31 30  2  0
M  END
$$$$
