WNQ.pdb
     RDKit          3D

 32 33  0  0  1  0  0  0  0  0999 V2000
   25.0604  -13.0683  -17.4429 N   0  0  0  0  0  0  0  0  0  0  0  0
   25.1404  -11.6541  -17.1420 C   0  0  1  0  0  0  0  0  0  0  0  0
   25.4645  -10.9210  -18.4000 C   0  0  0  0  0  0  0  0  0  0  0  0
   26.8365  -11.2792  -18.8770 C   0  0  0  0  0  0  0  0  0  0  0  0
   27.2429  -12.3165  -19.6889 C   0  0  0  0  0  0  0  0  0  0  0  0
   28.5841  -12.2764  -19.8730 N   0  0  0  0  0  0  0  0  0  0  0  0
   29.0745  -11.2296  -19.1965 C   0  0  0  0  0  0  0  0  0  0  0  0
   30.3507  -10.7421  -19.0486 C   0  0  0  0  0  0  0  0  0  0  0  0
   30.6122   -9.6186  -18.2816 C   0  0  0  0  0  0  0  0  0  0  0  0
   29.5521   -9.0014  -17.6687 C   0  0  0  0  0  0  0  0  0  0  0  0
   28.2735   -9.4880  -17.8154 C   0  0  0  0  0  0  0  0  0  0  0  0
   28.0211  -10.5962  -18.5731 C   0  0  0  0  0  0  0  0  0  0  0  0
   23.9647  -11.2159  -16.4238 C   0  0  0  0  0  0  0  0  0  0  0  0
   22.8252  -11.5023  -16.8805 O   0  0  0  0  0  0  0  0  0  0  0  0
   20.4487   -9.0233  -13.0931 N   0  0  0  0  0  0  0  0  0  0  0  0
   21.6538   -9.3258  -12.4582 C   0  0  0  0  0  0  0  0  0  0  0  0
   21.6922   -9.1909  -11.1914 O   0  0  0  0  0  0  0  0  0  0  0  0
   22.8978   -9.7876  -13.0926 C   0  0  0  0  0  0  0  0  0  0  0  0
   22.8167   -9.8978  -14.5852 C   0  0  2  0  0  0  0  0  0  0  0  0
   23.9543  -10.4708  -15.2146 N   0  0  0  0  0  0  0  0  0  0  0  0
   22.4006   -8.5982  -15.1870 C   0  0  0  0  0  0  0  0  0  0  0  0
   21.3662   -7.9897  -14.8105 O   0  0  0  0  0  0  0  0  0  0  0  0
   24.9236   -5.5297  -20.3032 N   0  0  0  0  0  0  0  0  0  0  0  0
   23.8262   -4.7437  -19.8924 C   0  0  0  0  0  0  0  0  0  0  0  0
   23.5163   -3.7390  -20.5703 O   0  0  0  0  0  0  0  0  0  0  0  0
   23.0759   -5.1177  -18.6840 C   0  0  0  0  0  0  0  0  0  0  0  0
   23.5664   -6.3523  -17.9877 C   0  0  0  0  0  0  0  0  0  0  0  0
   22.7510   -6.6704  -16.7932 C   0  0  2  0  0  0  0  0  0  0  0  0
   23.1505   -7.9727  -16.2213 N   0  0  0  0  0  0  0  0  0  0  0  0
   21.3310   -6.8600  -17.1716 C   0  0  0  0  0  0  0  0  0  0  0  0
   20.4359   -5.9808  -17.0000 O   0  0  0  0  0  0  0  0  0  0  0  0
   20.9500   -8.0610  -17.7500 O   0  0  0  0  0  0  0  0  0  0  0  0
  2  1  1  6
  2 13  1  0
  2  3  1  0
  3  4  1  0
  4 12  1  0
  4  5  2  0
  5  6  1  0
  7  8  2  0
  7  6  1  0
  9  8  1  0
 10  9  2  0
 11 10  1  0
 11 12  2  0
 12  7  1  0
 13 20  1  0
 13 14  2  0
 15 16  1  0
 16 18  1  0
 17 16  2  0
 19 18  1  1
 20 19  1  0
 21 22  2  0
 21 19  1  0
 23 24  1  0
 24 26  1  0
 25 24  2  0
 27 26  1  0
 28 27  1  6
 28 29  1  0
 29 21  1  0
 30 28  1  0
 30 32  1  0
 31 30  2  0
M  END
$$$$
