WNQ.pdb
     RDKit          3D

 32 33  0  0  1  0  0  0  0  0999 V2000
   25.2066  -19.4733  -16.5857 N   0  0  0  0  0  0  0  0  0  0  0  0
   23.7744  -19.2621  -16.5516 C   0  0  1  0  0  0  0  0  0  0  0  0
   23.1976  -19.7255  -17.8468 C   0  0  0  0  0  0  0  0  0  0  0  0
   23.8317  -19.0016  -18.9921 C   0  0  0  0  0  0  0  0  0  0  0  0
   24.8677  -19.3910  -19.8140 C   0  0  0  0  0  0  0  0  0  0  0  0
   25.1323  -18.4296  -20.7306 N   0  0  0  0  0  0  0  0  0  0  0  0
   24.2890  -17.4085  -20.5304 C   0  0  0  0  0  0  0  0  0  0  0  0
   24.1314  -16.2025  -21.1701 C   0  0  0  0  0  0  0  0  0  0  0  0
   23.1669  -15.2918  -20.7710 C   0  0  0  0  0  0  0  0  0  0  0  0
   22.3667  -15.6310  -19.7102 C   0  0  0  0  0  0  0  0  0  0  0  0
   22.5229  -16.8379  -19.0683 C   0  0  0  0  0  0  0  0  0  0  0  0
   23.4756  -17.7323  -19.4659 C   0  0  0  0  0  0  0  0  0  0  0  0
   23.2017  -19.8272  -15.3505 C   0  0  0  0  0  0  0  0  0  0  0  0
   23.4244  -21.0371  -15.0758 O   0  0  0  0  0  0  0  0  0  0  0  0
   21.3977  -19.9855  -10.0092 N   0  0  0  0  0  0  0  0  0  0  0  0
   20.7195  -19.3248  -11.0341 C   0  0  0  0  0  0  0  0  0  0  0  0
   19.4524  -19.2369  -10.9291 O   0  0  0  0  0  0  0  0  0  0  0  0
   21.3083  -18.7118  -12.2345 C   0  0  0  0  0  0  0  0  0  0  0  0
   21.7661  -19.7017  -13.2627 C   0  0  2  0  0  0  0  0  0  0  0  0
   22.3858  -19.1412  -14.4118 N   0  0  0  0  0  0  0  0  0  0  0  0
   20.6742  -20.6633  -13.5902 C   0  0  0  0  0  0  0  0  0  0  0  0
   20.0512  -20.6186  -14.6820 O   0  0  0  0  0  0  0  0  0  0  0  0
   21.3511  -26.3663  -14.4344 N   0  0  0  0  0  0  0  0  0  0  0  0
   20.7430  -26.3547  -13.1612 C   0  0  0  0  0  0  0  0  0  0  0  0
   20.7996  -27.3865  -12.4562 O   0  0  0  0  0  0  0  0  0  0  0  0
   20.0588  -25.1398  -12.6932 C   0  0  0  0  0  0  0  0  0  0  0  0
   20.2022  -23.9447  -13.5881 C   0  0  0  0  0  0  0  0  0  0  0  0
   19.3980  -22.7981  -13.1070 C   0  0  2  0  0  0  0  0  0  0  0  0
   20.2753  -21.6865  -12.6860 N   0  0  0  0  0  0  0  0  0  0  0  0
   18.6595  -23.1645  -11.8758 C   0  0  0  0  0  0  0  0  0  0  0  0
   18.9537  -22.7262  -10.7246 O   0  0  0  0  0  0  0  0  0  0  0  0
   17.5825  -24.0315  -11.9777 O   0  0  0  0  0  0  0  0  0  0  0  0
  2  1  1  6
  2 13  1  0
  2  3  1  0
  3  4  1  0
  4 12  1  0
  4  5  2  0
  5  6  1  0
  7  8  2  0
  7  6  1  0
  9  8  1  0
 10  9  2  0
 11 10  1  0
 11 12  2  0
 12  7  1  0
 13 20  1  0
 13 14  2  0
 15 16  1  0
 16 18  1  0
 17 16  2  0
 19 18  1  1
 20 19  1  0
 21 22  2  0
 21 19  1  0
 23 24  1  0
 24 26  1  0
 25 24  2  0
 27 26  1  0
 28 27  1  1
 28 29  1  0
 29 21  1  0
 30 28  1  0
 30 32  1  0
 31 30  2  0
M  END
$$$$
