WNQ.pdb
     RDKit          3D

 32 33  0  0  1  0  0  0  0  0999 V2000
   25.6004  -19.1528  -16.9927 N   0  0  0  0  0  0  0  0  0  0  0  0
   25.9884  -19.0805  -15.5994 C   0  0  1  0  0  0  0  0  0  0  0  0
   25.9449  -17.6526  -15.1704 C   0  0  0  0  0  0  0  0  0  0  0  0
   26.8595  -16.8232  -16.0151 C   0  0  0  0  0  0  0  0  0  0  0  0
   26.6069  -15.6521  -16.6972 C   0  0  0  0  0  0  0  0  0  0  0  0
   27.7204  -15.2300  -17.3424 N   0  0  0  0  0  0  0  0  0  0  0  0
   28.7079  -16.1019  -17.0999 C   0  0  0  0  0  0  0  0  0  0  0  0
   30.0201  -16.1464  -17.5053 C   0  0  0  0  0  0  0  0  0  0  0  0
   30.8645  -17.1724  -17.1136 C   0  0  0  0  0  0  0  0  0  0  0  0
   30.3492  -18.1508  -16.3027 C   0  0  0  0  0  0  0  0  0  0  0  0
   29.0356  -18.1081  -15.8957 C   0  0  0  0  0  0  0  0  0  0  0  0
   28.2071  -17.0941  -16.2848 C   0  0  0  0  0  0  0  0  0  0  0  0
   25.2247  -20.0169  -14.8058 C   0  0  0  0  0  0  0  0  0  0  0  0
   24.0702  -20.3470  -15.1896 O   0  0  0  0  0  0  0  0  0  0  0  0
   25.3871  -20.4889   -9.3563 N   0  0  0  0  0  0  0  0  0  0  0  0
   25.9934  -20.8562  -10.5580 C   0  0  0  0  0  0  0  0  0  0  0  0
   27.0446  -20.2199  -10.8961 O   0  0  0  0  0  0  0  0  0  0  0  0
   25.5515  -21.9062  -11.4885 C   0  0  0  0  0  0  0  0  0  0  0  0
   24.8453  -21.3860  -12.7041 C   0  0  2  0  0  0  0  0  0  0  0  0
   25.6502  -20.6281  -13.5964 N   0  0  0  0  0  0  0  0  0  0  0  0
   23.5781  -20.6985  -12.3226 C   0  0  0  0  0  0  0  0  0  0  0  0
   23.5588  -19.5016  -11.9365 O   0  0  0  0  0  0  0  0  0  0  0  0
   18.3417  -19.2554  -14.0719 N   0  0  0  0  0  0  0  0  0  0  0  0
   19.3974  -19.6747  -14.9090 C   0  0  0  0  0  0  0  0  0  0  0  0
   19.1563  -19.9039  -16.1149 O   0  0  0  0  0  0  0  0  0  0  0  0
   20.7486  -19.8340  -14.3507 C   0  0  0  0  0  0  0  0  0  0  0  0
   20.8865  -19.4636  -12.9038 C   0  0  0  0  0  0  0  0  0  0  0  0
   21.0601  -20.6573  -12.0449 C   0  0  2  0  0  0  0  0  0  0  0  0
   22.3186  -21.3576  -12.3740 N   0  0  0  0  0  0  0  0  0  0  0  0
   20.0034  -21.6566  -12.3282 C   0  0  0  0  0  0  0  0  0  0  0  0
   20.2201  -22.7618  -12.9072 O   0  0  0  0  0  0  0  0  0  0  0  0
   18.7020  -21.3790  -11.9391 O   0  0  0  0  0  0  0  0  0  0  0  0
  2  1  1  6
  2 13  1  0
  2  3  1  0
  3  4  1  0
  4 12  1  0
  4  5  2  0
  5  6  1  0
  7  8  2  0
  7  6  1  0
  9  8  1  0
 10  9  2  0
 11 10  1  0
 11 12  2  0
 12  7  1  0
 13 20  1  0
 13 14  2  0
 15 16  1  0
 16 18  1  0
 17 16  2  0
 19 18  1  1
 20 19  1  0
 21 22  2  0
 21 19  1  0
 23 24  1  0
 24 26  1  0
 25 24  2  0
 27 26  1  0
 28 27  1  6
 28 29  1  0
 29 21  1  0
 30 28  1  0
 30 32  1  0
 31 30  2  0
M  END
$$$$
