WNQ.pdb
     RDKit          3D

 32 33  0  0  1  0  0  0  0  0999 V2000
   26.0434  -22.9072  -12.7255 N   0  0  0  0  0  0  0  0  0  0  0  0
   25.4436  -21.6943  -12.2096 C   0  0  1  0  0  0  0  0  0  0  0  0
   26.4424  -20.5915  -12.3153 C   0  0  0  0  0  0  0  0  0  0  0  0
   27.5578  -20.7990  -11.3402 C   0  0  0  0  0  0  0  0  0  0  0  0
   28.8338  -21.2762  -11.5512 C   0  0  0  0  0  0  0  0  0  0  0  0
   29.5271  -21.3054  -10.3881 N   0  0  0  0  0  0  0  0  0  0  0  0
   28.7320  -20.8556   -9.4085 C   0  0  0  0  0  0  0  0  0  0  0  0
   28.9359  -20.6825   -8.0606 C   0  0  0  0  0  0  0  0  0  0  0  0
   27.9386  -20.1898   -7.2350 C   0  0  0  0  0  0  0  0  0  0  0  0
   26.7317  -19.8770   -7.8060 C   0  0  0  0  0  0  0  0  0  0  0  0
   26.5256  -20.0496   -9.1553 C   0  0  0  0  0  0  0  0  0  0  0  0
   27.5124  -20.5358   -9.9651 C   0  0  0  0  0  0  0  0  0  0  0  0
   24.1551  -21.4596  -12.8217 C   0  0  0  0  0  0  0  0  0  0  0  0
   23.9136  -21.9603  -13.9531 O   0  0  0  0  0  0  0  0  0  0  0  0
   20.7100  -22.8565  -11.8348 N   0  0  0  0  0  0  0  0  0  0  0  0
   20.2145  -21.5996  -11.4861 C   0  0  0  0  0  0  0  0  0  0  0  0
   19.2598  -21.5657  -10.6426 O   0  0  0  0  0  0  0  0  0  0  0  0
   20.6747  -20.2957  -11.9875 C   0  0  0  0  0  0  0  0  0  0  0  0
   21.8620  -20.3772  -12.8987 C   0  0  2  0  0  0  0  0  0  0  0  0
   23.0927  -20.6984  -12.2656 N   0  0  0  0  0  0  0  0  0  0  0  0
   21.9427  -19.1676  -13.7675 C   0  0  0  0  0  0  0  0  0  0  0  0
   21.8071  -18.0052  -13.3066 O   0  0  0  0  0  0  0  0  0  0  0  0
   26.1203  -18.8970  -17.9162 N   0  0  0  0  0  0  0  0  0  0  0  0
   24.9476  -19.5955  -18.2737 C   0  0  0  0  0  0  0  0  0  0  0  0
   24.9621  -20.3142  -19.2975 O   0  0  0  0  0  0  0  0  0  0  0  0
   23.7412  -19.4641  -17.4429 C   0  0  0  0  0  0  0  0  0  0  0  0
   23.5385  -18.1122  -16.8257 C   0  0  0  0  0  0  0  0  0  0  0  0
   22.2993  -18.0575  -16.0168 C   0  0  2  0  0  0  0  0  0  0  0  0
   22.1779  -19.2600  -15.1673 N   0  0  0  0  0  0  0  0  0  0  0  0
   21.1062  -18.1103  -16.8939 C   0  0  0  0  0  0  0  0  0  0  0  0
   20.3172  -19.0995  -16.9463 O   0  0  0  0  0  0  0  0  0  0  0  0
   20.8256  -17.0206  -17.7038 O   0  0  0  0  0  0  0  0  0  0  0  0
  2  1  1  6
  2 13  1  0
  2  3  1  0
  3  4  1  0
  4 12  1  0
  4  5  2  0
  5  6  1  0
  7  8  2  0
  7  6  1  0
  9  8  1  0
 10  9  2  0
 11 10  1  0
 11 12  2  0
 12  7  1  0
 13 20  1  0
 13 14  2  0
 15 16  1  0
 16 18  1  0
 17 16  2  0
 19 18  1  1
 20 19  1  0
 21 22  2  0
 21 19  1  0
 23 24  1  0
 24 26  1  0
 25 24  2  0
 27 26  1  0
 28 27  1  6
 28 29  1  0
 29 21  1  0
 30 28  1  0
 30 32  1  0
 31 30  2  0
M  END
$$$$
