WNQ.pdb
     RDKit          3D

 32 33  0  0  1  0  0  0  0  0999 V2000
   21.2520  -10.3765  -16.8225 N   0  0  0  0  0  0  0  0  0  0  0  0
   20.3119  -10.5567  -15.7358 C   0  0  1  0  0  0  0  0  0  0  0  0
   20.8293   -9.8328  -14.5387 C   0  0  0  0  0  0  0  0  0  0  0  0
   22.2104  -10.2981  -14.2008 C   0  0  0  0  0  0  0  0  0  0  0  0
   22.6227  -11.4712  -13.6054 C   0  0  0  0  0  0  0  0  0  0  0  0
   23.9713  -11.4912  -13.4821 N   0  0  0  0  0  0  0  0  0  0  0  0
   24.4608  -10.3506  -13.9856 C   0  0  0  0  0  0  0  0  0  0  0  0
   25.7426   -9.8706  -14.1074 C   0  0  0  0  0  0  0  0  0  0  0  0
   26.0018   -8.6347  -14.6768 C   0  0  0  0  0  0  0  0  0  0  0  0
   24.9336   -7.8974  -15.1194 C   0  0  0  0  0  0  0  0  0  0  0  0
   23.6494   -8.3762  -14.9983 C   0  0  0  0  0  0  0  0  0  0  0  0
   23.3993   -9.5957  -14.4361 C   0  0  0  0  0  0  0  0  0  0  0  0
   18.9696  -10.2272  -16.1597 C   0  0  0  0  0  0  0  0  0  0  0  0
   18.7795   -9.1787  -16.8332 O   0  0  0  0  0  0  0  0  0  0  0  0
   13.5398  -12.0871  -18.1089 N   0  0  0  0  0  0  0  0  0  0  0  0
   14.6030  -11.2134  -17.8783 C   0  0  0  0  0  0  0  0  0  0  0  0
   14.3891   -9.9732  -18.0794 O   0  0  0  0  0  0  0  0  0  0  0  0
   15.9569  -11.5660  -17.4246 C   0  0  0  0  0  0  0  0  0  0  0  0
   16.4807  -10.6881  -16.3284 C   0  0  2  0  0  0  0  0  0  0  0  0
   17.7990  -10.9851  -15.8899 N   0  0  0  0  0  0  0  0  0  0  0  0
   15.4946  -10.5933  -15.2135 C   0  0  0  0  0  0  0  0  0  0  0  0
   15.4220  -11.4667  -14.3114 O   0  0  0  0  0  0  0  0  0  0  0  0
   11.2070   -5.9156  -14.5608 N   0  0  0  0  0  0  0  0  0  0  0  0
   12.4635   -5.7923  -13.9309 C   0  0  0  0  0  0  0  0  0  0  0  0
   12.8377   -4.6618  -13.5476 O   0  0  0  0  0  0  0  0  0  0  0  0
   13.3019   -6.9856  -13.7408 C   0  0  0  0  0  0  0  0  0  0  0  0
   12.6887   -8.2737  -14.2039 C   0  0  0  0  0  0  0  0  0  0  0  0
   13.6028   -9.4212  -14.0026 C   0  0  2  0  0  0  0  0  0  0  0  0
   14.5800   -9.5090  -15.1071 N   0  0  0  0  0  0  0  0  0  0  0  0
   12.8545  -10.6980  -14.0771 C   0  0  0  0  0  0  0  0  0  0  0  0
   12.3229  -11.1386  -15.1387 O   0  0  0  0  0  0  0  0  0  0  0  0
   12.7260  -11.4632  -12.9282 O   0  0  0  0  0  0  0  0  0  0  0  0
  2  1  1  6
  2 13  1  0
  2  3  1  0
  3  4  1  0
  4 12  1  0
  4  5  2  0
  5  6  1  0
  7  8  2  0
  7  6  1  0
  9  8  1  0
 10  9  2  0
 11 10  1  0
 11 12  2  0
 12  7  1  0
 13 20  1  0
 13 14  2  0
 15 16  1  0
 16 18  1  0
 17 16  2  0
 19 18  1  6
 20 19  1  0
 21 22  2  0
 21 19  1  0
 23 24  1  0
 24 26  1  0
 25 24  2  0
 27 26  1  0
 28 27  1  6
 28 29  1  0
 29 21  1  0
 30 28  1  0
 30 32  1  0
 31 30  2  0
M  END
$$$$
