WNQ.pdb
     RDKit          3D

 32 33  0  0  1  0  0  0  0  0999 V2000
   25.8549  -22.5093  -11.6236 N   0  0  0  0  0  0  0  0  0  0  0  0
   25.4902  -21.2971  -10.9203 C   0  0  1  0  0  0  0  0  0  0  0  0
   26.5854  -20.3002  -11.0979 C   0  0  0  0  0  0  0  0  0  0  0  0
   27.8042  -20.7194  -10.3384 C   0  0  0  0  0  0  0  0  0  0  0  0
   28.9188  -21.4050  -10.7721 C   0  0  0  0  0  0  0  0  0  0  0  0
   29.7937  -21.5799   -9.7531 N   0  0  0  0  0  0  0  0  0  0  0  0
   29.2778  -21.0219   -8.6501 C   0  0  0  0  0  0  0  0  0  0  0  0
   29.7470  -20.9173   -7.3627 C   0  0  0  0  0  0  0  0  0  0  0  0
   29.0152  -20.2787   -6.3751 C   0  0  0  0  0  0  0  0  0  0  0  0
   27.7986  -19.7492   -6.7215 C   0  0  0  0  0  0  0  0  0  0  0  0
   27.3270  -19.8529   -8.0099 C   0  0  0  0  0  0  0  0  0  0  0  0
   28.0527  -20.4836   -8.9801 C   0  0  0  0  0  0  0  0  0  0  0  0
   24.1605  -20.8690  -11.2929 C   0  0  0  0  0  0  0  0  0  0  0  0
   23.7260  -19.7690  -10.8567 O   0  0  0  0  0  0  0  0  0  0  0  0
   19.8886  -18.9165  -14.1102 N   0  0  0  0  0  0  0  0  0  0  0  0
   20.4099  -20.2085  -14.1852 C   0  0  0  0  0  0  0  0  0  0  0  0
   19.6213  -21.1308  -14.5747 O   0  0  0  0  0  0  0  0  0  0  0  0
   21.7813  -20.6306  -13.8620 C   0  0  0  0  0  0  0  0  0  0  0  0
   21.9392  -21.1826  -12.4774 C   0  0  2  0  0  0  0  0  0  0  0  0
   23.2580  -21.5795  -12.1285 N   0  0  0  0  0  0  0  0  0  0  0  0
   20.9158  -22.2340  -12.2102 C   0  0  0  0  0  0  0  0  0  0  0  0
   21.0079  -23.3922  -12.6919 O   0  0  0  0  0  0  0  0  0  0  0  0
   19.1858  -24.2323   -7.3893 N   0  0  0  0  0  0  0  0  0  0  0  0
   18.0037  -24.6577   -8.0315 C   0  0  0  0  0  0  0  0  0  0  0  0
   17.4796  -25.7369   -7.6772 O   0  0  0  0  0  0  0  0  0  0  0  0
   17.4173  -23.8309   -9.0971 C   0  0  0  0  0  0  0  0  0  0  0  0
   18.3019  -22.7336   -9.6100 C   0  0  0  0  0  0  0  0  0  0  0  0
   18.9114  -23.0828  -10.9136 C   0  0  2  0  0  0  0  0  0  0  0  0
   19.7769  -21.9864  -11.3946 N   0  0  0  0  0  0  0  0  0  0  0  0
   17.8665  -23.2054  -11.9570 C   0  0  0  0  0  0  0  0  0  0  0  0
   17.5427  -22.2639  -12.7395 O   0  0  0  0  0  0  0  0  0  0  0  0
   17.2024  -24.4144  -12.0963 O   0  0  0  0  0  0  0  0  0  0  0  0
  2  1  1  6
  2 13  1  0
  2  3  1  0
  3  4  1  0
  4 12  1  0
  4  5  2  0
  5  6  1  0
  7  8  2  0
  7  6  1  0
  9  8  1  0
 10  9  2  0
 11 10  1  0
 11 12  2  0
 12  7  1  0
 13 20  1  0
 13 14  2  0
 15 16  1  0
 16 18  1  0
 17 16  2  0
 19 18  1  6
 20 19  1  0
 21 22  2  0
 21 19  1  0
 23 24  1  0
 24 26  1  0
 25 24  2  0
 27 26  1  0
 28 27  1  1
 28 29  1  0
 29 21  1  0
 30 28  1  0
 30 32  1  0
 31 30  2  0
M  END
$$$$
