WNQ.pdb
     RDKit          3D

 32 33  0  0  1  0  0  0  0  0999 V2000
   27.0973  -22.2878  -15.7994 N   0  0  0  0  0  0  0  0  0  0  0  0
   26.0502  -21.2937  -15.6876 C   0  0  1  0  0  0  0  0  0  0  0  0
   25.3929  -21.1482  -17.0186 C   0  0  0  0  0  0  0  0  0  0  0  0
   25.3610  -19.7112  -17.4334 C   0  0  0  0  0  0  0  0  0  0  0  0
   26.3800  -18.9059  -17.8956 C   0  0  0  0  0  0  0  0  0  0  0  0
   25.9176  -17.6602  -18.1578 N   0  0  0  0  0  0  0  0  0  0  0  0
   24.6084  -17.6255  -17.8770 C   0  0  0  0  0  0  0  0  0  0  0  0
   23.6722  -16.6233  -17.9632 C   0  0  0  0  0  0  0  0  0  0  0  0
   22.3501  -16.8350  -17.6081 C   0  0  0  0  0  0  0  0  0  0  0  0
   21.9990  -18.0842  -17.1644 C   0  0  0  0  0  0  0  0  0  0  0  0
   22.9348  -19.0890  -17.0773 C   0  0  0  0  0  0  0  0  0  0  0  0
   24.2373  -18.8748  -17.4288 C   0  0  0  0  0  0  0  0  0  0  0  0
   25.1838  -21.5862  -14.5679 C   0  0  0  0  0  0  0  0  0  0  0  0
   24.6358  -22.7192  -14.4963 O   0  0  0  0  0  0  0  0  0  0  0  0
   26.2833  -22.1356  -11.0770 N   0  0  0  0  0  0  0  0  0  0  0  0
   25.5659  -21.0731  -10.5264 C   0  0  0  0  0  0  0  0  0  0  0  0
   25.9691  -20.6195   -9.4057 O   0  0  0  0  0  0  0  0  0  0  0  0
   24.3845  -20.4104  -11.0996 C   0  0  0  0  0  0  0  0  0  0  0  0
   23.9679  -20.9530  -12.4333 C   0  0  2  0  0  0  0  0  0  0  0  0
   24.8722  -20.7028  -13.5001 N   0  0  0  0  0  0  0  0  0  0  0  0
   22.5631  -20.5612  -12.7453 C   0  0  0  0  0  0  0  0  0  0  0  0
   22.2664  -19.4072  -13.1482 O   0  0  0  0  0  0  0  0  0  0  0  0
   17.4870  -24.4593  -13.5409 N   0  0  0  0  0  0  0  0  0  0  0  0
   16.9838  -23.1583  -13.7530 C   0  0  0  0  0  0  0  0  0  0  0  0
   15.7841  -23.0214  -14.0798 O   0  0  0  0  0  0  0  0  0  0  0  0
   17.8736  -21.9989  -13.5886 C   0  0  0  0  0  0  0  0  0  0  0  0
   19.2953  -22.3320  -13.2460 C   0  0  0  0  0  0  0  0  0  0  0  0
   20.1055  -21.1138  -13.0169 C   0  0  2  0  0  0  0  0  0  0  0  0
   21.4786  -21.4710  -12.6052 N   0  0  0  0  0  0  0  0  0  0  0  0
   19.5704  -20.3450  -11.8689 C   0  0  0  0  0  0  0  0  0  0  0  0
   19.9163  -20.5462  -10.6674 O   0  0  0  0  0  0  0  0  0  0  0  0
   18.6417  -19.3446  -12.1115 O   0  0  0  0  0  0  0  0  0  0  0  0
  2  1  1  6
  2 13  1  0
  2  3  1  0
  3  4  1  0
  4 12  1  0
  4  5  2  0
  5  6  1  0
  7  8  2  0
  7  6  1  0
  9  8  1  0
 10  9  2  0
 11 10  1  0
 11 12  2  0
 12  7  1  0
 13 20  1  0
 13 14  2  0
 15 16  1  0
 16 18  1  0
 17 16  2  0
 19 18  1  1
 20 19  1  0
 21 22  2  0
 21 19  1  0
 23 24  1  0
 24 26  1  0
 25 24  2  0
 27 26  1  0
 28 27  1  1
 28 29  1  0
 29 21  1  0
 30 28  1  0
 30 32  1  0
 31 30  2  0
M  END
$$$$
