WNQ.pdb
     RDKit          3D

 32 33  0  0  1  0  0  0  0  0999 V2000
   26.3121  -18.8643  -12.5098 N   0  0  0  0  0  0  0  0  0  0  0  0
   26.5224  -20.2709  -12.7822 C   0  0  1  0  0  0  0  0  0  0  0  0
   25.8369  -21.0651  -11.7220 C   0  0  0  0  0  0  0  0  0  0  0  0
   26.3435  -20.6799  -10.3681 C   0  0  0  0  0  0  0  0  0  0  0  0
   25.7059  -20.0047   -9.3493 C   0  0  0  0  0  0  0  0  0  0  0  0
   26.5319  -19.8628   -8.2854 N   0  0  0  0  0  0  0  0  0  0  0  0
   27.7074  -20.4325   -8.5816 C   0  0  0  0  0  0  0  0  0  0  0  0
   28.8733  -20.5683   -7.8670 C   0  0  0  0  0  0  0  0  0  0  0  0
   29.9778  -21.2128   -8.3993 C   0  0  0  0  0  0  0  0  0  0  0  0
   29.8738  -21.7160   -9.6708 C   0  0  0  0  0  0  0  0  0  0  0  0
   28.7074  -21.5810  -10.3879 C   0  0  0  0  0  0  0  0  0  0  0  0
   27.6211  -20.9445   -9.8582 C   0  0  0  0  0  0  0  0  0  0  0  0
   26.1761  -20.5852  -14.1502 C   0  0  0  0  0  0  0  0  0  0  0  0
   25.2150  -19.9774  -14.6943 O   0  0  0  0  0  0  0  0  0  0  0  0
   29.8818  -22.8578  -16.4713 N   0  0  0  0  0  0  0  0  0  0  0  0
   28.7389  -22.2644  -17.0083 C   0  0  0  0  0  0  0  0  0  0  0  0
   28.8801  -21.1210  -17.5532 O   0  0  0  0  0  0  0  0  0  0  0  0
   27.3752  -22.8154  -17.0165 C   0  0  0  0  0  0  0  0  0  0  0  0
   26.3821  -21.9972  -16.2477 C   0  0  2  0  0  0  0  0  0  0  0  0
   26.8257  -21.5391  -14.9781 N   0  0  0  0  0  0  0  0  0  0  0  0
   25.0594  -22.6844  -16.1987 C   0  0  0  0  0  0  0  0  0  0  0  0
   24.8646  -23.7063  -15.4917 O   0  0  0  0  0  0  0  0  0  0  0  0
   22.3068  -22.0689  -12.6665 N   0  0  0  0  0  0  0  0  0  0  0  0
   21.0808  -21.7411  -13.2833 C   0  0  0  0  0  0  0  0  0  0  0  0
   20.0262  -21.8355  -12.6172 O   0  0  0  0  0  0  0  0  0  0  0  0
   21.0678  -21.3002  -14.6863 C   0  0  0  0  0  0  0  0  0  0  0  0
   22.4150  -21.2229  -15.3411 C   0  0  0  0  0  0  0  0  0  0  0  0
   22.5718  -22.2475  -16.3986 C   0  0  2  0  0  0  0  0  0  0  0  0
   23.9426  -22.2228  -16.9490 N   0  0  0  0  0  0  0  0  0  0  0  0
   21.7082  -21.9290  -17.5597 C   0  0  0  0  0  0  0  0  0  0  0  0
   21.9055  -20.9447  -18.3317 O   0  0  0  0  0  0  0  0  0  0  0  0
   20.6232  -22.7492  -17.8283 O   0  0  0  0  0  0  0  0  0  0  0  0
  2  1  1  1
  2 13  1  0
  2  3  1  0
  3  4  1  0
  4 12  1  0
  4  5  2  0
  5  6  1  0
  7  8  2  0
  7  6  1  0
  9  8  1  0
 10  9  2  0
 11 10  1  0
 11 12  2  0
 12  7  1  0
 13 20  1  0
 13 14  2  0
 15 16  1  0
 16 18  1  0
 17 16  2  0
 19 18  1  1
 20 19  1  0
 21 22  2  0
 21 19  1  0
 23 24  1  0
 24 26  1  0
 25 24  2  0
 27 26  1  0
 28 27  1  1
 28 29  1  0
 29 21  1  0
 30 28  1  0
 30 32  1  0
 31 30  2  0
M  END
$$$$
