MQV.pdb
     RDKit          3D

 25 24  0  0  1  0  0  0  0  0999 V2000
   19.2671  -24.2118   -5.9244 C   0  0  0  0  0  0  0  0  0  0  0  0
   18.2669  -25.7098   -5.7292 S   0  0  0  0  0  0  0  0  0  0  0  0
   17.7265  -26.3807   -7.3180 C   0  0  0  0  0  0  0  0  0  0  0  0
   18.1726  -25.4338   -8.4099 C   0  0  0  0  0  0  0  0  0  0  0  0
   17.7132  -25.9759   -9.7496 C   0  0  2  0  0  0  0  0  0  0  0  0
   18.2619  -27.3011   -9.8755 N   0  0  0  0  0  0  0  0  0  0  0  0
   18.2040  -25.1510  -10.8740 C   0  0  0  0  0  0  0  0  0  0  0  0
   17.9279  -23.9298  -10.9008 O   0  0  0  0  0  0  0  0  0  0  0  0
   23.2095  -26.0122  -14.8091 N   0  0  0  0  0  0  0  0  0  0  0  0
   22.5146  -24.9030  -15.3667 C   0  0  0  0  0  0  0  0  0  0  0  0
   23.0628  -24.2965  -16.3076 O   0  0  0  0  0  0  0  0  0  0  0  0
   21.1942  -24.5007  -14.8445 C   0  0  0  0  0  0  0  0  0  0  0  0
   20.6919  -25.2971  -13.7050 C   0  0  0  0  0  0  0  0  0  0  0  0
   19.4088  -24.8710  -13.0714 C   0  0  2  0  0  0  0  0  0  0  0  0
   18.9897  -25.6647  -11.9567 N   0  0  0  0  0  0  0  0  0  0  0  0
   18.3374  -24.6029  -14.0442 C   0  0  0  0  0  0  0  0  0  0  0  0
   17.8025  -25.5776  -14.6218 O   0  0  0  0  0  0  0  0  0  0  0  0
   15.1068  -22.8336  -13.4482 C   0  0  0  0  0  0  0  0  0  0  0  0
   15.8042  -22.0810  -14.5750 C   0  0  2  0  0  0  0  0  0  0  0  0
   14.7787  -21.7148  -15.6531 C   0  0  0  0  0  0  0  0  0  0  0  0
   16.8719  -22.9003  -15.2082 C   0  0  2  0  0  0  0  0  0  0  0  0
   17.9284  -23.2767  -14.3137 N   0  0  0  0  0  0  0  0  0  0  0  0
   17.4204  -22.1575  -16.3973 C   0  0  0  0  0  0  0  0  0  0  0  0
   16.9585  -22.3511  -17.6853 O   0  0  0  0  0  0  0  0  0  0  0  0
   18.3534  -21.3005  -16.2708 O   0  0  0  0  0  0  0  0  0  0  0  0
  1  2  1  0
  3  2  1  0
  4  3  1  0
  5  4  1  0
  5  6  1  6
  7  5  1  0
  8  7  2  0
  9 10  1  0
 10 12  1  0
 11 10  2  0
 13 12  1  0
 14 13  1  6
 14 15  1  0
 15  7  1  0
 16 14  1  0
 16 17  2  0
 19 18  1  1
 19 21  1  0
 20 19  1  0
 21 22  1  1
 22 16  1  0
 23 21  1  0
 24 23  1  0
 25 23  2  0
M  END
$$$$
