MQV.pdb
     RDKit          3D

 25 24  0  0  1  0  0  0  0  0999 V2000
   27.4895  -12.4652  -15.2208 C   0  0  0  0  0  0  0  0  0  0  0  0
   27.3197  -14.1248  -15.9277 S   0  0  0  0  0  0  0  0  0  0  0  0
   25.5895  -14.6023  -16.1386 C   0  0  0  0  0  0  0  0  0  0  0  0
   24.8009  -13.3712  -16.5266 C   0  0  0  0  0  0  0  0  0  0  0  0
   23.3470  -13.7578  -16.7175 C   0  0  2  0  0  0  0  0  0  0  0  0
   23.3042  -14.7038  -17.8020 N   0  0  0  0  0  0  0  0  0  0  0  0
   22.5101  -12.5919  -17.0723 C   0  0  0  0  0  0  0  0  0  0  0  0
   22.3825  -12.2765  -18.2775 O   0  0  0  0  0  0  0  0  0  0  0  0
   16.8937  -10.5135  -16.2155 N   0  0  0  0  0  0  0  0  0  0  0  0
   17.5128  -11.7327  -15.8224 C   0  0  0  0  0  0  0  0  0  0  0  0
   16.8110  -12.5613  -15.2104 O   0  0  0  0  0  0  0  0  0  0  0  0
   18.9304  -11.9945  -16.1383 C   0  0  0  0  0  0  0  0  0  0  0  0
   19.6354  -10.9053  -16.8465 C   0  0  0  0  0  0  0  0  0  0  0  0
   21.0510  -10.6281  -16.4613 C   0  0  2  0  0  0  0  0  0  0  0  0
   21.8215  -11.7822  -16.1111 N   0  0  0  0  0  0  0  0  0  0  0  0
   21.1906   -9.5120  -15.5120 C   0  0  0  0  0  0  0  0  0  0  0  0
   21.3744   -9.7811  -14.3022 O   0  0  0  0  0  0  0  0  0  0  0  0
   23.4326   -6.3967  -16.2966 C   0  0  0  0  0  0  0  0  0  0  0  0
   22.0702   -5.9200  -15.8073 C   0  0  2  0  0  0  0  0  0  0  0  0
   22.2618   -4.7855  -14.7952 C   0  0  0  0  0  0  0  0  0  0  0  0
   21.3091   -7.0118  -15.1433 C   0  0  2  0  0  0  0  0  0  0  0  0
   21.1183   -8.1739  -15.9624 N   0  0  0  0  0  0  0  0  0  0  0  0
   19.9861   -6.4705  -14.6706 C   0  0  0  0  0  0  0  0  0  0  0  0
   19.8012   -5.9224  -13.4155 O   0  0  0  0  0  0  0  0  0  0  0  0
   18.9556   -6.4930  -15.4180 O   0  0  0  0  0  0  0  0  0  0  0  0
  1  2  1  0
  3  2  1  0
  4  3  1  0
  5  4  1  0
  5  6  1  6
  7  5  1  0
  8  7  2  0
  9 10  1  0
 10 12  1  0
 11 10  2  0
 13 12  1  0
 14 13  1  1
 14 15  1  0
 15  7  1  0
 16 14  1  0
 16 17  2  0
 19 18  1  1
 19 21  1  0
 20 19  1  0
 21 22  1  6
 22 16  1  0
 23 21  1  0
 24 23  1  0
 25 23  2  0
M  END
$$$$
