MQV.pdb
     RDKit          3D

 25 24  0  0  1  0  0  0  0  0999 V2000
   11.9131   -8.9324  -14.9400 C   0  0  0  0  0  0  0  0  0  0  0  0
   12.5218  -10.3893  -15.8285 S   0  0  0  0  0  0  0  0  0  0  0  0
   14.3194  -10.5476  -15.7279 C   0  0  0  0  0  0  0  0  0  0  0  0
   14.7369  -10.3156  -14.2927 C   0  0  0  0  0  0  0  0  0  0  0  0
   16.2438  -10.4526  -14.1902 C   0  0  2  0  0  0  0  0  0  0  0  0
   16.5243  -11.8498  -13.9860 N   0  0  0  0  0  0  0  0  0  0  0  0
   16.7889   -9.6879  -13.0483 C   0  0  0  0  0  0  0  0  0  0  0  0
   16.8322  -10.2262  -11.9185 O   0  0  0  0  0  0  0  0  0  0  0  0
   21.5456   -5.6854  -12.1471 N   0  0  0  0  0  0  0  0  0  0  0  0
   21.4208   -7.0312  -12.5915 C   0  0  0  0  0  0  0  0  0  0  0  0
   22.4585   -7.6094  -12.9689 O   0  0  0  0  0  0  0  0  0  0  0  0
   20.1080   -7.7053  -12.5953 C   0  0  0  0  0  0  0  0  0  0  0  0
   18.9767   -6.8961  -12.0949 C   0  0  0  0  0  0  0  0  0  0  0  0
   17.6368   -7.5501  -12.0140 C   0  0  2  0  0  0  0  0  0  0  0  0
   17.2807   -8.3457  -13.1492 N   0  0  0  0  0  0  0  0  0  0  0  0
   16.5685   -6.6409  -11.5690 C   0  0  0  0  0  0  0  0  0  0  0  0
   15.9285   -6.0060  -12.4391 O   0  0  0  0  0  0  0  0  0  0  0  0
   15.3411   -6.6738   -7.3819 C   0  0  0  0  0  0  0  0  0  0  0  0
   14.4693   -6.2476   -8.5570 C   0  0  2  0  0  0  0  0  0  0  0  0
   13.7518   -7.4747   -9.1293 C   0  0  0  0  0  0  0  0  0  0  0  0
   15.2732   -5.6296   -9.6453 C   0  0  2  0  0  0  0  0  0  0  0  0
   16.2785   -6.4940  -10.1931 N   0  0  0  0  0  0  0  0  0  0  0  0
   15.8882   -4.3530   -9.1368 C   0  0  0  0  0  0  0  0  0  0  0  0
   15.1588   -3.1994   -8.9198 O   0  0  0  0  0  0  0  0  0  0  0  0
   17.1323   -4.2737   -8.8783 O   0  0  0  0  0  0  0  0  0  0  0  0
  1  2  1  0
  3  2  1  0
  4  3  1  0
  5  4  1  0
  5  6  1  1
  7  5  1  0
  8  7  2  0
  9 10  1  0
 10 12  1  0
 11 10  2  0
 13 12  1  0
 14 13  1  6
 14 15  1  0
 15  7  1  0
 16 14  1  0
 16 17  2  0
 19 18  1  1
 19 21  1  0
 20 19  1  0
 21 22  1  1
 22 16  1  0
 23 21  1  0
 24 23  1  0
 25 23  2  0
M  END
$$$$
