MQV.pdb
     RDKit          3D

 25 24  0  0  1  0  0  0  0  0999 V2000
   26.7963  -27.6083  -18.4917 C   0  0  0  0  0  0  0  0  0  0  0  0
   28.5710  -27.4220  -18.1781 S   0  0  0  0  0  0  0  0  0  0  0  0
   29.0210  -25.7130  -17.8001 C   0  0  0  0  0  0  0  0  0  0  0  0
   27.9347  -25.1166  -16.9327 C   0  0  0  0  0  0  0  0  0  0  0  0
   28.2199  -23.6407  -16.7319 C   0  0  2  0  0  0  0  0  0  0  0  0
   29.4399  -23.5495  -15.9728 N   0  0  0  0  0  0  0  0  0  0  0  0
   27.1404  -22.9701  -15.9766 C   0  0  0  0  0  0  0  0  0  0  0  0
   26.9929  -23.2315  -14.7608 O   0  0  0  0  0  0  0  0  0  0  0  0
   24.1738  -17.3782  -16.9464 N   0  0  0  0  0  0  0  0  0  0  0  0
   23.4941  -17.9511  -15.8355 C   0  0  0  0  0  0  0  0  0  0  0  0
   22.6501  -17.2433  -15.2521 O   0  0  0  0  0  0  0  0  0  0  0  0
   23.7837  -19.3326  -15.4051 C   0  0  0  0  0  0  0  0  0  0  0  0
   24.9232  -19.9843  -16.0848 C   0  0  0  0  0  0  0  0  0  0  0  0
   25.1407  -21.4403  -15.8351 C   0  0  2  0  0  0  0  0  0  0  0  0
   26.2334  -22.0222  -16.5533 N   0  0  0  0  0  0  0  0  0  0  0  0
   23.9031  -22.2346  -15.8934 C   0  0  0  0  0  0  0  0  0  0  0  0
   23.5070  -22.6353  -17.0125 O   0  0  0  0  0  0  0  0  0  0  0  0
   23.3403  -25.3530  -14.0193 C   0  0  0  0  0  0  0  0  0  0  0  0
   22.1146  -24.5000  -13.7150 C   0  0  2  0  0  0  0  0  0  0  0  0
   20.8511  -25.3545  -13.8622 C   0  0  0  0  0  0  0  0  0  0  0  0
   22.0035  -23.3423  -14.6422 C   0  0  2  0  0  0  0  0  0  0  0  0
   23.1862  -22.5334  -14.7122 N   0  0  0  0  0  0  0  0  0  0  0  0
   20.8121  -22.5106  -14.2482 C   0  0  0  0  0  0  0  0  0  0  0  0
   19.5199  -22.8161  -14.6312 O   0  0  0  0  0  0  0  0  0  0  0  0
   20.9406  -21.4666  -13.5307 O   0  0  0  0  0  0  0  0  0  0  0  0
  1  2  1  0
  3  2  1  0
  4  3  1  0
  5  4  1  0
  5  6  1  1
  7  5  1  0
  8  7  2  0
  9 10  1  0
 10 12  1  0
 11 10  2  0
 13 12  1  0
 14 13  1  6
 14 15  1  0
 15  7  1  0
 16 14  1  0
 16 17  2  0
 19 18  1  6
 19 21  1  0
 20 19  1  0
 21 22  1  1
 22 16  1  0
 23 21  1  0
 24 23  1  0
 25 23  2  0
M  END
$$$$
