MQV.pdb
     RDKit          3D

 25 24  0  0  1  0  0  0  0  0999 V2000
   28.1325  -17.9358   -5.6543 C   0  0  0  0  0  0  0  0  0  0  0  0
   28.6869  -19.6021   -5.2084 S   0  0  0  0  0  0  0  0  0  0  0  0
   28.5309  -20.7636   -6.5842 C   0  0  0  0  0  0  0  0  0  0  0  0
   27.5500  -20.1891   -7.5819 C   0  0  0  0  0  0  0  0  0  0  0  0
   27.4289  -21.1403   -8.7568 C   0  0  2  0  0  0  0  0  0  0  0  0
   28.7506  -21.2984   -9.3055 N   0  0  0  0  0  0  0  0  0  0  0  0
   26.5400  -20.6037   -9.8092 C   0  0  0  0  0  0  0  0  0  0  0  0
   26.4235  -19.3632   -9.9356 O   0  0  0  0  0  0  0  0  0  0  0  0
   27.0714  -21.6942  -15.6520 N   0  0  0  0  0  0  0  0  0  0  0  0
   25.9392  -20.8325  -15.6395 C   0  0  0  0  0  0  0  0  0  0  0  0
   25.5826  -20.3378  -16.7265 O   0  0  0  0  0  0  0  0  0  0  0  0
   25.2217  -20.5487  -14.3815 C   0  0  0  0  0  0  0  0  0  0  0  0
   25.8253  -21.1254  -13.1616 C   0  0  0  0  0  0  0  0  0  0  0  0
   25.1142  -20.9106  -11.8664 C   0  0  2  0  0  0  0  0  0  0  0  0
   25.7877  -21.4234  -10.7124 N   0  0  0  0  0  0  0  0  0  0  0  0
   23.6844  -21.2557  -11.9203 C   0  0  0  0  0  0  0  0  0  0  0  0
   23.3423  -22.4193  -11.6059 O   0  0  0  0  0  0  0  0  0  0  0  0
   20.7625  -18.4824  -11.0380 C   0  0  0  0  0  0  0  0  0  0  0  0
   20.5046  -19.2611  -12.3225 C   0  0  2  0  0  0  0  0  0  0  0  0
   19.0230  -19.6452  -12.3956 C   0  0  0  0  0  0  0  0  0  0  0  0
   21.3119  -20.5089  -12.3834 C   0  0  2  0  0  0  0  0  0  0  0  0
   22.7286  -20.2928  -12.3174 N   0  0  0  0  0  0  0  0  0  0  0  0
   20.9468  -21.2693  -13.6303 C   0  0  0  0  0  0  0  0  0  0  0  0
   20.0499  -22.3207  -13.6364 O   0  0  0  0  0  0  0  0  0  0  0  0
   21.4567  -20.9750  -14.7593 O   0  0  0  0  0  0  0  0  0  0  0  0
  1  2  1  0
  3  2  1  0
  4  3  1  0
  5  4  1  0
  5  6  1  6
  7  5  1  0
  8  7  2  0
  9 10  1  0
 10 12  1  0
 11 10  2  0
 13 12  1  0
 14 13  1  6
 14 15  1  0
 15  7  1  0
 16 14  1  0
 16 17  2  0
 19 18  1  1
 19 21  1  0
 20 19  1  0
 21 22  1  6
 22 16  1  0
 23 21  1  0
 24 23  1  0
 25 23  2  0
M  END
$$$$
