MQV.pdb
     RDKit          3D

 25 24  0  0  1  0  0  0  0  0999 V2000
   14.2755  -14.0017  -16.6572 C   0  0  0  0  0  0  0  0  0  0  0  0
   14.3603  -12.8922  -18.0871 S   0  0  0  0  0  0  0  0  0  0  0  0
   16.0437  -12.3160  -18.4042 C   0  0  0  0  0  0  0  0  0  0  0  0
   16.5019  -11.5079  -17.2105 C   0  0  0  0  0  0  0  0  0  0  0  0
   17.9480  -11.1007  -17.4175 C   0  0  2  0  0  0  0  0  0  0  0  0
   18.7620  -12.1398  -16.8427 N   0  0  0  0  0  0  0  0  0  0  0  0
   18.2618   -9.8241  -16.7413 C   0  0  0  0  0  0  0  0  0  0  0  0
   17.9254   -9.6684  -15.5450 O   0  0  0  0  0  0  0  0  0  0  0  0
   21.3966   -8.1636  -12.9521 N   0  0  0  0  0  0  0  0  0  0  0  0
   21.9358   -8.7365  -14.1375 C   0  0  0  0  0  0  0  0  0  0  0  0
   22.9870   -9.3975  -14.0285 O   0  0  0  0  0  0  0  0  0  0  0  0
   21.2632   -8.5514  -15.4379 C   0  0  0  0  0  0  0  0  0  0  0  0
   20.0373   -7.7258  -15.4075 C   0  0  0  0  0  0  0  0  0  0  0  0
   19.3014   -7.5272  -16.6913 C   0  0  2  0  0  0  0  0  0  0  0  0
   18.9382   -8.7310  -17.3748 N   0  0  0  0  0  0  0  0  0  0  0  0
   19.9120   -6.5114  -17.5640 C   0  0  0  0  0  0  0  0  0  0  0  0
   20.7074   -6.8935  -18.4534 O   0  0  0  0  0  0  0  0  0  0  0  0
   18.4891   -4.7437  -20.0961 C   0  0  0  0  0  0  0  0  0  0  0  0
   19.0008   -3.6113  -19.2138 C   0  0  2  0  0  0  0  0  0  0  0  0
   19.6193   -2.5203  -20.0943 C   0  0  0  0  0  0  0  0  0  0  0  0
   20.0391   -4.0818  -18.2584 C   0  0  2  0  0  0  0  0  0  0  0  0
   19.6031   -5.1421  -17.3960 N   0  0  0  0  0  0  0  0  0  0  0  0
   20.5324   -2.9094  -17.4531 C   0  0  0  0  0  0  0  0  0  0  0  0
   21.6346   -2.1577  -17.8138 O   0  0  0  0  0  0  0  0  0  0  0  0
   19.9474   -2.5482  -16.3814 O   0  0  0  0  0  0  0  0  0  0  0  0
  1  2  1  0
  3  2  1  0
  4  3  1  0
  5  4  1  0
  5  6  1  1
  7  5  1  0
  8  7  2  0
  9 10  1  0
 10 12  1  0
 11 10  2  0
 13 12  1  0
 14 13  1  1
 14 15  1  0
 15  7  1  0
 16 14  1  0
 16 17  2  0
 19 18  1  6
 19 21  1  0
 20 19  1  0
 21 22  1  1
 22 16  1  0
 23 21  1  0
 24 23  1  0
 25 23  2  0
M  END
$$$$
