MQV.pdb
     RDKit          3D

 25 24  0  0  1  0  0  0  0  0999 V2000
   16.4996  -30.9817  -13.8869 C   0  0  0  0  0  0  0  0  0  0  0  0
   17.8587  -31.9233  -13.1460 S   0  0  0  0  0  0  0  0  0  0  0  0
   19.4734  -31.3772  -13.7466 C   0  0  0  0  0  0  0  0  0  0  0  0
   20.5301  -32.2896  -13.1644 C   0  0  0  0  0  0  0  0  0  0  0  0
   20.9797  -31.7320  -11.8277 C   0  0  2  0  0  0  0  0  0  0  0  0
   21.7809  -30.5689  -12.1073 N   0  0  0  0  0  0  0  0  0  0  0  0
   21.8014  -32.7037  -11.0751 C   0  0  0  0  0  0  0  0  0  0  0  0
   21.3096  -33.8157  -10.7750 O   0  0  0  0  0  0  0  0  0  0  0  0
   27.0803  -35.3769  -12.1589 N   0  0  0  0  0  0  0  0  0  0  0  0
   26.8195  -34.0039  -12.4256 C   0  0  0  0  0  0  0  0  0  0  0  0
   27.5301  -33.4403  -13.2807 O   0  0  0  0  0  0  0  0  0  0  0  0
   25.7428  -33.2888  -11.7133 C   0  0  0  0  0  0  0  0  0  0  0  0
   24.9951  -34.0906  -10.7218 C   0  0  0  0  0  0  0  0  0  0  0  0
   23.9356  -33.4011   -9.9272 C   0  0  2  0  0  0  0  0  0  0  0  0
   23.1493  -32.4542  -10.6576 N   0  0  0  0  0  0  0  0  0  0  0  0
   24.4126  -32.8990   -8.6285 C   0  0  0  0  0  0  0  0  0  0  0  0
   24.7909  -31.7068   -8.5556 O   0  0  0  0  0  0  0  0  0  0  0  0
   22.5332  -33.4107   -5.2896 C   0  0  0  0  0  0  0  0  0  0  0  0
   23.9773  -33.8559   -5.0926 C   0  0  2  0  0  0  0  0  0  0  0  0
   24.5024  -33.3053   -3.7625 C   0  0  0  0  0  0  0  0  0  0  0  0
   24.8611  -33.3612   -6.1818 C   0  0  2  0  0  0  0  0  0  0  0  0
   24.4397  -33.7470   -7.4977 N   0  0  0  0  0  0  0  0  0  0  0  0
   26.2700  -33.8213   -5.9178 C   0  0  0  0  0  0  0  0  0  0  0  0
   27.0820  -33.2492   -4.9568 O   0  0  0  0  0  0  0  0  0  0  0  0
   26.7905  -34.7763   -6.5796 O   0  0  0  0  0  0  0  0  0  0  0  0
  1  2  1  0
  3  2  1  0
  4  3  1  0
  5  4  1  0
  5  6  1  6
  7  5  1  0
  8  7  2  0
  9 10  1  0
 10 12  1  0
 11 10  2  0
 13 12  1  0
 14 13  1  6
 14 15  1  0
 15  7  1  0
 16 14  1  0
 16 17  2  0
 19 18  1  6
 19 21  1  0
 20 19  1  0
 21 22  1  6
 22 16  1  0
 23 21  1  0
 24 23  1  0
 25 23  2  0
M  END
$$$$
