NQH.pdb
     RDKit          3D

 28 28  0  0  1  0  0  0  0  0999 V2000
   16.1785  -15.8310   15.6899 N   0  0  0  0  0  0  0  0  0  0  0  0
   14.7897  -16.0154   15.8402 C   0  0  0  0  0  0  0  0  0  0  0  0
   14.2274  -16.9784   15.2635 O   0  0  0  0  0  0  0  0  0  0  0  0
   14.0191  -15.0693   16.6756 C   0  0  0  0  0  0  0  0  0  0  0  0
   13.3945  -15.6831   17.8721 C   0  0  2  0  0  0  0  0  0  0  0  0
   12.3130  -16.6218   17.5105 N   0  0  0  0  0  0  0  0  0  0  0  0
   12.8107  -14.7296   18.8490 C   0  0  0  0  0  0  0  0  0  0  0  0
   13.6044  -13.9065   19.4251 O   0  0  0  0  0  0  0  0  0  0  0  0
    7.5787  -11.8895   18.2919 N   0  0  0  0  0  0  0  0  0  0  0  0
    8.0938  -12.9955   17.5938 C   0  0  0  0  0  0  0  0  0  0  0  0
    7.5657  -13.3784   16.5345 O   0  0  0  0  0  0  0  0  0  0  0  0
    9.2834  -13.7261   18.1158 C   0  0  0  0  0  0  0  0  0  0  0  0
    9.7004  -13.0921   19.4097 C   0  0  0  0  0  0  0  0  0  0  0  0
   10.8593  -13.7217   20.1086 C   0  0  2  0  0  0  0  0  0  0  0  0
   11.4511  -14.7073   19.1554 N   0  0  0  0  0  0  0  0  0  0  0  0
   10.5600  -14.4576   21.3379 C   0  0  0  0  0  0  0  0  0  0  0  0
   10.0205  -13.8567   22.3395 O   0  0  0  0  0  0  0  0  0  0  0  0
   10.8027  -15.8351   21.5746 N   0  0  0  0  0  0  0  0  0  0  0  0
   10.4635  -16.5131   22.8217 C   0  0  1  0  0  0  0  0  0  0  0  0
    9.3873  -17.5426   22.5984 C   0  0  0  0  0  0  0  0  0  0  0  0
    8.1824  -16.8972   22.0568 C   0  0  0  0  0  0  0  0  0  0  0  0
    7.6265  -15.6990   22.4373 C   0  0  0  0  0  0  0  0  0  0  0  0
    6.5238  -15.5178   21.6870 N   0  0  0  0  0  0  0  0  0  0  0  0
    6.3570  -16.5546   20.8439 C   0  0  0  0  0  0  0  0  0  0  0  0
    7.3951  -17.3924   21.0928 N   0  0  0  0  0  0  0  0  0  0  0  0
   11.6605  -17.0278   23.4968 C   0  0  0  0  0  0  0  0  0  0  0  0
   12.9553  -16.8799   23.0387 O   0  0  0  0  0  0  0  0  0  0  0  0
   11.5720  -17.6762   24.6008 O   0  0  0  0  0  0  0  0  0  0  0  0
  1  2  1  0
  2  3  2  0
  4  5  1  0
  4  2  1  0
  5  6  1  6
  7  5  1  0
  7  8  2  0
 10  9  1  0
 10 12  1  0
 11 10  2  0
 13 12  1  0
 14 13  1  6
 14 15  1  0
 15  7  1  0
 16 14  1  0
 17 16  2  0
 18 16  1  0
 19 18  1  0
 19 26  1  0
 20 21  1  0
 19 20  1  6
 21 22  2  0
 23 22  1  0
 24 23  1  0
 25 24  2  0
 25 21  1  0
 26 27  1  0
 28 26  2  0
M  END
$$$$
