NQH.pdb
     RDKit          3D

 28 28  0  0  1  0  0  0  0  0999 V2000
    8.4476  -12.3954   17.9979 N   0  0  0  0  0  0  0  0  0  0  0  0
    7.8995  -13.6934   18.0112 C   0  0  0  0  0  0  0  0  0  0  0  0
    7.9688  -14.4050   16.9791 O   0  0  0  0  0  0  0  0  0  0  0  0
    7.2516  -14.1941   19.2426 C   0  0  0  0  0  0  0  0  0  0  0  0
    8.1799  -14.8484   20.1960 C   0  0  2  0  0  0  0  0  0  0  0  0
    8.8461  -16.0240   19.5997 N   0  0  0  0  0  0  0  0  0  0  0  0
    7.5684  -15.3143   21.4662 C   0  0  0  0  0  0  0  0  0  0  0  0
    6.8795  -14.4712   22.1400 O   0  0  0  0  0  0  0  0  0  0  0  0
    6.5789  -21.1943   22.6617 N   0  0  0  0  0  0  0  0  0  0  0  0
    6.2844  -20.7341   23.9568 C   0  0  0  0  0  0  0  0  0  0  0  0
    5.9017  -21.5240   24.8385 O   0  0  0  0  0  0  0  0  0  0  0  0
    6.4274  -19.2887   24.2914 C   0  0  0  0  0  0  0  0  0  0  0  0
    6.8900  -18.5604   23.0644 C   0  0  0  0  0  0  0  0  0  0  0  0
    7.0910  -17.0885   23.2083 C   0  0  2  0  0  0  0  0  0  0  0  0
    7.7230  -16.6159   21.9404 N   0  0  0  0  0  0  0  0  0  0  0  0
    7.9644  -16.6514   24.2984 C   0  0  0  0  0  0  0  0  0  0  0  0
    9.2431  -16.7028   24.1665 O   0  0  0  0  0  0  0  0  0  0  0  0
    7.5504  -16.1445   25.5570 N   0  0  0  0  0  0  0  0  0  0  0  0
    8.4761  -15.6919   26.5904 C   0  0  1  0  0  0  0  0  0  0  0  0
    7.8203  -14.6822   27.4951 C   0  0  0  0  0  0  0  0  0  0  0  0
    7.3841  -13.5174   26.7112 C   0  0  0  0  0  0  0  0  0  0  0  0
    7.6947  -13.2171   25.4063 C   0  0  0  0  0  0  0  0  0  0  0  0
    7.0942  -12.0483   25.1148 N   0  0  0  0  0  0  0  0  0  0  0  0
    6.4136  -11.5936   26.1842 C   0  0  0  0  0  0  0  0  0  0  0  0
    6.6091  -12.5196   27.1566 N   0  0  0  0  0  0  0  0  0  0  0  0
    9.0914  -16.8232   27.2942 C   0  0  0  0  0  0  0  0  0  0  0  0
    8.8397  -18.1551   27.0280 O   0  0  0  0  0  0  0  0  0  0  0  0
    9.9358  -16.6345   28.2421 O   0  0  0  0  0  0  0  0  0  0  0  0
  1  2  1  0
  2  3  2  0
  4  5  1  0
  4  2  1  0
  5  6  1  6
  7  5  1  0
  7  8  2  0
 10  9  1  0
 10 12  1  0
 11 10  2  0
 13 12  1  0
 14 13  1  6
 14 15  1  0
 15  7  1  0
 16 14  1  0
 17 16  2  0
 18 16  1  0
 19 18  1  0
 19 26  1  0
 20 21  1  0
 19 20  1  1
 21 22  2  0
 23 22  1  0
 24 23  1  0
 25 24  2  0
 25 21  1  0
 26 27  1  0
 28 26  2  0
M  END
$$$$
