NQH.pdb
     RDKit          3D

 28 28  0  0  1  0  0  0  0  0999 V2000
    8.5324  -18.5430   13.6819 N   0  0  0  0  0  0  0  0  0  0  0  0
    9.3860  -17.8746   14.5818 C   0  0  0  0  0  0  0  0  0  0  0  0
   10.3460  -17.1982   14.1376 O   0  0  0  0  0  0  0  0  0  0  0  0
    9.1352  -17.9827   16.0351 C   0  0  0  0  0  0  0  0  0  0  0  0
    9.9258  -17.0385   16.8612 C   0  0  2  0  0  0  0  0  0  0  0  0
   11.3662  -17.0959   16.5396 N   0  0  0  0  0  0  0  0  0  0  0  0
    9.8177  -17.2286   18.3296 C   0  0  0  0  0  0  0  0  0  0  0  0
    8.6446  -17.2549   18.8421 O   0  0  0  0  0  0  0  0  0  0  0  0
   14.3112  -20.8237   21.3733 N   0  0  0  0  0  0  0  0  0  0  0  0
   13.1541  -20.6287   20.5995 C   0  0  0  0  0  0  0  0  0  0  0  0
   12.4734  -21.5990   20.2213 O   0  0  0  0  0  0  0  0  0  0  0  0
   12.7263  -19.2521   20.2209 C   0  0  0  0  0  0  0  0  0  0  0  0
   11.4064  -18.9680   20.8745 C   0  0  0  0  0  0  0  0  0  0  0  0
   10.8224  -17.6181   20.6208 C   0  0  2  0  0  0  0  0  0  0  0  0
   10.9339  -17.3717   19.1521 N   0  0  0  0  0  0  0  0  0  0  0  0
   11.4748  -16.4884   21.2845 C   0  0  0  0  0  0  0  0  0  0  0  0
   12.7438  -16.5037   21.4954 O   0  0  0  0  0  0  0  0  0  0  0  0
   10.8433  -15.3060   21.7489 N   0  0  0  0  0  0  0  0  0  0  0  0
    9.8731  -15.2824   22.8389 C   0  0  1  0  0  0  0  0  0  0  0  0
    8.5132  -15.7148   22.3577 C   0  0  0  0  0  0  0  0  0  0  0  0
    8.0330  -14.7910   21.3196 C   0  0  0  0  0  0  0  0  0  0  0  0
    8.6623  -13.6689   20.8354 C   0  0  0  0  0  0  0  0  0  0  0  0
    7.8469  -13.1241   19.9134 N   0  0  0  0  0  0  0  0  0  0  0  0
    6.7233  -13.8565   19.7926 C   0  0  0  0  0  0  0  0  0  0  0  0
    6.8637  -14.8802   20.6722 N   0  0  0  0  0  0  0  0  0  0  0  0
   10.3617  -16.0199   24.0098 C   0  0  0  0  0  0  0  0  0  0  0  0
   11.1603  -17.1460   23.9619 O   0  0  0  0  0  0  0  0  0  0  0  0
   10.0615  -15.6474   25.2008 O   0  0  0  0  0  0  0  0  0  0  0  0
  1  2  1  0
  2  3  2  0
  4  5  1  0
  4  2  1  0
  5  6  1  6
  7  5  1  0
  7  8  2  0
 10  9  1  0
 10 12  1  0
 11 10  2  0
 13 12  1  0
 14 13  1  6
 14 15  1  0
 15  7  1  0
 16 14  1  0
 17 16  2  0
 18 16  1  0
 19 18  1  0
 19 26  1  0
 20 21  1  0
 19 20  1  6
 21 22  2  0
 23 22  1  0
 24 23  1  0
 25 24  2  0
 25 21  1  0
 26 27  1  0
 28 26  2  0
M  END
$$$$
