DVH.pdb
     RDKit          3D

 26 26  0  0  1  0  0  0  0  0999 V2000
    7.9197  -15.9649   19.7690 N   0  0  0  0  0  0  0  0  0  0  0  0
    7.5307  -16.3637   21.0868 C   0  0  1  0  0  0  0  0  0  0  0  0
    7.8488  -17.8136   21.3367 C   0  0  0  0  0  0  0  0  0  0  0  0
    7.3276  -18.6074   20.1709 C   0  0  0  0  0  0  0  0  0  0  0  0
    7.7793  -19.7543   19.9022 O   0  0  0  0  0  0  0  0  0  0  0  0
    8.2540  -15.5417   22.0895 C   0  0  0  0  0  0  0  0  0  0  0  0
    9.4985  -15.3942   22.0205 O   0  0  0  0  0  0  0  0  0  0  0  0
    6.3423  -18.0894   19.3740 O   0  0  0  0  0  0  0  0  0  0  0  0
    6.1596  -14.0740   25.6937 C   0  0  0  0  0  0  0  0  0  0  0  0
    7.1440  -13.2441   24.9172 C   0  0  1  0  0  0  0  0  0  0  0  0
    7.8510  -12.2325   25.8049 C   0  0  0  0  0  0  0  0  0  0  0  0
    8.1369  -14.0957   24.1547 C   0  0  2  0  0  0  0  0  0  0  0  0
    7.5450  -14.9075   23.1461 N   0  0  0  0  0  0  0  0  0  0  0  0
    8.8578  -14.9671   25.1135 C   0  0  0  0  0  0  0  0  0  0  0  0
    8.2721  -15.8116   25.8407 O   0  0  0  0  0  0  0  0  0  0  0  0
   10.2683  -14.8416   25.2141 N   0  0  0  0  0  0  0  0  0  0  0  0
   11.0606  -15.6806   26.0828 C   0  0  1  0  0  0  0  0  0  0  0  0
   10.2678  -16.3429   27.1704 C   0  0  0  0  0  0  0  0  0  0  0  0
   10.3451  -15.5343   28.3996 C   0  0  0  0  0  0  0  0  0  0  0  0
   10.4017  -14.1746   28.4662 C   0  0  0  0  0  0  0  0  0  0  0  0
   10.4611  -13.8535   29.7756 N   0  0  0  0  0  0  0  0  0  0  0  0
   10.4414  -14.9927   30.4951 C   0  0  0  0  0  0  0  0  0  0  0  0
   10.3691  -16.0436   29.6436 N   0  0  0  0  0  0  0  0  0  0  0  0
   11.7409  -16.7060   25.2240 C   0  0  0  0  0  0  0  0  0  0  0  0
   11.3078  -16.9069   24.0539 O   0  0  0  0  0  0  0  0  0  0  0  0
   12.8204  -17.4363   25.6649 O   0  0  0  0  0  0  0  0  0  0  0  0
  2  6  1  0
  2  1  1  6
  3  2  1  0
  3  4  1  0
  4  8  1  0
  4  5  2  0
  6  7  2  0
 10  9  1  1
 10 11  1  0
 10 12  1  0
 12 14  1  0
 12 13  1  6
 13  6  1  0
 14 15  2  0
 16 14  1  0
 16 17  1  0
 17 24  1  0
 17 18  1  1
 19 18  1  0
 19 20  2  0
 21 20  1  0
 22 21  1  0
 23 22  2  0
 23 19  1  0
 24 25  2  0
 24 26  1  0
M  END
$$$$
