DVH.pdb
     RDKit          3D

 26 26  0  0  1  0  0  0  0  0999 V2000
    8.7098  -17.4029   16.0497 N   0  0  0  0  0  0  0  0  0  0  0  0
    7.8276  -17.2120   17.1598 C   0  0  1  0  0  0  0  0  0  0  0  0
    7.3295  -18.5274   17.6960 C   0  0  0  0  0  0  0  0  0  0  0  0
    6.7716  -19.3140   16.5424 C   0  0  0  0  0  0  0  0  0  0  0  0
    6.8026  -20.5751   16.5307 O   0  0  0  0  0  0  0  0  0  0  0  0
    8.5432  -16.4989   18.2475 C   0  0  0  0  0  0  0  0  0  0  0  0
    9.7952  -16.5401   18.3263 O   0  0  0  0  0  0  0  0  0  0  0  0
    6.2147  -18.6637   15.4742 O   0  0  0  0  0  0  0  0  0  0  0  0
    8.0840  -13.3116   22.0957 C   0  0  0  0  0  0  0  0  0  0  0  0
    7.4597  -14.0133   20.9217 C   0  0  1  0  0  0  0  0  0  0  0  0
    6.9152  -13.0270   19.9009 C   0  0  0  0  0  0  0  0  0  0  0  0
    8.4043  -15.0061   20.2778 C   0  0  2  0  0  0  0  0  0  0  0  0
    7.8183  -15.7562   19.2193 N   0  0  0  0  0  0  0  0  0  0  0  0
    8.8978  -15.9421   21.3163 C   0  0  0  0  0  0  0  0  0  0  0  0
    8.2044  -16.8943   21.7610 O   0  0  0  0  0  0  0  0  0  0  0  0
   10.2080  -15.7543   21.8297 N   0  0  0  0  0  0  0  0  0  0  0  0
   10.7937  -16.6463   22.8033 C   0  0  1  0  0  0  0  0  0  0  0  0
   11.9978  -17.3847   22.2983 C   0  0  0  0  0  0  0  0  0  0  0  0
   11.5667  -18.5806   21.5533 C   0  0  0  0  0  0  0  0  0  0  0  0
   10.2838  -19.0120   21.3967 C   0  0  0  0  0  0  0  0  0  0  0  0
   10.3416  -20.1345   20.6498 N   0  0  0  0  0  0  0  0  0  0  0  0
   11.6326  -20.3847   20.3557 C   0  0  0  0  0  0  0  0  0  0  0  0
   12.4010  -19.4201   20.9157 N   0  0  0  0  0  0  0  0  0  0  0  0
   11.1422  -15.8296   24.0128 C   0  0  0  0  0  0  0  0  0  0  0  0
   11.6019  -14.6637   23.8507 O   0  0  0  0  0  0  0  0  0  0  0  0
   10.9791  -16.3048   25.2938 O   0  0  0  0  0  0  0  0  0  0  0  0
  2  6  1  0
  2  1  1  6
  3  2  1  0
  3  4  1  0
  4  8  1  0
  4  5  2  0
  6  7  2  0
 10  9  1  1
 10 11  1  0
 10 12  1  0
 12 14  1  0
 12 13  1  6
 13  6  1  0
 14 15  2  0
 16 14  1  0
 16 17  1  0
 17 24  1  0
 17 18  1  6
 19 18  1  0
 19 20  2  0
 21 20  1  0
 22 21  1  0
 23 22  2  0
 23 19  1  0
 24 25  2  0
 24 26  1  0
M  END
$$$$
