DVH.pdb
     RDKit          3D

 26 26  0  0  1  0  0  0  0  0999 V2000
    8.7112  -14.9987   20.6571 N   0  0  0  0  0  0  0  0  0  0  0  0
    8.1403  -15.5933   21.8266 C   0  0  1  0  0  0  0  0  0  0  0  0
    8.4138  -17.0726   21.8781 C   0  0  0  0  0  0  0  0  0  0  0  0
    7.8917  -17.6825   20.6067 C   0  0  0  0  0  0  0  0  0  0  0  0
    6.7410  -17.4064   20.1695 O   0  0  0  0  0  0  0  0  0  0  0  0
    8.7203  -14.9631   23.0392 C   0  0  0  0  0  0  0  0  0  0  0  0
    9.9350  -14.6496   23.0805 O   0  0  0  0  0  0  0  0  0  0  0  0
    8.6685  -18.5578   19.8964 O   0  0  0  0  0  0  0  0  0  0  0  0
    7.8907  -12.5600   27.2945 C   0  0  0  0  0  0  0  0  0  0  0  0
    7.3825  -13.1406   26.0041 C   0  0  1  0  0  0  0  0  0  0  0  0
    6.9928  -12.0552   25.0134 C   0  0  0  0  0  0  0  0  0  0  0  0
    8.3610  -14.1198   25.3907 C   0  0  2  0  0  0  0  0  0  0  0  0
    7.9056  -14.7047   24.1753 N   0  0  0  0  0  0  0  0  0  0  0  0
    8.6390  -15.1977   26.3700 C   0  0  0  0  0  0  0  0  0  0  0  0
    7.7285  -15.8743   26.9159 O   0  0  0  0  0  0  0  0  0  0  0  0
    9.9902  -15.4763   26.7048 N   0  0  0  0  0  0  0  0  0  0  0  0
   10.3661  -16.5877   27.5473 C   0  0  1  0  0  0  0  0  0  0  0  0
   11.7898  -17.0257   27.3697 C   0  0  0  0  0  0  0  0  0  0  0  0
   12.0244  -17.3811   25.9592 C   0  0  0  0  0  0  0  0  0  0  0  0
   11.0741  -17.7392   25.0508 C   0  0  0  0  0  0  0  0  0  0  0  0
   11.7192  -17.9774   23.8895 N   0  0  0  0  0  0  0  0  0  0  0  0
   13.0364  -17.7694   24.0834 C   0  0  0  0  0  0  0  0  0  0  0  0
   13.2331  -17.3977   25.3709 N   0  0  0  0  0  0  0  0  0  0  0  0
   10.1098  -16.1840   28.9696 C   0  0  0  0  0  0  0  0  0  0  0  0
    9.8193  -14.9798   29.2196 O   0  0  0  0  0  0  0  0  0  0  0  0
   10.1799  -17.0785   30.0127 O   0  0  0  0  0  0  0  0  0  0  0  0
  2  6  1  0
  2  1  1  6
  3  2  1  0
  3  4  1  0
  4  8  1  0
  4  5  2  0
  6  7  2  0
 10  9  1  1
 10 11  1  0
 10 12  1  0
 12 14  1  0
 12 13  1  6
 13  6  1  0
 14 15  2  0
 16 14  1  0
 16 17  1  0
 17 24  1  0
 17 18  1  1
 19 18  1  0
 19 20  2  0
 21 20  1  0
 22 21  1  0
 23 22  2  0
 23 19  1  0
 24 25  2  0
 24 26  1  0
M  END
$$$$
