DVH.pdb
     RDKit          3D

 26 26  0  0  1  0  0  0  0  0999 V2000
    7.5377  -18.0835   20.2497 N   0  0  0  0  0  0  0  0  0  0  0  0
    8.9348  -17.9639   19.9654 C   0  0  1  0  0  0  0  0  0  0  0  0
    9.2082  -18.1074   18.4921 C   0  0  0  0  0  0  0  0  0  0  0  0
    8.8796  -19.5207   18.0977 C   0  0  0  0  0  0  0  0  0  0  0  0
    7.7822  -19.8112   17.5475 O   0  0  0  0  0  0  0  0  0  0  0  0
    9.4209  -16.6331   20.4087 C   0  0  0  0  0  0  0  0  0  0  0  0
   10.5940  -16.2629   20.1592 O   0  0  0  0  0  0  0  0  0  0  0  0
    9.7791  -20.5254   18.3335 O   0  0  0  0  0  0  0  0  0  0  0  0
    7.6294  -13.1941   19.7884 C   0  0  0  0  0  0  0  0  0  0  0  0
    7.8388  -13.4053   21.2622 C   0  0  1  0  0  0  0  0  0  0  0  0
    6.5379  -13.7431   21.9728 C   0  0  0  0  0  0  0  0  0  0  0  0
    8.9063  -14.4404   21.5476 C   0  0  2  0  0  0  0  0  0  0  0  0
    8.5618  -15.7554   21.1249 N   0  0  0  0  0  0  0  0  0  0  0  0
    9.1799  -14.4586   23.0047 C   0  0  0  0  0  0  0  0  0  0  0  0
    9.5383  -13.4349   23.6439 O   0  0  0  0  0  0  0  0  0  0  0  0
    9.0311  -15.6838   23.7063 N   0  0  0  0  0  0  0  0  0  0  0  0
    8.8872  -15.7414   25.1424 C   0  0  1  0  0  0  0  0  0  0  0  0
    7.4806  -15.5271   25.6175 C   0  0  0  0  0  0  0  0  0  0  0  0
    7.2924  -14.1114   25.9796 C   0  0  0  0  0  0  0  0  0  0  0  0
    8.2706  -13.1674   26.0717 C   0  0  0  0  0  0  0  0  0  0  0  0
    7.6642  -12.0151   26.4264 N   0  0  0  0  0  0  0  0  0  0  0  0
    6.3428  -12.2492   26.5488 C   0  0  0  0  0  0  0  0  0  0  0  0
    6.1047  -13.5534   26.2718 N   0  0  0  0  0  0  0  0  0  0  0  0
    9.4014  -17.0764   25.5952 C   0  0  0  0  0  0  0  0  0  0  0  0
    9.4192  -17.3365   26.8318 O   0  0  0  0  0  0  0  0  0  0  0  0
    9.8547  -18.0288   24.7117 O   0  0  0  0  0  0  0  0  0  0  0  0
  2  6  1  0
  2  1  1  6
  3  2  1  0
  3  4  1  0
  4  8  1  0
  4  5  2  0
  6  7  2  0
 10  9  1  6
 10 11  1  0
 10 12  1  0
 12 14  1  0
 12 13  1  1
 13  6  1  0
 14 15  2  0
 16 14  1  0
 16 17  1  0
 17 24  1  0
 17 18  1  6
 19 18  1  0
 19 20  2  0
 21 20  1  0
 22 21  1  0
 23 22  2  0
 23 19  1  0
 24 25  2  0
 24 26  1  0
M  END
$$$$
