DVH.pdb
     RDKit          3D

 26 26  0  0  1  0  0  0  0  0999 V2000
    8.0315  -14.8049   20.6552 N   0  0  0  0  0  0  0  0  0  0  0  0
    7.5174  -15.4105   21.8452 C   0  0  1  0  0  0  0  0  0  0  0  0
    7.7353  -16.8999   21.8400 C   0  0  0  0  0  0  0  0  0  0  0  0
    6.9183  -17.4814   20.7196 C   0  0  0  0  0  0  0  0  0  0  0  0
    6.4090  -16.7481   19.8283 O   0  0  0  0  0  0  0  0  0  0  0  0
    8.2018  -14.8370   23.0313 C   0  0  0  0  0  0  0  0  0  0  0  0
    9.4540  -14.7639   23.0761 O   0  0  0  0  0  0  0  0  0  0  0  0
    6.7131  -18.8332   20.6502 O   0  0  0  0  0  0  0  0  0  0  0  0
    7.6855  -12.4398   27.3904 C   0  0  0  0  0  0  0  0  0  0  0  0
    7.0716  -12.9360   26.1108 C   0  0  1  0  0  0  0  0  0  0  0  0
    6.5905  -11.7897   25.2358 C   0  0  0  0  0  0  0  0  0  0  0  0
    8.0000  -13.8578   25.3486 C   0  0  2  0  0  0  0  0  0  0  0  0
    7.4463  -14.3607   24.1374 N   0  0  0  0  0  0  0  0  0  0  0  0
    8.3666  -14.9988   26.2214 C   0  0  0  0  0  0  0  0  0  0  0  0
    7.5410  -15.8827   26.5708 O   0  0  0  0  0  0  0  0  0  0  0  0
    9.7061  -15.0962   26.6817 N   0  0  0  0  0  0  0  0  0  0  0  0
   10.1604  -16.1820   27.5189 C   0  0  1  0  0  0  0  0  0  0  0  0
   11.5107  -16.7135   27.1388 C   0  0  0  0  0  0  0  0  0  0  0  0
   11.4195  -17.4123   25.8449 C   0  0  0  0  0  0  0  0  0  0  0  0
   10.2860  -17.9143   25.2795 C   0  0  0  0  0  0  0  0  0  0  0  0
   10.6520  -18.4669   24.1040 N   0  0  0  0  0  0  0  0  0  0  0  0
   11.9814  -18.3064   23.9532 C   0  0  0  0  0  0  0  0  0  0  0  0
   12.4655  -17.6500   25.0345 N   0  0  0  0  0  0  0  0  0  0  0  0
   10.1653  -15.6888   28.9361 C   0  0  0  0  0  0  0  0  0  0  0  0
   10.0254  -14.4516   29.1525 O   0  0  0  0  0  0  0  0  0  0  0  0
   10.3167  -16.5359   30.0097 O   0  0  0  0  0  0  0  0  0  0  0  0
  2  6  1  0
  2  1  1  6
  3  2  1  0
  3  4  1  0
  4  8  1  0
  4  5  2  0
  6  7  2  0
 10  9  1  1
 10 11  1  0
 10 12  1  0
 12 14  1  0
 12 13  1  6
 13  6  1  0
 14 15  2  0
 16 14  1  0
 16 17  1  0
 17 24  1  0
 17 18  1  6
 19 18  1  0
 19 20  2  0
 21 20  1  0
 22 21  1  0
 23 22  2  0
 23 19  1  0
 24 25  2  0
 24 26  1  0
M  END
$$$$
