DVH.pdb
     RDKit          3D

 26 26  0  0  1  0  0  0  0  0999 V2000
    8.2035  -16.7563   16.3245 N   0  0  0  0  0  0  0  0  0  0  0  0
    8.8817  -17.5269   17.3212 C   0  0  1  0  0  0  0  0  0  0  0  0
   10.1000  -18.2052   16.7541 C   0  0  0  0  0  0  0  0  0  0  0  0
    9.6617  -19.0309   15.5764 C   0  0  0  0  0  0  0  0  0  0  0  0
    9.4976  -20.2780   15.6727 O   0  0  0  0  0  0  0  0  0  0  0  0
    9.3092  -16.6389   18.4315 C   0  0  0  0  0  0  0  0  0  0  0  0
   10.5052  -16.6176   18.8116 O   0  0  0  0  0  0  0  0  0  0  0  0
    9.4315  -18.4325   14.3668 O   0  0  0  0  0  0  0  0  0  0  0  0
    7.8195  -13.2584   21.8350 C   0  0  0  0  0  0  0  0  0  0  0  0
    7.5422  -14.0093   20.5623 C   0  0  1  0  0  0  0  0  0  0  0  0
    7.2693  -13.0669   19.4009 C   0  0  0  0  0  0  0  0  0  0  0  0
    8.6422  -14.9935   20.2253 C   0  0  2  0  0  0  0  0  0  0  0  0
    8.3668  -15.7969   19.0828 N   0  0  0  0  0  0  0  0  0  0  0  0
    8.8692  -15.8781   21.3933 C   0  0  0  0  0  0  0  0  0  0  0  0
    8.0040  -16.6920   21.8105 O   0  0  0  0  0  0  0  0  0  0  0  0
   10.1158  -15.8019   22.0684 N   0  0  0  0  0  0  0  0  0  0  0  0
   10.4009  -16.5703   23.2577 C   0  0  1  0  0  0  0  0  0  0  0  0
   11.6098  -17.4496   23.1333 C   0  0  0  0  0  0  0  0  0  0  0  0
   11.3123  -18.5719   22.2261 C   0  0  0  0  0  0  0  0  0  0  0  0
   10.1584  -19.2956   22.1927 C   0  0  0  0  0  0  0  0  0  0  0  0
   10.3082  -20.2179   21.2190 N   0  0  0  0  0  0  0  0  0  0  0  0
   11.5281  -20.0619   20.6683 C   0  0  0  0  0  0  0  0  0  0  0  0
   12.1587  -19.0379   21.2913 N   0  0  0  0  0  0  0  0  0  0  0  0
   10.5645  -15.6027   24.3929 C   0  0  0  0  0  0  0  0  0  0  0  0
   10.6378  -14.3674   24.1365 O   0  0  0  0  0  0  0  0  0  0  0  0
   10.6378  -16.0122   25.7044 O   0  0  0  0  0  0  0  0  0  0  0  0
  2  6  1  0
  2  1  1  6
  3  2  1  0
  3  4  1  0
  4  8  1  0
  4  5  2  0
  6  7  2  0
 10  9  1  1
 10 11  1  0
 10 12  1  0
 12 14  1  0
 12 13  1  6
 13  6  1  0
 14 15  2  0
 16 14  1  0
 16 17  1  0
 17 24  1  0
 17 18  1  6
 19 18  1  0
 19 20  2  0
 21 20  1  0
 22 21  1  0
 23 22  2  0
 23 19  1  0
 24 25  2  0
 24 26  1  0
M  END
$$$$
