DVH.pdb
     RDKit          3D

 26 26  0  0  1  0  0  0  0  0999 V2000
    9.5021  -15.9798   15.6266 N   0  0  0  0  0  0  0  0  0  0  0  0
    9.1290  -16.6091   16.8562 C   0  0  1  0  0  0  0  0  0  0  0  0
    9.7185  -17.9898   16.9659 C   0  0  0  0  0  0  0  0  0  0  0  0
    9.0326  -18.8656   15.9543 C   0  0  0  0  0  0  0  0  0  0  0  0
    8.6179  -18.4017   14.8569 O   0  0  0  0  0  0  0  0  0  0  0  0
    9.6148  -15.7957   17.9992 C   0  0  0  0  0  0  0  0  0  0  0  0
   10.8161  -15.4387   18.0676 O   0  0  0  0  0  0  0  0  0  0  0  0
    8.8461  -20.1968   16.2138 O   0  0  0  0  0  0  0  0  0  0  0  0
    7.8593  -12.5945   19.6973 C   0  0  0  0  0  0  0  0  0  0  0  0
    8.0700  -13.7039   20.6900 C   0  0  1  0  0  0  0  0  0  0  0  0
    6.7619  -14.3854   21.0583 C   0  0  0  0  0  0  0  0  0  0  0  0
    9.0998  -14.7085   20.2179 C   0  0  2  0  0  0  0  0  0  0  0  0
    8.7233  -15.4081   19.0367 N   0  0  0  0  0  0  0  0  0  0  0  0
    9.3453  -15.6897   21.3018 C   0  0  0  0  0  0  0  0  0  0  0  0
    8.6784  -16.7505   21.4252 O   0  0  0  0  0  0  0  0  0  0  0  0
   10.3765  -15.4192   22.2394 N   0  0  0  0  0  0  0  0  0  0  0  0
   10.7174  -16.3363   23.3020 C   0  0  1  0  0  0  0  0  0  0  0  0
   12.1920  -16.5686   23.4494 C   0  0  0  0  0  0  0  0  0  0  0  0
   12.6761  -17.3930   22.3283 C   0  0  0  0  0  0  0  0  0  0  0  0
   11.9787  -18.3755   21.6920 C   0  0  0  0  0  0  0  0  0  0  0  0
   12.7908  -18.8677   20.7333 N   0  0  0  0  0  0  0  0  0  0  0  0
   13.9606  -18.2005   20.7819 C   0  0  0  0  0  0  0  0  0  0  0  0
   13.8954  -17.2803   21.7736 N   0  0  0  0  0  0  0  0  0  0  0  0
   10.1376  -15.7903   24.5738 C   0  0  0  0  0  0  0  0  0  0  0  0
    9.6649  -14.6184   24.5757 O   0  0  0  0  0  0  0  0  0  0  0  0
   10.1021  -16.5205   25.7395 O   0  0  0  0  0  0  0  0  0  0  0  0
  2  6  1  0
  2  1  1  6
  3  2  1  0
  3  4  1  0
  4  8  1  0
  4  5  2  0
  6  7  2  0
 10  9  1  6
 10 11  1  0
 10 12  1  0
 12 14  1  0
 12 13  1  6
 13  6  1  0
 14 15  2  0
 16 14  1  0
 16 17  1  0
 17 24  1  0
 17 18  1  1
 19 18  1  0
 19 20  2  0
 21 20  1  0
 22 21  1  0
 23 22  2  0
 23 19  1  0
 24 25  2  0
 24 26  1  0
M  END
$$$$
