DVH.pdb
     RDKit          3D

 26 26  0  0  1  0  0  0  0  0999 V2000
   10.9933  -17.3328   17.5779 N   0  0  0  0  0  0  0  0  0  0  0  0
   10.3322  -17.7847   18.7636 C   0  0  1  0  0  0  0  0  0  0  0  0
   11.1019  -18.8923   19.4318 C   0  0  0  0  0  0  0  0  0  0  0  0
   11.1966  -20.0378   18.4624 C   0  0  0  0  0  0  0  0  0  0  0  0
   10.2119  -20.3812   17.7525 O   0  0  0  0  0  0  0  0  0  0  0  0
   10.2001  -16.6572   19.7203 C   0  0  0  0  0  0  0  0  0  0  0  0
   11.2118  -16.0244   20.1094 O   0  0  0  0  0  0  0  0  0  0  0  0
   12.3689  -20.7334   18.3349 O   0  0  0  0  0  0  0  0  0  0  0  0
    7.0123  -13.5612   22.0170 C   0  0  0  0  0  0  0  0  0  0  0  0
    7.3299  -14.5343   20.9157 C   0  0  1  0  0  0  0  0  0  0  0  0
    7.2197  -13.8876   19.5442 C   0  0  0  0  0  0  0  0  0  0  0  0
    8.6787  -15.1955   21.1054 C   0  0  2  0  0  0  0  0  0  0  0  0
    8.9214  -16.2766   20.2116 N   0  0  0  0  0  0  0  0  0  0  0  0
    8.7787  -15.6907   22.4993 C   0  0  0  0  0  0  0  0  0  0  0  0
    8.3393  -16.8151   22.8566 O   0  0  0  0  0  0  0  0  0  0  0  0
    9.3964  -14.8595   23.4704 N   0  0  0  0  0  0  0  0  0  0  0  0
    9.4894  -15.2324   24.8628 C   0  0  1  0  0  0  0  0  0  0  0  0
   10.0735  -14.1624   25.7369 C   0  0  0  0  0  0  0  0  0  0  0  0
   10.0996  -14.6269   27.1349 C   0  0  0  0  0  0  0  0  0  0  0  0
    9.6453  -15.8271   27.5927 C   0  0  0  0  0  0  0  0  0  0  0  0
    9.8613  -15.8401   28.9247 N   0  0  0  0  0  0  0  0  0  0  0  0
   10.4357  -14.6723   29.2747 C   0  0  0  0  0  0  0  0  0  0  0  0
   10.5868  -13.9121   28.1640 N   0  0  0  0  0  0  0  0  0  0  0  0
    8.1102  -15.6000   25.3257 C   0  0  0  0  0  0  0  0  0  0  0  0
    7.1272  -14.9196   24.9162 O   0  0  0  0  0  0  0  0  0  0  0  0
    7.8768  -16.6524   26.1808 O   0  0  0  0  0  0  0  0  0  0  0  0
  2  6  1  0
  2  1  1  6
  3  2  1  0
  3  4  1  0
  4  8  1  0
  4  5  2  0
  6  7  2  0
 10  9  1  1
 10 11  1  0
 10 12  1  0
 12 14  1  0
 12 13  1  6
 13  6  1  0
 14 15  2  0
 16 14  1  0
 16 17  1  0
 17 24  1  0
 17 18  1  1
 19 18  1  0
 19 20  2  0
 21 20  1  0
 22 21  1  0
 23 22  2  0
 23 19  1  0
 24 25  2  0
 24 26  1  0
M  END
$$$$
