DVH.pdb
     RDKit          3D

 26 26  0  0  1  0  0  0  0  0999 V2000
    7.8854  -14.9622   20.9682 N   0  0  0  0  0  0  0  0  0  0  0  0
    8.4077  -15.9779   21.8301 C   0  0  1  0  0  0  0  0  0  0  0  0
    9.5544  -16.7081   21.1840 C   0  0  0  0  0  0  0  0  0  0  0  0
    9.0426  -17.3455   19.9219 C   0  0  0  0  0  0  0  0  0  0  0  0
    7.8891  -17.0920   19.4787 O   0  0  0  0  0  0  0  0  0  0  0  0
    8.8908  -15.3608   23.0909 C   0  0  0  0  0  0  0  0  0  0  0  0
   10.1179  -15.1904   23.2925 O   0  0  0  0  0  0  0  0  0  0  0  0
    9.8323  -18.2217   19.2270 O   0  0  0  0  0  0  0  0  0  0  0  0
    7.6518  -12.9310   27.2768 C   0  0  0  0  0  0  0  0  0  0  0  0
    7.2352  -13.5241   25.9595 C   0  0  1  0  0  0  0  0  0  0  0  0
    6.7584  -12.4568   24.9875 C   0  0  0  0  0  0  0  0  0  0  0  0
    8.3229  -14.3804   25.3461 C   0  0  2  0  0  0  0  0  0  0  0  0
    7.9675  -14.9525   24.0919 N   0  0  0  0  0  0  0  0  0  0  0  0
    8.6676  -15.4687   26.2921 C   0  0  0  0  0  0  0  0  0  0  0  0
    7.8265  -16.3152   26.6935 O   0  0  0  0  0  0  0  0  0  0  0  0
   10.0036  -15.5577   26.7640 N   0  0  0  0  0  0  0  0  0  0  0  0
   10.4236  -16.5591   27.7166 C   0  0  1  0  0  0  0  0  0  0  0  0
   11.8037  -17.0904   27.4654 C   0  0  0  0  0  0  0  0  0  0  0  0
   11.8240  -17.8277   26.1899 C   0  0  0  0  0  0  0  0  0  0  0  0
   10.8153  -18.5930   25.6866 C   0  0  0  0  0  0  0  0  0  0  0  0
   11.2510  -19.0794   24.5056 N   0  0  0  0  0  0  0  0  0  0  0  0
   12.5000  -18.6214   24.2908 C   0  0  0  0  0  0  0  0  0  0  0  0
   12.8628  -17.8409   25.3365 N   0  0  0  0  0  0  0  0  0  0  0  0
   10.3319  -15.9488   29.0843 C   0  0  0  0  0  0  0  0  0  0  0  0
   10.1687  -14.6998   29.1859 O   0  0  0  0  0  0  0  0  0  0  0  0
   10.4193  -16.7008   30.2332 O   0  0  0  0  0  0  0  0  0  0  0  0
  2  6  1  0
  2  1  1  6
  3  2  1  0
  3  4  1  0
  4  8  1  0
  4  5  2  0
  6  7  2  0
 10  9  1  1
 10 11  1  0
 10 12  1  0
 12 14  1  0
 12 13  1  6
 13  6  1  0
 14 15  2  0
 16 14  1  0
 16 17  1  0
 17 24  1  0
 17 18  1  6
 19 18  1  0
 19 20  2  0
 21 20  1  0
 22 21  1  0
 23 22  2  0
 23 19  1  0
 24 25  2  0
 24 26  1  0
M  END
$$$$
