FRY.pdb
     RDKit          3D

 35 36  0  0  1  0  0  0  0  0999 V2000
   25.6530  -18.0655  -21.0395 N   0  0  0  0  0  0  0  0  0  0  0  0
   25.6893  -18.1936  -19.6055 C   0  0  1  0  0  0  0  0  0  0  0  0
   25.4393  -16.8853  -18.9057 C   0  0  0  0  0  0  0  0  0  0  0  0
   26.5308  -15.9358  -19.2411 C   0  0  0  0  0  0  0  0  0  0  0  0
   26.2384  -14.8088  -19.9833 C   0  0  0  0  0  0  0  0  0  0  0  0
   27.2106  -13.8895  -20.3289 C   0  0  0  0  0  0  0  0  0  0  0  0
   28.5170  -14.0686  -19.9405 C   0  0  0  0  0  0  0  0  0  0  0  0
   28.8272  -15.2011  -19.1914 C   0  0  0  0  0  0  0  0  0  0  0  0
   27.8433  -16.1114  -18.8536 C   0  0  0  0  0  0  0  0  0  0  0  0
   24.7980  -19.2745  -19.1846 C   0  0  0  0  0  0  0  0  0  0  0  0
   23.7053  -19.4465  -19.7797 O   0  0  0  0  0  0  0  0  0  0  0  0
   25.6031  -27.0711  -16.3422 N   0  0  0  0  0  0  0  0  0  0  0  0
   26.4817  -25.9631  -16.3891 C   0  0  0  0  0  0  0  0  0  0  0  0
   27.7041  -26.1839  -16.7628 N   0  0  0  0  0  0  0  0  0  0  0  0
   26.0557  -24.6466  -16.0416 N   0  0  0  0  0  0  0  0  0  0  0  0
   24.7462  -24.3786  -15.5288 C   0  0  0  0  0  0  0  0  0  0  0  0
   24.0104  -23.3218  -16.3009 C   0  0  0  0  0  0  0  0  0  0  0  0
   24.9356  -22.2330  -16.7676 C   0  0  0  0  0  0  0  0  0  0  0  0
   24.2416  -21.2106  -17.6363 C   0  0  2  0  0  0  0  0  0  0  0  0
   25.0992  -20.1706  -18.1118 N   0  0  0  0  0  0  0  0  0  0  0  0
   23.1204  -20.6593  -16.7961 C   0  0  0  0  0  0  0  0  0  0  0  0
   23.4546  -19.9590  -15.8117 O   0  0  0  0  0  0  0  0  0  0  0  0
   28.3747  -25.4141  -16.8897 O   0  0  0  0  0  0  0  0  0  0  0  0
   20.9254  -15.3575  -20.1325 C   0  0  0  0  0  0  0  0  0  0  0  0
   20.5842  -16.4812  -19.3802 C   0  0  0  0  0  0  0  0  0  0  0  0
   20.5526  -17.7303  -19.9494 C   0  0  0  0  0  0  0  0  0  0  0  0
   20.2185  -18.8488  -19.2235 C   0  0  0  0  0  0  0  0  0  0  0  0
   19.9099  -18.7071  -17.8974 C   0  0  0  0  0  0  0  0  0  0  0  0
   19.5396  -19.8870  -17.1003 C   0  0  2  0  0  0  0  0  0  0  0  0
   20.6708  -20.3502  -16.2355 N   0  0  0  0  0  0  0  0  0  0  0  0
   21.7686  -20.8858  -17.0556 C   0  0  0  0  0  0  0  0  0  0  0  0
   20.2991  -21.2921  -15.1724 O   0  0  0  0  0  0  0  0  0  0  0  0
   20.7001  -22.6363  -15.3156 C   0  0  0  0  0  0  0  0  0  0  0  0
   19.9359  -17.4594  -17.3051 C   0  0  0  0  0  0  0  0  0  0  0  0
   20.2709  -16.3525  -18.0409 O   0  0  0  0  0  0  0  0  0  0  0  0
  2  1  1  6
  2  3  1  0
  3  4  1  0
  4  5  2  0
  5  6  1  0
  7  6  2  0
  8  7  1  0
  9  4  1  0
  9  8  2  0
 10  2  1  0
 11 10  2  0
 13 12  1  0
 14 13  2  0
 15 13  1  0
 16 17  1  0
 16 15  1  0
 17 18  1  0
 19 18  1  1
 19 20  1  0
 19 21  1  0
 20 10  1  0
 21 30  1  0
 22 21  2  0
 23 24  1  0
 24 25  2  0
 24 34  1  0
 25 26  1  0
 26 27  2  0
 27 28  1  0
 29 28  1  6
 29 31  1  0
 30 29  1  0
 31 35  2  0
 31 32  1  0
 33 27  1  0
 34 33  2  0
M  END
$$$$
