FRY.pdb
     RDKit          3D

 35 36  0  0  1  0  0  0  0  0999 V2000
   27.0810  -17.6075  -18.1270 N   0  0  0  0  0  0  0  0  0  0  0  0
   26.3597  -17.5326  -16.8828 C   0  0  1  0  0  0  0  0  0  0  0  0
   25.5875  -16.2488  -16.7431 C   0  0  0  0  0  0  0  0  0  0  0  0
   26.5401  -15.1123  -16.6629 C   0  0  0  0  0  0  0  0  0  0  0  0
   27.0577  -14.7531  -15.4342 C   0  0  0  0  0  0  0  0  0  0  0  0
   27.9462  -13.7040  -15.2946 C   0  0  0  0  0  0  0  0  0  0  0  0
   28.3493  -12.9741  -16.3875 C   0  0  0  0  0  0  0  0  0  0  0  0
   27.8354  -13.3247  -17.6337 C   0  0  0  0  0  0  0  0  0  0  0  0
   26.9474  -14.3770  -17.7569 C   0  0  0  0  0  0  0  0  0  0  0  0
   25.5487  -18.7377  -16.7101 C   0  0  0  0  0  0  0  0  0  0  0  0
   24.8540  -19.1620  -17.6667 O   0  0  0  0  0  0  0  0  0  0  0  0
   24.7382  -25.6545  -16.6565 N   0  0  0  0  0  0  0  0  0  0  0  0
   25.7318  -24.9509  -15.9358 C   0  0  0  0  0  0  0  0  0  0  0  0
   26.9714  -25.2196  -16.2075 N   0  0  0  0  0  0  0  0  0  0  0  0
   25.4002  -23.9800  -14.9445 N   0  0  0  0  0  0  0  0  0  0  0  0
   24.0505  -23.5712  -14.6978 C   0  0  0  0  0  0  0  0  0  0  0  0
   23.9412  -22.4486  -13.7068 C   0  0  0  0  0  0  0  0  0  0  0  0
   24.9390  -21.3611  -13.9909 C   0  0  0  0  0  0  0  0  0  0  0  0
   24.5771  -20.5406  -15.2064 C   0  0  2  0  0  0  0  0  0  0  0  0
   25.4952  -19.4826  -15.4907 N   0  0  0  0  0  0  0  0  0  0  0  0
   23.1925  -20.0121  -14.9408 C   0  0  0  0  0  0  0  0  0  0  0  0
   23.0441  -19.3413  -13.8926 O   0  0  0  0  0  0  0  0  0  0  0  0
   27.7431  -24.7783  -15.6895 O   0  0  0  0  0  0  0  0  0  0  0  0
   15.4076  -16.3218  -16.0369 C   0  0  0  0  0  0  0  0  0  0  0  0
   16.7157  -16.8049  -16.0659 C   0  0  0  0  0  0  0  0  0  0  0  0
   17.5702  -16.4712  -17.0875 C   0  0  0  0  0  0  0  0  0  0  0  0
   18.8623  -16.9381  -17.1326 C   0  0  0  0  0  0  0  0  0  0  0  0
   19.3034  -17.7576  -16.1288 C   0  0  0  0  0  0  0  0  0  0  0  0
   20.6789  -18.2786  -16.1583 C   0  0  1  0  0  0  0  0  0  0  0  0
   20.7657  -19.6511  -15.5660 N   0  0  0  0  0  0  0  0  0  0  0  0
   22.1013  -20.2289  -15.7826 C   0  0  0  0  0  0  0  0  0  0  0  0
   19.7133  -20.5824  -15.9910 O   0  0  0  0  0  0  0  0  0  0  0  0
   19.8810  -21.2452  -17.2242 C   0  0  0  0  0  0  0  0  0  0  0  0
   18.4599  -18.1054  -15.0915 C   0  0  0  0  0  0  0  0  0  0  0  0
   17.1738  -17.6325  -15.0591 O   0  0  0  0  0  0  0  0  0  0  0  0
  2  1  1  6
  2  3  1  0
  3  4  1  0
  4  5  2  0
  5  6  1  0
  7  6  2  0
  8  7  1  0
  9  4  1  0
  9  8  2  0
 10  2  1  0
 11 10  2  0
 13 12  1  0
 14 13  2  0
 15 13  1  0
 16 17  1  0
 16 15  1  0
 17 18  1  0
 19 18  1  1
 19 20  1  0
 19 21  1  0
 20 10  1  0
 21 30  1  0
 22 21  2  0
 23 24  1  0
 24 25  2  0
 24 34  1  0
 25 26  1  0
 26 27  2  0
 27 28  1  0
 29 28  1  1
 29 31  1  0
 30 29  1  0
 31 35  2  0
 31 32  1  0
 33 27  1  0
 34 33  2  0
M  END
$$$$
