FRY.pdb
     RDKit          3D

 35 36  0  0  1  0  0  0  0  0999 V2000
   28.1042  -20.8659   -8.6957 N   0  0  0  0  0  0  0  0  0  0  0  0
   26.7907  -20.3707   -8.3739 C   0  0  1  0  0  0  0  0  0  0  0  0
   26.8367  -19.0761   -7.6085 C   0  0  0  0  0  0  0  0  0  0  0  0
   27.5750  -19.2866   -6.3373 C   0  0  0  0  0  0  0  0  0  0  0  0
   27.0971  -20.2070   -5.4256 C   0  0  0  0  0  0  0  0  0  0  0  0
   27.7380  -20.4459   -4.2249 C   0  0  0  0  0  0  0  0  0  0  0  0
   28.8867  -19.7671   -3.8940 C   0  0  0  0  0  0  0  0  0  0  0  0
   29.3806  -18.8353   -4.8038 C   0  0  0  0  0  0  0  0  0  0  0  0
   28.7279  -18.6076   -6.0009 C   0  0  0  0  0  0  0  0  0  0  0  0
   25.9735  -20.3176   -9.5861 C   0  0  0  0  0  0  0  0  0  0  0  0
   25.5994  -19.2060  -10.0356 O   0  0  0  0  0  0  0  0  0  0  0  0
   26.2876  -20.0566  -16.5951 N   0  0  0  0  0  0  0  0  0  0  0  0
   25.2680  -21.0216  -16.7714 C   0  0  0  0  0  0  0  0  0  0  0  0
   24.3126  -20.7381  -17.6017 N   0  0  0  0  0  0  0  0  0  0  0  0
   25.2752  -22.2640  -16.0701 N   0  0  0  0  0  0  0  0  0  0  0  0
   25.7067  -22.3698  -14.7092 C   0  0  0  0  0  0  0  0  0  0  0  0
   24.5981  -22.7224  -13.7599 C   0  0  0  0  0  0  0  0  0  0  0  0
   25.0883  -22.7986  -12.3411 C   0  0  0  0  0  0  0  0  0  0  0  0
   24.9767  -21.4793  -11.6140 C   0  0  2  0  0  0  0  0  0  0  0  0
   25.5632  -21.4802  -10.3104 N   0  0  0  0  0  0  0  0  0  0  0  0
   23.5038  -21.1724  -11.5554 C   0  0  0  0  0  0  0  0  0  0  0  0
   22.8224  -21.8622  -10.7612 O   0  0  0  0  0  0  0  0  0  0  0  0
   23.4886  -21.3460  -17.7009 O   0  0  0  0  0  0  0  0  0  0  0  0
   22.1313  -19.2366  -18.5164 C   0  0  0  0  0  0  0  0  0  0  0  0
   21.8853  -19.0811  -17.1524 C   0  0  0  0  0  0  0  0  0  0  0  0
   22.8879  -18.7098  -16.2909 C   0  0  0  0  0  0  0  0  0  0  0  0
   22.6638  -18.5520  -14.9438 C   0  0  0  0  0  0  0  0  0  0  0  0
   21.4048  -18.7726  -14.4539 C   0  0  0  0  0  0  0  0  0  0  0  0
   21.1405  -18.6199  -13.0147 C   0  0  1  0  0  0  0  0  0  0  0  0
   21.4461  -19.8751  -12.2577 N   0  0  0  0  0  0  0  0  0  0  0  0
   22.8828  -20.1857  -12.3216 C   0  0  0  0  0  0  0  0  0  0  0  0
   20.6375  -21.0422  -12.6311 O   0  0  0  0  0  0  0  0  0  0  0  0
   19.3570  -21.1663  -12.0538 C   0  0  0  0  0  0  0  0  0  0  0  0
   20.3818  -19.1466  -15.3035 C   0  0  0  0  0  0  0  0  0  0  0  0
   20.6193  -19.3002  -16.6447 O   0  0  0  0  0  0  0  0  0  0  0  0
  2  1  1  6
  2  3  1  0
  3  4  1  0
  4  5  2  0
  5  6  1  0
  7  6  2  0
  8  7  1  0
  9  4  1  0
  9  8  2  0
 10  2  1  0
 11 10  2  0
 13 12  1  0
 14 13  2  0
 15 13  1  0
 16 17  1  0
 16 15  1  0
 17 18  1  0
 19 18  1  1
 19 20  1  0
 19 21  1  0
 20 10  1  0
 21 30  1  0
 22 21  2  0
 23 24  1  0
 24 25  2  0
 24 34  1  0
 25 26  1  0
 26 27  2  0
 27 28  1  0
 29 28  1  1
 29 31  1  0
 30 29  1  0
 31 35  2  0
 31 32  1  0
 33 27  1  0
 34 33  2  0
M  END
$$$$
