FRY.pdb
     RDKit          3D

 35 36  0  0  1  0  0  0  0  0999 V2000
   17.5801  -10.7833  -18.5772 N   0  0  0  0  0  0  0  0  0  0  0  0
   18.6695   -9.8547  -18.7348 C   0  0  1  0  0  0  0  0  0  0  0  0
   18.2726   -8.6311  -19.5152 C   0  0  0  0  0  0  0  0  0  0  0  0
   18.0552   -9.0071  -20.9354 C   0  0  0  0  0  0  0  0  0  0  0  0
   19.1411   -9.0863  -21.7846 C   0  0  0  0  0  0  0  0  0  0  0  0
   19.0032   -9.4288  -23.1163 C   0  0  0  0  0  0  0  0  0  0  0  0
   17.7654   -9.7054  -23.6463 C   0  0  0  0  0  0  0  0  0  0  0  0
   16.6605   -9.6294  -22.8017 C   0  0  0  0  0  0  0  0  0  0  0  0
   16.8150   -9.2854  -21.4718 C   0  0  0  0  0  0  0  0  0  0  0  0
   19.2611   -9.5629  -17.4291 C   0  0  0  0  0  0  0  0  0  0  0  0
   18.5158   -9.4018  -16.4309 O   0  0  0  0  0  0  0  0  0  0  0  0
   25.4807  -14.2440  -14.4184 N   0  0  0  0  0  0  0  0  0  0  0  0
   24.2797  -14.6607  -15.0394 C   0  0  0  0  0  0  0  0  0  0  0  0
   24.0757  -15.9368  -15.1523 N   0  0  0  0  0  0  0  0  0  0  0  0
   23.3191  -13.7262  -15.5286 N   0  0  0  0  0  0  0  0  0  0  0  0
   23.5058  -12.3111  -15.4177 C   0  0  0  0  0  0  0  0  0  0  0  0
   22.2897  -11.5193  -15.8030 C   0  0  0  0  0  0  0  0  0  0  0  0
   22.5441  -10.0402  -15.7210 C   0  0  0  0  0  0  0  0  0  0  0  0
   21.2956   -9.2203  -15.9462 C   0  0  2  0  0  0  0  0  0  0  0  0
   20.6694   -9.4465  -17.2111 N   0  0  0  0  0  0  0  0  0  0  0  0
   21.7203   -7.7843  -15.7904 C   0  0  0  0  0  0  0  0  0  0  0  0
   22.5394   -7.3512  -16.6345 O   0  0  0  0  0  0  0  0  0  0  0  0
   23.2404  -16.3078  -15.6245 O   0  0  0  0  0  0  0  0  0  0  0  0
   18.6484   -4.6234  -20.1114 C   0  0  0  0  0  0  0  0  0  0  0  0
   19.1135   -4.6227  -18.7965 C   0  0  0  0  0  0  0  0  0  0  0  0
   18.4984   -5.3777  -17.8286 C   0  0  0  0  0  0  0  0  0  0  0  0
   18.9428   -5.3892  -16.5278 C   0  0  0  0  0  0  0  0  0  0  0  0
   20.0285   -4.6252  -16.1945 C   0  0  0  0  0  0  0  0  0  0  0  0
   20.5184   -4.6123  -14.8073 C   0  0  2  0  0  0  0  0  0  0  0  0
   21.6787   -5.5399  -14.6194 N   0  0  0  0  0  0  0  0  0  0  0  0
   21.2578   -6.9405  -14.7804 C   0  0  0  0  0  0  0  0  0  0  0  0
   22.4301   -5.3555  -13.3717 O   0  0  0  0  0  0  0  0  0  0  0  0
   22.9821   -4.0828  -13.1190 C   0  0  0  0  0  0  0  0  0  0  0  0
   20.6622   -3.8585  -17.1532 C   0  0  0  0  0  0  0  0  0  0  0  0
   20.2084   -3.8565  -18.4466 O   0  0  0  0  0  0  0  0  0  0  0  0
  2  1  1  1
  2  3  1  0
  3  4  1  0
  4  5  2  0
  5  6  1  0
  7  6  2  0
  8  7  1  0
  9  4  1  0
  9  8  2  0
 10  2  1  0
 11 10  2  0
 13 12  1  0
 14 13  2  0
 15 13  1  0
 16 17  1  0
 16 15  1  0
 17 18  1  0
 19 18  1  6
 19 20  1  0
 19 21  1  0
 20 10  1  0
 21 30  1  0
 22 21  2  0
 23 24  1  0
 24 25  2  0
 24 34  1  0
 25 26  1  0
 26 27  2  0
 27 28  1  0
 29 28  1  6
 29 31  1  0
 30 29  1  0
 31 35  2  0
 31 32  1  0
 33 27  1  0
 34 33  2  0
M  END
$$$$
