FRY.pdb
     RDKit          3D

 35 36  0  0  1  0  0  0  0  0999 V2000
   28.5061  -20.5062   -8.7609 N   0  0  0  0  0  0  0  0  0  0  0  0
   27.0725  -20.4252   -8.6499 C   0  0  1  0  0  0  0  0  0  0  0  0
   26.6298  -19.3294   -7.7188 C   0  0  0  0  0  0  0  0  0  0  0  0
   27.3311  -19.4806   -6.4185 C   0  0  0  0  0  0  0  0  0  0  0  0
   28.2240  -18.5066   -6.0179 C   0  0  0  0  0  0  0  0  0  0  0  0
   28.9086  -18.5916   -4.8205 C   0  0  0  0  0  0  0  0  0  0  0  0
   28.7212  -19.6616   -3.9781 C   0  0  0  0  0  0  0  0  0  0  0  0
   27.8236  -20.6522   -4.3689 C   0  0  0  0  0  0  0  0  0  0  0  0
   27.1463  -20.5527   -5.5699 C   0  0  0  0  0  0  0  0  0  0  0  0
   26.4785  -20.3495   -9.9845 C   0  0  0  0  0  0  0  0  0  0  0  0
   26.5876  -19.2926  -10.6546 O   0  0  0  0  0  0  0  0  0  0  0  0
   28.0680  -23.8016  -16.0535 N   0  0  0  0  0  0  0  0  0  0  0  0
   27.6112  -22.5563  -16.5456 C   0  0  0  0  0  0  0  0  0  0  0  0
   27.4650  -22.4370  -17.8290 N   0  0  0  0  0  0  0  0  0  0  0  0
   27.3183  -21.4629  -15.6772 N   0  0  0  0  0  0  0  0  0  0  0  0
   26.9428  -21.6543  -14.3089 C   0  0  0  0  0  0  0  0  0  0  0  0
   25.5826  -22.2687  -14.1463 C   0  0  0  0  0  0  0  0  0  0  0  0
   25.2952  -22.6034  -12.7094 C   0  0  0  0  0  0  0  0  0  0  0  0
   25.0958  -21.3751  -11.8531 C   0  0  2  0  0  0  0  0  0  0  0  0
   25.7635  -21.4295  -10.5905 N   0  0  0  0  0  0  0  0  0  0  0  0
   23.6061  -21.2372  -11.6833 C   0  0  0  0  0  0  0  0  0  0  0  0
   23.1854  -21.1529  -10.5057 O   0  0  0  0  0  0  0  0  0  0  0  0
   27.1309  -21.5611  -18.2528 O   0  0  0  0  0  0  0  0  0  0  0  0
   16.3917  -16.7538  -11.8956 C   0  0  0  0  0  0  0  0  0  0  0  0
   17.6494  -17.3531  -11.9609 C   0  0  0  0  0  0  0  0  0  0  0  0
   18.5014  -17.0965  -13.0065 C   0  0  0  0  0  0  0  0  0  0  0  0
   19.7444  -17.6781  -13.0874 C   0  0  0  0  0  0  0  0  0  0  0  0
   20.1376  -18.5356  -12.0956 C   0  0  0  0  0  0  0  0  0  0  0  0
   21.4591  -19.1788  -12.1632 C   0  0  1  0  0  0  0  0  0  0  0  0
   21.3670  -20.5851  -12.6690 N   0  0  0  0  0  0  0  0  0  0  0  0
   22.7013  -21.2003  -12.7446 C   0  0  0  0  0  0  0  0  0  0  0  0
   20.6393  -20.7476  -13.9336 O   0  0  0  0  0  0  0  0  0  0  0  0
   21.3341  -20.4790  -15.1309 C   0  0  0  0  0  0  0  0  0  0  0  0
   19.2957  -18.8073  -11.0345 C   0  0  0  0  0  0  0  0  0  0  0  0
   18.0590  -18.2202  -10.9665 O   0  0  0  0  0  0  0  0  0  0  0  0
  2  1  1  6
  2  3  1  0
  3  4  1  0
  4  5  2  0
  5  6  1  0
  7  6  2  0
  8  7  1  0
  9  4  1  0
  9  8  2  0
 10  2  1  0
 11 10  2  0
 13 12  1  0
 14 13  2  0
 15 13  1  0
 16 17  1  0
 16 15  1  0
 17 18  1  0
 19 18  1  1
 19 20  1  0
 19 21  1  0
 20 10  1  0
 21 30  1  0
 22 21  2  0
 23 24  1  0
 24 25  2  0
 24 34  1  0
 25 26  1  0
 26 27  2  0
 27 28  1  0
 29 28  1  1
 29 31  1  0
 30 29  1  0
 31 35  2  0
 31 32  1  0
 33 27  1  0
 34 33  2  0
M  END
$$$$
