FRY.pdb
     RDKit          3D

 35 36  0  0  1  0  0  0  0  0999 V2000
   41.1094   -8.8115   -5.3341 N   0  0  0  0  0  0  0  0  0  0  0  0
   41.3539   -9.9630   -6.1639 C   0  0  1  0  0  0  0  0  0  0  0  0
   40.4744   -9.9883   -7.3844 C   0  0  0  0  0  0  0  0  0  0  0  0
   39.0579   -9.8267   -6.9689 C   0  0  0  0  0  0  0  0  0  0  0  0
   38.4545  -10.8260   -6.2313 C   0  0  0  0  0  0  0  0  0  0  0  0
   37.1393  -10.7349   -5.8170 C   0  0  0  0  0  0  0  0  0  0  0  0
   36.3787   -9.6333   -6.1291 C   0  0  0  0  0  0  0  0  0  0  0  0
   36.9738   -8.6172   -6.8729 C   0  0  0  0  0  0  0  0  0  0  0  0
   38.2906   -8.7231   -7.2799 C   0  0  0  0  0  0  0  0  0  0  0  0
   42.7835  -10.0643   -6.4572 C   0  0  0  0  0  0  0  0  0  0  0  0
   43.4364   -9.0275   -6.7340 O   0  0  0  0  0  0  0  0  0  0  0  0
   43.6055  -17.4463   -6.4234 N   0  0  0  0  0  0  0  0  0  0  0  0
   43.8588  -17.2553   -7.8022 C   0  0  0  0  0  0  0  0  0  0  0  0
   43.2548  -18.0437   -8.6366 N   0  0  0  0  0  0  0  0  0  0  0  0
   44.7424  -16.2392   -8.2738 N   0  0  0  0  0  0  0  0  0  0  0  0
   45.3096  -15.2559   -7.4015 C   0  0  0  0  0  0  0  0  0  0  0  0
   44.7213  -13.8870   -7.5866 C   0  0  0  0  0  0  0  0  0  0  0  0
   45.3864  -12.8744   -6.6969 C   0  0  0  0  0  0  0  0  0  0  0  0
   44.8481  -11.4776   -6.8991 C   0  0  2  0  0  0  0  0  0  0  0  0
   43.5033  -11.2998   -6.4484 N   0  0  0  0  0  0  0  0  0  0  0  0
   44.9757  -11.2039   -8.3741 C   0  0  0  0  0  0  0  0  0  0  0  0
   43.9857  -11.5007   -9.0833 O   0  0  0  0  0  0  0  0  0  0  0  0
   43.4321  -17.9928   -9.6487 O   0  0  0  0  0  0  0  0  0  0  0  0
   45.5963   -3.2482  -11.2563 C   0  0  0  0  0  0  0  0  0  0  0  0
   45.5961   -4.4937  -10.6287 C   0  0  0  0  0  0  0  0  0  0  0  0
   46.6897   -4.9296   -9.9221 C   0  0  0  0  0  0  0  0  0  0  0  0
   46.7074   -6.1540   -9.2974 C   0  0  0  0  0  0  0  0  0  0  0  0
   45.6016   -6.9560   -9.3857 C   0  0  0  0  0  0  0  0  0  0  0  0
   45.5982   -8.2751   -8.7343 C   0  0  2  0  0  0  0  0  0  0  0  0
   46.1366   -9.3417   -9.6368 N   0  0  0  0  0  0  0  0  0  0  0  0
   46.1108  -10.6521   -8.9686 C   0  0  0  0  0  0  0  0  0  0  0  0
   47.4612   -9.0670  -10.2074 O   0  0  0  0  0  0  0  0  0  0  0  0
   48.5560   -8.9943   -9.3217 C   0  0  0  0  0  0  0  0  0  0  0  0
   44.4906   -6.5364  -10.0915 C   0  0  0  0  0  0  0  0  0  0  0  0
   44.4867   -5.3129  -10.7096 O   0  0  0  0  0  0  0  0  0  0  0  0
  2  1  1  6
  2  3  1  0
  3  4  1  0
  4  5  2  0
  5  6  1  0
  7  6  2  0
  8  7  1  0
  9  4  1  0
  9  8  2  0
 10  2  1  0
 11 10  2  0
 13 12  1  0
 14 13  2  0
 15 13  1  0
 16 17  1  0
 16 15  1  0
 17 18  1  0
 19 18  1  6
 19 20  1  0
 19 21  1  0
 20 10  1  0
 21 30  1  0
 22 21  2  0
 23 24  1  0
 24 25  2  0
 24 34  1  0
 25 26  1  0
 26 27  2  0
 27 28  1  0
 29 28  1  6
 29 31  1  0
 30 29  1  0
 31 35  2  0
 31 32  1  0
 33 27  1  0
 34 33  2  0
M  END
$$$$
