FRY.pdb
     RDKit          3D

 35 36  0  0  1  0  0  0  0  0999 V2000
   15.9318  -15.3684    5.3797 N   0  0  0  0  0  0  0  0  0  0  0  0
   16.8653  -16.4087    5.0328 C   0  0  1  0  0  0  0  0  0  0  0  0
   18.2813  -16.0550    5.3985 C   0  0  0  0  0  0  0  0  0  0  0  0
   18.7828  -15.0176    4.4617 C   0  0  0  0  0  0  0  0  0  0  0  0
   19.1237  -15.3814    3.1741 C   0  0  0  0  0  0  0  0  0  0  0  0
   19.5980  -14.4628    2.2571 C   0  0  0  0  0  0  0  0  0  0  0  0
   19.7481  -13.1402    2.6003 C   0  0  0  0  0  0  0  0  0  0  0  0
   19.4084  -12.7583    3.8960 C   0  0  0  0  0  0  0  0  0  0  0  0
   18.9352  -13.6892    4.8018 C   0  0  0  0  0  0  0  0  0  0  0  0
   16.4084  -17.6845    5.5837 C   0  0  0  0  0  0  0  0  0  0  0  0
   15.7705  -17.7017    6.6656 O   0  0  0  0  0  0  0  0  0  0  0  0
   13.2111  -23.4385    0.6368 N   0  0  0  0  0  0  0  0  0  0  0  0
   14.2009  -22.5308    0.1917 C   0  0  0  0  0  0  0  0  0  0  0  0
   14.3271  -22.3630   -1.0884 N   0  0  0  0  0  0  0  0  0  0  0  0
   15.0372  -21.8194    1.1027 N   0  0  0  0  0  0  0  0  0  0  0  0
   14.8879  -21.9308    2.5221 C   0  0  0  0  0  0  0  0  0  0  0  0
   15.8130  -21.0310    3.2895 C   0  0  0  0  0  0  0  0  0  0  0  0
   15.6301  -21.1857    4.7734 C   0  0  0  0  0  0  0  0  0  0  0  0
   16.4808  -20.2242    5.5692 C   0  0  2  0  0  0  0  0  0  0  0  0
   16.6476  -18.9453    4.9530 N   0  0  0  0  0  0  0  0  0  0  0  0
   17.8025  -20.9186    5.7642 C   0  0  0  0  0  0  0  0  0  0  0  0
   18.6591  -20.7479    4.8653 O   0  0  0  0  0  0  0  0  0  0  0  0
   15.0222  -21.7131   -1.4794 O   0  0  0  0  0  0  0  0  0  0  0  0
   21.2969  -16.5840    9.0424 C   0  0  0  0  0  0  0  0  0  0  0  0
   20.9523  -17.9282    8.9024 C   0  0  0  0  0  0  0  0  0  0  0  0
   19.7279  -18.3911    9.3169 C   0  0  0  0  0  0  0  0  0  0  0  0
   19.3712  -19.7123    9.1869 C   0  0  0  0  0  0  0  0  0  0  0  0
   20.2653  -20.5854    8.6283 C   0  0  0  0  0  0  0  0  0  0  0  0
   19.9120  -22.0066    8.4865 C   0  0  2  0  0  0  0  0  0  0  0  0
   19.4266  -22.3230    7.1058 N   0  0  0  0  0  0  0  0  0  0  0  0
   18.1069  -21.7185    6.8658 C   0  0  0  0  0  0  0  0  0  0  0  0
   19.4246  -23.7489    6.7560 O   0  0  0  0  0  0  0  0  0  0  0  0
   20.6523  -24.4404    6.8095 C   0  0  0  0  0  0  0  0  0  0  0  0
   21.5025  -20.1403    8.2044 C   0  0  0  0  0  0  0  0  0  0  0  0
   21.8450  -18.8200    8.3401 O   0  0  0  0  0  0  0  0  0  0  0  0
  2  1  1  1
  2  3  1  0
  3  4  1  0
  4  5  2  0
  5  6  1  0
  7  6  2  0
  8  7  1  0
  9  4  1  0
  9  8  2  0
 10  2  1  0
 11 10  2  0
 13 12  1  0
 14 13  2  0
 15 13  1  0
 16 17  1  0
 16 15  1  0
 17 18  1  0
 19 18  1  6
 19 20  1  0
 19 21  1  0
 20 10  1  0
 21 30  1  0
 22 21  2  0
 23 24  1  0
 24 25  2  0
 24 34  1  0
 25 26  1  0
 26 27  2  0
 27 28  1  0
 29 28  1  6
 29 31  1  0
 30 29  1  0
 31 35  2  0
 31 32  1  0
 33 27  1  0
 34 33  2  0
M  END
$$$$
