FRY.pdb
     RDKit          3D

 35 36  0  0  1  0  0  0  0  0999 V2000
   29.1022  -19.5875  -11.9073 N   0  0  0  0  0  0  0  0  0  0  0  0
   28.2652  -20.7467  -12.0795 C   0  0  1  0  0  0  0  0  0  0  0  0
   27.1916  -20.8408  -11.0295 C   0  0  0  0  0  0  0  0  0  0  0  0
   27.8215  -20.8261   -9.6847 C   0  0  0  0  0  0  0  0  0  0  0  0
   27.1682  -20.1994   -8.6421 C   0  0  0  0  0  0  0  0  0  0  0  0
   27.7036  -20.1502   -7.3691 C   0  0  0  0  0  0  0  0  0  0  0  0
   28.9192  -20.7305   -7.0950 C   0  0  0  0  0  0  0  0  0  0  0  0
   29.5902  -21.3662   -8.1369 C   0  0  0  0  0  0  0  0  0  0  0  0
   29.0412  -21.4070   -9.4049 C   0  0  0  0  0  0  0  0  0  0  0  0
   27.7617  -20.7914  -13.4523 C   0  0  0  0  0  0  0  0  0  0  0  0
   27.5503  -19.7195  -14.0722 O   0  0  0  0  0  0  0  0  0  0  0  0
   29.2002  -26.1537  -16.5102 N   0  0  0  0  0  0  0  0  0  0  0  0
   28.0285  -26.4923  -17.2274 C   0  0  0  0  0  0  0  0  0  0  0  0
   27.4604  -27.6239  -16.9459 N   0  0  0  0  0  0  0  0  0  0  0  0
   27.4799  -25.6333  -18.2257 N   0  0  0  0  0  0  0  0  0  0  0  0
   28.0111  -24.3298  -18.4869 C   0  0  0  0  0  0  0  0  0  0  0  0
   27.3070  -23.2390  -17.7329 C   0  0  0  0  0  0  0  0  0  0  0  0
   27.6685  -23.2528  -16.2740 C   0  0  0  0  0  0  0  0  0  0  0  0
   27.0549  -22.1032  -15.5102 C   0  0  2  0  0  0  0  0  0  0  0  0
   27.4881  -22.0084  -14.1513 N   0  0  0  0  0  0  0  0  0  0  0  0
   25.5657  -22.3055  -15.6010 C   0  0  0  0  0  0  0  0  0  0  0  0
   25.1081  -23.3313  -15.0449 O   0  0  0  0  0  0  0  0  0  0  0  0
   26.6081  -27.9331  -17.4321 O   0  0  0  0  0  0  0  0  0  0  0  0
   22.7830  -21.1709   -9.9225 C   0  0  0  0  0  0  0  0  0  0  0  0
   22.7429  -20.9746  -11.3028 C   0  0  0  0  0  0  0  0  0  0  0  0
   21.6802  -21.4195  -12.0496 C   0  0  0  0  0  0  0  0  0  0  0  0
   21.6238  -21.2351  -13.4107 C   0  0  0  0  0  0  0  0  0  0  0  0
   22.6583  -20.5896  -14.0327 C   0  0  0  0  0  0  0  0  0  0  0  0
   22.6270  -20.3877  -15.4897 C   0  0  2  0  0  0  0  0  0  0  0  0
   23.2328  -21.5438  -16.2236 N   0  0  0  0  0  0  0  0  0  0  0  0
   24.6993  -21.4300  -16.2560 C   0  0  0  0  0  0  0  0  0  0  0  0
   22.6929  -21.7822  -17.5679 O   0  0  0  0  0  0  0  0  0  0  0  0
   21.3223  -22.0942  -17.6798 C   0  0  0  0  0  0  0  0  0  0  0  0
   23.7369  -20.1337  -13.2997 C   0  0  0  0  0  0  0  0  0  0  0  0
   23.7801  -20.3244  -11.9431 O   0  0  0  0  0  0  0  0  0  0  0  0
  2  1  1  6
  2  3  1  0
  3  4  1  0
  4  5  2  0
  5  6  1  0
  7  6  2  0
  8  7  1  0
  9  4  1  0
  9  8  2  0
 10  2  1  0
 11 10  2  0
 13 12  1  0
 14 13  2  0
 15 13  1  0
 16 17  1  0
 16 15  1  0
 17 18  1  0
 19 18  1  1
 19 20  1  0
 19 21  1  0
 20 10  1  0
 21 30  1  0
 22 21  2  0
 23 24  1  0
 24 25  2  0
 24 34  1  0
 25 26  1  0
 26 27  2  0
 27 28  1  0
 29 28  1  1
 29 31  1  0
 30 29  1  0
 31 35  2  0
 31 32  1  0
 33 27  1  0
 34 33  2  0
M  END
$$$$
