FRY.pdb
     RDKit          3D

 35 36  0  0  1  0  0  0  0  0999 V2000
   27.8610  -21.5657   -8.5743 N   0  0  0  0  0  0  0  0  0  0  0  0
   26.9770  -20.4773   -8.2457 C   0  0  1  0  0  0  0  0  0  0  0  0
   27.7225  -19.2293   -7.8577 C   0  0  0  0  0  0  0  0  0  0  0  0
   28.4025  -19.4514   -6.5563 C   0  0  0  0  0  0  0  0  0  0  0  0
   28.2622  -20.6703   -5.9229 C   0  0  0  0  0  0  0  0  0  0  0  0
   28.8683  -20.9368   -4.7098 C   0  0  0  0  0  0  0  0  0  0  0  0
   29.6402  -19.9858   -4.0858 C   0  0  0  0  0  0  0  0  0  0  0  0
   29.7906  -18.7512   -4.7128 C   0  0  0  0  0  0  0  0  0  0  0  0
   29.1780  -18.5000   -5.9262 C   0  0  0  0  0  0  0  0  0  0  0  0
   26.0116  -20.2829   -9.3274 C   0  0  0  0  0  0  0  0  0  0  0  0
   25.2575  -19.2784   -9.3147 O   0  0  0  0  0  0  0  0  0  0  0  0
   27.6967  -21.1032  -17.2761 N   0  0  0  0  0  0  0  0  0  0  0  0
   26.5123  -21.7383  -16.8338 C   0  0  0  0  0  0  0  0  0  0  0  0
   25.5350  -21.8389  -17.6808 N   0  0  0  0  0  0  0  0  0  0  0  0
   26.3812  -22.2537  -15.5100 N   0  0  0  0  0  0  0  0  0  0  0  0
   27.4156  -22.1131  -14.5303 C   0  0  0  0  0  0  0  0  0  0  0  0
   26.9980  -21.3032  -13.3370 C   0  0  0  0  0  0  0  0  0  0  0  0
   25.6513  -21.7295  -12.8232 C   0  0  0  0  0  0  0  0  0  0  0  0
   25.1858  -20.9006  -11.6494 C   0  0  2  0  0  0  0  0  0  0  0  0
   25.8680  -21.1865  -10.4263 N   0  0  0  0  0  0  0  0  0  0  0  0
   23.7078  -21.1616  -11.5300 C   0  0  0  0  0  0  0  0  0  0  0  0
   23.3749  -22.2362  -10.9776 O   0  0  0  0  0  0  0  0  0  0  0  0
   24.6688  -22.3415  -17.4448 O   0  0  0  0  0  0  0  0  0  0  0  0
   21.0080  -17.0232  -17.0862 C   0  0  0  0  0  0  0  0  0  0  0  0
   20.8889  -17.5633  -15.8059 C   0  0  0  0  0  0  0  0  0  0  0  0
   21.8294  -17.3053  -14.8394 C   0  0  0  0  0  0  0  0  0  0  0  0
   21.7283  -17.8290  -13.5724 C   0  0  0  0  0  0  0  0  0  0  0  0
   20.6588  -18.6288  -13.2722 C   0  0  0  0  0  0  0  0  0  0  0  0
   20.5320  -19.2097  -11.9264 C   0  0  1  0  0  0  0  0  0  0  0  0
   21.2791  -20.5018  -11.8066 N   0  0  0  0  0  0  0  0  0  0  0  0
   22.7229  -20.2883  -11.9923 C   0  0  0  0  0  0  0  0  0  0  0  0
   20.7918  -21.5870  -12.6670 O   0  0  0  0  0  0  0  0  0  0  0  0
   21.6322  -22.0261  -13.7106 C   0  0  0  0  0  0  0  0  0  0  0  0
   19.7011  -18.9007  -14.2299 C   0  0  0  0  0  0  0  0  0  0  0  0
   19.8143  -18.3717  -15.4894 O   0  0  0  0  0  0  0  0  0  0  0  0
  2  1  1  6
  2  3  1  0
  3  4  1  0
  4  5  2  0
  5  6  1  0
  7  6  2  0
  8  7  1  0
  9  4  1  0
  9  8  2  0
 10  2  1  0
 11 10  2  0
 13 12  1  0
 14 13  2  0
 15 13  1  0
 16 17  1  0
 16 15  1  0
 17 18  1  0
 19 18  1  6
 19 20  1  0
 19 21  1  0
 20 10  1  0
 21 30  1  0
 22 21  2  0
 23 24  1  0
 24 25  2  0
 24 34  1  0
 25 26  1  0
 26 27  2  0
 27 28  1  0
 29 28  1  1
 29 31  1  0
 30 29  1  0
 31 35  2  0
 31 32  1  0
 33 27  1  0
 34 33  2  0
M  END
$$$$
