FRY.pdb
     RDKit          3D

 35 36  0  0  1  0  0  0  0  0999 V2000
   19.9375  -19.2542  -16.5991 N   0  0  0  0  0  0  0  0  0  0  0  0
   20.3340  -19.7217  -15.2959 C   0  0  1  0  0  0  0  0  0  0  0  0
   19.6973  -18.9323  -14.1845 C   0  0  0  0  0  0  0  0  0  0  0  0
   20.0665  -17.5011  -14.3287 C   0  0  0  0  0  0  0  0  0  0  0  0
   21.3633  -17.1100  -14.0604 C   0  0  0  0  0  0  0  0  0  0  0  0
   21.7672  -15.7933  -14.1743 C   0  0  0  0  0  0  0  0  0  0  0  0
   20.8809  -14.8173  -14.5632 C   0  0  0  0  0  0  0  0  0  0  0  0
   19.5690  -15.1968  -14.8371 C   0  0  0  0  0  0  0  0  0  0  0  0
   19.1804  -16.5181  -14.7185 C   0  0  0  0  0  0  0  0  0  0  0  0
   20.1155  -21.1651  -15.2027 C   0  0  0  0  0  0  0  0  0  0  0  0
   19.1787  -21.6952  -15.8502 O   0  0  0  0  0  0  0  0  0  0  0  0
   26.3386  -25.8373  -17.2387 N   0  0  0  0  0  0  0  0  0  0  0  0
   25.3542  -26.4031  -16.3946 C   0  0  0  0  0  0  0  0  0  0  0  0
   25.3487  -27.6935  -16.2627 N   0  0  0  0  0  0  0  0  0  0  0  0
   24.3963  -25.5994  -15.7077 N   0  0  0  0  0  0  0  0  0  0  0  0
   24.3455  -24.1766  -15.8581 C   0  0  0  0  0  0  0  0  0  0  0  0
   23.2993  -23.5253  -15.0004 C   0  0  0  0  0  0  0  0  0  0  0  0
   21.9390  -24.1174  -15.2420 C   0  0  0  0  0  0  0  0  0  0  0  0
   20.8615  -23.4613  -14.4112 C   0  0  2  0  0  0  0  0  0  0  0  0
   20.9210  -22.0332  -14.4013 N   0  0  0  0  0  0  0  0  0  0  0  0
   21.0165  -24.0290  -13.0254 C   0  0  0  0  0  0  0  0  0  0  0  0
   21.7269  -23.3704  -12.2301 O   0  0  0  0  0  0  0  0  0  0  0  0
   24.6804  -28.1674  -15.6404 O   0  0  0  0  0  0  0  0  0  0  0  0
   17.4017  -24.6116   -5.4683 C   0  0  0  0  0  0  0  0  0  0  0  0
   17.8118  -24.5188   -6.7982 C   0  0  0  0  0  0  0  0  0  0  0  0
   18.6981  -25.4228   -7.3296 C   0  0  0  0  0  0  0  0  0  0  0  0
   19.1133  -25.3467   -8.6378 C   0  0  0  0  0  0  0  0  0  0  0  0
   18.6266  -24.3399   -9.4272 C   0  0  0  0  0  0  0  0  0  0  0  0
   19.0624  -24.2303  -10.8282 C   0  0  2  0  0  0  0  0  0  0  0  0
   19.8596  -25.4232  -11.2567 N   0  0  0  0  0  0  0  0  0  0  0  0
   20.4236  -25.2180  -12.6000 C   0  0  0  0  0  0  0  0  0  0  0  0
   19.1552  -26.7085  -11.1715 O   0  0  0  0  0  0  0  0  0  0  0  0
   18.0203  -26.8914  -11.9882 C   0  0  0  0  0  0  0  0  0  0  0  0
   17.7338  -23.4200   -8.9124 C   0  0  0  0  0  0  0  0  0  0  0  0
   17.3281  -23.5078   -7.6060 O   0  0  0  0  0  0  0  0  0  0  0  0
  2  1  1  6
  2  3  1  0
  3  4  1  0
  4  5  2  0
  5  6  1  0
  7  6  2  0
  8  7  1  0
  9  4  1  0
  9  8  2  0
 10  2  1  0
 11 10  2  0
 13 12  1  0
 14 13  2  0
 15 13  1  0
 16 17  1  0
 16 15  1  0
 17 18  1  0
 19 18  1  6
 19 20  1  0
 19 21  1  0
 20 10  1  0
 21 30  1  0
 22 21  2  0
 23 24  1  0
 24 25  2  0
 24 34  1  0
 25 26  1  0
 26 27  2  0
 27 28  1  0
 29 28  1  1
 29 31  1  0
 30 29  1  0
 31 35  2  0
 31 32  1  0
 33 27  1  0
 34 33  2  0
M  END
$$$$
