CWF.pdb
     RDKit          3D

 32 34  0  0  1  0  0  0  0  0999 V2000
   28.8692  -23.9248  -16.3894 N   0  0  0  0  0  0  0  0  0  0  0  0
   28.3647  -22.5807  -16.5569 C   0  0  1  0  0  0  0  0  0  0  0  0
   27.6087  -22.4632  -17.8671 C   0  0  0  0  0  0  0  0  0  0  0  0
   28.1502  -20.9462  -18.6988 S   0  0  0  0  0  0  0  0  0  0  0  0
   27.5217  -22.2481  -15.3975 C   0  0  0  0  0  0  0  0  0  0  0  0
   26.7798  -23.1496  -14.8652 O   0  0  0  0  0  0  0  0  0  0  0  0
   27.4506  -20.9826  -14.7885 N   0  0  0  0  0  0  0  0  0  0  0  0
   26.5828  -20.5723  -13.7141 C   0  0  1  0  0  0  0  0  0  0  0  0
   27.3191  -19.6142  -12.8691 C   0  0  0  0  0  0  0  0  0  0  0  0
   28.0761  -20.2271  -11.7616 C   0  0  0  0  0  0  0  0  0  0  0  0
   29.3508  -20.7792  -11.8039 C   0  0  0  0  0  0  0  0  0  0  0  0
   29.6263  -21.2385  -10.5564 N   0  0  0  0  0  0  0  0  0  0  0  0
   28.5889  -21.0034   -9.7259 C   0  0  0  0  0  0  0  0  0  0  0  0
   28.3474  -21.2451   -8.3971 C   0  0  0  0  0  0  0  0  0  0  0  0
   27.1633  -20.8799   -7.7797 C   0  0  0  0  0  0  0  0  0  0  0  0
   26.1863  -20.2549   -8.5031 C   0  0  0  0  0  0  0  0  0  0  0  0
   26.4348  -20.0143   -9.8356 C   0  0  0  0  0  0  0  0  0  0  0  0
   27.6149  -20.3700  -10.4795 C   0  0  0  0  0  0  0  0  0  0  0  0
   25.2875  -20.1423  -14.2709 C   0  0  0  0  0  0  0  0  0  0  0  0
   25.1113  -19.2286  -15.1009 O   0  0  0  0  0  0  0  0  0  0  0  0
   24.1317  -20.8279  -13.8129 N   0  0  0  0  0  0  0  0  0  0  0  0
   22.7720  -20.4492  -14.2246 C   0  0  1  0  0  0  0  0  0  0  0  0
   22.3922  -21.4323  -15.3044 C   0  0  0  0  0  0  0  0  0  0  0  0
   22.3872  -22.8035  -14.7362 C   0  0  0  0  0  0  0  0  0  0  0  0
   23.5695  -23.5365  -14.8304 C   0  0  0  0  0  0  0  0  0  0  0  0
   23.6092  -24.7916  -14.2962 C   0  0  0  0  0  0  0  0  0  0  0  0
   22.5344  -25.3494  -13.6764 C   0  0  0  0  0  0  0  0  0  0  0  0
   21.3454  -24.6089  -13.5829 C   0  0  0  0  0  0  0  0  0  0  0  0
   21.2902  -23.3470  -14.1152 C   0  0  0  0  0  0  0  0  0  0  0  0
   21.8597  -20.5622  -13.0756 C   0  0  0  0  0  0  0  0  0  0  0  0
   22.3133  -20.9062  -11.9242 O   0  0  0  0  0  0  0  0  0  0  0  0
   20.5027  -20.3118  -13.1543 O   0  0  0  0  0  0  0  0  0  0  0  0
  2  3  1  0
  2  1  1  1
  4  3  1  0
  5  2  1  0
  6  5  2  0
  7  5  1  0
  8  7  1  0
  9 10  1  0
  8  9  1  6
 10 18  1  0
 10 11  2  0
 11 12  1  0
 13 12  1  0
 13 14  2  0
 15 14  1  0
 16 15  2  0
 17 16  1  0
 17 18  2  0
 18 13  1  0
 19  8  1  0
 19 21  1  0
 20 19  2  0
 22 21  1  0
 22 30  1  0
 22 23  1  6
 24 29  1  0
 24 23  1  0
 25 24  2  0
 26 27  2  0
 26 25  1  0
 27 28  1  0
 28 29  2  0
 30 32  1  0
 31 30  2  0
M  END
$$$$
