CWF.pdb
     RDKit          3D

 32 34  0  0  1  0  0  0  0  0999 V2000
   27.5061  -19.1397  -15.7698 N   0  0  0  0  0  0  0  0  0  0  0  0
   27.7120  -20.2578  -14.8774 C   0  0  1  0  0  0  0  0  0  0  0  0
   29.1957  -20.4988  -14.6713 C   0  0  0  0  0  0  0  0  0  0  0  0
   29.8383  -19.1873  -13.5974 S   0  0  0  0  0  0  0  0  0  0  0  0
   27.0130  -19.9830  -13.6119 C   0  0  0  0  0  0  0  0  0  0  0  0
   27.0058  -18.7941  -13.1292 O   0  0  0  0  0  0  0  0  0  0  0  0
   26.3193  -20.9393  -12.8494 N   0  0  0  0  0  0  0  0  0  0  0  0
   25.5061  -20.7106  -11.6822 C   0  0  1  0  0  0  0  0  0  0  0  0
   24.1833  -21.3179  -11.9174 C   0  0  0  0  0  0  0  0  0  0  0  0
   23.2557  -20.4843  -12.7048 C   0  0  0  0  0  0  0  0  0  0  0  0
   23.4592  -19.1912  -13.1715 C   0  0  0  0  0  0  0  0  0  0  0  0
   22.3283  -18.8225  -13.8259 N   0  0  0  0  0  0  0  0  0  0  0  0
   21.4189  -19.8192  -13.7973 C   0  0  0  0  0  0  0  0  0  0  0  0
   20.1508  -19.9781  -14.2966 C   0  0  0  0  0  0  0  0  0  0  0  0
   19.4256  -21.1444  -14.1224 C   0  0  0  0  0  0  0  0  0  0  0  0
   19.9750  -22.1873  -13.4304 C   0  0  0  0  0  0  0  0  0  0  0  0
   21.2479  -22.0223  -12.9327 C   0  0  0  0  0  0  0  0  0  0  0  0
   21.9977  -20.8624  -13.0940 C   0  0  0  0  0  0  0  0  0  0  0  0
   26.2498  -21.1292  -10.4804 C   0  0  0  0  0  0  0  0  0  0  0  0
   26.8517  -22.2107  -10.3282 O   0  0  0  0  0  0  0  0  0  0  0  0
   26.2765  -20.2187   -9.3915 N   0  0  0  0  0  0  0  0  0  0  0  0
   26.8530  -20.5653   -8.0841 C   0  0  1  0  0  0  0  0  0  0  0  0
   27.6803  -19.3695   -7.6816 C   0  0  0  0  0  0  0  0  0  0  0  0
   28.1313  -19.5383   -6.2776 C   0  0  0  0  0  0  0  0  0  0  0  0
   29.2601  -20.3277   -6.0616 C   0  0  0  0  0  0  0  0  0  0  0  0
   29.7185  -20.4843   -4.7858 C   0  0  0  0  0  0  0  0  0  0  0  0
   29.1103  -19.8965   -3.7204 C   0  0  0  0  0  0  0  0  0  0  0  0
   27.9741  -19.1021   -3.9410 C   0  0  0  0  0  0  0  0  0  0  0  0
   27.5017  -18.9358   -5.2168 C   0  0  0  0  0  0  0  0  0  0  0  0
   25.7709  -20.7981   -7.1145 C   0  0  0  0  0  0  0  0  0  0  0  0
   24.6211  -20.2530   -7.2890 O   0  0  0  0  0  0  0  0  0  0  0  0
   25.9129  -21.5929   -5.9925 O   0  0  0  0  0  0  0  0  0  0  0  0
  2  3  1  0
  2  1  1  6
  4  3  1  0
  5  2  1  0
  6  5  2  0
  7  5  1  0
  8  7  1  0
  9 10  1  0
  8  9  1  6
 10 18  1  0
 10 11  2  0
 11 12  1  0
 13 12  1  0
 13 14  2  0
 15 14  1  0
 16 15  2  0
 17 16  1  0
 17 18  2  0
 18 13  1  0
 19  8  1  0
 19 21  1  0
 20 19  2  0
 22 21  1  0
 22 30  1  0
 22 23  1  1
 24 29  1  0
 24 23  1  0
 25 24  2  0
 26 27  2  0
 26 25  1  0
 27 28  1  0
 28 29  2  0
 30 32  1  0
 31 30  2  0
M  END
$$$$
