CWF.pdb
     RDKit          3D

 32 34  0  0  1  0  0  0  0  0999 V2000
   10.6253  -19.1689    3.3336 N   0  0  0  0  0  0  0  0  0  0  0  0
   11.1393  -18.1888    4.2631 C   0  0  1  0  0  0  0  0  0  0  0  0
   10.6737  -18.5063    5.6718 C   0  0  0  0  0  0  0  0  0  0  0  0
    8.9345  -18.0158    5.8170 S   0  0  0  0  0  0  0  0  0  0  0  0
   12.6068  -18.1644    4.1555 C   0  0  0  0  0  0  0  0  0  0  0  0
   13.2544  -19.2580    3.9792 O   0  0  0  0  0  0  0  0  0  0  0  0
   13.4018  -17.0068    4.2273 N   0  0  0  0  0  0  0  0  0  0  0  0
   14.8384  -16.9220    4.1591 C   0  0  1  0  0  0  0  0  0  0  0  0
   15.1949  -15.6075    3.5943 C   0  0  0  0  0  0  0  0  0  0  0  0
   16.5928  -15.4935    3.1379 C   0  0  0  0  0  0  0  0  0  0  0  0
   17.3497  -16.4452    2.4650 C   0  0  0  0  0  0  0  0  0  0  0  0
   18.5812  -15.9083    2.2705 N   0  0  0  0  0  0  0  0  0  0  0  0
   18.6412  -14.6626    2.7864 C   0  0  0  0  0  0  0  0  0  0  0  0
   19.6130  -13.6967    2.8559 C   0  0  0  0  0  0  0  0  0  0  0  0
   19.3955  -12.4669    3.4533 C   0  0  0  0  0  0  0  0  0  0  0  0
   18.1748  -12.1854    4.0002 C   0  0  0  0  0  0  0  0  0  0  0  0
   17.2034  -13.1582    3.9265 C   0  0  0  0  0  0  0  0  0  0  0  0
   17.3956  -14.4004    3.3319 C   0  0  0  0  0  0  0  0  0  0  0  0
   15.4108  -17.2848    5.4681 C   0  0  0  0  0  0  0  0  0  0  0  0
   15.0606  -16.8297    6.5750 O   0  0  0  0  0  0  0  0  0  0  0  0
   16.4649  -18.2359    5.4672 N   0  0  0  0  0  0  0  0  0  0  0  0
   17.0545  -18.7646    6.7060 C   0  0  1  0  0  0  0  0  0  0  0  0
   15.9221  -19.4543    7.4259 C   0  0  0  0  0  0  0  0  0  0  0  0
   16.4343  -20.0475    8.6864 C   0  0  0  0  0  0  0  0  0  0  0  0
   16.4334  -21.4385    8.7823 C   0  0  0  0  0  0  0  0  0  0  0  0
   16.9209  -22.0195    9.9169 C   0  0  0  0  0  0  0  0  0  0  0  0
   17.4061  -21.2864   10.9550 C   0  0  0  0  0  0  0  0  0  0  0  0
   17.4059  -19.8861   10.8554 C   0  0  0  0  0  0  0  0  0  0  0  0
   16.9190  -19.2882    9.7222 C   0  0  0  0  0  0  0  0  0  0  0  0
   18.1197  -19.7242    6.3743 C   0  0  0  0  0  0  0  0  0  0  0  0
   18.1063  -20.3369    5.2455 O   0  0  0  0  0  0  0  0  0  0  0  0
   19.1701  -20.0181    7.2233 O   0  0  0  0  0  0  0  0  0  0  0  0
  2  3  1  0
  2  1  1  6
  4  3  1  0
  5  2  1  0
  6  5  2  0
  7  5  1  0
  8  7  1  0
  9 10  1  0
  8  9  1  1
 10 18  1  0
 10 11  2  0
 11 12  1  0
 13 12  1  0
 13 14  2  0
 15 14  1  0
 16 15  2  0
 17 16  1  0
 17 18  2  0
 18 13  1  0
 19  8  1  0
 19 21  1  0
 20 19  2  0
 22 21  1  0
 22 30  1  0
 22 23  1  1
 24 29  1  0
 24 23  1  0
 25 24  2  0
 26 27  2  0
 26 25  1  0
 27 28  1  0
 28 29  2  0
 30 32  1  0
 31 30  2  0
M  END
$$$$
