GTR.pdb
     RDKit          3D

 23 22  0  0  1  0  0  0  0  0999 V2000
    4.2456  -21.2330   21.7435 N   0  0  0  0  0  0  0  0  0  0  0  0
    5.1921  -21.5831   22.7695 C   0  0  0  0  0  0  0  0  0  0  0  0
    5.6671  -20.3615   23.4673 C   0  0  0  0  0  0  0  0  0  0  0  0
    5.0195  -19.2650   23.3783 O   0  0  0  0  0  0  0  0  0  0  0  0
    8.9160  -20.7361   26.3576 C   0  0  0  0  0  0  0  0  0  0  0  0
    7.7875  -19.7669   26.4047 C   0  0  1  0  0  0  0  0  0  0  0  0
    8.2198  -18.6161   27.0812 O   0  0  0  0  0  0  0  0  0  0  0  0
    7.3258  -19.3219   25.0381 C   0  0  2  0  0  0  0  0  0  0  0  0
    6.8589  -20.4324   24.2390 N   0  0  0  0  0  0  0  0  0  0  0  0
    8.3595  -18.5924   24.2929 C   0  0  0  0  0  0  0  0  0  0  0  0
    9.2513  -19.1762   23.6363 O   0  0  0  0  0  0  0  0  0  0  0  0
    7.8223  -12.1689   20.0494 N   0  0  0  0  0  0  0  0  0  0  0  0
    7.7267  -13.3629   19.2904 C   0  0  0  0  0  0  0  0  0  0  0  0
    8.0842  -13.4234   18.0530 N   0  0  0  0  0  0  0  0  0  0  0  0
    7.2179  -14.5591   19.8968 N   0  0  0  0  0  0  0  0  0  0  0  0
    7.2170  -14.6047   21.3582 C   0  0  0  0  0  0  0  0  0  0  0  0
    8.6670  -14.8453   21.7899 C   0  0  0  0  0  0  0  0  0  0  0  0
    8.7595  -15.0341   23.2790 C   0  0  0  0  0  0  0  0  0  0  0  0
    9.3543  -16.3765   23.6464 C   0  0  2  0  0  0  0  0  0  0  0  0
    8.3557  -17.1792   24.3117 N   0  0  0  0  0  0  0  0  0  0  0  0
   10.5143  -16.2340   24.5545 C   0  0  0  0  0  0  0  0  0  0  0  0
   11.7692  -15.8922   24.0793 O   0  0  0  0  0  0  0  0  0  0  0  0
   10.3420  -16.4323   25.7942 O   0  0  0  0  0  0  0  0  0  0  0  0
  2  1  1  0
  3  9  1  0
  3  2  1  0
  4  3  2  0
  6  5  1  6
  7  6  1  0
  8  6  1  0
  8 10  1  0
  8  9  1  6
 10 11  2  0
 13 12  1  0
 13 14  2  0
 15 13  1  0
 16 15  1  0
 17 16  1  0
 18 17  1  0
 19 18  1  1
 19 21  1  0
 20 10  1  0
 20 19  1  0
 21 22  1  0
 23 21  2  0
M  END
$$$$
