GTR.pdb
     RDKit          3D

 23 22  0  0  1  0  0  0  0  0999 V2000
   15.7271  -17.2530   16.9403 N   0  0  0  0  0  0  0  0  0  0  0  0
   15.7169  -18.0223   18.1566 C   0  0  0  0  0  0  0  0  0  0  0  0
   14.3419  -18.0817   18.7142 C   0  0  0  0  0  0  0  0  0  0  0  0
   13.4502  -17.2469   18.3433 O   0  0  0  0  0  0  0  0  0  0  0  0
   12.5154  -21.6359   19.6338 C   0  0  0  0  0  0  0  0  0  0  0  0
   12.4468  -20.6258   20.7247 C   0  0  1  0  0  0  0  0  0  0  0  0
   13.4351  -20.9303   21.6731 O   0  0  0  0  0  0  0  0  0  0  0  0
   12.7156  -19.2176   20.2516 C   0  0  2  0  0  0  0  0  0  0  0  0
   14.0330  -19.0864   19.6711 N   0  0  0  0  0  0  0  0  0  0  0  0
   12.5540  -18.2156   21.3125 C   0  0  0  0  0  0  0  0  0  0  0  0
   13.5271  -17.7415   21.9417 O   0  0  0  0  0  0  0  0  0  0  0  0
    6.6064  -13.5014   20.0717 N   0  0  0  0  0  0  0  0  0  0  0  0
    7.8065  -13.1607   19.3974 C   0  0  0  0  0  0  0  0  0  0  0  0
    7.8162  -12.7364   18.1798 N   0  0  0  0  0  0  0  0  0  0  0  0
    9.0670  -13.2832   20.0711 N   0  0  0  0  0  0  0  0  0  0  0  0
    9.0547  -13.9570   21.3686 C   0  0  0  0  0  0  0  0  0  0  0  0
    9.5634  -15.3817   21.1272 C   0  0  0  0  0  0  0  0  0  0  0  0
    9.6319  -16.1530   22.4164 C   0  0  0  0  0  0  0  0  0  0  0  0
   11.0004  -16.7572   22.6458 C   0  0  2  0  0  0  0  0  0  0  0  0
   11.2563  -17.7635   21.6428 N   0  0  0  0  0  0  0  0  0  0  0  0
   11.1041  -17.3941   23.9777 C   0  0  0  0  0  0  0  0  0  0  0  0
   11.5490  -16.6912   25.0847 O   0  0  0  0  0  0  0  0  0  0  0  0
   10.7750  -18.6123   24.0948 O   0  0  0  0  0  0  0  0  0  0  0  0
  2  1  1  0
  3  9  1  0
  3  2  1  0
  4  3  2  0
  6  5  1  6
  7  6  1  0
  8  6  1  0
  8 10  1  0
  8  9  1  1
 10 11  2  0
 13 12  1  0
 13 14  2  0
 15 13  1  0
 16 15  1  0
 17 16  1  0
 18 17  1  0
 19 18  1  6
 19 21  1  0
 20 10  1  0
 20 19  1  0
 21 22  1  0
 23 21  2  0
M  END
$$$$
