GTR.pdb
     RDKit          3D

 23 22  0  0  1  0  0  0  0  0999 V2000
    9.2774  -12.4804   17.5228 N   0  0  0  0  0  0  0  0  0  0  0  0
    9.3103  -13.7746   18.1514 C   0  0  0  0  0  0  0  0  0  0  0  0
    9.0620  -13.6428   19.6095 C   0  0  0  0  0  0  0  0  0  0  0  0
    9.3637  -12.5681   20.2288 O   0  0  0  0  0  0  0  0  0  0  0  0
    5.6218  -14.8251   21.0526 C   0  0  0  0  0  0  0  0  0  0  0  0
    6.7271  -15.3396   21.9063 C   0  0  1  0  0  0  0  0  0  0  0  0
    6.9402  -16.6897   21.5890 O   0  0  0  0  0  0  0  0  0  0  0  0
    8.0380  -14.6262   21.6792 C   0  0  2  0  0  0  0  0  0  0  0  0
    8.4808  -14.7363   20.3075 N   0  0  0  0  0  0  0  0  0  0  0  0
    9.1072  -15.0936   22.5702 C   0  0  0  0  0  0  0  0  0  0  0  0
   10.0524  -15.8087   22.1666 O   0  0  0  0  0  0  0  0  0  0  0  0
    9.7554  -16.9155   29.6623 N   0  0  0  0  0  0  0  0  0  0  0  0
   10.9011  -16.2540   30.1731 C   0  0  0  0  0  0  0  0  0  0  0  0
   11.6224  -16.7550   31.1171 N   0  0  0  0  0  0  0  0  0  0  0  0
   11.2926  -14.9820   29.6379 N   0  0  0  0  0  0  0  0  0  0  0  0
   10.3934  -14.3785   28.6557 C   0  0  0  0  0  0  0  0  0  0  0  0
   10.6777  -15.0698   27.3185 C   0  0  0  0  0  0  0  0  0  0  0  0
    9.7890  -14.5267   26.2337 C   0  0  0  0  0  0  0  0  0  0  0  0
   10.0368  -15.2038   24.9029 C   0  0  2  0  0  0  0  0  0  0  0  0
    9.0770  -14.7281   23.9351 N   0  0  0  0  0  0  0  0  0  0  0  0
    9.9052  -16.6747   25.0013 C   0  0  0  0  0  0  0  0  0  0  0  0
    8.7003  -17.3125   24.7586 O   0  0  0  0  0  0  0  0  0  0  0  0
   10.9267  -17.3553   25.3160 O   0  0  0  0  0  0  0  0  0  0  0  0
  2  1  1  0
  3  9  1  0
  3  2  1  0
  4  3  2  0
  6  5  1  6
  7  6  1  0
  8  6  1  0
  8 10  1  0
  8  9  1  6
 10 11  2  0
 13 12  1  0
 13 14  2  0
 15 13  1  0
 16 15  1  0
 17 16  1  0
 18 17  1  0
 19 18  1  1
 19 21  1  0
 20 10  1  0
 20 19  1  0
 21 22  1  0
 23 21  2  0
M  END
$$$$
