GTR.pdb
     RDKit          3D

 23 22  0  0  1  0  0  0  0  0999 V2000
   14.1252  -14.0295   17.9036 N   0  0  0  0  0  0  0  0  0  0  0  0
   12.8418  -14.6795   17.9450 C   0  0  0  0  0  0  0  0  0  0  0  0
   12.0187  -14.1193   19.0466 C   0  0  0  0  0  0  0  0  0  0  0  0
   12.5675  -13.5313   20.0379 O   0  0  0  0  0  0  0  0  0  0  0  0
    8.2477  -12.4457   18.6867 C   0  0  0  0  0  0  0  0  0  0  0  0
    8.3359  -13.5946   19.6287 C   0  0  1  0  0  0  0  0  0  0  0  0
    7.8776  -14.7449   18.9686 O   0  0  0  0  0  0  0  0  0  0  0  0
    9.7454  -13.8857   20.0843 C   0  0  2  0  0  0  0  0  0  0  0  0
   10.6046  -14.2484   18.9798 N   0  0  0  0  0  0  0  0  0  0  0  0
    9.8114  -14.9333   21.1109 C   0  0  0  0  0  0  0  0  0  0  0  0
   10.1827  -16.1012   20.8549 O   0  0  0  0  0  0  0  0  0  0  0  0
    8.9666  -15.7146   30.0345 N   0  0  0  0  0  0  0  0  0  0  0  0
   10.1451  -15.2397   29.4048 C   0  0  0  0  0  0  0  0  0  0  0  0
   11.2341  -15.0172   30.0585 N   0  0  0  0  0  0  0  0  0  0  0  0
   10.1524  -14.9903   27.9922 N   0  0  0  0  0  0  0  0  0  0  0  0
    8.8743  -15.1260   27.2953 C   0  0  0  0  0  0  0  0  0  0  0  0
    9.1674  -15.8560   25.9808 C   0  0  0  0  0  0  0  0  0  0  0  0
    9.1785  -14.8951   24.8240 C   0  0  0  0  0  0  0  0  0  0  0  0
    9.4293  -15.5948   23.5055 C   0  0  2  0  0  0  0  0  0  0  0  0
    9.4444  -14.6214   22.4396 N   0  0  0  0  0  0  0  0  0  0  0  0
    8.3799  -16.5944   23.2051 C   0  0  0  0  0  0  0  0  0  0  0  0
    7.3233  -16.3039   22.3585 O   0  0  0  0  0  0  0  0  0  0  0  0
    8.4617  -17.7395   23.7415 O   0  0  0  0  0  0  0  0  0  0  0  0
  2  1  1  0
  3  9  1  0
  3  2  1  0
  4  3  2  0
  6  5  1  6
  7  6  1  0
  8  6  1  0
  8 10  1  0
  8  9  1  6
 10 11  2  0
 13 12  1  0
 13 14  2  0
 15 13  1  0
 16 15  1  0
 17 16  1  0
 18 17  1  0
 19 18  1  1
 19 21  1  0
 20 10  1  0
 20 19  1  0
 21 22  1  0
 23 21  2  0
M  END
$$$$
