GTR.pdb
     RDKit          3D

 23 22  0  0  1  0  0  0  0  0999 V2000
    4.5289  -19.7123   23.5437 N   0  0  0  0  0  0  0  0  0  0  0  0
    5.5491  -19.2895   24.4666 C   0  0  0  0  0  0  0  0  0  0  0  0
    6.2174  -18.0620   23.9650 C   0  0  0  0  0  0  0  0  0  0  0  0
    5.8182  -17.4920   22.8948 O   0  0  0  0  0  0  0  0  0  0  0  0
    6.7385  -14.8048   25.8340 C   0  0  0  0  0  0  0  0  0  0  0  0
    8.0717  -15.3135   25.4113 C   0  0  1  0  0  0  0  0  0  0  0  0
    8.6648  -15.9636   26.5043 O   0  0  0  0  0  0  0  0  0  0  0  0
    7.9974  -16.3230   24.2913 C   0  0  2  0  0  0  0  0  0  0  0  0
    7.3128  -17.5295   24.6980 N   0  0  0  0  0  0  0  0  0  0  0  0
    9.3154  -16.6759   23.7489 C   0  0  0  0  0  0  0  0  0  0  0  0
    9.9137  -17.7276   24.0702 O   0  0  0  0  0  0  0  0  0  0  0  0
    8.7475  -12.4296   19.8289 N   0  0  0  0  0  0  0  0  0  0  0  0
    8.2285  -13.2394   18.7868 C   0  0  0  0  0  0  0  0  0  0  0  0
    7.0359  -13.0835   18.3219 N   0  0  0  0  0  0  0  0  0  0  0  0
    9.0381  -14.2750   18.2126 N   0  0  0  0  0  0  0  0  0  0  0  0
   10.3824  -14.4385   18.7638 C   0  0  0  0  0  0  0  0  0  0  0  0
   10.2666  -15.4505   19.9080 C   0  0  0  0  0  0  0  0  0  0  0  0
   11.3292  -15.2123   20.9451 C   0  0  0  0  0  0  0  0  0  0  0  0
   11.1688  -16.1226   22.1436 C   0  0  2  0  0  0  0  0  0  0  0  0
    9.9395  -15.8024   22.8296 N   0  0  0  0  0  0  0  0  0  0  0  0
   12.2866  -15.9723   23.1019 C   0  0  0  0  0  0  0  0  0  0  0  0
   13.5585  -16.4357   22.8104 O   0  0  0  0  0  0  0  0  0  0  0  0
   12.0614  -15.4044   24.2122 O   0  0  0  0  0  0  0  0  0  0  0  0
  2  1  1  0
  3  9  1  0
  3  2  1  0
  4  3  2  0
  6  5  1  1
  7  6  1  0
  8  6  1  0
  8 10  1  0
  8  9  1  1
 10 11  2  0
 13 12  1  0
 13 14  2  0
 15 13  1  0
 16 15  1  0
 17 16  1  0
 18 17  1  0
 19 18  1  6
 19 21  1  0
 20 10  1  0
 20 19  1  0
 21 22  1  0
 23 21  2  0
M  END
$$$$
