GTR.pdb
     RDKit          3D

 23 22  0  0  1  0  0  0  0  0999 V2000
    9.6417  -15.3351   14.6183 N   0  0  0  0  0  0  0  0  0  0  0  0
    8.7964  -15.6856   15.7291 C   0  0  0  0  0  0  0  0  0  0  0  0
    9.3890  -15.1948   16.9991 C   0  0  0  0  0  0  0  0  0  0  0  0
   10.6499  -15.0302   17.1107 O   0  0  0  0  0  0  0  0  0  0  0  0
    7.3365  -12.5575   19.4482 C   0  0  0  0  0  0  0  0  0  0  0  0
    7.9397  -13.7219   20.1518 C   0  0  1  0  0  0  0  0  0  0  0  0
    6.9346  -14.6761   20.3713 O   0  0  0  0  0  0  0  0  0  0  0  0
    9.0232  -14.4056   19.3534 C   0  0  2  0  0  0  0  0  0  0  0  0
    8.5268  -14.9100   18.0929 N   0  0  0  0  0  0  0  0  0  0  0  0
    9.6738  -15.4982   20.0875 C   0  0  0  0  0  0  0  0  0  0  0  0
    9.3824  -16.7009   19.8979 O   0  0  0  0  0  0  0  0  0  0  0  0
   14.6782  -16.4614   17.8870 N   0  0  0  0  0  0  0  0  0  0  0  0
   15.2113  -15.2624   18.4248 C   0  0  0  0  0  0  0  0  0  0  0  0
   15.6423  -14.3039   17.6776 N   0  0  0  0  0  0  0  0  0  0  0  0
   15.2847  -15.0846   19.8462 N   0  0  0  0  0  0  0  0  0  0  0  0
   14.8855  -16.2236   20.6714 C   0  0  0  0  0  0  0  0  0  0  0  0
   13.3569  -16.2989   20.6042 C   0  0  0  0  0  0  0  0  0  0  0  0
   12.7459  -16.0208   21.9499 C   0  0  0  0  0  0  0  0  0  0  0  0
   11.2402  -16.1734   21.9337 C   0  0  2  0  0  0  0  0  0  0  0  0
   10.6667  -15.1907   21.0452 N   0  0  0  0  0  0  0  0  0  0  0  0
   10.6533  -15.9804   23.2786 C   0  0  0  0  0  0  0  0  0  0  0  0
    9.7772  -14.9416   23.5448 O   0  0  0  0  0  0  0  0  0  0  0  0
   10.9680  -16.7917   24.1998 O   0  0  0  0  0  0  0  0  0  0  0  0
  2  1  1  0
  3  9  1  0
  3  2  1  0
  4  3  2  0
  6  5  1  6
  7  6  1  0
  8  6  1  0
  8 10  1  0
  8  9  1  6
 10 11  2  0
 13 12  1  0
 13 14  2  0
 15 13  1  0
 16 15  1  0
 17 16  1  0
 18 17  1  0
 19 18  1  1
 19 21  1  0
 20 10  1  0
 20 19  1  0
 21 22  1  0
 23 21  2  0
M  END
$$$$
