GTR.pdb
     RDKit          3D

 23 22  0  0  1  0  0  0  0  0999 V2000
    8.1389  -12.4167   17.2061 N   0  0  0  0  0  0  0  0  0  0  0  0
    9.0034  -13.3917   17.8170 C   0  0  0  0  0  0  0  0  0  0  0  0
    8.3633  -13.9538   19.0333 C   0  0  0  0  0  0  0  0  0  0  0  0
    7.5257  -13.2660   19.7077 O   0  0  0  0  0  0  0  0  0  0  0  0
    6.3715  -17.0495   19.2841 C   0  0  0  0  0  0  0  0  0  0  0  0
    7.4420  -17.1864   20.3090 C   0  0  1  0  0  0  0  0  0  0  0  0
    8.4208  -18.0610   19.8131 O   0  0  0  0  0  0  0  0  0  0  0  0
    8.1388  -15.8842   20.6215 C   0  0  2  0  0  0  0  0  0  0  0  0
    8.6992  -15.2750   19.4364 N   0  0  0  0  0  0  0  0  0  0  0  0
    9.1918  -16.0260   21.6349 C   0  0  0  0  0  0  0  0  0  0  0  0
   10.4011  -16.1454   21.3338 O   0  0  0  0  0  0  0  0  0  0  0  0
    9.5294  -13.6062   30.1450 N   0  0  0  0  0  0  0  0  0  0  0  0
   10.4292  -14.6997   30.0708 C   0  0  0  0  0  0  0  0  0  0  0  0
   11.1216  -15.0924   31.0852 N   0  0  0  0  0  0  0  0  0  0  0  0
   10.5933  -15.4106   28.8358 N   0  0  0  0  0  0  0  0  0  0  0  0
    9.7318  -15.0057   27.7261 C   0  0  0  0  0  0  0  0  0  0  0  0
   10.1722  -15.8241   26.5083 C   0  0  0  0  0  0  0  0  0  0  0  0
    9.3095  -15.5179   25.3151 C   0  0  0  0  0  0  0  0  0  0  0  0
    9.7918  -16.2261   24.0675 C   0  0  2  0  0  0  0  0  0  0  0  0
    8.8369  -16.0289   23.0029 N   0  0  0  0  0  0  0  0  0  0  0  0
    9.9470  -17.6816   24.2866 C   0  0  0  0  0  0  0  0  0  0  0  0
   11.1488  -18.2275   24.7050 O   0  0  0  0  0  0  0  0  0  0  0  0
    8.9490  -18.4354   24.0830 O   0  0  0  0  0  0  0  0  0  0  0  0
  2  1  1  0
  3  9  1  0
  3  2  1  0
  4  3  2  0
  6  5  1  6
  7  6  1  0
  8  6  1  0
  8 10  1  0
  8  9  1  6
 10 11  2  0
 13 12  1  0
 13 14  2  0
 15 13  1  0
 16 15  1  0
 17 16  1  0
 18 17  1  0
 19 18  1  1
 19 21  1  0
 20 10  1  0
 20 19  1  0
 21 22  1  0
 23 21  2  0
M  END
$$$$
