GTR.pdb
     RDKit          3D

 23 22  0  0  1  0  0  0  0  0999 V2000
    1.5244  -21.8081   17.9384 N   0  0  0  0  0  0  0  0  0  0  0  0
    2.8729  -21.4420   18.2828 C   0  0  0  0  0  0  0  0  0  0  0  0
    2.8714  -20.2366   19.1499 C   0  0  0  0  0  0  0  0  0  0  0  0
    2.3210  -19.1527   18.7605 O   0  0  0  0  0  0  0  0  0  0  0  0
    1.2595  -19.8878   22.3417 C   0  0  0  0  0  0  0  0  0  0  0  0
    2.6851  -19.5546   22.6095 C   0  0  1  0  0  0  0  0  0  0  0  0
    3.3048  -20.6804   23.1731 O   0  0  0  0  0  0  0  0  0  0  0  0
    3.4615  -19.2082   21.3621 C   0  0  2  0  0  0  0  0  0  0  0  0
    3.4950  -20.3087   20.4253 N   0  0  0  0  0  0  0  0  0  0  0  0
    4.8350  -18.7726   21.6438 C   0  0  0  0  0  0  0  0  0  0  0  0
    5.8187  -19.5387   21.5300 O   0  0  0  0  0  0  0  0  0  0  0  0
    8.7618  -11.8462   19.3557 N   0  0  0  0  0  0  0  0  0  0  0  0
    8.6447  -13.2204   19.0257 C   0  0  0  0  0  0  0  0  0  0  0  0
    8.8289  -13.6595   17.8273 N   0  0  0  0  0  0  0  0  0  0  0  0
    8.3107  -14.1758   20.0421 N   0  0  0  0  0  0  0  0  0  0  0  0
    8.0432  -13.6460   21.3783 C   0  0  0  0  0  0  0  0  0  0  0  0
    7.7841  -14.8535   22.2846 C   0  0  0  0  0  0  0  0  0  0  0  0
    6.4321  -15.4515   22.0088 C   0  0  0  0  0  0  0  0  0  0  0  0
    6.3781  -16.9226   22.3609 C   0  0  2  0  0  0  0  0  0  0  0  0
    5.0652  -17.4414   22.0592 N   0  0  0  0  0  0  0  0  0  0  0  0
    6.6490  -17.1546   23.7972 C   0  0  0  0  0  0  0  0  0  0  0  0
    5.6259  -17.4000   24.6975 O   0  0  0  0  0  0  0  0  0  0  0  0
    7.8501  -17.1255   24.2003 O   0  0  0  0  0  0  0  0  0  0  0  0
  2  1  1  0
  3  9  1  0
  3  2  1  0
  4  3  2  0
  6  5  1  6
  7  6  1  0
  8  6  1  0
  8 10  1  0
  8  9  1  6
 10 11  2  0
 13 12  1  0
 13 14  2  0
 15 13  1  0
 16 15  1  0
 17 16  1  0
 18 17  1  0
 19 18  1  1
 19 21  1  0
 20 10  1  0
 20 19  1  0
 21 22  1  0
 23 21  2  0
M  END
$$$$
