AHC.pdb
     RDKit          3D

 22 22  0  0  1  0  0  0  0  0999 V2000
   20.8543  -11.0873  -20.4558 C   0  0  0  0  0  0  0  0  0  0  0  0
   21.8735  -10.2954  -19.6587 C   0  0  2  0  0  0  0  0  0  0  0  0
   22.8744  -11.2243  -19.1845 N   0  0  0  0  0  0  0  0  0  0  0  0
   21.1970   -9.5936  -18.5323 C   0  0  0  0  0  0  0  0  0  0  0  0
   20.3540   -8.7252  -18.7915 O   0  0  0  0  0  0  0  0  0  0  0  0
   21.5104   -9.9121  -17.2035 N   0  0  0  0  0  0  0  0  0  0  0  0
   20.8985   -9.2799  -16.0511 C   0  0  1  0  0  0  0  0  0  0  0  0
   20.6056  -10.2802  -14.9873 C   0  0  0  0  0  0  0  0  0  0  0  0
   19.3341  -11.0058  -15.2336 C   0  0  0  0  0  0  0  0  0  0  0  0
   18.4168  -10.7120  -16.2466 C   0  0  0  0  0  0  0  0  0  0  0  0
   17.3876  -11.5635  -16.1765 N   0  0  0  0  0  0  0  0  0  0  0  0
   17.6267  -12.3846  -15.1517 C   0  0  0  0  0  0  0  0  0  0  0  0
   18.7961  -12.0538  -14.5809 N   0  0  0  0  0  0  0  0  0  0  0  0
   21.7313   -8.1503  -15.5504 C   0  0  0  0  0  0  0  0  0  0  0  0
   22.9666   -8.3404  -15.4152 O   0  0  0  0  0  0  0  0  0  0  0  0
   21.2007   -6.8737  -15.2195 N   0  0  0  0  0  0  0  0  0  0  0  0
   22.0894   -5.8038  -14.8271 C   0  0  1  0  0  0  0  0  0  0  0  0
   22.4970   -4.9472  -16.0059 C   0  0  0  0  0  0  0  0  0  0  0  0
   23.3728   -3.4623  -15.5268 S   0  0  0  0  0  0  0  0  0  0  0  0
   21.3751   -4.9311  -13.8812 C   0  0  0  0  0  0  0  0  0  0  0  0
   20.1324   -4.8887  -13.8823 O   0  0  0  0  0  0  0  0  0  0  0  0
   22.0847   -4.1575  -12.9906 O   0  0  0  0  0  0  0  0  0  0  0  0
  2  1  1  1
  2  3  1  0
  2  4  1  0
  4  5  2  0
  6  4  1  0
  6  7  1  0
  7 14  1  0
  7  8  1  1
  9 13  1  0
  9  8  1  0
 10  9  2  0
 11 10  1  0
 11 12  1  0
 12 13  2  0
 14 16  1  0
 14 15  2  0
 16 17  1  0
 17 20  1  0
 17 18  1  6
 19 18  1  0
 20 21  2  0
 20 22  1  0
M  END
$$$$
