AHC.pdb
     RDKit          3D

 22 22  0  0  1  0  0  0  0  0999 V2000
   20.0800  -11.0532  -18.5868 C   0  0  0  0  0  0  0  0  0  0  0  0
   21.1821  -10.0694  -18.2420 C   0  0  2  0  0  0  0  0  0  0  0  0
   22.2735  -10.8210  -17.6646 N   0  0  0  0  0  0  0  0  0  0  0  0
   20.6623   -9.0413  -17.2978 C   0  0  0  0  0  0  0  0  0  0  0  0
   19.7890   -8.2576  -17.6917 O   0  0  0  0  0  0  0  0  0  0  0  0
   21.1541   -8.9640  -15.9873 N   0  0  0  0  0  0  0  0  0  0  0  0
   20.6931   -8.0052  -15.0022 C   0  0  1  0  0  0  0  0  0  0  0  0
   20.8822   -8.5278  -13.6205 C   0  0  0  0  0  0  0  0  0  0  0  0
   20.2940   -7.6299  -12.5950 C   0  0  0  0  0  0  0  0  0  0  0  0
   19.6711   -6.4051  -12.8520 C   0  0  0  0  0  0  0  0  0  0  0  0
   19.2588   -5.8646  -11.7001 N   0  0  0  0  0  0  0  0  0  0  0  0
   19.6019   -6.7092  -10.7252 C   0  0  0  0  0  0  0  0  0  0  0  0
   20.2248   -7.7727  -11.2577 N   0  0  0  0  0  0  0  0  0  0  0  0
   21.3410   -6.6778  -15.1977 C   0  0  0  0  0  0  0  0  0  0  0  0
   22.5914   -6.6423  -15.3229 O   0  0  0  0  0  0  0  0  0  0  0  0
   20.6186   -5.4546  -15.2494 N   0  0  0  0  0  0  0  0  0  0  0  0
   21.3065   -4.2246  -15.5697 C   0  0  1  0  0  0  0  0  0  0  0  0
   20.6631   -3.5045  -16.7345 C   0  0  0  0  0  0  0  0  0  0  0  0
   20.6712   -4.4632  -18.2453 S   0  0  0  0  0  0  0  0  0  0  0  0
   21.2225   -3.3294  -14.4043 C   0  0  0  0  0  0  0  0  0  0  0  0
   20.5315   -3.6444  -13.4196 O   0  0  0  0  0  0  0  0  0  0  0  0
   21.9114   -2.1376  -14.4029 O   0  0  0  0  0  0  0  0  0  0  0  0
  2  1  1  1
  2  3  1  0
  2  4  1  0
  4  5  2  0
  6  4  1  0
  6  7  1  0
  7 14  1  0
  7  8  1  1
  9 13  1  0
  9  8  1  0
 10  9  2  0
 11 10  1  0
 11 12  1  0
 12 13  2  0
 14 16  1  0
 14 15  2  0
 16 17  1  0
 17 20  1  0
 17 18  1  6
 19 18  1  0
 20 21  2  0
 20 22  1  0
M  END
$$$$
