AHC.pdb
     RDKit          3D

 22 22  0  0  1  0  0  0  0  0999 V2000
   28.9785  -20.4838  -14.3383 C   0  0  0  0  0  0  0  0  0  0  0  0
   27.4989  -20.5859  -14.6572 C   0  0  2  0  0  0  0  0  0  0  0  0
   27.2502  -19.7877  -15.8364 N   0  0  0  0  0  0  0  0  0  0  0  0
   26.6989  -20.1118  -13.4935 C   0  0  0  0  0  0  0  0  0  0  0  0
   26.6904  -18.9025  -13.2291 O   0  0  0  0  0  0  0  0  0  0  0  0
   25.9697  -21.0196  -12.7130 N   0  0  0  0  0  0  0  0  0  0  0  0
   25.0810  -20.6325  -11.6346 C   0  0  1  0  0  0  0  0  0  0  0  0
   23.7209  -21.2059  -11.8330 C   0  0  0  0  0  0  0  0  0  0  0  0
   22.9682  -20.5078  -12.9054 C   0  0  0  0  0  0  0  0  0  0  0  0
   23.4470  -19.4372  -13.6660 C   0  0  0  0  0  0  0  0  0  0  0  0
   22.5078  -19.0553  -14.5386 N   0  0  0  0  0  0  0  0  0  0  0  0
   21.4524  -19.8509  -14.3523 C   0  0  0  0  0  0  0  0  0  0  0  0
   21.7237  -20.7264  -13.3713 N   0  0  0  0  0  0  0  0  0  0  0  0
   25.6566  -20.9897  -10.3075 C   0  0  0  0  0  0  0  0  0  0  0  0
   26.0316  -22.1756  -10.1249 O   0  0  0  0  0  0  0  0  0  0  0  0
   25.8022  -20.0600   -9.2420 N   0  0  0  0  0  0  0  0  0  0  0  0
   26.0496  -20.5353   -7.8999 C   0  0  1  0  0  0  0  0  0  0  0  0
   26.5411  -19.4300   -6.9909 C   0  0  0  0  0  0  0  0  0  0  0  0
   28.0949  -18.7201   -7.5236 S   0  0  0  0  0  0  0  0  0  0  0  0
   24.7799  -21.0266   -7.3405 C   0  0  0  0  0  0  0  0  0  0  0  0
   23.7129  -20.8469   -7.9533 O   0  0  0  0  0  0  0  0  0  0  0  0
   24.7718  -21.6885   -6.1334 O   0  0  0  0  0  0  0  0  0  0  0  0
  2  1  1  1
  2  3  1  0
  2  4  1  0
  4  5  2  0
  6  4  1  0
  6  7  1  0
  7 14  1  0
  7  8  1  6
  9 13  1  0
  9  8  1  0
 10  9  2  0
 11 10  1  0
 11 12  1  0
 12 13  2  0
 14 16  1  0
 14 15  2  0
 16 17  1  0
 17 20  1  0
 17 18  1  1
 19 18  1  0
 20 21  2  0
 20 22  1  0
M  END
$$$$
