AHC.pdb
     RDKit          3D

 22 22  0  0  1  0  0  0  0  0999 V2000
   11.6145  -11.7215  -10.0913 C   0  0  0  0  0  0  0  0  0  0  0  0
   12.7684  -12.1748  -10.9656 C   0  0  2  0  0  0  0  0  0  0  0  0
   12.9166  -13.6016  -10.7880 N   0  0  0  0  0  0  0  0  0  0  0  0
   14.0076  -11.4415  -10.5842 C   0  0  0  0  0  0  0  0  0  0  0  0
   15.0298  -12.0912  -10.3287 O   0  0  0  0  0  0  0  0  0  0  0  0
   14.0146  -10.0413  -10.5162 N   0  0  0  0  0  0  0  0  0  0  0  0
   15.2196   -9.2351  -10.5009 C   0  0  1  0  0  0  0  0  0  0  0  0
   16.1178   -9.5974  -11.6323 C   0  0  0  0  0  0  0  0  0  0  0  0
   17.3215   -8.7307  -11.6935 C   0  0  0  0  0  0  0  0  0  0  0  0
   18.4748   -8.8903  -10.9199 C   0  0  0  0  0  0  0  0  0  0  0  0
   19.3574   -7.9354  -11.2336 N   0  0  0  0  0  0  0  0  0  0  0  0
   18.7974   -7.1790  -12.1801 C   0  0  0  0  0  0  0  0  0  0  0  0
   17.5729   -7.6528  -12.4606 N   0  0  0  0  0  0  0  0  0  0  0  0
   14.8950   -7.7811  -10.4807 C   0  0  0  0  0  0  0  0  0  0  0  0
   14.1445   -7.3297  -11.3825 O   0  0  0  0  0  0  0  0  0  0  0  0
   15.3897   -6.8826   -9.4963 N   0  0  0  0  0  0  0  0  0  0  0  0
   14.9853   -5.4953   -9.5189 C   0  0  1  0  0  0  0  0  0  0  0  0
   14.6690   -4.9767   -8.1332 C   0  0  0  0  0  0  0  0  0  0  0  0
   13.3128   -5.8427   -7.3507 S   0  0  0  0  0  0  0  0  0  0  0  0
   16.1055   -4.6943  -10.0384 C   0  0  0  0  0  0  0  0  0  0  0  0
   17.2057   -5.2272  -10.2658 O   0  0  0  0  0  0  0  0  0  0  0  0
   15.9361   -3.3486  -10.2742 O   0  0  0  0  0  0  0  0  0  0  0  0
  2  1  1  1
  2  3  1  0
  2  4  1  0
  4  5  2  0
  6  4  1  0
  6  7  1  0
  7 14  1  0
  7  8  1  6
  9 13  1  0
  9  8  1  0
 10  9  2  0
 11 10  1  0
 11 12  1  0
 12 13  2  0
 14 16  1  0
 14 15  2  0
 16 17  1  0
 17 20  1  0
 17 18  1  1
 19 18  1  0
 20 21  2  0
 20 22  1  0
M  END
$$$$
