AHC.pdb
     RDKit          3D

 22 22  0  0  1  0  0  0  0  0999 V2000
   18.2992  -13.3573  -17.5329 C   0  0  0  0  0  0  0  0  0  0  0  0
   19.6089  -12.8675  -18.1212 C   0  0  2  0  0  0  0  0  0  0  0  0
   20.5631  -13.9490  -18.0237 N   0  0  0  0  0  0  0  0  0  0  0  0
   20.0711  -11.6583  -17.3843 C   0  0  0  0  0  0  0  0  0  0  0  0
   19.6711  -11.4763  -16.2272 O   0  0  0  0  0  0  0  0  0  0  0  0
   20.9432  -10.7440  -17.9915 N   0  0  0  0  0  0  0  0  0  0  0  0
   21.4260   -9.5352  -17.3527 C   0  0  1  0  0  0  0  0  0  0  0  0
   22.5699   -8.9534  -18.1084 C   0  0  0  0  0  0  0  0  0  0  0  0
   23.1621   -7.7812  -17.4162 C   0  0  0  0  0  0  0  0  0  0  0  0
   22.7886   -7.3123  -16.1534 C   0  0  0  0  0  0  0  0  0  0  0  0
   23.5267   -6.2419  -15.8393 N   0  0  0  0  0  0  0  0  0  0  0  0
   24.3534   -6.0210  -16.8636 C   0  0  0  0  0  0  0  0  0  0  0  0
   24.1385   -6.9438  -17.8149 N   0  0  0  0  0  0  0  0  0  0  0  0
   20.3230   -8.5535  -17.1534 C   0  0  0  0  0  0  0  0  0  0  0  0
   19.5794   -8.2919  -18.1327 O   0  0  0  0  0  0  0  0  0  0  0  0
   20.0706   -7.9008  -15.9160 N   0  0  0  0  0  0  0  0  0  0  0  0
   18.9255   -7.0295  -15.7815 C   0  0  1  0  0  0  0  0  0  0  0  0
   17.9672   -7.5167  -14.7167 C   0  0  0  0  0  0  0  0  0  0  0  0
   17.1674   -9.0595  -15.1431 S   0  0  0  0  0  0  0  0  0  0  0  0
   19.4007   -5.7004  -15.3643 C   0  0  0  0  0  0  0  0  0  0  0  0
   20.6018   -5.5181  -15.0991 O   0  0  0  0  0  0  0  0  0  0  0  0
   18.5126   -4.6531  -15.2667 O   0  0  0  0  0  0  0  0  0  0  0  0
  2  1  1  1
  2  3  1  0
  2  4  1  0
  4  5  2  0
  6  4  1  0
  6  7  1  0
  7 14  1  0
  7  8  1  6
  9 13  1  0
  9  8  1  0
 10  9  2  0
 11 10  1  0
 11 12  1  0
 12 13  2  0
 14 16  1  0
 14 15  2  0
 16 17  1  0
 17 20  1  0
 17 18  1  1
 19 18  1  0
 20 21  2  0
 20 22  1  0
M  END
$$$$
