AHC.pdb
     RDKit          3D

 22 22  0  0  1  0  0  0  0  0999 V2000
   21.6073  -16.6192  -17.3303 C   0  0  0  0  0  0  0  0  0  0  0  0
   21.2408  -15.2966  -17.9767 C   0  0  2  0  0  0  0  0  0  0  0  0
   21.8861  -15.2484  -19.2692 N   0  0  0  0  0  0  0  0  0  0  0  0
   21.6754  -14.1713  -17.1027 C   0  0  0  0  0  0  0  0  0  0  0  0
   21.2326  -14.1075  -15.9487 O   0  0  0  0  0  0  0  0  0  0  0  0
   22.5698  -13.2030  -17.5800 N   0  0  0  0  0  0  0  0  0  0  0  0
   23.0808  -12.1059  -16.7816 C   0  0  1  0  0  0  0  0  0  0  0  0
   24.5436  -11.9265  -16.9966 C   0  0  0  0  0  0  0  0  0  0  0  0
   25.3262  -13.1043  -16.5447 C   0  0  0  0  0  0  0  0  0  0  0  0
   25.3037  -13.6459  -15.2562 C   0  0  0  0  0  0  0  0  0  0  0  0
   26.1266  -14.6990  -15.2011 N   0  0  0  0  0  0  0  0  0  0  0  0
   26.6671  -14.8386  -16.4135 C   0  0  0  0  0  0  0  0  0  0  0  0
   26.1893  -13.8821  -17.2256 N   0  0  0  0  0  0  0  0  0  0  0  0
   22.3149  -10.8531  -17.0342 C   0  0  0  0  0  0  0  0  0  0  0  0
   22.1036  -10.5189  -18.2275 O   0  0  0  0  0  0  0  0  0  0  0  0
   21.8133  -10.0202  -15.9971 N   0  0  0  0  0  0  0  0  0  0  0  0
   21.0571   -8.8340  -16.3280 C   0  0  1  0  0  0  0  0  0  0  0  0
   19.5831   -9.0026  -16.0303 C   0  0  0  0  0  0  0  0  0  0  0  0
   18.6710   -7.4648  -16.1010 S   0  0  0  0  0  0  0  0  0  0  0  0
   21.5457   -7.7247  -15.4930 C   0  0  0  0  0  0  0  0  0  0  0  0
   21.9153   -7.9344  -14.3244 O   0  0  0  0  0  0  0  0  0  0  0  0
   21.5944   -6.4484  -16.0067 O   0  0  0  0  0  0  0  0  0  0  0  0
  2  1  1  1
  2  3  1  0
  2  4  1  0
  4  5  2  0
  6  4  1  0
  6  7  1  0
  7 14  1  0
  7  8  1  6
  9 13  1  0
  9  8  1  0
 10  9  2  0
 11 10  1  0
 11 12  1  0
 12 13  2  0
 14 16  1  0
 14 15  2  0
 16 17  1  0
 17 20  1  0
 17 18  1  1
 19 18  1  0
 20 21  2  0
 20 22  1  0
M  END
$$$$
