AHC.pdb
     RDKit          3D

 22 22  0  0  1  0  0  0  0  0999 V2000
   23.9850  -11.3887  -21.0000 C   0  0  0  0  0  0  0  0  0  0  0  0
   24.4946  -10.5338  -19.8550 C   0  0  2  0  0  0  0  0  0  0  0  0
   25.2637  -11.3894  -18.9798 N   0  0  0  0  0  0  0  0  0  0  0  0
   23.3452   -9.9092  -19.1425 C   0  0  0  0  0  0  0  0  0  0  0  0
   22.6801   -9.0446  -19.7275 O   0  0  0  0  0  0  0  0  0  0  0  0
   23.0240  -10.2945  -17.8335 N   0  0  0  0  0  0  0  0  0  0  0  0
   21.9365   -9.7238  -17.0628 C   0  0  1  0  0  0  0  0  0  0  0  0
   21.1863  -10.7839  -16.3337 C   0  0  0  0  0  0  0  0  0  0  0  0
   20.0205  -10.2388  -15.5937 C   0  0  0  0  0  0  0  0  0  0  0  0
   19.6411   -8.8939  -15.5568 C   0  0  0  0  0  0  0  0  0  0  0  0
   18.5481   -8.7599  -14.7975 N   0  0  0  0  0  0  0  0  0  0  0  0
   18.2263   -9.9772  -14.3545 C   0  0  0  0  0  0  0  0  0  0  0  0
   19.1085  -10.8705  -14.8303 N   0  0  0  0  0  0  0  0  0  0  0  0
   22.4261   -8.6507  -16.1526 C   0  0  0  0  0  0  0  0  0  0  0  0
   23.2979   -8.9514  -15.2982 O   0  0  0  0  0  0  0  0  0  0  0  0
   21.9585   -7.3091  -16.2020 N   0  0  0  0  0  0  0  0  0  0  0  0
   22.6130   -6.2886  -15.4153 C   0  0  1  0  0  0  0  0  0  0  0  0
   22.8351   -5.0196  -16.2088 C   0  0  0  0  0  0  0  0  0  0  0  0
   23.9493   -5.2405  -17.5913 S   0  0  0  0  0  0  0  0  0  0  0  0
   21.7393   -5.9458  -14.2815 C   0  0  0  0  0  0  0  0  0  0  0  0
   20.5465   -6.2970  -14.2798 O   0  0  0  0  0  0  0  0  0  0  0  0
   22.2434   -5.2329  -13.2171 O   0  0  0  0  0  0  0  0  0  0  0  0
  2  1  1  6
  2  3  1  0
  2  4  1  0
  4  5  2  0
  6  4  1  0
  6  7  1  0
  7 14  1  0
  7  8  1  1
  9 13  1  0
  9  8  1  0
 10  9  2  0
 11 10  1  0
 11 12  1  0
 12 13  2  0
 14 16  1  0
 14 15  2  0
 16 17  1  0
 17 20  1  0
 17 18  1  6
 19 18  1  0
 20 21  2  0
 20 22  1  0
M  END
$$$$
