KTN.pdb
     RDKit          3D

 25 24  0  0  1  0  0  0  0  0999 V2000
   27.6978  -22.0533  -11.6140 N   0  0  0  0  0  0  0  0  0  0  0  0
   28.0826  -20.6793  -11.5749 C   0  0  1  0  0  0  0  0  0  0  0  0
   29.5118  -20.3842  -11.8948 C   0  0  0  0  0  0  0  0  0  0  0  0
   30.4789  -20.8159  -10.8710 C   0  0  0  0  0  0  0  0  0  0  0  0
   31.2540  -22.0205  -11.2568 C   0  0  0  0  0  0  0  0  0  0  0  0
   32.1547  -22.4361  -10.1239 C   0  0  0  0  0  0  0  0  0  0  0  0
   32.8693  -23.6297  -10.5937 N   0  0  0  0  0  0  0  0  0  0  0  0
   27.1578  -19.8311  -12.4143 C   0  0  0  0  0  0  0  0  0  0  0  0
   27.3242  -18.5894  -12.4972 O   0  0  0  0  0  0  0  0  0  0  0  0
   27.3579  -18.9306  -15.2919 C   0  0  0  0  0  0  0  0  0  0  0  0
   25.9835  -19.5504  -15.3784 C   0  0  1  0  0  0  0  0  0  0  0  0
   26.1862  -20.8477  -15.8673 O   0  0  0  0  0  0  0  0  0  0  0  0
   25.2966  -19.5913  -14.0281 C   0  0  2  0  0  0  0  0  0  0  0  0
   26.0879  -20.4427  -13.1182 N   0  0  0  0  0  0  0  0  0  0  0  0
   23.9551  -20.2212  -14.0661 C   0  0  0  0  0  0  0  0  0  0  0  0
   23.7276  -21.2865  -13.3806 O   0  0  0  0  0  0  0  0  0  0  0  0
   20.6119  -22.7658  -13.6518 N   0  0  0  0  0  0  0  0  0  0  0  0
   20.5401  -21.6636  -12.7593 C   0  0  0  0  0  0  0  0  0  0  0  0
   20.0359  -21.8668  -11.6306 O   0  0  0  0  0  0  0  0  0  0  0  0
   21.0632  -20.3677  -13.2283 C   0  0  0  0  0  0  0  0  0  0  0  0
   21.5314  -20.3893  -14.6508 C   0  0  2  0  0  0  0  0  0  0  0  0
   22.8462  -19.7579  -14.8048 N   0  0  0  0  0  0  0  0  0  0  0  0
   20.5460  -19.7236  -15.5666 C   0  0  0  0  0  0  0  0  0  0  0  0
   20.8404  -18.5620  -16.2388 O   0  0  0  0  0  0  0  0  0  0  0  0
   19.4052  -20.2291  -15.7395 O   0  0  0  0  0  0  0  0  0  0  0  0
  2  1  1  6
  3  2  1  0
  4  3  1  0
  4  5  1  0
  5  6  1  0
  6  7  1  0
  8  2  1  0
  8  9  2  0
 11 10  1  1
 11 13  1  0
 12 11  1  0
 13 14  1  1
 14  8  1  0
 15 13  1  0
 16 15  2  0
 18 17  1  0
 19 18  2  0
 20 18  1  0
 21 20  1  1
 21 22  1  0
 21 23  1  0
 22 15  1  0
 23 24  1  0
 25 23  2  0
M  END
$$$$
