KTN.pdb
     RDKit          3D

 25 24  0  0  1  0  0  0  0  0999 V2000
   20.3483  -13.2993  -17.1745 N   0  0  0  0  0  0  0  0  0  0  0  0
   19.9545  -11.9282  -17.1236 C   0  0  1  0  0  0  0  0  0  0  0  0
   18.4843  -11.6631  -17.1134 C   0  0  0  0  0  0  0  0  0  0  0  0
   17.7226  -12.3485  -18.1716 C   0  0  0  0  0  0  0  0  0  0  0  0
   17.0480  -13.5867  -17.7107 C   0  0  0  0  0  0  0  0  0  0  0  0
   16.2390  -14.1792  -18.8341 C   0  0  0  0  0  0  0  0  0  0  0  0
   15.1294  -13.2464  -19.0678 N   0  0  0  0  0  0  0  0  0  0  0  0
   20.6386  -11.2073  -15.9872 C   0  0  0  0  0  0  0  0  0  0  0  0
   20.4682  -11.5751  -14.7989 O   0  0  0  0  0  0  0  0  0  0  0  0
   23.8595  -11.2021  -14.8816 C   0  0  0  0  0  0  0  0  0  0  0  0
   23.5947   -9.7334  -15.1125 C   0  0  1  0  0  0  0  0  0  0  0  0
   24.1611   -9.4408  -16.3602 O   0  0  0  0  0  0  0  0  0  0  0  0
   22.1118   -9.4204  -15.1141 C   0  0  2  0  0  0  0  0  0  0  0  0
   21.4839  -10.1013  -16.2634 N   0  0  0  0  0  0  0  0  0  0  0  0
   21.8112   -7.9827  -15.3146 C   0  0  0  0  0  0  0  0  0  0  0  0
   21.2533   -7.5907  -16.4061 O   0  0  0  0  0  0  0  0  0  0  0  0
   18.9210   -3.3471  -14.6306 N   0  0  0  0  0  0  0  0  0  0  0  0
   19.9892   -3.9448  -15.3506 C   0  0  0  0  0  0  0  0  0  0  0  0
   20.5700   -3.2426  -16.2102 O   0  0  0  0  0  0  0  0  0  0  0  0
   20.3319   -5.3427  -15.0319 C   0  0  0  0  0  0  0  0  0  0  0  0
   21.7855   -5.5515  -14.7371 C   0  0  2  0  0  0  0  0  0  0  0  0
   22.0804   -6.9470  -14.3954 N   0  0  0  0  0  0  0  0  0  0  0  0
   22.2589   -4.6544  -13.6308 C   0  0  0  0  0  0  0  0  0  0  0  0
   22.5171   -3.3198  -13.8304 O   0  0  0  0  0  0  0  0  0  0  0  0
   22.4321   -5.1192  -12.4728 O   0  0  0  0  0  0  0  0  0  0  0  0
  2  1  1  1
  3  2  1  0
  4  3  1  0
  4  5  1  0
  5  6  1  0
  6  7  1  0
  8  2  1  0
  8  9  2  0
 11 10  1  6
 11 13  1  0
 12 11  1  0
 13 14  1  6
 14  8  1  0
 15 13  1  0
 16 15  2  0
 18 17  1  0
 19 18  2  0
 20 18  1  0
 21 20  1  1
 21 22  1  0
 21 23  1  0
 22 15  1  0
 23 24  1  0
 25 23  2  0
M  END
$$$$
