KTN.pdb
     RDKit          3D

 25 24  0  0  1  0  0  0  0  0999 V2000
   25.8827  -22.9976  -15.6099 N   0  0  0  0  0  0  0  0  0  0  0  0
   26.3149  -21.6461  -15.4541 C   0  0  1  0  0  0  0  0  0  0  0  0
   26.9533  -21.0149  -16.6482 C   0  0  0  0  0  0  0  0  0  0  0  0
   27.6560  -21.9501  -17.5435 C   0  0  0  0  0  0  0  0  0  0  0  0
   28.9553  -22.4234  -17.0064 C   0  0  0  0  0  0  0  0  0  0  0  0
   29.6002  -23.3708  -17.9831 C   0  0  0  0  0  0  0  0  0  0  0  0
   30.8858  -23.7530  -17.3855 N   0  0  0  0  0  0  0  0  0  0  0  0
   25.2029  -20.7777  -14.9171 C   0  0  0  0  0  0  0  0  0  0  0  0
   25.3086  -19.5266  -14.9174 O   0  0  0  0  0  0  0  0  0  0  0  0
   23.5729  -18.6971  -15.5145 C   0  0  0  0  0  0  0  0  0  0  0  0
   22.4806  -19.5892  -14.9745 C   0  0  1  0  0  0  0  0  0  0  0  0
   22.0459  -20.3536  -16.0653 O   0  0  0  0  0  0  0  0  0  0  0  0
   22.9832  -20.4868  -13.8616 C   0  0  2  0  0  0  0  0  0  0  0  0
   24.0244  -21.3806  -14.4057 N   0  0  0  0  0  0  0  0  0  0  0  0
   21.9453  -21.3976  -13.3224 C   0  0  0  0  0  0  0  0  0  0  0  0
   22.2851  -22.5392  -12.8349 O   0  0  0  0  0  0  0  0  0  0  0  0
   18.1225  -23.9890  -11.3985 N   0  0  0  0  0  0  0  0  0  0  0  0
   18.6881  -22.9861  -10.5673 C   0  0  0  0  0  0  0  0  0  0  0  0
   18.4551  -23.0559   -9.3384 O   0  0  0  0  0  0  0  0  0  0  0  0
   19.5043  -21.9420  -11.2129 C   0  0  0  0  0  0  0  0  0  0  0  0
   19.6349  -22.1137  -12.6951 C   0  0  2  0  0  0  0  0  0  0  0  0
   20.5595  -21.1374  -13.2806 N   0  0  0  0  0  0  0  0  0  0  0  0
   18.3036  -22.0167  -13.3815 C   0  0  0  0  0  0  0  0  0  0  0  0
   17.4618  -23.0959  -13.5020 O   0  0  0  0  0  0  0  0  0  0  0  0
   17.9252  -20.9193  -13.8708 O   0  0  0  0  0  0  0  0  0  0  0  0
  2  1  1  6
  3  2  1  0
  4  3  1  0
  4  5  1  0
  5  6  1  0
  6  7  1  0
  8  2  1  0
  8  9  2  0
 11 10  1  6
 11 13  1  0
 12 11  1  0
 13 14  1  6
 14  8  1  0
 15 13  1  0
 16 15  2  0
 18 17  1  0
 19 18  2  0
 20 18  1  0
 21 20  1  1
 21 22  1  0
 21 23  1  0
 22 15  1  0
 23 24  1  0
 25 23  2  0
M  END
$$$$
