KTN.pdb
     RDKit          3D

 25 24  0  0  1  0  0  0  0  0999 V2000
   23.7436  -19.8098  -16.7617 N   0  0  0  0  0  0  0  0  0  0  0  0
   24.4104  -19.7323  -15.5020 C   0  0  1  0  0  0  0  0  0  0  0  0
   25.6771  -20.5143  -15.3759 C   0  0  0  0  0  0  0  0  0  0  0  0
   25.8699  -21.5534  -16.4021 C   0  0  0  0  0  0  0  0  0  0  0  0
   27.2363  -22.1309  -16.4130 C   0  0  0  0  0  0  0  0  0  0  0  0
   27.3620  -23.1310  -17.5317 C   0  0  0  0  0  0  0  0  0  0  0  0
   28.7348  -23.6471  -17.4590 N   0  0  0  0  0  0  0  0  0  0  0  0
   24.6213  -18.2967  -15.0853 C   0  0  0  0  0  0  0  0  0  0  0  0
   25.0237  -18.0165  -13.9294 O   0  0  0  0  0  0  0  0  0  0  0  0
   27.0476  -15.9928  -15.2510 C   0  0  0  0  0  0  0  0  0  0  0  0
   25.9103  -15.3751  -16.0291 C   0  0  1  0  0  0  0  0  0  0  0  0
   26.1189  -15.7515  -17.3625 O   0  0  0  0  0  0  0  0  0  0  0  0
   24.5613  -15.8650  -15.5421 C   0  0  2  0  0  0  0  0  0  0  0  0
   24.3624  -17.2511  -16.0091 N   0  0  0  0  0  0  0  0  0  0  0  0
   23.4185  -15.1072  -16.1056 C   0  0  0  0  0  0  0  0  0  0  0  0
   22.2551  -15.6541  -16.1678 O   0  0  0  0  0  0  0  0  0  0  0  0
   19.9204  -11.8149  -17.6833 N   0  0  0  0  0  0  0  0  0  0  0  0
   20.0069  -12.2856  -16.3463 C   0  0  0  0  0  0  0  0  0  0  0  0
   19.0192  -12.0906  -15.6008 O   0  0  0  0  0  0  0  0  0  0  0  0
   21.2495  -12.9661  -15.9391 C   0  0  0  0  0  0  0  0  0  0  0  0
   22.2441  -13.1135  -17.0493 C   0  0  2  0  0  0  0  0  0  0  0  0
   23.4676  -13.7881  -16.6031 N   0  0  0  0  0  0  0  0  0  0  0  0
   22.5966  -11.7860  -17.6547 C   0  0  0  0  0  0  0  0  0  0  0  0
   21.8556  -11.2224  -18.6651 O   0  0  0  0  0  0  0  0  0  0  0  0
   23.6010  -11.1500  -17.2379 O   0  0  0  0  0  0  0  0  0  0  0  0
  2  1  1  6
  3  2  1  0
  4  3  1  0
  4  5  1  0
  5  6  1  0
  6  7  1  0
  8  2  1  0
  8  9  2  0
 11 10  1  1
 11 13  1  0
 12 11  1  0
 13 14  1  6
 14  8  1  0
 15 13  1  0
 16 15  2  0
 18 17  1  0
 19 18  2  0
 20 18  1  0
 21 20  1  1
 21 22  1  0
 21 23  1  0
 22 15  1  0
 23 24  1  0
 25 23  2  0
M  END
$$$$
