KTN.pdb
     RDKit          3D

 25 24  0  0  1  0  0  0  0  0999 V2000
   20.2733  -17.1842  -17.8040 N   0  0  0  0  0  0  0  0  0  0  0  0
   20.2554  -17.1941  -19.2313 C   0  0  1  0  0  0  0  0  0  0  0  0
   19.7258  -18.4330  -19.8767 C   0  0  0  0  0  0  0  0  0  0  0  0
   20.5281  -19.6461  -19.6432 C   0  0  0  0  0  0  0  0  0  0  0  0
   19.7754  -20.7366  -18.9762 C   0  0  0  0  0  0  0  0  0  0  0  0
   20.6551  -21.9492  -18.8241 C   0  0  0  0  0  0  0  0  0  0  0  0
   20.5888  -22.3203  -17.4049 N   0  0  0  0  0  0  0  0  0  0  0  0
   19.5643  -15.9672  -19.7753 C   0  0  0  0  0  0  0  0  0  0  0  0
   19.3922  -15.8222  -21.0105 O   0  0  0  0  0  0  0  0  0  0  0  0
   16.1117  -14.9244  -19.2865 C   0  0  0  0  0  0  0  0  0  0  0  0
   16.9816  -13.7777  -18.8295 C   0  0  1  0  0  0  0  0  0  0  0  0
   17.0712  -13.9054  -17.4371 O   0  0  0  0  0  0  0  0  0  0  0  0
   18.3594  -13.8285  -19.4587 C   0  0  2  0  0  0  0  0  0  0  0  0
   19.1034  -14.9654  -18.8819 N   0  0  0  0  0  0  0  0  0  0  0  0
   19.1911  -12.6389  -19.1576 C   0  0  0  0  0  0  0  0  0  0  0  0
   20.1295  -12.7185  -18.2803 O   0  0  0  0  0  0  0  0  0  0  0  0
   21.5116   -8.1304  -18.6659 N   0  0  0  0  0  0  0  0  0  0  0  0
   21.3331   -8.3599  -20.0558 C   0  0  0  0  0  0  0  0  0  0  0  0
   21.8629   -7.5467  -20.8479 O   0  0  0  0  0  0  0  0  0  0  0  0
   20.5397   -9.5350  -20.4592 C   0  0  0  0  0  0  0  0  0  0  0  0
   19.8933  -10.2455  -19.3100 C   0  0  2  0  0  0  0  0  0  0  0  0
   19.0626  -11.3685  -19.7572 N   0  0  0  0  0  0  0  0  0  0  0  0
   19.0651   -9.3102  -18.4780 C   0  0  0  0  0  0  0  0  0  0  0  0
   19.5436   -8.7383  -17.3241 O   0  0  0  0  0  0  0  0  0  0  0  0
   17.8895   -9.0262  -18.8305 O   0  0  0  0  0  0  0  0  0  0  0  0
  2  1  1  1
  3  2  1  0
  4  3  1  0
  4  5  1  0
  5  6  1  0
  6  7  1  0
  8  2  1  0
  8  9  2  0
 11 10  1  6
 11 13  1  0
 12 11  1  0
 13 14  1  1
 14  8  1  0
 15 13  1  0
 16 15  2  0
 18 17  1  0
 19 18  2  0
 20 18  1  0
 21 20  1  6
 21 22  1  0
 21 23  1  0
 22 15  1  0
 23 24  1  0
 25 23  2  0
M  END
$$$$
