KTN.pdb
     RDKit          3D

 25 24  0  0  1  0  0  0  0  0999 V2000
   28.7312  -21.6870  -15.8051 N   0  0  0  0  0  0  0  0  0  0  0  0
   27.8761  -20.6805  -15.2635 C   0  0  1  0  0  0  0  0  0  0  0  0
   27.5169  -19.5562  -16.1793 C   0  0  0  0  0  0  0  0  0  0  0  0
   28.4289  -19.3697  -17.3209 C   0  0  0  0  0  0  0  0  0  0  0  0
   28.0593  -18.2307  -18.1965 C   0  0  0  0  0  0  0  0  0  0  0  0
   29.0619  -18.0938  -19.3116 C   0  0  0  0  0  0  0  0  0  0  0  0
   28.6489  -16.9145  -20.0829 N   0  0  0  0  0  0  0  0  0  0  0  0
   26.6389  -21.2901  -14.6498 C   0  0  0  0  0  0  0  0  0  0  0  0
   26.2276  -22.4172  -15.0199 O   0  0  0  0  0  0  0  0  0  0  0  0
   26.3764  -22.0050  -11.1786 C   0  0  0  0  0  0  0  0  0  0  0  0
   25.0643  -21.3285  -11.4969 C   0  0  1  0  0  0  0  0  0  0  0  0
   25.1704  -20.0351  -10.9687 O   0  0  0  0  0  0  0  0  0  0  0  0
   24.8040  -21.2749  -12.9889 C   0  0  2  0  0  0  0  0  0  0  0  0
   25.9315  -20.5826  -13.6433 N   0  0  0  0  0  0  0  0  0  0  0  0
   23.6076  -20.4783  -13.3520 C   0  0  0  0  0  0  0  0  0  0  0  0
   23.7450  -19.2661  -13.7620 O   0  0  0  0  0  0  0  0  0  0  0  0
   20.3960  -17.4198  -15.6186 N   0  0  0  0  0  0  0  0  0  0  0  0
   20.2748  -18.8302  -15.7317 C   0  0  0  0  0  0  0  0  0  0  0  0
   19.2395  -19.2787  -16.2762 O   0  0  0  0  0  0  0  0  0  0  0  0
   21.3740  -19.6566  -15.2008 C   0  0  0  0  0  0  0  0  0  0  0  0
   21.1787  -20.0699  -13.7745 C   0  0  2  0  0  0  0  0  0  0  0  0
   22.2706  -20.9249  -13.2972 N   0  0  0  0  0  0  0  0  0  0  0  0
   19.8683  -20.7750  -13.5784 C   0  0  0  0  0  0  0  0  0  0  0  0
   18.7278  -20.1085  -13.2007 O   0  0  0  0  0  0  0  0  0  0  0  0
   19.7884  -22.0189  -13.7607 O   0  0  0  0  0  0  0  0  0  0  0  0
  2  1  1  6
  3  2  1  0
  4  3  1  0
  4  5  1  0
  5  6  1  0
  6  7  1  0
  8  2  1  0
  8  9  2  0
 11 10  1  6
 11 13  1  0
 12 11  1  0
 13 14  1  6
 14  8  1  0
 15 13  1  0
 16 15  2  0
 18 17  1  0
 19 18  2  0
 20 18  1  0
 21 20  1  6
 21 22  1  0
 21 23  1  0
 22 15  1  0
 23 24  1  0
 25 23  2  0
M  END
$$$$
