KTN.pdb
     RDKit          3D

 25 24  0  0  1  0  0  0  0  0999 V2000
   17.2296  -26.4420   -2.2041 N   0  0  0  0  0  0  0  0  0  0  0  0
   16.6652  -25.9017   -3.3987 C   0  0  1  0  0  0  0  0  0  0  0  0
   16.0413  -24.5493   -3.2815 C   0  0  0  0  0  0  0  0  0  0  0  0
   15.1674  -24.3682   -2.1097 C   0  0  0  0  0  0  0  0  0  0  0  0
   14.7135  -22.9690   -1.9179 C   0  0  0  0  0  0  0  0  0  0  0  0
   13.8856  -22.8649   -0.6645 C   0  0  0  0  0  0  0  0  0  0  0  0
   13.5880  -21.4370   -0.4949 N   0  0  0  0  0  0  0  0  0  0  0  0
   17.6584  -25.9388   -4.5350 C   0  0  0  0  0  0  0  0  0  0  0  0
   18.8921  -25.9891   -4.3076 O   0  0  0  0  0  0  0  0  0  0  0  0
   18.4299  -28.5611   -6.7665 C   0  0  0  0  0  0  0  0  0  0  0  0
   17.9794  -27.4070   -7.6300 C   0  0  1  0  0  0  0  0  0  0  0  0
   16.6151  -27.6230   -7.8645 O   0  0  0  0  0  0  0  0  0  0  0  0
   18.1977  -26.0719   -6.9469 C   0  0  2  0  0  0  0  0  0  0  0  0
   17.1939  -25.9166   -5.8758 N   0  0  0  0  0  0  0  0  0  0  0  0
   17.9824  -24.9085   -7.8402 C   0  0  0  0  0  0  0  0  0  0  0  0
   17.0219  -24.0859   -7.6009 O   0  0  0  0  0  0  0  0  0  0  0  0
   19.7519  -20.6292  -11.2466 N   0  0  0  0  0  0  0  0  0  0  0  0
   19.2297  -21.9025  -11.5967 C   0  0  0  0  0  0  0  0  0  0  0  0
   18.5340  -21.9752  -12.6359 O   0  0  0  0  0  0  0  0  0  0  0  0
   19.5458  -23.0388  -10.7123 C   0  0  0  0  0  0  0  0  0  0  0  0
   18.4241  -23.4134   -9.7931 C   0  0  2  0  0  0  0  0  0  0  0  0
   18.7528  -24.5870   -8.9772 N   0  0  0  0  0  0  0  0  0  0  0  0
   17.1528  -23.6691  -10.5490 C   0  0  0  0  0  0  0  0  0  0  0  0
   16.2396  -22.6746  -10.8031 O   0  0  0  0  0  0  0  0  0  0  0  0
   16.8941  -24.8266  -10.9738 O   0  0  0  0  0  0  0  0  0  0  0  0
  2  1  1  1
  3  2  1  0
  4  3  1  0
  4  5  1  0
  5  6  1  0
  6  7  1  0
  8  2  1  0
  8  9  2  0
 11 10  1  1
 11 13  1  0
 12 11  1  0
 13 14  1  1
 14  8  1  0
 15 13  1  0
 16 15  2  0
 18 17  1  0
 19 18  2  0
 20 18  1  0
 21 20  1  6
 21 22  1  0
 21 23  1  0
 22 15  1  0
 23 24  1  0
 25 23  2  0
M  END
$$$$
