KTN.pdb
     RDKit          3D

 25 24  0  0  1  0  0  0  0  0999 V2000
   23.4882  -17.4234  -18.1722 N   0  0  0  0  0  0  0  0  0  0  0  0
   22.3159  -17.0745  -17.4362 C   0  0  1  0  0  0  0  0  0  0  0  0
   21.6450  -18.1859  -16.6969 C   0  0  0  0  0  0  0  0  0  0  0  0
   21.6269  -19.4788  -17.4025 C   0  0  0  0  0  0  0  0  0  0  0  0
   22.9668  -19.9276  -17.8543 C   0  0  0  0  0  0  0  0  0  0  0  0
   22.8711  -21.3041  -18.4569 C   0  0  0  0  0  0  0  0  0  0  0  0
   22.6721  -22.2248  -17.3304 N   0  0  0  0  0  0  0  0  0  0  0  0
   22.5761  -15.9013  -16.5225 C   0  0  0  0  0  0  0  0  0  0  0  0
   21.8488  -15.6949  -15.5201 O   0  0  0  0  0  0  0  0  0  0  0  0
   25.9708  -15.1354  -14.9937 C   0  0  0  0  0  0  0  0  0  0  0  0
   25.4200  -13.8626  -15.5912 C   0  0  1  0  0  0  0  0  0  0  0  0
   26.0963  -13.6944  -16.8066 O   0  0  0  0  0  0  0  0  0  0  0  0
   23.9244  -13.9478  -15.8212 C   0  0  2  0  0  0  0  0  0  0  0  0
   23.6544  -15.0209  -16.7982 N   0  0  0  0  0  0  0  0  0  0  0  0
   23.3496  -12.7254  -16.4318 C   0  0  0  0  0  0  0  0  0  0  0  0
   23.1779  -12.6654  -17.7060 O   0  0  0  0  0  0  0  0  0  0  0  0
   20.9985   -8.4339  -17.7426 N   0  0  0  0  0  0  0  0  0  0  0  0
   20.4121   -9.7229  -17.8486 C   0  0  0  0  0  0  0  0  0  0  0  0
   19.3411   -9.8186  -18.4914 O   0  0  0  0  0  0  0  0  0  0  0  0
   21.1070  -10.8470  -17.1956 C   0  0  0  0  0  0  0  0  0  0  0  0
   22.3421  -10.4387  -16.4532 C   0  0  2  0  0  0  0  0  0  0  0  0
   22.9485  -11.5655  -15.7365 N   0  0  0  0  0  0  0  0  0  0  0  0
   22.0630   -9.3234  -15.4882 C   0  0  0  0  0  0  0  0  0  0  0  0
   21.5790   -8.1046  -15.8983 O   0  0  0  0  0  0  0  0  0  0  0  0
   22.2720   -9.4882  -14.2569 O   0  0  0  0  0  0  0  0  0  0  0  0
  2  1  1  1
  3  2  1  0
  4  3  1  0
  4  5  1  0
  5  6  1  0
  6  7  1  0
  8  2  1  0
  8  9  2  0
 11 10  1  6
 11 13  1  0
 12 11  1  0
 13 14  1  6
 14  8  1  0
 15 13  1  0
 16 15  2  0
 18 17  1  0
 19 18  2  0
 20 18  1  0
 21 20  1  1
 21 22  1  0
 21 23  1  0
 22 15  1  0
 23 24  1  0
 25 23  2  0
M  END
$$$$
