TKH.pdb
     RDKit          3D

 27 27  0  0  1  0  0  0  0  0999 V2000
   44.0414   -9.7934   -2.1887 C   0  0  0  0  0  0  0  0  0  0  0  0
   43.7037   -9.8601   -3.6515 C   0  0  1  0  0  0  0  0  0  0  0  0
   43.1572   -8.6763   -4.1209 O   0  0  0  0  0  0  0  0  0  0  0  0
   44.9568  -10.2266   -4.4602 C   0  0  2  0  0  0  0  0  0  0  0  0
   45.9477   -9.1763   -4.2919 N   0  0  0  0  0  0  0  0  0  0  0  0
   44.5455  -10.2097   -5.8830 C   0  0  0  0  0  0  0  0  0  0  0  0
   44.9601   -9.2506   -6.5883 O   0  0  0  0  0  0  0  0  0  0  0  0
   43.7379  -11.1748   -6.4892 N   0  0  0  0  0  0  0  0  0  0  0  0
   43.3805  -11.1680   -7.9173 C   0  0  1  0  0  0  0  0  0  0  0  0
   43.6490  -12.5180   -8.4974 C   0  0  0  0  0  0  0  0  0  0  0  0
   43.2187  -12.7439   -9.8871 C   0  0  0  0  0  0  0  0  0  0  0  0
   43.6480  -14.0752  -10.4705 C   0  0  0  0  0  0  0  0  0  0  0  0
   43.1006  -14.2162  -11.8984 C   0  0  0  0  0  0  0  0  0  0  0  0
   43.4174  -15.5075  -12.4425 N   0  0  0  0  0  0  0  0  0  0  0  0
   41.9793  -10.7069   -8.0214 C   0  0  0  0  0  0  0  0  0  0  0  0
   41.1368  -11.2058   -7.2012 O   0  0  0  0  0  0  0  0  0  0  0  0
   41.4832   -9.7741   -8.9296 N   0  0  0  0  0  0  0  0  0  0  0  0
   40.1305   -9.2160   -8.8598 C   0  0  1  0  0  0  0  0  0  0  0  0
   39.8091   -8.7168   -7.5032 C   0  0  0  0  0  0  0  0  0  0  0  0
   38.4467   -8.1481   -7.4632 C   0  0  0  0  0  0  0  0  0  0  0  0
   37.2088   -8.7683   -7.3893 C   0  0  0  0  0  0  0  0  0  0  0  0
   36.2185   -7.8600   -7.4017 N   0  0  0  0  0  0  0  0  0  0  0  0
   36.8128   -6.6748   -7.4825 C   0  0  0  0  0  0  0  0  0  0  0  0
   38.1451   -6.8170   -7.5208 N   0  0  0  0  0  0  0  0  0  0  0  0
   39.9755   -8.2019   -9.9102 C   0  0  0  0  0  0  0  0  0  0  0  0
   38.7801   -8.0372  -10.6044 O   0  0  0  0  0  0  0  0  0  0  0  0
   40.9261   -7.4554  -10.2072 O   0  0  0  0  0  0  0  0  0  0  0  0
  2  3  1  0
  2  1  1  1
  4  2  1  0
  4  5  1  6
  6  4  1  0
  6  7  2  0
  8  6  1  0
  9 10  1  1
  9  8  1  0
 11 10  1  0
 11 12  1  0
 13 12  1  0
 13 14  1  0
 15  9  1  0
 16 15  2  0
 17 15  1  0
 18 17  1  0
 18 19  1  1
 19 20  1  0
 20 21  2  0
 21 22  1  0
 23 22  1  0
 24 20  1  0
 24 23  2  0
 25 26  1  0
 25 18  1  0
 27 25  2  0
M  END
$$$$
