TKH.pdb
     RDKit          3D

 27 27  0  0  1  0  0  0  0  0999 V2000
   23.5064  -19.7652  -20.5571 C   0  0  0  0  0  0  0  0  0  0  0  0
   24.8798  -19.6266  -19.9632 C   0  0  1  0  0  0  0  0  0  0  0  0
   25.6656  -20.7463  -20.1851 O   0  0  0  0  0  0  0  0  0  0  0  0
   25.5670  -18.3730  -20.5243 C   0  0  2  0  0  0  0  0  0  0  0  0
   26.9226  -18.3079  -20.0032 N   0  0  0  0  0  0  0  0  0  0  0  0
   24.8314  -17.2165  -19.9628 C   0  0  0  0  0  0  0  0  0  0  0  0
   24.9143  -17.0338  -18.7182 O   0  0  0  0  0  0  0  0  0  0  0  0
   24.0603  -16.3244  -20.7116 N   0  0  0  0  0  0  0  0  0  0  0  0
   23.1980  -15.2876  -20.1212 C   0  0  1  0  0  0  0  0  0  0  0  0
   22.9176  -14.2390  -21.1474 C   0  0  0  0  0  0  0  0  0  0  0  0
   21.9276  -13.2082  -20.7938 C   0  0  0  0  0  0  0  0  0  0  0  0
   22.4076  -11.7832  -20.9831 C   0  0  0  0  0  0  0  0  0  0  0  0
   21.2810  -10.8042  -20.6211 C   0  0  0  0  0  0  0  0  0  0  0  0
   21.6963   -9.4454  -20.8332 N   0  0  0  0  0  0  0  0  0  0  0  0
   22.0035  -15.9643  -19.5719 C   0  0  0  0  0  0  0  0  0  0  0  0
   21.1565  -15.2405  -18.9473 O   0  0  0  0  0  0  0  0  0  0  0  0
   21.7060  -17.3219  -19.6705 N   0  0  0  0  0  0  0  0  0  0  0  0
   20.4736  -17.9206  -19.1522 C   0  0  1  0  0  0  0  0  0  0  0  0
   20.2828  -19.3039  -19.6450 C   0  0  0  0  0  0  0  0  0  0  0  0
   18.9338  -19.7999  -19.3053 C   0  0  0  0  0  0  0  0  0  0  0  0
   17.7513  -19.1159  -19.0679 C   0  0  0  0  0  0  0  0  0  0  0  0
   16.7586  -19.9699  -18.7656 N   0  0  0  0  0  0  0  0  0  0  0  0
   17.2968  -21.1835  -18.8084 C   0  0  0  0  0  0  0  0  0  0  0  0
   18.5965  -21.1118  -19.1287 N   0  0  0  0  0  0  0  0  0  0  0  0
   20.4673  -17.8132  -17.6879 C   0  0  0  0  0  0  0  0  0  0  0  0
   19.3002  -17.5584  -16.9731 O   0  0  0  0  0  0  0  0  0  0  0  0
   21.5235  -17.9500  -17.0440 O   0  0  0  0  0  0  0  0  0  0  0  0
  2  3  1  0
  2  1  1  6
  4  2  1  0
  4  5  1  1
  6  4  1  0
  6  7  2  0
  8  6  1  0
  9 10  1  6
  9  8  1  0
 11 10  1  0
 11 12  1  0
 13 12  1  0
 13 14  1  0
 15  9  1  0
 16 15  2  0
 17 15  1  0
 18 17  1  0
 18 19  1  1
 19 20  1  0
 20 21  2  0
 21 22  1  0
 23 22  1  0
 24 20  1  0
 24 23  2  0
 25 26  1  0
 25 18  1  0
 27 25  2  0
M  END
$$$$
