TKH.pdb
     RDKit          3D

 27 27  0  0  1  0  0  0  0  0999 V2000
   13.9285   -4.3613   -7.6075 C   0  0  0  0  0  0  0  0  0  0  0  0
   14.8074   -5.2469   -8.4451 C   0  0  1  0  0  0  0  0  0  0  0  0
   16.1470   -4.9058   -8.3459 O   0  0  0  0  0  0  0  0  0  0  0  0
   14.6001   -6.7154   -8.0464 C   0  0  2  0  0  0  0  0  0  0  0  0
   15.2422   -6.9484   -6.7631 N   0  0  0  0  0  0  0  0  0  0  0  0
   15.3343   -7.5200   -9.0501 C   0  0  0  0  0  0  0  0  0  0  0  0
   16.4677   -7.9588   -8.7154 O   0  0  0  0  0  0  0  0  0  0  0  0
   14.8603   -7.8219  -10.3288 N   0  0  0  0  0  0  0  0  0  0  0  0
   15.5500   -8.7193  -11.2702 C   0  0  1  0  0  0  0  0  0  0  0  0
   14.5485   -9.3135  -12.2058 C   0  0  0  0  0  0  0  0  0  0  0  0
   15.0691  -10.1754  -13.2798 C   0  0  0  0  0  0  0  0  0  0  0  0
   14.8701  -11.6599  -13.0478 C   0  0  0  0  0  0  0  0  0  0  0  0
   15.4030  -12.4490  -14.2528 C   0  0  0  0  0  0  0  0  0  0  0  0
   15.1885  -13.8585  -14.0767 N   0  0  0  0  0  0  0  0  0  0  0  0
   16.6281   -7.9403  -11.9162 C   0  0  0  0  0  0  0  0  0  0  0  0
   16.3507   -6.7478  -12.2804 O   0  0  0  0  0  0  0  0  0  0  0  0
   17.9264   -8.3792  -12.1670 N   0  0  0  0  0  0  0  0  0  0  0  0
   18.9410   -7.5645  -12.8400 C   0  0  1  0  0  0  0  0  0  0  0  0
   20.1084   -8.3731  -13.2596 C   0  0  0  0  0  0  0  0  0  0  0  0
   21.1161   -7.5287  -13.9324 C   0  0  0  0  0  0  0  0  0  0  0  0
   21.1651   -6.1563  -14.1234 C   0  0  0  0  0  0  0  0  0  0  0  0
   22.2627   -5.8099  -14.8170 N   0  0  0  0  0  0  0  0  0  0  0  0
   22.9080   -6.9436  -15.0672 C   0  0  0  0  0  0  0  0  0  0  0  0
   22.2450   -7.9875  -14.5499 N   0  0  0  0  0  0  0  0  0  0  0  0
   18.3104   -6.8279  -13.9425 C   0  0  0  0  0  0  0  0  0  0  0  0
   18.4541   -5.4506  -14.0855 O   0  0  0  0  0  0  0  0  0  0  0  0
   17.6222   -7.4299  -14.7869 O   0  0  0  0  0  0  0  0  0  0  0  0
  2  3  1  0
  2  1  1  1
  4  2  1  0
  4  5  1  1
  6  4  1  0
  6  7  2  0
  8  6  1  0
  9 10  1  6
  9  8  1  0
 11 10  1  0
 11 12  1  0
 13 12  1  0
 13 14  1  0
 15  9  1  0
 16 15  2  0
 17 15  1  0
 18 17  1  0
 18 19  1  6
 19 20  1  0
 20 21  2  0
 21 22  1  0
 23 22  1  0
 24 20  1  0
 24 23  2  0
 25 26  1  0
 25 18  1  0
 27 25  2  0
M  END
$$$$
