TKH.pdb
     RDKit          3D

 27 27  0  0  1  0  0  0  0  0999 V2000
   26.6307  -11.1353  -15.3287 C   0  0  0  0  0  0  0  0  0  0  0  0
   27.1742  -11.6516  -16.6311 C   0  0  1  0  0  0  0  0  0  0  0  0
   28.5155  -11.9897  -16.5456 O   0  0  0  0  0  0  0  0  0  0  0  0
   26.3486  -12.8591  -17.0991 C   0  0  2  0  0  0  0  0  0  0  0  0
   26.8730  -13.3202  -18.3743 N   0  0  0  0  0  0  0  0  0  0  0  0
   24.9820  -12.3474  -17.3527 C   0  0  0  0  0  0  0  0  0  0  0  0
   24.7925  -11.7303  -18.4355 O   0  0  0  0  0  0  0  0  0  0  0  0
   23.9007  -12.5012  -16.4819 N   0  0  0  0  0  0  0  0  0  0  0  0
   22.5537  -11.9673  -16.7422 C   0  0  1  0  0  0  0  0  0  0  0  0
   21.5368  -12.9947  -16.3659 C   0  0  0  0  0  0  0  0  0  0  0  0
   20.1216  -12.6073  -16.4864 C   0  0  0  0  0  0  0  0  0  0  0  0
   19.1365  -13.7129  -16.1634 C   0  0  0  0  0  0  0  0  0  0  0  0
   17.7089  -13.2446  -16.4815 C   0  0  0  0  0  0  0  0  0  0  0  0
   16.7625  -14.3027  -16.2613 N   0  0  0  0  0  0  0  0  0  0  0  0
   22.4408  -10.6794  -16.0244 C   0  0  0  0  0  0  0  0  0  0  0  0
   22.9097  -10.6282  -14.8374 O   0  0  0  0  0  0  0  0  0  0  0  0
   21.8723   -9.5071  -16.5178 N   0  0  0  0  0  0  0  0  0  0  0  0
   21.7850   -8.2633  -15.7488 C   0  0  1  0  0  0  0  0  0  0  0  0
   22.5680   -7.1726  -16.3731 C   0  0  0  0  0  0  0  0  0  0  0  0
   22.3499   -5.8970  -15.6613 C   0  0  0  0  0  0  0  0  0  0  0  0
   21.7354   -5.6318  -14.4470 C   0  0  0  0  0  0  0  0  0  0  0  0
   21.7367   -4.3129  -14.1896 N   0  0  0  0  0  0  0  0  0  0  0  0
   22.3430   -3.7408  -15.2237 C   0  0  0  0  0  0  0  0  0  0  0  0
   22.7202   -4.6644  -16.1191 N   0  0  0  0  0  0  0  0  0  0  0  0
   20.3710   -7.9262  -15.5413 C   0  0  0  0  0  0  0  0  0  0  0  0
   19.9351   -7.2433  -14.4092 O   0  0  0  0  0  0  0  0  0  0  0  0
   19.5179   -8.2496  -16.3878 O   0  0  0  0  0  0  0  0  0  0  0  0
  2  3  1  0
  2  1  1  1
  4  2  1  0
  4  5  1  6
  6  4  1  0
  6  7  2  0
  8  6  1  0
  9 10  1  1
  9  8  1  0
 11 10  1  0
 11 12  1  0
 13 12  1  0
 13 14  1  0
 15  9  1  0
 16 15  2  0
 17 15  1  0
 18 17  1  0
 18 19  1  6
 19 20  1  0
 20 21  2  0
 21 22  1  0
 23 22  1  0
 24 20  1  0
 24 23  2  0
 25 26  1  0
 25 18  1  0
 27 25  2  0
M  END
$$$$
