TKH.pdb
     RDKit          3D

 27 27  0  0  1  0  0  0  0  0999 V2000
   28.9113  -18.6495  -17.3262 C   0  0  0  0  0  0  0  0  0  0  0  0
   27.6814  -19.2046  -16.6646 C   0  0  1  0  0  0  0  0  0  0  0  0
   26.6191  -19.3282  -17.5458 O   0  0  0  0  0  0  0  0  0  0  0  0
   28.0021  -20.5621  -16.0220 C   0  0  2  0  0  0  0  0  0  0  0  0
   28.2022  -21.5442  -17.0750 N   0  0  0  0  0  0  0  0  0  0  0  0
   26.7833  -20.9631  -15.2820 C   0  0  0  0  0  0  0  0  0  0  0  0
   26.0261  -21.8041  -15.8373 O   0  0  0  0  0  0  0  0  0  0  0  0
   26.4206  -20.4771  -14.0237 N   0  0  0  0  0  0  0  0  0  0  0  0
   25.1537  -20.8059  -13.3497 C   0  0  1  0  0  0  0  0  0  0  0  0
   25.3253  -20.6433  -11.8748 C   0  0  0  0  0  0  0  0  0  0  0  0
   24.1341  -20.8603  -11.0372 C   0  0  0  0  0  0  0  0  0  0  0  0
   24.3749  -20.7076   -9.5487 C   0  0  0  0  0  0  0  0  0  0  0  0
   23.0589  -20.9206   -8.7861 C   0  0  0  0  0  0  0  0  0  0  0  0
   23.2137  -20.5901   -7.3967 N   0  0  0  0  0  0  0  0  0  0  0  0
   24.0982  -19.9660  -13.9556 C   0  0  0  0  0  0  0  0  0  0  0  0
   24.4323  -18.7957  -14.3432 O   0  0  0  0  0  0  0  0  0  0  0  0
   22.7667  -20.3271  -14.1497 N   0  0  0  0  0  0  0  0  0  0  0  0
   21.7884  -19.4772  -14.8328 C   0  0  1  0  0  0  0  0  0  0  0  0
   22.1632  -19.2289  -16.2437 C   0  0  0  0  0  0  0  0  0  0  0  0
   21.2041  -18.3078  -16.8864 C   0  0  0  0  0  0  0  0  0  0  0  0
   21.1255  -16.9236  -16.8651 C   0  0  0  0  0  0  0  0  0  0  0  0
   20.0685  -16.4947  -17.5756 N   0  0  0  0  0  0  0  0  0  0  0  0
   19.4781  -17.5879  -18.0454 C   0  0  0  0  0  0  0  0  0  0  0  0
   20.1358  -18.6865  -17.6488 N   0  0  0  0  0  0  0  0  0  0  0  0
   20.4513  -20.0631  -14.6751 C   0  0  0  0  0  0  0  0  0  0  0  0
   19.2972  -19.2856  -14.7139 O   0  0  0  0  0  0  0  0  0  0  0  0
   20.3196  -21.2883  -14.5005 O   0  0  0  0  0  0  0  0  0  0  0  0
  2  3  1  0
  2  1  1  6
  4  2  1  0
  4  5  1  6
  6  4  1  0
  6  7  2  0
  8  6  1  0
  9 10  1  1
  9  8  1  0
 11 10  1  0
 11 12  1  0
 13 12  1  0
 13 14  1  0
 15  9  1  0
 16 15  2  0
 17 15  1  0
 18 17  1  0
 18 19  1  6
 19 20  1  0
 20 21  2  0
 21 22  1  0
 23 22  1  0
 24 20  1  0
 24 23  2  0
 25 26  1  0
 25 18  1  0
 27 25  2  0
M  END
$$$$
