TKH.pdb
     RDKit          3D

 27 27  0  0  1  0  0  0  0  0999 V2000
   22.7460  -15.0075  -18.5048 C   0  0  0  0  0  0  0  0  0  0  0  0
   22.5031  -16.3707  -17.9209 C   0  0  1  0  0  0  0  0  0  0  0  0
   21.2375  -16.4899  -17.3690 O   0  0  0  0  0  0  0  0  0  0  0  0
   22.7193  -17.4453  -18.9965 C   0  0  2  0  0  0  0  0  0  0  0  0
   21.6436  -17.3575  -19.9704 N   0  0  0  0  0  0  0  0  0  0  0  0
   22.5748  -18.7488  -18.3082 C   0  0  0  0  0  0  0  0  0  0  0  0
   21.4022  -19.1753  -18.1285 O   0  0  0  0  0  0  0  0  0  0  0  0
   23.6390  -19.5288  -17.8498 N   0  0  0  0  0  0  0  0  0  0  0  0
   23.4742  -20.8037  -17.1325 C   0  0  1  0  0  0  0  0  0  0  0  0
   24.6675  -21.6664  -17.3834 C   0  0  0  0  0  0  0  0  0  0  0  0
   24.6339  -23.0289  -16.8267 C   0  0  0  0  0  0  0  0  0  0  0  0
   25.8706  -23.8568  -17.1135 C   0  0  0  0  0  0  0  0  0  0  0  0
   25.6772  -25.2817  -16.5739 C   0  0  0  0  0  0  0  0  0  0  0  0
   26.8181  -26.1015  -16.8741 N   0  0  0  0  0  0  0  0  0  0  0  0
   23.2182  -20.4833  -15.7118 C   0  0  0  0  0  0  0  0  0  0  0  0
   23.8113  -19.4614  -15.2266 O   0  0  0  0  0  0  0  0  0  0  0  0
   22.3869  -21.1882  -14.8440 N   0  0  0  0  0  0  0  0  0  0  0  0
   22.1297  -20.7819  -13.4602 C   0  0  1  0  0  0  0  0  0  0  0  0
   23.1453  -19.8227  -12.9691 C   0  0  0  0  0  0  0  0  0  0  0  0
   23.8038  -20.3348  -11.7504 C   0  0  0  0  0  0  0  0  0  0  0  0
   23.6305  -21.5247  -11.0599 C   0  0  0  0  0  0  0  0  0  0  0  0
   24.4276  -21.5696   -9.9789 N   0  0  0  0  0  0  0  0  0  0  0  0
   25.1020  -20.4252   -9.9763 C   0  0  0  0  0  0  0  0  0  0  0  0
   24.7490  -19.6674  -11.0242 N   0  0  0  0  0  0  0  0  0  0  0  0
   20.7526  -20.2837  -13.3549 C   0  0  0  0  0  0  0  0  0  0  0  0
   20.1726  -19.9757  -12.1273 O   0  0  0  0  0  0  0  0  0  0  0  0
   20.0629  -20.1237  -14.3785 O   0  0  0  0  0  0  0  0  0  0  0  0
  2  3  1  0
  2  1  1  6
  4  2  1  0
  4  5  1  6
  6  4  1  0
  6  7  2  0
  8  6  1  0
  9 10  1  1
  9  8  1  0
 11 10  1  0
 11 12  1  0
 13 12  1  0
 13 14  1  0
 15  9  1  0
 16 15  2  0
 17 15  1  0
 18 17  1  0
 18 19  1  6
 19 20  1  0
 20 21  2  0
 21 22  1  0
 23 22  1  0
 24 20  1  0
 24 23  2  0
 25 26  1  0
 25 18  1  0
 27 25  2  0
M  END
$$$$
