TKH.pdb
     RDKit          3D

 27 27  0  0  1  0  0  0  0  0999 V2000
   20.1779  -13.3606    6.7783 C   0  0  0  0  0  0  0  0  0  0  0  0
   19.2503  -12.3479    6.1681 C   0  0  1  0  0  0  0  0  0  0  0  0
   19.8998  -11.1684    5.8400 O   0  0  0  0  0  0  0  0  0  0  0  0
   18.5693  -12.9446    4.9277 C   0  0  2  0  0  0  0  0  0  0  0  0
   17.5724  -12.0047    4.4419 N   0  0  0  0  0  0  0  0  0  0  0  0
   17.8397  -14.1446    5.3983 C   0  0  0  0  0  0  0  0  0  0  0  0
   16.7939  -13.9511    6.0750 O   0  0  0  0  0  0  0  0  0  0  0  0
   18.2286  -15.4622    5.1454 N   0  0  0  0  0  0  0  0  0  0  0  0
   17.4947  -16.6429    5.6298 C   0  0  1  0  0  0  0  0  0  0  0  0
   17.5533  -17.7170    4.5933 C   0  0  0  0  0  0  0  0  0  0  0  0
   16.2678  -18.2319    4.0936 C   0  0  0  0  0  0  0  0  0  0  0  0
   16.3898  -19.2923    3.0177 C   0  0  0  0  0  0  0  0  0  0  0  0
   14.9939  -19.6677    2.4990 C   0  0  0  0  0  0  0  0  0  0  0  0
   15.0846  -20.6334    1.4393 N   0  0  0  0  0  0  0  0  0  0  0  0
   18.0616  -17.0082    6.9457 C   0  0  0  0  0  0  0  0  0  0  0  0
   19.3336  -17.0824    7.0345 O   0  0  0  0  0  0  0  0  0  0  0  0
   17.3418  -17.2791    8.1075 N   0  0  0  0  0  0  0  0  0  0  0  0
   17.9685  -17.6039    9.3912 C   0  0  1  0  0  0  0  0  0  0  0  0
   17.2159  -17.0342   10.5322 C   0  0  0  0  0  0  0  0  0  0  0  0
   17.8920  -17.3374   11.8097 C   0  0  0  0  0  0  0  0  0  0  0  0
   19.2370  -17.4968   12.1064 C   0  0  0  0  0  0  0  0  0  0  0  0
   19.4073  -17.7923   13.4062 N   0  0  0  0  0  0  0  0  0  0  0  0
   18.1892  -17.8221   13.9352 C   0  0  0  0  0  0  0  0  0  0  0  0
   17.2637  -17.5538   13.0033 N   0  0  0  0  0  0  0  0  0  0  0  0
   18.1560  -19.0575    9.4790 C   0  0  0  0  0  0  0  0  0  0  0  0
   19.1647  -19.6246   10.2529 O   0  0  0  0  0  0  0  0  0  0  0  0
   17.4040  -19.8263    8.8526 O   0  0  0  0  0  0  0  0  0  0  0  0
  2  3  1  0
  2  1  1  6
  4  2  1  0
  4  5  1  1
  6  4  1  0
  6  7  2  0
  8  6  1  0
  9 10  1  6
  9  8  1  0
 11 10  1  0
 11 12  1  0
 13 12  1  0
 13 14  1  0
 15  9  1  0
 16 15  2  0
 17 15  1  0
 18 17  1  0
 18 19  1  1
 19 20  1  0
 20 21  2  0
 21 22  1  0
 23 22  1  0
 24 20  1  0
 24 23  2  0
 25 26  1  0
 25 18  1  0
 27 25  2  0
M  END
$$$$
