TKH.pdb
     RDKit          3D

 27 27  0  0  1  0  0  0  0  0999 V2000
   26.5719  -17.6057  -16.4179 C   0  0  0  0  0  0  0  0  0  0  0  0
   27.1992  -18.6823  -17.2581 C   0  0  1  0  0  0  0  0  0  0  0  0
   27.9484  -18.1659  -18.3033 O   0  0  0  0  0  0  0  0  0  0  0  0
   28.0684  -19.5918  -16.3772 C   0  0  2  0  0  0  0  0  0  0  0  0
   28.6294  -20.6482  -17.2035 N   0  0  0  0  0  0  0  0  0  0  0  0
   27.1435  -20.2380  -15.4176 C   0  0  0  0  0  0  0  0  0  0  0  0
   26.4409  -21.1906  -15.8511 O   0  0  0  0  0  0  0  0  0  0  0  0
   26.9992  -19.8666  -14.0788 N   0  0  0  0  0  0  0  0  0  0  0  0
   26.0799  -20.5268  -13.1374 C   0  0  1  0  0  0  0  0  0  0  0  0
   26.5265  -20.2504  -11.7391 C   0  0  0  0  0  0  0  0  0  0  0  0
   25.6849  -20.7802  -10.6535 C   0  0  0  0  0  0  0  0  0  0  0  0
   26.1308  -20.3834   -9.2604 C   0  0  0  0  0  0  0  0  0  0  0  0
   25.2935  -21.1342   -8.2145 C   0  0  0  0  0  0  0  0  0  0  0  0
   25.6306  -20.7051   -6.8856 N   0  0  0  0  0  0  0  0  0  0  0  0
   24.7109  -20.0710  -13.4612 C   0  0  0  0  0  0  0  0  0  0  0  0
   24.5438  -18.8215  -13.6672 O   0  0  0  0  0  0  0  0  0  0  0  0
   23.5775  -20.8742  -13.5674 N   0  0  0  0  0  0  0  0  0  0  0  0
   22.3098  -20.4145  -14.1397 C   0  0  1  0  0  0  0  0  0  0  0  0
   22.2345  -20.6764  -15.5952 C   0  0  0  0  0  0  0  0  0  0  0  0
   20.9503  -20.2001  -16.1477 C   0  0  0  0  0  0  0  0  0  0  0  0
   19.9014  -19.5225  -15.5449 C   0  0  0  0  0  0  0  0  0  0  0  0
   18.9068  -19.3055  -16.4221 N   0  0  0  0  0  0  0  0  0  0  0  0
   19.3119  -19.8363  -17.5704 C   0  0  0  0  0  0  0  0  0  0  0  0
   20.5305  -20.3782  -17.4354 N   0  0  0  0  0  0  0  0  0  0  0  0
   21.1995  -21.0020  -13.3794 C   0  0  0  0  0  0  0  0  0  0  0  0
   20.0328  -20.2912  -13.1116 O   0  0  0  0  0  0  0  0  0  0  0  0
   21.2796  -22.1678  -12.9512 O   0  0  0  0  0  0  0  0  0  0  0  0
  2  3  1  0
  2  1  1  1
  4  2  1  0
  4  5  1  6
  6  4  1  0
  6  7  2  0
  8  6  1  0
  9 10  1  1
  9  8  1  0
 11 10  1  0
 11 12  1  0
 13 12  1  0
 13 14  1  0
 15  9  1  0
 16 15  2  0
 17 15  1  0
 18 17  1  0
 18 19  1  6
 19 20  1  0
 20 21  2  0
 21 22  1  0
 23 22  1  0
 24 20  1  0
 24 23  2  0
 25 26  1  0
 25 18  1  0
 27 25  2  0
M  END
$$$$
