WCQ.pdb
     RDKit          3D

 30 31  0  0  1  0  0  0  0  0999 V2000
   24.5157  -18.0277  -15.6021 N   0  0  0  0  0  0  0  0  0  0  0  0
   23.1214  -18.2920  -15.6859 C   0  0  1  0  0  0  0  0  0  0  0  0
   22.6900  -18.6174  -17.0941 C   0  0  0  0  0  0  0  0  0  0  0  0
   22.8950  -17.5237  -18.0483 C   0  0  0  0  0  0  0  0  0  0  0  0
   24.0244  -17.3534  -18.8629 C   0  0  0  0  0  0  0  0  0  0  0  0
   23.8839  -16.2776  -19.6233 N   0  0  0  0  0  0  0  0  0  0  0  0
   22.6984  -15.6974  -19.3640 C   0  0  0  0  0  0  0  0  0  0  0  0
   22.0688  -14.5892  -19.8465 C   0  0  0  0  0  0  0  0  0  0  0  0
   20.8243  -14.2273  -19.3706 C   0  0  0  0  0  0  0  0  0  0  0  0
   20.2057  -14.9864  -18.3996 C   0  0  0  0  0  0  0  0  0  0  0  0
   20.8339  -16.1010  -17.9115 C   0  0  0  0  0  0  0  0  0  0  0  0
   22.0814  -16.4629  -18.3902 C   0  0  0  0  0  0  0  0  0  0  0  0
   22.7052  -19.4183  -14.7782 C   0  0  0  0  0  0  0  0  0  0  0  0
   23.6062  -20.0476  -14.1710 O   0  0  0  0  0  0  0  0  0  0  0  0
   21.3756  -19.7983  -14.5779 N   0  0  0  0  0  0  0  0  0  0  0  0
   20.9199  -20.7522  -13.5590 C   0  0  1  0  0  0  0  0  0  0  0  0
   21.2489  -20.2115  -12.1881 C   0  0  0  0  0  0  0  0  0  0  0  0
   20.3859  -18.6532  -11.9481 S   0  0  0  0  0  0  0  0  0  0  0  0
   19.4702  -20.8958  -13.7386 C   0  0  0  0  0  0  0  0  0  0  0  0
   18.7905  -19.9045  -14.1414 O   0  0  0  0  0  0  0  0  0  0  0  0
   16.3267  -26.3739  -13.8306 N   0  0  0  0  0  0  0  0  0  0  0  0
   16.7351  -25.8402  -12.5812 C   0  0  0  0  0  0  0  0  0  0  0  0
   16.7176  -26.5853  -11.5730 O   0  0  0  0  0  0  0  0  0  0  0  0
   17.1787  -24.4277  -12.4486 C   0  0  0  0  0  0  0  0  0  0  0  0
   17.0262  -23.7174  -13.7710 C   0  0  0  0  0  0  0  0  0  0  0  0
   17.3603  -22.2534  -13.6782 C   0  0  2  0  0  0  0  0  0  0  0  0
   18.7989  -22.0939  -13.4850 N   0  0  0  0  0  0  0  0  0  0  0  0
   16.6379  -21.5947  -12.5695 C   0  0  0  0  0  0  0  0  0  0  0  0
   17.2091  -21.3009  -11.4887 O   0  0  0  0  0  0  0  0  0  0  0  0
   15.2896  -21.2660  -12.6646 O   0  0  0  0  0  0  0  0  0  0  0  0
  2  3  1  0
  2  1  1  6
  2 13  1  0
  3  4  1  0
  4 12  1  0
  4  5  2  0
  5  6  1  0
  7  6  1  0
  7  8  2  0
  9  8  1  0
 10  9  2  0
 11 12  2  0
 11 10  1  0
 12  7  1  0
 13 14  2  0
 15 13  1  0
 15 16  1  0
 16 19  1  0
 16 17  1  1
 18 17  1  0
 19 20  2  0
 21 22  1  0
 22 23  2  0
 24 22  1  0
 24 25  1  0
 26 25  1  1
 26 28  1  0
 27 26  1  0
 27 19  1  0
 28 29  2  0
 28 30  1  0
M  END
$$$$
