WCQ.pdb
     RDKit          3D

 30 31  0  0  1  0  0  0  0  0999 V2000
   15.2459  -20.2953    0.9620 N   0  0  0  0  0  0  0  0  0  0  0  0
   15.1362  -20.0166    2.3518 C   0  0  1  0  0  0  0  0  0  0  0  0
   15.0733  -21.2762    3.1791 C   0  0  0  0  0  0  0  0  0  0  0  0
   13.8258  -22.0300    3.0237 C   0  0  0  0  0  0  0  0  0  0  0  0
   13.6022  -23.0532    2.0903 C   0  0  0  0  0  0  0  0  0  0  0  0
   12.3778  -23.5401    2.2274 N   0  0  0  0  0  0  0  0  0  0  0  0
   11.7461  -22.8907    3.2216 C   0  0  0  0  0  0  0  0  0  0  0  0
   10.4991  -22.9860    3.7631 C   0  0  0  0  0  0  0  0  0  0  0  0
   10.1202  -22.1567    4.8000 C   0  0  0  0  0  0  0  0  0  0  0  0
   11.0031  -21.2218    5.2981 C   0  0  0  0  0  0  0  0  0  0  0  0
   12.2573  -21.1220    4.7577 C   0  0  0  0  0  0  0  0  0  0  0  0
   12.6359  -21.9547    3.7186 C   0  0  0  0  0  0  0  0  0  0  0  0
   16.2747  -19.1662    2.8481 C   0  0  0  0  0  0  0  0  0  0  0  0
   17.2548  -18.9912    2.0830 O   0  0  0  0  0  0  0  0  0  0  0  0
   16.2977  -18.5653    4.1094 N   0  0  0  0  0  0  0  0  0  0  0  0
   17.3668  -17.6872    4.6011 C   0  0  1  0  0  0  0  0  0  0  0  0
   17.4298  -16.4488    3.7396 C   0  0  0  0  0  0  0  0  0  0  0  0
   15.9485  -15.4677    4.0112 S   0  0  0  0  0  0  0  0  0  0  0  0
   17.0271  -17.3510    5.9890 C   0  0  0  0  0  0  0  0  0  0  0  0
   15.8118  -17.1925    6.3127 O   0  0  0  0  0  0  0  0  0  0  0  0
   18.3579  -18.3924   12.6763 N   0  0  0  0  0  0  0  0  0  0  0  0
   19.1054  -17.8324   11.6084 C   0  0  0  0  0  0  0  0  0  0  0  0
   20.2864  -18.2156   11.4336 O   0  0  0  0  0  0  0  0  0  0  0  0
   18.5185  -16.8101   10.7029 C   0  0  0  0  0  0  0  0  0  0  0  0
   18.7978  -17.1783    9.2666 C   0  0  0  0  0  0  0  0  0  0  0  0
   17.6797  -16.7770    8.3433 C   0  0  2  0  0  0  0  0  0  0  0  0
   17.9972  -17.1995    6.9820 N   0  0  0  0  0  0  0  0  0  0  0  0
   17.4472  -15.3174    8.3649 C   0  0  0  0  0  0  0  0  0  0  0  0
   16.8164  -14.7608    9.2992 O   0  0  0  0  0  0  0  0  0  0  0  0
   17.9139  -14.4847    7.3530 O   0  0  0  0  0  0  0  0  0  0  0  0
  2  3  1  0
  2  1  1  6
  2 13  1  0
  3  4  1  0
  4 12  1  0
  4  5  2  0
  5  6  1  0
  7  6  1  0
  7  8  2  0
  9  8  1  0
 10  9  2  0
 11 12  2  0
 11 10  1  0
 12  7  1  0
 13 14  2  0
 15 13  1  0
 15 16  1  0
 16 19  1  0
 16 17  1  6
 18 17  1  0
 19 20  2  0
 21 22  1  0
 22 23  2  0
 24 22  1  0
 24 25  1  0
 26 25  1  1
 26 28  1  0
 27 26  1  0
 27 19  1  0
 28 29  2  0
 28 30  1  0
M  END
$$$$
