WCQ.pdb
     RDKit          3D

 30 31  0  0  1  0  0  0  0  0999 V2000
   24.9357  -31.3090  -18.2054 N   0  0  0  0  0  0  0  0  0  0  0  0
   25.5484  -31.4743  -16.9333 C   0  0  1  0  0  0  0  0  0  0  0  0
   26.3911  -30.2832  -16.5511 C   0  0  0  0  0  0  0  0  0  0  0  0
   27.6578  -30.1894  -17.2826 C   0  0  0  0  0  0  0  0  0  0  0  0
   27.9011  -29.3619  -18.3890 C   0  0  0  0  0  0  0  0  0  0  0  0
   29.1527  -29.5015  -18.8003 N   0  0  0  0  0  0  0  0  0  0  0  0
   29.7840  -30.3960  -18.0188 C   0  0  0  0  0  0  0  0  0  0  0  0
   31.0485  -30.9038  -18.0038 C   0  0  0  0  0  0  0  0  0  0  0  0
   31.4159  -31.8415  -17.0593 C   0  0  0  0  0  0  0  0  0  0  0  0
   30.5034  -32.2739  -16.1201 C   0  0  0  0  0  0  0  0  0  0  0  0
   29.2315  -31.7667  -16.1307 C   0  0  0  0  0  0  0  0  0  0  0  0
   28.8650  -30.8260  -17.0778 C   0  0  0  0  0  0  0  0  0  0  0  0
   24.5359  -31.7213  -15.8473 C   0  0  0  0  0  0  0  0  0  0  0  0
   23.3633  -31.3124  -16.0327 O   0  0  0  0  0  0  0  0  0  0  0  0
   24.8317  -32.3778  -14.6498 N   0  0  0  0  0  0  0  0  0  0  0  0
   23.8642  -32.6446  -13.5781 C   0  0  1  0  0  0  0  0  0  0  0  0
   22.7808  -33.5572  -14.1011 C   0  0  0  0  0  0  0  0  0  0  0  0
   23.4456  -35.2178  -14.2779 S   0  0  0  0  0  0  0  0  0  0  0  0
   24.6127  -33.2808  -12.4874 C   0  0  0  0  0  0  0  0  0  0  0  0
   25.5589  -34.0782  -12.7626 O   0  0  0  0  0  0  0  0  0  0  0  0
   24.6859  -31.2510   -6.5336 N   0  0  0  0  0  0  0  0  0  0  0  0
   25.5196  -32.3968   -6.4649 C   0  0  0  0  0  0  0  0  0  0  0  0
   26.1357  -32.6307   -5.3982 O   0  0  0  0  0  0  0  0  0  0  0  0
   25.6735  -33.3149   -7.6237 C   0  0  0  0  0  0  0  0  0  0  0  0
   24.8957  -32.7850   -8.8030 C   0  0  0  0  0  0  0  0  0  0  0  0
   25.1197  -33.5966  -10.0498 C   0  0  2  0  0  0  0  0  0  0  0  0
   24.3261  -33.0400  -11.1420 N   0  0  0  0  0  0  0  0  0  0  0  0
   24.7594  -35.0166   -9.8526 C   0  0  0  0  0  0  0  0  0  0  0  0
   23.5649  -35.4075   -9.8842 O   0  0  0  0  0  0  0  0  0  0  0  0
   25.7230  -35.9930   -9.6221 O   0  0  0  0  0  0  0  0  0  0  0  0
  2  3  1  0
  2  1  1  6
  2 13  1  0
  3  4  1  0
  4 12  1  0
  4  5  2  0
  5  6  1  0
  7  6  1  0
  7  8  2  0
  9  8  1  0
 10  9  2  0
 11 12  2  0
 11 10  1  0
 12  7  1  0
 13 14  2  0
 15 13  1  0
 15 16  1  0
 16 19  1  0
 16 17  1  6
 18 17  1  0
 19 20  2  0
 21 22  1  0
 22 23  2  0
 24 22  1  0
 24 25  1  0
 26 25  1  1
 26 28  1  0
 27 26  1  0
 27 19  1  0
 28 29  2  0
 28 30  1  0
M  END
$$$$
