WCQ.pdb
     RDKit          3D

 30 31  0  0  1  0  0  0  0  0999 V2000
   23.9302  -20.6428  -13.5413 N   0  0  0  0  0  0  0  0  0  0  0  0
   22.6014  -20.3928  -13.1023 C   0  0  1  0  0  0  0  0  0  0  0  0
   21.5849  -20.6844  -14.1778 C   0  0  0  0  0  0  0  0  0  0  0  0
   21.2914  -19.5409  -15.0467 C   0  0  0  0  0  0  0  0  0  0  0  0
   22.2291  -18.8479  -15.8268 C   0  0  0  0  0  0  0  0  0  0  0  0
   21.6334  -17.8815  -16.5097 N   0  0  0  0  0  0  0  0  0  0  0  0
   20.3177  -17.8806  -16.2300 C   0  0  0  0  0  0  0  0  0  0  0  0
   19.2697  -17.1131  -16.6421 C   0  0  0  0  0  0  0  0  0  0  0  0
   17.9966  -17.3501  -16.1632 C   0  0  0  0  0  0  0  0  0  0  0  0
   17.7738  -18.3686  -15.2607 C   0  0  0  0  0  0  0  0  0  0  0  0
   18.8233  -19.1430  -14.8435 C   0  0  0  0  0  0  0  0  0  0  0  0
   20.0991  -18.9045  -15.3252 C   0  0  0  0  0  0  0  0  0  0  0  0
   22.2529  -21.1922  -11.8754 C   0  0  0  0  0  0  0  0  0  0  0  0
   22.6528  -22.3809  -11.8150 O   0  0  0  0  0  0  0  0  0  0  0  0
   21.5109  -20.6832  -10.8064 N   0  0  0  0  0  0  0  0  0  0  0  0
   21.2965  -21.3749   -9.5291 C   0  0  1  0  0  0  0  0  0  0  0  0
   21.3091  -20.3642   -8.4073 C   0  0  0  0  0  0  0  0  0  0  0  0
   20.9584  -21.2028   -6.8567 S   0  0  0  0  0  0  0  0  0  0  0  0
   19.9924  -22.0414   -9.6279 C   0  0  0  0  0  0  0  0  0  0  0  0
   19.0212  -21.4340  -10.1706 O   0  0  0  0  0  0  0  0  0  0  0  0
   18.7612  -27.9627   -7.7413 N   0  0  0  0  0  0  0  0  0  0  0  0
   17.4916  -27.5202   -8.1941 C   0  0  0  0  0  0  0  0  0  0  0  0
   16.5342  -28.3298   -8.1888 O   0  0  0  0  0  0  0  0  0  0  0  0
   17.2794  -26.1279   -8.6696 C   0  0  0  0  0  0  0  0  0  0  0  0
   18.5657  -25.3473   -8.5566 C   0  0  0  0  0  0  0  0  0  0  0  0
   18.4654  -23.9823   -9.1813 C   0  0  2  0  0  0  0  0  0  0  0  0
   19.7734  -23.3339   -9.1465 N   0  0  0  0  0  0  0  0  0  0  0  0
   17.4751  -23.1323   -8.4872 C   0  0  0  0  0  0  0  0  0  0  0  0
   17.7705  -22.4799   -7.4539 O   0  0  0  0  0  0  0  0  0  0  0  0
   16.1660  -23.0103   -8.9414 O   0  0  0  0  0  0  0  0  0  0  0  0
  2  3  1  0
  2  1  1  6
  2 13  1  0
  3  4  1  0
  4 12  1  0
  4  5  2  0
  5  6  1  0
  7  6  1  0
  7  8  2  0
  9  8  1  0
 10  9  2  0
 11 12  2  0
 11 10  1  0
 12  7  1  0
 13 14  2  0
 15 13  1  0
 15 16  1  0
 16 19  1  0
 16 17  1  1
 18 17  1  0
 19 20  2  0
 21 22  1  0
 22 23  2  0
 24 22  1  0
 24 25  1  0
 26 25  1  1
 26 28  1  0
 27 26  1  0
 27 19  1  0
 28 29  2  0
 28 30  1  0
M  END
$$$$
