WCQ.pdb
     RDKit          3D

 30 31  0  0  1  0  0  0  0  0999 V2000
   27.3944  -20.6103  -16.4730 N   0  0  0  0  0  0  0  0  0  0  0  0
   27.2558  -19.9378  -15.2281 C   0  0  1  0  0  0  0  0  0  0  0  0
   26.4141  -18.6919  -15.3478 C   0  0  0  0  0  0  0  0  0  0  0  0
   26.9681  -17.6829  -16.2553 C   0  0  0  0  0  0  0  0  0  0  0  0
   26.2253  -16.7215  -16.9568 C   0  0  0  0  0  0  0  0  0  0  0  0
   27.0312  -15.9506  -17.6718 N   0  0  0  0  0  0  0  0  0  0  0  0
   28.3047  -16.3440  -17.4907 C   0  0  0  0  0  0  0  0  0  0  0  0
   29.5007  -15.9116  -17.9804 C   0  0  0  0  0  0  0  0  0  0  0  0
   30.6759  -16.5347  -17.6103 C   0  0  0  0  0  0  0  0  0  0  0  0
   30.6496  -17.6035  -16.7394 C   0  0  0  0  0  0  0  0  0  0  0  0
   29.4505  -18.0418  -16.2442 C   0  0  0  0  0  0  0  0  0  0  0  0
   28.2731  -17.4156  -16.6157 C   0  0  0  0  0  0  0  0  0  0  0  0
   26.6594  -20.8268  -14.1700 C   0  0  0  0  0  0  0  0  0  0  0  0
   26.0172  -21.8383  -14.5456 O   0  0  0  0  0  0  0  0  0  0  0  0
   26.7821  -20.5859  -12.7991 N   0  0  0  0  0  0  0  0  0  0  0  0
   25.9042  -21.1497  -11.7662 C   0  0  1  0  0  0  0  0  0  0  0  0
   26.3661  -20.6781  -10.4082 C   0  0  0  0  0  0  0  0  0  0  0  0
   24.9856  -20.7512   -9.2596 S   0  0  0  0  0  0  0  0  0  0  0  0
   24.5487  -20.6700  -12.0615 C   0  0  0  0  0  0  0  0  0  0  0  0
   24.3700  -19.4513  -12.3608 O   0  0  0  0  0  0  0  0  0  0  0  0
   20.1042  -24.0303  -14.7036 N   0  0  0  0  0  0  0  0  0  0  0  0
   19.3485  -23.3402  -13.7211 C   0  0  0  0  0  0  0  0  0  0  0  0
   18.1472  -23.6572  -13.5524 O   0  0  0  0  0  0  0  0  0  0  0  0
   19.9503  -22.2593  -12.8971 C   0  0  0  0  0  0  0  0  0  0  0  0
   21.4180  -22.1264  -13.2206 C   0  0  0  0  0  0  0  0  0  0  0  0
   22.0930  -21.0625  -12.3984 C   0  0  2  0  0  0  0  0  0  0  0  0
   23.4333  -21.5097  -12.0297 N   0  0  0  0  0  0  0  0  0  0  0  0
   21.3257  -20.7443  -11.1757 C   0  0  0  0  0  0  0  0  0  0  0  0
   21.6291  -21.2324  -10.0574 O   0  0  0  0  0  0  0  0  0  0  0  0
   20.2290  -19.8890  -11.1992 O   0  0  0  0  0  0  0  0  0  0  0  0
  2  3  1  0
  2  1  1  6
  2 13  1  0
  3  4  1  0
  4 12  1  0
  4  5  2  0
  5  6  1  0
  7  6  1  0
  7  8  2  0
  9  8  1  0
 10  9  2  0
 11 12  2  0
 11 10  1  0
 12  7  1  0
 13 14  2  0
 15 13  1  0
 15 16  1  0
 16 19  1  0
 16 17  1  1
 18 17  1  0
 19 20  2  0
 21 22  1  0
 22 23  2  0
 24 22  1  0
 24 25  1  0
 26 25  1  1
 26 28  1  0
 27 26  1  0
 27 19  1  0
 28 29  2  0
 28 30  1  0
M  END
$$$$
