WCQ.pdb
     RDKit          3D

 30 31  0  0  1  0  0  0  0  0999 V2000
   27.3199  -22.7334  -14.2038 N   0  0  0  0  0  0  0  0  0  0  0  0
   26.2723  -22.0025  -13.5798 C   0  0  1  0  0  0  0  0  0  0  0  0
   26.7052  -20.6105  -13.1925 C   0  0  0  0  0  0  0  0  0  0  0  0
   27.5636  -20.5617  -12.0053 C   0  0  0  0  0  0  0  0  0  0  0  0
   28.9662  -20.5326  -12.0139 C   0  0  0  0  0  0  0  0  0  0  0  0
   29.4316  -20.4695  -10.7752 N   0  0  0  0  0  0  0  0  0  0  0  0
   28.4019  -20.4543   -9.9098 C   0  0  0  0  0  0  0  0  0  0  0  0
   28.3172  -20.4036   -8.5506 C   0  0  0  0  0  0  0  0  0  0  0  0
   27.0865  -20.4097   -7.9246 C   0  0  0  0  0  0  0  0  0  0  0  0
   25.9289  -20.4674   -8.6717 C   0  0  0  0  0  0  0  0  0  0  0  0
   26.0085  -20.5182  -10.0378 C   0  0  0  0  0  0  0  0  0  0  0  0
   27.2431  -20.5114  -10.6640 C   0  0  0  0  0  0  0  0  0  0  0  0
   25.0525  -21.9052  -14.4563 C   0  0  0  0  0  0  0  0  0  0  0  0
   25.2038  -21.4849  -15.6298 O   0  0  0  0  0  0  0  0  0  0  0  0
   23.7675  -22.2558  -14.0340 N   0  0  0  0  0  0  0  0  0  0  0  0
   22.5954  -22.3613  -14.9119 C   0  0  1  0  0  0  0  0  0  0  0  0
   22.2461  -23.8178  -15.1034 C   0  0  0  0  0  0  0  0  0  0  0  0
   23.4291  -24.8291  -14.2042 S   0  0  0  0  0  0  0  0  0  0  0  0
   21.5062  -21.6380  -14.2446 C   0  0  0  0  0  0  0  0  0  0  0  0
   21.4285  -21.6567  -12.9795 O   0  0  0  0  0  0  0  0  0  0  0  0
   19.8302  -16.2864  -14.3729 N   0  0  0  0  0  0  0  0  0  0  0  0
   18.5085  -16.7319  -14.1138 C   0  0  0  0  0  0  0  0  0  0  0  0
   17.7024  -15.9417  -13.5680 O   0  0  0  0  0  0  0  0  0  0  0  0
   18.0677  -18.1049  -14.4746 C   0  0  0  0  0  0  0  0  0  0  0  0
   19.2309  -18.8843  -15.0369 C   0  0  0  0  0  0  0  0  0  0  0  0
   19.4695  -20.1727  -14.2977 C   0  0  2  0  0  0  0  0  0  0  0  0
   20.5413  -20.9180  -14.9521 N   0  0  0  0  0  0  0  0  0  0  0  0
   18.2510  -21.0077  -14.2424 C   0  0  0  0  0  0  0  0  0  0  0  0
   17.9869  -21.8541  -15.1338 O   0  0  0  0  0  0  0  0  0  0  0  0
   17.3341  -20.9001  -13.2018 O   0  0  0  0  0  0  0  0  0  0  0  0
  2  3  1  0
  2  1  1  6
  2 13  1  0
  3  4  1  0
  4 12  1  0
  4  5  2  0
  5  6  1  0
  7  6  1  0
  7  8  2  0
  9  8  1  0
 10  9  2  0
 11 12  2  0
 11 10  1  0
 12  7  1  0
 13 14  2  0
 15 13  1  0
 15 16  1  0
 16 19  1  0
 16 17  1  1
 18 17  1  0
 19 20  2  0
 21 22  1  0
 22 23  2  0
 24 22  1  0
 24 25  1  0
 26 25  1  6
 26 28  1  0
 27 26  1  0
 27 19  1  0
 28 29  2  0
 28 30  1  0
M  END
$$$$
