WCQ.pdb
     RDKit          3D

 30 31  0  0  1  0  0  0  0  0999 V2000
   22.4041  -15.7230  -19.7421 N   0  0  0  0  0  0  0  0  0  0  0  0
   21.6783  -14.5017  -19.7938 C   0  0  1  0  0  0  0  0  0  0  0  0
   20.2692  -14.6578  -19.2792 C   0  0  0  0  0  0  0  0  0  0  0  0
   19.5299  -15.7655  -19.8916 C   0  0  0  0  0  0  0  0  0  0  0  0
   19.8266  -16.3591  -21.1277 C   0  0  0  0  0  0  0  0  0  0  0  0
   18.9786  -17.3455  -21.3786 N   0  0  0  0  0  0  0  0  0  0  0  0
   18.1057  -17.4556  -20.3611 C   0  0  0  0  0  0  0  0  0  0  0  0
   17.0485  -18.2796  -20.1147 C   0  0  0  0  0  0  0  0  0  0  0  0
   16.3126  -18.1472  -18.9540 C   0  0  0  0  0  0  0  0  0  0  0  0
   16.6419  -17.1769  -18.0311 C   0  0  0  0  0  0  0  0  0  0  0  0
   17.7034  -16.3465  -18.2737 C   0  0  0  0  0  0  0  0  0  0  0  0
   18.4407  -16.4810  -19.4377 C   0  0  0  0  0  0  0  0  0  0  0  0
   22.3601  -13.4070  -19.0177 C   0  0  0  0  0  0  0  0  0  0  0  0
   22.9742  -13.7243  -17.9694 O   0  0  0  0  0  0  0  0  0  0  0  0
   22.3448  -12.0633  -19.4007 N   0  0  0  0  0  0  0  0  0  0  0  0
   23.1074  -10.9947  -18.7433 C   0  0  1  0  0  0  0  0  0  0  0  0
   23.9957  -10.3188  -19.7603 C   0  0  0  0  0  0  0  0  0  0  0  0
   23.0400   -9.9839  -21.2453 S   0  0  0  0  0  0  0  0  0  0  0  0
   22.1227  -10.0560  -18.1922 C   0  0  0  0  0  0  0  0  0  0  0  0
   20.9992   -9.9237  -18.7640 O   0  0  0  0  0  0  0  0  0  0  0  0
   21.0354   -9.0152  -12.2851 N   0  0  0  0  0  0  0  0  0  0  0  0
   20.2706   -7.9687  -12.8617 C   0  0  0  0  0  0  0  0  0  0  0  0
   19.5698   -7.2501  -12.1104 O   0  0  0  0  0  0  0  0  0  0  0  0
   20.2860   -7.7124  -14.3258 C   0  0  0  0  0  0  0  0  0  0  0  0
   21.2471   -8.6596  -15.0008 C   0  0  0  0  0  0  0  0  0  0  0  0
   21.3880   -8.3820  -16.4727 C   0  0  2  0  0  0  0  0  0  0  0  0
   22.3719   -9.2949  -17.0481 N   0  0  0  0  0  0  0  0  0  0  0  0
   21.8002   -6.9862  -16.7312 C   0  0  0  0  0  0  0  0  0  0  0  0
   23.0111   -6.6528  -16.7881 O   0  0  0  0  0  0  0  0  0  0  0  0
   20.8701   -5.9701  -16.9246 O   0  0  0  0  0  0  0  0  0  0  0  0
  2  3  1  0
  2  1  1  1
  2 13  1  0
  3  4  1  0
  4 12  1  0
  4  5  2  0
  5  6  1  0
  7  6  1  0
  7  8  2  0
  9  8  1  0
 10  9  2  0
 11 12  2  0
 11 10  1  0
 12  7  1  0
 13 14  2  0
 15 13  1  0
 15 16  1  0
 16 19  1  0
 16 17  1  6
 18 17  1  0
 19 20  2  0
 21 22  1  0
 22 23  2  0
 24 22  1  0
 24 25  1  0
 26 25  1  1
 26 28  1  0
 27 26  1  0
 27 19  1  0
 28 29  2  0
 28 30  1  0
M  END
$$$$
