WCQ.pdb
     RDKit          3D

 30 31  0  0  1  0  0  0  0  0999 V2000
   24.9593  -33.9463  -13.3401 N   0  0  0  0  0  0  0  0  0  0  0  0
   24.3419  -33.2923  -12.2391 C   0  0  1  0  0  0  0  0  0  0  0  0
   25.3266  -32.4747  -11.4411 C   0  0  0  0  0  0  0  0  0  0  0  0
   25.6788  -33.0632  -10.1456 C   0  0  0  0  0  0  0  0  0  0  0  0
   26.7049  -33.9941   -9.9250 C   0  0  0  0  0  0  0  0  0  0  0  0
   26.7721  -34.3071   -8.6395 N   0  0  0  0  0  0  0  0  0  0  0  0
   25.8294  -33.6268   -7.9628 C   0  0  0  0  0  0  0  0  0  0  0  0
   25.4644  -33.5795   -6.6507 C   0  0  0  0  0  0  0  0  0  0  0  0
   24.4233  -32.7700   -6.2418 C   0  0  0  0  0  0  0  0  0  0  0  0
   23.7416  -32.0000   -7.1605 C   0  0  0  0  0  0  0  0  0  0  0  0
   24.1045  -32.0438   -8.4802 C   0  0  0  0  0  0  0  0  0  0  0  0
   25.1490  -32.8554   -8.8885 C   0  0  0  0  0  0  0  0  0  0  0  0
   23.2107  -32.4002  -12.6750 C   0  0  0  0  0  0  0  0  0  0  0  0
   23.1339  -32.1001  -13.8918 O   0  0  0  0  0  0  0  0  0  0  0  0
   22.2472  -31.8908  -11.8005 N   0  0  0  0  0  0  0  0  0  0  0  0
   20.9153  -31.4205  -12.2012 C   0  0  1  0  0  0  0  0  0  0  0  0
   20.1819  -32.5395  -12.9013 C   0  0  0  0  0  0  0  0  0  0  0  0
   18.5282  -31.9807  -13.3299 S   0  0  0  0  0  0  0  0  0  0  0  0
   20.2238  -31.0224  -10.9692 C   0  0  0  0  0  0  0  0  0  0  0  0
   20.3048  -31.7609   -9.9422 O   0  0  0  0  0  0  0  0  0  0  0  0
   18.0675  -26.0520   -7.9457 N   0  0  0  0  0  0  0  0  0  0  0  0
   19.1816  -26.0205   -8.8234 C   0  0  0  0  0  0  0  0  0  0  0  0
   20.0472  -25.1271   -8.6664 O   0  0  0  0  0  0  0  0  0  0  0  0
   19.3384  -27.0179   -9.9143 C   0  0  0  0  0  0  0  0  0  0  0  0
   18.2409  -28.0495   -9.8258 C   0  0  0  0  0  0  0  0  0  0  0  0
   18.7771  -29.4452   -9.6586 C   0  0  2  0  0  0  0  0  0  0  0  0
   19.4735  -29.8482  -10.8772 N   0  0  0  0  0  0  0  0  0  0  0  0
   17.7015  -30.4147   -9.3619 C   0  0  0  0  0  0  0  0  0  0  0  0
   17.1655  -31.1063  -10.2647 O   0  0  0  0  0  0  0  0  0  0  0  0
   17.2270  -30.6116   -8.0692 O   0  0  0  0  0  0  0  0  0  0  0  0
  2  3  1  0
  2  1  1  6
  2 13  1  0
  3  4  1  0
  4 12  1  0
  4  5  2  0
  5  6  1  0
  7  6  1  0
  7  8  2  0
  9  8  1  0
 10  9  2  0
 11 12  2  0
 11 10  1  0
 12  7  1  0
 13 14  2  0
 15 13  1  0
 15 16  1  0
 16 19  1  0
 16 17  1  1
 18 17  1  0
 19 20  2  0
 21 22  1  0
 22 23  2  0
 24 22  1  0
 24 25  1  0
 26 25  1  6
 26 28  1  0
 27 26  1  0
 27 19  1  0
 28 29  2  0
 28 30  1  0
M  END
$$$$
