WCQ.pdb
     RDKit          3D

 30 31  0  0  1  0  0  0  0  0999 V2000
   28.5102  -22.1966  -10.1106 N   0  0  0  0  0  0  0  0  0  0  0  0
   27.5527  -21.1819   -9.8374 C   0  0  1  0  0  0  0  0  0  0  0  0
   28.1950  -19.9255   -9.3046 C   0  0  0  0  0  0  0  0  0  0  0  0
   28.9380  -20.1189   -8.0559 C   0  0  0  0  0  0  0  0  0  0  0  0
   30.2275  -20.6613   -7.9501 C   0  0  0  0  0  0  0  0  0  0  0  0
   30.6159  -20.6779   -6.6836 N   0  0  0  0  0  0  0  0  0  0  0  0
   29.6418  -20.1671   -5.9094 C   0  0  0  0  0  0  0  0  0  0  0  0
   29.5182  -19.9610   -4.5680 C   0  0  0  0  0  0  0  0  0  0  0  0
   28.3641  -19.4103   -4.0471 C   0  0  0  0  0  0  0  0  0  0  0  0
   27.3233  -19.0631   -4.8823 C   0  0  0  0  0  0  0  0  0  0  0  0
   27.4424  -19.2679   -6.2310 C   0  0  0  0  0  0  0  0  0  0  0  0
   28.6004  -19.8195   -6.7518 C   0  0  0  0  0  0  0  0  0  0  0  0
   26.7384  -20.8324  -11.0541 C   0  0  0  0  0  0  0  0  0  0  0  0
   27.3453  -20.6717  -12.1415 O   0  0  0  0  0  0  0  0  0  0  0  0
   25.3498  -20.6779  -11.0363 N   0  0  0  0  0  0  0  0  0  0  0  0
   24.4657  -20.9026  -12.1868 C   0  0  1  0  0  0  0  0  0  0  0  0
   24.5154  -22.3609  -12.5756 C   0  0  0  0  0  0  0  0  0  0  0  0
   23.2639  -22.6789  -13.8259 S   0  0  0  0  0  0  0  0  0  0  0  0
   23.1163  -20.5133  -11.7600 C   0  0  0  0  0  0  0  0  0  0  0  0
   22.4426  -21.2992  -11.0284 O   0  0  0  0  0  0  0  0  0  0  0  0
   20.3837  -19.2230  -16.4661 N   0  0  0  0  0  0  0  0  0  0  0  0
   19.3214  -18.7385  -15.6602 C   0  0  0  0  0  0  0  0  0  0  0  0
   18.1895  -18.5922  -16.1792 O   0  0  0  0  0  0  0  0  0  0  0  0
   19.5255  -18.4050  -14.2261 C   0  0  0  0  0  0  0  0  0  0  0  0
   20.9682  -18.6336  -13.8480 C   0  0  0  0  0  0  0  0  0  0  0  0
   21.1179  -19.1591  -12.4463 C   0  0  2  0  0  0  0  0  0  0  0  0
   22.5362  -19.2972  -12.1272 N   0  0  0  0  0  0  0  0  0  0  0  0
   20.4446  -20.4638  -12.2743 C   0  0  0  0  0  0  0  0  0  0  0  0
   19.3969  -20.5834  -11.5896 O   0  0  0  0  0  0  0  0  0  0  0  0
   20.9351  -21.6258  -12.8608 O   0  0  0  0  0  0  0  0  0  0  0  0
  2  3  1  0
  2  1  1  6
  2 13  1  0
  3  4  1  0
  4 12  1  0
  4  5  2  0
  5  6  1  0
  7  6  1  0
  7  8  2  0
  9  8  1  0
 10  9  2  0
 11 12  2  0
 11 10  1  0
 12  7  1  0
 13 14  2  0
 15 13  1  0
 15 16  1  0
 16 19  1  0
 16 17  1  1
 18 17  1  0
 19 20  2  0
 21 22  1  0
 22 23  2  0
 24 22  1  0
 24 25  1  0
 26 25  1  6
 26 28  1  0
 27 26  1  0
 27 19  1  0
 28 29  2  0
 28 30  1  0
M  END
$$$$
