WCQ.pdb
     RDKit          3D

 30 31  0  0  1  0  0  0  0  0999 V2000
   26.1671  -19.3361  -18.2990 N   0  0  0  0  0  0  0  0  0  0  0  0
   25.3548  -19.9932  -17.3349 C   0  0  1  0  0  0  0  0  0  0  0  0
   26.1505  -20.4419  -16.1348 C   0  0  0  0  0  0  0  0  0  0  0  0
   26.8872  -21.6922  -16.3413 C   0  0  0  0  0  0  0  0  0  0  0  0
   28.2070  -21.7937  -16.8060 C   0  0  0  0  0  0  0  0  0  0  0  0
   28.5785  -23.0642  -16.8594 N   0  0  0  0  0  0  0  0  0  0  0  0
   27.5634  -23.8455  -16.4490 C   0  0  0  0  0  0  0  0  0  0  0  0
   27.4087  -25.1929  -16.3163 C   0  0  0  0  0  0  0  0  0  0  0  0
   26.2150  -25.7201  -15.8651 C   0  0  0  0  0  0  0  0  0  0  0  0
   25.1656  -24.8851  -15.5440 C   0  0  0  0  0  0  0  0  0  0  0  0
   25.3159  -23.5303  -15.6753 C   0  0  0  0  0  0  0  0  0  0  0  0
   26.5136  -23.0033  -16.1272 C   0  0  0  0  0  0  0  0  0  0  0  0
   24.2193  -19.1230  -16.8668 C   0  0  0  0  0  0  0  0  0  0  0  0
   24.4653  -17.9161  -16.6232 O   0  0  0  0  0  0  0  0  0  0  0  0
   22.9130  -19.5863  -16.6896 N   0  0  0  0  0  0  0  0  0  0  0  0
   21.7674  -18.7454  -16.3203 C   0  0  1  0  0  0  0  0  0  0  0  0
   21.5240  -17.7288  -17.4100 C   0  0  0  0  0  0  0  0  0  0  0  0
   20.1342  -16.6887  -16.9438 S   0  0  0  0  0  0  0  0  0  0  0  0
   20.6184  -19.6463  -16.1693 C   0  0  0  0  0  0  0  0  0  0  0  0
   20.3964  -20.5273  -17.0532 O   0  0  0  0  0  0  0  0  0  0  0  0
   21.1767  -20.9306  -13.8342 N   0  0  0  0  0  0  0  0  0  0  0  0
   20.5493  -22.1125  -13.3627 C   0  0  0  0  0  0  0  0  0  0  0  0
   21.2619  -23.1117  -13.1063 O   0  0  0  0  0  0  0  0  0  0  0  0
   19.0773  -22.1854  -13.1695 C   0  0  0  0  0  0  0  0  0  0  0  0
   18.4544  -20.8455  -13.4745 C   0  0  0  0  0  0  0  0  0  0  0  0
   18.5989  -20.4614  -14.9220 C   0  0  2  0  0  0  0  0  0  0  0  0
   19.7498  -19.5762  -15.0780 N   0  0  0  0  0  0  0  0  0  0  0  0
   17.3867  -19.7891  -15.4353 C   0  0  0  0  0  0  0  0  0  0  0  0
   17.4116  -18.6009  -15.8454 O   0  0  0  0  0  0  0  0  0  0  0  0
   16.1565  -20.4361  -15.4911 O   0  0  0  0  0  0  0  0  0  0  0  0
  2  3  1  0
  2  1  1  6
  2 13  1  0
  3  4  1  0
  4 12  1  0
  4  5  2  0
  5  6  1  0
  7  6  1  0
  7  8  2  0
  9  8  1  0
 10  9  2  0
 11 12  2  0
 11 10  1  0
 12  7  1  0
 13 14  2  0
 15 13  1  0
 15 16  1  0
 16 19  1  0
 16 17  1  6
 18 17  1  0
 19 20  2  0
 21 22  1  0
 22 23  2  0
 24 22  1  0
 24 25  1  0
 26 25  1  1
 26 28  1  0
 27 26  1  0
 27 19  1  0
 28 29  2  0
 28 30  1  0
M  END
$$$$
