KYM.pdb
     RDKit          3D

 30 30  0  0  1  0  0  0  0  0999 V2000
    9.5957  -16.4188   17.7698 N   0  0  0  0  0  0  0  0  0  0  0  0
    9.7175  -15.4747   18.8386 C   0  0  1  0  0  0  0  0  0  0  0  0
    8.3883  -14.8801   19.2011 C   0  0  0  0  0  0  0  0  0  0  0  0
    7.8177  -14.2006   17.9734 C   0  0  0  0  0  0  0  0  0  0  0  0
    6.4651  -13.5960   18.2276 C   0  0  0  0  0  0  0  0  0  0  0  0
    5.8880  -12.9479   16.9867 C   0  0  0  0  0  0  0  0  0  0  0  0
    4.6058  -12.3206   17.2649 N   0  0  0  0  0  0  0  0  0  0  0  0
   10.3995  -16.0485   20.0319 C   0  0  0  0  0  0  0  0  0  0  0  0
   10.4505  -17.3045   20.1451 O   0  0  0  0  0  0  0  0  0  0  0  0
   16.2621  -15.8351   17.6758 O   0  0  0  0  0  0  0  0  0  0  0  0
   15.4659  -15.6990   18.8092 C   0  0  0  0  0  0  0  0  0  0  0  0
   14.6126  -14.6265   18.9607 C   0  0  0  0  0  0  0  0  0  0  0  0
   13.8179  -14.4846   20.0846 C   0  0  0  0  0  0  0  0  0  0  0  0
   13.8461  -15.4120   21.1027 C   0  0  0  0  0  0  0  0  0  0  0  0
   13.0310  -15.3264   22.3224 C   0  0  0  0  0  0  0  0  0  0  0  0
   11.6310  -15.8230   22.1707 C   0  0  2  0  0  0  0  0  0  0  0  0
   10.9858  -15.2356   21.0320 N   0  0  0  0  0  0  0  0  0  0  0  0
   10.8764  -15.3934   23.3954 C   0  0  0  0  0  0  0  0  0  0  0  0
   10.9500  -14.2211   23.8053 O   0  0  0  0  0  0  0  0  0  0  0  0
   14.7043  -16.4877   20.9468 C   0  0  0  0  0  0  0  0  0  0  0  0
   15.4977  -16.6304   19.8258 C   0  0  0  0  0  0  0  0  0  0  0  0
    6.2326  -12.7339   27.1338 C   0  0  0  0  0  0  0  0  0  0  0  0
    7.0021  -12.7223   25.4931 S   0  0  0  0  0  0  0  0  0  0  0  0
    6.9075  -14.3431   24.7548 C   0  0  0  0  0  0  0  0  0  0  0  0
    8.1313  -14.8631   24.1012 C   0  0  0  0  0  0  0  0  0  0  0  0
    8.9123  -15.8317   24.8739 C   0  0  2  0  0  0  0  0  0  0  0  0
   10.0701  -16.3095   24.1044 N   0  0  0  0  0  0  0  0  0  0  0  0
    8.2375  -16.9592   25.4690 C   0  0  0  0  0  0  0  0  0  0  0  0
    7.2390  -16.6996   26.2536 O   0  0  0  0  0  0  0  0  0  0  0  0
    8.4896  -18.3049   25.3248 O   0  0  0  0  0  0  0  0  0  0  0  0
  2  1  1  6
  2  8  1  0
  2  3  1  0
  4  3  1  0
  5  6  1  0
  5  4  1  0
  6  7  1  0
  8  9  2  0
 10 11  1  0
 11 21  2  0
 11 12  1  0
 12 13  2  0
 13 14  1  0
 14 15  1  0
 16 15  1  1
 17 16  1  0
 17  8  1  0
 18 19  2  0
 18 16  1  0
 20 14  2  0
 21 20  1  0
 23 24  1  0
 23 22  1  0
 24 25  1  0
 26 25  1  6
 26 27  1  0
 26 28  1  0
 27 18  1  0
 28 30  1  0
 29 28  2  0
M  END
$$$$
