KYM.pdb
     RDKit          3D

 30 30  0  0  1  0  0  0  0  0999 V2000
   10.1316  -17.9098   19.4858 N   0  0  0  0  0  0  0  0  0  0  0  0
   10.7939  -16.9128   20.2706 C   0  0  1  0  0  0  0  0  0  0  0  0
   10.5947  -15.5403   19.6978 C   0  0  0  0  0  0  0  0  0  0  0  0
    9.1324  -15.1710   19.8391 C   0  0  0  0  0  0  0  0  0  0  0  0
    8.8139  -13.8387   19.2199 C   0  0  0  0  0  0  0  0  0  0  0  0
    7.3370  -13.5129   19.2967 C   0  0  0  0  0  0  0  0  0  0  0  0
    7.0321  -12.2719   18.6025 N   0  0  0  0  0  0  0  0  0  0  0  0
   10.4024  -16.9642   21.7068 C   0  0  0  0  0  0  0  0  0  0  0  0
    9.2311  -17.3361   21.9943 O   0  0  0  0  0  0  0  0  0  0  0  0
   10.8834  -16.9477   30.5762 O   0  0  0  0  0  0  0  0  0  0  0  0
   11.1594  -16.8041   29.2198 C   0  0  0  0  0  0  0  0  0  0  0  0
   11.4584  -17.8943   28.4302 C   0  0  0  0  0  0  0  0  0  0  0  0
   11.7337  -17.7594   27.0809 C   0  0  0  0  0  0  0  0  0  0  0  0
   11.7207  -16.5260   26.4677 C   0  0  0  0  0  0  0  0  0  0  0  0
   12.0020  -16.3080   25.0419 C   0  0  0  0  0  0  0  0  0  0  0  0
   10.8963  -16.7088   24.1219 C   0  0  2  0  0  0  0  0  0  0  0  0
   11.2956  -16.6119   22.7474 N   0  0  0  0  0  0  0  0  0  0  0  0
    9.7696  -15.7407   24.3396 C   0  0  0  0  0  0  0  0  0  0  0  0
    9.9657  -14.5145   24.2654 O   0  0  0  0  0  0  0  0  0  0  0  0
   11.4200  -15.4335   27.2640 C   0  0  0  0  0  0  0  0  0  0  0  0
   11.1450  -15.5669   28.6105 C   0  0  0  0  0  0  0  0  0  0  0  0
    6.4773  -10.8765   25.8834 C   0  0  0  0  0  0  0  0  0  0  0  0
    5.3107  -12.2632   25.8912 S   0  0  0  0  0  0  0  0  0  0  0  0
    6.1445  -13.7694   26.3572 C   0  0  0  0  0  0  0  0  0  0  0  0
    6.9351  -14.4586   25.3107 C   0  0  0  0  0  0  0  0  0  0  0  0
    7.7129  -15.6192   25.7504 C   0  0  2  0  0  0  0  0  0  0  0  0
    8.4684  -16.2022   24.6322 N   0  0  0  0  0  0  0  0  0  0  0  0
    7.0473  -16.6730   26.4767 C   0  0  0  0  0  0  0  0  0  0  0  0
    6.3586  -16.3250   27.5181 O   0  0  0  0  0  0  0  0  0  0  0  0
    7.0221  -18.0265   26.2264 O   0  0  0  0  0  0  0  0  0  0  0  0
  2  1  1  6
  2  8  1  0
  2  3  1  0
  4  3  1  0
  5  6  1  0
  5  4  1  0
  6  7  1  0
  8  9  2  0
 10 11  1  0
 11 21  2  0
 11 12  1  0
 12 13  2  0
 13 14  1  0
 14 15  1  0
 16 15  1  1
 17 16  1  0
 17  8  1  0
 18 19  2  0
 18 16  1  0
 20 14  2  0
 21 20  1  0
 23 24  1  0
 23 22  1  0
 24 25  1  0
 26 25  1  6
 26 27  1  0
 26 28  1  0
 27 18  1  0
 28 30  1  0
 29 28  2  0
M  END
$$$$
