KYM.pdb
     RDKit          3D

 30 30  0  0  1  0  0  0  0  0999 V2000
    7.0949  -18.7386   21.2973 N   0  0  0  0  0  0  0  0  0  0  0  0
    8.3589  -18.7876   20.6277 C   0  0  1  0  0  0  0  0  0  0  0  0
    8.1923  -19.0246   19.1554 C   0  0  0  0  0  0  0  0  0  0  0  0
    7.4332  -20.3213   18.9630 C   0  0  0  0  0  0  0  0  0  0  0  0
    7.3537  -20.7317   17.5190 C   0  0  0  0  0  0  0  0  0  0  0  0
    6.4785  -21.9515   17.3204 C   0  0  0  0  0  0  0  0  0  0  0  0
    6.4716  -22.3770   15.9298 N   0  0  0  0  0  0  0  0  0  0  0  0
    9.1922  -17.5818   20.8929 C   0  0  0  0  0  0  0  0  0  0  0  0
   10.3698  -17.5573   20.4396 O   0  0  0  0  0  0  0  0  0  0  0  0
    7.6086  -13.4010   15.9781 O   0  0  0  0  0  0  0  0  0  0  0  0
    7.9206  -13.5711   17.3237 C   0  0  0  0  0  0  0  0  0  0  0  0
    8.9848  -14.3538   17.7189 C   0  0  0  0  0  0  0  0  0  0  0  0
    9.3012  -14.5275   19.0547 C   0  0  0  0  0  0  0  0  0  0  0  0
    8.5636  -13.9237   20.0492 C   0  0  0  0  0  0  0  0  0  0  0  0
    8.8415  -14.0627   21.4855 C   0  0  0  0  0  0  0  0  0  0  0  0
    9.5377  -15.3282   21.8643 C   0  0  2  0  0  0  0  0  0  0  0  0
    8.7076  -16.4746   21.6305 N   0  0  0  0  0  0  0  0  0  0  0  0
    9.8116  -15.2556   23.3387 C   0  0  0  0  0  0  0  0  0  0  0  0
    9.4272  -14.2787   24.0063 O   0  0  0  0  0  0  0  0  0  0  0  0
    7.4956  -13.1385   19.6483 C   0  0  0  0  0  0  0  0  0  0  0  0
    7.1790  -12.9644   18.3156 C   0  0  0  0  0  0  0  0  0  0  0  0
    9.5246  -14.6843   30.4277 C   0  0  0  0  0  0  0  0  0  0  0  0
    8.8757  -15.0610   28.7781 S   0  0  0  0  0  0  0  0  0  0  0  0
   10.2038  -15.5301   27.6840 C   0  0  0  0  0  0  0  0  0  0  0  0
    9.8831  -15.6556   26.2429 C   0  0  0  0  0  0  0  0  0  0  0  0
   10.9742  -16.1088   25.3772 C   0  0  2  0  0  0  0  0  0  0  0  0
   10.5091  -16.2923   23.9948 N   0  0  0  0  0  0  0  0  0  0  0  0
   11.7518  -17.2569   25.7747 C   0  0  0  0  0  0  0  0  0  0  0  0
   11.6083  -18.3362   25.0715 O   0  0  0  0  0  0  0  0  0  0  0  0
   12.6525  -17.3879   26.8076 O   0  0  0  0  0  0  0  0  0  0  0  0
  2  1  1  1
  2  8  1  0
  2  3  1  0
  4  3  1  0
  5  6  1  0
  5  4  1  0
  6  7  1  0
  8  9  2  0
 10 11  1  0
 11 21  2  0
 11 12  1  0
 12 13  2  0
 13 14  1  0
 14 15  1  0
 16 15  1  1
 17 16  1  0
 17  8  1  0
 18 19  2  0
 18 16  1  0
 20 14  2  0
 21 20  1  0
 23 24  1  0
 23 22  1  0
 24 25  1  0
 26 25  1  1
 26 27  1  0
 26 28  1  0
 27 18  1  0
 28 30  1  0
 29 28  2  0
M  END
$$$$
