KYM.pdb
     RDKit          3D

 30 30  0  0  1  0  0  0  0  0999 V2000
    8.8130  -17.0715   18.7333 N   0  0  0  0  0  0  0  0  0  0  0  0
    9.7519  -15.9953   18.8278 C   0  0  1  0  0  0  0  0  0  0  0  0
    9.5967  -15.0288   17.6905 C   0  0  0  0  0  0  0  0  0  0  0  0
    9.1427  -15.7987   16.4675 C   0  0  0  0  0  0  0  0  0  0  0  0
    8.9939  -14.9193   15.2574 C   0  0  0  0  0  0  0  0  0  0  0  0
    8.4168  -15.6693   14.0751 C   0  0  0  0  0  0  0  0  0  0  0  0
    8.2867  -14.8051   12.9128 N   0  0  0  0  0  0  0  0  0  0  0  0
    9.6922  -15.2999   20.1436 C   0  0  0  0  0  0  0  0  0  0  0  0
   10.5407  -14.3963   20.3814 O   0  0  0  0  0  0  0  0  0  0  0  0
    6.3540  -11.7124   27.4888 O   0  0  0  0  0  0  0  0  0  0  0  0
    6.6283  -12.5570   26.4172 C   0  0  0  0  0  0  0  0  0  0  0  0
    7.3507  -12.1198   25.3271 C   0  0  0  0  0  0  0  0  0  0  0  0
    7.6274  -12.9536   24.2581 C   0  0  0  0  0  0  0  0  0  0  0  0
    7.1913  -14.2601   24.2380 C   0  0  0  0  0  0  0  0  0  0  0  0
    7.4481  -15.2010   23.1389 C   0  0  0  0  0  0  0  0  0  0  0  0
    8.7220  -14.9592   22.3984 C   0  0  2  0  0  0  0  0  0  0  0  0
    8.7226  -15.6192   21.1247 N   0  0  0  0  0  0  0  0  0  0  0  0
    9.8288  -15.5528   23.2211 C   0  0  0  0  0  0  0  0  0  0  0  0
   10.9602  -15.0355   23.2270 O   0  0  0  0  0  0  0  0  0  0  0  0
    6.4660  -14.6955   25.3346 C   0  0  0  0  0  0  0  0  0  0  0  0
    6.1893  -13.8643   26.4019 C   0  0  0  0  0  0  0  0  0  0  0  0
   10.0666  -13.9990   30.0807 C   0  0  0  0  0  0  0  0  0  0  0  0
    9.7458  -13.8748   28.3015 S   0  0  0  0  0  0  0  0  0  0  0  0
    9.5961  -15.5015   27.5855 C   0  0  0  0  0  0  0  0  0  0  0  0
    9.3476  -15.5804   26.1270 C   0  0  0  0  0  0  0  0  0  0  0  0
    9.9626  -16.7116   25.4289 C   0  0  2  0  0  0  0  0  0  0  0  0
    9.6077  -16.7071   24.0024 N   0  0  0  0  0  0  0  0  0  0  0  0
    9.7858  -18.0412   25.9598 C   0  0  0  0  0  0  0  0  0  0  0  0
    8.7587  -18.7104   25.5389 O   0  0  0  0  0  0  0  0  0  0  0  0
   10.5618  -18.7326   26.8626 O   0  0  0  0  0  0  0  0  0  0  0  0
  2  1  1  1
  2  8  1  0
  2  3  1  0
  4  3  1  0
  5  6  1  0
  5  4  1  0
  6  7  1  0
  8  9  2  0
 10 11  1  0
 11 21  2  0
 11 12  1  0
 12 13  2  0
 13 14  1  0
 14 15  1  0
 16 15  1  1
 17 16  1  0
 17  8  1  0
 18 19  2  0
 18 16  1  0
 20 14  2  0
 21 20  1  0
 23 24  1  0
 23 22  1  0
 24 25  1  0
 26 25  1  1
 26 27  1  0
 26 28  1  0
 27 18  1  0
 28 30  1  0
 29 28  2  0
M  END
$$$$
