KYM.pdb
     RDKit          3D

 30 30  0  0  1  0  0  0  0  0999 V2000
   11.5737  -16.6513   20.0452 N   0  0  0  0  0  0  0  0  0  0  0  0
   10.4054  -17.3896   20.4173 C   0  0  1  0  0  0  0  0  0  0  0  0
   10.4481  -18.7916   19.8842 C   0  0  0  0  0  0  0  0  0  0  0  0
   10.3871  -18.7301   18.3719 C   0  0  0  0  0  0  0  0  0  0  0  0
   11.7360  -18.9139   17.7344 C   0  0  0  0  0  0  0  0  0  0  0  0
   11.6432  -19.0314   16.2275 C   0  0  0  0  0  0  0  0  0  0  0  0
   12.9555  -19.2185   15.6295 N   0  0  0  0  0  0  0  0  0  0  0  0
   10.1649  -17.3744   21.8871 C   0  0  0  0  0  0  0  0  0  0  0  0
    9.1052  -17.9018   22.3251 O   0  0  0  0  0  0  0  0  0  0  0  0
   10.9545  -15.5198   30.5415 O   0  0  0  0  0  0  0  0  0  0  0  0
   11.1754  -15.6470   29.1733 C   0  0  0  0  0  0  0  0  0  0  0  0
   11.5723  -16.8461   28.6202 C   0  0  0  0  0  0  0  0  0  0  0  0
   11.7938  -16.9803   27.2609 C   0  0  0  0  0  0  0  0  0  0  0  0
   11.6265  -15.9178   26.4003 C   0  0  0  0  0  0  0  0  0  0  0  0
   11.8425  -15.9874   24.9485 C   0  0  0  0  0  0  0  0  0  0  0  0
   10.7599  -16.6837   24.1916 C   0  0  2  0  0  0  0  0  0  0  0  0
   11.0798  -16.7921   22.7974 N   0  0  0  0  0  0  0  0  0  0  0  0
    9.5247  -15.8388   24.3126 C   0  0  0  0  0  0  0  0  0  0  0  0
    9.5683  -14.6174   24.0805 O   0  0  0  0  0  0  0  0  0  0  0  0
   11.2278  -14.7152   26.9596 C   0  0  0  0  0  0  0  0  0  0  0  0
   11.0065  -14.5802   28.3158 C   0  0  0  0  0  0  0  0  0  0  0  0
    5.9262  -11.1818   26.8470 C   0  0  0  0  0  0  0  0  0  0  0  0
    6.3117  -11.7360   25.1653 S   0  0  0  0  0  0  0  0  0  0  0  0
    5.9377  -13.4706   24.9853 C   0  0  0  0  0  0  0  0  0  0  0  0
    7.0313  -14.3556   24.5205 C   0  0  0  0  0  0  0  0  0  0  0  0
    7.2451  -15.5783   25.2979 C   0  0  2  0  0  0  0  0  0  0  0  0
    8.2922  -16.4128   24.6911 N   0  0  0  0  0  0  0  0  0  0  0  0
    6.1098  -16.4043   25.6292 C   0  0  0  0  0  0  0  0  0  0  0  0
    5.3150  -15.9673   26.5551 O   0  0  0  0  0  0  0  0  0  0  0  0
    5.7232  -17.6137   25.0968 O   0  0  0  0  0  0  0  0  0  0  0  0
  2  1  1  1
  2  8  1  0
  2  3  1  0
  4  3  1  0
  5  6  1  0
  5  4  1  0
  6  7  1  0
  8  9  2  0
 10 11  1  0
 11 21  2  0
 11 12  1  0
 12 13  2  0
 13 14  1  0
 14 15  1  0
 16 15  1  1
 17 16  1  0
 17  8  1  0
 18 19  2  0
 18 16  1  0
 20 14  2  0
 21 20  1  0
 23 24  1  0
 23 22  1  0
 24 25  1  0
 26 25  1  6
 26 27  1  0
 26 28  1  0
 27 18  1  0
 28 30  1  0
 29 28  2  0
M  END
$$$$
