KYM.pdb
     RDKit          3D

 30 30  0  0  1  0  0  0  0  0999 V2000
    9.9027  -17.5790   19.0403 N   0  0  0  0  0  0  0  0  0  0  0  0
   10.1890  -18.0522   20.3604 C   0  0  1  0  0  0  0  0  0  0  0  0
   11.5575  -18.6623   20.4410 C   0  0  0  0  0  0  0  0  0  0  0  0
   11.8895  -19.2713   19.0943 C   0  0  0  0  0  0  0  0  0  0  0  0
   13.2219  -19.9673   19.0912 C   0  0  0  0  0  0  0  0  0  0  0  0
   13.5263  -20.6099   17.7541 C   0  0  0  0  0  0  0  0  0  0  0  0
   14.8862  -21.1234   17.7112 N   0  0  0  0  0  0  0  0  0  0  0  0
   10.0017  -16.9992   21.3971 C   0  0  0  0  0  0  0  0  0  0  0  0
   10.9959  -16.2896   21.7151 O   0  0  0  0  0  0  0  0  0  0  0  0
    6.2565  -11.1030   26.8259 O   0  0  0  0  0  0  0  0  0  0  0  0
    6.4875  -12.1003   25.8830 C   0  0  0  0  0  0  0  0  0  0  0  0
    6.0739  -13.3982   26.0970 C   0  0  0  0  0  0  0  0  0  0  0  0
    6.2999  -14.3950   25.1643 C   0  0  0  0  0  0  0  0  0  0  0  0
    6.9499  -14.1316   23.9787 C   0  0  0  0  0  0  0  0  0  0  0  0
    7.2232  -15.1384   22.9438 C   0  0  0  0  0  0  0  0  0  0  0  0
    8.5988  -15.7175   22.9879 C   0  0  2  0  0  0  0  0  0  0  0  0
    8.7552  -16.7733   22.0295 N   0  0  0  0  0  0  0  0  0  0  0  0
    8.7832  -16.3104   24.3549 C   0  0  0  0  0  0  0  0  0  0  0  0
    7.9552  -16.0905   25.2570 O   0  0  0  0  0  0  0  0  0  0  0  0
    7.3637  -12.8269   23.7674 C   0  0  0  0  0  0  0  0  0  0  0  0
    7.1387  -11.8314   24.6975 C   0  0  0  0  0  0  0  0  0  0  0  0
    9.8577  -12.8598   28.3809 C   0  0  0  0  0  0  0  0  0  0  0  0
   10.0065  -14.5005   29.1356 S   0  0  0  0  0  0  0  0  0  0  0  0
   10.7852  -15.6346   28.0005 C   0  0  0  0  0  0  0  0  0  0  0  0
   10.0526  -15.9562   26.7535 C   0  0  0  0  0  0  0  0  0  0  0  0
   10.7438  -16.8368   25.8090 C   0  0  2  0  0  0  0  0  0  0  0  0
    9.8976  -17.1273   24.6426 N   0  0  0  0  0  0  0  0  0  0  0  0
   11.3246  -18.0649   26.2941 C   0  0  0  0  0  0  0  0  0  0  0  0
   12.1932  -17.9666   27.2510 O   0  0  0  0  0  0  0  0  0  0  0  0
   11.0895  -19.3611   25.8942 O   0  0  0  0  0  0  0  0  0  0  0  0
  2  1  1  6
  2  8  1  0
  2  3  1  0
  4  3  1  0
  5  6  1  0
  5  4  1  0
  6  7  1  0
  8  9  2  0
 10 11  1  0
 11 21  2  0
 11 12  1  0
 12 13  2  0
 13 14  1  0
 14 15  1  0
 16 15  1  1
 17 16  1  0
 17  8  1  0
 18 19  2  0
 18 16  1  0
 20 14  2  0
 21 20  1  0
 23 24  1  0
 23 22  1  0
 24 25  1  0
 26 25  1  1
 26 27  1  0
 26 28  1  0
 27 18  1  0
 28 30  1  0
 29 28  2  0
M  END
$$$$
