KYM.pdb
     RDKit          3D

 30 30  0  0  1  0  0  0  0  0999 V2000
   11.5415  -17.0685   19.0231 N   0  0  0  0  0  0  0  0  0  0  0  0
   10.5387  -17.5991   19.8956 C   0  0  1  0  0  0  0  0  0  0  0  0
   10.8546  -19.0081   20.3037 C   0  0  0  0  0  0  0  0  0  0  0  0
   11.1075  -19.8230   19.0521 C   0  0  0  0  0  0  0  0  0  0  0  0
   11.2244  -21.2942   19.3382 C   0  0  0  0  0  0  0  0  0  0  0  0
   11.4084  -22.1078   18.0743 C   0  0  0  0  0  0  0  0  0  0  0  0
   11.7187  -23.4956   18.3790 N   0  0  0  0  0  0  0  0  0  0  0  0
   10.2971  -16.7312   21.0817 C   0  0  0  0  0  0  0  0  0  0  0  0
   11.2594  -16.0477   21.5285 O   0  0  0  0  0  0  0  0  0  0  0  0
    6.4346  -11.9272   27.3963 O   0  0  0  0  0  0  0  0  0  0  0  0
    6.6689  -12.7869   26.3273 C   0  0  0  0  0  0  0  0  0  0  0  0
    6.2673  -14.1055   26.3671 C   0  0  0  0  0  0  0  0  0  0  0  0
    6.4966  -14.9662   25.3082 C   0  0  0  0  0  0  0  0  0  0  0  0
    7.1379  -14.5403   24.1658 C   0  0  0  0  0  0  0  0  0  0  0  0
    7.4141  -15.3968   23.0041 C   0  0  0  0  0  0  0  0  0  0  0  0
    8.8408  -15.8152   22.8655 C   0  0  2  0  0  0  0  0  0  0  0  0
    9.0336  -16.6513   21.7158 N   0  0  0  0  0  0  0  0  0  0  0  0
    9.1820  -16.6258   24.0823 C   0  0  0  0  0  0  0  0  0  0  0  0
    9.0785  -17.8655   24.0663 O   0  0  0  0  0  0  0  0  0  0  0  0
    7.5397  -13.2154   24.1297 C   0  0  0  0  0  0  0  0  0  0  0  0
    7.3114  -12.3557   25.1858 C   0  0  0  0  0  0  0  0  0  0  0  0
   10.7782  -13.4920   29.7725 C   0  0  0  0  0  0  0  0  0  0  0  0
   10.8084  -13.2155   27.9818 S   0  0  0  0  0  0  0  0  0  0  0  0
   11.2928  -14.7082   27.1343 C   0  0  0  0  0  0  0  0  0  0  0  0
   10.5745  -15.9541   27.4907 C   0  0  0  0  0  0  0  0  0  0  0  0
   10.1649  -16.8045   26.3708 C   0  0  2  0  0  0  0  0  0  0  0  0
    9.6262  -15.9984   25.2659 N   0  0  0  0  0  0  0  0  0  0  0  0
    9.2821  -17.9170   26.6236 C   0  0  0  0  0  0  0  0  0  0  0  0
    9.6952  -18.8172   27.4596 O   0  0  0  0  0  0  0  0  0  0  0  0
    8.0323  -18.1763   26.1076 O   0  0  0  0  0  0  0  0  0  0  0  0
  2  1  1  1
  2  8  1  0
  2  3  1  0
  4  3  1  0
  5  6  1  0
  5  4  1  0
  6  7  1  0
  8  9  2  0
 10 11  1  0
 11 21  2  0
 11 12  1  0
 12 13  2  0
 13 14  1  0
 14 15  1  0
 16 15  1  1
 17 16  1  0
 17  8  1  0
 18 19  2  0
 18 16  1  0
 20 14  2  0
 21 20  1  0
 23 24  1  0
 23 22  1  0
 24 25  1  0
 26 25  1  1
 26 27  1  0
 26 28  1  0
 27 18  1  0
 28 30  1  0
 29 28  2  0
M  END
$$$$
