FII.pdb
     RDKit          3D

 28 28  0  0  1  0  0  0  0  0999 V2000
   23.5493  -21.7680  -13.3526 N   0  0  0  0  0  0  0  0  0  0  0  0
   23.8434  -20.6895  -12.4470 C   0  0  1  0  0  0  0  0  0  0  0  0
   22.6164  -20.1251  -11.7694 C   0  0  0  0  0  0  0  0  0  0  0  0
   21.7563  -19.4267  -12.7511 C   0  0  0  0  0  0  0  0  0  0  0  0
   20.4849  -19.9034  -12.9675 C   0  0  0  0  0  0  0  0  0  0  0  0
   19.6269  -19.3120  -13.8595 C   0  0  0  0  0  0  0  0  0  0  0  0
   20.0514  -18.2202  -14.5490 C   0  0  0  0  0  0  0  0  0  0  0  0
   21.3233  -17.7237  -14.3488 C   0  0  0  0  0  0  0  0  0  0  0  0
   22.1837  -18.3219  -13.4503 C   0  0  0  0  0  0  0  0  0  0  0  0
   24.8032  -21.1573  -11.4146 C   0  0  0  0  0  0  0  0  0  0  0  0
   24.6855  -22.2957  -10.9012 O   0  0  0  0  0  0  0  0  0  0  0  0
   29.6959  -21.3727  -12.9286 C   0  0  0  0  0  0  0  0  0  0  0  0
   28.3259  -21.5382  -12.2540 C   0  0  0  0  0  0  0  0  0  0  0  0
   28.2611  -20.7873  -10.9670 C   0  0  2  0  0  0  0  0  0  0  0  0
   29.4500  -21.1751  -10.1098 C   0  0  0  0  0  0  0  0  0  0  0  0
   26.9931  -20.8757  -10.1958 C   0  0  2  0  0  0  0  0  0  0  0  0
   25.8720  -20.3420  -10.9801 N   0  0  0  0  0  0  0  0  0  0  0  0
   27.0148  -20.1116   -8.9324 C   0  0  0  0  0  0  0  0  0  0  0  0
   26.5307  -18.9227   -8.9385 O   0  0  0  0  0  0  0  0  0  0  0  0
   27.1785  -22.0956   -3.7131 C   0  0  0  0  0  0  0  0  0  0  0  0
   26.8445  -21.3081   -4.9765 C   0  0  0  0  0  0  0  0  0  0  0  0
   27.9155  -20.3240   -5.3119 C   0  0  2  0  0  0  0  0  0  0  0  0
   28.2002  -19.3766   -4.1643 C   0  0  0  0  0  0  0  0  0  0  0  0
   27.6107  -19.6122   -6.5859 C   0  0  2  0  0  0  0  0  0  0  0  0
   27.5155  -20.5635   -7.7014 N   0  0  0  0  0  0  0  0  0  0  0  0
   28.5887  -18.5800   -6.9587 C   0  0  0  0  0  0  0  0  0  0  0  0
   28.3704  -17.2074   -6.8913 O   0  0  0  0  0  0  0  0  0  0  0  0
   29.7277  -18.9391   -7.3801 O   0  0  0  0  0  0  0  0  0  0  0  0
  2  3  1  0
  2  1  1  6
  4  9  2  0
  4  3  1  0
  5  4  1  0
  6  7  1  0
  6  5  2  0
  7  8  2  0
  8  9  1  0
 10  2  1  0
 10 11  2  0
 12 13  1  0
 14 13  1  0
 14 15  1  1
 14 16  1  0
 16 17  1  6
 17 10  1  0
 18 16  1  0
 19 18  2  0
 20 21  1  0
 21 22  1  0
 22 24  1  0
 22 23  1  1
 24 25  1  6
 24 26  1  0
 25 18  1  0
 26 28  2  0
 26 27  1  0
M  END
$$$$
