FII.pdb
     RDKit          3D

 28 28  0  0  1  0  0  0  0  0999 V2000
   28.0047  -21.2529  -10.8325 N   0  0  0  0  0  0  0  0  0  0  0  0
   26.5970  -21.0007  -10.6756 C   0  0  1  0  0  0  0  0  0  0  0  0
   26.2975  -19.7373   -9.9027 C   0  0  0  0  0  0  0  0  0  0  0  0
   26.7808  -19.8548   -8.5085 C   0  0  0  0  0  0  0  0  0  0  0  0
   26.0869  -20.6618   -7.6381 C   0  0  0  0  0  0  0  0  0  0  0  0
   26.4710  -20.8240   -6.3312 C   0  0  0  0  0  0  0  0  0  0  0  0
   27.5732  -20.1640   -5.8872 C   0  0  0  0  0  0  0  0  0  0  0  0
   28.2856  -19.3483   -6.7423 C   0  0  0  0  0  0  0  0  0  0  0  0
   27.8958  -19.1877   -8.0568 C   0  0  0  0  0  0  0  0  0  0  0  0
   25.9558  -20.9221  -12.0129 C   0  0  0  0  0  0  0  0  0  0  0  0
   26.4942  -20.2753  -12.9431 O   0  0  0  0  0  0  0  0  0  0  0  0
   25.0593  -25.2531  -14.6125 C   0  0  0  0  0  0  0  0  0  0  0  0
   25.3228  -23.7900  -14.2263 C   0  0  0  0  0  0  0  0  0  0  0  0
   24.0490  -23.0240  -14.1032 C   0  0  2  0  0  0  0  0  0  0  0  0
   23.2967  -23.1044  -15.4171 C   0  0  0  0  0  0  0  0  0  0  0  0
   24.1484  -21.6188  -13.6281 C   0  0  2  0  0  0  0  0  0  0  0  0
   24.7281  -21.5682  -12.2796 N   0  0  0  0  0  0  0  0  0  0  0  0
   22.8454  -20.9293  -13.5442 C   0  0  0  0  0  0  0  0  0  0  0  0
   22.1811  -21.0265  -12.4501 O   0  0  0  0  0  0  0  0  0  0  0  0
   21.7224  -16.1590  -15.8324 C   0  0  0  0  0  0  0  0  0  0  0  0
   21.8057  -17.3407  -14.8709 C   0  0  0  0  0  0  0  0  0  0  0  0
   20.7349  -18.3456  -15.1385 C   0  0  2  0  0  0  0  0  0  0  0  0
   19.3477  -17.7535  -14.9959 C   0  0  0  0  0  0  0  0  0  0  0  0
   20.9280  -19.5696  -14.3095 C   0  0  2  0  0  0  0  0  0  0  0  0
   22.2507  -20.1596  -14.5563 N   0  0  0  0  0  0  0  0  0  0  0  0
   19.9214  -20.6190  -14.5249 C   0  0  0  0  0  0  0  0  0  0  0  0
   18.8308  -20.8655  -13.6966 O   0  0  0  0  0  0  0  0  0  0  0  0
   20.0313  -21.3751  -15.5348 O   0  0  0  0  0  0  0  0  0  0  0  0
  2  3  1  0
  2  1  1  6
  4  9  2  0
  4  3  1  0
  5  4  1  0
  6  7  1  0
  6  5  2  0
  7  8  2  0
  8  9  1  0
 10  2  1  0
 10 11  2  0
 12 13  1  0
 14 13  1  0
 14 15  1  6
 14 16  1  0
 16 17  1  1
 17 10  1  0
 18 16  1  0
 19 18  2  0
 20 21  1  0
 21 22  1  0
 22 24  1  0
 22 23  1  1
 24 25  1  6
 24 26  1  0
 25 18  1  0
 26 28  2  0
 26 27  1  0
M  END
$$$$
