FII.pdb
     RDKit          3D

 28 28  0  0  1  0  0  0  0  0999 V2000
   27.5194  -23.6756  -17.4945 N   0  0  0  0  0  0  0  0  0  0  0  0
   26.4812  -23.8167  -16.5086 C   0  0  1  0  0  0  0  0  0  0  0  0
   26.5278  -25.1367  -15.7746 C   0  0  0  0  0  0  0  0  0  0  0  0
   26.1068  -26.2412  -16.6657 C   0  0  0  0  0  0  0  0  0  0  0  0
   24.7648  -26.4132  -16.9104 C   0  0  0  0  0  0  0  0  0  0  0  0
   24.2947  -27.4119  -17.7249 C   0  0  0  0  0  0  0  0  0  0  0  0
   25.1877  -28.2559  -18.3061 C   0  0  0  0  0  0  0  0  0  0  0  0
   26.5396  -28.1031  -18.0751 C   0  0  0  0  0  0  0  0  0  0  0  0
   27.0086  -27.0967  -17.2549 C   0  0  0  0  0  0  0  0  0  0  0  0
   26.5755  -22.7056  -15.5275 C   0  0  0  0  0  0  0  0  0  0  0  0
   27.5331  -21.8964  -15.5680 O   0  0  0  0  0  0  0  0  0  0  0  0
   22.9830  -19.5043  -16.5075 C   0  0  0  0  0  0  0  0  0  0  0  0
   24.2842  -20.1274  -15.9803 C   0  0  0  0  0  0  0  0  0  0  0  0
   24.1329  -20.5859  -14.5692 C   0  0  2  0  0  0  0  0  0  0  0  0
   23.6025  -19.4383  -13.7324 C   0  0  0  0  0  0  0  0  0  0  0  0
   25.3211  -21.2103  -13.9302 C   0  0  2  0  0  0  0  0  0  0  0  0
   25.5975  -22.5247  -14.5242 N   0  0  0  0  0  0  0  0  0  0  0  0
   25.1619  -21.4372  -12.4798 C   0  0  0  0  0  0  0  0  0  0  0  0
   24.3934  -22.3926  -12.0998 O   0  0  0  0  0  0  0  0  0  0  0  0
   27.2035  -20.2165   -6.7586 C   0  0  0  0  0  0  0  0  0  0  0  0
   26.2310  -20.8834   -7.7267 C   0  0  0  0  0  0  0  0  0  0  0  0
   26.5037  -20.4898   -9.1404 C   0  0  2  0  0  0  0  0  0  0  0  0
   26.6930  -18.9941   -9.2904 C   0  0  0  0  0  0  0  0  0  0  0  0
   25.4641  -21.0349  -10.0595 C   0  0  2  0  0  0  0  0  0  0  0  0
   25.7810  -20.7040  -11.4554 N   0  0  0  0  0  0  0  0  0  0  0  0
   24.0986  -20.5644   -9.7860 C   0  0  0  0  0  0  0  0  0  0  0  0
   23.4915  -19.4694  -10.3931 O   0  0  0  0  0  0  0  0  0  0  0  0
   23.3965  -21.1840   -8.9333 O   0  0  0  0  0  0  0  0  0  0  0  0
  2  3  1  0
  2  1  1  6
  4  9  2  0
  4  3  1  0
  5  4  1  0
  6  7  1  0
  6  5  2  0
  7  8  2  0
  8  9  1  0
 10  2  1  0
 10 11  2  0
 12 13  1  0
 14 13  1  0
 14 15  1  1
 14 16  1  0
 16 17  1  6
 17 10  1  0
 18 16  1  0
 19 18  2  0
 20 21  1  0
 21 22  1  0
 22 24  1  0
 22 23  1  1
 24 25  1  6
 24 26  1  0
 25 18  1  0
 26 28  2  0
 26 27  1  0
M  END
$$$$
