FII.pdb
     RDKit          3D

 28 28  0  0  1  0  0  0  0  0999 V2000
   24.4443  -21.5321  -14.0497 N   0  0  0  0  0  0  0  0  0  0  0  0
   24.1875  -21.0447  -12.7207 C   0  0  1  0  0  0  0  0  0  0  0  0
   22.8153  -21.4097  -12.2038 C   0  0  0  0  0  0  0  0  0  0  0  0
   21.7634  -20.7997  -13.0480 C   0  0  0  0  0  0  0  0  0  0  0  0
   21.4193  -19.4876  -12.8235 C   0  0  0  0  0  0  0  0  0  0  0  0
   20.4556  -18.8502  -13.5630 C   0  0  0  0  0  0  0  0  0  0  0  0
   19.8236  -19.5418  -14.5479 C   0  0  0  0  0  0  0  0  0  0  0  0
   20.1520  -20.8598  -14.7915 C   0  0  0  0  0  0  0  0  0  0  0  0
   21.1223  -21.4976  -14.0450 C   0  0  0  0  0  0  0  0  0  0  0  0
   25.2188  -21.5727  -11.7915 C   0  0  0  0  0  0  0  0  0  0  0  0
   25.3964  -22.8083  -11.6687 O   0  0  0  0  0  0  0  0  0  0  0  0
   30.1033  -22.8489  -10.6718 C   0  0  0  0  0  0  0  0  0  0  0  0
   29.6867  -21.4306  -10.2543 C   0  0  0  0  0  0  0  0  0  0  0  0
   28.4386  -21.0050  -10.9512 C   0  0  2  0  0  0  0  0  0  0  0  0
   28.5948  -19.5677  -11.4077 C   0  0  0  0  0  0  0  0  0  0  0  0
   27.1575  -21.1992  -10.2222 C   0  0  2  0  0  0  0  0  0  0  0  0
   26.0277  -20.7075  -11.0214 N   0  0  0  0  0  0  0  0  0  0  0  0
   27.0958  -20.4814   -8.9333 C   0  0  0  0  0  0  0  0  0  0  0  0
   25.9443  -20.1091   -8.5051 O   0  0  0  0  0  0  0  0  0  0  0  0
   25.1566  -21.8228   -5.3764 C   0  0  0  0  0  0  0  0  0  0  0  0
   25.8485  -20.8156   -6.2900 C   0  0  0  0  0  0  0  0  0  0  0  0
   27.2731  -20.6038   -5.8981 C   0  0  2  0  0  0  0  0  0  0  0  0
   27.4177  -20.2762   -4.4260 C   0  0  0  0  0  0  0  0  0  0  0  0
   27.9286  -19.5966   -6.7805 C   0  0  2  0  0  0  0  0  0  0  0  0
   28.1880  -20.1635   -8.1109 N   0  0  0  0  0  0  0  0  0  0  0  0
   29.1982  -19.0653   -6.2641 C   0  0  0  0  0  0  0  0  0  0  0  0
   29.3379  -17.8844   -5.5414 O   0  0  0  0  0  0  0  0  0  0  0  0
   30.2658  -19.7110   -6.4807 O   0  0  0  0  0  0  0  0  0  0  0  0
  2  3  1  0
  2  1  1  6
  4  9  2  0
  4  3  1  0
  5  4  1  0
  6  7  1  0
  6  5  2  0
  7  8  2  0
  8  9  1  0
 10  2  1  0
 10 11  2  0
 12 13  1  0
 14 13  1  0
 14 15  1  1
 14 16  1  0
 16 17  1  6
 17 10  1  0
 18 16  1  0
 19 18  2  0
 20 21  1  0
 21 22  1  0
 22 24  1  0
 22 23  1  1
 24 25  1  6
 24 26  1  0
 25 18  1  0
 26 28  2  0
 26 27  1  0
M  END
$$$$
