FII.pdb
     RDKit          3D

 28 28  0  0  1  0  0  0  0  0999 V2000
   20.1962  -20.2992  -12.6879 N   0  0  0  0  0  0  0  0  0  0  0  0
   21.2001  -21.0218  -13.4227 C   0  0  1  0  0  0  0  0  0  0  0  0
   20.9783  -21.0023  -14.9173 C   0  0  0  0  0  0  0  0  0  0  0  0
   19.8765  -21.9178  -15.2904 C   0  0  0  0  0  0  0  0  0  0  0  0
   19.2435  -22.6245  -14.2952 C   0  0  0  0  0  0  0  0  0  0  0  0
   18.2138  -23.4915  -14.5591 C   0  0  0  0  0  0  0  0  0  0  0  0
   17.8098  -23.6540  -15.8467 C   0  0  0  0  0  0  0  0  0  0  0  0
   18.4302  -22.9557  -16.8625 C   0  0  0  0  0  0  0  0  0  0  0  0
   19.4661  -22.0841  -16.5928 C   0  0  0  0  0  0  0  0  0  0  0  0
   22.5396  -20.4574  -13.1176 C   0  0  0  0  0  0  0  0  0  0  0  0
   22.6732  -19.2410  -12.8417 O   0  0  0  0  0  0  0  0  0  0  0  0
   25.3877  -21.3363   -9.0322 C   0  0  0  0  0  0  0  0  0  0  0  0
   24.7801  -20.7493  -10.3150 C   0  0  0  0  0  0  0  0  0  0  0  0
   25.5238  -21.2050  -11.5248 C   0  0  2  0  0  0  0  0  0  0  0  0
   26.9968  -20.8945  -11.3438 C   0  0  0  0  0  0  0  0  0  0  0  0
   25.0325  -20.7219  -12.8422 C   0  0  2  0  0  0  0  0  0  0  0  0
   23.6984  -21.2653  -13.1280 N   0  0  0  0  0  0  0  0  0  0  0  0
   25.8921  -21.1183  -13.9755 C   0  0  0  0  0  0  0  0  0  0  0  0
   25.7696  -22.3097  -14.4373 O   0  0  0  0  0  0  0  0  0  0  0  0
   27.6435  -18.3948  -19.0890 C   0  0  0  0  0  0  0  0  0  0  0  0
   27.6371  -19.6571  -18.2320 C   0  0  0  0  0  0  0  0  0  0  0  0
   27.2044  -19.3709  -16.8324 C   0  0  2  0  0  0  0  0  0  0  0  0
   28.0022  -18.2450  -16.2070 C   0  0  0  0  0  0  0  0  0  0  0  0
   27.2095  -20.6109  -16.0047 C   0  0  2  0  0  0  0  0  0  0  0  0
   26.8435  -20.3079  -14.6145 N   0  0  0  0  0  0  0  0  0  0  0  0
   28.4929  -21.3274  -15.9847 C   0  0  0  0  0  0  0  0  0  0  0  0
   28.9288  -22.2181  -16.9609 O   0  0  0  0  0  0  0  0  0  0  0  0
   29.2837  -21.1405  -15.0134 O   0  0  0  0  0  0  0  0  0  0  0  0
  2  3  1  0
  2  1  1  1
  4  9  2  0
  4  3  1  0
  5  4  1  0
  6  7  1  0
  6  5  2  0
  7  8  2  0
  8  9  1  0
 10  2  1  0
 10 11  2  0
 12 13  1  0
 14 13  1  0
 14 15  1  1
 14 16  1  0
 16 17  1  6
 17 10  1  0
 18 16  1  0
 19 18  2  0
 20 21  1  0
 21 22  1  0
 22 24  1  0
 22 23  1  1
 24 25  1  1
 24 26  1  0
 25 18  1  0
 26 28  2  0
 26 27  1  0
M  END
$$$$
