IQR.pdb
     RDKit          3D

 29 28  0  0  1  0  0  0  0  0999 V2000
    6.5593  -11.9379   18.9265 C   0  0  0  0  0  0  0  0  0  0  0  0
    8.0229  -12.1844   18.6812 C   0  0  0  0  0  0  0  0  0  0  0  0
    8.4177  -13.4992   19.2757 C   0  0  2  0  0  0  0  0  0  0  0  0
    8.0644  -13.5439   20.7531 C   0  0  0  0  0  0  0  0  0  0  0  0
    9.8866  -13.8090   19.0651 C   0  0  2  0  0  0  0  0  0  0  0  0
   10.1964  -13.8716   17.6425 N   0  0  0  0  0  0  0  0  0  0  0  0
   10.3265  -15.0634   19.6989 C   0  0  0  0  0  0  0  0  0  0  0  0
   10.1208  -15.4093   20.8787 O   0  0  0  0  0  0  0  0  0  0  0  0
   14.1522  -20.2788   17.1585 N   0  0  0  0  0  0  0  0  0  0  0  0
   14.4171  -19.4425   18.2812 C   0  0  0  0  0  0  0  0  0  0  0  0
   15.6195  -19.1029   18.4444 O   0  0  0  0  0  0  0  0  0  0  0  0
   13.3341  -18.9981   19.2028 C   0  0  0  0  0  0  0  0  0  0  0  0
   12.7554  -17.7171   18.6295 C   0  0  0  0  0  0  0  0  0  0  0  0
   11.6899  -17.1466   19.5172 C   0  0  2  0  0  0  0  0  0  0  0  0
   11.0684  -15.9969   18.9008 N   0  0  0  0  0  0  0  0  0  0  0  0
   12.3255  -16.7351   20.8045 C   0  0  0  0  0  0  0  0  0  0  0  0
   12.8663  -15.6020   20.8663 O   0  0  0  0  0  0  0  0  0  0  0  0
    8.6601  -14.5301   28.1425 N   0  0  0  0  0  0  0  0  0  0  0  0
   10.0681  -14.5527   28.4273 C   0  0  0  0  0  0  0  0  0  0  0  0
   10.4933  -14.0560   29.5255 N   0  0  0  0  0  0  0  0  0  0  0  0
   11.0291  -15.0720   27.5608 N   0  0  0  0  0  0  0  0  0  0  0  0
   10.8633  -15.6159   26.3007 C   0  0  0  0  0  0  0  0  0  0  0  0
   11.8954  -16.1303   25.4217 C   0  0  0  0  0  0  0  0  0  0  0  0
   11.5895  -16.6714   24.0851 C   0  0  0  0  0  0  0  0  0  0  0  0
   12.8004  -17.0627   23.2581 C   0  0  2  0  0  0  0  0  0  0  0  0
   12.3395  -17.5706   21.9502 N   0  0  0  0  0  0  0  0  0  0  0  0
   13.7708  -17.9575   23.8419 C   0  0  0  0  0  0  0  0  0  0  0  0
   13.3853  -19.1471   24.1517 O   0  0  0  0  0  0  0  0  0  0  0  0
   15.1013  -17.7150   24.1232 O   0  0  0  0  0  0  0  0  0  0  0  0
  1  2  1  0
  2  3  1  0
  3  4  1  1
  3  5  1  0
  5  6  1  6
  5  7  1  0
  7 15  1  0
  8  7  2  0
  9 10  1  0
 10 12  1  0
 11 10  2  0
 12 13  1  0
 14 13  1  6
 15 14  1  0
 16 14  1  0
 16 17  2  0
 18 19  1  0
 19 20  2  0
 21 19  1  0
 22 21  1  0
 23 24  1  0
 23 22  1  0
 25 24  1  1
 25 26  1  0
 26 16  1  0
 27 25  1  0
 27 29  1  0
 28 27  2  0
M  END
$$$$
