IQR.pdb
     RDKit          3D

 29 28  0  0  1  0  0  0  0  0999 V2000
    8.5659  -21.2525   13.6360 C   0  0  0  0  0  0  0  0  0  0  0  0
    8.4289  -19.7548   13.6680 C   0  0  0  0  0  0  0  0  0  0  0  0
    9.0771  -19.2170   14.9043 C   0  0  2  0  0  0  0  0  0  0  0  0
    8.4342  -19.8128   16.1457 C   0  0  0  0  0  0  0  0  0  0  0  0
    9.0475  -17.7024   14.9584 C   0  0  2  0  0  0  0  0  0  0  0  0
    9.6327  -17.1367   13.7495 N   0  0  0  0  0  0  0  0  0  0  0  0
    9.7407  -17.1354   16.1274 C   0  0  0  0  0  0  0  0  0  0  0  0
   10.9737  -17.0389   16.2827 O   0  0  0  0  0  0  0  0  0  0  0  0
    6.7622  -13.6860   20.4310 N   0  0  0  0  0  0  0  0  0  0  0  0
    7.1749  -13.2151   19.1513 C   0  0  0  0  0  0  0  0  0  0  0  0
    6.6223  -12.1567   18.7485 O   0  0  0  0  0  0  0  0  0  0  0  0
    8.1992  -13.9336   18.3425 C   0  0  0  0  0  0  0  0  0  0  0  0
    8.5853  -15.1820   19.1150 C   0  0  0  0  0  0  0  0  0  0  0  0
    9.5687  -16.0204   18.3542 C   0  0  2  0  0  0  0  0  0  0  0  0
    8.9400  -16.6386   17.2094 N   0  0  0  0  0  0  0  0  0  0  0  0
   10.0837  -17.0821   19.2696 C   0  0  0  0  0  0  0  0  0  0  0  0
    9.2508  -17.7658   19.9171 O   0  0  0  0  0  0  0  0  0  0  0  0
   16.6694  -21.2730   23.1414 N   0  0  0  0  0  0  0  0  0  0  0  0
   16.0590  -22.0268   22.0816 C   0  0  0  0  0  0  0  0  0  0  0  0
   15.7907  -23.2627   22.2657 N   0  0  0  0  0  0  0  0  0  0  0  0
   15.7496  -21.4982   20.8289 N   0  0  0  0  0  0  0  0  0  0  0  0
   14.5963  -20.8589   20.4136 C   0  0  0  0  0  0  0  0  0  0  0  0
   13.9750  -19.6914   21.0078 C   0  0  0  0  0  0  0  0  0  0  0  0
   13.4096  -18.6024   20.1910 C   0  0  0  0  0  0  0  0  0  0  0  0
   11.9487  -18.2903   20.4591 C   0  0  2  0  0  0  0  0  0  0  0  0
   11.4677  -17.3444   19.4320 N   0  0  0  0  0  0  0  0  0  0  0  0
   11.5724  -17.8469   21.7801 C   0  0  0  0  0  0  0  0  0  0  0  0
   11.5731  -18.7156   22.7315 O   0  0  0  0  0  0  0  0  0  0  0  0
   11.2017  -16.5799   22.1866 O   0  0  0  0  0  0  0  0  0  0  0  0
  1  2  1  0
  2  3  1  0
  3  4  1  1
  3  5  1  0
  5  6  1  6
  5  7  1  0
  7 15  1  0
  8  7  2  0
  9 10  1  0
 10 12  1  0
 11 10  2  0
 12 13  1  0
 14 13  1  1
 15 14  1  0
 16 14  1  0
 16 17  2  0
 18 19  1  0
 19 20  2  0
 21 19  1  0
 22 21  1  0
 23 24  1  0
 23 22  1  0
 25 24  1  1
 25 26  1  0
 26 16  1  0
 27 25  1  0
 27 29  1  0
 28 27  2  0
M  END
$$$$
