IQR.pdb
     RDKit          3D

 29 28  0  0  1  0  0  0  0  0999 V2000
    8.2209  -12.3298   18.5785 C   0  0  0  0  0  0  0  0  0  0  0  0
    7.3624  -13.4872   19.0104 C   0  0  0  0  0  0  0  0  0  0  0  0
    7.9021  -14.0674   20.2793 C   0  0  2  0  0  0  0  0  0  0  0  0
    9.3590  -14.4638   20.1069 C   0  0  0  0  0  0  0  0  0  0  0  0
    7.0803  -15.2424   20.7710 C   0  0  2  0  0  0  0  0  0  0  0  0
    5.6635  -14.9018   20.7912 N   0  0  0  0  0  0  0  0  0  0  0  0
    7.4689  -15.7218   22.1081 C   0  0  0  0  0  0  0  0  0  0  0  0
    7.3186  -15.1137   23.1858 O   0  0  0  0  0  0  0  0  0  0  0  0
    5.8839  -20.1827   22.4881 N   0  0  0  0  0  0  0  0  0  0  0  0
    5.3374  -19.1563   23.3113 C   0  0  0  0  0  0  0  0  0  0  0  0
    4.0827  -19.0416   23.2899 O   0  0  0  0  0  0  0  0  0  0  0  0
    6.2013  -18.2752   24.1460 C   0  0  0  0  0  0  0  0  0  0  0  0
    7.6395  -18.6932   23.8987 C   0  0  0  0  0  0  0  0  0  0  0  0
    8.4921  -17.5275   23.4952 C   0  0  2  0  0  0  0  0  0  0  0  0
    8.0847  -17.0139   22.2074 N   0  0  0  0  0  0  0  0  0  0  0  0
    9.9098  -17.9906   23.4175 C   0  0  0  0  0  0  0  0  0  0  0  0
   10.2137  -18.8334   22.5355 O   0  0  0  0  0  0  0  0  0  0  0  0
   13.0146  -14.9176   18.3901 N   0  0  0  0  0  0  0  0  0  0  0  0
   13.9279  -14.4598   19.4001 C   0  0  0  0  0  0  0  0  0  0  0  0
   14.9532  -13.7790   19.0556 N   0  0  0  0  0  0  0  0  0  0  0  0
   13.7829  -14.7294   20.7604 N   0  0  0  0  0  0  0  0  0  0  0  0
   12.9041  -15.5919   21.3890 C   0  0  0  0  0  0  0  0  0  0  0  0
   13.2314  -16.7891   22.1386 C   0  0  0  0  0  0  0  0  0  0  0  0
   13.1531  -16.8395   23.6097 C   0  0  0  0  0  0  0  0  0  0  0  0
   12.3153  -17.9743   24.1698 C   0  0  2  0  0  0  0  0  0  0  0  0
   10.9170  -17.5164   24.2958 N   0  0  0  0  0  0  0  0  0  0  0  0
   12.7551  -18.6177   25.3847 C   0  0  0  0  0  0  0  0  0  0  0  0
   12.0762  -18.4069   26.4592 O   0  0  0  0  0  0  0  0  0  0  0  0
   13.8350  -19.4594   25.5674 O   0  0  0  0  0  0  0  0  0  0  0  0
  1  2  1  0
  2  3  1  0
  3  4  1  6
  3  5  1  0
  5  6  1  1
  5  7  1  0
  7 15  1  0
  8  7  2  0
  9 10  1  0
 10 12  1  0
 11 10  2  0
 12 13  1  0
 14 13  1  6
 15 14  1  0
 16 14  1  0
 16 17  2  0
 18 19  1  0
 19 20  2  0
 21 19  1  0
 22 21  1  0
 23 24  1  0
 23 22  1  0
 25 24  1  1
 25 26  1  0
 26 16  1  0
 27 25  1  0
 27 29  1  0
 28 27  2  0
M  END
$$$$
