IQR.pdb
     RDKit          3D

 29 28  0  0  1  0  0  0  0  0999 V2000
    7.0034  -12.5135   19.6627 C   0  0  0  0  0  0  0  0  0  0  0  0
    7.7907  -13.2386   18.6056 C   0  0  0  0  0  0  0  0  0  0  0  0
    8.9973  -13.8716   19.2231 C   0  0  2  0  0  0  0  0  0  0  0  0
    9.8231  -12.8337   19.9649 C   0  0  0  0  0  0  0  0  0  0  0  0
    9.8469  -14.6067   18.2055 C   0  0  2  0  0  0  0  0  0  0  0  0
    9.0278  -15.5241   17.4236 N   0  0  0  0  0  0  0  0  0  0  0  0
   10.9647  -15.3608   18.7977 C   0  0  0  0  0  0  0  0  0  0  0  0
   10.9565  -15.9627   19.8892 O   0  0  0  0  0  0  0  0  0  0  0  0
   16.7539  -12.9385   17.8503 N   0  0  0  0  0  0  0  0  0  0  0  0
   16.0858  -13.6291   16.7984 C   0  0  0  0  0  0  0  0  0  0  0  0
   16.3555  -13.2462   15.6287 O   0  0  0  0  0  0  0  0  0  0  0  0
   15.1277  -14.7372   17.0703 C   0  0  0  0  0  0  0  0  0  0  0  0
   14.3656  -14.3715   18.3312 C   0  0  0  0  0  0  0  0  0  0  0  0
   13.4579  -15.4817   18.7696 C   0  0  2  0  0  0  0  0  0  0  0  0
   12.1972  -15.4234   18.0658 N   0  0  0  0  0  0  0  0  0  0  0  0
   13.2137  -15.3338   20.2356 C   0  0  0  0  0  0  0  0  0  0  0  0
   12.7145  -14.2573   20.6507 O   0  0  0  0  0  0  0  0  0  0  0  0
    6.6115  -17.4486   22.7800 N   0  0  0  0  0  0  0  0  0  0  0  0
    7.9086  -17.9149   22.3749 C   0  0  0  0  0  0  0  0  0  0  0  0
    8.0345  -18.5258   21.2594 N   0  0  0  0  0  0  0  0  0  0  0  0
    9.0642  -17.7627   23.1400 N   0  0  0  0  0  0  0  0  0  0  0  0
    9.6551  -16.6025   23.6047 C   0  0  0  0  0  0  0  0  0  0  0  0
   10.9321  -16.0443   23.2044 C   0  0  0  0  0  0  0  0  0  0  0  0
   12.1539  -16.8643   23.1171 C   0  0  0  0  0  0  0  0  0  0  0  0
   13.3860  -16.1301   22.6207 C   0  0  2  0  0  0  0  0  0  0  0  0
   13.5220  -16.3568   21.1678 N   0  0  0  0  0  0  0  0  0  0  0  0
   14.6412  -16.3611   23.2949 C   0  0  0  0  0  0  0  0  0  0  0  0
   15.5189  -17.0944   22.7018 O   0  0  0  0  0  0  0  0  0  0  0  0
   15.0531  -15.8900   24.5263 O   0  0  0  0  0  0  0  0  0  0  0  0
  1  2  1  0
  2  3  1  0
  3  4  1  6
  3  5  1  0
  5  6  1  1
  5  7  1  0
  7 15  1  0
  8  7  2  0
  9 10  1  0
 10 12  1  0
 11 10  2  0
 12 13  1  0
 14 13  1  6
 15 14  1  0
 16 14  1  0
 16 17  2  0
 18 19  1  0
 19 20  2  0
 21 19  1  0
 22 21  1  0
 23 24  1  0
 23 22  1  0
 25 24  1  1
 25 26  1  0
 26 16  1  0
 27 25  1  0
 27 29  1  0
 28 27  2  0
M  END
$$$$
