IQR.pdb
     RDKit          3D

 29 28  0  0  1  0  0  0  0  0999 V2000
    6.4492  -11.7405   27.8235 C   0  0  0  0  0  0  0  0  0  0  0  0
    5.7331  -12.7842   27.0105 C   0  0  0  0  0  0  0  0  0  0  0  0
    6.6644  -13.3484   25.9846 C   0  0  2  0  0  0  0  0  0  0  0  0
    7.2415  -12.2392   25.1209 C   0  0  0  0  0  0  0  0  0  0  0  0
    6.0025  -14.4082   25.1263 C   0  0  2  0  0  0  0  0  0  0  0  0
    5.4684  -15.4789   25.9583 N   0  0  0  0  0  0  0  0  0  0  0  0
    6.8962  -14.9981   24.1153 C   0  0  0  0  0  0  0  0  0  0  0  0
    7.6423  -15.9845   24.2711 O   0  0  0  0  0  0  0  0  0  0  0  0
    8.2064  -12.6929   17.8491 N   0  0  0  0  0  0  0  0  0  0  0  0
    8.1980  -14.0820   18.1657 C   0  0  0  0  0  0  0  0  0  0  0  0
    7.7551  -14.8492   17.2696 O   0  0  0  0  0  0  0  0  0  0  0  0
    8.6857  -14.5917   19.4779 C   0  0  0  0  0  0  0  0  0  0  0  0
    7.7130  -14.1056   20.5370 C   0  0  0  0  0  0  0  0  0  0  0  0
    7.8349  -14.8977   21.8045 C   0  0  2  0  0  0  0  0  0  0  0  0
    6.9308  -14.3956   22.8136 N   0  0  0  0  0  0  0  0  0  0  0  0
    9.2403  -14.7792   22.2958 C   0  0  0  0  0  0  0  0  0  0  0  0
    9.4900  -13.9283   23.1868 O   0  0  0  0  0  0  0  0  0  0  0  0
   11.2780  -19.9848   28.6568 N   0  0  0  0  0  0  0  0  0  0  0  0
   11.3334  -18.5858   28.3350 C   0  0  0  0  0  0  0  0  0  0  0  0
   11.9358  -17.7840   29.1274 N   0  0  0  0  0  0  0  0  0  0  0  0
   10.7450  -18.0237   27.2028 N   0  0  0  0  0  0  0  0  0  0  0  0
   10.8715  -18.3982   25.8781 C   0  0  0  0  0  0  0  0  0  0  0  0
   11.4166  -17.6107   24.7894 C   0  0  0  0  0  0  0  0  0  0  0  0
   10.5561  -16.8674   23.8515 C   0  0  0  0  0  0  0  0  0  0  0  0
   11.2880  -16.1899   22.7075 C   0  0  2  0  0  0  0  0  0  0  0  0
   10.2938  -15.5867   21.7971 N   0  0  0  0  0  0  0  0  0  0  0  0
   12.2628  -16.9547   21.9671 C   0  0  0  0  0  0  0  0  0  0  0  0
   11.9337  -17.3799   20.7963 O   0  0  0  0  0  0  0  0  0  0  0  0
   13.5443  -17.3061   22.3446 O   0  0  0  0  0  0  0  0  0  0  0  0
  1  2  1  0
  2  3  1  0
  3  4  1  6
  3  5  1  0
  5  6  1  1
  5  7  1  0
  7 15  1  0
  8  7  2  0
  9 10  1  0
 10 12  1  0
 11 10  2  0
 12 13  1  0
 14 13  1  6
 15 14  1  0
 16 14  1  0
 16 17  2  0
 18 19  1  0
 19 20  2  0
 21 19  1  0
 22 21  1  0
 23 24  1  0
 23 22  1  0
 25 24  1  1
 25 26  1  0
 26 16  1  0
 27 25  1  0
 27 29  1  0
 28 27  2  0
M  END
$$$$
