IQR.pdb
     RDKit          3D

 29 28  0  0  1  0  0  0  0  0999 V2000
    6.5876  -22.3095   17.7505 C   0  0  0  0  0  0  0  0  0  0  0  0
    6.5748  -20.8717   17.3081 C   0  0  0  0  0  0  0  0  0  0  0  0
    7.6314  -20.1100   18.0439 C   0  0  2  0  0  0  0  0  0  0  0  0
    7.3790  -20.1595   19.5416 C   0  0  0  0  0  0  0  0  0  0  0  0
    7.7466  -18.6762   17.5657 C   0  0  2  0  0  0  0  0  0  0  0  0
    8.0793  -18.6360   16.1474 N   0  0  0  0  0  0  0  0  0  0  0  0
    8.7407  -17.8806   18.3057 C   0  0  0  0  0  0  0  0  0  0  0  0
    9.9804  -17.9823   18.2241 O   0  0  0  0  0  0  0  0  0  0  0  0
    7.1708  -12.4675   20.8356 N   0  0  0  0  0  0  0  0  0  0  0  0
    7.4850  -12.6975   19.4651 C   0  0  0  0  0  0  0  0  0  0  0  0
    7.0525  -11.8405   18.6488 O   0  0  0  0  0  0  0  0  0  0  0  0
    8.2783  -13.8806   19.0287 C   0  0  0  0  0  0  0  0  0  0  0  0
    8.5543  -14.7162   20.2656 C   0  0  0  0  0  0  0  0  0  0  0  0
    9.1928  -16.0271   19.9156 C   0  0  2  0  0  0  0  0  0  0  0  0
    8.2605  -16.8832   19.2186 N   0  0  0  0  0  0  0  0  0  0  0  0
    9.6219  -16.6906   21.1829 C   0  0  0  0  0  0  0  0  0  0  0  0
    8.7563  -17.3051   21.8562 O   0  0  0  0  0  0  0  0  0  0  0  0
   16.0431  -17.5851   18.8754 N   0  0  0  0  0  0  0  0  0  0  0  0
   15.6628  -18.9518   19.1024 C   0  0  0  0  0  0  0  0  0  0  0  0
   15.7657  -19.7973   18.1496 N   0  0  0  0  0  0  0  0  0  0  0  0
   15.1580  -19.4286   20.3115 N   0  0  0  0  0  0  0  0  0  0  0  0
   14.6472  -18.7195   21.3827 C   0  0  0  0  0  0  0  0  0  0  0  0
   13.2517  -18.4713   21.6883 C   0  0  0  0  0  0  0  0  0  0  0  0
   12.8347  -17.6516   22.8402 C   0  0  0  0  0  0  0  0  0  0  0  0
   11.3518  -17.3341   22.8994 C   0  0  2  0  0  0  0  0  0  0  0  0
   10.9606  -16.6527   21.6489 N   0  0  0  0  0  0  0  0  0  0  0  0
   10.8470  -16.6230   24.0496 C   0  0  0  0  0  0  0  0  0  0  0  0
   10.6169  -15.3614   23.9262 O   0  0  0  0  0  0  0  0  0  0  0  0
   10.5616  -17.1182   25.3071 O   0  0  0  0  0  0  0  0  0  0  0  0
  1  2  1  0
  2  3  1  0
  3  4  1  1
  3  5  1  0
  5  6  1  6
  5  7  1  0
  7 15  1  0
  8  7  2  0
  9 10  1  0
 10 12  1  0
 11 10  2  0
 12 13  1  0
 14 13  1  1
 15 14  1  0
 16 14  1  0
 16 17  2  0
 18 19  1  0
 19 20  2  0
 21 19  1  0
 22 21  1  0
 23 24  1  0
 23 22  1  0
 25 24  1  1
 25 26  1  0
 26 16  1  0
 27 25  1  0
 27 29  1  0
 28 27  2  0
M  END
$$$$
