NCM.pdb
     RDKit          3D

 23 22  0  0  1  0  0  0  0  0999 V2000
   20.0503  -12.2622  -16.6424 N   0  0  0  0  0  0  0  0  0  0  0  0
   19.9285  -10.9447  -16.1354 C   0  0  0  0  0  0  0  0  0  0  0  0
   19.2576  -10.0893  -16.8019 O   0  0  0  0  0  0  0  0  0  0  0  0
   20.5453  -10.5024  -14.8583 C   0  0  0  0  0  0  0  0  0  0  0  0
   20.5388   -8.9883  -14.8206 C   0  0  2  0  0  0  0  0  0  0  0  0
   21.6882   -8.4887  -15.5450 N   0  0  0  0  0  0  0  0  0  0  0  0
   20.5843   -8.4994  -13.4197 C   0  0  0  0  0  0  0  0  0  0  0  0
   21.5424   -8.8003  -12.6544 O   0  0  0  0  0  0  0  0  0  0  0  0
   19.5252   -7.6847  -12.9580 N   0  0  0  0  0  0  0  0  0  0  0  0
   19.5618   -6.9842  -11.6658 C   0  0  1  0  0  0  0  0  0  0  0  0
   20.5281   -5.8178  -11.7658 C   0  0  0  0  0  0  0  0  0  0  0  0
   19.9778   -4.6918  -13.0528 S   0  0  0  0  0  0  0  0  0  0  0  0
   18.1767   -6.5702  -11.3808 C   0  0  0  0  0  0  0  0  0  0  0  0
   17.3676   -6.2999  -12.3445 O   0  0  0  0  0  0  0  0  0  0  0  0
   13.4435   -9.1922   -8.2879 C   0  0  0  0  0  0  0  0  0  0  0  0
   13.4706   -7.5901   -7.4439 S   0  0  0  0  0  0  0  0  0  0  0  0
   14.2560   -6.3155   -8.4648 C   0  0  0  0  0  0  0  0  0  0  0  0
   15.6249   -6.7754   -8.8386 C   0  0  0  0  0  0  0  0  0  0  0  0
   16.2968   -5.9006   -9.8610 C   0  0  2  0  0  0  0  0  0  0  0  0
   17.6487   -6.4447  -10.0883 N   0  0  0  0  0  0  0  0  0  0  0  0
   16.4275   -4.5011   -9.4594 C   0  0  0  0  0  0  0  0  0  0  0  0
   15.3961   -3.5732   -9.5261 O   0  0  0  0  0  0  0  0  0  0  0  0
   17.5217   -4.0624   -9.0201 O   0  0  0  0  0  0  0  0  0  0  0  0
  1  2  1  0
  2  4  1  0
  2  3  2  0
  4  5  1  0
  5  7  1  0
  5  6  1  6
  7  9  1  0
  8  7  2  0
  9 10  1  0
 10 11  1  6
 10 13  1  0
 11 12  1  0
 13 20  1  0
 13 14  2  0
 16 15  1  0
 16 17  1  0
 17 18  1  0
 19 18  1  1
 20 19  1  0
 21 19  1  0
 21 22  1  0
 23 21  2  0
M  END
$$$$
