NCM.pdb
     RDKit          3D

 23 22  0  0  1  0  0  0  0  0999 V2000
   20.8768  -14.5445  -19.2153 N   0  0  0  0  0  0  0  0  0  0  0  0
   20.7198  -14.5379  -17.8071 C   0  0  0  0  0  0  0  0  0  0  0  0
   20.3747  -15.6171  -17.2221 O   0  0  0  0  0  0  0  0  0  0  0  0
   20.9375  -13.3312  -16.9683 C   0  0  0  0  0  0  0  0  0  0  0  0
   22.4212  -13.1972  -16.6949 C   0  0  2  0  0  0  0  0  0  0  0  0
   22.8545  -14.3017  -15.8655 N   0  0  0  0  0  0  0  0  0  0  0  0
   22.7128  -11.9151  -16.0060 C   0  0  0  0  0  0  0  0  0  0  0  0
   21.9732  -11.4921  -15.0742 O   0  0  0  0  0  0  0  0  0  0  0  0
   23.8434  -11.1731  -16.4183 N   0  0  0  0  0  0  0  0  0  0  0  0
   24.2213   -9.8894  -15.8092 C   0  0  1  0  0  0  0  0  0  0  0  0
   25.7274   -9.7245  -15.9038 C   0  0  0  0  0  0  0  0  0  0  0  0
   26.3177  -10.4706  -17.4276 S   0  0  0  0  0  0  0  0  0  0  0  0
   23.4746   -8.8499  -16.5393 C   0  0  0  0  0  0  0  0  0  0  0  0
   23.1149   -9.0440  -17.7597 O   0  0  0  0  0  0  0  0  0  0  0  0
   17.3469   -6.2006  -19.0339 C   0  0  0  0  0  0  0  0  0  0  0  0
   18.5377   -7.2435  -18.1541 S   0  0  0  0  0  0  0  0  0  0  0  0
   20.0617   -6.3382  -17.7779 C   0  0  0  0  0  0  0  0  0  0  0  0
   21.0358   -7.2773  -17.1499 C   0  0  0  0  0  0  0  0  0  0  0  0
   22.3337   -6.6267  -16.7575 C   0  0  2  0  0  0  0  0  0  0  0  0
   23.1081   -7.6158  -15.9847 N   0  0  0  0  0  0  0  0  0  0  0  0
   22.1787   -5.4252  -15.9393 C   0  0  0  0  0  0  0  0  0  0  0  0
   21.9398   -4.1581  -16.4555 O   0  0  0  0  0  0  0  0  0  0  0  0
   22.2583   -5.4919  -14.6855 O   0  0  0  0  0  0  0  0  0  0  0  0
  1  2  1  0
  2  4  1  0
  2  3  2  0
  4  5  1  0
  5  7  1  0
  5  6  1  1
  7  9  1  0
  8  7  2  0
  9 10  1  0
 10 11  1  6
 10 13  1  0
 11 12  1  0
 13 20  1  0
 13 14  2  0
 16 15  1  0
 16 17  1  0
 17 18  1  0
 19 18  1  1
 20 19  1  0
 21 19  1  0
 21 22  1  0
 23 21  2  0
M  END
$$$$
