NCM.pdb
     RDKit          3D

 23 22  0  0  1  0  0  0  0  0999 V2000
   14.7153  -12.3948  -10.1066 N   0  0  0  0  0  0  0  0  0  0  0  0
   15.7621  -11.8378  -10.8822 C   0  0  0  0  0  0  0  0  0  0  0  0
   16.6120  -12.6213  -11.4206 O   0  0  0  0  0  0  0  0  0  0  0  0
   15.9245  -10.3778  -11.1038 C   0  0  0  0  0  0  0  0  0  0  0  0
   14.8777   -9.6484  -10.2876 C   0  0  2  0  0  0  0  0  0  0  0  0
   13.5610  -10.0160  -10.7639 N   0  0  0  0  0  0  0  0  0  0  0  0
   15.0547   -8.1791  -10.4024 C   0  0  0  0  0  0  0  0  0  0  0  0
   14.6247   -7.5467  -11.4071 O   0  0  0  0  0  0  0  0  0  0  0  0
   15.7191   -7.4988   -9.3562 N   0  0  0  0  0  0  0  0  0  0  0  0
   15.9096   -6.0410   -9.3464 C   0  0  1  0  0  0  0  0  0  0  0  0
   15.4691   -5.4964   -7.9996 C   0  0  0  0  0  0  0  0  0  0  0  0
   13.6916   -5.6903   -7.8266 S   0  0  0  0  0  0  0  0  0  0  0  0
   17.3368   -5.8089   -9.6299 C   0  0  0  0  0  0  0  0  0  0  0  0
   18.2405   -6.2755   -8.8413 O   0  0  0  0  0  0  0  0  0  0  0  0
   20.9024   -8.7393  -14.2031 C   0  0  0  0  0  0  0  0  0  0  0  0
   21.1762   -8.4807  -12.4317 S   0  0  0  0  0  0  0  0  0  0  0  0
   20.9532   -6.7419  -11.9727 C   0  0  0  0  0  0  0  0  0  0  0  0
   19.5763   -6.5616  -11.4280 C   0  0  0  0  0  0  0  0  0  0  0  0
   19.2281   -5.1290  -11.1308 C   0  0  2  0  0  0  0  0  0  0  0  0
   17.8067   -5.0917  -10.7389 N   0  0  0  0  0  0  0  0  0  0  0  0
   19.4162   -4.2197  -12.2599 C   0  0  0  0  0  0  0  0  0  0  0  0
   20.6002   -3.5439  -12.5254 O   0  0  0  0  0  0  0  0  0  0  0  0
   18.4773   -4.0034  -13.0688 O   0  0  0  0  0  0  0  0  0  0  0  0
  1  2  1  0
  2  4  1  0
  2  3  2  0
  4  5  1  0
  5  7  1  0
  5  6  1  6
  7  9  1  0
  8  7  2  0
  9 10  1  0
 10 11  1  1
 10 13  1  0
 11 12  1  0
 13 20  1  0
 13 14  2  0
 16 15  1  0
 16 17  1  0
 17 18  1  0
 19 18  1  6
 20 19  1  0
 21 19  1  0
 21 22  1  0
 23 21  2  0
M  END
$$$$
