NCM.pdb
     RDKit          3D

 23 22  0  0  1  0  0  0  0  0999 V2000
   15.2112  -12.2472   -9.5474 N   0  0  0  0  0  0  0  0  0  0  0  0
   15.3098  -11.9613  -10.9317 C   0  0  0  0  0  0  0  0  0  0  0  0
   15.4064  -12.9310  -11.7542 O   0  0  0  0  0  0  0  0  0  0  0  0
   15.3067  -10.5811  -11.4813 C   0  0  0  0  0  0  0  0  0  0  0  0
   15.1040   -9.6089  -10.3377 C   0  0  2  0  0  0  0  0  0  0  0  0
   13.7681   -9.7723   -9.8046 N   0  0  0  0  0  0  0  0  0  0  0  0
   15.2858   -8.2105  -10.8011 C   0  0  0  0  0  0  0  0  0  0  0  0
   14.4020   -7.6324  -11.4933 O   0  0  0  0  0  0  0  0  0  0  0  0
   16.4770   -7.5356  -10.4486 N   0  0  0  0  0  0  0  0  0  0  0  0
   16.7618   -6.1524  -10.8577 C   0  0  1  0  0  0  0  0  0  0  0  0
   16.3378   -5.2127   -9.7434 C   0  0  0  0  0  0  0  0  0  0  0  0
   16.7700   -5.9324   -8.1552 S   0  0  0  0  0  0  0  0  0  0  0  0
   18.2051   -6.0965  -11.1490 C   0  0  0  0  0  0  0  0  0  0  0  0
   19.0115   -6.9383  -10.6037 O   0  0  0  0  0  0  0  0  0  0  0  0
   21.7630   -9.7345  -13.0079 C   0  0  0  0  0  0  0  0  0  0  0  0
   21.8918   -8.4691  -14.2971 S   0  0  0  0  0  0  0  0  0  0  0  0
   21.7809   -6.7995  -13.6014 C   0  0  0  0  0  0  0  0  0  0  0  0
   20.4176   -6.6078  -13.0274 C   0  0  0  0  0  0  0  0  0  0  0  0
   20.2130   -5.2578  -12.3969 C   0  0  2  0  0  0  0  0  0  0  0  0
   18.7926   -5.1605  -12.0116 N   0  0  0  0  0  0  0  0  0  0  0  0
   20.5278   -4.1321  -13.2750 C   0  0  0  0  0  0  0  0  0  0  0  0
   21.8055   -3.6170  -13.4515 O   0  0  0  0  0  0  0  0  0  0  0  0
   19.6194   -3.5616  -13.9322 O   0  0  0  0  0  0  0  0  0  0  0  0
  1  2  1  0
  2  4  1  0
  2  3  2  0
  4  5  1  0
  5  7  1  0
  5  6  1  6
  7  9  1  0
  8  7  2  0
  9 10  1  0
 10 11  1  1
 10 13  1  0
 11 12  1  0
 13 20  1  0
 13 14  2  0
 16 15  1  0
 16 17  1  0
 17 18  1  0
 19 18  1  6
 20 19  1  0
 21 19  1  0
 21 22  1  0
 23 21  2  0
M  END
$$$$
