NCM.pdb
     RDKit          3D

 23 22  0  0  1  0  0  0  0  0999 V2000
   17.0935  -11.2266  -19.2409 N   0  0  0  0  0  0  0  0  0  0  0  0
   16.8633  -10.8702  -17.8891 C   0  0  0  0  0  0  0  0  0  0  0  0
   15.6635  -10.8337  -17.4588 O   0  0  0  0  0  0  0  0  0  0  0  0
   17.9536  -10.5338  -16.9377 C   0  0  0  0  0  0  0  0  0  0  0  0
   19.2798  -10.6869  -17.6530 C   0  0  2  0  0  0  0  0  0  0  0  0
   19.6996  -12.0707  -17.5874 N   0  0  0  0  0  0  0  0  0  0  0  0
   20.3140   -9.8244  -17.0283 C   0  0  0  0  0  0  0  0  0  0  0  0
   20.5931   -9.9250  -15.8011 O   0  0  0  0  0  0  0  0  0  0  0  0
   20.9839   -8.8822  -17.8421 N   0  0  0  0  0  0  0  0  0  0  0  0
   22.0168   -7.9725  -17.3254 C   0  0  1  0  0  0  0  0  0  0  0  0
   23.1893   -7.9611  -18.2896 C   0  0  0  0  0  0  0  0  0  0  0  0
   24.3792   -6.7189  -17.7720 S   0  0  0  0  0  0  0  0  0  0  0  0
   21.3717   -6.6561  -17.1775 C   0  0  0  0  0  0  0  0  0  0  0  0
   20.5869   -6.2099  -18.0949 O   0  0  0  0  0  0  0  0  0  0  0  0
   15.8178   -2.4451  -15.5899 C   0  0  0  0  0  0  0  0  0  0  0  0
   16.8836   -3.9062  -15.4948 S   0  0  0  0  0  0  0  0  0  0  0  0
   18.6266   -3.4728  -15.7356 C   0  0  0  0  0  0  0  0  0  0  0  0
   19.4210   -4.7290  -15.8622 C   0  0  0  0  0  0  0  0  0  0  0  0
   20.9011   -4.4962  -15.9919 C   0  0  2  0  0  0  0  0  0  0  0  0
   21.5515   -5.8177  -16.0685 N   0  0  0  0  0  0  0  0  0  0  0  0
   21.4920   -3.7584  -14.8767 C   0  0  0  0  0  0  0  0  0  0  0  0
   21.1899   -2.4377  -14.5707 O   0  0  0  0  0  0  0  0  0  0  0  0
   22.3307   -4.3106  -14.1189 O   0  0  0  0  0  0  0  0  0  0  0  0
  1  2  1  0
  2  4  1  0
  2  3  2  0
  4  5  1  0
  5  7  1  0
  5  6  1  1
  7  9  1  0
  8  7  2  0
  9 10  1  0
 10 11  1  6
 10 13  1  0
 11 12  1  0
 13 20  1  0
 13 14  2  0
 16 15  1  0
 16 17  1  0
 17 18  1  0
 19 18  1  1
 20 19  1  0
 21 19  1  0
 21 22  1  0
 23 21  2  0
M  END
$$$$
