TDY.pdb
     RDKit          3D

 28 28  0  0  1  0  0  0  0  0999 V2000
   24.4482  -18.5742  -19.3943 C   0  0  0  0  0  0  0  0  0  0  0  0
   23.8443  -17.2308  -19.0772 C   0  0  1  0  0  0  0  0  0  0  0  0
   24.2086  -16.3523  -20.0954 O   0  0  0  0  0  0  0  0  0  0  0  0
   22.3334  -17.3621  -19.0276 C   0  0  2  0  0  0  0  0  0  0  0  0
   21.6901  -16.0729  -18.9412 N   0  0  0  0  0  0  0  0  0  0  0  0
   21.9016  -18.1712  -17.8621 C   0  0  0  0  0  0  0  0  0  0  0  0
   22.2626  -19.3692  -17.7723 O   0  0  0  0  0  0  0  0  0  0  0  0
   21.0862  -17.6719  -16.8120 N   0  0  0  0  0  0  0  0  0  0  0  0
   20.6318  -18.4849  -15.7055 C   0  0  1  0  0  0  0  0  0  0  0  0
   20.5522  -17.5510  -14.4916 C   0  0  0  0  0  0  0  0  0  0  0  0
   20.1466  -18.2726  -13.2682 C   0  0  0  0  0  0  0  0  0  0  0  0
   20.0254  -19.5305  -13.2832 O   0  0  0  0  0  0  0  0  0  0  0  0
   19.2364  -18.9327  -15.9951 C   0  0  0  0  0  0  0  0  0  0  0  0
   18.4648  -18.2300  -16.7225 O   0  0  0  0  0  0  0  0  0  0  0  0
   19.8939  -17.5665  -12.0835 O   0  0  0  0  0  0  0  0  0  0  0  0
   17.1215  -23.2810  -10.0472 O   0  0  0  0  0  0  0  0  0  0  0  0
   17.1244  -22.9751  -11.3934 C   0  0  0  0  0  0  0  0  0  0  0  0
   18.2992  -23.0404  -12.0827 C   0  0  0  0  0  0  0  0  0  0  0  0
   18.2636  -22.7279  -13.4275 C   0  0  0  0  0  0  0  0  0  0  0  0
   17.1050  -22.3632  -14.0693 C   0  0  0  0  0  0  0  0  0  0  0  0
   17.1478  -22.0564  -15.5061 C   0  0  0  0  0  0  0  0  0  0  0  0
   17.3670  -20.6115  -15.8428 C   0  0  2  0  0  0  0  0  0  0  0  0
   18.6848  -20.1366  -15.4973 N   0  0  0  0  0  0  0  0  0  0  0  0
   16.3482  -19.7875  -15.1888 C   0  0  0  0  0  0  0  0  0  0  0  0
   16.6849  -18.9786  -14.2823 O   0  0  0  0  0  0  0  0  0  0  0  0
   15.9434  -22.3130  -13.3244 C   0  0  0  0  0  0  0  0  0  0  0  0
   15.9400  -22.6165  -11.9864 C   0  0  0  0  0  0  0  0  0  0  0  0
   15.0043  -19.8630  -15.5352 O   0  0  0  0  0  0  0  0  0  0  0  0
  2  1  1  6
  3  2  1  0
  4  2  1  0
  4  5  1  1
  4  6  1  0
  6  7  2  0
  8  6  1  0
  8  9  1  0
  9 13  1  0
  9 10  1  1
 10 11  1  0
 11 12  2  0
 11 15  1  0
 13 14  2  0
 16 17  1  0
 17 27  2  0
 18 17  1  0
 18 19  2  0
 19 20  1  0
 20 26  2  0
 20 21  1  0
 22 21  1  1
 22 24  1  0
 23 13  1  0
 23 22  1  0
 24 28  1  0
 25 24  2  0
 27 26  1  0
M  END
$$$$
