TDY.pdb
     RDKit          3D

 28 28  0  0  1  0  0  0  0  0999 V2000
   20.7812  -11.4263  -19.3871 C   0  0  0  0  0  0  0  0  0  0  0  0
   20.2391  -10.3794  -18.4490 C   0  0  1  0  0  0  0  0  0  0  0  0
   18.8720  -10.6070  -18.3057 O   0  0  0  0  0  0  0  0  0  0  0  0
   20.9261  -10.5119  -17.1025 C   0  0  2  0  0  0  0  0  0  0  0  0
   20.6470  -11.7868  -16.4862 N   0  0  0  0  0  0  0  0  0  0  0  0
   20.4914   -9.4443  -16.1694 C   0  0  0  0  0  0  0  0  0  0  0  0
   19.4033   -9.5628  -15.5567 O   0  0  0  0  0  0  0  0  0  0  0  0
   21.2406   -8.2652  -15.9134 N   0  0  0  0  0  0  0  0  0  0  0  0
   20.8357   -7.2606  -14.9549 C   0  0  1  0  0  0  0  0  0  0  0  0
   22.1243   -6.7516  -14.2972 C   0  0  0  0  0  0  0  0  0  0  0  0
   21.8462   -5.7659  -13.2327 C   0  0  0  0  0  0  0  0  0  0  0  0
   20.6540   -5.4592  -12.9465 O   0  0  0  0  0  0  0  0  0  0  0  0
   20.2511   -6.1076  -15.7034 C   0  0  0  0  0  0  0  0  0  0  0  0
   20.8372   -5.6314  -16.7271 O   0  0  0  0  0  0  0  0  0  0  0  0
   22.9028   -5.1652  -12.5338 O   0  0  0  0  0  0  0  0  0  0  0  0
   18.9185   -6.9968  -21.8190 O   0  0  0  0  0  0  0  0  0  0  0  0
   18.5381   -6.4305  -20.6188 C   0  0  0  0  0  0  0  0  0  0  0  0
   18.6224   -5.0775  -20.4710 C   0  0  0  0  0  0  0  0  0  0  0  0
   18.2330   -4.5467  -19.2569 C   0  0  0  0  0  0  0  0  0  0  0  0
   17.7755   -5.3277  -18.2234 C   0  0  0  0  0  0  0  0  0  0  0  0
   17.3694   -4.6854  -16.9654 C   0  0  0  0  0  0  0  0  0  0  0  0
   18.4938   -4.3363  -16.0363 C   0  0  2  0  0  0  0  0  0  0  0  0
   19.0373   -5.4776  -15.3410 N   0  0  0  0  0  0  0  0  0  0  0  0
   18.0493   -3.3261  -15.0738 C   0  0  0  0  0  0  0  0  0  0  0  0
   18.0412   -3.5959  -13.8423 O   0  0  0  0  0  0  0  0  0  0  0  0
   17.7102   -6.6920  -18.4260 C   0  0  0  0  0  0  0  0  0  0  0  0
   18.0884   -7.2553  -19.6185 C   0  0  0  0  0  0  0  0  0  0  0  0
   17.6313   -2.0616  -15.4715 O   0  0  0  0  0  0  0  0  0  0  0  0
  2  1  1  6
  3  2  1  0
  4  2  1  0
  4  5  1  1
  4  6  1  0
  6  7  2  0
  8  6  1  0
  8  9  1  0
  9 13  1  0
  9 10  1  6
 10 11  1  0
 11 12  2  0
 11 15  1  0
 13 14  2  0
 16 17  1  0
 17 27  2  0
 18 17  1  0
 18 19  2  0
 19 20  1  0
 20 26  2  0
 20 21  1  0
 22 21  1  1
 22 24  1  0
 23 13  1  0
 23 22  1  0
 24 28  1  0
 25 24  2  0
 27 26  1  0
M  END
$$$$
