TDY.pdb
     RDKit          3D

 28 28  0  0  1  0  0  0  0  0999 V2000
   28.6634  -25.0396  -18.0110 C   0  0  0  0  0  0  0  0  0  0  0  0
   27.8490  -23.8410  -17.5988 C   0  0  1  0  0  0  0  0  0  0  0  0
   27.3303  -24.0976  -16.3313 O   0  0  0  0  0  0  0  0  0  0  0  0
   28.7483  -22.6199  -17.5486 C   0  0  2  0  0  0  0  0  0  0  0  0
   29.8252  -22.7910  -16.6029 N   0  0  0  0  0  0  0  0  0  0  0  0
   27.9870  -21.4064  -17.1647 C   0  0  0  0  0  0  0  0  0  0  0  0
   28.5250  -20.2783  -17.2716 O   0  0  0  0  0  0  0  0  0  0  0  0
   26.6554  -21.4321  -16.6713 N   0  0  0  0  0  0  0  0  0  0  0  0
   25.8494  -20.2433  -16.5016 C   0  0  1  0  0  0  0  0  0  0  0  0
   25.6362  -19.6657  -17.9063 C   0  0  0  0  0  0  0  0  0  0  0  0
   24.8369  -18.4238  -17.8748 C   0  0  0  0  0  0  0  0  0  0  0  0
   23.9127  -18.2415  -18.7173 O   0  0  0  0  0  0  0  0  0  0  0  0
   24.5049  -20.6567  -15.9986 C   0  0  0  0  0  0  0  0  0  0  0  0
   23.8435  -21.5717  -16.5848 O   0  0  0  0  0  0  0  0  0  0  0  0
   25.0988  -17.4405  -16.9103 O   0  0  0  0  0  0  0  0  0  0  0  0
   17.0792  -21.1070  -11.2492 O   0  0  0  0  0  0  0  0  0  0  0  0
   18.3371  -20.7731  -11.7095 C   0  0  0  0  0  0  0  0  0  0  0  0
   19.3719  -21.6324  -11.4853 C   0  0  0  0  0  0  0  0  0  0  0  0
   20.6155  -21.2651  -11.9606 C   0  0  0  0  0  0  0  0  0  0  0  0
   20.8288  -20.0875  -12.6351 C   0  0  0  0  0  0  0  0  0  0  0  0
   22.1807  -19.7737  -13.1191 C   0  0  0  0  0  0  0  0  0  0  0  0
   22.5799  -20.4666  -14.3879 C   0  0  2  0  0  0  0  0  0  0  0  0
   23.8848  -20.0790  -14.8659 N   0  0  0  0  0  0  0  0  0  0  0  0
   21.5733  -20.2270  -15.4243 C   0  0  0  0  0  0  0  0  0  0  0  0
   20.6567  -21.0717  -15.6133 O   0  0  0  0  0  0  0  0  0  0  0  0
   19.7466  -19.2535  -12.8349 C   0  0  0  0  0  0  0  0  0  0  0  0
   18.4963  -19.5848  -12.3773 C   0  0  0  0  0  0  0  0  0  0  0  0
   21.5889  -19.0864  -16.2184 O   0  0  0  0  0  0  0  0  0  0  0  0
  2  1  1  1
  3  2  1  0
  4  2  1  0
  4  5  1  1
  4  6  1  0
  6  7  2  0
  8  6  1  0
  8  9  1  0
  9 13  1  0
  9 10  1  6
 10 11  1  0
 11 12  2  0
 11 15  1  0
 13 14  2  0
 16 17  1  0
 17 27  2  0
 18 17  1  0
 18 19  2  0
 19 20  1  0
 20 26  2  0
 20 21  1  0
 22 21  1  1
 22 24  1  0
 23 13  1  0
 23 22  1  0
 24 28  1  0
 25 24  2  0
 27 26  1  0
M  END
$$$$
