TDY.pdb
     RDKit          3D

 28 28  0  0  1  0  0  0  0  0999 V2000
   21.2325  -12.2604  -16.9421 C   0  0  0  0  0  0  0  0  0  0  0  0
   19.8646  -12.8236  -17.2279 C   0  0  1  0  0  0  0  0  0  0  0  0
   19.9207  -14.1994  -17.0150 O   0  0  0  0  0  0  0  0  0  0  0  0
   18.8590  -12.1973  -16.2797 C   0  0  2  0  0  0  0  0  0  0  0  0
   17.5661  -12.8308  -16.3813 N   0  0  0  0  0  0  0  0  0  0  0  0
   18.6861  -10.7507  -16.5576 C   0  0  0  0  0  0  0  0  0  0  0  0
   18.0741  -10.3876  -17.5905 O   0  0  0  0  0  0  0  0  0  0  0  0
   19.1779   -9.7197  -15.7137 N   0  0  0  0  0  0  0  0  0  0  0  0
   19.0016   -8.3121  -15.9959 C   0  0  1  0  0  0  0  0  0  0  0  0
   18.0582   -7.7728  -14.9136 C   0  0  0  0  0  0  0  0  0  0  0  0
   17.8345   -6.3193  -15.0536 C   0  0  0  0  0  0  0  0  0  0  0  0
   17.4564   -5.6360  -14.0600 O   0  0  0  0  0  0  0  0  0  0  0  0
   20.3148   -7.6273  -15.8011 C   0  0  0  0  0  0  0  0  0  0  0  0
   21.0121   -7.8404  -14.7587 O   0  0  0  0  0  0  0  0  0  0  0  0
   18.0404   -5.6896  -16.2893 O   0  0  0  0  0  0  0  0  0  0  0  0
   27.3113   -2.3825  -16.8704 O   0  0  0  0  0  0  0  0  0  0  0  0
   26.1876   -3.1537  -17.0903 C   0  0  0  0  0  0  0  0  0  0  0  0
   26.1743   -4.4429  -16.6461 C   0  0  0  0  0  0  0  0  0  0  0  0
   25.0332   -5.1838  -16.8837 C   0  0  0  0  0  0  0  0  0  0  0  0
   23.9417   -4.6671  -17.5386 C   0  0  0  0  0  0  0  0  0  0  0  0
   22.7602   -5.5170  -17.7429 C   0  0  0  0  0  0  0  0  0  0  0  0
   22.0634   -5.9519  -16.4880 C   0  0  2  0  0  0  0  0  0  0  0  0
   20.8656   -6.7175  -16.7341 N   0  0  0  0  0  0  0  0  0  0  0  0
   21.7527   -4.7843  -15.6606 C   0  0  0  0  0  0  0  0  0  0  0  0
   20.7285   -4.0936  -15.9124 O   0  0  0  0  0  0  0  0  0  0  0  0
   24.0078   -3.3563  -17.9676 C   0  0  0  0  0  0  0  0  0  0  0  0
   25.1245   -2.5895  -17.7496 C   0  0  0  0  0  0  0  0  0  0  0  0
   22.5548   -4.4033  -14.5913 O   0  0  0  0  0  0  0  0  0  0  0  0
  2  1  1  1
  3  2  1  0
  4  2  1  0
  4  5  1  6
  4  6  1  0
  6  7  2  0
  8  6  1  0
  8  9  1  0
  9 13  1  0
  9 10  1  1
 10 11  1  0
 11 12  2  0
 11 15  1  0
 13 14  2  0
 16 17  1  0
 17 27  2  0
 18 17  1  0
 18 19  2  0
 19 20  1  0
 20 26  2  0
 20 21  1  0
 22 21  1  6
 22 24  1  0
 23 13  1  0
 23 22  1  0
 24 28  1  0
 25 24  2  0
 27 26  1  0
M  END
$$$$
