TDY.pdb
     RDKit          3D

 28 28  0  0  1  0  0  0  0  0999 V2000
   22.7137  -11.4157  -14.6356 C   0  0  0  0  0  0  0  0  0  0  0  0
   22.9375  -11.9085  -16.0417 C   0  0  1  0  0  0  0  0  0  0  0  0
   23.4524  -13.2006  -15.9600 O   0  0  0  0  0  0  0  0  0  0  0  0
   21.6122  -11.9291  -16.7803 C   0  0  2  0  0  0  0  0  0  0  0  0
   21.7546  -12.4629  -18.1137 N   0  0  0  0  0  0  0  0  0  0  0  0
   21.0356  -10.5669  -16.8889 C   0  0  0  0  0  0  0  0  0  0  0  0
   21.5333   -9.7466  -17.6968 O   0  0  0  0  0  0  0  0  0  0  0  0
   19.9297  -10.1135  -16.1218 N   0  0  0  0  0  0  0  0  0  0  0  0
   19.4197   -8.7617  -16.1876 C   0  0  1  0  0  0  0  0  0  0  0  0
   17.9076   -8.8620  -15.9514 C   0  0  0  0  0  0  0  0  0  0  0  0
   17.2629   -7.5330  -15.9430 C   0  0  0  0  0  0  0  0  0  0  0  0
   17.8075   -6.5588  -16.5360 O   0  0  0  0  0  0  0  0  0  0  0  0
   19.9837   -7.9917  -15.0385 C   0  0  0  0  0  0  0  0  0  0  0  0
   19.8098   -8.3868  -13.8419 O   0  0  0  0  0  0  0  0  0  0  0  0
   16.0434   -7.3445  -15.2773 O   0  0  0  0  0  0  0  0  0  0  0  0
   25.9570   -5.9131  -18.5274 O   0  0  0  0  0  0  0  0  0  0  0  0
   25.1863   -6.0679  -17.3926 C   0  0  0  0  0  0  0  0  0  0  0  0
   24.9921   -4.9941  -16.5748 C   0  0  0  0  0  0  0  0  0  0  0  0
   24.2154   -5.1865  -15.4492 C   0  0  0  0  0  0  0  0  0  0  0  0
   23.6494   -6.4001  -15.1425 C   0  0  0  0  0  0  0  0  0  0  0  0
   22.8260   -6.5210  -13.9311 C   0  0  0  0  0  0  0  0  0  0  0  0
   21.3882   -6.1274  -14.0960 C   0  0  2  0  0  0  0  0  0  0  0  0
   20.7321   -6.8008  -15.1904 N   0  0  0  0  0  0  0  0  0  0  0  0
   21.2851   -4.6764  -14.2643 C   0  0  0  0  0  0  0  0  0  0  0  0
   20.7759   -4.2030  -15.3160 O   0  0  0  0  0  0  0  0  0  0  0  0
   23.8777   -7.4545  -16.0044 C   0  0  0  0  0  0  0  0  0  0  0  0
   24.6439   -7.3012  -17.1322 C   0  0  0  0  0  0  0  0  0  0  0  0
   21.7324   -3.7875  -13.2939 O   0  0  0  0  0  0  0  0  0  0  0  0
  2  1  1  1
  3  2  1  0
  4  2  1  0
  4  5  1  6
  4  6  1  0
  6  7  2  0
  8  6  1  0
  8  9  1  0
  9 13  1  0
  9 10  1  1
 10 11  1  0
 11 12  2  0
 11 15  1  0
 13 14  2  0
 16 17  1  0
 17 27  2  0
 18 17  1  0
 18 19  2  0
 19 20  1  0
 20 26  2  0
 20 21  1  0
 22 21  1  6
 22 24  1  0
 23 13  1  0
 23 22  1  0
 24 28  1  0
 25 24  2  0
 27 26  1  0
M  END
$$$$
