TDY.pdb
     RDKit          3D

 28 28  0  0  1  0  0  0  0  0999 V2000
   19.6028  -10.5526  -20.0650 C   0  0  0  0  0  0  0  0  0  0  0  0
   20.5524  -11.2277  -19.1097 C   0  0  1  0  0  0  0  0  0  0  0  0
   21.0887  -12.3373  -19.7597 O   0  0  0  0  0  0  0  0  0  0  0  0
   21.6626  -10.2606  -18.7427 C   0  0  2  0  0  0  0  0  0  0  0  0
   22.6989  -10.9075  -17.9740 N   0  0  0  0  0  0  0  0  0  0  0  0
   21.1428   -9.1214  -17.9480 C   0  0  0  0  0  0  0  0  0  0  0  0
   20.1531   -8.4747  -18.3670 O   0  0  0  0  0  0  0  0  0  0  0  0
   21.7019   -8.6995  -16.7124 N   0  0  0  0  0  0  0  0  0  0  0  0
   21.1659   -7.6066  -15.9314 C   0  0  1  0  0  0  0  0  0  0  0  0
   21.8198   -7.7074  -14.5477 C   0  0  0  0  0  0  0  0  0  0  0  0
   21.3651   -6.6303  -13.6448 C   0  0  0  0  0  0  0  0  0  0  0  0
   22.1519   -6.1528  -12.7787 O   0  0  0  0  0  0  0  0  0  0  0  0
   21.6359   -6.3240  -16.5361 C   0  0  0  0  0  0  0  0  0  0  0  0
   22.8775   -6.0907  -16.6848 O   0  0  0  0  0  0  0  0  0  0  0  0
   20.0584   -6.1317  -13.7434 O   0  0  0  0  0  0  0  0  0  0  0  0
   22.2786    1.5075  -20.4012 O   0  0  0  0  0  0  0  0  0  0  0  0
   21.8670    0.2569  -19.9861 C   0  0  0  0  0  0  0  0  0  0  0  0
   22.7551   -0.7772  -20.0251 C   0  0  0  0  0  0  0  0  0  0  0  0
   22.3080   -2.0134  -19.6018 C   0  0  0  0  0  0  0  0  0  0  0  0
   21.0256   -2.2203  -19.1547 C   0  0  0  0  0  0  0  0  0  0  0  0
   20.6296   -3.5642  -18.7106 C   0  0  0  0  0  0  0  0  0  0  0  0
   21.2086   -3.9974  -17.3966 C   0  0  2  0  0  0  0  0  0  0  0  0
   20.7611   -5.3029  -16.9762 N   0  0  0  0  0  0  0  0  0  0  0  0
   20.9011   -3.0043  -16.3652 C   0  0  0  0  0  0  0  0  0  0  0  0
   19.8938   -3.1634  -15.6239 O   0  0  0  0  0  0  0  0  0  0  0  0
   20.1669   -1.1392  -19.1359 C   0  0  0  0  0  0  0  0  0  0  0  0
   20.5753    0.1039  -19.5486 C   0  0  0  0  0  0  0  0  0  0  0  0
   21.6897   -1.8769  -16.1680 O   0  0  0  0  0  0  0  0  0  0  0  0
  2  1  1  6
  3  2  1  0
  4  2  1  0
  4  5  1  1
  4  6  1  0
  6  7  2  0
  8  6  1  0
  8  9  1  0
  9 13  1  0
  9 10  1  1
 10 11  1  0
 11 12  2  0
 11 15  1  0
 13 14  2  0
 16 17  1  0
 17 27  2  0
 18 17  1  0
 18 19  2  0
 19 20  1  0
 20 26  2  0
 20 21  1  0
 22 21  1  6
 22 24  1  0
 23 13  1  0
 23 22  1  0
 24 28  1  0
 25 24  2  0
 27 26  1  0
M  END
$$$$
