TDY.pdb
     RDKit          3D

 28 28  0  0  1  0  0  0  0  0999 V2000
   16.5407   -2.8460  -19.1136 C   0  0  0  0  0  0  0  0  0  0  0  0
   16.5082   -2.4796  -20.5747 C   0  0  1  0  0  0  0  0  0  0  0  0
   15.2269   -2.0164  -20.8662 O   0  0  0  0  0  0  0  0  0  0  0  0
   17.5233   -1.3826  -20.8369 C   0  0  2  0  0  0  0  0  0  0  0  0
   17.5619   -1.0162  -22.2324 N   0  0  0  0  0  0  0  0  0  0  0  0
   18.8869   -1.8039  -20.4335 C   0  0  0  0  0  0  0  0  0  0  0  0
   19.8634   -1.5288  -21.1711 O   0  0  0  0  0  0  0  0  0  0  0  0
   19.1728   -2.5160  -19.2384 N   0  0  0  0  0  0  0  0  0  0  0  0
   20.5164   -2.7538  -18.7589 C   0  0  1  0  0  0  0  0  0  0  0  0
   21.1627   -1.3729  -18.5921 C   0  0  0  0  0  0  0  0  0  0  0  0
   22.5758   -1.4740  -18.1738 C   0  0  0  0  0  0  0  0  0  0  0  0
   23.4767   -1.7051  -19.0294 O   0  0  0  0  0  0  0  0  0  0  0  0
   20.4274   -3.3540  -17.3939 C   0  0  0  0  0  0  0  0  0  0  0  0
   19.7140   -2.8134  -16.4901 O   0  0  0  0  0  0  0  0  0  0  0  0
   22.9256   -1.3141  -16.8254 O   0  0  0  0  0  0  0  0  0  0  0  0
   19.8485   -9.1415  -10.8985 O   0  0  0  0  0  0  0  0  0  0  0  0
   20.1602   -8.5279  -12.0952 C   0  0  0  0  0  0  0  0  0  0  0  0
   19.1683   -7.9112  -12.7990 C   0  0  0  0  0  0  0  0  0  0  0  0
   19.5175   -7.3079  -13.9913 C   0  0  0  0  0  0  0  0  0  0  0  0
   20.8046   -7.3140  -14.4715 C   0  0  0  0  0  0  0  0  0  0  0  0
   21.0977   -6.6396  -15.7441 C   0  0  0  0  0  0  0  0  0  0  0  0
   20.9829   -5.1445  -15.7141 C   0  0  2  0  0  0  0  0  0  0  0  0
   21.1094   -4.5343  -17.0153 N   0  0  0  0  0  0  0  0  0  0  0  0
   21.9801   -4.5867  -14.7981 C   0  0  0  0  0  0  0  0  0  0  0  0
   23.1026   -4.2225  -15.2416 O   0  0  0  0  0  0  0  0  0  0  0  0
   21.7706   -7.9527  -13.7195 C   0  0  0  0  0  0  0  0  0  0  0  0
   21.4613   -8.5630  -12.5302 C   0  0  0  0  0  0  0  0  0  0  0  0
   21.7323   -4.4396  -13.4384 O   0  0  0  0  0  0  0  0  0  0  0  0
  2  1  1  1
  3  2  1  0
  4  2  1  0
  4  5  1  6
  4  6  1  0
  6  7  2  0
  8  6  1  0
  8  9  1  0
  9 13  1  0
  9 10  1  1
 10 11  1  0
 11 12  2  0
 11 15  1  0
 13 14  2  0
 16 17  1  0
 17 27  2  0
 18 17  1  0
 18 19  2  0
 19 20  1  0
 20 26  2  0
 20 21  1  0
 22 21  1  6
 22 24  1  0
 23 13  1  0
 23 22  1  0
 24 28  1  0
 25 24  2  0
 27 26  1  0
M  END
$$$$
