CKE.pdb
     RDKit          3D

 25 24  0  0  1  0  0  0  0  0999 V2000
   11.5800  -20.5613   16.2673 N   0  0  0  0  0  0  0  0  0  0  0  0
   12.0544  -21.2203   17.4551 C   0  0  1  0  0  0  0  0  0  0  0  0
   13.5077  -20.8846   17.7234 C   0  0  0  0  0  0  0  0  0  0  0  0
   14.0455  -19.4746   16.7486 S   0  0  0  0  0  0  0  0  0  0  0  0
   11.2004  -20.9256   18.6322 C   0  0  0  0  0  0  0  0  0  0  0  0
   11.0199  -19.7488   19.0298 O   0  0  0  0  0  0  0  0  0  0  0  0
   10.5616  -21.9546   19.3458 N   0  0  0  0  0  0  0  0  0  0  0  0
    9.6853  -21.7316   20.4904 C   0  0  1  0  0  0  0  0  0  0  0  0
    8.4711  -22.5631   20.4483 C   0  0  0  0  0  0  0  0  0  0  0  0
    7.6628  -22.4283   21.7016 C   0  0  0  0  0  0  0  0  0  0  0  0
    6.4485  -23.3653   21.6735 C   0  0  0  0  0  0  0  0  0  0  0  0
    5.6738  -23.0773   22.9448 C   0  0  0  0  0  0  0  0  0  0  0  0
    4.4972  -23.9145   23.0598 N   0  0  0  0  0  0  0  0  0  0  0  0
   10.5271  -22.1132   21.6796 C   0  0  0  0  0  0  0  0  0  0  0  0
   11.3041  -23.1053   21.6726 O   0  0  0  0  0  0  0  0  0  0  0  0
   10.4866  -21.3651   22.8824 N   0  0  0  0  0  0  0  0  0  0  0  0
   11.3936  -21.7121   23.9798 C   0  0  1  0  0  0  0  0  0  0  0  0
   12.7191  -21.0285   23.7882 C   0  0  0  0  0  0  0  0  0  0  0  0
   13.6563  -21.4077   24.8977 C   0  0  0  0  0  0  0  0  0  0  0  0
   15.0037  -20.7934   24.6448 C   0  0  0  0  0  0  0  0  0  0  0  0
   15.4233  -19.9071   25.4168 O   0  0  0  0  0  0  0  0  0  0  0  0
   10.7111  -21.3328   25.2197 C   0  0  0  0  0  0  0  0  0  0  0  0
    9.7855  -20.4558   25.1599 O   0  0  0  0  0  0  0  0  0  0  0  0
   15.8027  -21.1748   23.5822 O   0  0  0  0  0  0  0  0  0  0  0  0
   10.9741  -21.8458   26.4871 O   0  0  0  0  0  0  0  0  0  0  0  0
  2  3  1  0
  2  1  1  6
  3  4  1  0
  5  2  1  0
  5  6  2  0
  7  5  1  0
  8 14  1  0
  8  7  1  0
  8  9  1  6
 10  9  1  0
 10 11  1  0
 12 13  1  0
 12 11  1  0
 14 15  2  0
 16 14  1  0
 16 17  1  0
 17 22  1  0
 17 18  1  6
 19 20  1  0
 19 18  1  0
 20 21  2  0
 22 23  2  0
 22 25  1  0
 24 20  1  0
M  END
$$$$
