CKE.pdb
     RDKit          3D

 25 24  0  0  1  0  0  0  0  0999 V2000
    7.4067  -13.6061   20.1946 N   0  0  0  0  0  0  0  0  0  0  0  0
    7.2130  -14.5923   21.2243 C   0  0  1  0  0  0  0  0  0  0  0  0
    6.9597  -15.9626   20.6287 C   0  0  0  0  0  0  0  0  0  0  0  0
    5.2315  -16.1759   20.1865 S   0  0  0  0  0  0  0  0  0  0  0  0
    8.3405  -14.6169   22.1886 C   0  0  0  0  0  0  0  0  0  0  0  0
    9.5233  -14.4238   21.8156 O   0  0  0  0  0  0  0  0  0  0  0  0
    8.1250  -14.8576   23.5568 N   0  0  0  0  0  0  0  0  0  0  0  0
    9.1814  -14.8524   24.5626 C   0  0  1  0  0  0  0  0  0  0  0  0
    8.6645  -14.6806   25.9303 C   0  0  0  0  0  0  0  0  0  0  0  0
    9.7654  -14.6949   26.9453 C   0  0  0  0  0  0  0  0  0  0  0  0
    9.2143  -14.4426   28.3545 C   0  0  0  0  0  0  0  0  0  0  0  0
   10.4170  -14.4559   29.2779 C   0  0  0  0  0  0  0  0  0  0  0  0
   10.0312  -14.3117   30.6668 N   0  0  0  0  0  0  0  0  0  0  0  0
    9.8286  -16.2055   24.4252 C   0  0  0  0  0  0  0  0  0  0  0  0
    9.1647  -17.2621   24.2498 O   0  0  0  0  0  0  0  0  0  0  0  0
   11.2358  -16.3597   24.4873 N   0  0  0  0  0  0  0  0  0  0  0  0
   11.8262  -17.6868   24.2941 C   0  0  1  0  0  0  0  0  0  0  0  0
   13.0830  -17.5773   23.4760 C   0  0  0  0  0  0  0  0  0  0  0  0
   13.6755  -18.9398   23.2618 C   0  0  0  0  0  0  0  0  0  0  0  0
   14.9531  -18.8117   22.4819 C   0  0  0  0  0  0  0  0  0  0  0  0
   15.4671  -17.6838   22.3366 O   0  0  0  0  0  0  0  0  0  0  0  0
   12.0429  -18.2449   25.6315 C   0  0  0  0  0  0  0  0  0  0  0  0
   12.2543  -19.4990   25.7396 O   0  0  0  0  0  0  0  0  0  0  0  0
   15.5859  -19.9029   21.9148 O   0  0  0  0  0  0  0  0  0  0  0  0
   12.0440  -17.5286   26.8255 O   0  0  0  0  0  0  0  0  0  0  0  0
  2  3  1  0
  2  1  1  6
  3  4  1  0
  5  2  1  0
  5  6  2  0
  7  5  1  0
  8 14  1  0
  8  7  1  0
  8  9  1  1
 10  9  1  0
 10 11  1  0
 12 13  1  0
 12 11  1  0
 14 15  2  0
 16 14  1  0
 16 17  1  0
 17 22  1  0
 17 18  1  1
 19 20  1  0
 19 18  1  0
 20 21  2  0
 22 23  2  0
 22 25  1  0
 24 20  1  0
M  END
$$$$
