CKE.pdb
     RDKit          3D

 25 24  0  0  1  0  0  0  0  0999 V2000
    7.7532  -12.7470   18.5767 N   0  0  0  0  0  0  0  0  0  0  0  0
    7.8718  -14.1429   18.9051 C   0  0  1  0  0  0  0  0  0  0  0  0
    8.7057  -14.8782   17.8752 C   0  0  0  0  0  0  0  0  0  0  0  0
    7.8238  -15.0504   16.3195 S   0  0  0  0  0  0  0  0  0  0  0  0
    8.3959  -14.3477   20.2780 C   0  0  0  0  0  0  0  0  0  0  0  0
    9.2574  -13.5786   20.7696 O   0  0  0  0  0  0  0  0  0  0  0  0
    7.9462  -15.4117   21.0792 N   0  0  0  0  0  0  0  0  0  0  0  0
    8.4354  -15.6821   22.4266 C   0  0  1  0  0  0  0  0  0  0  0  0
    7.5740  -16.6179   23.1679 C   0  0  0  0  0  0  0  0  0  0  0  0
    8.2215  -17.0821   24.4358 C   0  0  0  0  0  0  0  0  0  0  0  0
    7.4034  -18.2027   25.0901 C   0  0  0  0  0  0  0  0  0  0  0  0
    8.1800  -18.6150   26.3256 C   0  0  0  0  0  0  0  0  0  0  0  0
    7.5188  -19.6844   27.0453 N   0  0  0  0  0  0  0  0  0  0  0  0
    9.7932  -16.2968   22.2098 C   0  0  0  0  0  0  0  0  0  0  0  0
    9.9982  -17.2144   21.3706 O   0  0  0  0  0  0  0  0  0  0  0  0
   10.9235  -15.8681   22.9491 N   0  0  0  0  0  0  0  0  0  0  0  0
   12.2193  -16.5154   22.7278 C   0  0  1  0  0  0  0  0  0  0  0  0
   13.1627  -15.5611   22.0496 C   0  0  0  0  0  0  0  0  0  0  0  0
   14.5384  -16.1585   21.9862 C   0  0  0  0  0  0  0  0  0  0  0  0
   15.4792  -15.1786   21.3448 C   0  0  0  0  0  0  0  0  0  0  0  0
   15.0374  -14.0810   20.9479 O   0  0  0  0  0  0  0  0  0  0  0  0
   12.6869  -16.9703   24.0399 C   0  0  0  0  0  0  0  0  0  0  0  0
   12.1219  -16.4992   25.0830 O   0  0  0  0  0  0  0  0  0  0  0  0
   16.8252  -15.4477   21.1758 O   0  0  0  0  0  0  0  0  0  0  0  0
   13.7080  -17.8885   24.2703 O   0  0  0  0  0  0  0  0  0  0  0  0
  2  3  1  0
  2  1  1  6
  3  4  1  0
  5  2  1  0
  5  6  2  0
  7  5  1  0
  8 14  1  0
  8  7  1  0
  8  9  1  6
 10  9  1  0
 10 11  1  0
 12 13  1  0
 12 11  1  0
 14 15  2  0
 16 14  1  0
 16 17  1  0
 17 22  1  0
 17 18  1  1
 19 20  1  0
 19 18  1  0
 20 21  2  0
 22 23  2  0
 22 25  1  0
 24 20  1  0
M  END
$$$$
