CKE.pdb
     RDKit          3D

 25 24  0  0  1  0  0  0  0  0999 V2000
    8.4132  -13.2158   16.7171 N   0  0  0  0  0  0  0  0  0  0  0  0
    8.2504  -14.3416   17.5983 C   0  0  1  0  0  0  0  0  0  0  0  0
    8.8796  -15.5899   17.0128 C   0  0  0  0  0  0  0  0  0  0  0  0
    7.8185  -16.3381   15.7711 S   0  0  0  0  0  0  0  0  0  0  0  0
    8.7653  -14.0591   18.9608 C   0  0  0  0  0  0  0  0  0  0  0  0
    9.8471  -13.4472   19.1364 O   0  0  0  0  0  0  0  0  0  0  0  0
    8.0598  -14.4670   20.1063 N   0  0  0  0  0  0  0  0  0  0  0  0
    8.4679  -14.1529   21.4711 C   0  0  1  0  0  0  0  0  0  0  0  0
    7.3294  -14.0683   22.4005 C   0  0  0  0  0  0  0  0  0  0  0  0
    7.7797  -13.8343   23.8094 C   0  0  0  0  0  0  0  0  0  0  0  0
    6.5812  -13.7784   24.7652 C   0  0  0  0  0  0  0  0  0  0  0  0
    7.1494  -13.4039   26.1203 C   0  0  0  0  0  0  0  0  0  0  0  0
    6.1302  -13.4018   27.1497 N   0  0  0  0  0  0  0  0  0  0  0  0
    9.3644  -15.2986   21.8611 C   0  0  0  0  0  0  0  0  0  0  0  0
    9.1438  -16.4868   21.5038 O   0  0  0  0  0  0  0  0  0  0  0  0
   10.5163  -15.0947   22.6607 N   0  0  0  0  0  0  0  0  0  0  0  0
   11.4275  -16.2140   22.9137 C   0  0  1  0  0  0  0  0  0  0  0  0
   12.8523  -15.7697   22.7312 C   0  0  0  0  0  0  0  0  0  0  0  0
   13.7823  -16.9275   22.9508 C   0  0  0  0  0  0  0  0  0  0  0  0
   15.2032  -16.4588   22.8168 C   0  0  0  0  0  0  0  0  0  0  0  0
   15.5762  -15.4550   23.4577 O   0  0  0  0  0  0  0  0  0  0  0  0
   11.1308  -16.6949   24.2657 C   0  0  0  0  0  0  0  0  0  0  0  0
   11.3757  -17.9164   24.5434 O   0  0  0  0  0  0  0  0  0  0  0  0
   16.1204  -17.1012   22.0050 O   0  0  0  0  0  0  0  0  0  0  0  0
   10.5982  -15.9359   25.3044 O   0  0  0  0  0  0  0  0  0  0  0  0
  2  3  1  0
  2  1  1  6
  3  4  1  0
  5  2  1  0
  5  6  2  0
  7  5  1  0
  8 14  1  0
  8  7  1  0
  8  9  1  1
 10  9  1  0
 10 11  1  0
 12 13  1  0
 12 11  1  0
 14 15  2  0
 16 14  1  0
 16 17  1  0
 17 22  1  0
 17 18  1  1
 19 20  1  0
 19 18  1  0
 20 21  2  0
 22 23  2  0
 22 25  1  0
 24 20  1  0
M  END
$$$$
