CKE.pdb
     RDKit          3D

 25 24  0  0  1  0  0  0  0  0999 V2000
    5.5610  -13.5292   27.0965 N   0  0  0  0  0  0  0  0  0  0  0  0
    6.3774  -13.0996   25.9923 C   0  0  1  0  0  0  0  0  0  0  0  0
    7.4826  -12.1729   26.4574 C   0  0  0  0  0  0  0  0  0  0  0  0
    6.8183  -10.7281   27.2934 S   0  0  0  0  0  0  0  0  0  0  0  0
    6.9162  -14.2468   25.2210 C   0  0  0  0  0  0  0  0  0  0  0  0
    6.8018  -15.4254   25.6375 O   0  0  0  0  0  0  0  0  0  0  0  0
    7.5754  -14.0557   23.9941 N   0  0  0  0  0  0  0  0  0  0  0  0
    7.9644  -15.1399   23.0991 C   0  0  1  0  0  0  0  0  0  0  0  0
    8.1083  -14.7003   21.7014 C   0  0  0  0  0  0  0  0  0  0  0  0
    8.5947  -15.8080   20.8189 C   0  0  0  0  0  0  0  0  0  0  0  0
    7.7940  -15.8582   19.5114 C   0  0  0  0  0  0  0  0  0  0  0  0
    8.7758  -16.2942   18.4412 C   0  0  0  0  0  0  0  0  0  0  0  0
    8.1798  -16.2688   17.1211 N   0  0  0  0  0  0  0  0  0  0  0  0
    9.2962  -15.5987   23.6322 C   0  0  0  0  0  0  0  0  0  0  0  0
   10.0819  -14.8318   24.2506 O   0  0  0  0  0  0  0  0  0  0  0  0
    9.7382  -16.9342   23.4622 N   0  0  0  0  0  0  0  0  0  0  0  0
   11.0854  -17.3104   23.8989 C   0  0  1  0  0  0  0  0  0  0  0  0
   12.0315  -16.1586   23.7007 C   0  0  0  0  0  0  0  0  0  0  0  0
   13.3709  -16.4878   24.2932 C   0  0  0  0  0  0  0  0  0  0  0  0
   14.4133  -16.4695   23.2117 C   0  0  0  0  0  0  0  0  0  0  0  0
   15.2062  -15.5079   23.1465 O   0  0  0  0  0  0  0  0  0  0  0  0
   10.9661  -17.7386   25.2951 C   0  0  0  0  0  0  0  0  0  0  0  0
   11.9284  -18.3983   25.8127 O   0  0  0  0  0  0  0  0  0  0  0  0
   14.5291  -17.4842   22.2790 O   0  0  0  0  0  0  0  0  0  0  0  0
    9.8843  -17.4911   26.1362 O   0  0  0  0  0  0  0  0  0  0  0  0
  2  3  1  0
  2  1  1  1
  3  4  1  0
  5  2  1  0
  5  6  2  0
  7  5  1  0
  8 14  1  0
  8  7  1  0
  8  9  1  6
 10  9  1  0
 10 11  1  0
 12 13  1  0
 12 11  1  0
 14 15  2  0
 16 14  1  0
 16 17  1  0
 17 22  1  0
 17 18  1  1
 19 20  1  0
 19 18  1  0
 20 21  2  0
 22 23  2  0
 22 25  1  0
 24 20  1  0
M  END
$$$$
