CKE.pdb
     RDKit          3D

 25 24  0  0  1  0  0  0  0  0999 V2000
    7.6256  -12.9713   18.2811 N   0  0  0  0  0  0  0  0  0  0  0  0
    7.9889  -14.3158   18.6427 C   0  0  1  0  0  0  0  0  0  0  0  0
    9.3295  -14.6987   18.0487 C   0  0  0  0  0  0  0  0  0  0  0  0
    9.1611  -15.2352   16.3424 S   0  0  0  0  0  0  0  0  0  0  0  0
    7.9648  -14.5212   20.1120 C   0  0  0  0  0  0  0  0  0  0  0  0
    8.5085  -13.7043   20.8947 O   0  0  0  0  0  0  0  0  0  0  0  0
    7.3317  -15.6395   20.6819 N   0  0  0  0  0  0  0  0  0  0  0  0
    7.2462  -15.8856   22.1171 C   0  0  1  0  0  0  0  0  0  0  0  0
    5.9704  -16.5039   22.5137 C   0  0  0  0  0  0  0  0  0  0  0  0
    5.8068  -17.8684   21.9191 C   0  0  0  0  0  0  0  0  0  0  0  0
    4.4556  -18.4789   22.3126 C   0  0  0  0  0  0  0  0  0  0  0  0
    4.4065  -19.8401   21.6462 C   0  0  0  0  0  0  0  0  0  0  0  0
    5.1575  -20.8311   22.3896 N   0  0  0  0  0  0  0  0  0  0  0  0
    8.3838  -16.8320   22.3977 C   0  0  0  0  0  0  0  0  0  0  0  0
    8.8519  -17.6106   21.5243 O   0  0  0  0  0  0  0  0  0  0  0  0
    8.9928  -16.8949   23.6756 N   0  0  0  0  0  0  0  0  0  0  0  0
   10.3470  -17.4397   23.8045 C   0  0  1  0  0  0  0  0  0  0  0  0
   11.3450  -16.4845   23.2108 C   0  0  0  0  0  0  0  0  0  0  0  0
   12.7387  -16.9971   23.4311 C   0  0  0  0  0  0  0  0  0  0  0  0
   13.7051  -16.1786   22.6231 C   0  0  0  0  0  0  0  0  0  0  0  0
   13.9347  -14.9992   22.9605 O   0  0  0  0  0  0  0  0  0  0  0  0
   10.5579  -17.6977   25.2313 C   0  0  0  0  0  0  0  0  0  0  0  0
   11.6099  -18.3277   25.5858 O   0  0  0  0  0  0  0  0  0  0  0  0
   14.3547  -16.6850   21.5120 O   0  0  0  0  0  0  0  0  0  0  0  0
    9.7081  -17.3141   26.2655 O   0  0  0  0  0  0  0  0  0  0  0  0
  2  3  1  0
  2  1  1  1
  3  4  1  0
  5  2  1  0
  5  6  2  0
  7  5  1  0
  8 14  1  0
  8  7  1  0
  8  9  1  6
 10  9  1  0
 10 11  1  0
 12 13  1  0
 12 11  1  0
 14 15  2  0
 16 14  1  0
 16 17  1  0
 17 22  1  0
 17 18  1  1
 19 20  1  0
 19 18  1  0
 20 21  2  0
 22 23  2  0
 22 25  1  0
 24 20  1  0
M  END
$$$$
