NQW.pdb
     RDKit          3D

 32 33  0  0  1  0  0  0  0  0999 V2000
   22.9800  -32.6780  -17.0184 N   0  0  0  0  0  0  0  0  0  0  0  0
   23.9597  -31.8696  -17.6291 C   0  0  0  0  0  0  0  0  0  0  0  0
   23.8020  -31.4915  -18.8015 O   0  0  0  0  0  0  0  0  0  0  0  0
   25.1578  -31.4817  -16.8744 C   0  0  0  0  0  0  0  0  0  0  0  0
   26.1454  -30.8647  -17.8313 C   0  0  2  0  0  0  0  0  0  0  0  0
   27.2847  -31.7330  -18.0495 N   0  0  0  0  0  0  0  0  0  0  0  0
   26.5629  -29.5528  -17.2990 C   0  0  0  0  0  0  0  0  0  0  0  0
   27.5795  -29.3773  -16.5942 O   0  0  0  0  0  0  0  0  0  0  0  0
   28.8593  -24.8795  -16.7279 N   0  0  0  0  0  0  0  0  0  0  0  0
   29.3836  -26.1785  -16.5221 C   0  0  0  0  0  0  0  0  0  0  0  0
   30.3995  -26.3381  -15.8153 O   0  0  0  0  0  0  0  0  0  0  0  0
   28.7201  -27.3335  -17.1512 C   0  0  0  0  0  0  0  0  0  0  0  0
   27.5223  -26.8973  -17.9072 C   0  0  0  0  0  0  0  0  0  0  0  0
   26.2004  -27.0888  -17.1800 C   0  0  2  0  0  0  0  0  0  0  0  0
   25.7621  -28.4289  -17.6070 N   0  0  0  0  0  0  0  0  0  0  0  0
   25.1830  -26.1295  -17.6356 C   0  0  0  0  0  0  0  0  0  0  0  0
   25.3379  -24.9133  -17.3885 O   0  0  0  0  0  0  0  0  0  0  0  0
   24.0423  -26.5459  -18.3425 N   0  0  0  0  0  0  0  0  0  0  0  0
   23.0410  -25.5449  -18.8072 C   0  0  1  0  0  0  0  0  0  0  0  0
   23.2981  -25.4267  -20.2711 C   0  0  0  0  0  0  0  0  0  0  0  0
   22.3825  -24.4974  -20.9511 C   0  0  0  0  0  0  0  0  0  0  0  0
   22.3269  -23.1082  -20.8044 C   0  0  0  0  0  0  0  0  0  0  0  0
   21.3375  -22.6211  -21.5631 N   0  0  0  0  0  0  0  0  0  0  0  0
   20.7131  -23.6027  -22.2221 C   0  0  0  0  0  0  0  0  0  0  0  0
   19.6643  -23.6434  -23.1262 C   0  0  0  0  0  0  0  0  0  0  0  0
   19.2719  -24.8546  -23.6465 C   0  0  0  0  0  0  0  0  0  0  0  0
   19.8923  -26.0250  -23.2935 C   0  0  0  0  0  0  0  0  0  0  0  0
   20.9323  -25.9664  -22.3932 C   0  0  0  0  0  0  0  0  0  0  0  0
   21.3607  -24.7839  -21.8456 C   0  0  0  0  0  0  0  0  0  0  0  0
   21.7367  -26.0076  -18.3718 C   0  0  0  0  0  0  0  0  0  0  0  0
   21.4418  -27.2286  -18.1773 O   0  0  0  0  0  0  0  0  0  0  0  0
   20.6973  -25.1168  -18.1275 O   0  0  0  0  0  0  0  0  0  0  0  0
  1  2  1  0
  2  4  1  0
  2  3  2  0
  5  4  1  0
  5  6  1  1
  7  8  2  0
  7  5  1  0
 10 11  2  0
 10  9  1  0
 12 10  1  0
 13 12  1  0
 14 13  1  6
 14 15  1  0
 15  7  1  0
 16 17  2  0
 16 14  1  0
 18 16  1  0
 19 30  1  0
 19 18  1  0
 19 20  1  6
 21 20  1  0
 22 21  2  0
 23 22  1  0
 24 23  1  0
 24 29  2  0
 25 24  1  0
 26 25  2  0
 26 27  1  0
 27 28  2  0
 28 29  1  0
 29 21  1  0
 30 32  1  0
 31 30  2  0
M  END
$$$$
