NQW.pdb
     RDKit          3D

 32 33  0  0  1  0  0  0  0  0999 V2000
   28.7522  -23.3900  -17.0179 N   0  0  0  0  0  0  0  0  0  0  0  0
   29.3844  -22.1470  -16.8139 C   0  0  0  0  0  0  0  0  0  0  0  0
   30.5654  -21.9922  -17.1657 O   0  0  0  0  0  0  0  0  0  0  0  0
   28.6418  -21.0462  -16.1874 C   0  0  0  0  0  0  0  0  0  0  0  0
   27.3198  -21.5799  -15.6985 C   0  0  2  0  0  0  0  0  0  0  0  0
   26.4335  -21.8909  -16.8019 N   0  0  0  0  0  0  0  0  0  0  0  0
   26.7170  -20.5870  -14.7877 C   0  0  0  0  0  0  0  0  0  0  0  0
   26.5253  -19.3898  -15.0890 O   0  0  0  0  0  0  0  0  0  0  0  0
   21.7926  -19.7365  -14.2753 N   0  0  0  0  0  0  0  0  0  0  0  0
   22.0216  -20.8994  -13.5005 C   0  0  0  0  0  0  0  0  0  0  0  0
   21.1101  -21.7374  -13.3461 O   0  0  0  0  0  0  0  0  0  0  0  0
   23.3416  -21.1057  -12.8800 C   0  0  0  0  0  0  0  0  0  0  0  0
   24.2477  -19.9766  -13.1967 C   0  0  0  0  0  0  0  0  0  0  0  0
   25.6405  -20.0842  -12.5956 C   0  0  2  0  0  0  0  0  0  0  0  0
   26.3346  -21.0200  -13.4971 N   0  0  0  0  0  0  0  0  0  0  0  0
   25.6127  -20.7012  -11.2609 C   0  0  0  0  0  0  0  0  0  0  0  0
   25.4618  -21.9389  -11.1645 O   0  0  0  0  0  0  0  0  0  0  0  0
   25.7524  -19.9342  -10.0919 N   0  0  0  0  0  0  0  0  0  0  0  0
   25.7648  -20.5967   -8.7572 C   0  0  1  0  0  0  0  0  0  0  0  0
   26.4672  -19.6218   -7.8744 C   0  0  0  0  0  0  0  0  0  0  0  0
   27.7800  -20.0961   -7.4099 C   0  0  0  0  0  0  0  0  0  0  0  0
   28.6693  -20.9272   -8.0977 C   0  0  0  0  0  0  0  0  0  0  0  0
   29.7406  -21.1622   -7.3304 N   0  0  0  0  0  0  0  0  0  0  0  0
   29.6328  -20.5358   -6.1541 C   0  0  0  0  0  0  0  0  0  0  0  0
   30.4445  -20.4350   -5.0361 C   0  0  0  0  0  0  0  0  0  0  0  0
   30.0308  -19.6682   -3.9719 C   0  0  0  0  0  0  0  0  0  0  0  0
   28.8342  -18.9996   -3.9882 C   0  0  0  0  0  0  0  0  0  0  0  0
   28.0395  -19.1113   -5.1069 C   0  0  0  0  0  0  0  0  0  0  0  0
   28.4067  -19.8639   -6.1934 C   0  0  0  0  0  0  0  0  0  0  0  0
   24.3939  -20.9500   -8.4400 C   0  0  0  0  0  0  0  0  0  0  0  0
   23.3854  -20.5690   -9.1132 O   0  0  0  0  0  0  0  0  0  0  0  0
   24.0884  -21.7566   -7.3493 O   0  0  0  0  0  0  0  0  0  0  0  0
  1  2  1  0
  2  4  1  0
  2  3  2  0
  5  4  1  0
  5  6  1  6
  7  8  2  0
  7  5  1  0
 10 11  2  0
 10  9  1  0
 12 10  1  0
 13 12  1  0
 14 13  1  6
 14 15  1  0
 15  7  1  0
 16 17  2  0
 16 14  1  0
 18 16  1  0
 19 30  1  0
 19 18  1  0
 19 20  1  1
 21 20  1  0
 22 21  2  0
 23 22  1  0
 24 23  1  0
 24 29  2  0
 25 24  1  0
 26 25  2  0
 26 27  1  0
 27 28  2  0
 28 29  1  0
 29 21  1  0
 30 32  1  0
 31 30  2  0
M  END
$$$$
