NQW.pdb
     RDKit          3D

 32 33  0  0  1  0  0  0  0  0999 V2000
   19.0677  -19.1333  -13.0151 N   0  0  0  0  0  0  0  0  0  0  0  0
   19.6237  -18.9507  -11.7331 C   0  0  0  0  0  0  0  0  0  0  0  0
   19.0463  -18.2217  -10.9100 O   0  0  0  0  0  0  0  0  0  0  0  0
   20.8805  -19.6235  -11.3816 C   0  0  0  0  0  0  0  0  0  0  0  0
   21.4261  -20.2912  -12.6177 C   0  0  2  0  0  0  0  0  0  0  0  0
   20.4518  -21.1848  -13.2109 N   0  0  0  0  0  0  0  0  0  0  0  0
   22.6657  -21.0081  -12.2596 C   0  0  0  0  0  0  0  0  0  0  0  0
   22.6917  -22.0759  -11.6116 O   0  0  0  0  0  0  0  0  0  0  0  0
   27.1697  -21.0011  -16.0996 N   0  0  0  0  0  0  0  0  0  0  0  0
   27.9270  -21.4943  -15.0096 C   0  0  0  0  0  0  0  0  0  0  0  0
   29.1124  -21.8451  -15.1795 O   0  0  0  0  0  0  0  0  0  0  0  0
   27.3011  -21.5900  -13.6795 C   0  0  0  0  0  0  0  0  0  0  0  0
   25.9281  -21.0329  -13.7092 C   0  0  0  0  0  0  0  0  0  0  0  0
   25.1485  -21.1795  -12.4116 C   0  0  2  0  0  0  0  0  0  0  0  0
   23.8963  -20.4502  -12.6765 N   0  0  0  0  0  0  0  0  0  0  0  0
   25.8207  -20.5033  -11.2919 C   0  0  0  0  0  0  0  0  0  0  0  0
   25.5786  -19.2956  -11.0752 O   0  0  0  0  0  0  0  0  0  0  0  0
   26.7270  -21.1812  -10.4592 N   0  0  0  0  0  0  0  0  0  0  0  0
   27.5170  -20.4310   -9.4426 C   0  0  1  0  0  0  0  0  0  0  0  0
   26.5624  -20.2334   -8.3143 C   0  0  0  0  0  0  0  0  0  0  0  0
   27.1432  -19.4971   -7.1809 C   0  0  0  0  0  0  0  0  0  0  0  0
   26.9889  -18.1387   -6.8883 C   0  0  0  0  0  0  0  0  0  0  0  0
   27.7003  -17.8367   -5.7954 N   0  0  0  0  0  0  0  0  0  0  0  0
   28.3328  -18.9159   -5.3235 C   0  0  0  0  0  0  0  0  0  0  0  0
   29.1617  -19.1517   -4.2388 C   0  0  0  0  0  0  0  0  0  0  0  0
   29.6391  -20.4231   -4.0215 C   0  0  0  0  0  0  0  0  0  0  0  0
   29.3159  -21.4654   -4.8513 C   0  0  0  0  0  0  0  0  0  0  0  0
   28.4916  -21.2132   -5.9248 C   0  0  0  0  0  0  0  0  0  0  0  0
   27.9902  -19.9632   -6.1850 C   0  0  0  0  0  0  0  0  0  0  0  0
   28.7291  -21.1890   -9.1950 C   0  0  0  0  0  0  0  0  0  0  0  0
   28.8225  -22.4490   -9.3326 O   0  0  0  0  0  0  0  0  0  0  0  0
   29.9016  -20.5647   -8.7842 O   0  0  0  0  0  0  0  0  0  0  0  0
  1  2  1  0
  2  4  1  0
  2  3  2  0
  5  4  1  0
  5  6  1  1
  7  8  2  0
  7  5  1  0
 10 11  2  0
 10  9  1  0
 12 10  1  0
 13 12  1  0
 14 13  1  6
 14 15  1  0
 15  7  1  0
 16 17  2  0
 16 14  1  0
 18 16  1  0
 19 30  1  0
 19 18  1  0
 19 20  1  1
 21 20  1  0
 22 21  2  0
 23 22  1  0
 24 23  1  0
 24 29  2  0
 25 24  1  0
 26 25  2  0
 26 27  1  0
 27 28  2  0
 28 29  1  0
 29 21  1  0
 30 32  1  0
 31 30  2  0
M  END
$$$$
