NQW.pdb
     RDKit          3D

 32 33  0  0  1  0  0  0  0  0999 V2000
   29.1512  -23.3839  -17.7141 N   0  0  0  0  0  0  0  0  0  0  0  0
   28.5096  -22.1763  -18.0549 C   0  0  0  0  0  0  0  0  0  0  0  0
   28.2625  -21.9256  -19.2459 O   0  0  0  0  0  0  0  0  0  0  0  0
   28.1390  -21.2252  -16.9996 C   0  0  0  0  0  0  0  0  0  0  0  0
   26.9473  -21.7752  -16.2586 C   0  0  2  0  0  0  0  0  0  0  0  0
   25.7954  -21.9022  -17.1284 N   0  0  0  0  0  0  0  0  0  0  0  0
   26.6589  -20.8959  -15.1086 C   0  0  0  0  0  0  0  0  0  0  0  0
   27.1387  -19.7510  -14.9682 O   0  0  0  0  0  0  0  0  0  0  0  0
   21.0949  -20.1526  -13.9086 N   0  0  0  0  0  0  0  0  0  0  0  0
   21.9291  -19.3298  -14.7035 C   0  0  0  0  0  0  0  0  0  0  0  0
   21.4264  -18.5513  -15.5391 O   0  0  0  0  0  0  0  0  0  0  0  0
   23.3905  -19.4050  -14.5346 C   0  0  0  0  0  0  0  0  0  0  0  0
   23.7432  -20.3937  -13.4884 C   0  0  0  0  0  0  0  0  0  0  0  0
   25.2190  -20.4428  -13.1242 C   0  0  2  0  0  0  0  0  0  0  0  0
   25.7865  -21.3816  -14.1074 N   0  0  0  0  0  0  0  0  0  0  0  0
   25.4327  -21.0236  -11.7900 C   0  0  0  0  0  0  0  0  0  0  0  0
   25.1545  -22.2276  -11.5976 O   0  0  0  0  0  0  0  0  0  0  0  0
   25.9428  -20.2592  -10.7271 N   0  0  0  0  0  0  0  0  0  0  0  0
   25.9543  -20.8122   -9.3434 C   0  0  1  0  0  0  0  0  0  0  0  0
   26.9089  -19.9332   -8.6090 C   0  0  0  0  0  0  0  0  0  0  0  0
   26.9424  -20.1900   -7.1609 C   0  0  0  0  0  0  0  0  0  0  0  0
   26.0234  -20.9326   -6.4135 C   0  0  0  0  0  0  0  0  0  0  0  0
   26.3769  -20.9065   -5.1228 N   0  0  0  0  0  0  0  0  0  0  0  0
   27.4894  -20.1862   -4.9464 C   0  0  0  0  0  0  0  0  0  0  0  0
   28.2665  -19.8640   -3.8458 C   0  0  0  0  0  0  0  0  0  0  0  0
   29.3946  -19.0969   -4.0207 C   0  0  0  0  0  0  0  0  0  0  0  0
   29.7714  -18.6418   -5.2577 C   0  0  0  0  0  0  0  0  0  0  0  0
   28.9873  -18.9708   -6.3406 C   0  0  0  0  0  0  0  0  0  0  0  0
   27.8528  -19.7322   -6.2185 C   0  0  0  0  0  0  0  0  0  0  0  0
   24.5771  -20.8643   -8.8900 C   0  0  0  0  0  0  0  0  0  0  0  0
   23.6738  -20.0499   -9.2589 O   0  0  0  0  0  0  0  0  0  0  0  0
   24.1448  -21.8415   -8.0003 O   0  0  0  0  0  0  0  0  0  0  0  0
  1  2  1  0
  2  4  1  0
  2  3  2  0
  5  4  1  0
  5  6  1  6
  7  8  2  0
  7  5  1  0
 10 11  2  0
 10  9  1  0
 12 10  1  0
 13 12  1  0
 14 13  1  6
 14 15  1  0
 15  7  1  0
 16 17  2  0
 16 14  1  0
 18 16  1  0
 19 30  1  0
 19 18  1  0
 19 20  1  1
 21 20  1  0
 22 21  2  0
 23 22  1  0
 24 23  1  0
 24 29  2  0
 25 24  1  0
 26 25  2  0
 26 27  1  0
 27 28  2  0
 28 29  1  0
 29 21  1  0
 30 32  1  0
 31 30  2  0
M  END
$$$$
