NQW.pdb
     RDKit          3D

 32 33  0  0  1  0  0  0  0  0999 V2000
   12.2988  -22.9483   -2.5209 N   0  0  0  0  0  0  0  0  0  0  0  0
   12.1313  -22.4965   -1.1965 C   0  0  0  0  0  0  0  0  0  0  0  0
   11.2420  -22.9921   -0.4851 O   0  0  0  0  0  0  0  0  0  0  0  0
   13.0090  -21.4443   -0.6693 C   0  0  0  0  0  0  0  0  0  0  0  0
   13.1491  -21.6408    0.8185 C   0  0  2  0  0  0  0  0  0  0  0  0
   12.0723  -20.9950    1.5417 N   0  0  0  0  0  0  0  0  0  0  0  0
   14.4661  -21.1256    1.2413 C   0  0  0  0  0  0  0  0  0  0  0  0
   15.0588  -20.1805    0.6790 O   0  0  0  0  0  0  0  0  0  0  0  0
   14.6158  -17.5496    4.5738 N   0  0  0  0  0  0  0  0  0  0  0  0
   15.9423  -17.8451    4.9710 C   0  0  0  0  0  0  0  0  0  0  0  0
   16.5469  -17.0805    5.7501 O   0  0  0  0  0  0  0  0  0  0  0  0
   16.5978  -19.0589    4.4542 C   0  0  0  0  0  0  0  0  0  0  0  0
   15.6587  -19.8404    3.6152 C   0  0  0  0  0  0  0  0  0  0  0  0
   16.2526  -21.0882    2.9803 C   0  0  2  0  0  0  0  0  0  0  0  0
   15.0921  -21.7409    2.3499 N   0  0  0  0  0  0  0  0  0  0  0  0
   16.7812  -22.0162    3.9914 C   0  0  0  0  0  0  0  0  0  0  0  0
   15.9878  -22.5737    4.7812 O   0  0  0  0  0  0  0  0  0  0  0  0
   18.1553  -22.2923    4.0909 N   0  0  0  0  0  0  0  0  0  0  0  0
   18.6425  -23.3494    5.0213 C   0  0  1  0  0  0  0  0  0  0  0  0
   19.8524  -23.8989    4.3449 C   0  0  0  0  0  0  0  0  0  0  0  0
   19.5466  -24.6290    3.1050 C   0  0  0  0  0  0  0  0  0  0  0  0
   18.3468  -25.2660    2.7742 C   0  0  0  0  0  0  0  0  0  0  0  0
   18.4698  -25.8492    1.5756 N   0  0  0  0  0  0  0  0  0  0  0  0
   19.6896  -25.6449    1.0676 C   0  0  0  0  0  0  0  0  0  0  0  0
   20.3157  -26.0049   -0.1145 C   0  0  0  0  0  0  0  0  0  0  0  0
   21.6112  -25.6012   -0.3390 C   0  0  0  0  0  0  0  0  0  0  0  0
   22.3007  -24.8505    0.5776 C   0  0  0  0  0  0  0  0  0  0  0  0
   21.6636  -24.5021    1.7473 C   0  0  0  0  0  0  0  0  0  0  0  0
   20.3733  -24.8804    2.0187 C   0  0  0  0  0  0  0  0  0  0  0  0
   18.8019  -22.7340    6.3254 C   0  0  0  0  0  0  0  0  0  0  0  0
   19.3557  -23.3016    7.3187 O   0  0  0  0  0  0  0  0  0  0  0  0
   18.3497  -21.4433    6.5766 O   0  0  0  0  0  0  0  0  0  0  0  0
  1  2  1  0
  2  4  1  0
  2  3  2  0
  5  4  1  0
  5  6  1  1
  7  8  2  0
  7  5  1  0
 10 11  2  0
 10  9  1  0
 12 10  1  0
 13 12  1  0
 14 13  1  1
 14 15  1  0
 15  7  1  0
 16 17  2  0
 16 14  1  0
 18 16  1  0
 19 30  1  0
 19 18  1  0
 19 20  1  6
 21 20  1  0
 22 21  2  0
 23 22  1  0
 24 23  1  0
 24 29  2  0
 25 24  1  0
 26 25  2  0
 26 27  1  0
 27 28  2  0
 28 29  1  0
 29 21  1  0
 30 32  1  0
 31 30  2  0
M  END
$$$$
