NQW.pdb
     RDKit          3D

 32 33  0  0  1  0  0  0  0  0999 V2000
   28.7753  -20.4586  -17.4915 N   0  0  0  0  0  0  0  0  0  0  0  0
   27.4230  -20.3514  -17.8739 C   0  0  0  0  0  0  0  0  0  0  0  0
   27.1366  -20.0312  -19.0392 O   0  0  0  0  0  0  0  0  0  0  0  0
   26.3649  -20.6189  -16.8919 C   0  0  0  0  0  0  0  0  0  0  0  0
   26.8481  -21.6921  -15.9504 C   0  0  2  0  0  0  0  0  0  0  0  0
   27.1965  -22.9045  -16.6634 N   0  0  0  0  0  0  0  0  0  0  0  0
   25.7997  -21.9433  -14.9421 C   0  0  0  0  0  0  0  0  0  0  0  0
   24.8772  -22.7733  -15.0867 O   0  0  0  0  0  0  0  0  0  0  0  0
   26.6926  -20.2472   -9.1491 N   0  0  0  0  0  0  0  0  0  0  0  0
   25.3115  -20.5423   -9.0464 C   0  0  0  0  0  0  0  0  0  0  0  0
   24.7465  -20.5113   -7.9343 O   0  0  0  0  0  0  0  0  0  0  0  0
   24.5540  -20.8868  -10.2619 C   0  0  0  0  0  0  0  0  0  0  0  0
   25.4605  -20.9820  -11.4305 C   0  0  0  0  0  0  0  0  0  0  0  0
   24.7870  -21.3844  -12.7333 C   0  0  2  0  0  0  0  0  0  0  0  0
   25.8450  -21.1980  -13.7413 N   0  0  0  0  0  0  0  0  0  0  0  0
   23.6852  -20.4747  -13.0816 C   0  0  0  0  0  0  0  0  0  0  0  0
   23.9332  -19.2653  -13.2817 O   0  0  0  0  0  0  0  0  0  0  0  0
   22.3612  -20.9313  -13.1960 N   0  0  0  0  0  0  0  0  0  0  0  0
   21.3653  -20.1538  -13.9860 C   0  0  1  0  0  0  0  0  0  0  0  0
   21.8966  -20.1924  -15.3786 C   0  0  0  0  0  0  0  0  0  0  0  0
   21.0392  -19.4951  -16.3496 C   0  0  0  0  0  0  0  0  0  0  0  0
   21.0241  -18.1260  -16.6325 C   0  0  0  0  0  0  0  0  0  0  0  0
   20.0813  -17.8725  -17.5483 N   0  0  0  0  0  0  0  0  0  0  0  0
   19.4504  -18.9951  -17.9081 C   0  0  0  0  0  0  0  0  0  0  0  0
   18.4364  -19.2872  -18.8055 C   0  0  0  0  0  0  0  0  0  0  0  0
   18.0243  -20.5911  -18.9531 C   0  0  0  0  0  0  0  0  0  0  0  0
   18.5914  -21.6113  -18.2343 C   0  0  0  0  0  0  0  0  0  0  0  0
   19.5975  -21.3032  -17.3464 C   0  0  0  0  0  0  0  0  0  0  0  0
   20.0435  -20.0190  -17.1624 C   0  0  0  0  0  0  0  0  0  0  0  0
   20.0624  -20.7380  -13.7291 C   0  0  0  0  0  0  0  0  0  0  0  0
   19.8783  -21.9496  -13.3921 O   0  0  0  0  0  0  0  0  0  0  0  0
   18.8983  -19.9848  -13.8336 O   0  0  0  0  0  0  0  0  0  0  0  0
  1  2  1  0
  2  4  1  0
  2  3  2  0
  5  4  1  0
  5  6  1  6
  7  8  2  0
  7  5  1  0
 10 11  2  0
 10  9  1  0
 12 10  1  0
 13 12  1  0
 14 13  1  1
 14 15  1  0
 15  7  1  0
 16 17  2  0
 16 14  1  0
 18 16  1  0
 19 30  1  0
 19 18  1  0
 19 20  1  6
 21 20  1  0
 22 21  2  0
 23 22  1  0
 24 23  1  0
 24 29  2  0
 25 24  1  0
 26 25  2  0
 26 27  1  0
 27 28  2  0
 28 29  1  0
 29 21  1  0
 30 32  1  0
 31 30  2  0
M  END
$$$$
