NQW.pdb
     RDKit          3D

 32 33  0  0  1  0  0  0  0  0999 V2000
   26.1217  -21.7637   -9.7869 N   0  0  0  0  0  0  0  0  0  0  0  0
   26.8925  -20.8446  -10.5269 C   0  0  0  0  0  0  0  0  0  0  0  0
   27.8472  -20.2646   -9.9841 O   0  0  0  0  0  0  0  0  0  0  0  0
   26.5604  -20.5808  -11.9325 C   0  0  0  0  0  0  0  0  0  0  0  0
   25.3658  -21.4203  -12.3062 C   0  0  2  0  0  0  0  0  0  0  0  0
   25.7054  -22.8277  -12.3662 N   0  0  0  0  0  0  0  0  0  0  0  0
   24.8353  -20.9394  -13.5970 C   0  0  0  0  0  0  0  0  0  0  0  0
   25.2936  -21.2772  -14.7090 O   0  0  0  0  0  0  0  0  0  0  0  0
   19.0058  -19.8898  -14.5163 N   0  0  0  0  0  0  0  0  0  0  0  0
   19.6780  -19.4713  -13.3424 C   0  0  0  0  0  0  0  0  0  0  0  0
   19.0272  -19.1910  -12.3154 O   0  0  0  0  0  0  0  0  0  0  0  0
   21.1475  -19.3691  -13.3489 C   0  0  0  0  0  0  0  0  0  0  0  0
   21.6892  -19.7409  -14.6774 C   0  0  0  0  0  0  0  0  0  0  0  0
   23.1879  -19.5387  -14.8382 C   0  0  2  0  0  0  0  0  0  0  0  0
   23.7425  -20.0424  -13.5699 N   0  0  0  0  0  0  0  0  0  0  0  0
   23.5390  -18.1138  -14.9345 C   0  0  0  0  0  0  0  0  0  0  0  0
   23.1352  -17.3254  -14.0517 O   0  0  0  0  0  0  0  0  0  0  0  0
   24.3178  -17.6171  -15.9934 N   0  0  0  0  0  0  0  0  0  0  0  0
   24.7021  -16.1779  -16.0309 C   0  0  1  0  0  0  0  0  0  0  0  0
   25.9486  -16.1135  -15.2152 C   0  0  0  0  0  0  0  0  0  0  0  0
   26.7453  -14.9018  -15.4618 C   0  0  0  0  0  0  0  0  0  0  0  0
   26.5286  -13.6263  -14.9317 C   0  0  0  0  0  0  0  0  0  0  0  0
   27.4446  -12.7813  -15.4202 N   0  0  0  0  0  0  0  0  0  0  0  0
   28.2775  -13.4101  -16.2559 C   0  0  0  0  0  0  0  0  0  0  0  0
   29.3800  -13.0173  -16.9970 C   0  0  0  0  0  0  0  0  0  0  0  0
   30.0434  -13.9493  -17.7606 C   0  0  0  0  0  0  0  0  0  0  0  0
   29.6419  -15.2591  -17.8079 C   0  0  0  0  0  0  0  0  0  0  0  0
   28.5438  -15.6322  -17.0658 C   0  0  0  0  0  0  0  0  0  0  0  0
   27.8480  -14.7408  -16.2893 C   0  0  0  0  0  0  0  0  0  0  0  0
   24.7711  -15.7877  -17.4266 C   0  0  0  0  0  0  0  0  0  0  0  0
   24.6610  -14.5902  -17.8383 O   0  0  0  0  0  0  0  0  0  0  0  0
   24.9735  -16.7272  -18.4315 O   0  0  0  0  0  0  0  0  0  0  0  0
  1  2  1  0
  2  4  1  0
  2  3  2  0
  5  4  1  0
  5  6  1  6
  7  8  2  0
  7  5  1  0
 10 11  2  0
 10  9  1  0
 12 10  1  0
 13 12  1  0
 14 13  1  1
 14 15  1  0
 15  7  1  0
 16 17  2  0
 16 14  1  0
 18 16  1  0
 19 30  1  0
 19 18  1  0
 19 20  1  6
 21 20  1  0
 22 21  2  0
 23 22  1  0
 24 23  1  0
 24 29  2  0
 25 24  1  0
 26 25  2  0
 26 27  1  0
 27 28  2  0
 28 29  1  0
 29 21  1  0
 30 32  1  0
 31 30  2  0
M  END
$$$$
