NQW.pdb
     RDKit          3D

 32 33  0  0  1  0  0  0  0  0999 V2000
   27.1219  -20.1169  -18.0298 N   0  0  0  0  0  0  0  0  0  0  0  0
   27.7302  -19.2799  -17.0730 C   0  0  0  0  0  0  0  0  0  0  0  0
   28.9301  -18.9820  -17.1900 O   0  0  0  0  0  0  0  0  0  0  0  0
   26.9404  -18.7675  -15.9463 C   0  0  0  0  0  0  0  0  0  0  0  0
   25.6464  -19.5374  -15.8815 C   0  0  2  0  0  0  0  0  0  0  0  0
   24.7401  -19.1401  -16.9400 N   0  0  0  0  0  0  0  0  0  0  0  0
   25.0414  -19.3338  -14.5506 C   0  0  0  0  0  0  0  0  0  0  0  0
   24.5262  -18.2592  -14.1754 O   0  0  0  0  0  0  0  0  0  0  0  0
   20.9100  -22.6158  -12.6695 N   0  0  0  0  0  0  0  0  0  0  0  0
   20.7829  -21.2632  -13.0686 C   0  0  0  0  0  0  0  0  0  0  0  0
   19.6903  -20.8370  -13.4947 O   0  0  0  0  0  0  0  0  0  0  0  0
   21.9508  -20.3702  -12.9771 C   0  0  0  0  0  0  0  0  0  0  0  0
   23.1310  -21.1074  -12.4673 C   0  0  0  0  0  0  0  0  0  0  0  0
   24.3976  -20.2763  -12.3338 C   0  0  2  0  0  0  0  0  0  0  0  0
   25.0468  -20.4224  -13.6481 N   0  0  0  0  0  0  0  0  0  0  0  0
   25.3138  -20.8354  -11.3284 C   0  0  0  0  0  0  0  0  0  0  0  0
   25.7810  -21.9827  -11.5003 O   0  0  0  0  0  0  0  0  0  0  0  0
   25.6776  -20.1117  -10.1802 N   0  0  0  0  0  0  0  0  0  0  0  0
   26.5429  -20.7384   -9.1415 C   0  0  1  0  0  0  0  0  0  0  0  0
   27.4763  -19.6472   -8.7398 C   0  0  0  0  0  0  0  0  0  0  0  0
   28.4045  -20.0387   -7.6678 C   0  0  0  0  0  0  0  0  0  0  0  0
   29.2701  -21.1366   -7.6594 C   0  0  0  0  0  0  0  0  0  0  0  0
   29.9258  -21.1758   -6.4932 N   0  0  0  0  0  0  0  0  0  0  0  0
   29.5561  -20.1629   -5.7027 C   0  0  0  0  0  0  0  0  0  0  0  0
   29.9275  -19.7412   -4.4365 C   0  0  0  0  0  0  0  0  0  0  0  0
   29.3496  -18.6106   -3.9080 C   0  0  0  0  0  0  0  0  0  0  0  0
   28.4138  -17.8884   -4.6022 C   0  0  0  0  0  0  0  0  0  0  0  0
   28.0557  -18.3220   -5.8589 C   0  0  0  0  0  0  0  0  0  0  0  0
   28.6023  -19.4432   -6.4298 C   0  0  0  0  0  0  0  0  0  0  0  0
   25.6649  -21.3003   -8.1324 C   0  0  0  0  0  0  0  0  0  0  0  0
   24.4669  -20.9221   -7.9392 O   0  0  0  0  0  0  0  0  0  0  0  0
   26.0902  -22.3226   -7.2913 O   0  0  0  0  0  0  0  0  0  0  0  0
  1  2  1  0
  2  4  1  0
  2  3  2  0
  5  4  1  0
  5  6  1  6
  7  8  2  0
  7  5  1  0
 10 11  2  0
 10  9  1  0
 12 10  1  0
 13 12  1  0
 14 13  1  6
 14 15  1  0
 15  7  1  0
 16 17  2  0
 16 14  1  0
 18 16  1  0
 19 30  1  0
 19 18  1  0
 19 20  1  1
 21 20  1  0
 22 21  2  0
 23 22  1  0
 24 23  1  0
 24 29  2  0
 25 24  1  0
 26 25  2  0
 26 27  1  0
 27 28  2  0
 28 29  1  0
 29 21  1  0
 30 32  1  0
 31 30  2  0
M  END
$$$$
