NQW.pdb
     RDKit          3D

 32 33  0  0  1  0  0  0  0  0999 V2000
   29.1506  -18.9218  -19.2134 N   0  0  0  0  0  0  0  0  0  0  0  0
   30.0368  -19.2020  -18.1540 C   0  0  0  0  0  0  0  0  0  0  0  0
   31.0481  -19.8916  -18.3638 O   0  0  0  0  0  0  0  0  0  0  0  0
   29.7569  -18.6765  -16.8120 C   0  0  0  0  0  0  0  0  0  0  0  0
   28.3435  -18.1534  -16.7895 C   0  0  2  0  0  0  0  0  0  0  0  0
   28.2531  -16.8454  -17.4065 N   0  0  0  0  0  0  0  0  0  0  0  0
   27.8733  -18.1221  -15.3907 C   0  0  0  0  0  0  0  0  0  0  0  0
   28.4059  -17.4386  -14.4908 O   0  0  0  0  0  0  0  0  0  0  0  0
   22.3216  -18.9810  -15.2709 N   0  0  0  0  0  0  0  0  0  0  0  0
   22.8738  -17.6799  -15.1855 C   0  0  0  0  0  0  0  0  0  0  0  0
   22.2839  -16.7144  -15.7116 O   0  0  0  0  0  0  0  0  0  0  0  0
   24.1480  -17.4812  -14.4734 C   0  0  0  0  0  0  0  0  0  0  0  0
   24.6690  -18.7736  -13.9685 C   0  0  0  0  0  0  0  0  0  0  0  0
   26.1665  -18.8022  -13.7051 C   0  0  2  0  0  0  0  0  0  0  0  0
   26.7522  -18.9146  -15.0521 N   0  0  0  0  0  0  0  0  0  0  0  0
   26.5655  -20.0011  -12.9526 C   0  0  0  0  0  0  0  0  0  0  0  0
   26.7694  -21.0690  -13.5708 O   0  0  0  0  0  0  0  0  0  0  0  0
   26.7240  -19.9757  -11.5567 N   0  0  0  0  0  0  0  0  0  0  0  0
   27.0107  -21.2337  -10.8114 C   0  0  1  0  0  0  0  0  0  0  0  0
   27.8902  -20.7984   -9.6888 C   0  0  0  0  0  0  0  0  0  0  0  0
   27.1442  -20.3084   -8.5194 C   0  0  0  0  0  0  0  0  0  0  0  0
   25.7872  -19.9769   -8.4618 C   0  0  0  0  0  0  0  0  0  0  0  0
   25.4898  -19.5367   -7.2332 N   0  0  0  0  0  0  0  0  0  0  0  0
   26.5705  -19.5497   -6.4462 C   0  0  0  0  0  0  0  0  0  0  0  0
   26.8035  -19.2212   -5.1207 C   0  0  0  0  0  0  0  0  0  0  0  0
   28.0677  -19.3766   -4.6018 C   0  0  0  0  0  0  0  0  0  0  0  0
   29.1055  -19.8489   -5.3628 C   0  0  0  0  0  0  0  0  0  0  0  0
   28.8565  -20.1699   -6.6783 C   0  0  0  0  0  0  0  0  0  0  0  0
   27.6139  -20.0322   -7.2429 C   0  0  0  0  0  0  0  0  0  0  0  0
   25.7340  -21.8433  -10.4899 C   0  0  0  0  0  0  0  0  0  0  0  0
   25.5958  -23.0453  -10.1006 O   0  0  0  0  0  0  0  0  0  0  0  0
   24.5458  -21.1273  -10.5854 O   0  0  0  0  0  0  0  0  0  0  0  0
  1  2  1  0
  2  4  1  0
  2  3  2  0
  5  4  1  0
  5  6  1  1
  7  8  2  0
  7  5  1  0
 10 11  2  0
 10  9  1  0
 12 10  1  0
 13 12  1  0
 14 13  1  6
 14 15  1  0
 15  7  1  0
 16 17  2  0
 16 14  1  0
 18 16  1  0
 19 30  1  0
 19 18  1  0
 19 20  1  1
 21 20  1  0
 22 21  2  0
 23 22  1  0
 24 23  1  0
 24 29  2  0
 25 24  1  0
 26 25  2  0
 26 27  1  0
 27 28  2  0
 28 29  1  0
 29 21  1  0
 30 32  1  0
 31 30  2  0
M  END
$$$$
