NQW.pdb
     RDKit          3D

 32 33  0  0  1  0  0  0  0  0999 V2000
   25.1959  -17.4016  -20.1716 N   0  0  0  0  0  0  0  0  0  0  0  0
   24.3828  -16.5317  -20.9256 C   0  0  0  0  0  0  0  0  0  0  0  0
   24.7928  -16.0942  -22.0132 O   0  0  0  0  0  0  0  0  0  0  0  0
   23.0586  -16.1503  -20.4190 C   0  0  0  0  0  0  0  0  0  0  0  0
   22.4334  -17.3548  -19.7634 C   0  0  2  0  0  0  0  0  0  0  0  0
   22.1372  -18.3910  -20.7321 N   0  0  0  0  0  0  0  0  0  0  0  0
   21.2169  -16.9247  -19.0467 C   0  0  0  0  0  0  0  0  0  0  0  0
   20.1582  -16.5803  -19.6136 O   0  0  0  0  0  0  0  0  0  0  0  0
   22.1165  -18.8740  -14.6493 N   0  0  0  0  0  0  0  0  0  0  0  0
   20.8416  -19.4075  -14.9571 C   0  0  0  0  0  0  0  0  0  0  0  0
   20.6446  -20.6376  -14.8855 O   0  0  0  0  0  0  0  0  0  0  0  0
   19.7565  -18.4977  -15.3630 C   0  0  0  0  0  0  0  0  0  0  0  0
   20.2654  -17.1135  -15.5098 C   0  0  0  0  0  0  0  0  0  0  0  0
   20.0545  -16.4952  -16.8831 C   0  0  2  0  0  0  0  0  0  0  0  0
   21.2552  -16.9021  -17.6334 N   0  0  0  0  0  0  0  0  0  0  0  0
   20.0514  -15.0256  -16.8252 C   0  0  0  0  0  0  0  0  0  0  0  0
   21.1418  -14.4153  -16.7731 O   0  0  0  0  0  0  0  0  0  0  0  0
   18.8537  -14.2909  -16.8280 N   0  0  0  0  0  0  0  0  0  0  0  0
   18.8873  -12.8019  -16.8730 C   0  0  1  0  0  0  0  0  0  0  0  0
   19.6004  -12.4931  -18.1456 C   0  0  0  0  0  0  0  0  0  0  0  0
   19.5160  -11.0763  -18.5326 C   0  0  0  0  0  0  0  0  0  0  0  0
   20.0410   -9.9797  -17.8424 C   0  0  0  0  0  0  0  0  0  0  0  0
   19.7264   -8.8534  -18.4937 N   0  0  0  0  0  0  0  0  0  0  0  0
   19.0145   -9.1203  -19.5935 C   0  0  0  0  0  0  0  0  0  0  0  0
   18.4671   -8.3432  -20.6013 C   0  0  0  0  0  0  0  0  0  0  0  0
   17.7915   -8.9559  -21.6307 C   0  0  0  0  0  0  0  0  0  0  0  0
   17.6450  -10.3177  -21.6863 C   0  0  0  0  0  0  0  0  0  0  0  0
   18.1946  -11.0748  -20.6762 C   0  0  0  0  0  0  0  0  0  0  0  0
   18.8769  -10.5118  -19.6277 C   0  0  0  0  0  0  0  0  0  0  0  0
   17.5220  -12.3362  -16.7178 C   0  0  0  0  0  0  0  0  0  0  0  0
   16.4952  -13.0420  -16.9689 O   0  0  0  0  0  0  0  0  0  0  0  0
   17.2428  -11.0513  -16.2657 O   0  0  0  0  0  0  0  0  0  0  0  0
  1  2  1  0
  2  4  1  0
  2  3  2  0
  5  4  1  0
  5  6  1  6
  7  8  2  0
  7  5  1  0
 10 11  2  0
 10  9  1  0
 12 10  1  0
 13 12  1  0
 14 13  1  1
 14 15  1  0
 15  7  1  0
 16 17  2  0
 16 14  1  0
 18 16  1  0
 19 30  1  0
 19 18  1  0
 19 20  1  6
 21 20  1  0
 22 21  2  0
 23 22  1  0
 24 23  1  0
 24 29  2  0
 25 24  1  0
 26 25  2  0
 26 27  1  0
 27 28  2  0
 28 29  1  0
 29 21  1  0
 30 32  1  0
 31 30  2  0
M  END
$$$$
