NQW.pdb
     RDKit          3D

 32 33  0  0  1  0  0  0  0  0999 V2000
   21.8169  -15.8656  -16.5046 N   0  0  0  0  0  0  0  0  0  0  0  0
   20.7112  -16.4348  -15.8416 C   0  0  0  0  0  0  0  0  0  0  0  0
   19.5797  -15.9490  -16.0035 O   0  0  0  0  0  0  0  0  0  0  0  0
   20.9063  -17.5966  -14.9654 C   0  0  0  0  0  0  0  0  0  0  0  0
   22.3836  -17.8795  -14.8698 C   0  0  2  0  0  0  0  0  0  0  0  0
   22.9193  -18.3321  -16.1379 N   0  0  0  0  0  0  0  0  0  0  0  0
   22.6059  -18.8772  -13.8050 C   0  0  0  0  0  0  0  0  0  0  0  0
   22.1422  -18.7790  -12.6491 O   0  0  0  0  0  0  0  0  0  0  0  0
   23.9128  -24.6030  -15.2469 N   0  0  0  0  0  0  0  0  0  0  0  0
   24.2908  -24.6841  -13.8847 C   0  0  0  0  0  0  0  0  0  0  0  0
   24.6955  -25.7653  -13.4114 O   0  0  0  0  0  0  0  0  0  0  0  0
   24.1987  -23.4831  -13.0367 C   0  0  0  0  0  0  0  0  0  0  0  0
   23.7279  -22.3219  -13.8282 C   0  0  0  0  0  0  0  0  0  0  0  0
   23.6707  -21.0072  -13.0660 C   0  0  2  0  0  0  0  0  0  0  0  0
   23.3913  -20.0114  -14.1150 N   0  0  0  0  0  0  0  0  0  0  0  0
   24.9714  -20.6640  -12.4716 C   0  0  0  0  0  0  0  0  0  0  0  0
   25.9102  -20.3136  -13.2199 O   0  0  0  0  0  0  0  0  0  0  0  0
   25.1846  -20.7192  -11.0838 N   0  0  0  0  0  0  0  0  0  0  0  0
   26.5612  -20.5815  -10.5304 C   0  0  1  0  0  0  0  0  0  0  0  0
   26.3437  -20.2873   -9.0849 C   0  0  0  0  0  0  0  0  0  0  0  0
   27.5869  -20.2754   -8.2985 C   0  0  0  0  0  0  0  0  0  0  0  0
   28.8604  -20.6626   -8.7262 C   0  0  0  0  0  0  0  0  0  0  0  0
   29.7250  -20.5418   -7.7116 N   0  0  0  0  0  0  0  0  0  0  0  0
   29.1118  -20.0919   -6.6120 C   0  0  0  0  0  0  0  0  0  0  0  0
   29.5338  -19.7833   -5.3291 C   0  0  0  0  0  0  0  0  0  0  0  0
   28.6205  -19.3081   -4.4171 C   0  0  0  0  0  0  0  0  0  0  0  0
   27.3011  -19.1313   -4.7444 C   0  0  0  0  0  0  0  0  0  0  0  0
   26.8986  -19.4437   -6.0235 C   0  0  0  0  0  0  0  0  0  0  0  0
   27.7702  -19.9212   -6.9690 C   0  0  0  0  0  0  0  0  0  0  0  0
   27.2901  -21.7842  -10.8867 C   0  0  0  0  0  0  0  0  0  0  0  0
   26.7877  -22.9517  -10.8761 O   0  0  0  0  0  0  0  0  0  0  0  0
   28.6230  -21.7330  -11.2792 O   0  0  0  0  0  0  0  0  0  0  0  0
  1  2  1  0
  2  4  1  0
  2  3  2  0
  5  4  1  0
  5  6  1  6
  7  8  2  0
  7  5  1  0
 10 11  2  0
 10  9  1  0
 12 10  1  0
 13 12  1  0
 14 13  1  6
 14 15  1  0
 15  7  1  0
 16 17  2  0
 16 14  1  0
 18 16  1  0
 19 30  1  0
 19 18  1  0
 19 20  1  1
 21 20  1  0
 22 21  2  0
 23 22  1  0
 24 23  1  0
 24 29  2  0
 25 24  1  0
 26 25  2  0
 26 27  1  0
 27 28  2  0
 28 29  1  0
 29 21  1  0
 30 32  1  0
 31 30  2  0
M  END
$$$$
