NQW.pdb
     RDKit          3D

 32 33  0  0  1  0  0  0  0  0999 V2000
   26.0042  -19.7313  -17.5363 N   0  0  0  0  0  0  0  0  0  0  0  0
   25.0341  -18.7098  -17.4974 C   0  0  0  0  0  0  0  0  0  0  0  0
   25.1009  -17.7666  -18.3026 O   0  0  0  0  0  0  0  0  0  0  0  0
   23.9531  -18.7693  -16.5057 C   0  0  0  0  0  0  0  0  0  0  0  0
   24.2074  -19.9409  -15.5924 C   0  0  2  0  0  0  0  0  0  0  0  0
   23.3238  -21.0491  -15.8940 N   0  0  0  0  0  0  0  0  0  0  0  0
   24.0511  -19.4932  -14.1945 C   0  0  0  0  0  0  0  0  0  0  0  0
   24.2314  -18.3169  -13.8144 O   0  0  0  0  0  0  0  0  0  0  0  0
   19.6654  -21.5613  -10.8177 N   0  0  0  0  0  0  0  0  0  0  0  0
   19.8803  -21.3172  -12.1958 C   0  0  0  0  0  0  0  0  0  0  0  0
   18.9622  -21.5175  -13.0169 O   0  0  0  0  0  0  0  0  0  0  0  0
   21.1948  -20.8286  -12.6467 C   0  0  0  0  0  0  0  0  0  0  0  0
   22.1002  -20.6286  -11.4905 C   0  0  0  0  0  0  0  0  0  0  0  0
   23.4581  -20.0366  -11.8345 C   0  0  2  0  0  0  0  0  0  0  0  0
   23.6745  -20.4561  -13.2300 N   0  0  0  0  0  0  0  0  0  0  0  0
   24.5333  -20.6317  -11.0266 C   0  0  0  0  0  0  0  0  0  0  0  0
   24.9388  -21.7819  -11.3036 O   0  0  0  0  0  0  0  0  0  0  0  0
   25.1166  -19.9392   -9.9521 N   0  0  0  0  0  0  0  0  0  0  0  0
   26.1108  -20.6177   -9.0736 C   0  0  1  0  0  0  0  0  0  0  0  0
   27.1858  -19.6011   -8.8890 C   0  0  0  0  0  0  0  0  0  0  0  0
   28.2372  -20.0274   -7.9527 C   0  0  0  0  0  0  0  0  0  0  0  0
   29.2501  -20.9617   -8.1889 C   0  0  0  0  0  0  0  0  0  0  0  0
   29.9890  -21.1046   -7.0819 N   0  0  0  0  0  0  0  0  0  0  0  0
   29.5366  -20.3175   -6.1004 C   0  0  0  0  0  0  0  0  0  0  0  0
   29.9358  -20.0742   -4.7964 C   0  0  0  0  0  0  0  0  0  0  0  0
   29.2417  -19.1587   -4.0405 C   0  0  0  0  0  0  0  0  0  0  0  0
   28.1630  -18.4789   -4.5440 C   0  0  0  0  0  0  0  0  0  0  0  0
   27.7793  -18.7333   -5.8416 C   0  0  0  0  0  0  0  0  0  0  0  0
   28.4380  -19.6372   -6.6359 C   0  0  0  0  0  0  0  0  0  0  0  0
   25.3979  -21.0876   -7.9006 C   0  0  0  0  0  0  0  0  0  0  0  0
   24.3021  -20.5938   -7.4871 O   0  0  0  0  0  0  0  0  0  0  0  0
   25.8807  -22.1430   -7.1350 O   0  0  0  0  0  0  0  0  0  0  0  0
  1  2  1  0
  2  4  1  0
  2  3  2  0
  5  4  1  0
  5  6  1  6
  7  8  2  0
  7  5  1  0
 10 11  2  0
 10  9  1  0
 12 10  1  0
 13 12  1  0
 14 13  1  1
 14 15  1  0
 15  7  1  0
 16 17  2  0
 16 14  1  0
 18 16  1  0
 19 30  1  0
 19 18  1  0
 19 20  1  1
 21 20  1  0
 22 21  2  0
 23 22  1  0
 24 23  1  0
 24 29  2  0
 25 24  1  0
 26 25  2  0
 26 27  1  0
 27 28  2  0
 28 29  1  0
 29 21  1  0
 30 32  1  0
 31 30  2  0
M  END
$$$$
