TFI.pdb
     RDKit          3D

 27 27  0  0  1  0  0  0  0  0999 V2000
    9.7625  -19.3272   19.0091 C   0  0  0  0  0  0  0  0  0  0  0  0
    9.8516  -18.5651   20.3153 C   0  0  1  0  0  0  0  0  0  0  0  0
   11.0403  -18.8396   20.9880 O   0  0  0  0  0  0  0  0  0  0  0  0
    9.7243  -17.0905   20.0068 C   0  0  2  0  0  0  0  0  0  0  0  0
   10.8535  -16.7372   19.1716 N   0  0  0  0  0  0  0  0  0  0  0  0
    9.6924  -16.2529   21.2082 C   0  0  0  0  0  0  0  0  0  0  0  0
   10.7669  -15.6730   21.5621 O   0  0  0  0  0  0  0  0  0  0  0  0
    8.5723  -16.0335   22.0072 N   0  0  0  0  0  0  0  0  0  0  0  0
    8.5757  -15.2287   23.2543 C   0  0  1  0  0  0  0  0  0  0  0  0
    7.1741  -14.7724   23.3871 C   0  0  0  0  0  0  0  0  0  0  0  0
    6.8368  -13.8440   24.4499 C   0  0  0  0  0  0  0  0  0  0  0  0
    7.4072  -12.5906   24.4563 C   0  0  0  0  0  0  0  0  0  0  0  0
    7.1482  -11.6404   25.4217 C   0  0  0  0  0  0  0  0  0  0  0  0
    6.2681  -11.9578   26.4421 C   0  0  0  0  0  0  0  0  0  0  0  0
    5.6992  -13.2141   26.4318 C   0  0  0  0  0  0  0  0  0  0  0  0
    5.9592  -14.1539   25.4717 C   0  0  0  0  0  0  0  0  0  0  0  0
    9.1144  -16.1197   24.2828 C   0  0  0  0  0  0  0  0  0  0  0  0
    9.8548  -17.1063   23.9325 O   0  0  0  0  0  0  0  0  0  0  0  0
   10.8948  -13.8979   29.6911 C   0  0  0  0  0  0  0  0  0  0  0  0
   11.1685  -14.7912   28.5148 C   0  0  0  0  0  0  0  0  0  0  0  0
   10.1214  -14.8404   27.4766 C   0  0  2  0  0  0  0  0  0  0  0  0
    8.7794  -14.4727   28.1098 C   0  0  0  0  0  0  0  0  0  0  0  0
   10.0248  -16.0511   26.6280 C   0  0  2  0  0  0  0  0  0  0  0  0
    8.9225  -16.0309   25.6940 N   0  0  0  0  0  0  0  0  0  0  0  0
   10.0315  -17.2728   27.4187 C   0  0  0  0  0  0  0  0  0  0  0  0
   11.1958  -17.6627   28.0607 O   0  0  0  0  0  0  0  0  0  0  0  0
    9.0052  -18.0149   27.5558 O   0  0  0  0  0  0  0  0  0  0  0  0
  2  4  1  0
  2  1  1  6
  2  3  1  0
  4  5  1  6
  6  4  1  0
  6  7  2  0
  8  6  1  0
  9  8  1  0
 10 11  1  0
  9 10  1  1
 11 12  2  0
 11 16  1  0
 12 13  1  0
 13 14  2  0
 15 14  1  0
 16 15  2  0
 17 18  2  0
 17  9  1  0
 20 21  1  0
 20 19  1  0
 21 22  1  1
 23 24  1  1
 23 21  1  0
 24 17  1  0
 25 23  1  0
 26 25  1  0
 27 25  2  0
M  END
$$$$
