TFI.pdb
     RDKit          3D

 27 27  0  0  1  0  0  0  0  0999 V2000
   10.5835  -19.5389   22.0416 C   0  0  0  0  0  0  0  0  0  0  0  0
   11.1823  -18.8376   20.8398 C   0  0  1  0  0  0  0  0  0  0  0  0
   11.3623  -19.7148   19.7725 O   0  0  0  0  0  0  0  0  0  0  0  0
   10.2686  -17.6941   20.4615 C   0  0  2  0  0  0  0  0  0  0  0  0
   10.7996  -17.1175   19.2438 N   0  0  0  0  0  0  0  0  0  0  0  0
   10.1607  -16.6745   21.5078 C   0  0  0  0  0  0  0  0  0  0  0  0
   11.1419  -15.8839   21.6763 O   0  0  0  0  0  0  0  0  0  0  0  0
    9.0621  -16.4934   22.3453 N   0  0  0  0  0  0  0  0  0  0  0  0
    8.9876  -15.4762   23.4236 C   0  0  1  0  0  0  0  0  0  0  0  0
    7.5698  -15.0515   23.4147 C   0  0  0  0  0  0  0  0  0  0  0  0
    7.1256  -14.0707   24.3873 C   0  0  0  0  0  0  0  0  0  0  0  0
    6.3399  -14.4762   25.4431 C   0  0  0  0  0  0  0  0  0  0  0  0
    5.8709  -13.6198   26.4169 C   0  0  0  0  0  0  0  0  0  0  0  0
    6.2045  -12.2787   26.3341 C   0  0  0  0  0  0  0  0  0  0  0  0
    6.9915  -11.8770   25.2752 C   0  0  0  0  0  0  0  0  0  0  0  0
    7.4547  -12.7304   24.3111 C   0  0  0  0  0  0  0  0  0  0  0  0
    9.5022  -16.1470   24.6181 C   0  0  0  0  0  0  0  0  0  0  0  0
    9.1042  -17.3352   24.8906 O   0  0  0  0  0  0  0  0  0  0  0  0
   10.1315  -13.7785   29.7576 C   0  0  0  0  0  0  0  0  0  0  0  0
    9.8049  -14.7543   28.6632 C   0  0  0  0  0  0  0  0  0  0  0  0
   10.9548  -15.3400   27.9481 C   0  0  2  0  0  0  0  0  0  0  0  0
   11.9076  -14.2166   27.5395 C   0  0  0  0  0  0  0  0  0  0  0  0
   10.6891  -16.2792   26.8334 C   0  0  2  0  0  0  0  0  0  0  0  0
   10.4385  -15.6341   25.5650 N   0  0  0  0  0  0  0  0  0  0  0  0
    9.6408  -17.2333   27.1627 C   0  0  0  0  0  0  0  0  0  0  0  0
    9.9067  -18.2552   28.0599 O   0  0  0  0  0  0  0  0  0  0  0  0
    8.4705  -17.1769   26.6626 O   0  0  0  0  0  0  0  0  0  0  0  0
  2  4  1  0
  2  1  1  1
  2  3  1  0
  4  5  1  6
  6  4  1  0
  6  7  2  0
  8  6  1  0
  9  8  1  0
 10 11  1  0
  9 10  1  1
 11 12  2  0
 11 16  1  0
 12 13  1  0
 13 14  2  0
 15 14  1  0
 16 15  2  0
 17 18  2  0
 17  9  1  0
 20 21  1  0
 20 19  1  0
 21 22  1  6
 23 24  1  6
 23 21  1  0
 24 17  1  0
 25 23  1  0
 26 25  1  0
 27 25  2  0
M  END
$$$$
