TFI.pdb
     RDKit          3D

 27 27  0  0  1  0  0  0  0  0999 V2000
   10.6006  -19.6687   19.5537 C   0  0  0  0  0  0  0  0  0  0  0  0
   10.6135  -18.7936   20.7901 C   0  0  1  0  0  0  0  0  0  0  0  0
   11.8268  -18.8844   21.4687 O   0  0  0  0  0  0  0  0  0  0  0  0
   10.3308  -17.3719   20.3606 C   0  0  2  0  0  0  0  0  0  0  0  0
   11.4254  -16.9666   19.5033 N   0  0  0  0  0  0  0  0  0  0  0  0
   10.1929  -16.4475   21.4888 C   0  0  0  0  0  0  0  0  0  0  0  0
   11.1891  -15.7171   21.7891 O   0  0  0  0  0  0  0  0  0  0  0  0
    9.0501  -16.2973   22.2714 N   0  0  0  0  0  0  0  0  0  0  0  0
    8.9050  -15.3012   23.3622 C   0  0  1  0  0  0  0  0  0  0  0  0
    7.4883  -14.8819   23.2749 C   0  0  0  0  0  0  0  0  0  0  0  0
    6.9713  -13.9494   24.2590 C   0  0  0  0  0  0  0  0  0  0  0  0
    7.3422  -12.6248   24.1926 C   0  0  0  0  0  0  0  0  0  0  0  0
    6.9030  -11.6651   25.0802 C   0  0  0  0  0  0  0  0  0  0  0  0
    6.0426  -12.0478   26.0950 C   0  0  0  0  0  0  0  0  0  0  0  0
    5.6738  -13.3752   26.1578 C   0  0  0  0  0  0  0  0  0  0  0  0
    6.1122  -14.3242   25.2748 C   0  0  0  0  0  0  0  0  0  0  0  0
    9.3493  -15.9927   24.5730 C   0  0  0  0  0  0  0  0  0  0  0  0
    9.2771  -17.2718   24.6268 O   0  0  0  0  0  0  0  0  0  0  0  0
   10.6155  -13.7397   29.8746 C   0  0  0  0  0  0  0  0  0  0  0  0
    9.9891  -14.5419   28.7697 C   0  0  0  0  0  0  0  0  0  0  0  0
   10.9000  -15.4065   27.9954 C   0  0  2  0  0  0  0  0  0  0  0  0
   12.1150  -14.5848   27.5649 C   0  0  0  0  0  0  0  0  0  0  0  0
   10.3392  -16.2008   26.8774 C   0  0  2  0  0  0  0  0  0  0  0  0
    9.8845  -15.4069   25.7591 N   0  0  0  0  0  0  0  0  0  0  0  0
    9.3101  -17.1256   27.3284 C   0  0  0  0  0  0  0  0  0  0  0  0
    9.6612  -18.1943   28.1373 O   0  0  0  0  0  0  0  0  0  0  0  0
    8.0816  -17.0015   27.0150 O   0  0  0  0  0  0  0  0  0  0  0  0
  2  4  1  0
  2  1  1  6
  2  3  1  0
  4  5  1  6
  6  4  1  0
  6  7  2  0
  8  6  1  0
  9  8  1  0
 10 11  1  0
  9 10  1  1
 11 12  2  0
 11 16  1  0
 12 13  1  0
 13 14  2  0
 15 14  1  0
 16 15  2  0
 17 18  2  0
 17  9  1  0
 20 21  1  0
 20 19  1  0
 21 22  1  6
 23 24  1  6
 23 21  1  0
 24 17  1  0
 25 23  1  0
 26 25  1  0
 27 25  2  0
M  END
$$$$
