TFI.pdb
     RDKit          3D

 27 27  0  0  1  0  0  0  0  0999 V2000
   10.7497  -19.8250   19.6734 C   0  0  0  0  0  0  0  0  0  0  0  0
   10.8126  -18.8705   20.8480 C   0  0  1  0  0  0  0  0  0  0  0  0
   12.1187  -18.7056   21.3040 O   0  0  0  0  0  0  0  0  0  0  0  0
   10.2134  -17.5524   20.4130 C   0  0  2  0  0  0  0  0  0  0  0  0
   11.0757  -17.0201   19.3784 N   0  0  0  0  0  0  0  0  0  0  0  0
   10.0771  -16.5929   21.5116 C   0  0  0  0  0  0  0  0  0  0  0  0
   10.9852  -15.7150   21.6555 O   0  0  0  0  0  0  0  0  0  0  0  0
    9.0250  -16.5582   22.4243 N   0  0  0  0  0  0  0  0  0  0  0  0
    8.8933  -15.5608   23.5156 C   0  0  1  0  0  0  0  0  0  0  0  0
    7.4450  -15.2579   23.5478 C   0  0  0  0  0  0  0  0  0  0  0  0
    6.9456  -14.3264   24.5420 C   0  0  0  0  0  0  0  0  0  0  0  0
    7.2395  -12.9867   24.4183 C   0  0  0  0  0  0  0  0  0  0  0  0
    6.8097  -12.0268   25.3102 C   0  0  0  0  0  0  0  0  0  0  0  0
    6.0409  -12.4252   26.3904 C   0  0  0  0  0  0  0  0  0  0  0  0
    5.7490  -13.7678   26.5103 C   0  0  0  0  0  0  0  0  0  0  0  0
    6.1776  -14.7169   25.6228 C   0  0  0  0  0  0  0  0  0  0  0  0
    9.4943  -16.1964   24.6889 C   0  0  0  0  0  0  0  0  0  0  0  0
    9.6087  -17.4732   24.7208 O   0  0  0  0  0  0  0  0  0  0  0  0
   10.3929  -13.8632   30.0012 C   0  0  0  0  0  0  0  0  0  0  0  0
    9.9152  -14.8069   28.9344 C   0  0  0  0  0  0  0  0  0  0  0  0
   10.9617  -15.4489   28.1163 C   0  0  2  0  0  0  0  0  0  0  0  0
   11.9867  -14.3916   27.7058 C   0  0  0  0  0  0  0  0  0  0  0  0
   10.5448  -16.2950   26.9737 C   0  0  2  0  0  0  0  0  0  0  0  0
   10.0010  -15.5546   25.8584 N   0  0  0  0  0  0  0  0  0  0  0  0
    9.6530  -17.3681   27.3870 C   0  0  0  0  0  0  0  0  0  0  0  0
    8.3470  -17.3852   26.9243 O   0  0  0  0  0  0  0  0  0  0  0  0
   10.0160  -18.3102   28.1638 O   0  0  0  0  0  0  0  0  0  0  0  0
  2  4  1  0
  2  1  1  6
  2  3  1  0
  4  5  1  6
  6  4  1  0
  6  7  2  0
  8  6  1  0
  9  8  1  0
 10 11  1  0
  9 10  1  1
 11 12  2  0
 11 16  1  0
 12 13  1  0
 13 14  2  0
 15 14  1  0
 16 15  2  0
 17 18  2  0
 17  9  1  0
 20 21  1  0
 20 19  1  0
 21 22  1  6
 23 24  1  6
 23 21  1  0
 24 17  1  0
 25 23  1  0
 26 25  1  0
 27 25  2  0
M  END
$$$$
