TFI.pdb
     RDKit          3D

 27 27  0  0  1  0  0  0  0  0999 V2000
   11.0541  -19.1958   21.9980 C   0  0  0  0  0  0  0  0  0  0  0  0
   11.5438  -18.3494   20.8410 C   0  0  1  0  0  0  0  0  0  0  0  0
   11.8374  -19.1294   19.7247 O   0  0  0  0  0  0  0  0  0  0  0  0
   10.4788  -17.3230   20.5279 C   0  0  2  0  0  0  0  0  0  0  0  0
   10.8965  -16.6391   19.3217 N   0  0  0  0  0  0  0  0  0  0  0  0
   10.2680  -16.3639   21.6151 C   0  0  0  0  0  0  0  0  0  0  0  0
   11.1251  -15.4383   21.7711 O   0  0  0  0  0  0  0  0  0  0  0  0
    9.1957  -16.3783   22.5045 N   0  0  0  0  0  0  0  0  0  0  0  0
    8.9571  -15.3499   23.5479 C   0  0  1  0  0  0  0  0  0  0  0  0
    7.5047  -15.0802   23.4560 C   0  0  0  0  0  0  0  0  0  0  0  0
    6.9092  -14.1274   24.3741 C   0  0  0  0  0  0  0  0  0  0  0  0
    7.0795  -12.7792   24.1508 C   0  0  0  0  0  0  0  0  0  0  0  0
    6.5519  -11.7993   24.9652 C   0  0  0  0  0  0  0  0  0  0  0  0
    5.8101  -12.1855   26.0684 C   0  0  0  0  0  0  0  0  0  0  0  0
    5.6422  -13.5366   26.2883 C   0  0  0  0  0  0  0  0  0  0  0  0
    6.1676  -14.5055   25.4775 C   0  0  0  0  0  0  0  0  0  0  0  0
    9.4763  -15.9334   24.7855 C   0  0  0  0  0  0  0  0  0  0  0  0
    9.6423  -17.2028   24.8589 O   0  0  0  0  0  0  0  0  0  0  0  0
   12.1769  -15.1649   30.1838 C   0  0  0  0  0  0  0  0  0  0  0  0
   10.8831  -15.6836   29.6235 C   0  0  0  0  0  0  0  0  0  0  0  0
   10.4295  -15.0730   28.3593 C   0  0  2  0  0  0  0  0  0  0  0  0
    9.1594  -14.2657   28.6278 C   0  0  0  0  0  0  0  0  0  0  0  0
   10.2979  -15.9389   27.1643 C   0  0  2  0  0  0  0  0  0  0  0  0
    9.8470  -15.2455   25.9796 N   0  0  0  0  0  0  0  0  0  0  0  0
    9.4886  -17.1183   27.4323 C   0  0  0  0  0  0  0  0  0  0  0  0
   10.0644  -18.2119   28.0588 O   0  0  0  0  0  0  0  0  0  0  0  0
    8.2568  -17.1995   27.1178 O   0  0  0  0  0  0  0  0  0  0  0  0
  2  4  1  0
  2  1  1  1
  2  3  1  0
  4  5  1  6
  6  4  1  0
  6  7  2  0
  8  6  1  0
  9  8  1  0
 10 11  1  0
  9 10  1  1
 11 12  2  0
 11 16  1  0
 12 13  1  0
 13 14  2  0
 15 14  1  0
 16 15  2  0
 17 18  2  0
 17  9  1  0
 20 21  1  0
 20 19  1  0
 21 22  1  1
 23 24  1  6
 23 21  1  0
 24 17  1  0
 25 23  1  0
 26 25  1  0
 27 25  2  0
M  END
$$$$
