TFI.pdb
     RDKit          3D

 27 27  0  0  1  0  0  0  0  0999 V2000
   10.4922  -19.3818   21.9729 C   0  0  0  0  0  0  0  0  0  0  0  0
   11.1307  -18.6837   20.7898 C   0  0  1  0  0  0  0  0  0  0  0  0
   11.3110  -19.5550   19.7177 O   0  0  0  0  0  0  0  0  0  0  0  0
   10.2515  -17.5155   20.4049 C   0  0  2  0  0  0  0  0  0  0  0  0
   10.8368  -16.9217   19.2208 N   0  0  0  0  0  0  0  0  0  0  0  0
   10.1232  -16.5177   21.4698 C   0  0  0  0  0  0  0  0  0  0  0  0
   11.0988  -15.7278   21.6704 O   0  0  0  0  0  0  0  0  0  0  0  0
    9.0105  -16.3570   22.2927 N   0  0  0  0  0  0  0  0  0  0  0  0
    8.9027  -15.3410   23.3694 C   0  0  1  0  0  0  0  0  0  0  0  0
    7.4914  -14.9003   23.3026 C   0  0  0  0  0  0  0  0  0  0  0  0
    7.0010  -13.9657   24.2983 C   0  0  0  0  0  0  0  0  0  0  0  0
    6.1973  -14.4264   25.3173 C   0  0  0  0  0  0  0  0  0  0  0  0
    5.6848  -13.6167   26.3090 C   0  0  0  0  0  0  0  0  0  0  0  0
    5.9911  -12.2668   26.2842 C   0  0  0  0  0  0  0  0  0  0  0  0
    6.7962  -11.8098   25.2619 C   0  0  0  0  0  0  0  0  0  0  0  0
    7.3027  -12.6170   24.2799 C   0  0  0  0  0  0  0  0  0  0  0  0
    9.3598  -16.0198   24.5826 C   0  0  0  0  0  0  0  0  0  0  0  0
    9.2583  -17.2956   24.6635 O   0  0  0  0  0  0  0  0  0  0  0  0
   10.3323  -14.2795   29.8988 C   0  0  0  0  0  0  0  0  0  0  0  0
   10.6074  -14.2276   28.4229 C   0  0  0  0  0  0  0  0  0  0  0  0
   11.2282  -15.4292   27.8334 C   0  0  2  0  0  0  0  0  0  0  0  0
   12.6201  -15.0642   27.3172 C   0  0  0  0  0  0  0  0  0  0  0  0
   10.4525  -16.2103   26.8417 C   0  0  2  0  0  0  0  0  0  0  0  0
    9.9376  -15.4247   25.7438 N   0  0  0  0  0  0  0  0  0  0  0  0
    9.4043  -17.0005   27.4697 C   0  0  0  0  0  0  0  0  0  0  0  0
    9.7495  -18.0211   28.3410 O   0  0  0  0  0  0  0  0  0  0  0  0
    8.1642  -16.7991   27.2587 O   0  0  0  0  0  0  0  0  0  0  0  0
  2  4  1  0
  2  1  1  1
  2  3  1  0
  4  5  1  6
  6  4  1  0
  6  7  2  0
  8  6  1  0
  9  8  1  0
 10 11  1  0
  9 10  1  1
 11 12  2  0
 11 16  1  0
 12 13  1  0
 13 14  2  0
 15 14  1  0
 16 15  2  0
 17 18  2  0
 17  9  1  0
 20 21  1  0
 20 19  1  0
 21 22  1  6
 23 24  1  6
 23 21  1  0
 24 17  1  0
 25 23  1  0
 26 25  1  0
 27 25  2  0
M  END
$$$$
