TFI.pdb
     RDKit          3D

 27 27  0  0  1  0  0  0  0  0999 V2000
   10.3219  -19.2724   22.0017 C   0  0  0  0  0  0  0  0  0  0  0  0
   11.1591  -18.5446   20.9702 C   0  0  1  0  0  0  0  0  0  0  0  0
   11.4481  -19.3598   19.8780 O   0  0  0  0  0  0  0  0  0  0  0  0
   10.4051  -17.3052   20.5448 C   0  0  2  0  0  0  0  0  0  0  0  0
   11.1708  -16.6930   19.4788 N   0  0  0  0  0  0  0  0  0  0  0  0
   10.1984  -16.3543   21.6399 C   0  0  0  0  0  0  0  0  0  0  0  0
   11.1339  -15.5358   21.9063 O   0  0  0  0  0  0  0  0  0  0  0  0
    9.0507  -16.2678   22.4250 N   0  0  0  0  0  0  0  0  0  0  0  0
    8.8865  -15.3399   23.5719 C   0  0  1  0  0  0  0  0  0  0  0  0
    7.4731  -14.9102   23.4823 C   0  0  0  0  0  0  0  0  0  0  0  0
    6.9515  -14.0020   24.4865 C   0  0  0  0  0  0  0  0  0  0  0  0
    6.2625  -14.5123   25.5642 C   0  0  0  0  0  0  0  0  0  0  0  0
    5.7314  -13.7307   26.5685 C   0  0  0  0  0  0  0  0  0  0  0  0
    5.8964  -12.3581   26.4950 C   0  0  0  0  0  0  0  0  0  0  0  0
    6.5870  -11.8514   25.4141 C   0  0  0  0  0  0  0  0  0  0  0  0
    7.1124  -12.6309   24.4198 C   0  0  0  0  0  0  0  0  0  0  0  0
    9.3044  -16.1062   24.7465 C   0  0  0  0  0  0  0  0  0  0  0  0
    9.5295  -17.3631   24.6277 O   0  0  0  0  0  0  0  0  0  0  0  0
   10.5530  -13.3742   29.4666 C   0  0  0  0  0  0  0  0  0  0  0  0
   10.7446  -14.1698   28.2068 C   0  0  0  0  0  0  0  0  0  0  0  0
   10.5151  -15.6233   28.3130 C   0  0  2  0  0  0  0  0  0  0  0  0
   11.6625  -16.2484   29.1066 C   0  0  0  0  0  0  0  0  0  0  0  0
   10.2131  -16.3826   27.0771 C   0  0  2  0  0  0  0  0  0  0  0  0
    9.5115  -15.6183   26.0714 N   0  0  0  0  0  0  0  0  0  0  0  0
    9.5357  -17.6389   27.3610 C   0  0  0  0  0  0  0  0  0  0  0  0
   10.2834  -18.7540   27.7035 O   0  0  0  0  0  0  0  0  0  0  0  0
    8.2695  -17.7697   27.3124 O   0  0  0  0  0  0  0  0  0  0  0  0
  2  4  1  0
  2  1  1  1
  2  3  1  0
  4  5  1  6
  6  4  1  0
  6  7  2  0
  8  6  1  0
  9  8  1  0
 10 11  1  0
  9 10  1  1
 11 12  2  0
 11 16  1  0
 12 13  1  0
 13 14  2  0
 15 14  1  0
 16 15  2  0
 17 18  2  0
 17  9  1  0
 20 21  1  0
 20 19  1  0
 21 22  1  6
 23 24  1  6
 23 21  1  0
 24 17  1  0
 25 23  1  0
 26 25  1  0
 27 25  2  0
M  END
$$$$
