AWA.pdb
     RDKit          3D

 25 26  0  0  1  0  0  0  0  0999 V2000
    7.6657  -17.2679   19.7430 C   0  0  0  0  0  0  0  0  0  0  0  0
    7.0507  -16.2213   20.6667 C   0  0  2  0  0  0  0  0  0  0  0  0
    6.6009  -15.0755   19.8612 N   0  0  0  0  0  0  0  0  0  0  0  0
    8.0676  -15.7867   21.6387 C   0  0  0  0  0  0  0  0  0  0  0  0
    8.8176  -14.8203   21.3578 O   0  0  0  0  0  0  0  0  0  0  0  0
    8.1982  -16.4494   22.8777 N   0  0  0  0  0  0  0  0  0  0  0  0
    9.1674  -16.0470   23.8708 C   0  0  1  0  0  0  0  0  0  0  0  0
    8.4866  -16.2610   25.2135 C   0  0  0  0  0  0  0  0  0  0  0  0
    7.4235  -15.2900   25.4821 C   0  0  0  0  0  0  0  0  0  0  0  0
    6.0689  -15.5326   25.5102 C   0  0  0  0  0  0  0  0  0  0  0  0
    5.4116  -14.3718   25.7962 N   0  0  0  0  0  0  0  0  0  0  0  0
    6.3185  -13.3735   25.9555 C   0  0  0  0  0  0  0  0  0  0  0  0
    6.1819  -12.0329   26.2482 C   0  0  0  0  0  0  0  0  0  0  0  0
    7.2899  -11.2073   26.3580 C   0  0  0  0  0  0  0  0  0  0  0  0
    8.5333  -11.7743   26.1640 C   0  0  0  0  0  0  0  0  0  0  0  0
    8.6688  -13.1154   25.8713 C   0  0  0  0  0  0  0  0  0  0  0  0
    7.5740  -13.9485   25.7591 C   0  0  0  0  0  0  0  0  0  0  0  0
   10.3724  -16.8648   23.7201 C   0  0  0  0  0  0  0  0  0  0  0  0
   10.2488  -18.1119   23.6973 O   0  0  0  0  0  0  0  0  0  0  0  0
   13.8905  -16.2922   22.7500 C   0  0  0  0  0  0  0  0  0  0  0  0
   12.7854  -17.1759   23.3333 C   0  0  2  0  0  0  0  0  0  0  0  0
   11.6676  -16.3147   23.5978 N   0  0  0  0  0  0  0  0  0  0  0  0
   13.2656  -17.7929   24.6055 C   0  0  0  0  0  0  0  0  0  0  0  0
   14.3216  -18.6918   24.6169 O   0  0  0  0  0  0  0  0  0  0  0  0
   12.7408  -17.5311   25.7249 O   0  0  0  0  0  0  0  0  0  0  0  0
  2  1  1  6
  2  4  1  0
  3  2  1  0
  4  5  2  0
  6  4  1  0
  7  6  1  0
  7 18  1  0
  7  8  1  1
  9  8  1  0
  9 17  1  0
 10 11  1  0
 10  9  2  0
 11 12  1  0
 12 17  2  0
 12 13  1  0
 13 14  2  0
 14 15  1  0
 16 15  2  0
 17 16  1  0
 18 22  1  0
 19 18  2  0
 21 20  1  1
 21 23  1  0
 22 21  1  0
 23 25  2  0
 23 24  1  0
M  END
$$$$
