AWA.pdb
     RDKit          3D

 25 26  0  0  1  0  0  0  0  0999 V2000
    7.4782  -17.1486   19.9431 C   0  0  0  0  0  0  0  0  0  0  0  0
    7.0734  -15.9437   20.7864 C   0  0  2  0  0  0  0  0  0  0  0  0
    6.8012  -14.8046   19.8962 N   0  0  0  0  0  0  0  0  0  0  0  0
    8.1749  -15.6136   21.7058 C   0  0  0  0  0  0  0  0  0  0  0  0
    9.0415  -14.7755   21.3562 O   0  0  0  0  0  0  0  0  0  0  0  0
    8.2566  -16.2323   22.9715 N   0  0  0  0  0  0  0  0  0  0  0  0
    9.2770  -15.8894   23.9350 C   0  0  1  0  0  0  0  0  0  0  0  0
    8.6414  -16.1139   25.2979 C   0  0  0  0  0  0  0  0  0  0  0  0
    7.5384  -15.1921   25.5786 C   0  0  0  0  0  0  0  0  0  0  0  0
    6.1945  -15.4893   25.5916 C   0  0  0  0  0  0  0  0  0  0  0  0
    5.4892  -14.3620   25.8966 N   0  0  0  0  0  0  0  0  0  0  0  0
    6.3541  -13.3317   26.0832 C   0  0  0  0  0  0  0  0  0  0  0  0
    6.1619  -12.0041   26.4026 C   0  0  0  0  0  0  0  0  0  0  0  0
    7.2351  -11.1373   26.5377 C   0  0  0  0  0  0  0  0  0  0  0  0
    8.5015  -11.6499   26.3413 C   0  0  0  0  0  0  0  0  0  0  0  0
    8.6927  -12.9781   26.0219 C   0  0  0  0  0  0  0  0  0  0  0  0
    7.6330  -13.8518   25.8843 C   0  0  0  0  0  0  0  0  0  0  0  0
   10.4454  -16.7442   23.7171 C   0  0  0  0  0  0  0  0  0  0  0  0
   10.2843  -17.9873   23.7171 O   0  0  0  0  0  0  0  0  0  0  0  0
   13.9433  -16.3268   22.5989 C   0  0  0  0  0  0  0  0  0  0  0  0
   12.8370  -17.1386   23.2766 C   0  0  2  0  0  0  0  0  0  0  0  0
   11.7455  -16.2344   23.5055 N   0  0  0  0  0  0  0  0  0  0  0  0
   13.3401  -17.6698   24.5782 C   0  0  0  0  0  0  0  0  0  0  0  0
   12.7592  -17.2979   25.7814 O   0  0  0  0  0  0  0  0  0  0  0  0
   14.3102  -18.4766   24.6504 O   0  0  0  0  0  0  0  0  0  0  0  0
  2  1  1  6
  2  4  1  0
  3  2  1  0
  4  5  2  0
  6  4  1  0
  7  6  1  0
  7 18  1  0
  7  8  1  1
  9  8  1  0
  9 17  1  0
 10 11  1  0
 10  9  2  0
 11 12  1  0
 12 17  2  0
 12 13  1  0
 13 14  2  0
 14 15  1  0
 16 15  2  0
 17 16  1  0
 18 22  1  0
 19 18  2  0
 21 20  1  1
 21 23  1  0
 22 21  1  0
 23 25  2  0
 23 24  1  0
M  END
$$$$
