AWA.pdb
     RDKit          3D

 25 26  0  0  1  0  0  0  0  0999 V2000
    7.8351  -17.2750   19.4879 C   0  0  0  0  0  0  0  0  0  0  0  0
    7.3251  -16.2248   20.4695 C   0  0  2  0  0  0  0  0  0  0  0  0
    7.0201  -14.9880   19.7335 N   0  0  0  0  0  0  0  0  0  0  0  0
    8.3672  -15.9682   21.4773 C   0  0  0  0  0  0  0  0  0  0  0  0
    9.2869  -15.1531   21.2215 O   0  0  0  0  0  0  0  0  0  0  0  0
    8.3331  -16.6313   22.7226 N   0  0  0  0  0  0  0  0  0  0  0  0
    9.2405  -16.3033   23.7978 C   0  0  1  0  0  0  0  0  0  0  0  0
    8.4782  -16.6027   25.0789 C   0  0  0  0  0  0  0  0  0  0  0  0
    7.4593  -15.5981   25.3917 C   0  0  0  0  0  0  0  0  0  0  0  0
    6.0940  -15.7733   25.3822 C   0  0  0  0  0  0  0  0  0  0  0  0
    5.4894  -14.6011   25.7311 N   0  0  0  0  0  0  0  0  0  0  0  0
    6.4411  -13.6619   25.9685 C   0  0  0  0  0  0  0  0  0  0  0  0
    6.3653  -12.3372   26.3440 C   0  0  0  0  0  0  0  0  0  0  0  0
    7.5104  -11.5772   26.5243 C   0  0  0  0  0  0  0  0  0  0  0  0
    8.7277  -12.1929   26.3148 C   0  0  0  0  0  0  0  0  0  0  0  0
    8.8026  -13.5180   25.9392 C   0  0  0  0  0  0  0  0  0  0  0  0
    7.6704  -14.2861   25.7562 C   0  0  0  0  0  0  0  0  0  0  0  0
   10.4504  -17.1171   23.6659 C   0  0  0  0  0  0  0  0  0  0  0  0
   10.3235  -18.3448   23.4473 O   0  0  0  0  0  0  0  0  0  0  0  0
   13.9835  -16.5994   22.9416 C   0  0  0  0  0  0  0  0  0  0  0  0
   12.8914  -17.4435   23.6029 C   0  0  2  0  0  0  0  0  0  0  0  0
   11.7540  -16.5839   23.7722 N   0  0  0  0  0  0  0  0  0  0  0  0
   13.3726  -17.9200   24.9336 C   0  0  0  0  0  0  0  0  0  0  0  0
   12.7337  -17.5475   26.1068 O   0  0  0  0  0  0  0  0  0  0  0  0
   14.3754  -18.6789   25.0586 O   0  0  0  0  0  0  0  0  0  0  0  0
  2  1  1  6
  2  4  1  0
  3  2  1  0
  4  5  2  0
  6  4  1  0
  7  6  1  0
  7 18  1  0
  7  8  1  1
  9  8  1  0
  9 17  1  0
 10 11  1  0
 10  9  2  0
 11 12  1  0
 12 17  2  0
 12 13  1  0
 13 14  2  0
 14 15  1  0
 16 15  2  0
 17 16  1  0
 18 22  1  0
 19 18  2  0
 21 20  1  1
 21 23  1  0
 22 21  1  0
 23 25  2  0
 23 24  1  0
M  END
$$$$
