AWA.pdb
     RDKit          3D

 25 26  0  0  1  0  0  0  0  0999 V2000
    7.7395  -17.2141   19.8499 C   0  0  0  0  0  0  0  0  0  0  0  0
    7.0555  -16.1841   20.7431 C   0  0  2  0  0  0  0  0  0  0  0  0
    6.5626  -15.0772   19.9088 N   0  0  0  0  0  0  0  0  0  0  0  0
    8.0312  -15.6808   21.7241 C   0  0  0  0  0  0  0  0  0  0  0  0
    8.7333  -14.6800   21.4397 O   0  0  0  0  0  0  0  0  0  0  0  0
    8.1760  -16.3164   22.9757 N   0  0  0  0  0  0  0  0  0  0  0  0
    9.1848  -15.9207   23.9312 C   0  0  1  0  0  0  0  0  0  0  0  0
    8.5423  -16.0979   25.2979 C   0  0  0  0  0  0  0  0  0  0  0  0
    7.4731  -15.1324   25.5618 C   0  0  0  0  0  0  0  0  0  0  0  0
    6.1178  -15.3724   25.5415 C   0  0  0  0  0  0  0  0  0  0  0  0
    5.4539  -14.2186   25.8407 N   0  0  0  0  0  0  0  0  0  0  0  0
    6.3571  -13.2276   26.0564 C   0  0  0  0  0  0  0  0  0  0  0  0
    6.2138  -11.8957   26.3835 C   0  0  0  0  0  0  0  0  0  0  0  0
    7.3192  -11.0764   26.5508 C   0  0  0  0  0  0  0  0  0  0  0  0
    8.5670  -11.6406   26.3787 C   0  0  0  0  0  0  0  0  0  0  0  0
    8.7093  -12.9731   26.0516 C   0  0  0  0  0  0  0  0  0  0  0  0
    7.6171  -13.7999   25.8819 C   0  0  0  0  0  0  0  0  0  0  0  0
   10.3659  -16.7681   23.7564 C   0  0  0  0  0  0  0  0  0  0  0  0
   10.1994  -18.0017   23.6090 O   0  0  0  0  0  0  0  0  0  0  0  0
   13.9109  -16.3086   22.9078 C   0  0  0  0  0  0  0  0  0  0  0  0
   12.7878  -17.1507   23.5177 C   0  0  2  0  0  0  0  0  0  0  0  0
   11.6841  -16.2610   23.7445 N   0  0  0  0  0  0  0  0  0  0  0  0
   13.2514  -17.7285   24.8141 C   0  0  0  0  0  0  0  0  0  0  0  0
   14.2741  -18.6639   24.8617 O   0  0  0  0  0  0  0  0  0  0  0  0
   12.7417  -17.3990   25.9226 O   0  0  0  0  0  0  0  0  0  0  0  0
  2  1  1  6
  2  4  1  0
  3  2  1  0
  4  5  2  0
  6  4  1  0
  7  6  1  0
  7 18  1  0
  7  8  1  1
  9  8  1  0
  9 17  1  0
 10 11  1  0
 10  9  2  0
 11 12  1  0
 12 17  2  0
 12 13  1  0
 13 14  2  0
 14 15  1  0
 16 15  2  0
 17 16  1  0
 18 22  1  0
 19 18  2  0
 21 20  1  1
 21 23  1  0
 22 21  1  0
 23 25  2  0
 23 24  1  0
M  END
$$$$
