AWA.pdb
     RDKit          3D

 25 26  0  0  1  0  0  0  0  0999 V2000
    9.8041  -21.2110   22.8042 C   0  0  0  0  0  0  0  0  0  0  0  0
    9.0495  -20.1408   22.0220 C   0  0  2  0  0  0  0  0  0  0  0  0
    9.3884  -20.2607   20.5954 N   0  0  0  0  0  0  0  0  0  0  0  0
    9.4450  -18.8148   22.5248 C   0  0  0  0  0  0  0  0  0  0  0  0
   10.5404  -18.3188   22.1646 O   0  0  0  0  0  0  0  0  0  0  0  0
    8.5997  -18.1047   23.4038 N   0  0  0  0  0  0  0  0  0  0  0  0
    8.8580  -16.7359   23.7870 C   0  0  1  0  0  0  0  0  0  0  0  0
    7.4949  -16.0641   23.8393 C   0  0  0  0  0  0  0  0  0  0  0  0
    7.5746  -14.6084   23.9797 C   0  0  0  0  0  0  0  0  0  0  0  0
    8.1631  -13.7236   23.1047 C   0  0  0  0  0  0  0  0  0  0  0  0
    8.0271  -12.4559   23.5902 N   0  0  0  0  0  0  0  0  0  0  0  0
    7.3576  -12.5000   24.7709 C   0  0  0  0  0  0  0  0  0  0  0  0
    6.9676  -11.5160   25.6547 C   0  0  0  0  0  0  0  0  0  0  0  0
    6.2802  -11.8287   26.8171 C   0  0  0  0  0  0  0  0  0  0  0  0
    6.0003  -13.1586   27.0580 C   0  0  0  0  0  0  0  0  0  0  0  0
    6.3908  -14.1422   26.1733 C   0  0  0  0  0  0  0  0  0  0  0  0
    7.0758  -13.8446   25.0125 C   0  0  0  0  0  0  0  0  0  0  0  0
    9.5357  -16.7236   25.0847 C   0  0  0  0  0  0  0  0  0  0  0  0
    9.1091  -17.4801   25.9885 O   0  0  0  0  0  0  0  0  0  0  0  0
   12.8187  -15.5731   26.2844 C   0  0  0  0  0  0  0  0  0  0  0  0
   11.4173  -16.1242   26.5576 C   0  0  2  0  0  0  0  0  0  0  0  0
   10.6484  -15.9003   25.3660 N   0  0  0  0  0  0  0  0  0  0  0  0
   10.8095  -15.3837   27.7029 C   0  0  0  0  0  0  0  0  0  0  0  0
   11.2952  -15.5284   28.9939 O   0  0  0  0  0  0  0  0  0  0  0  0
    9.8322  -14.5958   27.5572 O   0  0  0  0  0  0  0  0  0  0  0  0
  2  1  1  1
  2  4  1  0
  3  2  1  0
  4  5  2  0
  6  4  1  0
  7  6  1  0
  7 18  1  0
  7  8  1  1
  9  8  1  0
  9 17  1  0
 10 11  1  0
 10  9  2  0
 11 12  1  0
 12 17  2  0
 12 13  1  0
 13 14  2  0
 14 15  1  0
 16 15  2  0
 17 16  1  0
 18 22  1  0
 19 18  2  0
 21 20  1  6
 21 23  1  0
 22 21  1  0
 23 25  2  0
 23 24  1  0
M  END
$$$$
