AWA.pdb
     RDKit          3D

 25 26  0  0  1  0  0  0  0  0999 V2000
    7.9799  -16.8682   19.5479 C   0  0  0  0  0  0  0  0  0  0  0  0
    7.1608  -16.3211   20.7126 C   0  0  2  0  0  0  0  0  0  0  0  0
    6.2852  -15.2463   20.2203 N   0  0  0  0  0  0  0  0  0  0  0  0
    8.0794  -15.7948   21.7357 C   0  0  0  0  0  0  0  0  0  0  0  0
    8.7167  -14.7375   21.5089 O   0  0  0  0  0  0  0  0  0  0  0  0
    8.2421  -16.4717   22.9633 N   0  0  0  0  0  0  0  0  0  0  0  0
    9.2047  -16.0519   23.9555 C   0  0  1  0  0  0  0  0  0  0  0  0
    8.5154  -16.2428   25.2972 C   0  0  0  0  0  0  0  0  0  0  0  0
    7.4495  -15.2684   25.5415 C   0  0  0  0  0  0  0  0  0  0  0  0
    6.0932  -15.5015   25.5152 C   0  0  0  0  0  0  0  0  0  0  0  0
    5.4334  -14.3405   25.7951 N   0  0  0  0  0  0  0  0  0  0  0  0
    6.3404  -13.3515   26.0041 C   0  0  0  0  0  0  0  0  0  0  0  0
    6.2020  -12.0148   26.3130 C   0  0  0  0  0  0  0  0  0  0  0  0
    7.3107  -11.1992   26.4773 C   0  0  0  0  0  0  0  0  0  0  0  0
    8.5566  -11.7721   26.3208 C   0  0  0  0  0  0  0  0  0  0  0  0
    8.6939  -13.1094   26.0118 C   0  0  0  0  0  0  0  0  0  0  0  0
    7.5985  -13.9326   25.8455 C   0  0  0  0  0  0  0  0  0  0  0  0
   10.4108  -16.8718   23.8267 C   0  0  0  0  0  0  0  0  0  0  0  0
   10.2804  -18.1146   23.7282 O   0  0  0  0  0  0  0  0  0  0  0  0
   13.9793  -16.3292   23.0785 C   0  0  0  0  0  0  0  0  0  0  0  0
   12.8452  -17.1955   23.6312 C   0  0  2  0  0  0  0  0  0  0  0  0
   11.7144  -16.3285   23.8071 N   0  0  0  0  0  0  0  0  0  0  0  0
   13.2572  -17.7689   24.9469 C   0  0  0  0  0  0  0  0  0  0  0  0
   14.2518  -18.7315   25.0339 O   0  0  0  0  0  0  0  0  0  0  0  0
   12.7271  -17.4111   26.0369 O   0  0  0  0  0  0  0  0  0  0  0  0
  2  1  1  6
  2  4  1  0
  3  2  1  0
  4  5  2  0
  6  4  1  0
  7  6  1  0
  7 18  1  0
  7  8  1  1
  9  8  1  0
  9 17  1  0
 10 11  1  0
 10  9  2  0
 11 12  1  0
 12 17  2  0
 12 13  1  0
 13 14  2  0
 14 15  1  0
 16 15  2  0
 17 16  1  0
 18 22  1  0
 19 18  2  0
 21 20  1  1
 21 23  1  0
 22 21  1  0
 23 25  2  0
 23 24  1  0
M  END
$$$$
