AWA.pdb
     RDKit          3D

 25 26  0  0  1  0  0  0  0  0999 V2000
    6.8328  -14.1796   21.1377 C   0  0  0  0  0  0  0  0  0  0  0  0
    7.7958  -15.3580   21.2402 C   0  0  2  0  0  0  0  0  0  0  0  0
    7.0309  -16.5782   21.5406 N   0  0  0  0  0  0  0  0  0  0  0  0
    8.7632  -15.0910   22.3174 C   0  0  0  0  0  0  0  0  0  0  0  0
    9.5175  -14.0909   22.2366 O   0  0  0  0  0  0  0  0  0  0  0  0
    8.8420  -15.9506   23.4337 N   0  0  0  0  0  0  0  0  0  0  0  0
    9.7172  -15.6861   24.5524 C   0  0  1  0  0  0  0  0  0  0  0  0
    8.8817  -15.9534   25.7944 C   0  0  0  0  0  0  0  0  0  0  0  0
    7.6533  -15.1574   25.8452 C   0  0  0  0  0  0  0  0  0  0  0  0
    6.3656  -15.6106   25.6693 C   0  0  0  0  0  0  0  0  0  0  0  0
    5.5008  -14.5626   25.7929 N   0  0  0  0  0  0  0  0  0  0  0  0
    6.2061  -13.4302   26.0473 C   0  0  0  0  0  0  0  0  0  0  0  0
    5.8203  -12.1222   26.2517 C   0  0  0  0  0  0  0  0  0  0  0  0
    6.7562  -11.1296   26.4973 C   0  0  0  0  0  0  0  0  0  0  0  0
    8.0863  -11.4967   26.5298 C   0  0  0  0  0  0  0  0  0  0  0  0
    8.4711  -12.8054   26.3252 C   0  0  0  0  0  0  0  0  0  0  0  0
    7.5497  -13.8034   26.0797 C   0  0  0  0  0  0  0  0  0  0  0  0
   10.8831  -16.5672   24.4647 C   0  0  0  0  0  0  0  0  0  0  0  0
   11.5354  -16.8006   25.5093 O   0  0  0  0  0  0  0  0  0  0  0  0
   12.4628  -18.7368   21.8937 C   0  0  0  0  0  0  0  0  0  0  0  0
   12.4387  -18.0513   23.2618 C   0  0  2  0  0  0  0  0  0  0  0  0
   11.3071  -17.1678   23.2586 N   0  0  0  0  0  0  0  0  0  0  0  0
   13.6965  -17.2677   23.4445 C   0  0  0  0  0  0  0  0  0  0  0  0
   13.7087  -15.8861   23.3251 O   0  0  0  0  0  0  0  0  0  0  0  0
   14.8025  -17.8164   23.7143 O   0  0  0  0  0  0  0  0  0  0  0  0
  2  1  1  1
  2  4  1  0
  3  2  1  0
  4  5  2  0
  6  4  1  0
  7  6  1  0
  7 18  1  0
  7  8  1  1
  9  8  1  0
  9 17  1  0
 10 11  1  0
 10  9  2  0
 11 12  1  0
 12 17  2  0
 12 13  1  0
 13 14  2  0
 14 15  1  0
 16 15  2  0
 17 16  1  0
 18 22  1  0
 19 18  2  0
 21 20  1  6
 21 23  1  0
 22 21  1  0
 23 25  2  0
 23 24  1  0
M  END
$$$$
