NLK.pdb
     RDKit          3D

 26 25  0  0  1  0  0  0  0  0999 V2000
   28.6705  -26.0583  -18.3214 N   0  0  0  0  0  0  0  0  0  0  0  0
   28.5108  -26.2845  -16.9237 C   0  0  0  0  0  0  0  0  0  0  0  0
   28.8546  -27.3845  -16.4827 O   0  0  0  0  0  0  0  0  0  0  0  0
   27.9491  -25.1819  -16.1353 C   0  0  0  0  0  0  0  0  0  0  0  0
   27.6296  -23.9343  -16.8891 C   0  0  2  0  0  0  0  0  0  0  0  0
   28.9118  -23.3501  -17.2789 N   0  0  0  0  0  0  0  0  0  0  0  0
   26.8423  -22.9504  -16.1115 C   0  0  0  0  0  0  0  0  0  0  0  0
   26.5082  -23.0867  -14.9098 O   0  0  0  0  0  0  0  0  0  0  0  0
   27.9192  -17.7778  -17.4030 C   0  0  0  0  0  0  0  0  0  0  0  0
   27.5334  -19.0468  -16.7088 C   0  0  1  0  0  0  0  0  0  0  0  0
   28.0080  -18.8894  -15.2544 C   0  0  0  0  0  0  0  0  0  0  0  0
   26.0801  -19.3352  -16.6354 C   0  0  0  0  0  0  0  0  0  0  0  0
   25.6940  -20.6883  -16.1050 C   0  0  2  0  0  0  0  0  0  0  0  0
   26.4232  -21.7563  -16.7535 N   0  0  0  0  0  0  0  0  0  0  0  0
   24.2519  -20.9365  -16.0353 C   0  0  0  0  0  0  0  0  0  0  0  0
   23.5096  -20.0790  -15.4927 O   0  0  0  0  0  0  0  0  0  0  0  0
   23.6010  -22.1025  -16.5441 N   0  0  0  0  0  0  0  0  0  0  0  0
   22.2993  -22.5596  -16.0130 C   0  0  1  0  0  0  0  0  0  0  0  0
   22.4549  -23.8299  -15.2587 C   0  0  0  0  0  0  0  0  0  0  0  0
   21.1570  -24.3827  -14.7647 C   0  0  0  0  0  0  0  0  0  0  0  0
   21.3845  -25.7270  -14.0606 C   0  0  0  0  0  0  0  0  0  0  0  0
   20.0281  -26.1992  -13.5597 C   0  0  0  0  0  0  0  0  0  0  0  0
   20.1683  -27.4917  -12.9419 N   0  0  0  0  0  0  0  0  0  0  0  0
   21.6804  -21.4434  -15.2973 C   0  0  0  0  0  0  0  0  0  0  0  0
   22.1816  -20.8347  -14.1569 O   0  0  0  0  0  0  0  0  0  0  0  0
   20.5827  -20.9517  -15.7168 O   0  0  0  0  0  0  0  0  0  0  0  0
  2  1  1  0
  2  3  2  0
  4  5  1  0
  4  2  1  0
  5  7  1  0
  5  6  1  1
  7  8  2  0
 10  9  1  6
 10 12  1  0
 10 11  1  0
 13 12  1  6
 13 15  1  0
 14  7  1  0
 14 13  1  0
 15 16  2  0
 17 18  1  0
 17 15  1  0
 18 24  1  0
 18 19  1  1
 20 19  1  0
 21 20  1  0
 22 21  1  0
 23 22  1  0
 24 25  1  0
 26 24  2  0
M  END
$$$$
