NLK.pdb
     RDKit          3D

 26 25  0  0  1  0  0  0  0  0999 V2000
   19.4643  -23.2046  -12.1216 N   0  0  0  0  0  0  0  0  0  0  0  0
   19.4853  -22.4073  -13.3025 C   0  0  0  0  0  0  0  0  0  0  0  0
   18.6298  -22.6400  -14.1609 O   0  0  0  0  0  0  0  0  0  0  0  0
   20.5280  -21.3787  -13.3875 C   0  0  0  0  0  0  0  0  0  0  0  0
   21.4554  -21.2884  -12.2219 C   0  0  2  0  0  0  0  0  0  0  0  0
   20.7387  -20.5510  -11.1828 N   0  0  0  0  0  0  0  0  0  0  0  0
   22.7369  -20.6126  -12.5277 C   0  0  0  0  0  0  0  0  0  0  0  0
   22.8681  -19.3822  -12.7356 O   0  0  0  0  0  0  0  0  0  0  0  0
   27.8691  -20.0838  -13.4777 C   0  0  0  0  0  0  0  0  0  0  0  0
   27.7176  -21.3278  -12.6588 C   0  0  1  0  0  0  0  0  0  0  0  0
   28.4258  -21.0395  -11.3245 C   0  0  0  0  0  0  0  0  0  0  0  0
   26.3287  -21.7143  -12.3091 C   0  0  0  0  0  0  0  0  0  0  0  0
   25.2322  -20.8738  -12.9030 C   0  0  2  0  0  0  0  0  0  0  0  0
   23.9184  -21.3956  -12.5958 N   0  0  0  0  0  0  0  0  0  0  0  0
   25.4036  -20.5456  -14.3204 C   0  0  0  0  0  0  0  0  0  0  0  0
   25.2468  -21.4492  -15.1804 O   0  0  0  0  0  0  0  0  0  0  0  0
   25.7444  -19.2512  -14.8208 N   0  0  0  0  0  0  0  0  0  0  0  0
   25.7885  -18.9657  -16.2707 C   0  0  1  0  0  0  0  0  0  0  0  0
   25.0830  -17.6954  -16.5791 C   0  0  0  0  0  0  0  0  0  0  0  0
   23.7243  -17.9053  -17.1659 C   0  0  0  0  0  0  0  0  0  0  0  0
   23.0637  -16.5555  -17.4755 C   0  0  0  0  0  0  0  0  0  0  0  0
   21.7048  -16.8581  -18.0882 C   0  0  0  0  0  0  0  0  0  0  0  0
   20.9758  -15.6301  -18.2687 N   0  0  0  0  0  0  0  0  0  0  0  0
   27.1792  -19.0681  -16.7145 C   0  0  0  0  0  0  0  0  0  0  0  0
   27.6790  -20.0079  -17.6028 O   0  0  0  0  0  0  0  0  0  0  0  0
   28.0473  -18.2462  -16.2746 O   0  0  0  0  0  0  0  0  0  0  0  0
  2  1  1  0
  2  3  2  0
  4  5  1  0
  4  2  1  0
  5  7  1  0
  5  6  1  1
  7  8  2  0
 10  9  1  6
 10 12  1  0
 10 11  1  0
 13 12  1  6
 13 15  1  0
 14  7  1  0
 14 13  1  0
 15 16  2  0
 17 18  1  0
 17 15  1  0
 18 24  1  0
 18 19  1  1
 20 19  1  0
 21 20  1  0
 22 21  1  0
 23 22  1  0
 24 25  1  0
 26 24  2  0
M  END
$$$$
