NLK.pdb
     RDKit          3D

 26 25  0  0  1  0  0  0  0  0999 V2000
   17.3583  -24.6515   -9.3720 N   0  0  0  0  0  0  0  0  0  0  0  0
   18.7473  -24.6247   -9.0552 C   0  0  0  0  0  0  0  0  0  0  0  0
   19.2181  -25.6088   -8.4784 O   0  0  0  0  0  0  0  0  0  0  0  0
   19.4918  -23.4226   -9.4466 C   0  0  0  0  0  0  0  0  0  0  0  0
   20.4226  -22.8660   -8.4215 C   0  0  2  0  0  0  0  0  0  0  0  0
   19.5839  -22.3637   -7.3345 N   0  0  0  0  0  0  0  0  0  0  0  0
   21.2932  -21.7815   -8.9297 C   0  0  0  0  0  0  0  0  0  0  0  0
   20.8905  -20.7704   -9.5541 O   0  0  0  0  0  0  0  0  0  0  0  0
   25.7112  -18.8024   -8.5834 C   0  0  0  0  0  0  0  0  0  0  0  0
   26.0380  -20.1695   -9.0985 C   0  0  1  0  0  0  0  0  0  0  0  0
   27.3429  -20.5807   -8.3961 C   0  0  0  0  0  0  0  0  0  0  0  0
   25.0542  -21.2361   -8.7898 C   0  0  0  0  0  0  0  0  0  0  0  0
   23.6859  -21.0771   -9.3930 C   0  0  2  0  0  0  0  0  0  0  0  0
   22.6915  -21.8715   -8.7053 N   0  0  0  0  0  0  0  0  0  0  0  0
   23.6316  -21.2230  -10.8496 C   0  0  0  0  0  0  0  0  0  0  0  0
   23.8279  -22.3559  -11.3582 O   0  0  0  0  0  0  0  0  0  0  0  0
   23.3689  -20.1577  -11.7652 N   0  0  0  0  0  0  0  0  0  0  0  0
   23.2691  -20.3920  -13.2215 C   0  0  1  0  0  0  0  0  0  0  0  0
   22.0588  -19.7354  -13.7789 C   0  0  0  0  0  0  0  0  0  0  0  0
   21.9270  -19.9046  -15.2582 C   0  0  0  0  0  0  0  0  0  0  0  0
   20.6404  -19.2345  -15.7582 C   0  0  0  0  0  0  0  0  0  0  0  0
   20.5507  -19.5080  -17.2517 C   0  0  0  0  0  0  0  0  0  0  0  0
   19.4103  -18.8199  -17.7978 N   0  0  0  0  0  0  0  0  0  0  0  0
   24.5499  -20.0323  -13.8310 C   0  0  0  0  0  0  0  0  0  0  0  0
   25.6241  -19.4505  -13.1753 O   0  0  0  0  0  0  0  0  0  0  0  0
   24.7459  -20.2508  -15.0706 O   0  0  0  0  0  0  0  0  0  0  0  0
  2  1  1  0
  2  3  2  0
  4  5  1  0
  4  2  1  0
  5  7  1  0
  5  6  1  1
  7  8  2  0
 10  9  1  1
 10 12  1  0
 10 11  1  0
 13 12  1  1
 13 15  1  0
 14  7  1  0
 14 13  1  0
 15 16  2  0
 17 18  1  0
 17 15  1  0
 18 24  1  0
 18 19  1  6
 20 19  1  0
 21 20  1  0
 22 21  1  0
 23 22  1  0
 24 25  1  0
 26 24  2  0
M  END
$$$$
