NLK.pdb
     RDKit          3D

 26 25  0  0  1  0  0  0  0  0999 V2000
   19.5211  -15.8067  -17.3994 N   0  0  0  0  0  0  0  0  0  0  0  0
   18.5723  -14.7452  -17.3411 C   0  0  0  0  0  0  0  0  0  0  0  0
   17.3906  -15.0484  -17.1546 O   0  0  0  0  0  0  0  0  0  0  0  0
   19.0920  -13.3836  -17.5093 C   0  0  0  0  0  0  0  0  0  0  0  0
   20.5494  -13.2714  -17.8097 C   0  0  2  0  0  0  0  0  0  0  0  0
   21.0976  -14.6218  -17.6955 N   0  0  0  0  0  0  0  0  0  0  0  0
   21.2778  -12.3528  -16.9053 C   0  0  0  0  0  0  0  0  0  0  0  0
   20.8631  -11.9695  -15.7849 O   0  0  0  0  0  0  0  0  0  0  0  0
   25.7326  -10.3656  -14.5210 C   0  0  0  0  0  0  0  0  0  0  0  0
   25.7028  -10.1968  -16.0082 C   0  0  1  0  0  0  0  0  0  0  0  0
   27.1279  -10.5106  -16.4938 C   0  0  0  0  0  0  0  0  0  0  0  0
   24.8061  -11.1152  -16.7518 C   0  0  0  0  0  0  0  0  0  0  0  0
   23.3292  -10.8982  -16.5706 C   0  0  2  0  0  0  0  0  0  0  0  0
   22.5421  -11.8561  -17.3161 N   0  0  0  0  0  0  0  0  0  0  0  0
   22.8800   -9.5162  -16.7562 C   0  0  0  0  0  0  0  0  0  0  0  0
   22.6437   -9.1012  -17.9192 O   0  0  0  0  0  0  0  0  0  0  0  0
   22.6842   -8.5750  -15.6989 N   0  0  0  0  0  0  0  0  0  0  0  0
   22.0722   -7.2511  -15.9408 C   0  0  1  0  0  0  0  0  0  0  0  0
   20.7667   -7.3933  -16.6351 C   0  0  0  0  0  0  0  0  0  0  0  0
   20.0454   -6.0947  -16.8020 C   0  0  0  0  0  0  0  0  0  0  0  0
   18.6916   -6.3220  -17.4876 C   0  0  0  0  0  0  0  0  0  0  0  0
   18.9543   -6.3557  -18.9854 C   0  0  0  0  0  0  0  0  0  0  0  0
   17.7173   -6.5873  -19.6842 N   0  0  0  0  0  0  0  0  0  0  0  0
   22.0663   -6.5127  -14.6775 C   0  0  0  0  0  0  0  0  0  0  0  0
   22.1252   -5.1339  -14.5448 O   0  0  0  0  0  0  0  0  0  0  0  0
   22.0042   -7.1452  -13.5736 O   0  0  0  0  0  0  0  0  0  0  0  0
  2  1  1  0
  2  3  2  0
  4  5  1  0
  4  2  1  0
  5  7  1  0
  5  6  1  1
  7  8  2  0
 10  9  1  1
 10 12  1  0
 10 11  1  0
 13 12  1  6
 13 15  1  0
 14  7  1  0
 14 13  1  0
 15 16  2  0
 17 18  1  0
 17 15  1  0
 18 24  1  0
 18 19  1  1
 20 19  1  0
 21 20  1  0
 22 21  1  0
 23 22  1  0
 24 25  1  0
 26 24  2  0
M  END
$$$$
