NLK.pdb
     RDKit          3D

 26 25  0  0  1  0  0  0  0  0999 V2000
   24.7616  -36.3054   -9.9560 N   0  0  0  0  0  0  0  0  0  0  0  0
   25.2400  -35.2691   -9.1030 C   0  0  0  0  0  0  0  0  0  0  0  0
   24.6216  -34.2012   -9.1036 O   0  0  0  0  0  0  0  0  0  0  0  0
   26.4299  -35.5706   -8.2993 C   0  0  0  0  0  0  0  0  0  0  0  0
   26.8123  -34.5448   -7.2852 C   0  0  2  0  0  0  0  0  0  0  0  0
   27.3429  -33.4059   -8.0327 N   0  0  0  0  0  0  0  0  0  0  0  0
   27.8167  -35.0175   -6.3054 C   0  0  0  0  0  0  0  0  0  0  0  0
   27.6318  -35.9406   -5.4759 O   0  0  0  0  0  0  0  0  0  0  0  0
   33.1218  -35.7929   -5.1319 C   0  0  0  0  0  0  0  0  0  0  0  0
   32.6185  -34.4050   -4.8837 C   0  0  1  0  0  0  0  0  0  0  0  0
   33.7540  -33.4637   -5.3193 C   0  0  0  0  0  0  0  0  0  0  0  0
   31.4252  -33.9939   -5.6633 C   0  0  0  0  0  0  0  0  0  0  0  0
   30.1369  -34.6951   -5.3314 C   0  0  2  0  0  0  0  0  0  0  0  0
   29.0913  -34.3940   -6.2848 N   0  0  0  0  0  0  0  0  0  0  0  0
   29.7014  -34.5617   -3.9391 C   0  0  0  0  0  0  0  0  0  0  0  0
   29.2324  -33.4628   -3.5479 O   0  0  0  0  0  0  0  0  0  0  0  0
   29.7680  -35.6025   -2.9621 N   0  0  0  0  0  0  0  0  0  0  0  0
   29.3092  -35.3939   -1.5723 C   0  0  1  0  0  0  0  0  0  0  0  0
   27.9607  -35.9828   -1.3687 C   0  0  0  0  0  0  0  0  0  0  0  0
   27.4864  -35.8898    0.0457 C   0  0  0  0  0  0  0  0  0  0  0  0
   26.0637  -36.4515    0.1682 C   0  0  0  0  0  0  0  0  0  0  0  0
   25.6682  -36.3393    1.6326 C   0  0  0  0  0  0  0  0  0  0  0  0
   24.3406  -36.8655    1.8126 N   0  0  0  0  0  0  0  0  0  0  0  0
   30.3667  -35.8486   -0.6689 C   0  0  0  0  0  0  0  0  0  0  0  0
   30.6920  -35.2756    0.5510 O   0  0  0  0  0  0  0  0  0  0  0  0
   31.0815  -36.8546   -0.9849 O   0  0  0  0  0  0  0  0  0  0  0  0
  2  1  1  0
  2  3  2  0
  4  5  1  0
  4  2  1  0
  5  7  1  0
  5  6  1  6
  7  8  2  0
 10  9  1  6
 10 12  1  0
 10 11  1  0
 13 12  1  6
 13 15  1  0
 14  7  1  0
 14 13  1  0
 15 16  2  0
 17 18  1  0
 17 15  1  0
 18 24  1  0
 18 19  1  1
 20 19  1  0
 21 20  1  0
 22 21  1  0
 23 22  1  0
 24 25  1  0
 26 24  2  0
M  END
$$$$
