FLA.pdb
     RDKit          3D

 25 25  0  0  1  0  0  0  0  0999 V2000
   35.0305  -26.1747    4.0052 N   0  0  0  0  0  0  0  0  0  0  0  0
   35.4061  -24.9955    4.7495 C   0  0  1  0  0  0  0  0  0  0  0  0
   34.2925  -24.5274    5.6582 C   0  0  0  0  0  0  0  0  0  0  0  0
   33.5492  -23.4464    4.9783 C   0  0  0  0  0  0  0  0  0  0  0  0
   33.7344  -22.1355    5.3320 C   0  0  0  0  0  0  0  0  0  0  0  0
   33.0383  -21.1077    4.6975 C   0  0  0  0  0  0  0  0  0  0  0  0
   32.1463  -21.4555    3.6902 C   0  0  0  0  0  0  0  0  0  0  0  0
   31.9447  -22.7539    3.3201 C   0  0  0  0  0  0  0  0  0  0  0  0
   32.6597  -23.7473    3.9791 C   0  0  0  0  0  0  0  0  0  0  0  0
   36.6486  -25.2876    5.4999 C   0  0  0  0  0  0  0  0  0  0  0  0
   36.8581  -26.4462    5.9514 O   0  0  0  0  0  0  0  0  0  0  0  0
   41.9617  -25.3818    5.6054 C   0  0  0  0  0  0  0  0  0  0  0  0
   41.4073  -24.0960    6.3197 C   0  0  1  0  0  0  0  0  0  0  0  0
   42.3942  -23.0110    5.9490 C   0  0  0  0  0  0  0  0  0  0  0  0
   40.0123  -23.8787    5.8585 C   0  0  0  0  0  0  0  0  0  0  0  0
   38.9248  -24.6560    6.4486 C   0  0  2  0  0  0  0  0  0  0  0  0
   37.6447  -24.3121    5.7472 N   0  0  0  0  0  0  0  0  0  0  0  0
   38.6105  -24.6491    7.8508 C   0  0  0  0  0  0  0  0  0  0  0  0
   39.4321  -25.0512    8.7120 O   0  0  0  0  0  0  0  0  0  0  0  0
   36.6151  -22.7365   10.1308 C   0  0  0  0  0  0  0  0  0  0  0  0
   37.1316  -24.1441    9.8249 C   0  0  2  0  0  0  0  0  0  0  0  0
   37.3607  -24.1950    8.3981 N   0  0  0  0  0  0  0  0  0  0  0  0
   36.1576  -25.1808   10.2612 C   0  0  0  0  0  0  0  0  0  0  0  0
   36.1730  -25.6511   11.5666 O   0  0  0  0  0  0  0  0  0  0  0  0
   35.2935  -25.6708    9.4891 O   0  0  0  0  0  0  0  0  0  0  0  0
  2 10  1  0
  2  1  1  1
  3  2  1  0
  4  3  1  0
  5  4  2  0
  6  5  1  0
  7  6  2  0
  7  8  1  0
  8  9  2  0
  9  4  1  0
 10 11  2  0
 13 12  1  6
 14 13  1  0
 15 13  1  0
 16 15  1  1
 17 16  1  0
 17 10  1  0
 18 22  1  0
 18 16  1  0
 19 18  2  0
 21 20  1  6
 21 22  1  0
 23 21  1  0
 23 24  1  0
 25 23  2  0
M  END
$$$$
