FLA.pdb
     RDKit          3D

 25 25  0  0  1  0  0  0  0  0999 V2000
   18.5042  -12.2123  -16.6782 N   0  0  0  0  0  0  0  0  0  0  0  0
   18.8174  -10.9753  -17.3544 C   0  0  1  0  0  0  0  0  0  0  0  0
   17.6521  -10.4751  -18.1771 C   0  0  0  0  0  0  0  0  0  0  0  0
   17.4277  -11.4110  -19.2984 C   0  0  0  0  0  0  0  0  0  0  0  0
   18.3021  -11.4687  -20.3519 C   0  0  0  0  0  0  0  0  0  0  0  0
   18.1000  -12.3475  -21.4150 C   0  0  0  0  0  0  0  0  0  0  0  0
   16.9787  -13.1674  -21.3731 C   0  0  0  0  0  0  0  0  0  0  0  0
   16.0934  -13.1283  -20.3347 C   0  0  0  0  0  0  0  0  0  0  0  0
   16.3332  -12.2370  -19.2952 C   0  0  0  0  0  0  0  0  0  0  0  0
   19.2500   -9.9826  -16.3445 C   0  0  0  0  0  0  0  0  0  0  0  0
   18.5766   -9.8158  -15.2915 O   0  0  0  0  0  0  0  0  0  0  0  0
   23.0880  -10.0397  -16.4957 C   0  0  0  0  0  0  0  0  0  0  0  0
   22.5441   -9.9377  -15.0244 C   0  0  1  0  0  0  0  0  0  0  0  0
   23.7272  -10.3231  -14.1640 C   0  0  0  0  0  0  0  0  0  0  0  0
   22.0240   -8.5616  -14.8205 C   0  0  0  0  0  0  0  0  0  0  0  0
   20.7904   -8.1473  -15.4849 C   0  0  2  0  0  0  0  0  0  0  0  0
   20.4108   -9.1861  -16.4976 N   0  0  0  0  0  0  0  0  0  0  0  0
   20.6294   -6.8834  -16.1494 C   0  0  0  0  0  0  0  0  0  0  0  0
   20.7913   -6.7658  -17.3897 O   0  0  0  0  0  0  0  0  0  0  0  0
   18.9462   -4.6680  -17.1972 C   0  0  0  0  0  0  0  0  0  0  0  0
   20.0941   -4.4240  -16.2152 C   0  0  2  0  0  0  0  0  0  0  0  0
   20.2768   -5.6583  -15.4842 N   0  0  0  0  0  0  0  0  0  0  0  0
   19.7901   -3.2874  -15.3045 C   0  0  0  0  0  0  0  0  0  0  0  0
   19.9301   -1.9793  -15.7461 O   0  0  0  0  0  0  0  0  0  0  0  0
   19.4011   -3.4500  -14.1192 O   0  0  0  0  0  0  0  0  0  0  0  0
  2 10  1  0
  2  1  1  1
  3  2  1  0
  4  3  1  0
  5  4  2  0
  6  5  1  0
  7  6  2  0
  7  8  1  0
  8  9  2  0
  9  4  1  0
 10 11  2  0
 13 12  1  6
 14 13  1  0
 15 13  1  0
 16 15  1  6
 17 16  1  0
 17 10  1  0
 18 22  1  0
 18 16  1  0
 19 18  2  0
 21 20  1  6
 21 22  1  0
 23 21  1  0
 23 24  1  0
 25 23  2  0
M  END
$$$$
