FLA.pdb
     RDKit          3D

 25 25  0  0  1  0  0  0  0  0999 V2000
   27.9025  -19.6801  -15.4498 N   0  0  0  0  0  0  0  0  0  0  0  0
   26.8541  -18.9611  -14.7647 C   0  0  1  0  0  0  0  0  0  0  0  0
   26.0941  -18.0502  -15.7013 C   0  0  0  0  0  0  0  0  0  0  0  0
   26.9453  -16.8865  -16.0247 C   0  0  0  0  0  0  0  0  0  0  0  0
   27.5226  -16.7595  -17.2610 C   0  0  0  0  0  0  0  0  0  0  0  0
   28.3277  -15.6660  -17.5767 C   0  0  0  0  0  0  0  0  0  0  0  0
   28.5277  -14.7041  -16.5940 C   0  0  0  0  0  0  0  0  0  0  0  0
   27.9636  -14.8084  -15.3553 C   0  0  0  0  0  0  0  0  0  0  0  0
   27.1677  -15.9151  -15.0828 C   0  0  0  0  0  0  0  0  0  0  0  0
   25.9648  -19.9424  -14.1023 C   0  0  0  0  0  0  0  0  0  0  0  0
   25.6711  -21.0231  -14.6818 O   0  0  0  0  0  0  0  0  0  0  0  0
   26.0365  -20.5728   -8.6518 C   0  0  0  0  0  0  0  0  0  0  0  0
   26.0898  -20.8541  -10.1974 C   0  0  1  0  0  0  0  0  0  0  0  0
   26.7066  -22.2315  -10.3027 C   0  0  0  0  0  0  0  0  0  0  0  0
   24.7118  -20.7256  -10.7363 C   0  0  0  0  0  0  0  0  0  0  0  0
   24.4950  -20.7356  -12.1812 C   0  0  2  0  0  0  0  0  0  0  0  0
   25.4087  -19.7309  -12.8173 N   0  0  0  0  0  0  0  0  0  0  0  0
   23.2116  -20.5335  -12.7955 C   0  0  0  0  0  0  0  0  0  0  0  0
   22.7726  -19.3823  -13.0408 O   0  0  0  0  0  0  0  0  0  0  0  0
   21.0604  -21.5942  -15.2045 C   0  0  0  0  0  0  0  0  0  0  0  0
   20.9996  -21.3270  -13.6990 C   0  0  2  0  0  0  0  0  0  0  0  0
   22.3229  -21.5959  -13.1817 N   0  0  0  0  0  0  0  0  0  0  0  0
   19.9709  -22.1786  -13.0429 C   0  0  0  0  0  0  0  0  0  0  0  0
   18.6213  -21.9360  -13.2555 O   0  0  0  0  0  0  0  0  0  0  0  0
   20.2647  -23.1367  -12.2822 O   0  0  0  0  0  0  0  0  0  0  0  0
  2 10  1  0
  2  1  1  6
  3  2  1  0
  4  3  1  0
  5  4  2  0
  6  5  1  0
  7  6  2  0
  7  8  1  0
  8  9  2  0
  9  4  1  0
 10 11  2  0
 13 12  1  1
 14 13  1  0
 15 13  1  0
 16 15  1  1
 17 16  1  0
 17 10  1  0
 18 22  1  0
 18 16  1  0
 19 18  2  0
 21 20  1  6
 21 22  1  0
 23 21  1  0
 23 24  1  0
 25 23  2  0
M  END
$$$$
