FLA.pdb
     RDKit          3D

 25 25  0  0  1  0  0  0  0  0999 V2000
   17.1040  -16.1757    5.4827 N   0  0  0  0  0  0  0  0  0  0  0  0
   17.5842  -16.9578    4.3678 C   0  0  1  0  0  0  0  0  0  0  0  0
   18.6061  -16.2011    3.5505 C   0  0  0  0  0  0  0  0  0  0  0  0
   18.2910  -14.7589    3.6160 C   0  0  0  0  0  0  0  0  0  0  0  0
   19.2830  -13.8297    3.7898 C   0  0  0  0  0  0  0  0  0  0  0  0
   18.9971  -12.4667    3.8532 C   0  0  0  0  0  0  0  0  0  0  0  0
   17.6684  -12.0776    3.7341 C   0  0  0  0  0  0  0  0  0  0  0  0
   16.6627  -12.9843    3.5603 C   0  0  0  0  0  0  0  0  0  0  0  0
   16.9924  -14.3336    3.5026 C   0  0  0  0  0  0  0  0  0  0  0  0
   18.1244  -18.2353    4.8863 C   0  0  0  0  0  0  0  0  0  0  0  0
   18.7043  -19.0400    4.1077 O   0  0  0  0  0  0  0  0  0  0  0  0
   21.6026  -18.2178    8.5020 C   0  0  0  0  0  0  0  0  0  0  0  0
   20.9154  -18.8765    7.2511 C   0  0  1  0  0  0  0  0  0  0  0  0
   21.9862  -19.7724    6.6685 C   0  0  0  0  0  0  0  0  0  0  0  0
   19.6837  -19.5661    7.7127 C   0  0  0  0  0  0  0  0  0  0  0  0
   18.6318  -19.8910    6.7520 C   0  0  2  0  0  0  0  0  0  0  0  0
   18.0242  -18.6167    6.2463 N   0  0  0  0  0  0  0  0  0  0  0  0
   17.5234  -20.7567    7.0469 C   0  0  0  0  0  0  0  0  0  0  0  0
   16.4316  -20.3064    7.4752 O   0  0  0  0  0  0  0  0  0  0  0  0
   16.6611  -24.3952    6.7564 C   0  0  0  0  0  0  0  0  0  0  0  0
   16.4975  -23.0257    7.4191 C   0  0  2  0  0  0  0  0  0  0  0  0
   17.5476  -22.1856    6.8875 N   0  0  0  0  0  0  0  0  0  0  0  0
   16.5780  -23.1324    8.9009 C   0  0  0  0  0  0  0  0  0  0  0  0
   15.5454  -23.7197    9.6181 O   0  0  0  0  0  0  0  0  0  0  0  0
   17.5605  -22.7069    9.5617 O   0  0  0  0  0  0  0  0  0  0  0  0
  2 10  1  0
  2  1  1  1
  3  2  1  0
  4  3  1  0
  5  4  2  0
  6  5  1  0
  7  6  2  0
  7  8  1  0
  8  9  2  0
  9  4  1  0
 10 11  2  0
 13 12  1  1
 14 13  1  0
 15 13  1  0
 16 15  1  1
 17 16  1  0
 17 10  1  0
 18 22  1  0
 18 16  1  0
 19 18  2  0
 21 20  1  6
 21 22  1  0
 23 21  1  0
 23 24  1  0
 25 23  2  0
M  END
$$$$
