FLA.pdb
     RDKit          3D

 25 25  0  0  1  0  0  0  0  0999 V2000
   11.8374   -9.6351  -12.3302 N   0  0  0  0  0  0  0  0  0  0  0  0
   13.1961   -9.7976  -11.8690 C   0  0  1  0  0  0  0  0  0  0  0  0
   14.0077  -10.6607  -12.8077 C   0  0  0  0  0  0  0  0  0  0  0  0
   13.5002  -12.0465  -12.7350 C   0  0  0  0  0  0  0  0  0  0  0  0
   12.6665  -12.4377  -11.7203 C   0  0  0  0  0  0  0  0  0  0  0  0
   12.1820  -13.7425  -11.6417 C   0  0  0  0  0  0  0  0  0  0  0  0
   12.5726  -14.6387  -12.6294 C   0  0  0  0  0  0  0  0  0  0  0  0
   13.4020  -14.2729  -13.6501 C   0  0  0  0  0  0  0  0  0  0  0  0
   13.8618  -12.9616  -13.6900 C   0  0  0  0  0  0  0  0  0  0  0  0
   13.7968   -8.4561  -11.6900 C   0  0  0  0  0  0  0  0  0  0  0  0
   13.2375   -7.4406  -12.1861 O   0  0  0  0  0  0  0  0  0  0  0  0
   15.1667   -6.2827   -6.9873 C   0  0  0  0  0  0  0  0  0  0  0  0
   14.6252   -6.4220   -8.4564 C   0  0  1  0  0  0  0  0  0  0  0  0
   13.8476   -5.1451   -8.6877 C   0  0  0  0  0  0  0  0  0  0  0  0
   15.7867   -6.6375   -9.3565 C   0  0  0  0  0  0  0  0  0  0  0  0
   15.5656   -6.8662  -10.7826 C   0  0  2  0  0  0  0  0  0  0  0  0
   14.9986   -8.2414  -10.9727 N   0  0  0  0  0  0  0  0  0  0  0  0
   16.5916   -6.7305  -11.7795 C   0  0  0  0  0  0  0  0  0  0  0  0
   17.2255   -5.6563  -11.9305 O   0  0  0  0  0  0  0  0  0  0  0  0
   18.4854   -8.9891  -14.0870 C   0  0  0  0  0  0  0  0  0  0  0  0
   18.0544   -7.5908  -13.6395 C   0  0  2  0  0  0  0  0  0  0  0  0
   16.9880   -7.7782  -12.6811 N   0  0  0  0  0  0  0  0  0  0  0  0
   17.6124   -6.7680  -14.7977 C   0  0  0  0  0  0  0  0  0  0  0  0
   16.2920   -6.3535  -14.8991 O   0  0  0  0  0  0  0  0  0  0  0  0
   18.3926   -6.4156  -15.7196 O   0  0  0  0  0  0  0  0  0  0  0  0
  2 10  1  0
  2  1  1  6
  3  2  1  0
  4  3  1  0
  5  4  2  0
  6  5  1  0
  7  6  2  0
  7  8  1  0
  8  9  2  0
  9  4  1  0
 10 11  2  0
 13 12  1  1
 14 13  1  0
 15 13  1  0
 16 15  1  1
 17 16  1  0
 17 10  1  0
 18 22  1  0
 18 16  1  0
 19 18  2  0
 21 20  1  6
 21 22  1  0
 23 21  1  0
 23 24  1  0
 25 23  2  0
M  END
$$$$
