FLA.pdb
     RDKit          3D

 25 25  0  0  1  0  0  0  0  0999 V2000
   35.4993  -28.8095  -18.8454 N   0  0  0  0  0  0  0  0  0  0  0  0
   35.2269  -27.4178  -19.1181 C   0  0  1  0  0  0  0  0  0  0  0  0
   34.6876  -27.2151  -20.5156 C   0  0  0  0  0  0  0  0  0  0  0  0
   35.8053  -27.3278  -21.4755 C   0  0  0  0  0  0  0  0  0  0  0  0
   36.7408  -26.3326  -21.5854 C   0  0  0  0  0  0  0  0  0  0  0  0
   37.7991  -26.4283  -22.4878 C   0  0  0  0  0  0  0  0  0  0  0  0
   37.8763  -27.5699  -23.2764 C   0  0  0  0  0  0  0  0  0  0  0  0
   36.9567  -28.5747  -23.1852 C   0  0  0  0  0  0  0  0  0  0  0  0
   35.9175  -28.4383  -22.2721 C   0  0  0  0  0  0  0  0  0  0  0  0
   34.2962  -26.9086  -18.0852 C   0  0  0  0  0  0  0  0  0  0  0  0
   33.3446  -27.6295  -17.6793 O   0  0  0  0  0  0  0  0  0  0  0  0
   36.1097  -24.6726  -13.5222 C   0  0  0  0  0  0  0  0  0  0  0  0
   35.2569  -25.5498  -14.5092 C   0  0  1  0  0  0  0  0  0  0  0  0
   34.5220  -26.5159  -13.6063 C   0  0  0  0  0  0  0  0  0  0  0  0
   34.3980  -24.6396  -15.3089 C   0  0  0  0  0  0  0  0  0  0  0  0
   33.5498  -25.1862  -16.3658 C   0  0  2  0  0  0  0  0  0  0  0  0
   34.4168  -25.6203  -17.5097 N   0  0  0  0  0  0  0  0  0  0  0  0
   32.4565  -24.4683  -16.9608 C   0  0  0  0  0  0  0  0  0  0  0  0
   32.6491  -23.4924  -17.7282 O   0  0  0  0  0  0  0  0  0  0  0  0
   29.1278  -24.8763  -18.1268 C   0  0  0  0  0  0  0  0  0  0  0  0
   30.0129  -23.9550  -17.2846 C   0  0  2  0  0  0  0  0  0  0  0  0
   31.0697  -24.7824  -16.7464 N   0  0  0  0  0  0  0  0  0  0  0  0
   29.2292  -23.2956  -16.2054 C   0  0  0  0  0  0  0  0  0  0  0  0
   29.4694  -23.6076  -14.8747 O   0  0  0  0  0  0  0  0  0  0  0  0
   28.3327  -22.4442  -16.4381 O   0  0  0  0  0  0  0  0  0  0  0  0
  2 10  1  0
  2  1  1  1
  3  2  1  0
  4  3  1  0
  5  4  2  0
  6  5  1  0
  7  6  2  0
  7  8  1  0
  8  9  2  0
  9  4  1  0
 10 11  2  0
 13 12  1  1
 14 13  1  0
 15 13  1  0
 16 15  1  1
 17 16  1  0
 17 10  1  0
 18 22  1  0
 18 16  1  0
 19 18  2  0
 21 20  1  1
 21 22  1  0
 23 21  1  0
 23 24  1  0
 25 23  2  0
M  END
$$$$
