WLN.pdb
     RDKit          3D

 31 32  0  0  1  0  0  0  0  0999 V2000
    6.6595  -17.6462   24.1651 N   0  0  0  0  0  0  0  0  0  0  0  0
    7.2828  -16.3983   23.7654 C   0  0  1  0  0  0  0  0  0  0  0  0
    8.2468  -16.0322   24.8740 C   0  0  0  0  0  0  0  0  0  0  0  0
    7.4861  -15.2263   25.8763 C   0  0  0  0  0  0  0  0  0  0  0  0
    6.4844  -15.6613   26.7400 C   0  0  0  0  0  0  0  0  0  0  0  0
    6.0703  -14.6184   27.4694 N   0  0  0  0  0  0  0  0  0  0  0  0
    6.7488  -13.5105   27.1317 C   0  0  0  0  0  0  0  0  0  0  0  0
    6.7272  -12.1930   27.5543 C   0  0  0  0  0  0  0  0  0  0  0  0
    7.5503  -11.2173   27.0329 C   0  0  0  0  0  0  0  0  0  0  0  0
    8.4353  -11.5947   26.0381 C   0  0  0  0  0  0  0  0  0  0  0  0
    8.4694  -12.9147   25.6021 C   0  0  0  0  0  0  0  0  0  0  0  0
    7.6348  -13.8824   26.1374 C   0  0  0  0  0  0  0  0  0  0  0  0
    7.9948  -16.5907   22.4712 C   0  0  0  0  0  0  0  0  0  0  0  0
    8.2759  -17.7651   22.0862 O   0  0  0  0  0  0  0  0  0  0  0  0
    8.1790  -12.3902   18.8311 C   0  0  0  0  0  0  0  0  0  0  0  0
    7.9506  -13.4706   19.9388 C   0  0  1  0  0  0  0  0  0  0  0  0
    6.4236  -13.6337   19.9025 C   0  0  0  0  0  0  0  0  0  0  0  0
    8.6830  -14.6493   19.4483 C   0  0  0  0  0  0  0  0  0  0  0  0
    9.0691  -15.7501   20.3367 C   0  0  2  0  0  0  0  0  0  0  0  0
    8.3786  -15.5132   21.6378 N   0  0  0  0  0  0  0  0  0  0  0  0
   10.4636  -16.0722   20.5517 C   0  0  0  0  0  0  0  0  0  0  0  0
   11.1885  -16.4525   19.6130 O   0  0  0  0  0  0  0  0  0  0  0  0
   14.3589  -16.5028   19.9723 N   0  0  0  0  0  0  0  0  0  0  0  0
   14.3086  -15.2567   20.6327 C   0  0  0  0  0  0  0  0  0  0  0  0
   15.1109  -14.3592   20.3023 O   0  0  0  0  0  0  0  0  0  0  0  0
   13.3291  -15.0203   21.6897 C   0  0  0  0  0  0  0  0  0  0  0  0
   12.4674  -16.2285   21.9824 C   0  0  2  0  0  0  0  0  0  0  0  0
   11.0745  -15.9728   21.8311 N   0  0  0  0  0  0  0  0  0  0  0  0
   12.8062  -16.7009   23.3493 C   0  0  0  0  0  0  0  0  0  0  0  0
   14.0688  -17.1662   23.6838 O   0  0  0  0  0  0  0  0  0  0  0  0
   11.9383  -16.6910   24.2594 O   0  0  0  0  0  0  0  0  0  0  0  0
  2 13  1  0
  2  1  1  1
  2  3  1  0
  3  4  1  0
  4 12  1  0
  4  5  2  0
  5  6  1  0
  6  7  1  0
  7  8  2  0
  9  8  1  0
 10  9  2  0
 11 12  2  0
 11 10  1  0
 12  7  1  0
 13 20  1  0
 14 13  2  0
 16 15  1  6
 17 16  1  0
 18 16  1  0
 19 18  1  6
 20 19  1  0
 21 19  1  0
 22 21  2  0
 23 24  1  0
 24 25  2  0
 24 26  1  0
 27 26  1  1
 27 29  1  0
 27 28  1  0
 28 21  1  0
 29 30  1  0
 31 29  2  0
M  END
$$$$
