WLN.pdb
     RDKit          3D

 31 32  0  0  1  0  0  0  0  0999 V2000
    6.2231  -18.1406   24.0186 N   0  0  0  0  0  0  0  0  0  0  0  0
    6.8516  -16.8376   23.9068 C   0  0  1  0  0  0  0  0  0  0  0  0
    7.5763  -16.6033   25.2153 C   0  0  0  0  0  0  0  0  0  0  0  0
    6.8325  -15.5360   25.9504 C   0  0  0  0  0  0  0  0  0  0  0  0
    5.5644  -15.6156   26.5199 C   0  0  0  0  0  0  0  0  0  0  0  0
    5.2761  -14.4351   27.0806 N   0  0  0  0  0  0  0  0  0  0  0  0
    6.2919  -13.5743   26.9109 C   0  0  0  0  0  0  0  0  0  0  0  0
    6.5205  -12.2593   27.2762 C   0  0  0  0  0  0  0  0  0  0  0  0
    7.6817  -11.5805   26.9728 C   0  0  0  0  0  0  0  0  0  0  0  0
    8.6551  -12.2660   26.2673 C   0  0  0  0  0  0  0  0  0  0  0  0
    8.4408  -13.5879   25.8927 C   0  0  0  0  0  0  0  0  0  0  0  0
    7.2675  -14.2548   26.2060 C   0  0  0  0  0  0  0  0  0  0  0  0
    7.7985  -16.8397   22.7569 C   0  0  0  0  0  0  0  0  0  0  0  0
    8.0548  -17.9314   22.1660 O   0  0  0  0  0  0  0  0  0  0  0  0
    7.9836  -12.1489   20.0557 C   0  0  0  0  0  0  0  0  0  0  0  0
    7.6786  -13.5749   20.6214 C   0  0  1  0  0  0  0  0  0  0  0  0
    6.5085  -14.0181   19.7302 C   0  0  0  0  0  0  0  0  0  0  0  0
    8.9204  -14.3289   20.3853 C   0  0  0  0  0  0  0  0  0  0  0  0
    9.1511  -15.6514   20.9750 C   0  0  2  0  0  0  0  0  0  0  0  0
    8.4356  -15.6678   22.2840 N   0  0  0  0  0  0  0  0  0  0  0  0
   10.4938  -16.1711   21.1223 C   0  0  0  0  0  0  0  0  0  0  0  0
   11.3006  -16.1477   20.1737 O   0  0  0  0  0  0  0  0  0  0  0  0
   15.5446  -16.6885   21.7349 N   0  0  0  0  0  0  0  0  0  0  0  0
   14.4720  -17.4907   21.2907 C   0  0  0  0  0  0  0  0  0  0  0  0
   14.6907  -18.6770   20.9693 O   0  0  0  0  0  0  0  0  0  0  0  0
   13.1222  -16.9393   21.2085 C   0  0  0  0  0  0  0  0  0  0  0  0
   12.3072  -17.1742   22.4609 C   0  0  2  0  0  0  0  0  0  0  0  0
   10.9592  -16.7296   22.3434 N   0  0  0  0  0  0  0  0  0  0  0  0
   13.0182  -16.5188   23.5886 C   0  0  0  0  0  0  0  0  0  0  0  0
   13.7464  -15.3497   23.4297 O   0  0  0  0  0  0  0  0  0  0  0  0
   12.9774  -17.0176   24.7424 O   0  0  0  0  0  0  0  0  0  0  0  0
  2 13  1  0
  2  1  1  1
  2  3  1  0
  3  4  1  0
  4 12  1  0
  4  5  2  0
  5  6  1  0
  6  7  1  0
  7  8  2  0
  9  8  1  0
 10  9  2  0
 11 12  2  0
 11 10  1  0
 12  7  1  0
 13 20  1  0
 14 13  2  0
 16 15  1  6
 17 16  1  0
 18 16  1  0
 19 18  1  1
 20 19  1  0
 21 19  1  0
 22 21  2  0
 23 24  1  0
 24 25  2  0
 24 26  1  0
 27 26  1  6
 27 29  1  0
 27 28  1  0
 28 21  1  0
 29 30  1  0
 31 29  2  0
M  END
$$$$
