WLN.pdb
     RDKit          3D

 31 32  0  0  1  0  0  0  0  0999 V2000
    6.9516  -18.4294   24.0923 N   0  0  0  0  0  0  0  0  0  0  0  0
    7.2844  -17.0507   23.7858 C   0  0  1  0  0  0  0  0  0  0  0  0
    8.0714  -16.5316   24.9704 C   0  0  0  0  0  0  0  0  0  0  0  0
    7.3029  -15.3876   25.5478 C   0  0  0  0  0  0  0  0  0  0  0  0
    5.9473  -15.3406   25.8620 C   0  0  0  0  0  0  0  0  0  0  0  0
    5.6678  -14.1285   26.3560 N   0  0  0  0  0  0  0  0  0  0  0  0
    6.7730  -13.3673   26.3849 C   0  0  0  0  0  0  0  0  0  0  0  0
    7.0485  -12.0721   26.7867 C   0  0  0  0  0  0  0  0  0  0  0  0
    8.3044  -11.5077   26.7127 C   0  0  0  0  0  0  0  0  0  0  0  0
    9.3270  -12.2921   26.2084 C   0  0  0  0  0  0  0  0  0  0  0  0
    9.0666  -13.5957   25.8002 C   0  0  0  0  0  0  0  0  0  0  0  0
    7.7981  -14.1468   25.8818 C   0  0  0  0  0  0  0  0  0  0  0  0
    8.0928  -17.0008   22.5356 C   0  0  0  0  0  0  0  0  0  0  0  0
    8.5468  -18.0785   22.0468 O   0  0  0  0  0  0  0  0  0  0  0  0
    8.2586  -12.2871   19.4216 C   0  0  0  0  0  0  0  0  0  0  0  0
    8.1489  -13.4171   20.4975 C   0  0  1  0  0  0  0  0  0  0  0  0
    6.6337  -13.4622   20.7460 C   0  0  0  0  0  0  0  0  0  0  0  0
    8.6725  -14.6131   19.8178 C   0  0  0  0  0  0  0  0  0  0  0  0
    9.1224  -15.7949   20.5602 C   0  0  2  0  0  0  0  0  0  0  0  0
    8.3835  -15.7938   21.8563 N   0  0  0  0  0  0  0  0  0  0  0  0
   10.5322  -16.0385   20.7781 C   0  0  0  0  0  0  0  0  0  0  0  0
   11.3541  -15.9382   19.8476 O   0  0  0  0  0  0  0  0  0  0  0  0
   13.3305  -14.2632   19.7848 N   0  0  0  0  0  0  0  0  0  0  0  0
   13.8804  -14.9454   20.8910 C   0  0  0  0  0  0  0  0  0  0  0  0
   15.0278  -15.4286   20.7999 O   0  0  0  0  0  0  0  0  0  0  0  0
   13.1159  -15.0839   22.1275 C   0  0  0  0  0  0  0  0  0  0  0  0
   12.4563  -16.4377   22.2698 C   0  0  2  0  0  0  0  0  0  0  0  0
   11.0494  -16.4010   22.0513 N   0  0  0  0  0  0  0  0  0  0  0  0
   12.8021  -16.9663   23.6142 C   0  0  0  0  0  0  0  0  0  0  0  0
   12.7137  -16.1940   24.7623 O   0  0  0  0  0  0  0  0  0  0  0  0
   13.1924  -18.1541   23.7500 O   0  0  0  0  0  0  0  0  0  0  0  0
  2 13  1  0
  2  1  1  1
  2  3  1  0
  3  4  1  0
  4 12  1  0
  4  5  2  0
  5  6  1  0
  6  7  1  0
  7  8  2  0
  9  8  1  0
 10  9  2  0
 11 12  2  0
 11 10  1  0
 12  7  1  0
 13 20  1  0
 14 13  2  0
 16 15  1  6
 17 16  1  0
 18 16  1  0
 19 18  1  1
 20 19  1  0
 21 19  1  0
 22 21  2  0
 23 24  1  0
 24 25  2  0
 24 26  1  0
 27 26  1  1
 27 29  1  0
 27 28  1  0
 28 21  1  0
 29 30  1  0
 31 29  2  0
M  END
$$$$
