WLN.pdb
     RDKit          3D

 31 32  0  0  1  0  0  0  0  0999 V2000
    6.5937  -18.1504   25.3372 N   0  0  0  0  0  0  0  0  0  0  0  0
    7.1143  -16.8282   25.0436 C   0  0  1  0  0  0  0  0  0  0  0  0
    8.4509  -16.7332   25.7483 C   0  0  0  0  0  0  0  0  0  0  0  0
    8.2750  -15.8134   26.9128 C   0  0  0  0  0  0  0  0  0  0  0  0
    8.3955  -16.1159   28.2666 C   0  0  0  0  0  0  0  0  0  0  0  0
    8.1573  -15.0042   28.9727 N   0  0  0  0  0  0  0  0  0  0  0  0
    7.8839  -13.9770   28.1530 C   0  0  0  0  0  0  0  0  0  0  0  0
    7.5739  -12.6416   28.3412 C   0  0  0  0  0  0  0  0  0  0  0  0
    7.3294  -11.7678   27.3029 C   0  0  0  0  0  0  0  0  0  0  0  0
    7.4025  -12.2709   26.0157 C   0  0  0  0  0  0  0  0  0  0  0  0
    7.7128  -13.6106   25.8096 C   0  0  0  0  0  0  0  0  0  0  0  0
    7.9556  -14.4748   26.8650 C   0  0  0  0  0  0  0  0  0  0  0  0
    7.2672  -16.6703   23.5703 C   0  0  0  0  0  0  0  0  0  0  0  0
    7.2422  -17.6988   22.8300 O   0  0  0  0  0  0  0  0  0  0  0  0
    6.4545  -13.5613   19.0631 C   0  0  0  0  0  0  0  0  0  0  0  0
    7.8437  -13.4029   19.7643 C   0  0  1  0  0  0  0  0  0  0  0  0
    8.0639  -11.8852   19.6766 C   0  0  0  0  0  0  0  0  0  0  0  0
    7.6127  -13.8887   21.1344 C   0  0  0  0  0  0  0  0  0  0  0  0
    7.7357  -15.3066   21.4876 C   0  0  2  0  0  0  0  0  0  0  0  0
    7.4414  -15.4120   22.9464 N   0  0  0  0  0  0  0  0  0  0  0  0
    8.9317  -16.0503   21.1545 C   0  0  0  0  0  0  0  0  0  0  0  0
    9.0349  -16.6499   20.0677 O   0  0  0  0  0  0  0  0  0  0  0  0
   13.7676  -17.3397   20.5346 N   0  0  0  0  0  0  0  0  0  0  0  0
   13.4336  -15.9707   20.4585 C   0  0  0  0  0  0  0  0  0  0  0  0
   14.2482  -15.1721   19.9516 O   0  0  0  0  0  0  0  0  0  0  0  0
   12.1500  -15.4944   20.9667 C   0  0  0  0  0  0  0  0  0  0  0  0
   11.3025  -16.5952   21.5651 C   0  0  2  0  0  0  0  0  0  0  0  0
   10.0406  -16.1354   22.0392 N   0  0  0  0  0  0  0  0  0  0  0  0
   12.1015  -17.2451   22.6355 C   0  0  0  0  0  0  0  0  0  0  0  0
   11.6441  -17.3599   23.9393 O   0  0  0  0  0  0  0  0  0  0  0  0
   13.2386  -17.7191   22.3821 O   0  0  0  0  0  0  0  0  0  0  0  0
  2 13  1  0
  2  1  1  6
  2  3  1  0
  3  4  1  0
  4 12  1  0
  4  5  2  0
  5  6  1  0
  6  7  1  0
  7  8  2  0
  9  8  1  0
 10  9  2  0
 11 12  2  0
 11 10  1  0
 12  7  1  0
 13 20  1  0
 14 13  2  0
 16 15  1  6
 17 16  1  0
 18 16  1  0
 19 18  1  1
 20 19  1  0
 21 19  1  0
 22 21  2  0
 23 24  1  0
 24 25  2  0
 24 26  1  0
 27 26  1  1
 27 29  1  0
 27 28  1  0
 28 21  1  0
 29 30  1  0
 31 29  2  0
M  END
$$$$
