WLN.pdb
     RDKit          3D

 31 32  0  0  1  0  0  0  0  0999 V2000
    7.5043  -17.1174   24.8786 N   0  0  0  0  0  0  0  0  0  0  0  0
    7.8327  -15.9009   24.1591 C   0  0  1  0  0  0  0  0  0  0  0  0
    8.9848  -15.2643   24.9070 C   0  0  0  0  0  0  0  0  0  0  0  0
    8.4259  -14.6617   26.1550 C   0  0  0  0  0  0  0  0  0  0  0  0
    8.5131  -15.1534   27.4547 C   0  0  0  0  0  0  0  0  0  0  0  0
    7.8762  -14.3067   28.2724 N   0  0  0  0  0  0  0  0  0  0  0  0
    7.3695  -13.2755   27.5783 C   0  0  0  0  0  0  0  0  0  0  0  0
    6.6412  -12.1468   27.9106 C   0  0  0  0  0  0  0  0  0  0  0  0
    6.2294  -11.2120   26.9845 C   0  0  0  0  0  0  0  0  0  0  0  0
    6.5717  -11.4316   25.6616 C   0  0  0  0  0  0  0  0  0  0  0  0
    7.3032  -12.5610   25.3112 C   0  0  0  0  0  0  0  0  0  0  0  0
    7.7088  -13.4904   26.2552 C   0  0  0  0  0  0  0  0  0  0  0  0
    8.2170  -16.2393   22.7602 C   0  0  0  0  0  0  0  0  0  0  0  0
    8.0185  -17.4146   22.3292 O   0  0  0  0  0  0  0  0  0  0  0  0
    8.3823  -12.1689   19.1385 C   0  0  0  0  0  0  0  0  0  0  0  0
    8.1903  -13.2259   20.2753 C   0  0  1  0  0  0  0  0  0  0  0  0
    6.6834  -13.1135   20.5517 C   0  0  0  0  0  0  0  0  0  0  0  0
    8.5837  -14.5000   19.6522 C   0  0  0  0  0  0  0  0  0  0  0  0
    9.0523  -15.6412   20.4448 C   0  0  2  0  0  0  0  0  0  0  0  0
    8.8008  -15.3015   21.8756 N   0  0  0  0  0  0  0  0  0  0  0  0
   10.3922  -16.1604   20.2728 C   0  0  0  0  0  0  0  0  0  0  0  0
   10.7099  -16.7955   19.2496 O   0  0  0  0  0  0  0  0  0  0  0  0
   13.3141  -13.7727   19.1130 N   0  0  0  0  0  0  0  0  0  0  0  0
   13.7154  -15.0987   19.3816 C   0  0  0  0  0  0  0  0  0  0  0  0
   14.0177  -15.8484   18.4303 O   0  0  0  0  0  0  0  0  0  0  0  0
   13.7764  -15.5875   20.7564 C   0  0  0  0  0  0  0  0  0  0  0  0
   12.6842  -16.5819   21.0824 C   0  0  2  0  0  0  0  0  0  0  0  0
   11.4066  -15.9754   21.2508 N   0  0  0  0  0  0  0  0  0  0  0  0
   13.1104  -17.3373   22.2884 C   0  0  0  0  0  0  0  0  0  0  0  0
   14.3449  -17.9621   22.3769 O   0  0  0  0  0  0  0  0  0  0  0  0
   12.3463  -17.4320   23.2829 O   0  0  0  0  0  0  0  0  0  0  0  0
  2 13  1  0
  2  1  1  1
  2  3  1  0
  3  4  1  0
  4 12  1  0
  4  5  2  0
  5  6  1  0
  6  7  1  0
  7  8  2  0
  9  8  1  0
 10  9  2  0
 11 12  2  0
 11 10  1  0
 12  7  1  0
 13 20  1  0
 14 13  2  0
 16 15  1  6
 17 16  1  0
 18 16  1  0
 19 18  1  6
 20 19  1  0
 21 19  1  0
 22 21  2  0
 23 24  1  0
 24 25  2  0
 24 26  1  0
 27 26  1  1
 27 29  1  0
 27 28  1  0
 28 21  1  0
 29 30  1  0
 31 29  2  0
M  END
$$$$
