WLN.pdb
     RDKit          3D

 31 32  0  0  1  0  0  0  0  0999 V2000
    6.3910  -18.2786   24.3269 N   0  0  0  0  0  0  0  0  0  0  0  0
    6.9258  -16.9491   24.0995 C   0  0  1  0  0  0  0  0  0  0  0  0
    7.7586  -16.6133   25.3185 C   0  0  0  0  0  0  0  0  0  0  0  0
    7.0534  -15.5180   26.0506 C   0  0  0  0  0  0  0  0  0  0  0  0
    5.7901  -15.5559   26.6347 C   0  0  0  0  0  0  0  0  0  0  0  0
    5.5414  -14.3621   27.1861 N   0  0  0  0  0  0  0  0  0  0  0  0
    6.5792  -13.5321   26.9964 C   0  0  0  0  0  0  0  0  0  0  0  0
    6.8488  -12.2205   27.3453 C   0  0  0  0  0  0  0  0  0  0  0  0
    8.0252  -11.5779   27.0222 C   0  0  0  0  0  0  0  0  0  0  0  0
    8.9708  -12.2978   26.3132 C   0  0  0  0  0  0  0  0  0  0  0  0
    8.7152  -13.6169   25.9548 C   0  0  0  0  0  0  0  0  0  0  0  0
    7.5272  -14.2471   26.2879 C   0  0  0  0  0  0  0  0  0  0  0  0
    7.7551  -16.9521   22.8620 C   0  0  0  0  0  0  0  0  0  0  0  0
    8.0227  -18.0546   22.2970 O   0  0  0  0  0  0  0  0  0  0  0  0
    7.9687  -12.2610   20.0453 C   0  0  0  0  0  0  0  0  0  0  0  0
    7.6142  -13.6535   20.6632 C   0  0  1  0  0  0  0  0  0  0  0  0
    6.3444  -14.0247   19.8824 C   0  0  0  0  0  0  0  0  0  0  0  0
    8.7757  -14.4973   20.3389 C   0  0  0  0  0  0  0  0  0  0  0  0
    8.9898  -15.8022   20.9726 C   0  0  2  0  0  0  0  0  0  0  0  0
    8.2664  -15.7692   22.2770 N   0  0  0  0  0  0  0  0  0  0  0  0
   10.3264  -16.3298   21.1450 C   0  0  0  0  0  0  0  0  0  0  0  0
   11.1482  -16.3191   20.2091 O   0  0  0  0  0  0  0  0  0  0  0  0
   14.5839  -15.7031   24.3870 N   0  0  0  0  0  0  0  0  0  0  0  0
   14.2198  -15.5791   23.0293 C   0  0  0  0  0  0  0  0  0  0  0  0
   15.1153  -15.4917   22.1639 O   0  0  0  0  0  0  0  0  0  0  0  0
   12.8121  -15.5536   22.6417 C   0  0  0  0  0  0  0  0  0  0  0  0
   12.1576  -16.9164   22.6907 C   0  0  2  0  0  0  0  0  0  0  0  0
   10.7686  -16.8822   22.3775 N   0  0  0  0  0  0  0  0  0  0  0  0
   12.4158  -17.4902   24.0363 C   0  0  0  0  0  0  0  0  0  0  0  0
   13.4409  -18.3925   24.2759 O   0  0  0  0  0  0  0  0  0  0  0  0
   11.6959  -17.1658   25.0152 O   0  0  0  0  0  0  0  0  0  0  0  0
  2 13  1  0
  2  1  1  1
  2  3  1  0
  3  4  1  0
  4 12  1  0
  4  5  2  0
  5  6  1  0
  6  7  1  0
  7  8  2  0
  9  8  1  0
 10  9  2  0
 11 12  2  0
 11 10  1  0
 12  7  1  0
 13 20  1  0
 14 13  2  0
 16 15  1  6
 17 16  1  0
 18 16  1  0
 19 18  1  1
 20 19  1  0
 21 19  1  0
 22 21  2  0
 23 24  1  0
 24 25  2  0
 24 26  1  0
 27 26  1  1
 27 29  1  0
 27 28  1  0
 28 21  1  0
 29 30  1  0
 31 29  2  0
M  END
$$$$
