QPH.pdb
     RDKit          3D

 27 28  0  0  1  0  0  0  0  0999 V2000
    6.8611  -19.8464   18.9490 N   0  0  0  0  0  0  0  0  0  0  0  0
    7.9449  -20.0655   18.0733 C   0  0  0  0  0  0  0  0  0  0  0  0
    8.2882  -21.2373   17.8174 O   0  0  0  0  0  0  0  0  0  0  0  0
    8.6277  -18.9052   17.4944 C   0  0  0  0  0  0  0  0  0  0  0  0
    8.0623  -17.5682   17.8975 C   0  0  0  0  0  0  0  0  0  0  0  0
    8.9867  -16.4456   17.5709 C   0  0  2  0  0  0  0  0  0  0  0  0
   10.1132  -17.0321   16.8560 N   0  0  0  0  0  0  0  0  0  0  0  0
    9.4475  -15.6586   18.7352 C   0  0  0  0  0  0  0  0  0  0  0  0
   10.5977  -15.9262   19.2319 O   0  0  0  0  0  0  0  0  0  0  0  0
    8.7208  -14.6150   19.3630 N   0  0  0  0  0  0  0  0  0  0  0  0
    7.6661  -13.8889   18.6897 C   0  0  0  0  0  0  0  0  0  0  0  0
    7.6037  -12.5554   19.4351 C   0  0  0  0  0  0  0  0  0  0  0  0
    7.8477  -13.0340   20.8513 C   0  0  0  0  0  0  0  0  0  0  0  0
    8.8743  -14.1009   20.6661 C   0  0  1  0  0  0  0  0  0  0  0  0
    8.8143  -15.1320   21.7393 C   0  0  0  0  0  0  0  0  0  0  0  0
    7.8402  -15.9124   21.7499 O   0  0  0  0  0  0  0  0  0  0  0  0
    9.8246  -15.2370   22.7260 N   0  0  0  0  0  0  0  0  0  0  0  0
    9.8143  -16.2535   23.7705 C   0  0  1  0  0  0  0  0  0  0  0  0
    9.7656  -17.6319   23.2137 C   0  0  0  0  0  0  0  0  0  0  0  0
   11.0363  -17.9539   22.5416 C   0  0  0  0  0  0  0  0  0  0  0  0
   11.8924  -17.0445   21.9309 C   0  0  0  0  0  0  0  0  0  0  0  0
   12.9513  -17.7275   21.4296 N   0  0  0  0  0  0  0  0  0  0  0  0
   12.7799  -19.0177   21.7076 C   0  0  0  0  0  0  0  0  0  0  0  0
   11.6191  -19.1518   22.3812 N   0  0  0  0  0  0  0  0  0  0  0  0
   10.9159  -16.0816   24.7188 C   0  0  0  0  0  0  0  0  0  0  0  0
   10.9597  -16.9007   25.7070 O   0  0  0  0  0  0  0  0  0  0  0  0
   11.9138  -15.1514   24.6837 O   0  0  0  0  0  0  0  0  0  0  0  0
  2  3  2  0
  2  1  1  0
  4  2  1  0
  5  4  1  0
  6  5  1  0
  6  8  1  0
  6  7  1  1
  8  9  2  0
  8 10  1  0
 10 14  1  0
 10 11  1  0
 11 12  1  0
 13 12  1  0
 14 13  1  0
 15 16  2  0
 14 15  1  1
 17 15  1  0
 18 17  1  0
 18 25  1  0
 18 19  1  6
 20 24  1  0
 20 19  1  0
 21 20  2  0
 22 21  1  0
 22 23  1  0
 23 24  2  0
 25 27  1  0
 26 25  2  0
M  END
$$$$
