QPH.pdb
     RDKit          3D

 27 28  0  0  1  0  0  0  0  0999 V2000
    6.3206  -18.8259   22.2402 N   0  0  0  0  0  0  0  0  0  0  0  0
    5.9116  -17.8910   21.2663 C   0  0  0  0  0  0  0  0  0  0  0  0
    5.1682  -18.2701   20.3389 O   0  0  0  0  0  0  0  0  0  0  0  0
    6.3754  -16.5058   21.3818 C   0  0  0  0  0  0  0  0  0  0  0  0
    7.1994  -16.2112   22.6083 C   0  0  0  0  0  0  0  0  0  0  0  0
    7.6523  -14.7920   22.6534 C   0  0  2  0  0  0  0  0  0  0  0  0
    8.4596  -14.5773   21.4592 N   0  0  0  0  0  0  0  0  0  0  0  0
    8.3974  -14.4139   23.8738 C   0  0  0  0  0  0  0  0  0  0  0  0
    9.6298  -14.7521   23.9619 O   0  0  0  0  0  0  0  0  0  0  0  0
    7.8637  -13.6969   24.9749 N   0  0  0  0  0  0  0  0  0  0  0  0
    6.5990  -12.9977   24.9072 C   0  0  0  0  0  0  0  0  0  0  0  0
    6.7102  -11.9298   25.9958 C   0  0  0  0  0  0  0  0  0  0  0  0
    7.4520  -12.7137   27.0584 C   0  0  0  0  0  0  0  0  0  0  0  0
    8.4193  -13.5199   26.2579 C   0  0  1  0  0  0  0  0  0  0  0  0
    8.7942  -14.7896   26.9404 C   0  0  0  0  0  0  0  0  0  0  0  0
    7.9161  -15.6669   27.0718 O   0  0  0  0  0  0  0  0  0  0  0  0
   10.1038  -15.0105   27.4315 N   0  0  0  0  0  0  0  0  0  0  0  0
   10.4789  -16.1954   28.1930 C   0  0  1  0  0  0  0  0  0  0  0  0
   11.7288  -16.8197   27.6829 C   0  0  0  0  0  0  0  0  0  0  0  0
   11.5787  -17.1683   26.2595 C   0  0  0  0  0  0  0  0  0  0  0  0
   10.4266  -17.6567   25.6537 C   0  0  0  0  0  0  0  0  0  0  0  0
   10.6884  -17.8533   24.3377 N   0  0  0  0  0  0  0  0  0  0  0  0
   11.9530  -17.5057   24.1116 C   0  0  0  0  0  0  0  0  0  0  0  0
   12.4898  -17.0912   25.2774 N   0  0  0  0  0  0  0  0  0  0  0  0
   10.5435  -15.9296   29.6309 C   0  0  0  0  0  0  0  0  0  0  0  0
   10.7842  -16.9348   30.3932 O   0  0  0  0  0  0  0  0  0  0  0  0
   10.3799  -14.7351   30.2701 O   0  0  0  0  0  0  0  0  0  0  0  0
  2  3  2  0
  2  1  1  0
  4  2  1  0
  5  4  1  0
  6  5  1  0
  6  8  1  0
  6  7  1  6
  8  9  2  0
  8 10  1  0
 10 14  1  0
 10 11  1  0
 11 12  1  0
 13 12  1  0
 14 13  1  0
 15 16  2  0
 14 15  1  1
 17 15  1  0
 18 17  1  0
 18 25  1  0
 18 19  1  6
 20 24  1  0
 20 19  1  0
 21 20  2  0
 22 21  1  0
 22 23  1  0
 23 24  2  0
 25 27  1  0
 26 25  2  0
M  END
$$$$
