QPH.pdb
     RDKit          3D

 27 28  0  0  1  0  0  0  0  0999 V2000
    8.8801  -14.2000   14.9677 N   0  0  0  0  0  0  0  0  0  0  0  0
    9.0157  -15.5681   15.2828 C   0  0  0  0  0  0  0  0  0  0  0  0
    8.0837  -16.3485   15.0020 O   0  0  0  0  0  0  0  0  0  0  0  0
   10.2500  -16.0228   15.9287 C   0  0  0  0  0  0  0  0  0  0  0  0
   10.1976  -16.0772   17.4334 C   0  0  0  0  0  0  0  0  0  0  0  0
   10.7568  -14.8458   18.0600 C   0  0  2  0  0  0  0  0  0  0  0  0
   12.1876  -14.8539   17.7830 N   0  0  0  0  0  0  0  0  0  0  0  0
   10.4967  -14.7108   19.5097 C   0  0  0  0  0  0  0  0  0  0  0  0
   11.3368  -15.2265   20.3278 O   0  0  0  0  0  0  0  0  0  0  0  0
    9.3833  -14.0496   20.0880 N   0  0  0  0  0  0  0  0  0  0  0  0
    8.4790  -13.2282   19.3130 C   0  0  0  0  0  0  0  0  0  0  0  0
    7.8671  -12.2802   20.3448 C   0  0  0  0  0  0  0  0  0  0  0  0
    7.7247  -13.2262   21.5192 C   0  0  0  0  0  0  0  0  0  0  0  0
    8.9691  -14.0453   21.4350 C   0  0  1  0  0  0  0  0  0  0  0  0
    8.7903  -15.4024   22.0222 C   0  0  0  0  0  0  0  0  0  0  0  0
    8.4999  -16.3413   21.2528 O   0  0  0  0  0  0  0  0  0  0  0  0
    8.9419  -15.6371   23.4104 N   0  0  0  0  0  0  0  0  0  0  0  0
    9.7132  -16.7501   23.9498 C   0  0  1  0  0  0  0  0  0  0  0  0
   11.0901  -16.8040   23.3898 C   0  0  0  0  0  0  0  0  0  0  0  0
   11.8206  -17.9558   23.9463 C   0  0  0  0  0  0  0  0  0  0  0  0
   12.7614  -17.9116   24.9689 C   0  0  0  0  0  0  0  0  0  0  0  0
   13.2044  -19.1733   25.1945 N   0  0  0  0  0  0  0  0  0  0  0  0
   12.5743  -19.9891   24.3526 C   0  0  0  0  0  0  0  0  0  0  0  0
   11.7367  -19.2489   23.5978 N   0  0  0  0  0  0  0  0  0  0  0  0
    9.7134  -16.7634   25.4134 C   0  0  0  0  0  0  0  0  0  0  0  0
    9.7666  -17.9148   25.9799 O   0  0  0  0  0  0  0  0  0  0  0  0
    9.6651  -15.6948   26.2607 O   0  0  0  0  0  0  0  0  0  0  0  0
  2  3  2  0
  2  1  1  0
  4  2  1  0
  5  4  1  0
  6  5  1  0
  6  8  1  0
  6  7  1  1
  8  9  2  0
  8 10  1  0
 10 14  1  0
 10 11  1  0
 11 12  1  0
 13 12  1  0
 14 13  1  0
 15 16  2  0
 14 15  1  6
 17 15  1  0
 18 17  1  0
 18 25  1  0
 18 19  1  1
 20 24  1  0
 20 19  1  0
 21 20  2  0
 22 21  1  0
 22 23  1  0
 23 24  2  0
 25 27  1  0
 26 25  2  0
M  END
$$$$
