QPH.pdb
     RDKit          3D

 27 28  0  0  1  0  0  0  0  0999 V2000
    9.3135  -21.3899   21.4862 N   0  0  0  0  0  0  0  0  0  0  0  0
    9.4031  -21.4032   20.0786 C   0  0  0  0  0  0  0  0  0  0  0  0
    9.6878  -22.4717   19.5010 O   0  0  0  0  0  0  0  0  0  0  0  0
    9.1562  -20.1585   19.3458 C   0  0  0  0  0  0  0  0  0  0  0  0
    8.7751  -18.9802   20.2040 C   0  0  0  0  0  0  0  0  0  0  0  0
    9.2788  -17.6929   19.6466 C   0  0  2  0  0  0  0  0  0  0  0  0
   10.5330  -17.9978   18.9698 N   0  0  0  0  0  0  0  0  0  0  0  0
    9.4598  -16.6120   20.6398 C   0  0  0  0  0  0  0  0  0  0  0  0
   10.6042  -16.4901   21.2026 O   0  0  0  0  0  0  0  0  0  0  0  0
    8.4656  -15.6800   21.0324 N   0  0  0  0  0  0  0  0  0  0  0  0
    7.1876  -15.5788   20.3618 C   0  0  0  0  0  0  0  0  0  0  0  0
    6.7274  -14.1517   20.6605 C   0  0  0  0  0  0  0  0  0  0  0  0
    7.2073  -14.0144   22.0905 C   0  0  0  0  0  0  0  0  0  0  0  0
    8.5192  -14.7250   22.0673 C   0  0  1  0  0  0  0  0  0  0  0  0
    8.8778  -15.2883   23.3987 C   0  0  0  0  0  0  0  0  0  0  0  0
    8.5032  -16.4487   23.6654 O   0  0  0  0  0  0  0  0  0  0  0  0
    9.6212  -14.5422   24.3452 N   0  0  0  0  0  0  0  0  0  0  0  0
    9.8809  -15.0105   25.7009 C   0  0  1  0  0  0  0  0  0  0  0  0
   10.2980  -13.9071   26.6069 C   0  0  0  0  0  0  0  0  0  0  0  0
   10.5152  -14.4229   27.9696 C   0  0  0  0  0  0  0  0  0  0  0  0
   10.4024  -15.7494   28.3702 C   0  0  0  0  0  0  0  0  0  0  0  0
   10.6791  -15.8186   29.6959 N   0  0  0  0  0  0  0  0  0  0  0  0
   10.9569  -14.5896   30.1247 C   0  0  0  0  0  0  0  0  0  0  0  0
   10.8568  -13.7463   29.0769 N   0  0  0  0  0  0  0  0  0  0  0  0
    8.7577  -15.7749   26.2453 C   0  0  0  0  0  0  0  0  0  0  0  0
    9.0502  -16.8126   26.9431 O   0  0  0  0  0  0  0  0  0  0  0  0
    7.4244  -15.5200   26.1045 O   0  0  0  0  0  0  0  0  0  0  0  0
  2  3  2  0
  2  1  1  0
  4  2  1  0
  5  4  1  0
  6  5  1  0
  6  8  1  0
  6  7  1  1
  8  9  2  0
  8 10  1  0
 10 14  1  0
 10 11  1  0
 11 12  1  0
 13 12  1  0
 14 13  1  0
 15 16  2  0
 14 15  1  1
 17 15  1  0
 18 17  1  0
 18 25  1  0
 18 19  1  1
 20 24  1  0
 20 19  1  0
 21 20  2  0
 22 21  1  0
 22 23  1  0
 23 24  2  0
 25 27  1  0
 26 25  2  0
M  END
$$$$
