QPH.pdb
     RDKit          3D

 27 28  0  0  1  0  0  0  0  0999 V2000
    8.0135  -19.6265   17.3636 N   0  0  0  0  0  0  0  0  0  0  0  0
    7.2874  -18.6873   16.6019 C   0  0  0  0  0  0  0  0  0  0  0  0
    6.1406  -18.9836   16.2102 O   0  0  0  0  0  0  0  0  0  0  0  0
    7.9086  -17.3949   16.2999 C   0  0  0  0  0  0  0  0  0  0  0  0
    9.2947  -17.2092   16.8603 C   0  0  0  0  0  0  0  0  0  0  0  0
    9.7077  -15.7772   16.8748 C   0  0  2  0  0  0  0  0  0  0  0  0
   10.9459  -15.6961   16.1105 N   0  0  0  0  0  0  0  0  0  0  0  0
    9.8752  -15.1903   18.2220 C   0  0  0  0  0  0  0  0  0  0  0  0
   10.9115  -15.5155   18.9014 O   0  0  0  0  0  0  0  0  0  0  0  0
    8.9787  -14.2828   18.8417 N   0  0  0  0  0  0  0  0  0  0  0  0
    7.9537  -13.5774   18.1036 C   0  0  0  0  0  0  0  0  0  0  0  0
    7.6705  -12.3410   18.9573 C   0  0  0  0  0  0  0  0  0  0  0  0
    7.7771  -12.9469   20.3413 C   0  0  0  0  0  0  0  0  0  0  0  0
    8.9158  -13.9004   20.1966 C   0  0  1  0  0  0  0  0  0  0  0  0
    8.8185  -15.0419   21.1485 C   0  0  0  0  0  0  0  0  0  0  0  0
    7.9649  -15.9239   20.9220 O   0  0  0  0  0  0  0  0  0  0  0  0
    9.6621  -15.1383   22.2817 N   0  0  0  0  0  0  0  0  0  0  0  0
    9.5522  -16.2067   23.2671 C   0  0  1  0  0  0  0  0  0  0  0  0
    9.6074  -17.5556   22.6428 C   0  0  0  0  0  0  0  0  0  0  0  0
   10.9327  -17.7837   22.0417 C   0  0  0  0  0  0  0  0  0  0  0  0
   11.8050  -16.8014   21.5869 C   0  0  0  0  0  0  0  0  0  0  0  0
   12.9170  -17.4098   21.1048 N   0  0  0  0  0  0  0  0  0  0  0  0
   12.7626  -18.7242   21.2452 C   0  0  0  0  0  0  0  0  0  0  0  0
   11.5598  -18.9478   21.8129 N   0  0  0  0  0  0  0  0  0  0  0  0
   10.5260  -16.0610   24.3499 C   0  0  0  0  0  0  0  0  0  0  0  0
   10.4598  -16.9175   25.3046 O   0  0  0  0  0  0  0  0  0  0  0  0
   11.5070  -15.1204   24.4733 O   0  0  0  0  0  0  0  0  0  0  0  0
  2  3  2  0
  2  1  1  0
  4  2  1  0
  5  4  1  0
  6  5  1  0
  6  8  1  0
  6  7  1  1
  8  9  2  0
  8 10  1  0
 10 14  1  0
 10 11  1  0
 11 12  1  0
 13 12  1  0
 14 13  1  0
 15 16  2  0
 14 15  1  1
 17 15  1  0
 18 17  1  0
 18 25  1  0
 18 19  1  6
 20 24  1  0
 20 19  1  0
 21 20  2  0
 22 21  1  0
 22 23  1  0
 23 24  2  0
 25 27  1  0
 26 25  2  0
M  END
$$$$
