QPH.pdb
     RDKit          3D

 27 28  0  0  1  0  0  0  0  0999 V2000
    8.2191  -19.6931   15.7674 N   0  0  0  0  0  0  0  0  0  0  0  0
    7.4534  -18.8154   14.9717 C   0  0  0  0  0  0  0  0  0  0  0  0
    6.9309  -19.2486   13.9249 O   0  0  0  0  0  0  0  0  0  0  0  0
    7.2990  -17.4246   15.4065 C   0  0  0  0  0  0  0  0  0  0  0  0
    7.9176  -17.1036   16.7423 C   0  0  0  0  0  0  0  0  0  0  0  0
    8.7000  -15.8355   16.7091 C   0  0  2  0  0  0  0  0  0  0  0  0
    9.7339  -16.0139   15.6975 N   0  0  0  0  0  0  0  0  0  0  0  0
    9.2880  -15.4316   18.0047 C   0  0  0  0  0  0  0  0  0  0  0  0
   10.3900  -15.9752   18.3671 O   0  0  0  0  0  0  0  0  0  0  0  0
    8.7349  -14.4794   18.8984 N   0  0  0  0  0  0  0  0  0  0  0  0
    7.6882  -13.5614   18.5052 C   0  0  0  0  0  0  0  0  0  0  0  0
    7.8327  -12.3969   19.4855 C   0  0  0  0  0  0  0  0  0  0  0  0
    8.1798  -13.1577   20.7483 C   0  0  0  0  0  0  0  0  0  0  0  0
    9.0747  -14.2405   20.2451 C   0  0  1  0  0  0  0  0  0  0  0  0
    9.0319  -15.4530   21.1090 C   0  0  0  0  0  0  0  0  0  0  0  0
    8.5993  -16.5131   20.6119 O   0  0  0  0  0  0  0  0  0  0  0  0
    9.4656  -15.4208   22.4566 N   0  0  0  0  0  0  0  0  0  0  0  0
   10.3469  -16.4283   23.0334 C   0  0  1  0  0  0  0  0  0  0  0  0
   11.6137  -16.5726   22.2674 C   0  0  0  0  0  0  0  0  0  0  0  0
   11.6413  -17.8699   21.5701 C   0  0  0  0  0  0  0  0  0  0  0  0
   10.6280  -18.8217   21.5721 C   0  0  0  0  0  0  0  0  0  0  0  0
   11.0307  -19.8737   20.8170 N   0  0  0  0  0  0  0  0  0  0  0  0
   12.2488  -19.6063   20.3521 C   0  0  0  0  0  0  0  0  0  0  0  0
   12.6160  -18.3919   20.8099 N   0  0  0  0  0  0  0  0  0  0  0  0
   10.5885  -16.1994   24.4587 C   0  0  0  0  0  0  0  0  0  0  0  0
   11.1706  -15.0995   24.7759 O   0  0  0  0  0  0  0  0  0  0  0  0
   10.2683  -17.0159   25.5042 O   0  0  0  0  0  0  0  0  0  0  0  0
  2  3  2  0
  2  1  1  0
  4  2  1  0
  5  4  1  0
  6  5  1  0
  6  8  1  0
  6  7  1  6
  8  9  2  0
  8 10  1  0
 10 14  1  0
 10 11  1  0
 11 12  1  0
 13 12  1  0
 14 13  1  0
 15 16  2  0
 14 15  1  1
 17 15  1  0
 18 17  1  0
 18 25  1  0
 18 19  1  6
 20 24  1  0
 20 19  1  0
 21 20  2  0
 22 21  1  0
 22 23  1  0
 23 24  2  0
 25 27  1  0
 26 25  2  0
M  END
$$$$
