QPH.pdb
     RDKit          3D

 27 28  0  0  1  0  0  0  0  0999 V2000
    6.1149  -18.9118   16.5219 N   0  0  0  0  0  0  0  0  0  0  0  0
    6.5382  -18.3934   15.2803 C   0  0  0  0  0  0  0  0  0  0  0  0
    5.9071  -18.7022   14.2494 O   0  0  0  0  0  0  0  0  0  0  0  0
    7.7056  -17.5082   15.2483 C   0  0  0  0  0  0  0  0  0  0  0  0
    8.2975  -17.1873   16.5961 C   0  0  0  0  0  0  0  0  0  0  0  0
    8.9493  -15.8471   16.6189 C   0  0  2  0  0  0  0  0  0  0  0  0
   10.0669  -15.9148   15.6860 N   0  0  0  0  0  0  0  0  0  0  0  0
    9.3976  -15.3946   17.9537 C   0  0  0  0  0  0  0  0  0  0  0  0
   10.5193  -15.8272   18.3962 O   0  0  0  0  0  0  0  0  0  0  0  0
    8.6880  -14.5085   18.8036 N   0  0  0  0  0  0  0  0  0  0  0  0
    7.6354  -13.6427   18.3183 C   0  0  0  0  0  0  0  0  0  0  0  0
    7.5942  -12.5055   19.3395 C   0  0  0  0  0  0  0  0  0  0  0  0
    7.8454  -13.2862   20.6129 C   0  0  0  0  0  0  0  0  0  0  0  0
    8.8586  -14.2952   20.1861 C   0  0  1  0  0  0  0  0  0  0  0  0
    8.7968  -15.5366   21.0068 C   0  0  0  0  0  0  0  0  0  0  0  0
    8.4270  -16.5907   20.4498 O   0  0  0  0  0  0  0  0  0  0  0  0
    9.1440  -15.5378   22.3796 N   0  0  0  0  0  0  0  0  0  0  0  0
   10.2486  -16.3200   22.9205 C   0  0  1  0  0  0  0  0  0  0  0  0
   11.5100  -16.1127   22.1602 C   0  0  0  0  0  0  0  0  0  0  0  0
   11.8226  -17.3081   21.3581 C   0  0  0  0  0  0  0  0  0  0  0  0
   11.0632  -18.4707   21.2921 C   0  0  0  0  0  0  0  0  0  0  0  0
   11.6805  -19.3349   20.4488 N   0  0  0  0  0  0  0  0  0  0  0  0
   12.7867  -18.7502   19.9950 C   0  0  0  0  0  0  0  0  0  0  0  0
   12.8701  -17.5227   20.5475 N   0  0  0  0  0  0  0  0  0  0  0  0
   10.4290  -16.1008   24.3563 C   0  0  0  0  0  0  0  0  0  0  0  0
   10.2066  -17.1048   25.1257 O   0  0  0  0  0  0  0  0  0  0  0  0
   10.8092  -14.9519   24.9870 O   0  0  0  0  0  0  0  0  0  0  0  0
  2  3  2  0
  2  1  1  0
  4  2  1  0
  5  4  1  0
  6  5  1  0
  6  8  1  0
  6  7  1  6
  8  9  2  0
  8 10  1  0
 10 14  1  0
 10 11  1  0
 11 12  1  0
 13 12  1  0
 14 13  1  0
 15 16  2  0
 14 15  1  1
 17 15  1  0
 18 17  1  0
 18 25  1  0
 18 19  1  6
 20 24  1  0
 20 19  1  0
 21 20  2  0
 22 21  1  0
 22 23  1  0
 23 24  2  0
 25 27  1  0
 26 25  2  0
M  END
$$$$
