QPH.pdb
     RDKit          3D

 27 28  0  0  1  0  0  0  0  0999 V2000
    5.9107  -19.2186   17.5644 N   0  0  0  0  0  0  0  0  0  0  0  0
    6.9390  -19.3362   16.6061 C   0  0  0  0  0  0  0  0  0  0  0  0
    7.0745  -20.4147   15.9939 O   0  0  0  0  0  0  0  0  0  0  0  0
    7.8107  -18.1834   16.3640 C   0  0  0  0  0  0  0  0  0  0  0  0
    7.4638  -16.9472   17.1523 C   0  0  0  0  0  0  0  0  0  0  0  0
    8.4527  -15.8518   16.9436 C   0  0  2  0  0  0  0  0  0  0  0  0
    9.4196  -16.3470   15.9720 N   0  0  0  0  0  0  0  0  0  0  0  0
    9.1277  -15.3789   18.1717 C   0  0  0  0  0  0  0  0  0  0  0  0
   10.2895  -15.8453   18.4438 O   0  0  0  0  0  0  0  0  0  0  0  0
    8.5983  -14.4385   19.0919 N   0  0  0  0  0  0  0  0  0  0  0  0
    7.4586  -13.6037   18.7802 C   0  0  0  0  0  0  0  0  0  0  0  0
    7.6157  -12.4031   19.7137 C   0  0  0  0  0  0  0  0  0  0  0  0
    8.1326  -13.1007   20.9548 C   0  0  0  0  0  0  0  0  0  0  0  0
    9.0475  -14.1370   20.3931 C   0  0  1  0  0  0  0  0  0  0  0  0
    9.1702  -15.3230   21.2858 C   0  0  0  0  0  0  0  0  0  0  0  0
    8.2381  -16.1530   21.2906 O   0  0  0  0  0  0  0  0  0  0  0  0
   10.3044  -15.5176   22.1110 N   0  0  0  0  0  0  0  0  0  0  0  0
   10.4388  -16.6438   23.0264 C   0  0  1  0  0  0  0  0  0  0  0  0
   11.7127  -17.3844   22.8241 C   0  0  0  0  0  0  0  0  0  0  0  0
   11.7962  -17.8840   21.4408 C   0  0  0  0  0  0  0  0  0  0  0  0
   10.8415  -18.6583   20.7914 C   0  0  0  0  0  0  0  0  0  0  0  0
   11.2831  -18.9130   19.5348 N   0  0  0  0  0  0  0  0  0  0  0  0
   12.4689  -18.3270   19.3869 C   0  0  0  0  0  0  0  0  0  0  0  0
   12.7771  -17.7045   20.5430 N   0  0  0  0  0  0  0  0  0  0  0  0
   10.2489  -16.2462   24.4222 C   0  0  0  0  0  0  0  0  0  0  0  0
   10.3464  -17.1740   25.3048 O   0  0  0  0  0  0  0  0  0  0  0  0
    9.9799  -15.0000   24.9089 O   0  0  0  0  0  0  0  0  0  0  0  0
  2  3  2  0
  2  1  1  0
  4  2  1  0
  5  4  1  0
  6  5  1  0
  6  8  1  0
  6  7  1  6
  8  9  2  0
  8 10  1  0
 10 14  1  0
 10 11  1  0
 11 12  1  0
 13 12  1  0
 14 13  1  0
 15 16  2  0
 14 15  1  1
 17 15  1  0
 18 17  1  0
 18 25  1  0
 18 19  1  1
 20 24  1  0
 20 19  1  0
 21 20  2  0
 22 21  1  0
 22 23  1  0
 23 24  2  0
 25 27  1  0
 26 25  2  0
M  END
$$$$
