QPH.pdb
     RDKit          3D

 27 28  0  0  1  0  0  0  0  0999 V2000
   12.5378  -19.3697   18.7703 N   0  0  0  0  0  0  0  0  0  0  0  0
   13.2747  -18.5867   17.8573 C   0  0  0  0  0  0  0  0  0  0  0  0
   14.0818  -19.1506   17.0911 O   0  0  0  0  0  0  0  0  0  0  0  0
   13.0628  -17.1368   17.8422 C   0  0  0  0  0  0  0  0  0  0  0  0
   12.0289  -16.6351   18.8167 C   0  0  0  0  0  0  0  0  0  0  0  0
   11.8422  -15.1591   18.7273 C   0  0  2  0  0  0  0  0  0  0  0  0
   13.1702  -14.5837   18.5562 N   0  0  0  0  0  0  0  0  0  0  0  0
   11.1425  -14.5485   19.8784 C   0  0  0  0  0  0  0  0  0  0  0  0
   11.8448  -14.1427   20.8700 O   0  0  0  0  0  0  0  0  0  0  0  0
    9.7403  -14.3660   19.9869 N   0  0  0  0  0  0  0  0  0  0  0  0
    8.8451  -14.5404   18.8638 C   0  0  0  0  0  0  0  0  0  0  0  0
    7.6250  -13.6954   19.2312 C   0  0  0  0  0  0  0  0  0  0  0  0
    7.5529  -13.9702   20.7189 C   0  0  0  0  0  0  0  0  0  0  0  0
    8.9901  -13.9922   21.1198 C   0  0  1  0  0  0  0  0  0  0  0  0
    9.2274  -14.8459   22.3170 C   0  0  0  0  0  0  0  0  0  0  0  0
   10.4063  -15.0248   22.6860 O   0  0  0  0  0  0  0  0  0  0  0  0
    8.1580  -15.4443   23.0266 N   0  0  0  0  0  0  0  0  0  0  0  0
    7.6802  -14.9495   24.3117 C   0  0  1  0  0  0  0  0  0  0  0  0
    7.3382  -13.5027   24.2657 C   0  0  0  0  0  0  0  0  0  0  0  0
    6.9331  -13.0333   25.6019 C   0  0  0  0  0  0  0  0  0  0  0  0
    7.0752  -13.7350   26.7936 C   0  0  0  0  0  0  0  0  0  0  0  0
    6.5853  -12.9689   27.7996 N   0  0  0  0  0  0  0  0  0  0  0  0
    6.1489  -11.8266   27.2741 C   0  0  0  0  0  0  0  0  0  0  0  0
    6.3608  -11.8685   25.9428 N   0  0  0  0  0  0  0  0  0  0  0  0
    6.5808  -15.7584   24.8403 C   0  0  0  0  0  0  0  0  0  0  0  0
    6.2777  -15.5831   26.0759 O   0  0  0  0  0  0  0  0  0  0  0  0
    5.8283  -16.6842   24.1778 O   0  0  0  0  0  0  0  0  0  0  0  0
  2  3  2  0
  2  1  1  0
  4  2  1  0
  5  4  1  0
  6  5  1  0
  6  8  1  0
  6  7  1  1
  8  9  2  0
  8 10  1  0
 10 14  1  0
 10 11  1  0
 11 12  1  0
 13 12  1  0
 14 13  1  0
 15 16  2  0
 14 15  1  1
 17 15  1  0
 18 17  1  0
 18 25  1  0
 18 19  1  6
 20 24  1  0
 20 19  1  0
 21 20  2  0
 22 21  1  0
 22 23  1  0
 23 24  2  0
 25 27  1  0
 26 25  2  0
M  END
$$$$
