QPH.pdb
     RDKit          3D

 27 28  0  0  1  0  0  0  0  0999 V2000
    5.3260  -24.0710   21.7542 N   0  0  0  0  0  0  0  0  0  0  0  0
    5.0871  -23.2723   20.6164 C   0  0  0  0  0  0  0  0  0  0  0  0
    4.3773  -23.7271   19.6967 O   0  0  0  0  0  0  0  0  0  0  0  0
    5.6821  -21.9344   20.5580 C   0  0  0  0  0  0  0  0  0  0  0  0
    6.4317  -21.5172   21.7965 C   0  0  0  0  0  0  0  0  0  0  0  0
    7.0079  -20.1484   21.6703 C   0  0  2  0  0  0  0  0  0  0  0  0
    7.8069  -20.1468   20.4514 N   0  0  0  0  0  0  0  0  0  0  0  0
    7.8074  -19.6991   22.8306 C   0  0  0  0  0  0  0  0  0  0  0  0
    9.0200  -20.1013   22.9245 O   0  0  0  0  0  0  0  0  0  0  0  0
    7.3472  -18.8473   23.8669 N   0  0  0  0  0  0  0  0  0  0  0  0
    6.0715  -18.1678   23.8050 C   0  0  0  0  0  0  0  0  0  0  0  0
    6.2487  -16.9671   24.7348 C   0  0  0  0  0  0  0  0  0  0  0  0
    7.0781  -17.6033   25.8309 C   0  0  0  0  0  0  0  0  0  0  0  0
    7.9942  -18.5029   25.0706 C   0  0  1  0  0  0  0  0  0  0  0  0
    8.4360  -19.6716   25.8813 C   0  0  0  0  0  0  0  0  0  0  0  0
    8.0116  -20.8013   25.5625 O   0  0  0  0  0  0  0  0  0  0  0  0
    9.3115  -19.5224   26.9842 N   0  0  0  0  0  0  0  0  0  0  0  0
    9.8742  -20.6528   27.7123 C   0  0  1  0  0  0  0  0  0  0  0  0
   10.6626  -21.5540   26.8299 C   0  0  0  0  0  0  0  0  0  0  0  0
   11.1137  -22.7365   27.5837 C   0  0  0  0  0  0  0  0  0  0  0  0
   12.3833  -22.9330   28.1149 C   0  0  0  0  0  0  0  0  0  0  0  0
   12.4034  -24.1390   28.7347 N   0  0  0  0  0  0  0  0  0  0  0  0
   11.1988  -24.6900   28.6055 C   0  0  0  0  0  0  0  0  0  0  0  0
   10.4197  -23.8383   27.9079 N   0  0  0  0  0  0  0  0  0  0  0  0
   10.6365  -20.2281   28.8874 C   0  0  0  0  0  0  0  0  0  0  0  0
   10.4938  -20.9309   29.9527 O   0  0  0  0  0  0  0  0  0  0  0  0
   11.4902  -19.1687   28.9940 O   0  0  0  0  0  0  0  0  0  0  0  0
  2  3  2  0
  2  1  1  0
  4  2  1  0
  5  4  1  0
  6  5  1  0
  6  8  1  0
  6  7  1  6
  8  9  2  0
  8 10  1  0
 10 14  1  0
 10 11  1  0
 11 12  1  0
 13 12  1  0
 14 13  1  0
 15 16  2  0
 14 15  1  1
 17 15  1  0
 18 17  1  0
 18 25  1  0
 18 19  1  6
 20 24  1  0
 20 19  1  0
 21 20  2  0
 22 21  1  0
 22 23  1  0
 23 24  2  0
 25 27  1  0
 26 25  2  0
M  END
$$$$
