QPH.pdb
     RDKit          3D

 27 28  0  0  1  0  0  0  0  0999 V2000
    4.8532  -12.1975   26.6977 N   0  0  0  0  0  0  0  0  0  0  0  0
    6.1313  -12.7388   26.4466 C   0  0  0  0  0  0  0  0  0  0  0  0
    7.1150  -12.2752   27.0580 O   0  0  0  0  0  0  0  0  0  0  0  0
    6.2555  -13.8294   25.4757 C   0  0  0  0  0  0  0  0  0  0  0  0
    6.0199  -15.2085   26.0348 C   0  0  0  0  0  0  0  0  0  0  0  0
    6.2123  -16.2715   25.0080 C   0  0  2  0  0  0  0  0  0  0  0  0
    5.8963  -17.5369   25.6585 N   0  0  0  0  0  0  0  0  0  0  0  0
    7.5579  -16.3101   24.3953 C   0  0  0  0  0  0  0  0  0  0  0  0
    8.4612  -17.0228   24.9586 O   0  0  0  0  0  0  0  0  0  0  0  0
    7.9468  -15.6196   23.2192 N   0  0  0  0  0  0  0  0  0  0  0  0
    7.0254  -14.8078   22.4544 C   0  0  0  0  0  0  0  0  0  0  0  0
    7.6356  -14.7801   21.0527 C   0  0  0  0  0  0  0  0  0  0  0  0
    9.1057  -14.6968   21.4074 C   0  0  0  0  0  0  0  0  0  0  0  0
    9.2096  -15.5954   22.5941 C   0  0  1  0  0  0  0  0  0  0  0  0
   10.3294  -15.2085   23.4968 C   0  0  0  0  0  0  0  0  0  0  0  0
   10.1146  -14.3272   24.3542 O   0  0  0  0  0  0  0  0  0  0  0  0
   11.6061  -15.8131   23.3980 N   0  0  0  0  0  0  0  0  0  0  0  0
   12.4729  -16.0346   24.5487 C   0  0  1  0  0  0  0  0  0  0  0  0
   11.8055  -16.8348   25.6100 C   0  0  0  0  0  0  0  0  0  0  0  0
   11.2050  -15.9430   26.6172 C   0  0  0  0  0  0  0  0  0  0  0  0
   11.0034  -14.5742   26.4819 C   0  0  0  0  0  0  0  0  0  0  0  0
   10.4280  -14.1142   27.6205 N   0  0  0  0  0  0  0  0  0  0  0  0
   10.2685  -15.1442   28.4481 C   0  0  0  0  0  0  0  0  0  0  0  0
   10.7401  -16.2506   27.8377 N   0  0  0  0  0  0  0  0  0  0  0  0
   13.7667  -16.6007   24.1641 C   0  0  0  0  0  0  0  0  0  0  0  0
   13.7515  -17.5136   23.2609 O   0  0  0  0  0  0  0  0  0  0  0  0
   15.0004  -16.2760   24.6487 O   0  0  0  0  0  0  0  0  0  0  0  0
  2  3  2  0
  2  1  1  0
  4  2  1  0
  5  4  1  0
  6  5  1  0
  6  8  1  0
  6  7  1  1
  8  9  2  0
  8 10  1  0
 10 14  1  0
 10 11  1  0
 11 12  1  0
 13 12  1  0
 14 13  1  0
 15 16  2  0
 14 15  1  1
 17 15  1  0
 18 17  1  0
 18 25  1  0
 18 19  1  1
 20 24  1  0
 20 19  1  0
 21 20  2  0
 22 21  1  0
 22 23  1  0
 23 24  2  0
 25 27  1  0
 26 25  2  0
M  END
$$$$
