GYA.pdb
     RDKit          3D

 22 22  0  0  1  0  0  0  0  0999 V2000
   38.2633   -6.5820  -12.0199 N   0  0  0  0  0  0  0  0  0  0  0  0
   38.1646   -5.2601  -11.4859 C   0  0  0  0  0  0  0  0  0  0  0  0
   38.8216   -5.1529  -10.1386 C   0  0  0  0  0  0  0  0  0  0  0  0
   38.1067   -5.0179   -9.1242 O   0  0  0  0  0  0  0  0  0  0  0  0
   39.4416  -10.8128   -5.9119 O   0  0  0  0  0  0  0  0  0  0  0  0
   40.0291   -9.7398   -6.5820 C   0  0  0  0  0  0  0  0  0  0  0  0
   40.5953   -8.6926   -5.8663 C   0  0  0  0  0  0  0  0  0  0  0  0
   41.1596   -7.6628   -6.5891 C   0  0  0  0  0  0  0  0  0  0  0  0
   41.1830   -7.6328   -7.9678 C   0  0  0  0  0  0  0  0  0  0  0  0
   41.8145   -6.4790   -8.6348 C   0  0  0  0  0  0  0  0  0  0  0  0
   40.8893   -5.2747   -8.6935 C   0  0  2  0  0  0  0  0  0  0  0  0
   40.2207   -5.1993   -9.9766 N   0  0  0  0  0  0  0  0  0  0  0  0
   41.8050   -4.0795   -8.5706 C   0  0  0  0  0  0  0  0  0  0  0  0
   42.4345   -3.7110   -9.5939 O   0  0  0  0  0  0  0  0  0  0  0  0
   40.6143   -8.6845   -8.6721 C   0  0  0  0  0  0  0  0  0  0  0  0
   40.0521   -9.7106   -7.9531 C   0  0  0  0  0  0  0  0  0  0  0  0
   42.6304   -1.6182   -5.7987 C   0  0  0  0  0  0  0  0  0  0  0  0
   42.7844   -2.2937   -7.1368 C   0  0  2  0  0  0  0  0  0  0  0  0
   41.9313   -3.4187   -7.3420 N   0  0  0  0  0  0  0  0  0  0  0  0
   44.1980   -2.5908   -7.4790 C   0  0  0  0  0  0  0  0  0  0  0  0
   45.0021   -1.8800   -8.0708 O   0  0  0  0  0  0  0  0  0  0  0  0
   44.6678   -3.8544   -7.0668 O   0  0  0  0  0  0  0  0  0  0  0  0
  1  2  1  0
  2  3  1  0
  3 12  1  0
  3  4  2  0
  6  5  1  0
  7  6  2  0
  8  7  1  0
  9  8  2  0
  9 15  1  0
 10  9  1  0
 11 10  1  6
 11 13  1  0
 12 11  1  0
 13 19  1  0
 14 13  2  0
 15 16  2  0
 16  6  1  0
 18 20  1  0
 18 17  1  1
 19 18  1  0
 20 22  1  0
 21 20  2  0
M  END
$$$$
