GYA.pdb
     RDKit          3D

 22 22  0  0  1  0  0  0  0  0999 V2000
   24.5788  -18.1015  -15.3720 N   0  0  0  0  0  0  0  0  0  0  0  0
   23.8614  -19.0355  -14.5626 C   0  0  0  0  0  0  0  0  0  0  0  0
   22.4517  -18.5826  -14.3057 C   0  0  0  0  0  0  0  0  0  0  0  0
   22.2222  -17.8375  -13.3308 O   0  0  0  0  0  0  0  0  0  0  0  0
   20.8744  -12.2122  -15.9247 O   0  0  0  0  0  0  0  0  0  0  0  0
   20.5628  -13.5696  -16.0034 C   0  0  0  0  0  0  0  0  0  0  0  0
   21.4110  -14.4452  -16.6693 C   0  0  0  0  0  0  0  0  0  0  0  0
   21.0450  -15.7739  -16.7106 C   0  0  0  0  0  0  0  0  0  0  0  0
   19.8923  -16.2577  -16.1279 C   0  0  0  0  0  0  0  0  0  0  0  0
   19.6025  -17.6997  -16.2355 C   0  0  0  0  0  0  0  0  0  0  0  0
   20.0238  -18.4630  -14.9907 C   0  0  2  0  0  0  0  0  0  0  0  0
   21.3743  -18.9691  -15.1276 N   0  0  0  0  0  0  0  0  0  0  0  0
   19.0842  -19.6442  -14.9271 C   0  0  0  0  0  0  0  0  0  0  0  0
   19.3903  -20.6769  -15.5743 O   0  0  0  0  0  0  0  0  0  0  0  0
   19.0527  -15.3736  -15.4653 C   0  0  0  0  0  0  0  0  0  0  0  0
   19.4164  -14.0500  -15.4237 C   0  0  0  0  0  0  0  0  0  0  0  0
   16.2209  -20.6244  -12.7035 C   0  0  0  0  0  0  0  0  0  0  0  0
   17.0145  -20.6595  -13.9840 C   0  0  2  0  0  0  0  0  0  0  0  0
   17.9132  -19.5660  -14.1624 N   0  0  0  0  0  0  0  0  0  0  0  0
   16.1726  -20.8964  -15.1834 C   0  0  0  0  0  0  0  0  0  0  0  0
   15.9689  -20.1444  -16.1295 O   0  0  0  0  0  0  0  0  0  0  0  0
   15.5284  -22.1494  -15.2329 O   0  0  0  0  0  0  0  0  0  0  0  0
  1  2  1  0
  2  3  1  0
  3 12  1  0
  3  4  2  0
  6  5  1  0
  7  6  2  0
  8  7  1  0
  9  8  2  0
  9 15  1  0
 10  9  1  0
 11 10  1  6
 11 13  1  0
 12 11  1  0
 13 19  1  0
 14 13  2  0
 15 16  2  0
 16  6  1  0
 18 20  1  0
 18 17  1  1
 19 18  1  0
 20 22  1  0
 21 20  2  0
M  END
$$$$
