GYA.pdb
     RDKit          3D

 22 22  0  0  1  0  0  0  0  0999 V2000
   26.8559  -25.1670  -16.5142 N   0  0  0  0  0  0  0  0  0  0  0  0
   26.5727  -23.7666  -16.4804 C   0  0  0  0  0  0  0  0  0  0  0  0
   25.5485  -23.4304  -15.4333 C   0  0  0  0  0  0  0  0  0  0  0  0
   24.9120  -24.3557  -14.8884 O   0  0  0  0  0  0  0  0  0  0  0  0
   22.5707  -20.4071   -8.0677 O   0  0  0  0  0  0  0  0  0  0  0  0
   23.1039  -20.4318   -9.3564 C   0  0  0  0  0  0  0  0  0  0  0  0
   24.3060  -21.0820   -9.6044 C   0  0  0  0  0  0  0  0  0  0  0  0
   24.7781  -21.0693  -10.8998 C   0  0  0  0  0  0  0  0  0  0  0  0
   24.1161  -20.4484  -11.9383 C   0  0  0  0  0  0  0  0  0  0  0  0
   24.7161  -20.4994  -13.2845 C   0  0  0  0  0  0  0  0  0  0  0  0
   24.2809  -21.7326  -14.0590 C   0  0  2  0  0  0  0  0  0  0  0  0
   25.2785  -22.1040  -15.0417 N   0  0  0  0  0  0  0  0  0  0  0  0
   23.0335  -21.3041  -14.7955 C   0  0  0  0  0  0  0  0  0  0  0  0
   23.1636  -20.5236  -15.7717 O   0  0  0  0  0  0  0  0  0  0  0  0
   22.9159  -19.8019  -11.6785 C   0  0  0  0  0  0  0  0  0  0  0  0
   22.4450  -19.8141  -10.3886 C   0  0  0  0  0  0  0  0  0  0  0  0
   19.7104  -22.5803  -15.4695 C   0  0  0  0  0  0  0  0  0  0  0  0
   20.5553  -21.4168  -15.0188 C   0  0  2  0  0  0  0  0  0  0  0  0
   21.7809  -21.7766  -14.3834 N   0  0  0  0  0  0  0  0  0  0  0  0
   19.7916  -20.4116  -14.2379 C   0  0  0  0  0  0  0  0  0  0  0  0
   19.7488  -20.2667  -13.0217 O   0  0  0  0  0  0  0  0  0  0  0  0
   19.0190  -19.5123  -15.0006 O   0  0  0  0  0  0  0  0  0  0  0  0
  1  2  1  0
  2  3  1  0
  3 12  1  0
  3  4  2  0
  6  5  1  0
  7  6  2  0
  8  7  1  0
  9  8  2  0
  9 15  1  0
 10  9  1  0
 11 10  1  6
 11 13  1  0
 12 11  1  0
 13 19  1  0
 14 13  2  0
 15 16  2  0
 16  6  1  0
 18 20  1  0
 18 17  1  1
 19 18  1  0
 20 22  1  0
 21 20  2  0
M  END
$$$$
