GYA.pdb
     RDKit          3D

 22 22  0  0  1  0  0  0  0  0999 V2000
   28.6380  -21.6839  -14.8915 N   0  0  0  0  0  0  0  0  0  0  0  0
   27.9182  -20.6673  -14.1910 C   0  0  0  0  0  0  0  0  0  0  0  0
   26.7759  -21.2385  -13.3990 C   0  0  0  0  0  0  0  0  0  0  0  0
   26.4213  -22.4167  -13.6096 O   0  0  0  0  0  0  0  0  0  0  0  0
   28.7760  -20.6537   -6.6576 O   0  0  0  0  0  0  0  0  0  0  0  0
   27.7590  -20.5202   -7.6028 C   0  0  0  0  0  0  0  0  0  0  0  0
   27.4452  -21.5772   -8.4477 C   0  0  0  0  0  0  0  0  0  0  0  0
   26.4297  -21.3801   -9.3593 C   0  0  0  0  0  0  0  0  0  0  0  0
   25.7274  -20.1976   -9.4629 C   0  0  0  0  0  0  0  0  0  0  0  0
   24.6604  -20.1005  -10.4763 C   0  0  0  0  0  0  0  0  0  0  0  0
   24.9384  -20.9771  -11.6862 C   0  0  2  0  0  0  0  0  0  0  0  0
   26.0870  -20.4908  -12.4233 N   0  0  0  0  0  0  0  0  0  0  0  0
   23.7180  -20.8214  -12.5629 C   0  0  0  0  0  0  0  0  0  0  0  0
   23.6040  -19.7644  -13.2330 O   0  0  0  0  0  0  0  0  0  0  0  0
   26.0498  -19.1485   -8.6136 C   0  0  0  0  0  0  0  0  0  0  0  0
   27.0611  -19.3439   -7.7053 C   0  0  0  0  0  0  0  0  0  0  0  0
   21.3531  -23.0771  -14.2258 C   0  0  0  0  0  0  0  0  0  0  0  0
   21.6138  -21.8036  -13.4637 C   0  0  2  0  0  0  0  0  0  0  0  0
   22.7566  -21.8389  -12.6104 N   0  0  0  0  0  0  0  0  0  0  0  0
   20.4092  -21.2851  -12.7683 C   0  0  0  0  0  0  0  0  0  0  0  0
   20.2612  -21.0555  -11.5736 O   0  0  0  0  0  0  0  0  0  0  0  0
   19.2973  -21.0263  -13.5954 O   0  0  0  0  0  0  0  0  0  0  0  0
  1  2  1  0
  2  3  1  0
  3 12  1  0
  3  4  2  0
  6  5  1  0
  7  6  2  0
  8  7  1  0
  9  8  2  0
  9 15  1  0
 10  9  1  0
 11 10  1  1
 11 13  1  0
 12 11  1  0
 13 19  1  0
 14 13  2  0
 15 16  2  0
 16  6  1  0
 18 20  1  0
 18 17  1  1
 19 18  1  0
 20 22  1  0
 21 20  2  0
M  END
$$$$
