GYA.pdb
     RDKit          3D

 22 22  0  0  1  0  0  0  0  0999 V2000
   28.3691  -18.5606  -15.3660 N   0  0  0  0  0  0  0  0  0  0  0  0
   27.7831  -18.5180  -14.0633 C   0  0  0  0  0  0  0  0  0  0  0  0
   27.2224  -19.8528  -13.6605 C   0  0  0  0  0  0  0  0  0  0  0  0
   27.7230  -20.8907  -14.1408 O   0  0  0  0  0  0  0  0  0  0  0  0
   28.6746  -20.0061   -6.7283 O   0  0  0  0  0  0  0  0  0  0  0  0
   27.7654  -20.2642   -7.7541 C   0  0  0  0  0  0  0  0  0  0  0  0
   26.4894  -19.7167   -7.7131 C   0  0  0  0  0  0  0  0  0  0  0  0
   25.6394  -20.0108   -8.7582 C   0  0  0  0  0  0  0  0  0  0  0  0
   25.9999  -20.8117   -9.8217 C   0  0  0  0  0  0  0  0  0  0  0  0
   25.0070  -21.0579  -10.8840 C   0  0  0  0  0  0  0  0  0  0  0  0
   25.6580  -21.2410  -12.2450 C   0  0  2  0  0  0  0  0  0  0  0  0
   26.1481  -19.9776  -12.7572 N   0  0  0  0  0  0  0  0  0  0  0  0
   24.5404  -21.7109  -13.1462 C   0  0  0  0  0  0  0  0  0  0  0  0
   23.7544  -20.8473  -13.6105 O   0  0  0  0  0  0  0  0  0  0  0  0
   27.2772  -21.3531   -9.8519 C   0  0  0  0  0  0  0  0  0  0  0  0
   28.1244  -21.0607   -8.8114 C   0  0  0  0  0  0  0  0  0  0  0  0
   23.7210  -25.0078  -14.8201 C   0  0  0  0  0  0  0  0  0  0  0  0
   23.4707  -23.5858  -14.3890 C   0  0  2  0  0  0  0  0  0  0  0  0
   24.4054  -23.0737  -13.4405 N   0  0  0  0  0  0  0  0  0  0  0  0
   22.0647  -23.3409  -13.9808 C   0  0  0  0  0  0  0  0  0  0  0  0
   21.0719  -23.2473  -14.6932 O   0  0  0  0  0  0  0  0  0  0  0  0
   21.8530  -23.1988  -12.5943 O   0  0  0  0  0  0  0  0  0  0  0  0
  1  2  1  0
  2  3  1  0
  3 12  1  0
  3  4  2  0
  6  5  1  0
  7  6  2  0
  8  7  1  0
  9  8  2  0
  9 15  1  0
 10  9  1  0
 11 10  1  1
 11 13  1  0
 12 11  1  0
 13 19  1  0
 14 13  2  0
 15 16  2  0
 16  6  1  0
 18 20  1  0
 18 17  1  1
 19 18  1  0
 20 22  1  0
 21 20  2  0
M  END
$$$$
