GYA.pdb
     RDKit          3D

 22 22  0  0  1  0  0  0  0  0999 V2000
   22.7233  -11.0749  -18.9950 N   0  0  0  0  0  0  0  0  0  0  0  0
   21.7115  -10.2453  -19.5699 C   0  0  0  0  0  0  0  0  0  0  0  0
   20.9517   -9.4845  -18.5201 C   0  0  0  0  0  0  0  0  0  0  0  0
   19.8574   -8.9646  -18.8208 O   0  0  0  0  0  0  0  0  0  0  0  0
   16.5537  -13.6054  -16.1025 O   0  0  0  0  0  0  0  0  0  0  0  0
   17.5248  -12.6439  -15.8233 C   0  0  0  0  0  0  0  0  0  0  0  0
   17.1748  -11.4590  -15.1883 C   0  0  0  0  0  0  0  0  0  0  0  0
   18.1822  -10.5505  -14.9415 C   0  0  0  0  0  0  0  0  0  0  0  0
   19.4979  -10.7683  -15.2935 C   0  0  0  0  0  0  0  0  0  0  0  0
   20.4913   -9.7246  -14.9791 C   0  0  0  0  0  0  0  0  0  0  0  0
   20.6693   -8.7403  -16.1233 C   0  0  2  0  0  0  0  0  0  0  0  0
   21.4301   -9.3355  -17.2030 N   0  0  0  0  0  0  0  0  0  0  0  0
   21.4880   -7.6137  -15.5378 C   0  0  0  0  0  0  0  0  0  0  0  0
   22.7243   -7.7923  -15.4008 O   0  0  0  0  0  0  0  0  0  0  0  0
   19.8357  -11.9556  -15.9274 C   0  0  0  0  0  0  0  0  0  0  0  0
   18.8330  -12.8611  -16.1737 C   0  0  0  0  0  0  0  0  0  0  0  0
   20.8992   -3.9627  -14.8589 C   0  0  0  0  0  0  0  0  0  0  0  0
   21.5669   -5.2945  -14.6328 C   0  0  2  0  0  0  0  0  0  0  0  0
   20.8644   -6.4155  -15.1668 N   0  0  0  0  0  0  0  0  0  0  0  0
   21.9757   -5.5078  -13.2218 C   0  0  0  0  0  0  0  0  0  0  0  0
   21.5551   -6.3397  -12.4262 O   0  0  0  0  0  0  0  0  0  0  0  0
   22.9766   -4.6377  -12.7435 O   0  0  0  0  0  0  0  0  0  0  0  0
  1  2  1  0
  2  3  1  0
  3 12  1  0
  3  4  2  0
  6  5  1  0
  7  6  2  0
  8  7  1  0
  9  8  2  0
  9 15  1  0
 10  9  1  0
 11 10  1  1
 11 13  1  0
 12 11  1  0
 13 19  1  0
 14 13  2  0
 15 16  2  0
 16  6  1  0
 18 20  1  0
 18 17  1  1
 19 18  1  0
 20 22  1  0
 21 20  2  0
M  END
$$$$
