DPQ.pdb
     RDKit          3D

 25 25  0  0  1  0  0  0  0  0999 V2000
   10.5289  -16.3569   16.5542 N   0  0  0  0  0  0  0  0  0  0  0  0
    9.3742  -16.0128   17.3478 C   0  0  1  0  0  0  0  0  0  0  0  0
    8.4388  -17.2246   17.4411 C   0  0  0  0  0  0  0  0  0  0  0  0
    7.9446  -17.5798   16.0906 C   0  0  0  0  0  0  0  0  0  0  0  0
    8.0423  -16.7214   15.1804 O   0  0  0  0  0  0  0  0  0  0  0  0
    9.6487  -15.4544   18.6632 C   0  0  0  0  0  0  0  0  0  0  0  0
   10.6221  -15.8921   19.3122 O   0  0  0  0  0  0  0  0  0  0  0  0
    7.3842  -18.8140   15.8012 O   0  0  0  0  0  0  0  0  0  0  0  0
    8.8379  -14.4128   19.2488 N   0  0  0  0  0  0  0  0  0  0  0  0
    7.9789  -13.5908   18.4625 C   0  0  0  0  0  0  0  0  0  0  0  0
    7.4357  -12.5455   19.4090 C   0  0  0  0  0  0  0  0  0  0  0  0
    7.5772  -13.1653   20.7780 C   0  0  0  0  0  0  0  0  0  0  0  0
    8.7708  -14.0618   20.6224 C   0  0  1  0  0  0  0  0  0  0  0  0
    8.6835  -15.2265   21.5499 C   0  0  0  0  0  0  0  0  0  0  0  0
    7.9265  -16.1926   21.4491 O   0  0  0  0  0  0  0  0  0  0  0  0
   11.8192  -19.7495   22.6993 N   0  0  0  0  0  0  0  0  0  0  0  0
   12.3946  -18.5041   22.3227 C   0  0  0  0  0  0  0  0  0  0  0  0
   13.5578  -18.4557   21.8686 O   0  0  0  0  0  0  0  0  0  0  0  0
   11.6323  -17.2093   22.4552 C   0  0  0  0  0  0  0  0  0  0  0  0
   10.2824  -17.4905   23.0051 C   0  0  0  0  0  0  0  0  0  0  0  0
    9.6150  -16.3044   23.6384 C   0  0  2  0  0  0  0  0  0  0  0  0
    9.5716  -15.2018   22.6568 N   0  0  0  0  0  0  0  0  0  0  0  0
   10.4142  -15.8262   24.7812 C   0  0  0  0  0  0  0  0  0  0  0  0
   10.4978  -16.5666   25.8090 O   0  0  0  0  0  0  0  0  0  0  0  0
   11.0826  -14.6102   24.7938 O   0  0  0  0  0  0  0  0  0  0  0  0
  2  1  1  1
  2  3  1  0
  3  4  1  0
  4  8  1  0
  5  4  2  0
  6  2  1  0
  6  7  2  0
  9  6  1  0
 10  9  1  0
 11 10  1  0
 12 11  1  0
 12 13  1  0
 13  9  1  0
 14 22  1  0
 13 14  1  1
 15 14  2  0
 16 17  1  0
 17 19  1  0
 18 17  2  0
 20 19  1  0
 21 20  1  6
 21 22  1  0
 21 23  1  0
 23 25  1  0
 24 23  2  0
M  END
$$$$
