DPQ.pdb
     RDKit          3D

 25 25  0  0  1  0  0  0  0  0999 V2000
    9.3235  -14.3351   15.0573 N   0  0  0  0  0  0  0  0  0  0  0  0
    8.5625  -14.6182   16.2499 C   0  0  1  0  0  0  0  0  0  0  0  0
    7.9749  -16.0318   16.1575 C   0  0  0  0  0  0  0  0  0  0  0  0
    9.0408  -16.9933   15.7920 C   0  0  0  0  0  0  0  0  0  0  0  0
   10.1579  -16.5357   15.4493 O   0  0  0  0  0  0  0  0  0  0  0  0
    9.2578  -14.4163   17.5122 C   0  0  0  0  0  0  0  0  0  0  0  0
   10.4963  -14.5747   17.5497 O   0  0  0  0  0  0  0  0  0  0  0  0
    8.8485  -18.3658   15.8153 O   0  0  0  0  0  0  0  0  0  0  0  0
    8.5707  -14.0399   18.7252 N   0  0  0  0  0  0  0  0  0  0  0  0
    7.2186  -13.5888   18.7198 C   0  0  0  0  0  0  0  0  0  0  0  0
    6.9271  -13.1558   20.1378 C   0  0  0  0  0  0  0  0  0  0  0  0
    7.9382  -13.9003   20.9756 C   0  0  0  0  0  0  0  0  0  0  0  0
    9.1020  -14.0585   20.0413 C   0  0  1  0  0  0  0  0  0  0  0  0
    9.8832  -15.2855   20.3705 C   0  0  0  0  0  0  0  0  0  0  0  0
    9.7298  -16.4076   19.8869 O   0  0  0  0  0  0  0  0  0  0  0  0
   15.0386  -16.5068   18.9537 N   0  0  0  0  0  0  0  0  0  0  0  0
   14.8401  -15.2564   19.6027 C   0  0  0  0  0  0  0  0  0  0  0  0
   15.5888  -14.2875   19.3529 O   0  0  0  0  0  0  0  0  0  0  0  0
   13.7317  -15.0539   20.6054 C   0  0  0  0  0  0  0  0  0  0  0  0
   12.9236  -16.2957   20.6987 C   0  0  0  0  0  0  0  0  0  0  0  0
   11.8106  -16.2333   21.7040 C   0  0  2  0  0  0  0  0  0  0  0  0
   10.9043  -15.1245   21.3431 N   0  0  0  0  0  0  0  0  0  0  0  0
   12.3533  -15.9226   23.0390 C   0  0  0  0  0  0  0  0  0  0  0  0
   12.0956  -14.7868   23.5441 O   0  0  0  0  0  0  0  0  0  0  0  0
   13.1299  -16.8060   23.7754 O   0  0  0  0  0  0  0  0  0  0  0  0
  2  1  1  6
  2  3  1  0
  3  4  1  0
  4  8  1  0
  5  4  2  0
  6  2  1  0
  6  7  2  0
  9  6  1  0
 10  9  1  0
 11 10  1  0
 12 11  1  0
 12 13  1  0
 13  9  1  0
 14 22  1  0
 13 14  1  1
 15 14  2  0
 16 17  1  0
 17 19  1  0
 18 17  2  0
 20 19  1  0
 21 20  1  6
 21 22  1  0
 21 23  1  0
 23 25  1  0
 24 23  2  0
M  END
$$$$
