DPQ.pdb
     RDKit          3D

 25 25  0  0  1  0  0  0  0  0999 V2000
    9.7414  -17.0791   16.9988 N   0  0  0  0  0  0  0  0  0  0  0  0
    8.7338  -16.6598   17.9424 C   0  0  1  0  0  0  0  0  0  0  0  0
    7.8657  -17.8628   18.3312 C   0  0  0  0  0  0  0  0  0  0  0  0
    7.2709  -18.4640   17.1151 C   0  0  0  0  0  0  0  0  0  0  0  0
    6.9372  -19.6731   17.1557 O   0  0  0  0  0  0  0  0  0  0  0  0
    9.2176  -15.9545   19.1196 C   0  0  0  0  0  0  0  0  0  0  0  0
   10.3156  -16.2883   19.6129 O   0  0  0  0  0  0  0  0  0  0  0  0
    7.0726  -17.7448   15.9470 O   0  0  0  0  0  0  0  0  0  0  0  0
    8.4764  -14.8823   19.7413 N   0  0  0  0  0  0  0  0  0  0  0  0
    7.4705  -14.1536   19.0421 C   0  0  0  0  0  0  0  0  0  0  0  0
    7.0521  -13.0394   19.9732 C   0  0  0  0  0  0  0  0  0  0  0  0
    7.4391  -13.5301   21.3472 C   0  0  0  0  0  0  0  0  0  0  0  0
    8.6229  -14.4106   21.0719 C   0  0  1  0  0  0  0  0  0  0  0  0
    8.7317  -15.4885   22.0967 C   0  0  0  0  0  0  0  0  0  0  0  0
    8.0695  -16.5256   22.1475 O   0  0  0  0  0  0  0  0  0  0  0  0
   13.7203  -18.0435   23.9461 N   0  0  0  0  0  0  0  0  0  0  0  0
   12.8342  -18.2279   22.8484 C   0  0  0  0  0  0  0  0  0  0  0  0
   13.1866  -18.9016   21.8566 O   0  0  0  0  0  0  0  0  0  0  0  0
   11.4517  -17.6249   22.8391 C   0  0  0  0  0  0  0  0  0  0  0  0
   11.2384  -16.8710   24.1000 C   0  0  0  0  0  0  0  0  0  0  0  0
    9.8818  -16.2396   24.2192 C   0  0  2  0  0  0  0  0  0  0  0  0
    9.7035  -15.2808   23.1101 N   0  0  0  0  0  0  0  0  0  0  0  0
    9.7938  -15.4650   25.4704 C   0  0  0  0  0  0  0  0  0  0  0  0
    9.8113  -14.1977   25.3962 O   0  0  0  0  0  0  0  0  0  0  0  0
    9.6908  -16.0462   26.7262 O   0  0  0  0  0  0  0  0  0  0  0  0
  2  1  1  1
  2  3  1  0
  3  4  1  0
  4  8  1  0
  5  4  2  0
  6  2  1  0
  6  7  2  0
  9  6  1  0
 10  9  1  0
 11 10  1  0
 12 11  1  0
 12 13  1  0
 13  9  1  0
 14 22  1  0
 13 14  1  1
 15 14  2  0
 16 17  1  0
 17 19  1  0
 18 17  2  0
 20 19  1  0
 21 20  1  6
 21 22  1  0
 21 23  1  0
 23 25  1  0
 24 23  2  0
M  END
$$$$
