DPQ.pdb
     RDKit          3D

 25 25  0  0  1  0  0  0  0  0999 V2000
   10.8234  -15.1718   15.4341 N   0  0  0  0  0  0  0  0  0  0  0  0
    9.6721  -15.2021   16.3031 C   0  0  1  0  0  0  0  0  0  0  0  0
    8.9537  -16.5487   16.1526 C   0  0  0  0  0  0  0  0  0  0  0  0
    8.5751  -16.7577   14.7359 C   0  0  0  0  0  0  0  0  0  0  0  0
    9.0001  -15.9407   13.8834 O   0  0  0  0  0  0  0  0  0  0  0  0
    9.9216  -14.8895   17.7022 C   0  0  0  0  0  0  0  0  0  0  0  0
   10.9902  -15.2721   18.2236 O   0  0  0  0  0  0  0  0  0  0  0  0
    7.7763  -17.8130   14.3243 O   0  0  0  0  0  0  0  0  0  0  0  0
    8.9800  -14.1535   18.5129 N   0  0  0  0  0  0  0  0  0  0  0  0
    7.9007  -13.4194   17.9402 C   0  0  0  0  0  0  0  0  0  0  0  0
    7.2547  -12.6805   19.0892 C   0  0  0  0  0  0  0  0  0  0  0  0
    7.6514  -13.4669   20.3149 C   0  0  0  0  0  0  0  0  0  0  0  0
    8.9792  -14.0501   19.9284 C   0  0  1  0  0  0  0  0  0  0  0  0
    9.2187  -15.3397   20.6381 C   0  0  0  0  0  0  0  0  0  0  0  0
    9.1782  -16.4685   20.1475 O   0  0  0  0  0  0  0  0  0  0  0  0
   14.5490  -14.9147   22.0982 N   0  0  0  0  0  0  0  0  0  0  0  0
   14.2277  -16.2589   21.7612 C   0  0  0  0  0  0  0  0  0  0  0  0
   15.1237  -17.0537   21.4045 O   0  0  0  0  0  0  0  0  0  0  0  0
   12.8102  -16.7711   21.8204 C   0  0  0  0  0  0  0  0  0  0  0  0
   11.9023  -15.6562   22.1899 C   0  0  0  0  0  0  0  0  0  0  0  0
   10.5440  -16.0950   22.6543 C   0  0  2  0  0  0  0  0  0  0  0  0
    9.5233  -15.2361   22.0206 N   0  0  0  0  0  0  0  0  0  0  0  0
   10.4210  -15.8994   24.1103 C   0  0  0  0  0  0  0  0  0  0  0  0
   10.1705  -14.7321   24.5418 O   0  0  0  0  0  0  0  0  0  0  0  0
   10.5622  -16.9236   25.0360 O   0  0  0  0  0  0  0  0  0  0  0  0
  2  1  1  6
  2  3  1  0
  3  4  1  0
  4  8  1  0
  5  4  2  0
  6  2  1  0
  6  7  2  0
  9  6  1  0
 10  9  1  0
 11 10  1  0
 12 11  1  0
 12 13  1  0
 13  9  1  0
 14 22  1  0
 13 14  1  1
 15 14  2  0
 16 17  1  0
 17 19  1  0
 18 17  2  0
 20 19  1  0
 21 20  1  6
 21 22  1  0
 21 23  1  0
 23 25  1  0
 24 23  2  0
M  END
$$$$
