DPQ.pdb
     RDKit          3D

 25 25  0  0  1  0  0  0  0  0999 V2000
   10.4283  -17.0171   18.3030 N   0  0  0  0  0  0  0  0  0  0  0  0
    9.4115  -17.1796   19.3135 C   0  0  1  0  0  0  0  0  0  0  0  0
    9.2013  -18.6732   19.5913 C   0  0  0  0  0  0  0  0  0  0  0  0
    8.7086  -19.3450   18.3665 C   0  0  0  0  0  0  0  0  0  0  0  0
    7.7309  -18.8369   17.7659 O   0  0  0  0  0  0  0  0  0  0  0  0
    9.6153  -16.4360   20.5477 C   0  0  0  0  0  0  0  0  0  0  0  0
   10.7635  -16.3834   21.0367 O   0  0  0  0  0  0  0  0  0  0  0  0
    9.2842  -20.5026   17.8668 O   0  0  0  0  0  0  0  0  0  0  0  0
    8.5399  -15.7559   21.2306 N   0  0  0  0  0  0  0  0  0  0  0  0
    7.2921  -15.4863   20.5965 C   0  0  0  0  0  0  0  0  0  0  0  0
    6.5112  -14.6406   21.5755 C   0  0  0  0  0  0  0  0  0  0  0  0
    7.1319  -14.9455   22.9172 C   0  0  0  0  0  0  0  0  0  0  0  0
    8.5533  -15.2754   22.5660 C   0  0  1  0  0  0  0  0  0  0  0  0
    9.1366  -16.2271   23.5549 C   0  0  0  0  0  0  0  0  0  0  0  0
    9.2449  -17.4472   23.4270 O   0  0  0  0  0  0  0  0  0  0  0  0
    9.9048  -12.5626   28.8253 N   0  0  0  0  0  0  0  0  0  0  0  0
   10.1306  -13.9623   28.7079 C   0  0  0  0  0  0  0  0  0  0  0  0
   10.8115  -14.5677   29.5632 O   0  0  0  0  0  0  0  0  0  0  0  0
    9.5638  -14.7605   27.5604 C   0  0  0  0  0  0  0  0  0  0  0  0
   10.6446  -15.5753   26.9505 C   0  0  0  0  0  0  0  0  0  0  0  0
   10.1861  -16.4770   25.8414 C   0  0  2  0  0  0  0  0  0  0  0  0
    9.6107  -15.6497   24.7618 N   0  0  0  0  0  0  0  0  0  0  0  0
    9.1079  -17.3600   26.3221 C   0  0  0  0  0  0  0  0  0  0  0  0
    7.9063  -17.0288   26.0812 O   0  0  0  0  0  0  0  0  0  0  0  0
    9.3353  -18.5361   27.0226 O   0  0  0  0  0  0  0  0  0  0  0  0
  2  1  1  6
  2  3  1  0
  3  4  1  0
  4  8  1  0
  5  4  2  0
  6  2  1  0
  6  7  2  0
  9  6  1  0
 10  9  1  0
 11 10  1  0
 12 11  1  0
 12 13  1  0
 13  9  1  0
 14 22  1  0
 13 14  1  1
 15 14  2  0
 16 17  1  0
 17 19  1  0
 18 17  2  0
 20 19  1  0
 21 20  1  1
 21 22  1  0
 21 23  1  0
 23 25  1  0
 24 23  2  0
M  END
$$$$
