DPQ.pdb
     RDKit          3D

 25 25  0  0  1  0  0  0  0  0999 V2000
   10.3044  -15.3140   15.1467 N   0  0  0  0  0  0  0  0  0  0  0  0
    9.2842  -15.3267   16.1668 C   0  0  1  0  0  0  0  0  0  0  0  0
    8.6057  -16.7019   16.1937 C   0  0  0  0  0  0  0  0  0  0  0  0
    8.0515  -17.0121   14.8556 C   0  0  0  0  0  0  0  0  0  0  0  0
    8.0068  -16.0900   14.0056 O   0  0  0  0  0  0  0  0  0  0  0  0
    9.7094  -14.9209   17.4980 C   0  0  0  0  0  0  0  0  0  0  0  0
   10.8322  -15.2831   17.9083 O   0  0  0  0  0  0  0  0  0  0  0  0
    7.5859  -18.2722   14.5140 O   0  0  0  0  0  0  0  0  0  0  0  0
    8.8821  -14.1148   18.3648 N   0  0  0  0  0  0  0  0  0  0  0  0
    7.7388  -13.4139   17.8819 C   0  0  0  0  0  0  0  0  0  0  0  0
    7.2485  -12.5827   19.0448 C   0  0  0  0  0  0  0  0  0  0  0  0
    7.7998  -13.2785   20.2656 C   0  0  0  0  0  0  0  0  0  0  0  0
    9.0653  -13.9045   19.7565 C   0  0  1  0  0  0  0  0  0  0  0  0
    9.3929  -15.1393   20.5259 C   0  0  0  0  0  0  0  0  0  0  0  0
    9.0028  -16.2822   20.2846 O   0  0  0  0  0  0  0  0  0  0  0  0
   15.2021  -16.8389   22.1895 N   0  0  0  0  0  0  0  0  0  0  0  0
   14.4402  -15.6758   21.8881 C   0  0  0  0  0  0  0  0  0  0  0  0
   14.9673  -14.5437   21.9363 O   0  0  0  0  0  0  0  0  0  0  0  0
   12.9844  -15.7627   21.5034 C   0  0  0  0  0  0  0  0  0  0  0  0
   12.1663  -15.9612   22.7262 C   0  0  0  0  0  0  0  0  0  0  0  0
   10.6945  -16.1027   22.4674 C   0  0  2  0  0  0  0  0  0  0  0  0
   10.2427  -14.9598   21.6485 N   0  0  0  0  0  0  0  0  0  0  0  0
    9.9500  -16.0371   23.7381 C   0  0  0  0  0  0  0  0  0  0  0  0
    9.3094  -14.9743   24.0061 O   0  0  0  0  0  0  0  0  0  0  0  0
    9.9097  -17.0757   24.6575 O   0  0  0  0  0  0  0  0  0  0  0  0
  2  1  1  6
  2  3  1  0
  3  4  1  0
  4  8  1  0
  5  4  2  0
  6  2  1  0
  6  7  2  0
  9  6  1  0
 10  9  1  0
 11 10  1  0
 12 11  1  0
 12 13  1  0
 13  9  1  0
 14 22  1  0
 13 14  1  1
 15 14  2  0
 16 17  1  0
 17 19  1  0
 18 17  2  0
 20 19  1  0
 21 20  1  1
 21 22  1  0
 21 23  1  0
 23 25  1  0
 24 23  2  0
M  END
$$$$
