DPQ.pdb
     RDKit          3D

 25 25  0  0  1  0  0  0  0  0999 V2000
   10.8888  -17.0060   18.2590 N   0  0  0  0  0  0  0  0  0  0  0  0
    9.7904  -17.1631   19.1812 C   0  0  1  0  0  0  0  0  0  0  0  0
    9.5952  -18.6517   19.4944 C   0  0  0  0  0  0  0  0  0  0  0  0
    9.3675  -19.4014   18.2374 C   0  0  0  0  0  0  0  0  0  0  0  0
    9.9510  -20.5028   18.0916 O   0  0  0  0  0  0  0  0  0  0  0  0
    9.8638  -16.3716   20.4000 C   0  0  0  0  0  0  0  0  0  0  0  0
   10.9616  -16.2706   20.9875 O   0  0  0  0  0  0  0  0  0  0  0  0
    8.5412  -18.9331   17.2279 O   0  0  0  0  0  0  0  0  0  0  0  0
    8.7150  -15.6978   20.9582 N   0  0  0  0  0  0  0  0  0  0  0  0
    7.4945  -15.5587   20.2352 C   0  0  0  0  0  0  0  0  0  0  0  0
    6.6128  -14.6769   21.0887 C   0  0  0  0  0  0  0  0  0  0  0  0
    7.1681  -14.8251   22.4844 C   0  0  0  0  0  0  0  0  0  0  0  0
    8.6234  -15.1010   22.2428 C   0  0  1  0  0  0  0  0  0  0  0  0
    9.1968  -15.9259   23.3450 C   0  0  0  0  0  0  0  0  0  0  0  0
    9.3898  -17.1421   23.3305 O   0  0  0  0  0  0  0  0  0  0  0  0
    9.9179  -13.2758   29.0228 N   0  0  0  0  0  0  0  0  0  0  0  0
   10.4512  -14.5745   29.2525 C   0  0  0  0  0  0  0  0  0  0  0  0
   10.8193  -14.9144   30.3974 O   0  0  0  0  0  0  0  0  0  0  0  0
   10.5916  -15.5798   28.1368 C   0  0  0  0  0  0  0  0  0  0  0  0
   10.0741  -14.9881   26.8774 C   0  0  0  0  0  0  0  0  0  0  0  0
   10.1323  -15.9093   25.6937 C   0  0  2  0  0  0  0  0  0  0  0  0
    9.5507  -15.2197   24.5243 N   0  0  0  0  0  0  0  0  0  0  0  0
    9.3022  -17.1021   25.9412 C   0  0  0  0  0  0  0  0  0  0  0  0
    9.8709  -18.1525   26.3714 O   0  0  0  0  0  0  0  0  0  0  0  0
    7.9310  -17.1389   25.7312 O   0  0  0  0  0  0  0  0  0  0  0  0
  2  1  1  1
  2  3  1  0
  3  4  1  0
  4  8  1  0
  5  4  2  0
  6  2  1  0
  6  7  2  0
  9  6  1  0
 10  9  1  0
 11 10  1  0
 12 11  1  0
 12 13  1  0
 13  9  1  0
 14 22  1  0
 13 14  1  1
 15 14  2  0
 16 17  1  0
 17 19  1  0
 18 17  2  0
 20 19  1  0
 21 20  1  1
 21 22  1  0
 21 23  1  0
 23 25  1  0
 24 23  2  0
M  END
$$$$
