DPQ.pdb
     RDKit          3D

 25 25  0  0  1  0  0  0  0  0999 V2000
    9.8734  -15.5632   14.8997 N   0  0  0  0  0  0  0  0  0  0  0  0
    8.8821  -15.6532   15.9440 C   0  0  1  0  0  0  0  0  0  0  0  0
    8.1738  -17.0109   15.8605 C   0  0  0  0  0  0  0  0  0  0  0  0
    7.6174  -17.2017   14.5011 C   0  0  0  0  0  0  0  0  0  0  0  0
    8.2431  -17.9426   13.7046 O   0  0  0  0  0  0  0  0  0  0  0  0
    9.3532  -15.3849   17.2944 C   0  0  0  0  0  0  0  0  0  0  0  0
   10.3435  -16.0141   17.7231 O   0  0  0  0  0  0  0  0  0  0  0  0
    6.4425  -16.5966   14.0834 O   0  0  0  0  0  0  0  0  0  0  0  0
    8.7190  -14.4184   18.1600 N   0  0  0  0  0  0  0  0  0  0  0  0
    7.7894  -13.4569   17.6671 C   0  0  0  0  0  0  0  0  0  0  0  0
    7.4803  -12.5513   18.8367 C   0  0  0  0  0  0  0  0  0  0  0  0
    7.8164  -13.3782   20.0539 C   0  0  0  0  0  0  0  0  0  0  0  0
    8.9093  -14.2803   19.5597 C   0  0  1  0  0  0  0  0  0  0  0  0
    8.9119  -15.5697   20.3090 C   0  0  0  0  0  0  0  0  0  0  0  0
    8.4865  -16.6541   19.9094 O   0  0  0  0  0  0  0  0  0  0  0  0
   13.1907  -18.2902   19.9850 N   0  0  0  0  0  0  0  0  0  0  0  0
   12.9495  -18.8878   21.2533 C   0  0  0  0  0  0  0  0  0  0  0  0
   13.6553  -19.8402   21.6490 O   0  0  0  0  0  0  0  0  0  0  0  0
   11.8460  -18.4010   22.1590 C   0  0  0  0  0  0  0  0  0  0  0  0
   11.1504  -17.2598   21.5127 C   0  0  0  0  0  0  0  0  0  0  0  0
    9.9728  -16.7385   22.2839 C   0  0  2  0  0  0  0  0  0  0  0  0
    9.4654  -15.5234   21.6152 N   0  0  0  0  0  0  0  0  0  0  0  0
   10.3946  -16.3352   23.6377 C   0  0  0  0  0  0  0  0  0  0  0  0
   10.7727  -15.1368   23.8183 O   0  0  0  0  0  0  0  0  0  0  0  0
   10.3989  -17.1946   24.7272 O   0  0  0  0  0  0  0  0  0  0  0  0
  2  1  1  6
  2  3  1  0
  3  4  1  0
  4  8  1  0
  5  4  2  0
  6  2  1  0
  6  7  2  0
  9  6  1  0
 10  9  1  0
 11 10  1  0
 12 11  1  0
 12 13  1  0
 13  9  1  0
 14 22  1  0
 13 14  1  1
 15 14  2  0
 16 17  1  0
 17 19  1  0
 18 17  2  0
 20 19  1  0
 21 20  1  6
 21 22  1  0
 21 23  1  0
 23 25  1  0
 24 23  2  0
M  END
$$$$
