DPQ.pdb
     RDKit          3D

 25 25  0  0  1  0  0  0  0  0999 V2000
    9.2956  -17.2275   18.5792 N   0  0  0  0  0  0  0  0  0  0  0  0
   10.3075  -17.2861   19.6058 C   0  0  1  0  0  0  0  0  0  0  0  0
   11.6711  -16.9311   19.0001 C   0  0  0  0  0  0  0  0  0  0  0  0
   12.3591  -18.1666   18.5592 C   0  0  0  0  0  0  0  0  0  0  0  0
   12.7509  -18.2326   17.3688 O   0  0  0  0  0  0  0  0  0  0  0  0
   10.0433  -16.5068   20.8060 C   0  0  0  0  0  0  0  0  0  0  0  0
   10.9129  -16.4667   21.7018 O   0  0  0  0  0  0  0  0  0  0  0  0
   12.5822  -19.2402   19.4069 O   0  0  0  0  0  0  0  0  0  0  0  0
    8.8125  -15.7774   21.0024 N   0  0  0  0  0  0  0  0  0  0  0  0
    7.8276  -15.6660   19.9781 C   0  0  0  0  0  0  0  0  0  0  0  0
    6.7849  -14.7139   20.5164 C   0  0  0  0  0  0  0  0  0  0  0  0
    6.9526  -14.7779   22.0151 C   0  0  0  0  0  0  0  0  0  0  0  0
    8.4104  -15.0944   22.1799 C   0  0  1  0  0  0  0  0  0  0  0  0
    8.6488  -15.8533   23.4413 C   0  0  0  0  0  0  0  0  0  0  0  0
    8.7248  -17.0766   23.5613 O   0  0  0  0  0  0  0  0  0  0  0  0
   11.0509  -13.4507   28.4038 N   0  0  0  0  0  0  0  0  0  0  0  0
   10.3107  -14.4866   29.0385 C   0  0  0  0  0  0  0  0  0  0  0  0
   10.6400  -14.8967   30.1722 O   0  0  0  0  0  0  0  0  0  0  0  0
    9.1143  -15.1227   28.3761 C   0  0  0  0  0  0  0  0  0  0  0  0
    8.9988  -14.6168   26.9852 C   0  0  0  0  0  0  0  0  0  0  0  0
    9.0359  -15.6880   25.9342 C   0  0  2  0  0  0  0  0  0  0  0  0
    8.8015  -15.0686   24.6142 N   0  0  0  0  0  0  0  0  0  0  0  0
    7.9400  -16.6492   26.1544 C   0  0  0  0  0  0  0  0  0  0  0  0
    8.2072  -17.7424   26.7419 O   0  0  0  0  0  0  0  0  0  0  0  0
    6.6302  -16.4229   25.7558 O   0  0  0  0  0  0  0  0  0  0  0  0
  2  1  1  6
  2  3  1  0
  3  4  1  0
  4  8  1  0
  5  4  2  0
  6  2  1  0
  6  7  2  0
  9  6  1  0
 10  9  1  0
 11 10  1  0
 12 11  1  0
 12 13  1  0
 13  9  1  0
 14 22  1  0
 13 14  1  1
 15 14  2  0
 16 17  1  0
 17 19  1  0
 18 17  2  0
 20 19  1  0
 21 20  1  1
 21 22  1  0
 21 23  1  0
 23 25  1  0
 24 23  2  0
M  END
$$$$
