CRG.pdb
     RDKit          3D

 22 21  0  0  1  0  0  0  0  0999 V2000
   27.9333  -20.4837  -17.2027 N   0  0  0  0  0  0  0  0  0  0  0  0
   26.9717  -21.1907  -16.4027 C   0  0  1  0  0  0  0  0  0  0  0  0
   27.6709  -21.6971  -15.1551 C   0  0  0  0  0  0  0  0  0  0  0  0
   28.9380  -22.9009  -15.5923 S   0  0  0  0  0  0  0  0  0  0  0  0
   25.8793  -20.2724  -15.9398 C   0  0  0  0  0  0  0  0  0  0  0  0
   26.0494  -19.0138  -15.9613 O   0  0  0  0  0  0  0  0  0  0  0  0
   18.7665  -19.0301  -16.3913 N   0  0  0  0  0  0  0  0  0  0  0  0
   18.8843  -17.8174  -17.1252 C   0  0  0  0  0  0  0  0  0  0  0  0
   17.9161  -16.9933  -17.2833 N   0  0  0  0  0  0  0  0  0  0  0  0
   20.1694  -17.5393  -17.7025 N   0  0  0  0  0  0  0  0  0  0  0  0
   21.1635  -18.5611  -17.7558 C   0  0  0  0  0  0  0  0  0  0  0  0
   21.9170  -18.5496  -16.4261 C   0  0  0  0  0  0  0  0  0  0  0  0
   22.8158  -19.7483  -16.4406 C   0  0  0  0  0  0  0  0  0  0  0  0
   23.5250  -20.0181  -15.1524 C   0  0  2  0  0  0  0  0  0  0  0  0
   24.6776  -20.8623  -15.4882 N   0  0  0  0  0  0  0  0  0  0  0  0
   22.6767  -20.7489  -14.2158 C   0  0  0  0  0  0  0  0  0  0  0  0
   22.5419  -21.9899  -14.3302 O   0  0  0  0  0  0  0  0  0  0  0  0
   18.0834  -16.1232  -17.8499 N   0  0  0  0  0  0  0  0  0  0  0  0
   21.9858  -20.0674  -13.1547 C   0  0  0  0  0  0  0  0  0  0  0  0
   21.3094  -20.8943  -12.1894 C   0  0  0  0  0  0  0  0  0  0  0  0
   19.9766  -21.3302  -12.6299 O   0  0  0  0  0  0  0  0  0  0  0  0
   19.0735  -22.0430  -11.8588 O   0  0  0  0  0  0  0  0  0  0  0  0
  2  1  1  6
  2  5  1  0
  2  3  1  0
  3  4  1  0
  5  6  2  0
  7  8  1  0
  8  9  2  0
  8 10  1  0
 10 11  1  0
 11 12  1  0
 12 13  1  0
 14 13  1  6
 14 16  1  0
 15  5  1  0
 15 14  1  0
 16 18  1  0
 16 17  2  0
 18 19  1  0
 20 19  1  0
 20 21  1  0
 22 20  2  0
M  END
$$$$
