CRG.pdb
     RDKit          3D

 22 21  0  0  1  0  0  0  0  0999 V2000
   28.2843  -20.4590  -12.5765 N   0  0  0  0  0  0  0  0  0  0  0  0
   27.1303  -21.0733  -11.9804 C   0  0  1  0  0  0  0  0  0  0  0  0
   27.1582  -20.7923  -10.4897 C   0  0  0  0  0  0  0  0  0  0  0  0
   28.5422  -21.6484   -9.7168 S   0  0  0  0  0  0  0  0  0  0  0  0
   25.8649  -20.4644  -12.5084 C   0  0  0  0  0  0  0  0  0  0  0  0
   25.6126  -19.2361  -12.3056 O   0  0  0  0  0  0  0  0  0  0  0  0
   25.0718  -17.8082  -16.8307 N   0  0  0  0  0  0  0  0  0  0  0  0
   23.9801  -17.8998  -17.7379 C   0  0  0  0  0  0  0  0  0  0  0  0
   23.8807  -17.1820  -18.7946 N   0  0  0  0  0  0  0  0  0  0  0  0
   22.9587  -18.8570  -17.4178 N   0  0  0  0  0  0  0  0  0  0  0  0
   22.7282  -19.2267  -16.0593 C   0  0  0  0  0  0  0  0  0  0  0  0
   22.5376  -20.7425  -16.0136 C   0  0  0  0  0  0  0  0  0  0  0  0
   23.6716  -21.2855  -15.1985 C   0  0  0  0  0  0  0  0  0  0  0  0
   23.7510  -20.7582  -13.8018 C   0  0  2  0  0  0  0  0  0  0  0  0
   24.9857  -21.3051  -13.2270 N   0  0  0  0  0  0  0  0  0  0  0  0
   22.6252  -21.2134  -12.9917 C   0  0  0  0  0  0  0  0  0  0  0  0
   22.6480  -22.3541  -12.4726 O   0  0  0  0  0  0  0  0  0  0  0  0
   23.0257  -17.2896  -19.3973 N   0  0  0  0  0  0  0  0  0  0  0  0
   21.4797  -20.3716  -12.7753 C   0  0  0  0  0  0  0  0  0  0  0  0
   20.4350  -20.9053  -11.9405 C   0  0  0  0  0  0  0  0  0  0  0  0
   19.0930  -20.7543  -12.5210 O   0  0  0  0  0  0  0  0  0  0  0  0
   17.9054  -21.0649  -11.8798 O   0  0  0  0  0  0  0  0  0  0  0  0
  2  1  1  6
  2  5  1  0
  2  3  1  0
  3  4  1  0
  5  6  2  0
  7  8  1  0
  8  9  2  0
  8 10  1  0
 10 11  1  0
 11 12  1  0
 12 13  1  0
 14 13  1  6
 14 16  1  0
 15  5  1  0
 15 14  1  0
 16 18  1  0
 16 17  2  0
 18 19  1  0
 20 19  1  0
 20 21  1  0
 22 20  2  0
M  END
$$$$
