CRG.pdb
     RDKit          3D

 22 21  0  0  1  0  0  0  0  0999 V2000
   25.7388  -20.9360   -9.7253 N   0  0  0  0  0  0  0  0  0  0  0  0
   25.3034  -21.0484  -11.0900 C   0  0  1  0  0  0  0  0  0  0  0  0
   24.0496  -20.2113  -11.2600 C   0  0  0  0  0  0  0  0  0  0  0  0
   22.7108  -20.8775  -10.2552 S   0  0  0  0  0  0  0  0  0  0  0  0
   26.3278  -20.4827  -12.0288 C   0  0  0  0  0  0  0  0  0  0  0  0
   27.0119  -19.4665  -11.6927 O   0  0  0  0  0  0  0  0  0  0  0  0
   30.4744  -24.6757  -15.8480 N   0  0  0  0  0  0  0  0  0  0  0  0
   29.0804  -24.8765  -16.0473 C   0  0  0  0  0  0  0  0  0  0  0  0
   28.5115  -26.0196  -15.9412 N   0  0  0  0  0  0  0  0  0  0  0  0
   28.3065  -23.7144  -16.3831 N   0  0  0  0  0  0  0  0  0  0  0  0
   28.9064  -22.6436  -17.1102 C   0  0  0  0  0  0  0  0  0  0  0  0
   28.6810  -21.3565  -16.3175 C   0  0  0  0  0  0  0  0  0  0  0  0
   27.7772  -21.7162  -15.1779 C   0  0  0  0  0  0  0  0  0  0  0  0
   27.4441  -20.5854  -14.2584 C   0  0  2  0  0  0  0  0  0  0  0  0
   26.4917  -21.1210  -13.2786 N   0  0  0  0  0  0  0  0  0  0  0  0
   26.8013  -19.4857  -14.9714 C   0  0  0  0  0  0  0  0  0  0  0  0
   25.5870  -19.5603  -15.2738 O   0  0  0  0  0  0  0  0  0  0  0  0
   27.4744  -26.0825  -16.1039 N   0  0  0  0  0  0  0  0  0  0  0  0
   27.5399  -18.3075  -15.3375 C   0  0  0  0  0  0  0  0  0  0  0  0
   26.7837  -17.2228  -15.9074 C   0  0  0  0  0  0  0  0  0  0  0  0
   26.5161  -17.3921  -17.3427 O   0  0  0  0  0  0  0  0  0  0  0  0
   25.8037  -16.5054  -18.1329 O   0  0  0  0  0  0  0  0  0  0  0  0
  2  1  1  1
  2  5  1  0
  2  3  1  0
  3  4  1  0
  5  6  2  0
  7  8  1  0
  8  9  2  0
  8 10  1  0
 10 11  1  0
 11 12  1  0
 12 13  1  0
 14 13  1  6
 14 16  1  0
 15  5  1  0
 15 14  1  0
 16 18  1  0
 16 17  2  0
 18 19  1  0
 20 19  1  0
 20 21  1  0
 22 20  2  0
M  END
$$$$
