CRG.pdb
     RDKit          3D

 22 21  0  0  1  0  0  0  0  0999 V2000
   26.9513  -23.8527  -15.8205 N   0  0  0  0  0  0  0  0  0  0  0  0
   26.7600  -22.5088  -15.3497 C   0  0  1  0  0  0  0  0  0  0  0  0
   26.7899  -21.5766  -16.5463 C   0  0  0  0  0  0  0  0  0  0  0  0
   28.4716  -21.4141  -17.1718 S   0  0  0  0  0  0  0  0  0  0  0  0
   25.4101  -22.3492  -14.7148 C   0  0  0  0  0  0  0  0  0  0  0  0
   24.4388  -23.0796  -15.0844 O   0  0  0  0  0  0  0  0  0  0  0  0
   21.6132  -22.6006   -8.0063 N   0  0  0  0  0  0  0  0  0  0  0  0
   20.8647  -21.4645   -8.4216 C   0  0  0  0  0  0  0  0  0  0  0  0
   19.7017  -21.1822   -7.9643 N   0  0  0  0  0  0  0  0  0  0  0  0
   21.4785  -20.6163   -9.4044 N   0  0  0  0  0  0  0  0  0  0  0  0
   22.6941  -21.0179  -10.0339 C   0  0  0  0  0  0  0  0  0  0  0  0
   23.0854  -19.9287  -11.0320 C   0  0  0  0  0  0  0  0  0  0  0  0
   24.2901  -20.4391  -11.7623 C   0  0  0  0  0  0  0  0  0  0  0  0
   23.9911  -21.1987  -13.0148 C   0  0  2  0  0  0  0  0  0  0  0  0
   25.2739  -21.3681  -13.7073 N   0  0  0  0  0  0  0  0  0  0  0  0
   23.0899  -20.4559  -13.8905 C   0  0  0  0  0  0  0  0  0  0  0  0
   23.4393  -19.3431  -14.3500 O   0  0  0  0  0  0  0  0  0  0  0  0
   19.2006  -20.3410   -8.3483 N   0  0  0  0  0  0  0  0  0  0  0  0
   21.7972  -20.9797  -14.2400 C   0  0  0  0  0  0  0  0  0  0  0  0
   20.9766  -20.1584  -15.0916 C   0  0  0  0  0  0  0  0  0  0  0  0
   19.7015  -19.7706  -14.4717 O   0  0  0  0  0  0  0  0  0  0  0  0
   18.7191  -19.0045  -15.0767 O   0  0  0  0  0  0  0  0  0  0  0  0
  2  1  1  6
  2  5  1  0
  2  3  1  0
  3  4  1  0
  5  6  2  0
  7  8  1  0
  8  9  2  0
  8 10  1  0
 10 11  1  0
 11 12  1  0
 12 13  1  0
 14 13  1  1
 14 16  1  0
 15  5  1  0
 15 14  1  0
 16 18  1  0
 16 17  2  0
 18 19  1  0
 20 19  1  0
 20 21  1  0
 22 20  2  0
M  END
$$$$
