CRG.pdb
     RDKit          3D

 22 21  0  0  1  0  0  0  0  0999 V2000
   17.8931  -22.0870  -10.3018 N   0  0  0  0  0  0  0  0  0  0  0  0
   18.7446  -22.6274  -11.3253 C   0  0  1  0  0  0  0  0  0  0  0  0
   17.8679  -23.1336  -12.4554 C   0  0  0  0  0  0  0  0  0  0  0  0
   17.0195  -24.6442  -11.9614 S   0  0  0  0  0  0  0  0  0  0  0  0
   19.6250  -21.5621  -11.9092 C   0  0  0  0  0  0  0  0  0  0  0  0
   19.1853  -20.3799  -12.0593 O   0  0  0  0  0  0  0  0  0  0  0  0
   25.7879  -23.4742  -14.1031 N   0  0  0  0  0  0  0  0  0  0  0  0
   26.3086  -22.1511  -14.0661 C   0  0  0  0  0  0  0  0  0  0  0  0
   27.0214  -21.6486  -15.0048 N   0  0  0  0  0  0  0  0  0  0  0  0
   25.9974  -21.3716  -12.9010 N   0  0  0  0  0  0  0  0  0  0  0  0
   25.2874  -21.9646  -11.8149 C   0  0  0  0  0  0  0  0  0  0  0  0
   23.9470  -21.2423  -11.6830 C   0  0  0  0  0  0  0  0  0  0  0  0
   23.1816  -21.5420  -12.9357 C   0  0  0  0  0  0  0  0  0  0  0  0
   21.8003  -20.9719  -12.9803 C   0  0  2  0  0  0  0  0  0  0  0  0
   20.9390  -21.9292  -12.2763 N   0  0  0  0  0  0  0  0  0  0  0  0
   21.3179  -20.8410  -14.3518 C   0  0  0  0  0  0  0  0  0  0  0  0
   20.6258  -21.7532  -14.8619 O   0  0  0  0  0  0  0  0  0  0  0  0
   27.3502  -20.6542  -14.9095 N   0  0  0  0  0  0  0  0  0  0  0  0
   21.6237  -19.6758  -15.1369 C   0  0  0  0  0  0  0  0  0  0  0  0
   20.5043  -18.8989  -15.6021 C   0  0  0  0  0  0  0  0  0  0  0  0
   19.7515  -19.5529  -16.6820 O   0  0  0  0  0  0  0  0  0  0  0  0
   18.3713  -19.6403  -16.7548 O   0  0  0  0  0  0  0  0  0  0  0  0
  2  1  1  1
  2  5  1  0
  2  3  1  0
  3  4  1  0
  5  6  2  0
  7  8  1  0
  8  9  2  0
  8 10  1  0
 10 11  1  0
 11 12  1  0
 12 13  1  0
 14 13  1  6
 14 16  1  0
 15  5  1  0
 15 14  1  0
 16 18  1  0
 16 17  2  0
 18 19  1  0
 20 19  1  0
 20 21  1  0
 22 20  2  0
M  END
$$$$
