CRG.pdb
     RDKit          3D

 22 21  0  0  1  0  0  0  0  0999 V2000
   13.3331  -23.3596   -2.7826 N   0  0  0  0  0  0  0  0  0  0  0  0
   14.7329  -23.2881   -3.0986 C   0  0  1  0  0  0  0  0  0  0  0  0
   15.4565  -22.6694   -1.9173 C   0  0  0  0  0  0  0  0  0  0  0  0
   15.3547  -23.7542   -0.4824 S   0  0  0  0  0  0  0  0  0  0  0  0
   15.3118  -24.6595   -3.2862 C   0  0  0  0  0  0  0  0  0  0  0  0
   14.6866  -25.6812   -2.8634 O   0  0  0  0  0  0  0  0  0  0  0  0
   19.3801  -25.5676  -10.2820 N   0  0  0  0  0  0  0  0  0  0  0  0
   18.4741  -24.5716   -9.8232 C   0  0  0  0  0  0  0  0  0  0  0  0
   18.2427  -23.4837  -10.4592 N   0  0  0  0  0  0  0  0  0  0  0  0
   17.8052  -24.8365   -8.5805 N   0  0  0  0  0  0  0  0  0  0  0  0
   18.0451  -26.0606   -7.8882 C   0  0  0  0  0  0  0  0  0  0  0  0
   17.0794  -26.1254   -6.7053 C   0  0  0  0  0  0  0  0  0  0  0  0
   17.9128  -25.9592   -5.4713 C   0  0  0  0  0  0  0  0  0  0  0  0
   17.1607  -26.0745   -4.1843 C   0  0  2  0  0  0  0  0  0  0  0  0
   16.5594  -24.7578   -3.9418 N   0  0  0  0  0  0  0  0  0  0  0  0
   18.0497  -26.3867   -3.0694 C   0  0  0  0  0  0  0  0  0  0  0  0
   18.8497  -25.5201   -2.6447 O   0  0  0  0  0  0  0  0  0  0  0  0
   17.5354  -22.8119  -10.0663 N   0  0  0  0  0  0  0  0  0  0  0  0
   18.0263  -27.6807   -2.4428 C   0  0  0  0  0  0  0  0  0  0  0  0
   18.9152  -27.8735   -1.3266 C   0  0  0  0  0  0  0  0  0  0  0  0
   18.8473  -29.2267   -0.7566 O   0  0  0  0  0  0  0  0  0  0  0  0
   19.6404  -29.6999    0.2755 O   0  0  0  0  0  0  0  0  0  0  0  0
  2  1  1  1
  2  5  1  0
  2  3  1  0
  3  4  1  0
  5  6  2  0
  7  8  1  0
  8  9  2  0
  8 10  1  0
 10 11  1  0
 11 12  1  0
 12 13  1  0
 14 13  1  6
 14 16  1  0
 15  5  1  0
 15 14  1  0
 16 18  1  0
 16 17  2  0
 18 19  1  0
 20 19  1  0
 20 21  1  0
 22 20  2  0
M  END
$$$$
