CRG.pdb
     RDKit          3D

 22 21  0  0  1  0  0  0  0  0999 V2000
   26.1065  -22.7822  -16.4294 N   0  0  0  0  0  0  0  0  0  0  0  0
   26.1786  -21.4457  -15.9068 C   0  0  1  0  0  0  0  0  0  0  0  0
   27.4282  -20.7857  -16.4587 C   0  0  0  0  0  0  0  0  0  0  0  0
   28.9020  -21.5743  -15.7864 S   0  0  0  0  0  0  0  0  0  0  0  0
   25.0154  -20.6223  -16.3758 C   0  0  0  0  0  0  0  0  0  0  0  0
   24.4352  -20.8999  -17.4711 O   0  0  0  0  0  0  0  0  0  0  0  0
   18.3104  -19.9518  -16.4631 N   0  0  0  0  0  0  0  0  0  0  0  0
   18.1658  -18.5505  -16.2661 C   0  0  0  0  0  0  0  0  0  0  0  0
   17.1154  -17.8974  -16.6001 N   0  0  0  0  0  0  0  0  0  0  0  0
   19.2755  -17.8702  -15.6595 N   0  0  0  0  0  0  0  0  0  0  0  0
   20.5003  -18.5654  -15.4320 C   0  0  0  0  0  0  0  0  0  0  0  0
   21.4972  -17.5724  -14.8354 C   0  0  0  0  0  0  0  0  0  0  0  0
   22.7852  -18.3188  -14.6654 C   0  0  0  0  0  0  0  0  0  0  0  0
   23.4461  -18.7313  -15.9414 C   0  0  2  0  0  0  0  0  0  0  0  0
   24.6051  -19.5459  -15.5578 N   0  0  0  0  0  0  0  0  0  0  0  0
   23.9245  -17.5766  -16.6954 C   0  0  0  0  0  0  0  0  0  0  0  0
   24.8331  -16.8532  -16.2235 O   0  0  0  0  0  0  0  0  0  0  0  0
   17.0521  -16.8800  -16.3415 N   0  0  0  0  0  0  0  0  0  0  0  0
   23.3692  -17.2489  -17.9807 C   0  0  0  0  0  0  0  0  0  0  0  0
   23.8653  -16.0540  -18.6125 C   0  0  0  0  0  0  0  0  0  0  0  0
   22.8431  -15.0084  -18.7624 O   0  0  0  0  0  0  0  0  0  0  0  0
   23.0285  -13.7957  -19.4051 O   0  0  0  0  0  0  0  0  0  0  0  0
  2  1  1  6
  2  5  1  0
  2  3  1  0
  3  4  1  0
  5  6  2  0
  7  8  1  0
  8  9  2  0
  8 10  1  0
 10 11  1  0
 11 12  1  0
 12 13  1  0
 14 13  1  1
 14 16  1  0
 15  5  1  0
 15 14  1  0
 16 18  1  0
 16 17  2  0
 18 19  1  0
 20 19  1  0
 20 21  1  0
 22 20  2  0
M  END
$$$$
