CRG.pdb
     RDKit          3D

 22 21  0  0  1  0  0  0  0  0999 V2000
   21.2243   -8.8717  -11.9492 N   0  0  0  0  0  0  0  0  0  0  0  0
   20.8617   -7.7594  -12.7834 C   0  0  1  0  0  0  0  0  0  0  0  0
   20.9387   -8.2056  -14.2315 C   0  0  0  0  0  0  0  0  0  0  0  0
   22.5570   -8.9151  -14.5829 S   0  0  0  0  0  0  0  0  0  0  0  0
   19.4412   -7.3442  -12.5371 C   0  0  0  0  0  0  0  0  0  0  0  0
   18.9366   -6.3746  -13.1842 O   0  0  0  0  0  0  0  0  0  0  0  0
   12.8929  -12.2287   -9.9473 N   0  0  0  0  0  0  0  0  0  0  0  0
   12.3660  -10.9648   -9.5624 C   0  0  0  0  0  0  0  0  0  0  0  0
   11.1834  -10.8079   -9.0950 N   0  0  0  0  0  0  0  0  0  0  0  0
   13.2347   -9.8325   -9.7210 N   0  0  0  0  0  0  0  0  0  0  0  0
   14.5653  -10.0162  -10.2017 C   0  0  0  0  0  0  0  0  0  0  0  0
   15.2006   -8.6348  -10.3576 C   0  0  0  0  0  0  0  0  0  0  0  0
   16.6059   -8.8673  -10.8225 C   0  0  0  0  0  0  0  0  0  0  0  0
   17.3589   -7.6296  -11.1917 C   0  0  2  0  0  0  0  0  0  0  0  0
   18.7071   -8.0682  -11.5712 N   0  0  0  0  0  0  0  0  0  0  0  0
   17.4741   -6.7142  -10.0606 C   0  0  0  0  0  0  0  0  0  0  0  0
   18.2645   -6.9737   -9.1229 O   0  0  0  0  0  0  0  0  0  0  0  0
   10.8535   -9.8332   -8.8777 N   0  0  0  0  0  0  0  0  0  0  0  0
   16.6915   -5.5094   -9.9995 C   0  0  0  0  0  0  0  0  0  0  0  0
   16.8443   -4.6996   -8.8188 C   0  0  0  0  0  0  0  0  0  0  0  0
   16.0162   -3.4853   -8.8358 O   0  0  0  0  0  0  0  0  0  0  0  0
   15.8246   -2.6336   -7.7606 O   0  0  0  0  0  0  0  0  0  0  0  0
  2  1  1  1
  2  5  1  0
  2  3  1  0
  3  4  1  0
  5  6  2  0
  7  8  1  0
  8  9  2  0
  8 10  1  0
 10 11  1  0
 11 12  1  0
 12 13  1  0
 14 13  1  1
 14 16  1  0
 15  5  1  0
 15 14  1  0
 16 18  1  0
 16 17  2  0
 18 19  1  0
 20 19  1  0
 20 21  1  0
 22 20  2  0
M  END
$$$$
