CSN.pdb
     RDKit          3D

 21 20  0  0  1  0  0  0  0  0999 V2000
   20.7798  -12.0878  -16.8672 N   0  0  0  0  0  0  0  0  0  0  0  0
   21.4724  -10.8721  -17.2312 C   0  0  1  0  0  0  0  0  0  0  0  0
   21.4429  -10.7541  -18.7579 C   0  0  0  0  0  0  0  0  0  0  0  0
   22.5954  -11.9741  -19.4576 S   0  0  0  0  0  0  0  0  0  0  0  0
   20.7221   -9.7222  -16.7070 C   0  0  0  0  0  0  0  0  0  0  0  0
   19.5035   -9.5877  -17.0195 O   0  0  0  0  0  0  0  0  0  0  0  0
   21.6545   -7.9531  -13.3067 O   0  0  0  0  0  0  0  0  0  0  0  0
   20.4324   -7.7480  -13.9057 C   0  0  0  0  0  0  0  0  0  0  0  0
   20.5649   -7.6412  -15.4116 C   0  0  2  0  0  0  0  0  0  0  0  0
   21.3589   -8.7799  -15.8636 N   0  0  0  0  0  0  0  0  0  0  0  0
   21.3353   -6.3854  -15.6832 C   0  0  0  0  0  0  0  0  0  0  0  0
   22.4830   -6.4297  -16.1957 O   0  0  0  0  0  0  0  0  0  0  0  0
   22.8495   -1.5250  -16.4093 N   0  0  0  0  0  0  0  0  0  0  0  0
   22.6519   -2.5145  -17.3954 C   0  0  0  0  0  0  0  0  0  0  0  0
   23.0363   -2.2924  -18.5633 O   0  0  0  0  0  0  0  0  0  0  0  0
   22.0088   -3.7760  -17.0536 C   0  0  0  0  0  0  0  0  0  0  0  0
   21.5449   -3.8790  -15.6230 C   0  0  2  0  0  0  0  0  0  0  0  0
   20.8105   -5.1036  -15.3779 N   0  0  0  0  0  0  0  0  0  0  0  0
   20.6829   -2.7530  -15.2206 C   0  0  0  0  0  0  0  0  0  0  0  0
   19.3794   -2.9276  -14.7796 O   0  0  0  0  0  0  0  0  0  0  0  0
   21.1129   -1.5722  -15.2658 O   0  0  0  0  0  0  0  0  0  0  0  0
  2  5  1  0
  2  1  1  6
  3  2  1  0
  4  3  1  0
  5  6  2  0
  8  7  1  0
  9  8  1  1
 10  9  1  0
 10  5  1  0
 11  9  1  0
 11 12  2  0
 13 14  1  0
 14 16  1  0
 14 15  2  0
 17 16  1  6
 17 18  1  0
 17 19  1  0
 18 11  1  0
 19 21  2  0
 19 20  1  0
M  END
$$$$
