CSN.pdb
     RDKit          3D

 21 20  0  0  1  0  0  0  0  0999 V2000
   22.8623  -10.9103  -18.3453 N   0  0  0  0  0  0  0  0  0  0  0  0
   21.4258  -11.0504  -18.4288 C   0  0  1  0  0  0  0  0  0  0  0  0
   21.0581  -12.4400  -17.9002 C   0  0  0  0  0  0  0  0  0  0  0  0
   21.8550  -13.6915  -18.9513 S   0  0  0  0  0  0  0  0  0  0  0  0
   20.7997  -10.0775  -17.5226 C   0  0  0  0  0  0  0  0  0  0  0  0
   19.5382  -10.0429  -17.4325 O   0  0  0  0  0  0  0  0  0  0  0  0
   21.0430   -7.0926  -13.8543 O   0  0  0  0  0  0  0  0  0  0  0  0
   21.6687   -7.9949  -14.6841 C   0  0  0  0  0  0  0  0  0  0  0  0
   20.9146   -8.1630  -15.9880 C   0  0  2  0  0  0  0  0  0  0  0  0
   21.6018   -9.1925  -16.7622 N   0  0  0  0  0  0  0  0  0  0  0  0
   21.0314   -6.8602  -16.7183 C   0  0  0  0  0  0  0  0  0  0  0  0
   21.9938   -6.6407  -17.4977 O   0  0  0  0  0  0  0  0  0  0  0  0
   19.7953   -3.2484  -20.5875 N   0  0  0  0  0  0  0  0  0  0  0  0
   19.3238   -3.3051  -19.2590 C   0  0  0  0  0  0  0  0  0  0  0  0
   18.9051   -2.2592  -18.7187 O   0  0  0  0  0  0  0  0  0  0  0  0
   19.3263   -4.5664  -18.5304 C   0  0  0  0  0  0  0  0  0  0  0  0
   20.1601   -4.5666  -17.2745 C   0  0  2  0  0  0  0  0  0  0  0  0
   20.0722   -5.8268  -16.5653 N   0  0  0  0  0  0  0  0  0  0  0  0
   19.7762   -3.4975  -16.3351 C   0  0  0  0  0  0  0  0  0  0  0  0
   19.2573   -3.7578  -15.0753 O   0  0  0  0  0  0  0  0  0  0  0  0
   19.9106   -2.2887  -16.6544 O   0  0  0  0  0  0  0  0  0  0  0  0
  2  5  1  0
  2  1  1  1
  3  2  1  0
  4  3  1  0
  5  6  2  0
  8  7  1  0
  9  8  1  1
 10  9  1  0
 10  5  1  0
 11  9  1  0
 11 12  2  0
 13 14  1  0
 14 16  1  0
 14 15  2  0
 17 16  1  6
 17 18  1  0
 17 19  1  0
 18 11  1  0
 19 21  2  0
 19 20  1  0
M  END
$$$$
