CSN.pdb
     RDKit          3D

 21 20  0  0  1  0  0  0  0  0999 V2000
   14.0515  -11.1821  -13.6134 N   0  0  0  0  0  0  0  0  0  0  0  0
   15.0820  -10.3728  -13.0023 C   0  0  1  0  0  0  0  0  0  0  0  0
   16.0113  -11.3070  -12.2217 C   0  0  0  0  0  0  0  0  0  0  0  0
   15.1432  -11.8760  -10.7287 S   0  0  0  0  0  0  0  0  0  0  0  0
   15.8961   -9.7602  -14.0614 C   0  0  0  0  0  0  0  0  0  0  0  0
   15.7573  -10.1597  -15.2538 O   0  0  0  0  0  0  0  0  0  0  0  0
   15.8074   -6.3866  -14.8916 O   0  0  0  0  0  0  0  0  0  0  0  0
   16.4419   -7.3373  -15.6584 C   0  0  0  0  0  0  0  0  0  0  0  0
   17.4970   -8.0776  -14.8612 C   0  0  2  0  0  0  0  0  0  0  0  0
   16.8223   -8.7365  -13.7467 N   0  0  0  0  0  0  0  0  0  0  0  0
   18.4222   -7.0364  -14.3095 C   0  0  0  0  0  0  0  0  0  0  0  0
   18.1308   -6.4025  -13.2631 O   0  0  0  0  0  0  0  0  0  0  0  0
   21.1156   -7.9711  -12.5410 N   0  0  0  0  0  0  0  0  0  0  0  0
   22.1784   -7.5924  -13.3881 C   0  0  0  0  0  0  0  0  0  0  0  0
   23.2578   -8.2183  -13.3241 O   0  0  0  0  0  0  0  0  0  0  0  0
   22.0164   -6.4869  -14.3227 C   0  0  0  0  0  0  0  0  0  0  0  0
   20.6457   -5.8595  -14.3246 C   0  0  2  0  0  0  0  0  0  0  0  0
   19.6553   -6.7222  -14.9359 N   0  0  0  0  0  0  0  0  0  0  0  0
   20.6110   -4.5674  -15.0330 C   0  0  0  0  0  0  0  0  0  0  0  0
   21.1131   -3.3974  -14.4824 O   0  0  0  0  0  0  0  0  0  0  0  0
   20.1137   -4.4841  -16.1849 O   0  0  0  0  0  0  0  0  0  0  0  0
  2  5  1  0
  2  1  1  6
  3  2  1  0
  4  3  1  0
  5  6  2  0
  8  7  1  0
  9  8  1  6
 10  9  1  0
 10  5  1  0
 11  9  1  0
 11 12  2  0
 13 14  1  0
 14 16  1  0
 14 15  2  0
 17 16  1  6
 17 18  1  0
 17 19  1  0
 18 11  1  0
 19 21  2  0
 19 20  1  0
M  END
$$$$
