CSN.pdb
     RDKit          3D

 21 20  0  0  1  0  0  0  0  0999 V2000
   24.9616  -13.9140  -17.4296 N   0  0  0  0  0  0  0  0  0  0  0  0
   24.5120  -13.3898  -16.1595 C   0  0  1  0  0  0  0  0  0  0  0  0
   25.7251  -12.7879  -15.4441 C   0  0  0  0  0  0  0  0  0  0  0  0
   26.8593  -14.1346  -14.9898 S   0  0  0  0  0  0  0  0  0  0  0  0
   23.5781  -12.2822  -16.4060 C   0  0  0  0  0  0  0  0  0  0  0  0
   23.7415  -11.5547  -17.4282 O   0  0  0  0  0  0  0  0  0  0  0  0
   19.1705  -10.6361  -15.7587 O   0  0  0  0  0  0  0  0  0  0  0  0
   20.1747  -11.5022  -15.3905 C   0  0  0  0  0  0  0  0  0  0  0  0
   21.5233  -11.0350  -15.9004 C   0  0  2  0  0  0  0  0  0  0  0  0
   22.5110  -12.0362  -15.5086 N   0  0  0  0  0  0  0  0  0  0  0  0
   21.8302   -9.7564  -15.1824 C   0  0  0  0  0  0  0  0  0  0  0  0
   22.3829   -9.7667  -14.0527 O   0  0  0  0  0  0  0  0  0  0  0  0
   23.3192   -3.9415  -15.9268 N   0  0  0  0  0  0  0  0  0  0  0  0
   23.0263   -5.0903  -15.1621 C   0  0  0  0  0  0  0  0  0  0  0  0
   23.0462   -5.0105  -13.9154 O   0  0  0  0  0  0  0  0  0  0  0  0
   22.7055   -6.3500  -15.8195 C   0  0  0  0  0  0  0  0  0  0  0  0
   21.7725   -7.2451  -15.0446 C   0  0  2  0  0  0  0  0  0  0  0  0
   21.5148   -8.4905  -15.7385 N   0  0  0  0  0  0  0  0  0  0  0  0
   20.4713   -6.6099  -14.7684 C   0  0  0  0  0  0  0  0  0  0  0  0
   20.2591   -5.7807  -13.6769 O   0  0  0  0  0  0  0  0  0  0  0  0
   19.4911   -6.8049  -15.5316 O   0  0  0  0  0  0  0  0  0  0  0  0
  2  5  1  0
  2  1  1  6
  3  2  1  0
  4  3  1  0
  5  6  2  0
  8  7  1  0
  9  8  1  1
 10  9  1  0
 10  5  1  0
 11  9  1  0
 11 12  2  0
 13 14  1  0
 14 16  1  0
 14 15  2  0
 17 16  1  6
 17 18  1  0
 17 19  1  0
 18 11  1  0
 19 21  2  0
 19 20  1  0
M  END
$$$$
