CSN.pdb
     RDKit          3D

 21 20  0  0  1  0  0  0  0  0999 V2000
   15.9682  -14.3227  -15.4356 N   0  0  0  0  0  0  0  0  0  0  0  0
   15.8936  -12.9241  -15.7941 C   0  0  1  0  0  0  0  0  0  0  0  0
   14.5215  -12.4006  -15.3593 C   0  0  0  0  0  0  0  0  0  0  0  0
   13.2881  -12.9050  -16.5964 S   0  0  0  0  0  0  0  0  0  0  0  0
   16.8929  -12.1796  -15.0151 C   0  0  0  0  0  0  0  0  0  0  0  0
   17.1967  -12.5848  -13.8557 O   0  0  0  0  0  0  0  0  0  0  0  0
   20.7086   -9.4327  -14.9366 O   0  0  0  0  0  0  0  0  0  0  0  0
   19.7016  -10.0621  -15.6326 C   0  0  0  0  0  0  0  0  0  0  0  0
   18.5099  -10.3510  -14.7419 C   0  0  2  0  0  0  0  0  0  0  0  0
   17.5050  -11.0245  -15.5591 N   0  0  0  0  0  0  0  0  0  0  0  0
   17.9649   -9.0221  -14.3158 C   0  0  0  0  0  0  0  0  0  0  0  0
   17.3037   -8.3093  -15.1136 O   0  0  0  0  0  0  0  0  0  0  0  0
   17.1574   -5.5465   -9.2080 N   0  0  0  0  0  0  0  0  0  0  0  0
   16.9892   -5.9038  -10.5625 C   0  0  0  0  0  0  0  0  0  0  0  0
   16.3628   -5.1326  -11.3200 O   0  0  0  0  0  0  0  0  0  0  0  0
   17.5391   -7.1546  -11.0674 C   0  0  0  0  0  0  0  0  0  0  0  0
   17.6277   -7.2426  -12.5696 C   0  0  2  0  0  0  0  0  0  0  0  0
   18.1679   -8.5136  -13.0074 N   0  0  0  0  0  0  0  0  0  0  0  0
   18.4613   -6.1773  -13.1551 C   0  0  0  0  0  0  0  0  0  0  0  0
   17.9261   -5.0094  -13.6784 O   0  0  0  0  0  0  0  0  0  0  0  0
   19.7123   -6.2973  -13.1992 O   0  0  0  0  0  0  0  0  0  0  0  0
  2  5  1  0
  2  1  1  1
  3  2  1  0
  4  3  1  0
  5  6  2  0
  8  7  1  0
  9  8  1  6
 10  9  1  0
 10  5  1  0
 11  9  1  0
 11 12  2  0
 13 14  1  0
 14 16  1  0
 14 15  2  0
 17 16  1  1
 17 18  1  0
 17 19  1  0
 18 11  1  0
 19 21  2  0
 19 20  1  0
M  END
$$$$
