CSN.pdb
     RDKit          3D

 21 20  0  0  1  0  0  0  0  0999 V2000
   17.6568  -14.3843  -16.4844 N   0  0  0  0  0  0  0  0  0  0  0  0
   16.9052  -13.2645  -15.9635 C   0  0  1  0  0  0  0  0  0  0  0  0
   17.0609  -13.2626  -14.4399 C   0  0  0  0  0  0  0  0  0  0  0  0
   16.2373  -14.7386  -13.7695 S   0  0  0  0  0  0  0  0  0  0  0  0
   17.5123  -12.0173  -16.4489 C   0  0  0  0  0  0  0  0  0  0  0  0
   18.7689  -11.9552  -16.5822 O   0  0  0  0  0  0  0  0  0  0  0  0
   16.8307   -7.6250  -18.3163 O   0  0  0  0  0  0  0  0  0  0  0  0
   16.2871   -8.7480  -17.7350 C   0  0  0  0  0  0  0  0  0  0  0  0
   17.3644   -9.7067  -17.2691 C   0  0  2  0  0  0  0  0  0  0  0  0
   16.6976  -10.9024  -16.7620 N   0  0  0  0  0  0  0  0  0  0  0  0
   18.0686   -9.0348  -16.1302 C   0  0  0  0  0  0  0  0  0  0  0  0
   17.6190   -9.1102  -14.9580 O   0  0  0  0  0  0  0  0  0  0  0  0
   21.4930   -6.5038  -13.1810 N   0  0  0  0  0  0  0  0  0  0  0  0
   21.8307   -7.8040  -13.6121 C   0  0  0  0  0  0  0  0  0  0  0  0
   22.7927   -8.3912  -13.0729 O   0  0  0  0  0  0  0  0  0  0  0  0
   21.0668   -8.4499  -14.6709 C   0  0  0  0  0  0  0  0  0  0  0  0
   19.9444   -7.6169  -15.2356 C   0  0  2  0  0  0  0  0  0  0  0  0
   19.2614   -8.2914  -16.3207 N   0  0  0  0  0  0  0  0  0  0  0  0
   20.4025   -6.3097  -15.7399 C   0  0  0  0  0  0  0  0  0  0  0  0
   20.6739   -5.2372  -14.9031 O   0  0  0  0  0  0  0  0  0  0  0  0
   20.5649   -6.1225  -16.9727 O   0  0  0  0  0  0  0  0  0  0  0  0
  2  5  1  0
  2  1  1  6
  3  2  1  0
  4  3  1  0
  5  6  2  0
  8  7  1  0
  9  8  1  1
 10  9  1  0
 10  5  1  0
 11  9  1  0
 11 12  2  0
 13 14  1  0
 14 16  1  0
 14 15  2  0
 17 16  1  6
 17 18  1  0
 17 19  1  0
 18 11  1  0
 19 21  2  0
 19 20  1  0
M  END
$$$$
