CSN.pdb
     RDKit          3D

 21 20  0  0  1  0  0  0  0  0999 V2000
   26.7361  -21.8898  -10.8223 N   0  0  0  0  0  0  0  0  0  0  0  0
   25.4244  -21.2960  -10.6915 C   0  0  1  0  0  0  0  0  0  0  0  0
   25.6030  -19.8822  -10.1301 C   0  0  0  0  0  0  0  0  0  0  0  0
   26.0282  -20.0065   -8.3666 S   0  0  0  0  0  0  0  0  0  0  0  0
   24.8353  -21.1448  -12.0293 C   0  0  0  0  0  0  0  0  0  0  0  0
   25.5884  -21.2041  -13.0443 O   0  0  0  0  0  0  0  0  0  0  0  0
   21.0922  -19.6826  -12.5103 O   0  0  0  0  0  0  0  0  0  0  0  0
   21.4187  -20.6507  -13.4324 C   0  0  0  0  0  0  0  0  0  0  0  0
   22.9196  -20.8340  -13.5349 C   0  0  2  0  0  0  0  0  0  0  0  0
   23.4426  -20.9357  -12.1757 N   0  0  0  0  0  0  0  0  0  0  0  0
   23.4593  -19.5845  -14.1609 C   0  0  0  0  0  0  0  0  0  0  0  0
   23.8096  -18.6063  -13.4521 O   0  0  0  0  0  0  0  0  0  0  0  0
   25.7887  -16.3907  -17.5280 N   0  0  0  0  0  0  0  0  0  0  0  0
   26.4873  -17.3782  -16.8018 C   0  0  0  0  0  0  0  0  0  0  0  0
   27.7353  -17.3329  -16.7621 O   0  0  0  0  0  0  0  0  0  0  0  0
   25.7611  -18.4341  -16.1094 C   0  0  0  0  0  0  0  0  0  0  0  0
   24.2599  -18.3178  -16.1817 C   0  0  2  0  0  0  0  0  0  0  0  0
   23.5979  -19.4499  -15.5659 N   0  0  0  0  0  0  0  0  0  0  0  0
   23.7625  -18.2076  -17.5649 C   0  0  0  0  0  0  0  0  0  0  0  0
   23.1979  -17.0445  -18.0676 O   0  0  0  0  0  0  0  0  0  0  0  0
   23.8365  -19.1873  -18.3497 O   0  0  0  0  0  0  0  0  0  0  0  0
  2  5  1  0
  2  1  1  6
  3  2  1  0
  4  3  1  0
  5  6  2  0
  8  7  1  0
  9  8  1  1
 10  9  1  0
 10  5  1  0
 11  9  1  0
 11 12  2  0
 13 14  1  0
 14 16  1  0
 14 15  2  0
 17 16  1  6
 17 18  1  0
 17 19  1  0
 18 11  1  0
 19 21  2  0
 19 20  1  0
M  END
$$$$
