CSN.pdb
     RDKit          3D

 21 20  0  0  1  0  0  0  0  0999 V2000
   21.1270  -12.3607  -18.1120 N   0  0  0  0  0  0  0  0  0  0  0  0
   20.0215  -12.0474  -17.2346 C   0  0  1  0  0  0  0  0  0  0  0  0
   19.5365  -13.3564  -16.6046 C   0  0  0  0  0  0  0  0  0  0  0  0
   18.7977  -14.3892  -17.9061 S   0  0  0  0  0  0  0  0  0  0  0  0
   20.5122  -11.2081  -16.1325 C   0  0  0  0  0  0  0  0  0  0  0  0
   19.7159  -10.8817  -15.2052 O   0  0  0  0  0  0  0  0  0  0  0  0
   24.3228   -9.5679  -16.1795 O   0  0  0  0  0  0  0  0  0  0  0  0
   23.7868   -9.9244  -14.9630 C   0  0  0  0  0  0  0  0  0  0  0  0
   22.2718   -9.9192  -15.0028 C   0  0  2  0  0  0  0  0  0  0  0  0
   21.8594  -10.7727  -16.1131 N   0  0  0  0  0  0  0  0  0  0  0  0
   21.8587   -8.5112  -15.3052 C   0  0  0  0  0  0  0  0  0  0  0  0
   21.7012   -8.1250  -16.4917 O   0  0  0  0  0  0  0  0  0  0  0  0
   19.5057   -3.8808  -16.0235 N   0  0  0  0  0  0  0  0  0  0  0  0
   19.4531   -4.5320  -14.7730 C   0  0  0  0  0  0  0  0  0  0  0  0
   19.0731   -3.8905  -13.7704 O   0  0  0  0  0  0  0  0  0  0  0  0
   19.8369   -5.9323  -14.6557 C   0  0  0  0  0  0  0  0  0  0  0  0
   21.3216   -6.1717  -14.5520 C   0  0  2  0  0  0  0  0  0  0  0  0
   21.6291   -7.5607  -14.2780 N   0  0  0  0  0  0  0  0  0  0  0  0
   21.9584   -5.3574  -13.5012 C   0  0  0  0  0  0  0  0  0  0  0  0
   22.1878   -3.9968  -13.6436 O   0  0  0  0  0  0  0  0  0  0  0  0
   22.3217   -5.8834  -12.4184 O   0  0  0  0  0  0  0  0  0  0  0  0
  2  5  1  0
  2  1  1  6
  3  2  1  0
  4  3  1  0
  5  6  2  0
  8  7  1  0
  9  8  1  6
 10  9  1  0
 10  5  1  0
 11  9  1  0
 11 12  2  0
 13 14  1  0
 14 16  1  0
 14 15  2  0
 17 16  1  1
 17 18  1  0
 17 19  1  0
 18 11  1  0
 19 21  2  0
 19 20  1  0
M  END
$$$$
