RNG.pdb
     RDKit          3D

 24 23  0  0  1  0  0  0  0  0999 V2000
    8.2008  -11.5444   19.4861 N   0  0  0  0  0  0  0  0  0  0  0  0
    8.6938  -12.8126   19.0174 C   0  0  0  0  0  0  0  0  0  0  0  0
    9.9532  -12.9239   18.7894 N   0  0  0  0  0  0  0  0  0  0  0  0
    7.8569  -13.9176   18.8036 N   0  0  0  0  0  0  0  0  0  0  0  0
    7.4759  -14.8375   19.8618 C   0  0  0  0  0  0  0  0  0  0  0  0
    7.0559  -14.0982   21.1104 C   0  0  0  0  0  0  0  0  0  0  0  0
    6.6552  -15.0539   22.2139 C   0  0  0  0  0  0  0  0  0  0  0  0
    7.6655  -16.1321   22.4326 C   0  0  2  0  0  0  0  0  0  0  0  0
    7.4237  -17.3239   21.6682 N   0  0  0  0  0  0  0  0  0  0  0  0
    7.8498  -16.4263   23.8830 C   0  0  0  0  0  0  0  0  0  0  0  0
    8.0770  -15.4839   24.6534 O   0  0  0  0  0  0  0  0  0  0  0  0
   10.3804  -13.7756   18.3948 N   0  0  0  0  0  0  0  0  0  0  0  0
    7.2693  -18.6416   28.7776 C   0  0  0  0  0  0  0  0  0  0  0  0
    7.3277  -19.5188   27.6705 O   0  0  0  0  0  0  0  0  0  0  0  0
    7.6172  -20.7331   27.9623 C   0  0  0  0  0  0  0  0  0  0  0  0
    7.0842  -19.1208   26.2725 C   0  0  1  0  0  0  0  0  0  0  0  0
    8.0428  -18.0958   25.7450 N   0  0  0  0  0  0  0  0  0  0  0  0
    7.7690  -17.7621   24.3879 C   0  0  0  0  0  0  0  0  0  0  0  0
    9.4604  -18.4221   26.0338 O   0  0  0  0  0  0  0  0  0  0  0  0
    9.8178  -18.5721   27.2299 N   0  0  0  0  0  0  0  0  0  0  0  0
   10.4321  -18.5709   25.0134 C   0  0  0  0  0  0  0  0  0  0  0  0
   11.8150  -18.9123   25.2610 C   0  0  0  0  0  0  0  0  0  0  0  0
   12.7370  -17.7726   25.2190 O   0  0  0  0  0  0  0  0  0  0  0  0
   12.3483  -16.6146   24.9831 O   0  0  0  0  0  0  0  0  0  0  0  0
  1  2  1  0
  2  3  2  0
  4  2  1  0
  5  4  1  0
  6  5  1  0
  7  6  1  0
  7  8  1  0
  8  9  1  6
  8 10  1  0
 10 11  2  0
 13 12  1  0
 13 15  1  0
 14 13  2  0
 16 15  1  1
 17 10  1  0
 17 16  1  0
 18 16  1  0
 18 20  1  0
 19 18  2  0
 21 20  1  0
 22 21  1  0
 22 24  1  0
 23 22  2  0
M  END
$$$$
