RNG.pdb
     RDKit          3D

 24 23  0  0  1  0  0  0  0  0999 V2000
    8.5093  -14.8365   16.6286 N   0  0  0  0  0  0  0  0  0  0  0  0
    8.5200  -13.4145   16.8503 C   0  0  0  0  0  0  0  0  0  0  0  0
    8.0374  -12.6567   15.9321 N   0  0  0  0  0  0  0  0  0  0  0  0
    9.0329  -12.8349   18.0199 N   0  0  0  0  0  0  0  0  0  0  0  0
    9.5296  -13.6180   19.1385 C   0  0  0  0  0  0  0  0  0  0  0  0
   10.5251  -14.6592   18.6837 C   0  0  0  0  0  0  0  0  0  0  0  0
   11.6225  -14.8631   19.7063 C   0  0  0  0  0  0  0  0  0  0  0  0
   11.3585  -16.0260   20.6057 C   0  0  2  0  0  0  0  0  0  0  0  0
   10.8912  -17.1997   19.9222 N   0  0  0  0  0  0  0  0  0  0  0  0
   10.4698  -15.6504   21.7430 C   0  0  0  0  0  0  0  0  0  0  0  0
    9.8197  -14.5996   21.6635 O   0  0  0  0  0  0  0  0  0  0  0  0
    8.0748  -11.6269   15.9751 N   0  0  0  0  0  0  0  0  0  0  0  0
    8.0624  -14.0505   22.5832 C   0  0  0  0  0  0  0  0  0  0  0  0
    7.4048  -15.3020   22.5864 O   0  0  0  0  0  0  0  0  0  0  0  0
    6.2533  -15.3049   22.0229 C   0  0  0  0  0  0  0  0  0  0  0  0
    7.9542  -16.5356   23.1767 C   0  0  2  0  0  0  0  0  0  0  0  0
    9.2890  -16.3641   23.8377 N   0  0  0  0  0  0  0  0  0  0  0  0
   10.3605  -16.4754   22.9063 C   0  0  0  0  0  0  0  0  0  0  0  0
    9.4404  -17.1840   25.0642 O   0  0  0  0  0  0  0  0  0  0  0  0
    8.6626  -16.9804   26.0308 N   0  0  0  0  0  0  0  0  0  0  0  0
   10.4300  -18.1899   25.1920 C   0  0  0  0  0  0  0  0  0  0  0  0
   11.6281  -18.0453   25.9880 C   0  0  0  0  0  0  0  0  0  0  0  0
   12.4679  -19.2464   26.0420 O   0  0  0  0  0  0  0  0  0  0  0  0
   12.3557  -20.1708   25.2170 O   0  0  0  0  0  0  0  0  0  0  0  0
  1  2  1  0
  2  3  2  0
  4  2  1  0
  5  4  1  0
  6  5  1  0
  7  6  1  0
  7  8  1  0
  8  9  1  6
  8 10  1  0
 10 11  2  0
 13 12  1  0
 13 15  1  0
 14 13  2  0
 16 15  1  6
 17 10  1  0
 17 16  1  0
 18 16  1  0
 18 20  1  0
 19 18  2  0
 21 20  1  0
 22 21  1  0
 22 24  1  0
 23 22  2  0
M  END
$$$$
