RNG.pdb
     RDKit          3D

 24 23  0  0  1  0  0  0  0  0999 V2000
    8.1574  -15.6278   15.3313 N   0  0  0  0  0  0  0  0  0  0  0  0
    8.2649  -14.4544   16.1577 C   0  0  0  0  0  0  0  0  0  0  0  0
    8.1670  -13.3057   15.5907 N   0  0  0  0  0  0  0  0  0  0  0  0
    8.4701  -14.5210   17.5435 N   0  0  0  0  0  0  0  0  0  0  0  0
    7.4145  -14.8558   18.4841 C   0  0  0  0  0  0  0  0  0  0  0  0
    7.4621  -13.9680   19.7054 C   0  0  0  0  0  0  0  0  0  0  0  0
    8.8212  -14.0102   20.3705 C   0  0  0  0  0  0  0  0  0  0  0  0
    8.8736  -14.9797   21.5056 C   0  0  2  0  0  0  0  0  0  0  0  0
    7.8544  -15.9907   21.4588 N   0  0  0  0  0  0  0  0  0  0  0  0
    8.9083  -14.2816   22.8231 C   0  0  0  0  0  0  0  0  0  0  0  0
    9.7511  -13.3918   22.9991 O   0  0  0  0  0  0  0  0  0  0  0  0
    8.2837  -12.4158   16.0988 N   0  0  0  0  0  0  0  0  0  0  0  0
    5.5986  -12.3195   27.5328 C   0  0  0  0  0  0  0  0  0  0  0  0
    6.7056  -12.4989   26.6719 O   0  0  0  0  0  0  0  0  0  0  0  0
    7.7654  -11.8680   27.0215 C   0  0  0  0  0  0  0  0  0  0  0  0
    6.6955  -13.3329   25.4569 C   0  0  2  0  0  0  0  0  0  0  0  0
    8.0074  -13.9887   25.1456 N   0  0  0  0  0  0  0  0  0  0  0  0
    7.9948  -14.6216   23.8700 C   0  0  0  0  0  0  0  0  0  0  0  0
    8.5141  -14.8317   26.2556 O   0  0  0  0  0  0  0  0  0  0  0  0
    8.5880  -14.3371   27.4092 N   0  0  0  0  0  0  0  0  0  0  0  0
    8.9210  -16.1759   26.0683 C   0  0  0  0  0  0  0  0  0  0  0  0
    9.4441  -17.0142   27.1237 C   0  0  0  0  0  0  0  0  0  0  0  0
    9.8198  -18.3651   26.6940 O   0  0  0  0  0  0  0  0  0  0  0  0
    9.8655  -18.6898   25.4939 O   0  0  0  0  0  0  0  0  0  0  0  0
  1  2  1  0
  2  3  2  0
  4  2  1  0
  5  4  1  0
  6  5  1  0
  7  6  1  0
  7  8  1  0
  8  9  1  1
  8 10  1  0
 10 11  2  0
 13 12  1  0
 13 15  1  0
 14 13  2  0
 16 15  1  6
 17 10  1  0
 17 16  1  0
 18 16  1  0
 18 20  1  0
 19 18  2  0
 21 20  1  0
 22 21  1  0
 22 24  1  0
 23 22  2  0
M  END
$$$$
