RNG.pdb
     RDKit          3D

 24 23  0  0  1  0  0  0  0  0999 V2000
    9.0529  -14.1276   17.8512 N   0  0  0  0  0  0  0  0  0  0  0  0
    8.0416  -13.3277   18.4905 C   0  0  0  0  0  0  0  0  0  0  0  0
    8.0339  -12.0644   18.2568 N   0  0  0  0  0  0  0  0  0  0  0  0
    7.0762  -13.8731   19.3492 N   0  0  0  0  0  0  0  0  0  0  0  0
    7.4158  -14.6470   20.5311 C   0  0  0  0  0  0  0  0  0  0  0  0
    8.9061  -14.8718   20.6336 C   0  0  0  0  0  0  0  0  0  0  0  0
    9.4020  -14.6738   22.0500 C   0  0  0  0  0  0  0  0  0  0  0  0
    9.7224  -15.9643   22.7304 C   0  0  2  0  0  0  0  0  0  0  0  0
    9.2416  -17.1264   22.0365 N   0  0  0  0  0  0  0  0  0  0  0  0
    9.2985  -15.9518   24.1602 C   0  0  0  0  0  0  0  0  0  0  0  0
    9.4902  -14.9249   24.8250 O   0  0  0  0  0  0  0  0  0  0  0  0
    7.3122  -11.4280   18.6279 N   0  0  0  0  0  0  0  0  0  0  0  0
    6.4317  -19.8753   25.7196 C   0  0  0  0  0  0  0  0  0  0  0  0
    6.3055  -18.5083   25.3820 O   0  0  0  0  0  0  0  0  0  0  0  0
    5.7382  -18.2838   24.2546 C   0  0  0  0  0  0  0  0  0  0  0  0
    6.7722  -17.3912   26.2226 C   0  0  1  0  0  0  0  0  0  0  0  0
    8.2411  -17.1096   26.1179 N   0  0  0  0  0  0  0  0  0  0  0  0
    8.6829  -17.0929   24.7642 C   0  0  0  0  0  0  0  0  0  0  0  0
    9.0597  -17.9433   27.0313 O   0  0  0  0  0  0  0  0  0  0  0  0
    8.7593  -17.9818   28.2516 N   0  0  0  0  0  0  0  0  0  0  0  0
   10.1711  -18.6996   26.5837 C   0  0  0  0  0  0  0  0  0  0  0  0
   11.4994  -18.5890   27.1437 C   0  0  0  0  0  0  0  0  0  0  0  0
   12.5074  -19.4227   26.4807 O   0  0  0  0  0  0  0  0  0  0  0  0
   12.2535  -20.0790   25.4547 O   0  0  0  0  0  0  0  0  0  0  0  0
  1  2  1  0
  2  3  2  0
  4  2  1  0
  5  4  1  0
  6  5  1  0
  7  6  1  0
  7  8  1  0
  8  9  1  6
  8 10  1  0
 10 11  2  0
 13 12  1  0
 13 15  1  0
 14 13  2  0
 16 15  1  6
 17 10  1  0
 17 16  1  0
 18 16  1  0
 18 20  1  0
 19 18  2  0
 21 20  1  0
 22 21  1  0
 22 24  1  0
 23 22  2  0
M  END
$$$$
