RNG.pdb
     RDKit          3D

 24 23  0  0  1  0  0  0  0  0999 V2000
    8.9879  -14.8353   15.9302 N   0  0  0  0  0  0  0  0  0  0  0  0
    8.1530  -13.9168   16.6586 C   0  0  0  0  0  0  0  0  0  0  0  0
    8.4372  -12.6653   16.5990 N   0  0  0  0  0  0  0  0  0  0  0  0
    7.0534  -14.3358   17.4216 N   0  0  0  0  0  0  0  0  0  0  0  0
    7.1656  -14.7489   18.8100 C   0  0  0  0  0  0  0  0  0  0  0  0
    6.9938  -13.5784   19.7493 C   0  0  0  0  0  0  0  0  0  0  0  0
    7.0501  -14.0150   21.1977 C   0  0  0  0  0  0  0  0  0  0  0  0
    8.2209  -14.8970   21.4849 C   0  0  2  0  0  0  0  0  0  0  0  0
    8.1271  -16.2037   20.8960 N   0  0  0  0  0  0  0  0  0  0  0  0
    8.5146  -14.9620   22.9456 C   0  0  0  0  0  0  0  0  0  0  0  0
    8.6502  -13.9011   23.5694 O   0  0  0  0  0  0  0  0  0  0  0  0
    7.8831  -11.9391   17.0778 N   0  0  0  0  0  0  0  0  0  0  0  0
    6.0149  -18.3688   24.5437 C   0  0  0  0  0  0  0  0  0  0  0  0
    6.6554  -17.3455   25.2794 O   0  0  0  0  0  0  0  0  0  0  0  0
    5.9016  -16.3568   25.5921 C   0  0  0  0  0  0  0  0  0  0  0  0
    8.0735  -17.3639   25.6804 C   0  0  2  0  0  0  0  0  0  0  0  0
    8.9175  -16.3167   25.0178 N   0  0  0  0  0  0  0  0  0  0  0  0
    8.6396  -16.2146   23.6248 C   0  0  0  0  0  0  0  0  0  0  0  0
   10.3561  -16.4263   25.3609 O   0  0  0  0  0  0  0  0  0  0  0  0
   10.6864  -16.5270   26.5699 N   0  0  0  0  0  0  0  0  0  0  0  0
   11.3773  -16.4207   24.3787 C   0  0  0  0  0  0  0  0  0  0  0  0
   12.7900  -16.3943   24.6849 C   0  0  0  0  0  0  0  0  0  0  0  0
   13.6654  -16.4400   23.5091 O   0  0  0  0  0  0  0  0  0  0  0  0
   13.2183  -16.5654   22.3549 O   0  0  0  0  0  0  0  0  0  0  0  0
  1  2  1  0
  2  3  2  0
  4  2  1  0
  5  4  1  0
  6  5  1  0
  7  6  1  0
  7  8  1  0
  8  9  1  1
  8 10  1  0
 10 11  2  0
 13 12  1  0
 13 15  1  0
 14 13  2  0
 16 15  1  1
 17 10  1  0
 17 16  1  0
 18 16  1  0
 18 20  1  0
 19 18  2  0
 21 20  1  0
 22 21  1  0
 22 24  1  0
 23 22  2  0
M  END
$$$$
