WQS.pdb
     RDKit          3D

 30 31  0  0  1  0  0  0  0  0999 V2000
   21.2273  -13.0848  -16.8937 N   0  0  0  0  0  0  0  0  0  0  0  0
   20.8671  -11.8215  -17.5100 C   0  0  1  0  0  0  0  0  0  0  0  0
   20.0030  -11.9886  -18.7056 C   0  0  0  0  0  0  0  0  0  0  0  0
   20.5760  -12.7029  -19.8398 C   0  0  0  0  0  0  0  0  0  0  0  0
   20.6906  -14.0967  -19.9045 C   0  0  0  0  0  0  0  0  0  0  0  0
   21.2372  -14.4472  -21.0797 N   0  0  0  0  0  0  0  0  0  0  0  0
   21.4915  -13.3266  -21.8020 C   0  0  0  0  0  0  0  0  0  0  0  0
   22.0490  -13.2072  -23.0540 C   0  0  0  0  0  0  0  0  0  0  0  0
   22.2167  -11.9539  -23.5859 C   0  0  0  0  0  0  0  0  0  0  0  0
   21.8196  -10.8621  -22.8439 C   0  0  0  0  0  0  0  0  0  0  0  0
   21.2610  -11.0069  -21.5869 C   0  0  0  0  0  0  0  0  0  0  0  0
   21.0811  -12.2566  -21.0299 C   0  0  0  0  0  0  0  0  0  0  0  0
   20.4475  -10.7880  -16.5524 C   0  0  0  0  0  0  0  0  0  0  0  0
   19.6501  -11.0935  -15.6334 O   0  0  0  0  0  0  0  0  0  0  0  0
   23.9075   -5.9737  -15.2916 N   0  0  0  0  0  0  0  0  0  0  0  0
   22.8132   -5.6315  -14.4880 C   0  0  0  0  0  0  0  0  0  0  0  0
   22.8813   -4.6479  -13.7133 O   0  0  0  0  0  0  0  0  0  0  0  0
   21.5673   -6.4350  -14.5522 C   0  0  0  0  0  0  0  0  0  0  0  0
   21.7527   -7.5499  -15.5567 C   0  0  0  0  0  0  0  0  0  0  0  0
   20.5239   -8.3955  -15.7530 C   0  0  2  0  0  0  0  0  0  0  0  0
   20.9155   -9.4755  -16.6421 N   0  0  0  0  0  0  0  0  0  0  0  0
   19.3509   -7.6675  -16.2445 C   0  0  0  0  0  0  0  0  0  0  0  0
   19.1791   -7.3508  -17.4476 O   0  0  0  0  0  0  0  0  0  0  0  0
   14.7930   -6.2750  -15.2380 O   0  0  0  0  0  0  0  0  0  0  0  0
   15.9650   -6.9145  -14.8804 C   0  0  0  0  0  0  0  0  0  0  0  0
   17.1030   -6.5836  -15.8515 C   0  0  2  0  0  0  0  0  0  0  0  0
   18.2796   -7.2483  -15.3704 N   0  0  0  0  0  0  0  0  0  0  0  0
   17.2479   -5.1049  -15.8459 C   0  0  0  0  0  0  0  0  0  0  0  0
   17.9199   -4.6050  -14.9082 O   0  0  0  0  0  0  0  0  0  0  0  0
   16.7029   -4.2655  -16.7848 O   0  0  0  0  0  0  0  0  0  0  0  0
  2  1  1  1
  2  3  1  0
  3  4  1  0
  4  5  2  0
  5  6  1  0
  7  6  1  0
  8  7  2  0
  9  8  1  0
 10 11  1  0
 10  9  2  0
 11 12  2  0
 12  4  1  0
 12  7  1  0
 13  2  1  0
 13 21  1  0
 14 13  2  0
 16 15  1  0
 17 16  2  0
 18 16  1  0
 20 19  1  6
 19 18  1  0
 20 21  1  0
 22 20  1  0
 23 22  2  0
 25 24  1  0
 26 25  1  1
 26 28  1  0
 26 27  1  0
 27 22  1  0
 28 30  1  0
 29 28  2  0
M  END
$$$$
