WQS.pdb
     RDKit          3D

 30 31  0  0  1  0  0  0  0  0999 V2000
   22.4423  -13.9835  -16.1015 N   0  0  0  0  0  0  0  0  0  0  0  0
   22.8442  -12.7537  -16.7586 C   0  0  1  0  0  0  0  0  0  0  0  0
   23.6812  -12.9896  -17.9618 C   0  0  0  0  0  0  0  0  0  0  0  0
   24.8920  -13.7805  -17.7793 C   0  0  0  0  0  0  0  0  0  0  0  0
   25.1527  -14.9740  -18.4632 C   0  0  0  0  0  0  0  0  0  0  0  0
   26.3527  -15.4493  -18.0932 N   0  0  0  0  0  0  0  0  0  0  0  0
   26.9010  -14.6071  -17.1810 C   0  0  0  0  0  0  0  0  0  0  0  0
   28.1095  -14.6982  -16.5299 C   0  0  0  0  0  0  0  0  0  0  0  0
   28.4526  -13.7183  -15.6333 C   0  0  0  0  0  0  0  0  0  0  0  0
   27.5716  -12.6797  -15.4196 C   0  0  0  0  0  0  0  0  0  0  0  0
   26.3618  -12.6093  -16.0863 C   0  0  0  0  0  0  0  0  0  0  0  0
   25.9938  -13.5819  -16.9935 C   0  0  0  0  0  0  0  0  0  0  0  0
   21.7572  -11.7762  -16.9127 C   0  0  0  0  0  0  0  0  0  0  0  0
   20.5810  -12.1874  -17.0586 O   0  0  0  0  0  0  0  0  0  0  0  0
   20.2557   -8.0385  -13.1157 N   0  0  0  0  0  0  0  0  0  0  0  0
   21.0834   -7.2177  -13.8911 C   0  0  0  0  0  0  0  0  0  0  0  0
   21.4930   -6.1233  -13.4361 O   0  0  0  0  0  0  0  0  0  0  0  0
   21.4785   -7.6429  -15.2568 C   0  0  0  0  0  0  0  0  0  0  0  0
   20.7082   -8.8909  -15.6250 C   0  0  0  0  0  0  0  0  0  0  0  0
   20.9805   -9.3775  -17.0224 C   0  0  2  0  0  0  0  0  0  0  0  0
   22.0033  -10.4017  -16.9005 N   0  0  0  0  0  0  0  0  0  0  0  0
   21.3540   -8.3284  -17.9750 C   0  0  0  0  0  0  0  0  0  0  0  0
   22.5059   -7.8342  -18.0534 O   0  0  0  0  0  0  0  0  0  0  0  0
   18.3891   -6.6682  -20.2211 O   0  0  0  0  0  0  0  0  0  0  0  0
   19.6171   -6.6175  -20.8535 C   0  0  0  0  0  0  0  0  0  0  0  0
   20.7693   -6.7408  -19.8511 C   0  0  2  0  0  0  0  0  0  0  0  0
   20.4118   -7.7684  -18.9163 N   0  0  0  0  0  0  0  0  0  0  0  0
   20.9101   -5.4116  -19.2022 C   0  0  0  0  0  0  0  0  0  0  0  0
   21.2453   -4.4523  -19.9426 O   0  0  0  0  0  0  0  0  0  0  0  0
   20.7005   -5.1704  -17.8677 O   0  0  0  0  0  0  0  0  0  0  0  0
  2  1  1  6
  2  3  1  0
  3  4  1  0
  4  5  2  0
  5  6  1  0
  7  6  1  0
  8  7  2  0
  9  8  1  0
 10 11  1  0
 10  9  2  0
 11 12  2  0
 12  4  1  0
 12  7  1  0
 13  2  1  0
 13 21  1  0
 14 13  2  0
 16 15  1  0
 17 16  2  0
 18 16  1  0
 20 19  1  1
 19 18  1  0
 20 21  1  0
 22 20  1  0
 23 22  2  0
 25 24  1  0
 26 25  1  6
 26 28  1  0
 26 27  1  0
 27 22  1  0
 28 30  1  0
 29 28  2  0
M  END
$$$$
