WQS.pdb
     RDKit          3D

 30 31  0  0  1  0  0  0  0  0999 V2000
   14.5784  -15.0338    6.0569 N   0  0  0  0  0  0  0  0  0  0  0  0
   15.5792  -15.8975    5.4585 C   0  0  1  0  0  0  0  0  0  0  0  0
   16.9597  -15.5691    5.8947 C   0  0  0  0  0  0  0  0  0  0  0  0
   17.6320  -14.4810    5.1954 C   0  0  0  0  0  0  0  0  0  0  0  0
   17.6722  -13.1622    5.6635 C   0  0  0  0  0  0  0  0  0  0  0  0
   18.3809  -12.4054    4.8103 N   0  0  0  0  0  0  0  0  0  0  0  0
   18.8151  -13.1815    3.7850 C   0  0  0  0  0  0  0  0  0  0  0  0
   19.5667  -12.8312    2.6874 C   0  0  0  0  0  0  0  0  0  0  0  0
   19.8826  -13.7980    1.7668 C   0  0  0  0  0  0  0  0  0  0  0  0
   19.4336  -15.0841    1.9782 C   0  0  0  0  0  0  0  0  0  0  0  0
   18.6791  -15.4128    3.0898 C   0  0  0  0  0  0  0  0  0  0  0  0
   18.3486  -14.4588    4.0306 C   0  0  0  0  0  0  0  0  0  0  0  0
   15.2224  -17.3235    5.4717 C   0  0  0  0  0  0  0  0  0  0  0  0
   14.8428  -17.8489    6.5458 O   0  0  0  0  0  0  0  0  0  0  0  0
   15.5419  -20.6839    0.2713 N   0  0  0  0  0  0  0  0  0  0  0  0
   15.5636  -21.7355    1.1954 C   0  0  0  0  0  0  0  0  0  0  0  0
   15.5118  -22.9247    0.8007 O   0  0  0  0  0  0  0  0  0  0  0  0
   15.6483  -21.4435    2.6478 C   0  0  0  0  0  0  0  0  0  0  0  0
   15.5147  -19.9520    2.8578 C   0  0  0  0  0  0  0  0  0  0  0  0
   15.4562  -19.5497    4.3064 C   0  0  2  0  0  0  0  0  0  0  0  0
   15.2962  -18.1059    4.3176 N   0  0  0  0  0  0  0  0  0  0  0  0
   16.5991  -19.9894    5.1114 C   0  0  0  0  0  0  0  0  0  0  0  0
   17.7184  -19.4198    5.1047 O   0  0  0  0  0  0  0  0  0  0  0  0
   15.9900  -21.9834    8.4717 O   0  0  0  0  0  0  0  0  0  0  0  0
   17.2508  -21.4641    8.2458 C   0  0  0  0  0  0  0  0  0  0  0  0
   17.6485  -21.5793    6.7706 C   0  0  2  0  0  0  0  0  0  0  0  0
   16.5296  -21.1325    5.9922 N   0  0  0  0  0  0  0  0  0  0  0  0
   17.9691  -23.0098    6.5289 C   0  0  0  0  0  0  0  0  0  0  0  0
   17.2155  -23.6338    5.7394 O   0  0  0  0  0  0  0  0  0  0  0  0
   19.0189  -23.6806    7.1044 O   0  0  0  0  0  0  0  0  0  0  0  0
  2  1  1  1
  2  3  1  0
  3  4  1  0
  4  5  2  0
  5  6  1  0
  7  6  1  0
  8  7  2  0
  9  8  1  0
 10 11  1  0
 10  9  2  0
 11 12  2  0
 12  4  1  0
 12  7  1  0
 13  2  1  0
 13 21  1  0
 14 13  2  0
 16 15  1  0
 17 16  2  0
 18 16  1  0
 20 19  1  6
 19 18  1  0
 20 21  1  0
 22 20  1  0
 23 22  2  0
 25 24  1  0
 26 25  1  1
 26 28  1  0
 26 27  1  0
 27 22  1  0
 28 30  1  0
 29 28  2  0
M  END
$$$$
