WQS.pdb
     RDKit          3D

 30 31  0  0  1  0  0  0  0  0999 V2000
   22.0078  -13.5679  -16.9669 N   0  0  0  0  0  0  0  0  0  0  0  0
   22.4960  -12.2018  -16.9994 C   0  0  1  0  0  0  0  0  0  0  0  0
   23.7138  -12.0442  -17.8337 C   0  0  0  0  0  0  0  0  0  0  0  0
   24.8319  -12.9338  -17.5447 C   0  0  0  0  0  0  0  0  0  0  0  0
   24.9630  -14.2194  -18.0834 C   0  0  0  0  0  0  0  0  0  0  0  0
   26.1041  -14.7746  -17.6447 N   0  0  0  0  0  0  0  0  0  0  0  0
   26.7390  -13.8962  -16.8277 C   0  0  0  0  0  0  0  0  0  0  0  0
   27.9297  -14.0403  -16.1538 C   0  0  0  0  0  0  0  0  0  0  0  0
   28.3754  -13.0057  -15.3710 C   0  0  0  0  0  0  0  0  0  0  0  0
   27.6115  -11.8611  -15.2902 C   0  0  0  0  0  0  0  0  0  0  0  0
   26.4173  -11.7390  -15.9773 C   0  0  0  0  0  0  0  0  0  0  0  0
   25.9476  -12.7649  -16.7718 C   0  0  0  0  0  0  0  0  0  0  0  0
   21.4431  -11.1960  -17.2016 C   0  0  0  0  0  0  0  0  0  0  0  0
   20.5247  -11.4290  -18.0238 O   0  0  0  0  0  0  0  0  0  0  0  0
   16.8034  -10.8623  -15.6395 N   0  0  0  0  0  0  0  0  0  0  0  0
   16.7047   -9.4946  -15.9220 C   0  0  0  0  0  0  0  0  0  0  0  0
   15.5939   -8.9157  -15.8628 O   0  0  0  0  0  0  0  0  0  0  0  0
   17.9183   -8.7255  -16.2931 C   0  0  0  0  0  0  0  0  0  0  0  0
   19.1194   -9.6418  -16.2292 C   0  0  0  0  0  0  0  0  0  0  0  0
   20.4112   -8.9705  -16.6091 C   0  0  2  0  0  0  0  0  0  0  0  0
   21.4417   -9.9885  -16.5004 N   0  0  0  0  0  0  0  0  0  0  0  0
   20.7301   -7.7702  -15.8312 C   0  0  0  0  0  0  0  0  0  0  0  0
   21.0011   -7.7843  -14.6050 O   0  0  0  0  0  0  0  0  0  0  0  0
   20.4995   -4.0494  -13.7252 O   0  0  0  0  0  0  0  0  0  0  0  0
   20.2656   -5.2074  -14.4427 C   0  0  0  0  0  0  0  0  0  0  0  0
   21.1538   -5.2838  -15.6889 C   0  0  2  0  0  0  0  0  0  0  0  0
   20.7590   -6.4519  -16.4218 N   0  0  0  0  0  0  0  0  0  0  0  0
   22.5560   -5.3682  -15.2048 C   0  0  0  0  0  0  0  0  0  0  0  0
   23.0278   -6.5209  -15.0334 O   0  0  0  0  0  0  0  0  0  0  0  0
   23.3543   -4.2844  -14.9380 O   0  0  0  0  0  0  0  0  0  0  0  0
  2  1  1  6
  2  3  1  0
  3  4  1  0
  4  5  2  0
  5  6  1  0
  7  6  1  0
  8  7  2  0
  9  8  1  0
 10 11  1  0
 10  9  2  0
 11 12  2  0
 12  4  1  0
 12  7  1  0
 13  2  1  0
 13 21  1  0
 14 13  2  0
 16 15  1  0
 17 16  2  0
 18 16  1  0
 20 19  1  1
 19 18  1  0
 20 21  1  0
 22 20  1  0
 23 22  2  0
 25 24  1  0
 26 25  1  1
 26 28  1  0
 26 27  1  0
 27 22  1  0
 28 30  1  0
 29 28  2  0
M  END
$$$$
