WQS.pdb
     RDKit          3D

 30 31  0  0  1  0  0  0  0  0999 V2000
   28.6782  -20.6539   -9.5279 N   0  0  0  0  0  0  0  0  0  0  0  0
   27.2403  -20.8399   -9.5859 C   0  0  1  0  0  0  0  0  0  0  0  0
   26.5105  -20.0050   -8.5988 C   0  0  0  0  0  0  0  0  0  0  0  0
   27.2354  -19.6221   -7.3934 C   0  0  0  0  0  0  0  0  0  0  0  0
   27.5607  -18.3000   -7.0676 C   0  0  0  0  0  0  0  0  0  0  0  0
   28.2068  -18.2747   -5.8909 N   0  0  0  0  0  0  0  0  0  0  0  0
   28.3227  -19.5429   -5.4214 C   0  0  0  0  0  0  0  0  0  0  0  0
   28.9126  -19.9901   -4.2618 C   0  0  0  0  0  0  0  0  0  0  0  0
   28.9143  -21.3363   -3.9979 C   0  0  0  0  0  0  0  0  0  0  0  0
   28.3243  -22.1889   -4.9063 C   0  0  0  0  0  0  0  0  0  0  0  0
   27.7371  -21.7159   -6.0658 C   0  0  0  0  0  0  0  0  0  0  0  0
   27.7215  -20.3664   -6.3540 C   0  0  0  0  0  0  0  0  0  0  0  0
   26.6937  -20.8483  -10.9505 C   0  0  0  0  0  0  0  0  0  0  0  0
   27.2996  -20.2261  -11.8558 O   0  0  0  0  0  0  0  0  0  0  0  0
   24.5531  -25.4517  -13.8553 N   0  0  0  0  0  0  0  0  0  0  0  0
   23.9995  -24.4962  -14.7160 C   0  0  0  0  0  0  0  0  0  0  0  0
   23.4486  -24.8522  -15.7847 O   0  0  0  0  0  0  0  0  0  0  0  0
   24.0641  -23.0562  -14.3635 C   0  0  0  0  0  0  0  0  0  0  0  0
   24.7494  -22.9084  -13.0238 C   0  0  0  0  0  0  0  0  0  0  0  0
   24.8489  -21.4835  -12.5511 C   0  0  2  0  0  0  0  0  0  0  0  0
   25.5168  -21.5321  -11.2620 N   0  0  0  0  0  0  0  0  0  0  0  0
   23.5717  -20.7674  -12.4895 C   0  0  0  0  0  0  0  0  0  0  0  0
   22.8292  -20.7497  -11.4769 O   0  0  0  0  0  0  0  0  0  0  0  0
   23.0069  -17.6301  -14.8363 O   0  0  0  0  0  0  0  0  0  0  0  0
   21.8080  -18.3092  -14.7276 C   0  0  0  0  0  0  0  0  0  0  0  0
   21.8208  -19.2835  -13.5451 C   0  0  2  0  0  0  0  0  0  0  0  0
   23.0551  -20.0117  -13.6073 N   0  0  0  0  0  0  0  0  0  0  0  0
   20.6363  -20.1651  -13.7101 C   0  0  0  0  0  0  0  0  0  0  0  0
   20.8352  -21.2883  -14.2389 O   0  0  0  0  0  0  0  0  0  0  0  0
   19.3605  -19.8349  -13.3274 O   0  0  0  0  0  0  0  0  0  0  0  0
  2  1  1  6
  2  3  1  0
  3  4  1  0
  4  5  2  0
  5  6  1  0
  7  6  1  0
  8  7  2  0
  9  8  1  0
 10 11  1  0
 10  9  2  0
 11 12  2  0
 12  4  1  0
 12  7  1  0
 13  2  1  0
 13 21  1  0
 14 13  2  0
 16 15  1  0
 17 16  2  0
 18 16  1  0
 20 19  1  1
 19 18  1  0
 20 21  1  0
 22 20  1  0
 23 22  2  0
 25 24  1  0
 26 25  1  6
 26 28  1  0
 26 27  1  0
 27 22  1  0
 28 30  1  0
 29 28  2  0
M  END
$$$$
