WQS.pdb
     RDKit          3D

 30 31  0  0  1  0  0  0  0  0999 V2000
   26.9383  -22.1620  -14.6790 N   0  0  0  0  0  0  0  0  0  0  0  0
   25.9379  -21.5116  -13.8534 C   0  0  1  0  0  0  0  0  0  0  0  0
   26.4424  -20.2772  -13.2009 C   0  0  0  0  0  0  0  0  0  0  0  0
   27.4702  -20.4423  -12.1805 C   0  0  0  0  0  0  0  0  0  0  0  0
   28.8435  -20.4474  -12.4526 C   0  0  0  0  0  0  0  0  0  0  0  0
   29.5267  -20.5974  -11.3065 N   0  0  0  0  0  0  0  0  0  0  0  0
   28.6484  -20.6932  -10.2762 C   0  0  0  0  0  0  0  0  0  0  0  0
   28.8981  -20.8594   -8.9336 C   0  0  0  0  0  0  0  0  0  0  0  0
   27.8362  -20.9373   -8.0686 C   0  0  0  0  0  0  0  0  0  0  0  0
   26.5591  -20.8460   -8.5795 C   0  0  0  0  0  0  0  0  0  0  0  0
   26.3326  -20.6788   -9.9337 C   0  0  0  0  0  0  0  0  0  0  0  0
   27.3836  -20.5969  -10.8243 C   0  0  0  0  0  0  0  0  0  0  0  0
   24.6151  -21.4100  -14.4865 C   0  0  0  0  0  0  0  0  0  0  0  0
   24.4898  -20.7343  -15.5361 O   0  0  0  0  0  0  0  0  0  0  0  0
   23.8496  -25.2557  -14.2556 N   0  0  0  0  0  0  0  0  0  0  0  0
   23.6415  -25.0315  -15.6219 C   0  0  0  0  0  0  0  0  0  0  0  0
   24.3272  -25.6444  -16.4744 O   0  0  0  0  0  0  0  0  0  0  0  0
   22.6060  -24.0651  -16.0645 C   0  0  0  0  0  0  0  0  0  0  0  0
   21.8864  -23.5249  -14.8493 C   0  0  0  0  0  0  0  0  0  0  0  0
   22.1825  -22.0770  -14.5671 C   0  0  2  0  0  0  0  0  0  0  0  0
   23.4960  -22.0476  -13.9472 N   0  0  0  0  0  0  0  0  0  0  0  0
   21.1705  -21.3904  -13.7597 C   0  0  0  0  0  0  0  0  0  0  0  0
   20.9974  -21.5974  -12.5331 O   0  0  0  0  0  0  0  0  0  0  0  0
   19.0446  -18.2937  -15.4309 O   0  0  0  0  0  0  0  0  0  0  0  0
   19.0615  -18.3632  -14.0506 C   0  0  0  0  0  0  0  0  0  0  0  0
   19.2107  -19.8083  -13.5638 C   0  0  2  0  0  0  0  0  0  0  0  0
   20.2752  -20.4038  -14.3187 N   0  0  0  0  0  0  0  0  0  0  0  0
   17.9049  -20.4741  -13.8073 C   0  0  0  0  0  0  0  0  0  0  0  0
   17.8622  -21.3124  -14.7433 O   0  0  0  0  0  0  0  0  0  0  0  0
   16.7623  -20.2347  -13.0861 O   0  0  0  0  0  0  0  0  0  0  0  0
  2  1  1  6
  2  3  1  0
  3  4  1  0
  4  5  2  0
  5  6  1  0
  7  6  1  0
  8  7  2  0
  9  8  1  0
 10 11  1  0
 10  9  2  0
 11 12  2  0
 12  4  1  0
 12  7  1  0
 13  2  1  0
 13 21  1  0
 14 13  2  0
 16 15  1  0
 17 16  2  0
 18 16  1  0
 20 19  1  1
 19 18  1  0
 20 21  1  0
 22 20  1  0
 23 22  2  0
 25 24  1  0
 26 25  1  6
 26 28  1  0
 26 27  1  0
 27 22  1  0
 28 30  1  0
 29 28  2  0
M  END
$$$$
