WQS.pdb
     RDKit          3D

 30 31  0  0  1  0  0  0  0  0999 V2000
   27.4062  -22.2084  -13.7967 N   0  0  0  0  0  0  0  0  0  0  0  0
   26.2471  -21.7558  -13.0503 C   0  0  1  0  0  0  0  0  0  0  0  0
   26.5299  -20.5628  -12.2132 C   0  0  0  0  0  0  0  0  0  0  0  0
   27.4958  -20.7273  -11.1338 C   0  0  0  0  0  0  0  0  0  0  0  0
   28.8414  -21.0561  -11.3368 C   0  0  0  0  0  0  0  0  0  0  0  0
   29.4719  -21.1137  -10.1527 N   0  0  0  0  0  0  0  0  0  0  0  0
   28.5852  -20.8331   -9.1642 C   0  0  0  0  0  0  0  0  0  0  0  0
   28.7867  -20.7827   -7.8043 C   0  0  0  0  0  0  0  0  0  0  0  0
   27.7250  -20.4807   -6.9897 C   0  0  0  0  0  0  0  0  0  0  0  0
   26.4965  -20.2393   -7.5668 C   0  0  0  0  0  0  0  0  0  0  0  0
   26.3181  -20.2956   -8.9372 C   0  0  0  0  0  0  0  0  0  0  0  0
   27.3701  -20.5966   -9.7781 C   0  0  0  0  0  0  0  0  0  0  0  0
   25.0089  -21.7078  -13.8412 C   0  0  0  0  0  0  0  0  0  0  0  0
   24.9088  -20.8707  -14.7702 O   0  0  0  0  0  0  0  0  0  0  0  0
   24.8275  -26.0645  -15.4004 N   0  0  0  0  0  0  0  0  0  0  0  0
   24.4321  -24.8108  -15.8824 C   0  0  0  0  0  0  0  0  0  0  0  0
   25.2928  -23.9582  -16.2060 O   0  0  0  0  0  0  0  0  0  0  0  0
   22.9895  -24.4883  -16.0113 C   0  0  0  0  0  0  0  0  0  0  0  0
   22.4586  -24.0618  -14.6612 C   0  0  0  0  0  0  0  0  0  0  0  0
   22.7074  -22.6118  -14.3459 C   0  0  2  0  0  0  0  0  0  0  0  0
   23.9426  -22.5714  -13.5825 N   0  0  0  0  0  0  0  0  0  0  0  0
   21.6046  -21.9364  -13.6565 C   0  0  0  0  0  0  0  0  0  0  0  0
   21.3402  -22.0955  -12.4391 O   0  0  0  0  0  0  0  0  0  0  0  0
   17.8345  -18.8329  -14.1661 O   0  0  0  0  0  0  0  0  0  0  0  0
   18.9865  -19.4063  -14.6707 C   0  0  0  0  0  0  0  0  0  0  0  0
   19.5901  -20.4122  -13.6852 C   0  0  2  0  0  0  0  0  0  0  0  0
   20.7176  -21.0180  -14.3327 N   0  0  0  0  0  0  0  0  0  0  0  0
   18.5206  -21.3963  -13.3764 C   0  0  0  0  0  0  0  0  0  0  0  0
   18.3448  -22.3219  -14.2088 O   0  0  0  0  0  0  0  0  0  0  0  0
   17.7265  -21.3580  -12.2579 O   0  0  0  0  0  0  0  0  0  0  0  0
  2  1  1  6
  2  3  1  0
  3  4  1  0
  4  5  2  0
  5  6  1  0
  7  6  1  0
  8  7  2  0
  9  8  1  0
 10 11  1  0
 10  9  2  0
 11 12  2  0
 12  4  1  0
 12  7  1  0
 13  2  1  0
 13 21  1  0
 14 13  2  0
 16 15  1  0
 17 16  2  0
 18 16  1  0
 20 19  1  1
 19 18  1  0
 20 21  1  0
 22 20  1  0
 23 22  2  0
 25 24  1  0
 26 25  1  6
 26 28  1  0
 26 27  1  0
 27 22  1  0
 28 30  1  0
 29 28  2  0
M  END
$$$$
