WQS.pdb
     RDKit          3D

 30 31  0  0  1  0  0  0  0  0999 V2000
   21.9727  -11.3065  -16.7674 N   0  0  0  0  0  0  0  0  0  0  0  0
   21.4483  -10.1030  -17.3856 C   0  0  1  0  0  0  0  0  0  0  0  0
   19.9805  -10.1578  -17.6010 C   0  0  0  0  0  0  0  0  0  0  0  0
   19.4805  -11.2099  -18.4775 C   0  0  0  0  0  0  0  0  0  0  0  0
   18.8703  -12.3825  -18.0164 C   0  0  0  0  0  0  0  0  0  0  0  0
   18.5029  -13.1379  -19.0639 N   0  0  0  0  0  0  0  0  0  0  0  0
   18.8508  -12.5031  -20.2119 C   0  0  0  0  0  0  0  0  0  0  0  0
   18.6748  -12.9057  -21.5156 C   0  0  0  0  0  0  0  0  0  0  0  0
   19.1195  -12.0900  -22.5249 C   0  0  0  0  0  0  0  0  0  0  0  0
   19.7261  -10.8976  -22.1926 C   0  0  0  0  0  0  0  0  0  0  0  0
   19.8920  -10.5137  -20.8742 C   0  0  0  0  0  0  0  0  0  0  0  0
   19.4528  -11.3160  -19.8408 C   0  0  0  0  0  0  0  0  0  0  0  0
   21.9668   -8.8573  -16.8021 C   0  0  0  0  0  0  0  0  0  0  0  0
   22.0601   -8.7587  -15.5549 O   0  0  0  0  0  0  0  0  0  0  0  0
   26.2343   -5.5776  -19.3409 N   0  0  0  0  0  0  0  0  0  0  0  0
   26.4020   -6.5834  -18.3815 C   0  0  0  0  0  0  0  0  0  0  0  0
   27.5208   -7.1280  -18.2260 O   0  0  0  0  0  0  0  0  0  0  0  0
   25.2524   -7.0079  -17.5447 C   0  0  0  0  0  0  0  0  0  0  0  0
   24.0507   -6.1590  -17.8936 C   0  0  0  0  0  0  0  0  0  0  0  0
   22.8196   -6.5007  -17.0990 C   0  0  2  0  0  0  0  0  0  0  0  0
   22.3573   -7.7823  -17.6031 N   0  0  0  0  0  0  0  0  0  0  0  0
   21.7688   -5.4797  -17.1272 C   0  0  0  0  0  0  0  0  0  0  0  0
   20.7374   -5.5585  -17.8394 O   0  0  0  0  0  0  0  0  0  0  0  0
   18.5114   -3.1326  -15.4596 O   0  0  0  0  0  0  0  0  0  0  0  0
   19.5659   -4.0099  -15.6286 C   0  0  0  0  0  0  0  0  0  0  0  0
   20.7706   -3.3202  -16.2773 C   0  0  2  0  0  0  0  0  0  0  0  0
   21.8355   -4.2800  -16.3249 N   0  0  0  0  0  0  0  0  0  0  0  0
   21.1014   -2.1520  -15.4208 C   0  0  0  0  0  0  0  0  0  0  0  0
   22.0294   -2.3057  -14.5866 O   0  0  0  0  0  0  0  0  0  0  0  0
   20.4675   -0.9365  -15.4830 O   0  0  0  0  0  0  0  0  0  0  0  0
  2  1  1  1
  2  3  1  0
  3  4  1  0
  4  5  2  0
  5  6  1  0
  7  6  1  0
  8  7  2  0
  9  8  1  0
 10 11  1  0
 10  9  2  0
 11 12  2  0
 12  4  1  0
 12  7  1  0
 13  2  1  0
 13 21  1  0
 14 13  2  0
 16 15  1  0
 17 16  2  0
 18 16  1  0
 20 19  1  6
 19 18  1  0
 20 21  1  0
 22 20  1  0
 23 22  2  0
 25 24  1  0
 26 25  1  1
 26 28  1  0
 26 27  1  0
 27 22  1  0
 28 30  1  0
 29 28  2  0
M  END
$$$$
