WQH.pdb
     RDKit          3D

 34 36  0  0  1  0  0  0  0  0999 V2000
    6.1762  -16.7664   23.1763 N   0  0  0  0  0  0  0  0  0  0  0  0
    7.2241  -15.7690   22.9378 C   0  0  1  0  0  0  0  0  0  0  0  0
    8.0835  -15.7491   24.1825 C   0  0  0  0  0  0  0  0  0  0  0  0
    7.3548  -15.0945   25.2938 C   0  0  0  0  0  0  0  0  0  0  0  0
    6.3941  -15.6691   26.1048 C   0  0  0  0  0  0  0  0  0  0  0  0
    5.9783  -14.7262   26.9974 N   0  0  0  0  0  0  0  0  0  0  0  0
    6.6229  -13.5815   26.7983 C   0  0  0  0  0  0  0  0  0  0  0  0
    6.5877  -12.3463   27.3980 C   0  0  0  0  0  0  0  0  0  0  0  0
    7.4151  -11.3551   26.9244 C   0  0  0  0  0  0  0  0  0  0  0  0
    8.2850  -11.5569   25.8618 C   0  0  0  0  0  0  0  0  0  0  0  0
    8.3150  -12.8016   25.2635 C   0  0  0  0  0  0  0  0  0  0  0  0
    7.4908  -13.8018   25.7296 C   0  0  0  0  0  0  0  0  0  0  0  0
    8.0105  -16.1224   21.7323 C   0  0  0  0  0  0  0  0  0  0  0  0
    7.9503  -17.2953   21.2327 O   0  0  0  0  0  0  0  0  0  0  0  0
    6.2487  -14.1873   18.2427 N   0  0  0  0  0  0  0  0  0  0  0  0
    7.6087  -14.0775   17.8847 C   0  0  0  0  0  0  0  0  0  0  0  0
    7.9408  -14.5013   16.7568 O   0  0  0  0  0  0  0  0  0  0  0  0
    8.5857  -13.4910   18.8027 C   0  0  0  0  0  0  0  0  0  0  0  0
    9.8295  -14.3009   19.0176 C   0  0  0  0  0  0  0  0  0  0  0  0
    9.5713  -15.5398   19.8186 C   0  0  2  0  0  0  0  0  0  0  0  0
    8.8633  -15.2078   21.0653 N   0  0  0  0  0  0  0  0  0  0  0  0
   10.7709  -16.3557   20.1163 C   0  0  0  0  0  0  0  0  0  0  0  0
   11.4579  -16.9658   19.2608 O   0  0  0  0  0  0  0  0  0  0  0  0
   11.2603  -16.5186   21.4590 N   0  0  0  0  0  0  0  0  0  0  0  0
   12.2635  -17.4734   21.8409 C   0  0  1  0  0  0  0  0  0  0  0  0
   13.3260  -16.7336   22.6267 C   0  0  0  0  0  0  0  0  0  0  0  0
   14.1188  -15.8518   21.7431 C   0  0  0  0  0  0  0  0  0  0  0  0
   14.8055  -16.2718   20.6126 C   0  0  0  0  0  0  0  0  0  0  0  0
   15.4071  -15.1899   20.0714 N   0  0  0  0  0  0  0  0  0  0  0  0
   15.1117  -14.1134   20.8352 C   0  0  0  0  0  0  0  0  0  0  0  0
   14.3339  -14.5350   21.8378 N   0  0  0  0  0  0  0  0  0  0  0  0
   11.7710  -18.6861   22.4536 C   0  0  0  0  0  0  0  0  0  0  0  0
   12.5539  -19.5683   22.8628 O   0  0  0  0  0  0  0  0  0  0  0  0
   10.4230  -18.9093   22.6074 O   0  0  0  0  0  0  0  0  0  0  0  0
  2  3  1  0
  2  1  1  1
  3  4  1  0
  4  5  2  0
  5  6  1  0
  7  8  2  0
  7  6  1  0
  9  8  1  0
 10  9  2  0
 11 10  1  0
 11 12  2  0
 12  4  1  0
 12  7  1  0
 13 21  1  0
 13  2  1  0
 14 13  2  0
 16 15  1  0
 17 16  2  0
 18 16  1  0
 19 18  1  0
 20 19  1  1
 20 21  1  0
 22 20  1  0
 22 23  2  0
 24 22  1  0
 25 24  1  0
 25 32  1  0
 25 26  1  1
 27 26  1  0
 28 27  2  0
 29 30  1  0
 29 28  1  0
 30 31  2  0
 31 27  1  0
 32 34  1  0
 33 32  2  0
M  END
$$$$
