WQH.pdb
     RDKit          3D

 34 36  0  0  1  0  0  0  0  0999 V2000
    6.9269  -16.9682   23.5012 N   0  0  0  0  0  0  0  0  0  0  0  0
    8.1982  -16.3190   23.8358 C   0  0  1  0  0  0  0  0  0  0  0  0
    8.1310  -15.9866   25.3100 C   0  0  0  0  0  0  0  0  0  0  0  0
    7.0656  -14.9879   25.5585 C   0  0  0  0  0  0  0  0  0  0  0  0
    5.7628  -15.2463   25.9413 C   0  0  0  0  0  0  0  0  0  0  0  0
    5.1148  -14.0527   26.0609 N   0  0  0  0  0  0  0  0  0  0  0  0
    5.9355  -13.0477   25.7747 C   0  0  0  0  0  0  0  0  0  0  0  0
    5.7996  -11.6813   25.7395 C   0  0  0  0  0  0  0  0  0  0  0  0
    6.8871  -10.9154   25.3900 C   0  0  0  0  0  0  0  0  0  0  0  0
    8.1177  -11.4724   25.0713 C   0  0  0  0  0  0  0  0  0  0  0  0
    8.2471  -12.8472   25.1089 C   0  0  0  0  0  0  0  0  0  0  0  0
    7.1646  -13.6242   25.4576 C   0  0  0  0  0  0  0  0  0  0  0  0
    9.3355  -17.2174   23.5260 C   0  0  0  0  0  0  0  0  0  0  0  0
    9.3032  -17.9867   22.5081 O   0  0  0  0  0  0  0  0  0  0  0  0
   10.5874  -15.5282   19.7898 N   0  0  0  0  0  0  0  0  0  0  0  0
   11.7913  -16.1104   20.2387 C   0  0  0  0  0  0  0  0  0  0  0  0
   12.8492  -15.7366   19.6881 O   0  0  0  0  0  0  0  0  0  0  0  0
   11.7934  -17.1120   21.3055 C   0  0  0  0  0  0  0  0  0  0  0  0
   12.1677  -16.5998   22.6644 C   0  0  0  0  0  0  0  0  0  0  0  0
   11.8374  -17.5752   23.7518 C   0  0  2  0  0  0  0  0  0  0  0  0
   10.5098  -17.2852   24.3168 N   0  0  0  0  0  0  0  0  0  0  0  0
   12.8421  -17.6702   24.8358 C   0  0  0  0  0  0  0  0  0  0  0  0
   14.0640  -17.4109   24.7106 O   0  0  0  0  0  0  0  0  0  0  0  0
   12.4823  -18.0824   26.1661 N   0  0  0  0  0  0  0  0  0  0  0  0
   12.6384  -19.4206   26.6651 C   0  0  1  0  0  0  0  0  0  0  0  0
   11.4010  -20.2027   26.2766 C   0  0  0  0  0  0  0  0  0  0  0  0
   10.1963  -19.6425   26.9260 C   0  0  0  0  0  0  0  0  0  0  0  0
   10.2027  -18.6103   27.8536 C   0  0  0  0  0  0  0  0  0  0  0  0
    8.9229  -18.3779   28.2189 N   0  0  0  0  0  0  0  0  0  0  0  0
    8.1260  -19.2371   27.5436 C   0  0  0  0  0  0  0  0  0  0  0  0
    8.9143  -19.9905   26.7697 N   0  0  0  0  0  0  0  0  0  0  0  0
   13.8976  -20.0594   26.3571 C   0  0  0  0  0  0  0  0  0  0  0  0
   14.7380  -20.2966   27.2495 O   0  0  0  0  0  0  0  0  0  0  0  0
   14.2129  -20.4284   25.0707 O   0  0  0  0  0  0  0  0  0  0  0  0
  2  3  1  0
  2  1  1  1
  3  4  1  0
  4  5  2  0
  5  6  1  0
  7  8  2  0
  7  6  1  0
  9  8  1  0
 10  9  2  0
 11 10  1  0
 11 12  2  0
 12  4  1  0
 12  7  1  0
 13 21  1  0
 13  2  1  0
 14 13  2  0
 16 15  1  0
 17 16  2  0
 18 16  1  0
 19 18  1  0
 20 19  1  6
 20 21  1  0
 22 20  1  0
 22 23  2  0
 24 22  1  0
 25 24  1  0
 25 32  1  0
 25 26  1  6
 27 26  1  0
 28 27  2  0
 29 30  1  0
 29 28  1  0
 30 31  2  0
 31 27  1  0
 32 34  1  0
 33 32  2  0
M  END
$$$$
