WQH.pdb
     RDKit          3D

 34 36  0  0  1  0  0  0  0  0999 V2000
    9.4544  -15.2613   22.4614 N   0  0  0  0  0  0  0  0  0  0  0  0
    9.0231  -15.7648   23.7692 C   0  0  1  0  0  0  0  0  0  0  0  0
    7.5119  -15.8182   23.7270 C   0  0  0  0  0  0  0  0  0  0  0  0
    6.9564  -14.4479   23.6380 C   0  0  0  0  0  0  0  0  0  0  0  0
    6.4213  -13.8436   22.5160 C   0  0  0  0  0  0  0  0  0  0  0  0
    6.0267  -12.5857   22.8633 N   0  0  0  0  0  0  0  0  0  0  0  0
    6.2819  -12.3564   24.1470 C   0  0  0  0  0  0  0  0  0  0  0  0
    6.0914  -11.2842   24.9841 C   0  0  0  0  0  0  0  0  0  0  0  0
    6.4851  -11.3900   26.2976 C   0  0  0  0  0  0  0  0  0  0  0  0
    7.0684  -12.5410   26.8089 C   0  0  0  0  0  0  0  0  0  0  0  0
    7.2570  -13.6153   25.9611 C   0  0  0  0  0  0  0  0  0  0  0  0
    6.8665  -13.5205   24.6438 C   0  0  0  0  0  0  0  0  0  0  0  0
    9.6133  -17.0989   24.0305 C   0  0  0  0  0  0  0  0  0  0  0  0
    9.0564  -17.9136   24.8399 O   0  0  0  0  0  0  0  0  0  0  0  0
   13.2028  -22.6271   21.7164 N   0  0  0  0  0  0  0  0  0  0  0  0
   12.4766  -21.6399   22.4149 C   0  0  0  0  0  0  0  0  0  0  0  0
   11.2370  -21.7830   22.4864 O   0  0  0  0  0  0  0  0  0  0  0  0
   13.1539  -20.4964   23.0272 C   0  0  0  0  0  0  0  0  0  0  0  0
   12.5217  -19.1619   22.7656 C   0  0  0  0  0  0  0  0  0  0  0  0
   11.4259  -18.8502   23.7378 C   0  0  2  0  0  0  0  0  0  0  0  0
   10.8071  -17.5541   23.4169 N   0  0  0  0  0  0  0  0  0  0  0  0
   11.8239  -18.8849   25.1639 C   0  0  0  0  0  0  0  0  0  0  0  0
   12.6141  -18.0775   25.7115 O   0  0  0  0  0  0  0  0  0  0  0  0
   11.3169  -19.8838   26.0662 N   0  0  0  0  0  0  0  0  0  0  0  0
   11.7763  -20.0580   27.4163 C   0  0  1  0  0  0  0  0  0  0  0  0
   10.7640  -20.9232   28.1377 C   0  0  0  0  0  0  0  0  0  0  0  0
    9.4231  -20.3000   28.1130 C   0  0  0  0  0  0  0  0  0  0  0  0
    9.1349  -19.0600   27.5606 C   0  0  0  0  0  0  0  0  0  0  0  0
    7.8139  -18.8320   27.7287 N   0  0  0  0  0  0  0  0  0  0  0  0
    7.2777  -19.8958   28.3692 C   0  0  0  0  0  0  0  0  0  0  0  0
    8.2655  -20.7691   28.5914 N   0  0  0  0  0  0  0  0  0  0  0  0
   13.1551  -20.4667   27.5594 C   0  0  0  0  0  0  0  0  0  0  0  0
   13.8799  -20.6586   26.5611 O   0  0  0  0  0  0  0  0  0  0  0  0
   13.7160  -20.6575   28.8001 O   0  0  0  0  0  0  0  0  0  0  0  0
  2  3  1  0
  2  1  1  6
  3  4  1  0
  4  5  2  0
  5  6  1  0
  7  8  2  0
  7  6  1  0
  9  8  1  0
 10  9  2  0
 11 10  1  0
 11 12  2  0
 12  4  1  0
 12  7  1  0
 13 21  1  0
 13  2  1  0
 14 13  2  0
 16 15  1  0
 17 16  2  0
 18 16  1  0
 19 18  1  0
 20 19  1  6
 20 21  1  0
 22 20  1  0
 22 23  2  0
 24 22  1  0
 25 24  1  0
 25 32  1  0
 25 26  1  6
 27 26  1  0
 28 27  2  0
 29 30  1  0
 29 28  1  0
 30 31  2  0
 31 27  1  0
 32 34  1  0
 33 32  2  0
M  END
$$$$
