WQH.pdb
     RDKit          3D

 34 36  0  0  1  0  0  0  0  0999 V2000
    8.9260  -16.4031   23.3311 N   0  0  0  0  0  0  0  0  0  0  0  0
    8.1349  -16.4171   24.5655 C   0  0  1  0  0  0  0  0  0  0  0  0
    6.7919  -15.8146   24.2169 C   0  0  0  0  0  0  0  0  0  0  0  0
    6.9329  -14.3589   23.9811 C   0  0  0  0  0  0  0  0  0  0  0  0
    7.0948  -13.7306   22.7606 C   0  0  0  0  0  0  0  0  0  0  0  0
    7.1851  -12.3892   22.9867 N   0  0  0  0  0  0  0  0  0  0  0  0
    7.0892  -12.1294   24.2862 C   0  0  0  0  0  0  0  0  0  0  0  0
    7.1169  -10.9795   25.0370 C   0  0  0  0  0  0  0  0  0  0  0  0
    6.9862  -11.0758   26.4027 C   0  0  0  0  0  0  0  0  0  0  0  0
    6.8273  -12.2928   27.0508 C   0  0  0  0  0  0  0  0  0  0  0  0
    6.8005  -13.4451   26.2893 C   0  0  0  0  0  0  0  0  0  0  0  0
    6.9304  -13.3606   24.9208 C   0  0  0  0  0  0  0  0  0  0  0  0
    8.0001  -17.8012   25.0782 C   0  0  0  0  0  0  0  0  0  0  0  0
    7.2809  -18.0524   26.1023 O   0  0  0  0  0  0  0  0  0  0  0  0
    7.5381  -22.7728   21.8205 N   0  0  0  0  0  0  0  0  0  0  0  0
    8.5811  -21.8367   21.6601 C   0  0  0  0  0  0  0  0  0  0  0  0
    9.0494  -21.6913   20.5105 O   0  0  0  0  0  0  0  0  0  0  0  0
    9.0899  -21.0713   22.7988 C   0  0  0  0  0  0  0  0  0  0  0  0
    8.3819  -21.3101   24.0991 C   0  0  0  0  0  0  0  0  0  0  0  0
    8.6761  -20.2466   25.1117 C   0  0  2  0  0  0  0  0  0  0  0  0
    8.6430  -18.9158   24.4842 N   0  0  0  0  0  0  0  0  0  0  0  0
    9.9418  -20.4253   25.8595 C   0  0  0  0  0  0  0  0  0  0  0  0
   10.2686  -21.4633   26.4856 O   0  0  0  0  0  0  0  0  0  0  0  0
   10.9323  -19.3846   25.9292 N   0  0  0  0  0  0  0  0  0  0  0  0
   12.1586  -19.4873   26.6707 C   0  0  1  0  0  0  0  0  0  0  0  0
   13.0440  -18.3306   26.2562 C   0  0  0  0  0  0  0  0  0  0  0  0
   13.1629  -18.2573   24.7840 C   0  0  0  0  0  0  0  0  0  0  0  0
   12.5825  -19.1518   23.8958 C   0  0  0  0  0  0  0  0  0  0  0  0
   12.9125  -18.7620   22.6451 N   0  0  0  0  0  0  0  0  0  0  0  0
   13.6803  -17.6522   22.7350 C   0  0  0  0  0  0  0  0  0  0  0  0
   13.8188  -17.3652   24.0336 N   0  0  0  0  0  0  0  0  0  0  0  0
   12.0130  -19.6769   28.0959 C   0  0  0  0  0  0  0  0  0  0  0  0
   12.9491  -20.1288   28.7875 O   0  0  0  0  0  0  0  0  0  0  0  0
   10.8384  -19.3653   28.7393 O   0  0  0  0  0  0  0  0  0  0  0  0
  2  3  1  0
  2  1  1  6
  3  4  1  0
  4  5  2  0
  5  6  1  0
  7  8  2  0
  7  6  1  0
  9  8  1  0
 10  9  2  0
 11 10  1  0
 11 12  2  0
 12  4  1  0
 12  7  1  0
 13 21  1  0
 13  2  1  0
 14 13  2  0
 16 15  1  0
 17 16  2  0
 18 16  1  0
 19 18  1  0
 20 19  1  6
 20 21  1  0
 22 20  1  0
 22 23  2  0
 24 22  1  0
 25 24  1  0
 25 32  1  0
 25 26  1  1
 27 26  1  0
 28 27  2  0
 29 30  1  0
 29 28  1  0
 30 31  2  0
 31 27  1  0
 32 34  1  0
 33 32  2  0
M  END
$$$$
