WQH.pdb
     RDKit          3D

 34 36  0  0  1  0  0  0  0  0999 V2000
    9.0343  -16.0026   24.5355 N   0  0  0  0  0  0  0  0  0  0  0  0
    7.7367  -16.4596   24.0282 C   0  0  1  0  0  0  0  0  0  0  0  0
    6.7340  -15.3898   24.3999 C   0  0  0  0  0  0  0  0  0  0  0  0
    7.1482  -14.7173   25.6531 C   0  0  0  0  0  0  0  0  0  0  0  0
    7.9342  -15.2507   26.6573 C   0  0  0  0  0  0  0  0  0  0  0  0
    8.0750  -14.3046   27.6287 N   0  0  0  0  0  0  0  0  0  0  0  0
    7.4207  -13.1968   27.2969 C   0  0  0  0  0  0  0  0  0  0  0  0
    7.2387  -11.9759   27.8994 C   0  0  0  0  0  0  0  0  0  0  0  0
    6.4781  -11.0265   27.2578 C   0  0  0  0  0  0  0  0  0  0  0  0
    5.8871  -11.2567   26.0232 C   0  0  0  0  0  0  0  0  0  0  0  0
    6.0745  -12.4869   25.4233 C   0  0  0  0  0  0  0  0  0  0  0  0
    6.8344  -13.4452   26.0567 C   0  0  0  0  0  0  0  0  0  0  0  0
    7.7988  -16.6695   22.5624 C   0  0  0  0  0  0  0  0  0  0  0  0
    6.7341  -16.8455   21.8810 O   0  0  0  0  0  0  0  0  0  0  0  0
    8.9442  -12.4593   18.9674 N   0  0  0  0  0  0  0  0  0  0  0  0
    8.2469  -13.4561   18.2532 C   0  0  0  0  0  0  0  0  0  0  0  0
    7.4724  -13.0775   17.3483 O   0  0  0  0  0  0  0  0  0  0  0  0
    8.4272  -14.8743   18.5659 C   0  0  0  0  0  0  0  0  0  0  0  0
    8.2839  -15.2341   20.0147 C   0  0  0  0  0  0  0  0  0  0  0  0
    9.0749  -16.4522   20.3800 C   0  0  2  0  0  0  0  0  0  0  0  0
    9.0128  -16.6895   21.8311 N   0  0  0  0  0  0  0  0  0  0  0  0
   10.4845  -16.4445   19.9255 C   0  0  0  0  0  0  0  0  0  0  0  0
   10.8603  -16.6152   18.7399 O   0  0  0  0  0  0  0  0  0  0  0  0
   11.5731  -16.2329   20.8416 N   0  0  0  0  0  0  0  0  0  0  0  0
   12.7018  -17.1126   20.9689 C   0  0  1  0  0  0  0  0  0  0  0  0
   13.9228  -16.2572   21.2356 C   0  0  0  0  0  0  0  0  0  0  0  0
   14.1816  -15.3387   20.1059 C   0  0  0  0  0  0  0  0  0  0  0  0
   13.3782  -15.2195   18.9806 C   0  0  0  0  0  0  0  0  0  0  0  0
   13.9341  -14.2879   18.1754 N   0  0  0  0  0  0  0  0  0  0  0  0
   15.0580  -13.8280   18.7711 C   0  0  0  0  0  0  0  0  0  0  0  0
   15.1883  -14.4750   19.9340 N   0  0  0  0  0  0  0  0  0  0  0  0
   12.5227  -18.2335   21.8634 C   0  0  0  0  0  0  0  0  0  0  0  0
   12.0745  -18.0748   23.0178 O   0  0  0  0  0  0  0  0  0  0  0  0
   12.8393  -19.5134   21.4732 O   0  0  0  0  0  0  0  0  0  0  0  0
  2  3  1  0
  2  1  1  6
  3  4  1  0
  4  5  2  0
  5  6  1  0
  7  8  2  0
  7  6  1  0
  9  8  1  0
 10  9  2  0
 11 10  1  0
 11 12  2  0
 12  4  1  0
 12  7  1  0
 13 21  1  0
 13  2  1  0
 14 13  2  0
 16 15  1  0
 17 16  2  0
 18 16  1  0
 19 18  1  0
 20 19  1  1
 20 21  1  0
 22 20  1  0
 22 23  2  0
 24 22  1  0
 25 24  1  0
 25 32  1  0
 25 26  1  1
 27 26  1  0
 28 27  2  0
 29 30  1  0
 29 28  1  0
 30 31  2  0
 31 27  1  0
 32 34  1  0
 33 32  2  0
M  END
$$$$
