WQH.pdb
     RDKit          3D

 34 36  0  0  1  0  0  0  0  0999 V2000
    9.1318  -18.0877   18.7745 N   0  0  0  0  0  0  0  0  0  0  0  0
   10.1048  -17.0544   19.1426 C   0  0  1  0  0  0  0  0  0  0  0  0
    9.7488  -16.6157   20.5458 C   0  0  0  0  0  0  0  0  0  0  0  0
    8.6056  -15.6743   20.5103 C   0  0  0  0  0  0  0  0  0  0  0  0
    7.3494  -15.8779   21.0498 C   0  0  0  0  0  0  0  0  0  0  0  0
    6.5980  -14.7688   20.7968 N   0  0  0  0  0  0  0  0  0  0  0  0
    7.3087  -13.8694   20.1249 C   0  0  0  0  0  0  0  0  0  0  0  0
    7.0441  -12.6152   19.6312 C   0  0  0  0  0  0  0  0  0  0  0  0
    8.0399  -11.9416   18.9634 C   0  0  0  0  0  0  0  0  0  0  0  0
    9.3033  -12.4827   18.7696 C   0  0  0  0  0  0  0  0  0  0  0  0
    9.5622  -13.7444   19.2688 C   0  0  0  0  0  0  0  0  0  0  0  0
    8.5724  -14.4283   19.9394 C   0  0  0  0  0  0  0  0  0  0  0  0
   11.4839  -17.5919   19.0678 C   0  0  0  0  0  0  0  0  0  0  0  0
   11.8899  -18.2092   18.0271 O   0  0  0  0  0  0  0  0  0  0  0  0
   15.0338  -14.6229   17.0603 N   0  0  0  0  0  0  0  0  0  0  0  0
   14.4943  -14.2457   18.3079 C   0  0  0  0  0  0  0  0  0  0  0  0
   14.3769  -13.0224   18.5356 O   0  0  0  0  0  0  0  0  0  0  0  0
   14.0919  -15.2517   19.2914 C   0  0  0  0  0  0  0  0  0  0  0  0
   14.3957  -16.6717   18.9165 C   0  0  0  0  0  0  0  0  0  0  0  0
   13.8725  -17.6508   19.9218 C   0  0  2  0  0  0  0  0  0  0  0  0
   12.4263  -17.4626   20.1185 N   0  0  0  0  0  0  0  0  0  0  0  0
   14.5694  -17.6410   21.2286 C   0  0  0  0  0  0  0  0  0  0  0  0
   15.8152  -17.6098   21.3807 O   0  0  0  0  0  0  0  0  0  0  0  0
   13.8458  -17.6674   22.4715 N   0  0  0  0  0  0  0  0  0  0  0  0
   14.4604  -17.8422   23.7583 C   0  0  1  0  0  0  0  0  0  0  0  0
   13.3816  -17.6781   24.8084 C   0  0  0  0  0  0  0  0  0  0  0  0
   12.4070  -16.6407   24.4073 C   0  0  0  0  0  0  0  0  0  0  0  0
   12.5533  -15.7941   23.3173 C   0  0  0  0  0  0  0  0  0  0  0  0
   11.4692  -14.9891   23.2736 N   0  0  0  0  0  0  0  0  0  0  0  0
   10.6573  -15.3140   24.3054 C   0  0  0  0  0  0  0  0  0  0  0  0
   11.2419  -16.3122   24.9761 N   0  0  0  0  0  0  0  0  0  0  0  0
   15.2902  -19.0169   23.9001 C   0  0  0  0  0  0  0  0  0  0  0  0
   15.3957  -19.8498   22.9761 O   0  0  0  0  0  0  0  0  0  0  0  0
   15.9923  -19.2570   25.0576 O   0  0  0  0  0  0  0  0  0  0  0  0
  2  3  1  0
  2  1  1  1
  3  4  1  0
  4  5  2  0
  5  6  1  0
  7  8  2  0
  7  6  1  0
  9  8  1  0
 10  9  2  0
 11 10  1  0
 11 12  2  0
 12  4  1  0
 12  7  1  0
 13 21  1  0
 13  2  1  0
 14 13  2  0
 16 15  1  0
 17 16  2  0
 18 16  1  0
 19 18  1  0
 20 19  1  6
 20 21  1  0
 22 20  1  0
 22 23  2  0
 24 22  1  0
 25 24  1  0
 25 32  1  0
 25 26  1  1
 27 26  1  0
 28 27  2  0
 29 30  1  0
 29 28  1  0
 30 31  2  0
 31 27  1  0
 32 34  1  0
 33 32  2  0
M  END
$$$$
