LCK.pdb
     RDKit          3D

 24 23  0  0  1  0  0  0  0  0999 V2000
   28.2570  -16.9393  -14.9744 C   0  0  0  0  0  0  0  0  0  0  0  0
   27.3676  -17.5818  -16.0178 C   0  0  2  0  0  0  0  0  0  0  0  0
   26.4168  -16.4827  -16.5101 C   0  0  0  0  0  0  0  0  0  0  0  0
   26.4975  -18.5982  -15.3116 C   0  0  0  0  0  0  0  0  0  0  0  0
   27.3182  -19.6982  -14.6791 C   0  0  2  0  0  0  0  0  0  0  0  0
   28.0231  -20.4151  -15.6934 N   0  0  0  0  0  0  0  0  0  0  0  0
   26.3348  -20.5841  -13.9572 C   0  0  0  0  0  0  0  0  0  0  0  0
   25.7898  -21.5380  -14.5762 O   0  0  0  0  0  0  0  0  0  0  0  0
   26.0239  -20.3513  -12.5998 N   0  0  0  0  0  0  0  0  0  0  0  0
   24.9933  -21.1758  -11.9741 C   0  0  1  0  0  0  0  0  0  0  0  0
   25.1944  -21.0450  -10.4796 C   0  0  0  0  0  0  0  0  0  0  0  0
   25.6534  -19.3894   -9.9578 S   0  0  0  0  0  0  0  0  0  0  0  0
   23.6508  -20.6962  -12.3432 C   0  0  0  0  0  0  0  0  0  0  0  0
   23.4695  -19.4309  -12.3544 O   0  0  0  0  0  0  0  0  0  0  0  0
   22.5386  -21.4797  -12.6902 N   0  0  0  0  0  0  0  0  0  0  0  0
   21.2065  -20.8378  -13.0223 C   0  0  1  0  0  0  0  0  0  0  0  0
   20.9562  -21.1719  -14.4461 C   0  0  0  0  0  0  0  0  0  0  0  0
   21.6857  -20.5902  -15.5541 C   0  0  0  0  0  0  0  0  0  0  0  0
   22.2685  -21.3793  -16.6479 C   0  0  0  0  0  0  0  0  0  0  0  0
   22.9145  -20.4111  -17.6848 C   0  0  0  0  0  0  0  0  0  0  0  0
   23.4592  -21.1401  -18.7893 N   0  0  0  0  0  0  0  0  0  0  0  0
   20.2727  -21.5654  -12.1362 C   0  0  0  0  0  0  0  0  0  0  0  0
   18.9284  -21.1410  -12.0492 O   0  0  0  0  0  0  0  0  0  0  0  0
   20.5537  -22.5380  -11.4392 O   0  0  0  0  0  0  0  0  0  0  0  0
  2  1  1  1
  3  2  1  0
  4  2  1  0
  4  5  1  0
  5  6  1  6
  7  5  1  0
  7  8  2  0
  9  7  1  0
 10  9  1  0
 10 11  1  1
 11 12  1  0
 13 10  1  0
 14 13  2  0
 15 13  1  0
 16 17  1  6
 16 15  1  0
 17 18  1  0
 19 18  1  0
 20 21  1  0
 20 19  1  0
 22 16  1  0
 23 22  1  0
 24 22  2  0
M  END
$$$$
