LCK.pdb
     RDKit          3D

 24 23  0  0  1  0  0  0  0  0999 V2000
   19.3051  -13.8647  -19.4036 C   0  0  0  0  0  0  0  0  0  0  0  0
   19.5439  -14.2912  -17.9706 C   0  0  2  0  0  0  0  0  0  0  0  0
   18.5204  -15.3949  -17.6728 C   0  0  0  0  0  0  0  0  0  0  0  0
   19.1702  -13.1267  -17.0801 C   0  0  0  0  0  0  0  0  0  0  0  0
   20.0016  -11.9007  -17.3791 C   0  0  2  0  0  0  0  0  0  0  0  0
   21.3621  -12.1438  -17.0196 N   0  0  0  0  0  0  0  0  0  0  0  0
   19.4033  -10.7859  -16.5592 C   0  0  0  0  0  0  0  0  0  0  0  0
   18.1570  -10.5954  -16.5883 O   0  0  0  0  0  0  0  0  0  0  0  0
   20.2274   -9.9600  -15.7641 N   0  0  0  0  0  0  0  0  0  0  0  0
   19.6196   -8.8111  -15.0978 C   0  0  1  0  0  0  0  0  0  0  0  0
   20.4073   -8.5938  -13.8237 C   0  0  0  0  0  0  0  0  0  0  0  0
   22.1777   -8.4528  -14.0876 S   0  0  0  0  0  0  0  0  0  0  0  0
   19.7042   -7.6130  -15.9500 C   0  0  0  0  0  0  0  0  0  0  0  0
   20.6457   -7.5811  -16.8141 O   0  0  0  0  0  0  0  0  0  0  0  0
   18.8575   -6.4936  -15.9216 N   0  0  0  0  0  0  0  0  0  0  0  0
   19.0290   -5.3615  -16.9145 C   0  0  1  0  0  0  0  0  0  0  0  0
   17.6519   -4.9810  -17.3147 C   0  0  0  0  0  0  0  0  0  0  0  0
   17.3347   -3.8166  -18.1159 C   0  0  0  0  0  0  0  0  0  0  0  0
   15.9670   -3.4428  -18.5014 C   0  0  0  0  0  0  0  0  0  0  0  0
   16.0276   -2.2224  -19.4695 C   0  0  0  0  0  0  0  0  0  0  0  0
   14.7288   -1.9227  -19.9904 N   0  0  0  0  0  0  0  0  0  0  0  0
   19.6509   -4.3046  -16.0883 C   0  0  0  0  0  0  0  0  0  0  0  0
   19.4435   -4.3062  -14.6912 O   0  0  0  0  0  0  0  0  0  0  0  0
   20.3561   -3.3882  -16.5050 O   0  0  0  0  0  0  0  0  0  0  0  0
  2  1  1  6
  3  2  1  0
  4  2  1  0
  4  5  1  0
  5  6  1  1
  7  5  1  0
  7  8  2  0
  9  7  1  0
 10  9  1  0
 10 11  1  1
 11 12  1  0
 13 10  1  0
 14 13  2  0
 15 13  1  0
 16 17  1  1
 16 15  1  0
 17 18  1  0
 19 18  1  0
 20 21  1  0
 20 19  1  0
 22 16  1  0
 23 22  1  0
 24 22  2  0
M  END
$$$$
