LCK.pdb
     RDKit          3D

 24 23  0  0  1  0  0  0  0  0999 V2000
   22.7016  -22.7243  -16.7718 C   0  0  0  0  0  0  0  0  0  0  0  0
   23.4616  -23.9178  -17.3107 C   0  0  2  0  0  0  0  0  0  0  0  0
   22.9052  -24.1850  -18.7154 C   0  0  0  0  0  0  0  0  0  0  0  0
   23.0758  -25.1188  -16.4756 C   0  0  0  0  0  0  0  0  0  0  0  0
   23.4904  -24.9563  -15.0315 C   0  0  2  0  0  0  0  0  0  0  0  0
   24.9153  -24.9691  -14.9369 N   0  0  0  0  0  0  0  0  0  0  0  0
   22.8762  -26.1178  -14.2922 C   0  0  0  0  0  0  0  0  0  0  0  0
   23.2941  -27.2861  -14.5170 O   0  0  0  0  0  0  0  0  0  0  0  0
   21.8417  -25.9039  -13.3555 N   0  0  0  0  0  0  0  0  0  0  0  0
   21.3299  -27.0537  -12.6143 C   0  0  1  0  0  0  0  0  0  0  0  0
   20.8626  -26.5223  -11.2763 C   0  0  0  0  0  0  0  0  0  0  0  0
   19.6688  -25.1877  -11.4095 S   0  0  0  0  0  0  0  0  0  0  0  0
   20.2011  -27.6714  -13.3304 C   0  0  0  0  0  0  0  0  0  0  0  0
   19.5767  -26.9386  -14.1713 O   0  0  0  0  0  0  0  0  0  0  0  0
   19.7315  -28.9874  -13.1940 N   0  0  0  0  0  0  0  0  0  0  0  0
   18.5191  -29.4661  -13.9672 C   0  0  1  0  0  0  0  0  0  0  0  0
   18.5107  -30.9411  -13.8064 C   0  0  0  0  0  0  0  0  0  0  0  0
   17.4758  -31.8066  -14.3338 C   0  0  0  0  0  0  0  0  0  0  0  0
   17.5052  -33.2713  -14.2213 C   0  0  0  0  0  0  0  0  0  0  0  0
   16.2773  -33.8638  -14.9773 C   0  0  0  0  0  0  0  0  0  0  0  0
   16.3208  -35.2941  -14.9736 N   0  0  0  0  0  0  0  0  0  0  0  0
   17.4017  -28.8465  -13.2228 C   0  0  0  0  0  0  0  0  0  0  0  0
   17.5231  -28.6492  -11.8295 O   0  0  0  0  0  0  0  0  0  0  0  0
   16.3362  -28.4711  -13.7070 O   0  0  0  0  0  0  0  0  0  0  0  0
  2  1  1  1
  3  2  1  0
  4  2  1  0
  4  5  1  0
  5  6  1  6
  7  5  1  0
  7  8  2  0
  9  7  1  0
 10  9  1  0
 10 11  1  1
 11 12  1  0
 13 10  1  0
 14 13  2  0
 15 13  1  0
 16 17  1  1
 16 15  1  0
 17 18  1  0
 19 18  1  0
 20 21  1  0
 20 19  1  0
 22 16  1  0
 23 22  1  0
 24 22  2  0
M  END
$$$$
