AQK.pdb
     RDKit          3D

 24 23  0  0  1  0  0  0  0  0999 V2000
   19.2393  -11.3267  -17.1934 C   0  0  0  0  0  0  0  0  0  0  0  0
   20.1465  -10.2255  -17.7057 C   0  0  2  0  0  0  0  0  0  0  0  0
   21.5366  -10.5290  -17.5044 N   0  0  0  0  0  0  0  0  0  0  0  0
   19.7373   -8.9632  -17.0518 C   0  0  0  0  0  0  0  0  0  0  0  0
   18.5424   -8.5963  -17.1923 O   0  0  0  0  0  0  0  0  0  0  0  0
   21.8687   -6.3965  -11.8653 N   0  0  0  0  0  0  0  0  0  0  0  0
   20.6509   -7.1349  -11.9331 C   0  0  0  0  0  0  0  0  0  0  0  0
   20.1628   -7.5243  -10.8431 O   0  0  0  0  0  0  0  0  0  0  0  0
   20.0011   -7.4229  -13.2371 C   0  0  0  0  0  0  0  0  0  0  0  0
   20.7866   -6.7004  -14.3097 C   0  0  0  0  0  0  0  0  0  0  0  0
   20.1746   -6.8979  -15.6810 C   0  0  2  0  0  0  0  0  0  0  0  0
   20.5953   -8.1448  -16.2826 N   0  0  0  0  0  0  0  0  0  0  0  0
   20.5409   -5.7296  -16.5135 C   0  0  0  0  0  0  0  0  0  0  0  0
   21.6743   -5.7454  -17.0592 O   0  0  0  0  0  0  0  0  0  0  0  0
   19.7169   -4.6135  -16.7344 N   0  0  0  0  0  0  0  0  0  0  0  0
   20.0539   -3.5607  -17.6713 C   0  0  1  0  0  0  0  0  0  0  0  0
   18.8893   -3.1847  -18.5485 C   0  0  0  0  0  0  0  0  0  0  0  0
   19.1963   -2.0497  -19.4856 C   0  0  0  0  0  0  0  0  0  0  0  0
   17.9041   -1.7583  -20.2528 C   0  0  0  0  0  0  0  0  0  0  0  0
   18.0909   -0.6101  -21.2111 C   0  0  0  0  0  0  0  0  0  0  0  0
   16.8488   -0.2928  -21.8466 N   0  0  0  0  0  0  0  0  0  0  0  0
   20.4148   -2.3576  -16.8774 C   0  0  0  0  0  0  0  0  0  0  0  0
   21.1399   -1.3017  -17.4285 O   0  0  0  0  0  0  0  0  0  0  0  0
   20.0785   -2.2442  -15.6713 O   0  0  0  0  0  0  0  0  0  0  0  0
  2  3  1  0
  2  1  1  1
  4  2  1  0
  5  4  2  0
  7  6  1  0
  7  9  1  0
  8  7  2  0
 10  9  1  0
 11 10  1  1
 11 12  1  0
 12  4  1  0
 13 11  1  0
 13 15  1  0
 14 13  2  0
 16 17  1  6
 16 15  1  0
 16 22  1  0
 18 17  1  0
 19 18  1  0
 20 19  1  0
 20 21  1  0
 22 23  1  0
 24 22  2  0
M  END
$$$$
