AQK.pdb
     RDKit          3D

 24 23  0  0  1  0  0  0  0  0999 V2000
   27.6301  -11.4338  -15.4247 C   0  0  0  0  0  0  0  0  0  0  0  0
   26.7388  -12.4251  -16.1465 C   0  0  2  0  0  0  0  0  0  0  0  0
   27.4056  -13.0467  -17.2574 N   0  0  0  0  0  0  0  0  0  0  0  0
   25.5047  -11.7142  -16.5465 C   0  0  0  0  0  0  0  0  0  0  0  0
   25.5107  -11.1164  -17.6531 O   0  0  0  0  0  0  0  0  0  0  0  0
   19.6414  -13.0508  -15.0681 N   0  0  0  0  0  0  0  0  0  0  0  0
   19.4549  -11.8405  -15.7982 C   0  0  0  0  0  0  0  0  0  0  0  0
   18.2704  -11.5101  -16.0548 O   0  0  0  0  0  0  0  0  0  0  0  0
   20.6147  -11.0190  -16.2288 C   0  0  0  0  0  0  0  0  0  0  0  0
   21.8720  -11.7293  -15.7770 C   0  0  0  0  0  0  0  0  0  0  0  0
   23.1200  -10.9849  -16.2040 C   0  0  2  0  0  0  0  0  0  0  0  0
   24.3237  -11.6617  -15.7718 N   0  0  0  0  0  0  0  0  0  0  0  0
   23.0339   -9.6088  -15.6644 C   0  0  0  0  0  0  0  0  0  0  0  0
   23.4035   -9.4337  -14.4747 O   0  0  0  0  0  0  0  0  0  0  0  0
   22.5718   -8.4940  -16.3834 N   0  0  0  0  0  0  0  0  0  0  0  0
   22.4949   -7.1654  -15.8100 C   0  0  1  0  0  0  0  0  0  0  0  0
   22.3302   -6.1001  -16.8613 C   0  0  0  0  0  0  0  0  0  0  0  0
   22.1977   -4.7170  -16.2867 C   0  0  0  0  0  0  0  0  0  0  0  0
   22.2104   -3.7505  -17.4737 C   0  0  0  0  0  0  0  0  0  0  0  0
   22.1918   -2.3181  -17.0056 C   0  0  0  0  0  0  0  0  0  0  0  0
   22.1675   -1.4334  -18.1299 N   0  0  0  0  0  0  0  0  0  0  0  0
   21.2868   -7.1231  -14.9460 C   0  0  0  0  0  0  0  0  0  0  0  0
   21.3095   -6.5481  -13.6758 O   0  0  0  0  0  0  0  0  0  0  0  0
   20.1911   -7.6067  -15.3285 O   0  0  0  0  0  0  0  0  0  0  0  0
  2  3  1  0
  2  1  1  6
  4  2  1  0
  5  4  2  0
  7  6  1  0
  7  9  1  0
  8  7  2  0
 10  9  1  0
 11 10  1  1
 11 12  1  0
 12  4  1  0
 13 11  1  0
 13 15  1  0
 14 13  2  0
 16 17  1  6
 16 15  1  0
 16 22  1  0
 18 17  1  0
 19 18  1  0
 20 19  1  0
 20 21  1  0
 22 23  1  0
 24 22  2  0
M  END
$$$$
