AQK.pdb
     RDKit          3D

 24 23  0  0  1  0  0  0  0  0999 V2000
   25.5518  -21.2873  -14.9612 C   0  0  0  0  0  0  0  0  0  0  0  0
   24.3377  -20.6983  -15.6520 C   0  0  2  0  0  0  0  0  0  0  0  0
   24.6477  -19.4823  -16.3523 N   0  0  0  0  0  0  0  0  0  0  0  0
   23.2822  -20.5164  -14.6317 C   0  0  0  0  0  0  0  0  0  0  0  0
   23.6331  -20.0905  -13.5015 O   0  0  0  0  0  0  0  0  0  0  0  0
   18.7052  -18.4259  -16.5422 N   0  0  0  0  0  0  0  0  0  0  0  0
   19.3793  -17.6178  -15.5802 C   0  0  0  0  0  0  0  0  0  0  0  0
   19.3585  -16.3760  -15.7687 O   0  0  0  0  0  0  0  0  0  0  0  0
   20.0694  -18.2283  -14.4155 C   0  0  0  0  0  0  0  0  0  0  0  0
   19.7501  -19.7074  -14.4176 C   0  0  0  0  0  0  0  0  0  0  0  0
   20.8898  -20.5271  -13.8491 C   0  0  2  0  0  0  0  0  0  0  0  0
   21.9109  -20.7879  -14.8406 N   0  0  0  0  0  0  0  0  0  0  0  0
   20.3187  -21.7778  -13.2997 C   0  0  0  0  0  0  0  0  0  0  0  0
   20.1263  -22.7244  -14.1056 O   0  0  0  0  0  0  0  0  0  0  0  0
   19.9794  -21.9788  -11.9514 N   0  0  0  0  0  0  0  0  0  0  0  0
   19.3391  -23.1878  -11.4737 C   0  0  1  0  0  0  0  0  0  0  0  0
   19.3413  -23.2776   -9.9707 C   0  0  0  0  0  0  0  0  0  0  0  0
   18.5738  -24.4599   -9.4473 C   0  0  0  0  0  0  0  0  0  0  0  0
   18.6511  -24.3864   -7.9202 C   0  0  0  0  0  0  0  0  0  0  0  0
   17.9556  -25.5633   -7.2858 C   0  0  0  0  0  0  0  0  0  0  0  0
   17.9785  -25.4385   -5.8606 N   0  0  0  0  0  0  0  0  0  0  0  0
   17.9197  -23.1419  -11.9109 C   0  0  0  0  0  0  0  0  0  0  0  0
   17.2527  -24.2779  -12.3680 O   0  0  0  0  0  0  0  0  0  0  0  0
   17.2613  -22.0711  -11.8855 O   0  0  0  0  0  0  0  0  0  0  0  0
  2  3  1  0
  2  1  1  1
  4  2  1  0
  5  4  2  0
  7  6  1  0
  7  9  1  0
  8  7  2  0
 10  9  1  0
 11 10  1  6
 11 12  1  0
 12  4  1  0
 13 11  1  0
 13 15  1  0
 14 13  2  0
 16 17  1  1
 16 15  1  0
 16 22  1  0
 18 17  1  0
 19 18  1  0
 20 19  1  0
 20 21  1  0
 22 23  1  0
 24 22  2  0
M  END
$$$$
