AQK.pdb
     RDKit          3D

 24 23  0  0  1  0  0  0  0  0999 V2000
   14.2363  -11.2960  -14.7832 C   0  0  0  0  0  0  0  0  0  0  0  0
   15.7370  -11.1139  -14.8972 C   0  0  2  0  0  0  0  0  0  0  0  0
   16.4634  -12.1488  -14.2143 N   0  0  0  0  0  0  0  0  0  0  0  0
   16.0663   -9.7608  -14.3981 C   0  0  0  0  0  0  0  0  0  0  0  0
   15.5692   -8.7792  -15.0076 O   0  0  0  0  0  0  0  0  0  0  0  0
   16.1528   -7.7776   -8.7231 N   0  0  0  0  0  0  0  0  0  0  0  0
   16.6932   -6.6221   -9.3600 C   0  0  0  0  0  0  0  0  0  0  0  0
   16.8555   -5.6035   -8.6430 O   0  0  0  0  0  0  0  0  0  0  0  0
   17.0432   -6.6359  -10.8032 C   0  0  0  0  0  0  0  0  0  0  0  0
   16.7559   -8.0246  -11.3309 C   0  0  0  0  0  0  0  0  0  0  0  0
   17.1558   -8.1649  -12.7850 C   0  0  2  0  0  0  0  0  0  0  0  0
   16.8988   -9.4976  -13.2867 N   0  0  0  0  0  0  0  0  0  0  0  0
   18.5851   -7.7957  -12.8997 C   0  0  0  0  0  0  0  0  0  0  0  0
   19.4298   -8.6338  -12.4915 O   0  0  0  0  0  0  0  0  0  0  0  0
   19.0593   -6.5839  -13.4288 N   0  0  0  0  0  0  0  0  0  0  0  0
   20.4499   -6.3673  -13.7738 C   0  0  1  0  0  0  0  0  0  0  0  0
   20.6305   -6.0403  -15.2324 C   0  0  0  0  0  0  0  0  0  0  0  0
   22.0651   -5.7964  -15.6111 C   0  0  0  0  0  0  0  0  0  0  0  0
   22.0624   -5.3990  -17.0894 C   0  0  0  0  0  0  0  0  0  0  0  0
   23.4669   -5.3141  -17.6295 C   0  0  0  0  0  0  0  0  0  0  0  0
   24.2022   -4.3046  -16.9311 N   0  0  0  0  0  0  0  0  0  0  0  0
   20.9234   -5.1929  -12.9964 C   0  0  0  0  0  0  0  0  0  0  0  0
   22.2347   -5.0973  -12.5317 O   0  0  0  0  0  0  0  0  0  0  0  0
   20.1560   -4.2345  -12.7258 O   0  0  0  0  0  0  0  0  0  0  0  0
  2  3  1  0
  2  1  1  1
  4  2  1  0
  5  4  2  0
  7  6  1  0
  7  9  1  0
  8  7  2  0
 10  9  1  0
 11 10  1  1
 11 12  1  0
 12  4  1  0
 13 11  1  0
 13 15  1  0
 14 13  2  0
 16 17  1  6
 16 15  1  0
 16 22  1  0
 18 17  1  0
 19 18  1  0
 20 19  1  0
 20 21  1  0
 22 23  1  0
 24 22  2  0
M  END
$$$$
