AQK.pdb
     RDKit          3D

 24 23  0  0  1  0  0  0  0  0999 V2000
   12.9001  -10.9954  -12.6487 C   0  0  0  0  0  0  0  0  0  0  0  0
   14.3836  -11.1301  -12.3673 C   0  0  2  0  0  0  0  0  0  0  0  0
   14.6467  -11.9603  -11.2242 N   0  0  0  0  0  0  0  0  0  0  0  0
   14.9410   -9.7673  -12.2235 C   0  0  0  0  0  0  0  0  0  0  0  0
   14.8049   -8.9780  -13.1933 O   0  0  0  0  0  0  0  0  0  0  0  0
   15.2608   -6.1976   -7.1958 N   0  0  0  0  0  0  0  0  0  0  0  0
   14.1459   -6.4052   -8.0599 C   0  0  0  0  0  0  0  0  0  0  0  0
   13.0229   -6.0362   -7.6348 O   0  0  0  0  0  0  0  0  0  0  0  0
   14.3182   -7.0293   -9.3965 C   0  0  0  0  0  0  0  0  0  0  0  0
   15.7825   -7.3763   -9.5546 C   0  0  0  0  0  0  0  0  0  0  0  0
   16.0808   -7.9322  -10.9315 C   0  0  2  0  0  0  0  0  0  0  0  0
   15.6136   -9.2942  -11.0739 N   0  0  0  0  0  0  0  0  0  0  0  0
   17.5395   -7.8201  -11.1594 C   0  0  0  0  0  0  0  0  0  0  0  0
   18.2747   -8.6814  -10.6116 O   0  0  0  0  0  0  0  0  0  0  0  0
   18.1543   -6.8263  -11.9390 N   0  0  0  0  0  0  0  0  0  0  0  0
   19.5034   -6.9527  -12.4528 C   0  0  1  0  0  0  0  0  0  0  0  0
   19.6410   -8.1026  -13.4150 C   0  0  0  0  0  0  0  0  0  0  0  0
   20.9986   -8.1781  -14.0569 C   0  0  0  0  0  0  0  0  0  0  0  0
   20.9430   -9.3369  -15.0555 C   0  0  0  0  0  0  0  0  0  0  0  0
   22.2818   -9.5480  -15.7147 C   0  0  0  0  0  0  0  0  0  0  0  0
   22.2151  -10.6532  -16.6210 N   0  0  0  0  0  0  0  0  0  0  0  0
   19.8112   -5.7088  -13.2049 C   0  0  0  0  0  0  0  0  0  0  0  0
   21.1090   -5.2075  -13.2999 O   0  0  0  0  0  0  0  0  0  0  0  0
   18.9086   -5.0562  -13.7882 O   0  0  0  0  0  0  0  0  0  0  0  0
  2  3  1  0
  2  1  1  1
  4  2  1  0
  5  4  2  0
  7  6  1  0
  7  9  1  0
  8  7  2  0
 10  9  1  0
 11 10  1  1
 11 12  1  0
 12  4  1  0
 13 11  1  0
 13 15  1  0
 14 13  2  0
 16 17  1  6
 16 15  1  0
 16 22  1  0
 18 17  1  0
 19 18  1  0
 20 19  1  0
 20 21  1  0
 22 23  1  0
 24 22  2  0
M  END
$$$$
