AQK.pdb
     RDKit          3D

 24 23  0  0  1  0  0  0  0  0999 V2000
   13.1227  -10.6543  -12.8471 C   0  0  0  0  0  0  0  0  0  0  0  0
   14.4457  -11.3342  -12.5550 C   0  0  2  0  0  0  0  0  0  0  0  0
   14.2705  -12.6413  -11.9839 N   0  0  0  0  0  0  0  0  0  0  0  0
   15.2341  -10.4328  -11.6865 C   0  0  0  0  0  0  0  0  0  0  0  0
   14.8230  -10.2507  -10.5118 O   0  0  0  0  0  0  0  0  0  0  0  0
   20.8872   -7.8258  -12.8657 N   0  0  0  0  0  0  0  0  0  0  0  0
   20.6269   -7.3816  -11.5361 C   0  0  0  0  0  0  0  0  0  0  0  0
   21.5481   -6.7530  -10.9580 O   0  0  0  0  0  0  0  0  0  0  0  0
   19.3242   -7.6560  -10.8779 C   0  0  0  0  0  0  0  0  0  0  0  0
   18.5130   -8.5263  -11.8128 C   0  0  0  0  0  0  0  0  0  0  0  0
   17.1798   -8.9101  -11.2051 C   0  0  2  0  0  0  0  0  0  0  0  0
   16.4139   -9.7649  -12.0863 N   0  0  0  0  0  0  0  0  0  0  0  0
   16.4551   -7.6615  -10.8765 C   0  0  0  0  0  0  0  0  0  0  0  0
   15.8650   -7.0742  -11.8196 O   0  0  0  0  0  0  0  0  0  0  0  0
   16.3815   -7.0919   -9.5946 N   0  0  0  0  0  0  0  0  0  0  0  0
   15.6634   -5.8635   -9.3201 C   0  0  1  0  0  0  0  0  0  0  0  0
   14.6357   -6.0352   -8.2332 C   0  0  0  0  0  0  0  0  0  0  0  0
   13.9227   -4.7579   -7.8856 C   0  0  0  0  0  0  0  0  0  0  0  0
   12.9352   -5.1021   -6.7678 C   0  0  0  0  0  0  0  0  0  0  0  0
   12.1375   -3.8907   -6.3584 C   0  0  0  0  0  0  0  0  0  0  0  0
   11.1154   -4.2656   -5.4298 N   0  0  0  0  0  0  0  0  0  0  0  0
   16.6545   -4.8675   -8.8369 C   0  0  0  0  0  0  0  0  0  0  0  0
   16.4058   -3.4964   -8.8882 O   0  0  0  0  0  0  0  0  0  0  0  0
   17.7620   -5.2241   -8.3604 O   0  0  0  0  0  0  0  0  0  0  0  0
  2  3  1  0
  2  1  1  1
  4  2  1  0
  5  4  2  0
  7  6  1  0
  7  9  1  0
  8  7  2  0
 10  9  1  0
 11 10  1  6
 11 12  1  0
 12  4  1  0
 13 11  1  0
 13 15  1  0
 14 13  2  0
 16 17  1  1
 16 15  1  0
 16 22  1  0
 18 17  1  0
 19 18  1  0
 20 19  1  0
 20 21  1  0
 22 23  1  0
 24 22  2  0
M  END
$$$$
