AQK.pdb
     RDKit          3D

 24 23  0  0  1  0  0  0  0  0999 V2000
   17.7438  -12.2894  -15.1188 C   0  0  0  0  0  0  0  0  0  0  0  0
   17.0886  -10.9226  -15.0927 C   0  0  2  0  0  0  0  0  0  0  0  0
   17.2642  -10.2122  -16.3295 N   0  0  0  0  0  0  0  0  0  0  0  0
   17.6287  -10.1856  -13.9294 C   0  0  0  0  0  0  0  0  0  0  0  0
   17.4631  -10.6941  -12.7909 O   0  0  0  0  0  0  0  0  0  0  0  0
   21.9235   -5.5903  -13.8529 N   0  0  0  0  0  0  0  0  0  0  0  0
   21.5343   -5.6301  -12.4818 C   0  0  0  0  0  0  0  0  0  0  0  0
   22.1417   -4.8593  -11.6976 O   0  0  0  0  0  0  0  0  0  0  0  0
   20.4603   -6.5442  -12.0165 C   0  0  0  0  0  0  0  0  0  0  0  0
   19.9210   -7.2717  -13.2287 C   0  0  0  0  0  0  0  0  0  0  0  0
   18.8299   -8.2529  -12.8534 C   0  0  2  0  0  0  0  0  0  0  0  0
   18.3157   -8.9531  -14.0106 N   0  0  0  0  0  0  0  0  0  0  0  0
   17.7694   -7.5019  -12.1438 C   0  0  0  0  0  0  0  0  0  0  0  0
   17.0706   -6.7098  -12.8270 O   0  0  0  0  0  0  0  0  0  0  0  0
   17.4917   -7.6120  -10.7711 N   0  0  0  0  0  0  0  0  0  0  0  0
   16.4454   -6.8520  -10.1173 C   0  0  1  0  0  0  0  0  0  0  0  0
   15.3948   -7.7398   -9.5047 C   0  0  0  0  0  0  0  0  0  0  0  0
   14.2973   -6.9727   -8.8206 C   0  0  0  0  0  0  0  0  0  0  0  0
   13.3227   -8.0132   -8.2630 C   0  0  0  0  0  0  0  0  0  0  0  0
   12.1584   -7.3494   -7.5737 C   0  0  0  0  0  0  0  0  0  0  0  0
   11.1977   -8.3319   -7.1748 N   0  0  0  0  0  0  0  0  0  0  0  0
   17.0765   -6.0870   -9.0108 C   0  0  0  0  0  0  0  0  0  0  0  0
   16.5270   -4.8991   -8.5297 O   0  0  0  0  0  0  0  0  0  0  0  0
   18.1362   -6.4830   -8.4624 O   0  0  0  0  0  0  0  0  0  0  0  0
  2  3  1  0
  2  1  1  6
  4  2  1  0
  5  4  2  0
  7  6  1  0
  7  9  1  0
  8  7  2  0
 10  9  1  0
 11 10  1  6
 11 12  1  0
 12  4  1  0
 13 11  1  0
 13 15  1  0
 14 13  2  0
 16 17  1  1
 16 15  1  0
 16 22  1  0
 18 17  1  0
 19 18  1  0
 20 19  1  0
 20 21  1  0
 22 23  1  0
 24 22  2  0
M  END
$$$$
