YLD.pdb
     RDKit          3D

 29 29  0  0  1  0  0  0  0  0999 V2000
    7.0131  -19.4283   17.0290 O   0  0  0  0  0  0  0  0  0  0  0  0
    7.5329  -18.9029   18.1919 C   0  0  0  0  0  0  0  0  0  0  0  0
    6.7478  -18.1919   19.0736 C   0  0  0  0  0  0  0  0  0  0  0  0
    7.2531  -17.6628   20.2360 C   0  0  0  0  0  0  0  0  0  0  0  0
    8.6022  -17.8506   20.5337 C   0  0  0  0  0  0  0  0  0  0  0  0
    9.1614  -17.2834   21.7878 C   0  0  0  0  0  0  0  0  0  0  0  0
    8.9094  -15.8019   21.8131 C   0  0  2  0  0  0  0  0  0  0  0  0
    9.5591  -15.2046   20.6745 N   0  0  0  0  0  0  0  0  0  0  0  0
    9.3188  -15.1699   23.0891 C   0  0  0  0  0  0  0  0  0  0  0  0
   10.5282  -14.8504   23.2109 O   0  0  0  0  0  0  0  0  0  0  0  0
    9.4210  -18.5617   19.6674 C   0  0  0  0  0  0  0  0  0  0  0  0
    8.8689  -19.0752   18.5104 C   0  0  0  0  0  0  0  0  0  0  0  0
    5.7708  -12.3665   26.5937 C   0  0  0  0  0  0  0  0  0  0  0  0
    7.0430  -12.7223   25.8508 C   0  0  1  0  0  0  0  0  0  0  0  0
    7.9253  -11.5313   25.7381 C   0  0  0  0  0  0  0  0  0  0  0  0
    7.6595  -13.9868   26.3200 C   0  0  0  0  0  0  0  0  0  0  0  0
    8.8094  -14.4985   25.4772 C   0  0  2  0  0  0  0  0  0  0  0  0
    8.4415  -14.9100   24.1593 N   0  0  0  0  0  0  0  0  0  0  0  0
    9.4987  -15.5517   26.2545 C   0  0  0  0  0  0  0  0  0  0  0  0
    9.8737  -15.3526   27.4615 O   0  0  0  0  0  0  0  0  0  0  0  0
    9.7965  -16.8432   25.7414 N   0  0  0  0  0  0  0  0  0  0  0  0
   10.4878  -17.8639   26.4787 C   0  0  1  0  0  0  0  0  0  0  0  0
   10.3514  -19.2378   25.8646 C   0  0  0  0  0  0  0  0  0  0  0  0
    9.2291  -20.0045   26.4232 C   0  0  0  0  0  0  0  0  0  0  0  0
    8.5301  -19.6376   27.3919 O   0  0  0  0  0  0  0  0  0  0  0  0
   11.9003  -17.4629   26.6428 C   0  0  0  0  0  0  0  0  0  0  0  0
   12.6439  -17.6904   27.7855 O   0  0  0  0  0  0  0  0  0  0  0  0
    8.9120  -21.2244   25.8435 O   0  0  0  0  0  0  0  0  0  0  0  0
   12.4692  -16.8791   25.6917 O   0  0  0  0  0  0  0  0  0  0  0  0
  2  3  2  0
  2  1  1  0
  4  3  1  0
  5  4  2  0
  6  5  1  0
  7  6  1  0
  7  8  1  6
  9  7  1  0
  9 10  2  0
 11  5  1  0
 11 12  2  0
 12  2  1  0
 14 13  1  1
 14 15  1  0
 16 14  1  0
 17 18  1  0
 17 16  1  1
 18  9  1  0
 19 17  1  0
 20 19  2  0
 21 19  1  0
 22 23  1  6
 22 21  1  0
 23 24  1  0
 24 25  2  0
 24 28  1  0
 26 27  1  0
 26 22  1  0
 29 26  2  0
M  END
$$$$
