YLD.pdb
     RDKit          3D

 29 29  0  0  1  0  0  0  0  0999 V2000
    6.5768  -19.2192   16.7697 O   0  0  0  0  0  0  0  0  0  0  0  0
    6.9196  -18.7410   18.0157 C   0  0  0  0  0  0  0  0  0  0  0  0
    7.8925  -19.3513   18.7774 C   0  0  0  0  0  0  0  0  0  0  0  0
    8.2439  -18.8852   20.0207 C   0  0  0  0  0  0  0  0  0  0  0  0
    7.5964  -17.7596   20.5284 C   0  0  0  0  0  0  0  0  0  0  0  0
    7.9669  -17.2451   21.8720 C   0  0  0  0  0  0  0  0  0  0  0  0
    8.2815  -15.7791   21.7681 C   0  0  2  0  0  0  0  0  0  0  0  0
    9.2073  -15.5826   20.6820 N   0  0  0  0  0  0  0  0  0  0  0  0
    8.7780  -15.2051   23.0405 C   0  0  0  0  0  0  0  0  0  0  0  0
   10.0221  -15.0819   23.1695 O   0  0  0  0  0  0  0  0  0  0  0  0
    6.6119  -17.1208   19.7873 C   0  0  0  0  0  0  0  0  0  0  0  0
    6.2919  -17.6253   18.5422 C   0  0  0  0  0  0  0  0  0  0  0  0
    5.4144  -12.0330   26.3941 C   0  0  0  0  0  0  0  0  0  0  0  0
    6.6028  -12.5293   25.5952 C   0  0  1  0  0  0  0  0  0  0  0  0
    7.4562  -11.3869   25.1755 C   0  0  0  0  0  0  0  0  0  0  0  0
    7.2784  -13.6945   26.2156 C   0  0  0  0  0  0  0  0  0  0  0  0
    8.3725  -14.3286   25.3815 C   0  0  2  0  0  0  0  0  0  0  0  0
    7.9463  -14.7948   24.0999 N   0  0  0  0  0  0  0  0  0  0  0  0
    9.0144  -15.3745   26.2077 C   0  0  0  0  0  0  0  0  0  0  0  0
    9.4125  -15.1327   27.3993 O   0  0  0  0  0  0  0  0  0  0  0  0
    9.2387  -16.7049   25.7610 N   0  0  0  0  0  0  0  0  0  0  0  0
    9.9032  -17.7147   26.5370 C   0  0  1  0  0  0  0  0  0  0  0  0
    9.5973  -19.1199   26.0729 C   0  0  0  0  0  0  0  0  0  0  0  0
   10.2537  -19.4575   24.8022 C   0  0  0  0  0  0  0  0  0  0  0  0
   10.5477  -18.6308   23.9125 O   0  0  0  0  0  0  0  0  0  0  0  0
   11.3536  -17.4333   26.5483 C   0  0  0  0  0  0  0  0  0  0  0  0
   11.9462  -16.3863   25.8679 O   0  0  0  0  0  0  0  0  0  0  0  0
   10.5757  -20.7851   24.5601 O   0  0  0  0  0  0  0  0  0  0  0  0
   12.1022  -18.1855   27.2138 O   0  0  0  0  0  0  0  0  0  0  0  0
  2  3  2  0
  2  1  1  0
  4  3  1  0
  5  4  2  0
  6  5  1  0
  7  6  1  0
  7  8  1  6
  9  7  1  0
  9 10  2  0
 11  5  1  0
 11 12  2  0
 12  2  1  0
 14 13  1  1
 14 15  1  0
 16 14  1  0
 17 18  1  0
 17 16  1  1
 18  9  1  0
 19 17  1  0
 20 19  2  0
 21 19  1  0
 22 23  1  6
 22 21  1  0
 23 24  1  0
 24 25  2  0
 24 28  1  0
 26 27  1  0
 26 22  1  0
 29 26  2  0
M  END
$$$$
