YLD.pdb
     RDKit          3D

 29 29  0  0  1  0  0  0  0  0999 V2000
   10.8670  -14.3831   30.6363 O   0  0  0  0  0  0  0  0  0  0  0  0
   10.2513  -14.6788   29.4396 C   0  0  0  0  0  0  0  0  0  0  0  0
    9.8483  -13.6853   28.5736 C   0  0  0  0  0  0  0  0  0  0  0  0
    9.2336  -13.9660   27.3779 C   0  0  0  0  0  0  0  0  0  0  0  0
    9.0101  -15.2973   27.0288 C   0  0  0  0  0  0  0  0  0  0  0  0
    8.3460  -15.6146   25.7383 C   0  0  0  0  0  0  0  0  0  0  0  0
    9.3300  -16.3032   24.8348 C   0  0  2  0  0  0  0  0  0  0  0  0
   10.6134  -15.6651   24.9799 N   0  0  0  0  0  0  0  0  0  0  0  0
    8.8816  -16.3490   23.4234 C   0  0  0  0  0  0  0  0  0  0  0  0
    7.8728  -17.0519   23.1628 O   0  0  0  0  0  0  0  0  0  0  0  0
    9.4034  -16.3223   27.8780 C   0  0  0  0  0  0  0  0  0  0  0  0
   10.0179  -15.9921   29.0699 C   0  0  0  0  0  0  0  0  0  0  0  0
    7.3419  -12.4744   20.4414 C   0  0  0  0  0  0  0  0  0  0  0  0
    7.6003  -13.8733   20.9640 C   0  0  1  0  0  0  0  0  0  0  0  0
    6.3252  -14.6310   21.0635 C   0  0  0  0  0  0  0  0  0  0  0  0
    8.7428  -14.5441   20.2979 C   0  0  0  0  0  0  0  0  0  0  0  0
    9.2390  -15.8044   20.9762 C   0  0  2  0  0  0  0  0  0  0  0  0
    9.5127  -15.6587   22.3710 N   0  0  0  0  0  0  0  0  0  0  0  0
   10.3918  -16.3068   20.1969 C   0  0  0  0  0  0  0  0  0  0  0  0
   11.5752  -15.8623   20.3943 O   0  0  0  0  0  0  0  0  0  0  0  0
   10.2876  -17.3014   19.1871 N   0  0  0  0  0  0  0  0  0  0  0  0
   11.3005  -18.2829   18.9146 C   0  0  1  0  0  0  0  0  0  0  0  0
   11.7027  -19.0782   20.1349 C   0  0  0  0  0  0  0  0  0  0  0  0
   12.7623  -20.0572   19.8551 C   0  0  0  0  0  0  0  0  0  0  0  0
   13.2762  -20.2468   18.7319 O   0  0  0  0  0  0  0  0  0  0  0  0
   10.8429  -19.1493   17.8087 C   0  0  0  0  0  0  0  0  0  0  0  0
   11.5395  -19.3356   16.6296 O   0  0  0  0  0  0  0  0  0  0  0  0
   13.2352  -20.8330   20.9035 O   0  0  0  0  0  0  0  0  0  0  0  0
    9.7558  -19.7580   17.9384 O   0  0  0  0  0  0  0  0  0  0  0  0
  2  3  2  0
  2  1  1  0
  4  3  1  0
  5  4  2  0
  6  5  1  0
  7  6  1  0
  7  8  1  6
  9  7  1  0
  9 10  2  0
 11  5  1  0
 11 12  2  0
 12  2  1  0
 14 13  1  6
 14 15  1  0
 16 14  1  0
 17 18  1  0
 17 16  1  6
 18  9  1  0
 19 17  1  0
 20 19  2  0
 21 19  1  0
 22 23  1  1
 22 21  1  0
 23 24  1  0
 24 25  2  0
 24 28  1  0
 26 27  1  0
 26 22  1  0
 29 26  2  0
M  END
$$$$
