YLD.pdb
     RDKit          3D

 29 29  0  0  1  0  0  0  0  0999 V2000
    7.6918  -13.9297   15.3121 O   0  0  0  0  0  0  0  0  0  0  0  0
    8.0876  -13.8663   16.6304 C   0  0  0  0  0  0  0  0  0  0  0  0
    9.1089  -14.6558   17.1133 C   0  0  0  0  0  0  0  0  0  0  0  0
    9.5133  -14.6027   18.4248 C   0  0  0  0  0  0  0  0  0  0  0  0
    8.8710  -13.7229   19.2952 C   0  0  0  0  0  0  0  0  0  0  0  0
    9.2987  -13.6558   20.7164 C   0  0  0  0  0  0  0  0  0  0  0  0
    8.9068  -14.9308   21.4089 C   0  0  2  0  0  0  0  0  0  0  0  0
    7.5104  -15.1807   21.1585 N   0  0  0  0  0  0  0  0  0  0  0  0
    9.2254  -14.9215   22.8558 C   0  0  0  0  0  0  0  0  0  0  0  0
   10.4232  -14.7222   23.1800 O   0  0  0  0  0  0  0  0  0  0  0  0
    7.8386  -12.9137   18.8415 C   0  0  0  0  0  0  0  0  0  0  0  0
    7.4661  -13.0014   17.5146 C   0  0  0  0  0  0  0  0  0  0  0  0
    5.7249  -12.8725   26.7031 C   0  0  0  0  0  0  0  0  0  0  0  0
    7.0426  -13.2320   26.0462 C   0  0  1  0  0  0  0  0  0  0  0  0
    8.1003  -12.2685   26.4494 C   0  0  0  0  0  0  0  0  0  0  0  0
    7.3650  -14.6767   26.1356 C   0  0  0  0  0  0  0  0  0  0  0  0
    8.5293  -15.1346   25.2814 C   0  0  2  0  0  0  0  0  0  0  0  0
    8.2749  -15.1204   23.8754 N   0  0  0  0  0  0  0  0  0  0  0  0
    8.9647  -16.4537   25.7901 C   0  0  0  0  0  0  0  0  0  0  0  0
    8.1709  -17.4570   25.8081 O   0  0  0  0  0  0  0  0  0  0  0  0
   10.2693  -16.7147   26.2899 N   0  0  0  0  0  0  0  0  0  0  0  0
   10.6829  -17.9728   26.8461 C   0  0  1  0  0  0  0  0  0  0  0  0
   12.0540  -18.4070   26.3825 C   0  0  0  0  0  0  0  0  0  0  0  0
   12.1007  -18.7139   24.9461 C   0  0  0  0  0  0  0  0  0  0  0  0
   12.8913  -18.1896   24.1327 O   0  0  0  0  0  0  0  0  0  0  0  0
   10.5881  -17.9000   28.3187 C   0  0  0  0  0  0  0  0  0  0  0  0
   10.7811  -18.9771   29.1631 O   0  0  0  0  0  0  0  0  0  0  0  0
   11.2091  -19.6507   24.4438 O   0  0  0  0  0  0  0  0  0  0  0  0
   10.3159  -16.7964   28.8452 O   0  0  0  0  0  0  0  0  0  0  0  0
  2  3  2  0
  2  1  1  0
  4  3  1  0
  5  4  2  0
  6  5  1  0
  7  6  1  0
  7  8  1  1
  9  7  1  0
  9 10  2  0
 11  5  1  0
 11 12  2  0
 12  2  1  0
 14 13  1  1
 14 15  1  0
 16 14  1  0
 17 18  1  0
 17 16  1  1
 18  9  1  0
 19 17  1  0
 20 19  2  0
 21 19  1  0
 22 23  1  1
 22 21  1  0
 23 24  1  0
 24 25  2  0
 24 28  1  0
 26 27  1  0
 26 22  1  0
 29 26  2  0
M  END
$$$$
