YLD.pdb
     RDKit          3D

 29 29  0  0  1  0  0  0  0  0999 V2000
    7.5701  -13.8946   15.5871 O   0  0  0  0  0  0  0  0  0  0  0  0
    8.0448  -13.8800   16.8806 C   0  0  0  0  0  0  0  0  0  0  0  0
    9.1324  -14.6385   17.2560 C   0  0  0  0  0  0  0  0  0  0  0  0
    9.6158  -14.6333   18.5417 C   0  0  0  0  0  0  0  0  0  0  0  0
    8.9869  -13.8359   19.4970 C   0  0  0  0  0  0  0  0  0  0  0  0
    9.4996  -13.8212   20.8913 C   0  0  0  0  0  0  0  0  0  0  0  0
    9.0330  -15.0616   21.6004 C   0  0  2  0  0  0  0  0  0  0  0  0
    7.6390  -15.2667   21.3006 N   0  0  0  0  0  0  0  0  0  0  0  0
    9.2948  -15.0244   23.0582 C   0  0  0  0  0  0  0  0  0  0  0  0
   10.4892  -14.8888   23.4250 O   0  0  0  0  0  0  0  0  0  0  0  0
    7.8890  -13.0597   19.1525 C   0  0  0  0  0  0  0  0  0  0  0  0
    7.4382  -13.0970   17.8476 C   0  0  0  0  0  0  0  0  0  0  0  0
    5.7041  -12.7769   26.7272 C   0  0  0  0  0  0  0  0  0  0  0  0
    7.0294  -13.1861   26.1162 C   0  0  1  0  0  0  0  0  0  0  0  0
    8.0970  -12.2301   26.5110 C   0  0  0  0  0  0  0  0  0  0  0  0
    7.3193  -14.6328   26.2647 C   0  0  0  0  0  0  0  0  0  0  0  0
    8.4953  -15.1439   25.4581 C   0  0  2  0  0  0  0  0  0  0  0  0
    8.2946  -15.1307   24.0435 N   0  0  0  0  0  0  0  0  0  0  0  0
    8.8577  -16.4753   25.9914 C   0  0  0  0  0  0  0  0  0  0  0  0
    7.9639  -17.3436   26.2818 O   0  0  0  0  0  0  0  0  0  0  0  0
   10.1958  -16.8952   26.2214 N   0  0  0  0  0  0  0  0  0  0  0  0
   10.5547  -18.1253   26.8707 C   0  0  1  0  0  0  0  0  0  0  0  0
   11.9262  -18.6261   26.4813 C   0  0  0  0  0  0  0  0  0  0  0  0
   12.0518  -18.8855   25.0404 C   0  0  0  0  0  0  0  0  0  0  0  0
   11.1029  -18.8577   24.2278 O   0  0  0  0  0  0  0  0  0  0  0  0
   10.4162  -17.9541   28.3316 C   0  0  0  0  0  0  0  0  0  0  0  0
   10.1650  -16.7442   28.9509 O   0  0  0  0  0  0  0  0  0  0  0  0
   13.3079  -19.1840   24.5324 O   0  0  0  0  0  0  0  0  0  0  0  0
   10.5321  -18.9635   29.0643 O   0  0  0  0  0  0  0  0  0  0  0  0
  2  3  2  0
  2  1  1  0
  4  3  1  0
  5  4  2  0
  6  5  1  0
  7  6  1  0
  7  8  1  1
  9  7  1  0
  9 10  2  0
 11  5  1  0
 11 12  2  0
 12  2  1  0
 14 13  1  1
 14 15  1  0
 16 14  1  0
 17 18  1  0
 17 16  1  1
 18  9  1  0
 19 17  1  0
 20 19  2  0
 21 19  1  0
 22 23  1  1
 22 21  1  0
 23 24  1  0
 24 25  2  0
 24 28  1  0
 26 27  1  0
 26 22  1  0
 29 26  2  0
M  END
$$$$
