YLD.pdb
     RDKit          3D

 29 29  0  0  1  0  0  0  0  0999 V2000
    7.7869  -14.3471   15.6908 O   0  0  0  0  0  0  0  0  0  0  0  0
    8.0723  -14.1551   17.0251 C   0  0  0  0  0  0  0  0  0  0  0  0
    9.1149  -14.8145   17.6394 C   0  0  0  0  0  0  0  0  0  0  0  0
    9.4103  -14.6324   18.9684 C   0  0  0  0  0  0  0  0  0  0  0  0
    8.6315  -13.7532   19.7197 C   0  0  0  0  0  0  0  0  0  0  0  0
    8.9403  -13.5472   21.1582 C   0  0  0  0  0  0  0  0  0  0  0  0
    8.8482  -14.8651   21.8749 C   0  0  2  0  0  0  0  0  0  0  0  0
    7.5740  -15.4656   21.5731 N   0  0  0  0  0  0  0  0  0  0  0  0
    9.0816  -14.7451   23.3330 C   0  0  0  0  0  0  0  0  0  0  0  0
   10.2674  -14.5768   23.7140 O   0  0  0  0  0  0  0  0  0  0  0  0
    7.5739  -13.0730   19.1319 C   0  0  0  0  0  0  0  0  0  0  0  0
    7.3143  -13.2878   17.7927 C   0  0  0  0  0  0  0  0  0  0  0  0
    5.2947  -12.2950   26.5957 C   0  0  0  0  0  0  0  0  0  0  0  0
    6.6440  -12.7188   26.0510 C   0  0  1  0  0  0  0  0  0  0  0  0
    7.6499  -11.6471   26.2726 C   0  0  0  0  0  0  0  0  0  0  0  0
    7.0219  -14.1001   26.4362 C   0  0  0  0  0  0  0  0  0  0  0  0
    8.2285  -14.6661   25.7162 C   0  0  2  0  0  0  0  0  0  0  0  0
    8.0638  -14.8078   24.3039 N   0  0  0  0  0  0  0  0  0  0  0  0
    8.6048  -15.9246   26.3966 C   0  0  0  0  0  0  0  0  0  0  0  0
    8.8860  -15.9501   27.6446 O   0  0  0  0  0  0  0  0  0  0  0  0
    8.6845  -17.1826   25.7403 N   0  0  0  0  0  0  0  0  0  0  0  0
    9.0779  -18.4048   26.3845 C   0  0  1  0  0  0  0  0  0  0  0  0
    8.2333  -19.5903   25.9789 C   0  0  0  0  0  0  0  0  0  0  0  0
    7.2245  -19.2531   24.9650 C   0  0  0  0  0  0  0  0  0  0  0  0
    6.3931  -18.3262   25.0704 O   0  0  0  0  0  0  0  0  0  0  0  0
   10.5168  -18.6338   26.1398 C   0  0  0  0  0  0  0  0  0  0  0  0
   11.2523  -19.6461   26.7267 O   0  0  0  0  0  0  0  0  0  0  0  0
    7.1809  -20.0095   23.8028 O   0  0  0  0  0  0  0  0  0  0  0  0
   11.1174  -17.8672   25.3519 O   0  0  0  0  0  0  0  0  0  0  0  0
  2  3  2  0
  2  1  1  0
  4  3  1  0
  5  4  2  0
  6  5  1  0
  7  6  1  0
  7  8  1  1
  9  7  1  0
  9 10  2  0
 11  5  1  0
 11 12  2  0
 12  2  1  0
 14 13  1  1
 14 15  1  0
 16 14  1  0
 17 18  1  0
 17 16  1  1
 18  9  1  0
 19 17  1  0
 20 19  2  0
 21 19  1  0
 22 23  1  6
 22 21  1  0
 23 24  1  0
 24 25  2  0
 24 28  1  0
 26 27  1  0
 26 22  1  0
 29 26  2  0
M  END
$$$$
