PPT.pdb
     RDKit          3D

 22 23  0  0  1  0  0  0  0  0999 V2000
   28.3035  -20.9801  -14.8943 N   0  0  0  0  0  0  0  0  0  0  0  0
   28.6684  -19.8084  -15.6738 C   0  0  0  0  0  0  0  0  0  0  0  0
   27.5425  -18.8719  -15.2947 C   0  0  0  0  0  0  0  0  0  0  0  0
   27.5296  -19.0126  -13.7907 C   0  0  0  0  0  0  0  0  0  0  0  0
   27.8761  -20.4711  -13.6030 C   0  0  1  0  0  0  0  0  0  0  0  0
   26.6276  -21.1774  -13.2173 C   0  0  0  0  0  0  0  0  0  0  0  0
   26.2183  -22.1942  -13.8753 O   0  0  0  0  0  0  0  0  0  0  0  0
   25.8571  -20.7578  -12.1218 N   0  0  0  0  0  0  0  0  0  0  0  0
   26.1151  -19.6643  -11.2427 C   0  0  0  0  0  0  0  0  0  0  0  0
   25.4362  -19.9892   -9.9268 C   0  0  0  0  0  0  0  0  0  0  0  0
   24.8857  -21.3692  -10.1544 C   0  0  0  0  0  0  0  0  0  0  0  0
   24.6224  -21.3839  -11.6513 C   0  0  1  0  0  0  0  0  0  0  0  0
   23.4906  -20.5018  -11.9964 C   0  0  0  0  0  0  0  0  0  0  0  0
   23.5510  -19.2511  -11.8681 O   0  0  0  0  0  0  0  0  0  0  0  0
   22.8979  -21.9169  -15.1426 C   0  0  0  0  0  0  0  0  0  0  0  0
   22.4781  -20.5196  -14.8017 C   0  0  1  0  0  0  0  0  0  0  0  0
   21.8807  -19.8820  -15.8900 O   0  0  0  0  0  0  0  0  0  0  0  0
   21.5868  -20.4556  -13.5799 C   0  0  2  0  0  0  0  0  0  0  0  0
   22.2762  -21.0881  -12.4964 N   0  0  0  0  0  0  0  0  0  0  0  0
   20.2897  -21.0953  -13.8015 C   0  0  0  0  0  0  0  0  0  0  0  0
   19.3497  -20.4715  -14.6059 O   0  0  0  0  0  0  0  0  0  0  0  0
   19.9819  -22.2055  -13.2868 O   0  0  0  0  0  0  0  0  0  0  0  0
  1  5  1  0
  2  1  1  0
  3  2  1  0
  3  4  1  0
  4  5  1  0
  5  6  1  6
  6  7  2  0
  8  6  1  0
  8 12  1  0
  9 10  1  0
  9  8  1  0
 11 10  1  0
 11 12  1  0
 12 13  1  1
 13 19  1  0
 13 14  2  0
 16 15  1  6
 16 17  1  0
 18 20  1  0
 18 16  1  0
 18 19  1  1
 20 21  1  0
 22 20  2  0
M  END
$$$$
