PPT.pdb
     RDKit          3D

 22 23  0  0  1  0  0  0  0  0999 V2000
   28.4137  -20.8362  -15.1328 N   0  0  0  0  0  0  0  0  0  0  0  0
   28.7075  -19.6468  -15.9156 C   0  0  0  0  0  0  0  0  0  0  0  0
   27.5256  -18.7799  -15.5415 C   0  0  0  0  0  0  0  0  0  0  0  0
   27.5186  -18.9163  -14.0371 C   0  0  0  0  0  0  0  0  0  0  0  0
   27.9535  -20.3502  -13.8439 C   0  0  1  0  0  0  0  0  0  0  0  0
   26.7499  -21.1305  -13.4580 C   0  0  0  0  0  0  0  0  0  0  0  0
   26.4002  -22.1677  -14.1183 O   0  0  0  0  0  0  0  0  0  0  0  0
   25.9583  -20.7606  -12.3596 N   0  0  0  0  0  0  0  0  0  0  0  0
   26.1470  -19.6503  -11.4839 C   0  0  0  0  0  0  0  0  0  0  0  0
   25.4974  -20.0168  -10.1641 C   0  0  0  0  0  0  0  0  0  0  0  0
   25.0391  -21.4309  -10.3863 C   0  0  0  0  0  0  0  0  0  0  0  0
   24.7703  -21.4665  -11.8819 C   0  0  1  0  0  0  0  0  0  0  0  0
   23.5806  -20.6626  -12.2233 C   0  0  0  0  0  0  0  0  0  0  0  0
   23.5703  -19.4072  -12.1329 O   0  0  0  0  0  0  0  0  0  0  0  0
   21.8786  -22.8375  -15.0218 C   0  0  0  0  0  0  0  0  0  0  0  0
   21.9785  -21.3425  -15.0217 C   0  0  1  0  0  0  0  0  0  0  0  0
   21.2468  -20.7780  -16.0675 O   0  0  0  0  0  0  0  0  0  0  0  0
   21.5891  -20.7280  -13.6941 C   0  0  2  0  0  0  0  0  0  0  0  0
   22.3912  -21.3334  -12.6747 N   0  0  0  0  0  0  0  0  0  0  0  0
   20.1675  -20.9017  -13.3947 C   0  0  0  0  0  0  0  0  0  0  0  0
   19.7857  -21.7349  -12.3556 O   0  0  0  0  0  0  0  0  0  0  0  0
   19.2585  -20.3194  -14.0482 O   0  0  0  0  0  0  0  0  0  0  0  0
  1  5  1  0
  2  1  1  0
  3  2  1  0
  3  4  1  0
  4  5  1  0
  5  6  1  6
  6  7  2  0
  8  6  1  0
  8 12  1  0
  9 10  1  0
  9  8  1  0
 11 10  1  0
 11 12  1  0
 12 13  1  1
 13 19  1  0
 13 14  2  0
 16 15  1  1
 16 17  1  0
 18 20  1  0
 18 16  1  0
 18 19  1  1
 20 21  1  0
 22 20  2  0
M  END
$$$$
