PPT.pdb
     RDKit          3D

 22 23  0  0  1  0  0  0  0  0999 V2000
   28.2811  -21.4042  -12.2754 N   0  0  0  0  0  0  0  0  0  0  0  0
   28.0377  -20.7280  -13.5392 C   0  0  0  0  0  0  0  0  0  0  0  0
   26.7755  -19.9670  -13.1983 C   0  0  0  0  0  0  0  0  0  0  0  0
   27.1506  -19.3429  -11.8748 C   0  0  0  0  0  0  0  0  0  0  0  0
   28.0079  -20.4164  -11.2464 C   0  0  1  0  0  0  0  0  0  0  0  0
   27.1973  -21.0663  -10.1847 C   0  0  0  0  0  0  0  0  0  0  0  0
   26.7387  -22.2493  -10.3403 O   0  0  0  0  0  0  0  0  0  0  0  0
   26.9086  -20.4096   -8.9784 N   0  0  0  0  0  0  0  0  0  0  0  0
   27.2086  -19.0598   -8.6274 C   0  0  0  0  0  0  0  0  0  0  0  0
   27.3058  -19.0106   -7.1153 C   0  0  0  0  0  0  0  0  0  0  0  0
   27.1266  -20.4472   -6.7114 C   0  0  0  0  0  0  0  0  0  0  0  0
   26.2435  -21.0004   -7.8180 C   0  0  1  0  0  0  0  0  0  0  0  0
   24.8784  -20.4464   -7.7299 C   0  0  0  0  0  0  0  0  0  0  0  0
   24.6336  -19.2288   -7.9347 O   0  0  0  0  0  0  0  0  0  0  0  0
   22.5497  -21.3177  -10.0053 C   0  0  0  0  0  0  0  0  0  0  0  0
   21.8216  -21.5732   -8.7209 C   0  0  1  0  0  0  0  0  0  0  0  0
   21.6932  -22.9392   -8.4653 O   0  0  0  0  0  0  0  0  0  0  0  0
   22.4433  -20.8571   -7.5410 C   0  0  2  0  0  0  0  0  0  0  0  0
   23.7888  -21.3248   -7.3991 N   0  0  0  0  0  0  0  0  0  0  0  0
   21.6958  -21.0712   -6.3016 C   0  0  0  0  0  0  0  0  0  0  0  0
   20.4080  -20.5729   -6.1865 O   0  0  0  0  0  0  0  0  0  0  0  0
   22.1758  -21.6979   -5.3171 O   0  0  0  0  0  0  0  0  0  0  0  0
  1  5  1  0
  2  1  1  0
  3  2  1  0
  3  4  1  0
  4  5  1  0
  5  6  1  1
  6  7  2  0
  8  6  1  0
  8 12  1  0
  9 10  1  0
  9  8  1  0
 11 10  1  0
 11 12  1  0
 12 13  1  1
 13 19  1  0
 13 14  2  0
 16 15  1  6
 16 17  1  0
 18 20  1  0
 18 16  1  0
 18 19  1  1
 20 21  1  0
 22 20  2  0
M  END
$$$$
