PPT.pdb
     RDKit          3D

 22 23  0  0  1  0  0  0  0  0999 V2000
   28.4645  -20.5959  -15.1266 N   0  0  0  0  0  0  0  0  0  0  0  0
   28.7310  -19.3825  -15.8818 C   0  0  0  0  0  0  0  0  0  0  0  0
   27.4915  -18.5814  -15.5496 C   0  0  0  0  0  0  0  0  0  0  0  0
   27.4266  -18.7388  -14.0487 C   0  0  0  0  0  0  0  0  0  0  0  0
   27.9251  -20.1516  -13.8535 C   0  0  1  0  0  0  0  0  0  0  0  0
   26.7472  -20.9967  -13.5297 C   0  0  0  0  0  0  0  0  0  0  0  0
   26.5031  -22.0637  -14.1901 O   0  0  0  0  0  0  0  0  0  0  0  0
   25.8653  -20.6574  -12.4919 N   0  0  0  0  0  0  0  0  0  0  0  0
   25.9152  -19.5096  -11.6462 C   0  0  0  0  0  0  0  0  0  0  0  0
   25.2183  -19.8860  -10.3536 C   0  0  0  0  0  0  0  0  0  0  0  0
   24.8845  -21.3380  -10.5521 C   0  0  0  0  0  0  0  0  0  0  0  0
   24.7090  -21.4403  -12.0584 C   0  0  1  0  0  0  0  0  0  0  0  0
   23.4833  -20.7437  -12.4950 C   0  0  0  0  0  0  0  0  0  0  0  0
   23.3843  -19.4889  -12.4845 O   0  0  0  0  0  0  0  0  0  0  0  0
   20.3003  -21.4974  -16.0583 C   0  0  0  0  0  0  0  0  0  0  0  0
   21.3641  -21.8932  -15.0802 C   0  0  1  0  0  0  0  0  0  0  0  0
   22.6066  -22.0330  -15.7002 O   0  0  0  0  0  0  0  0  0  0  0  0
   21.4518  -20.9543  -13.8960 C   0  0  2  0  0  0  0  0  0  0  0  0
   22.3622  -21.5222  -12.9484 N   0  0  0  0  0  0  0  0  0  0  0  0
   20.1490  -20.7186  -13.2733 C   0  0  0  0  0  0  0  0  0  0  0  0
   19.3455  -19.6906  -13.7397 O   0  0  0  0  0  0  0  0  0  0  0  0
   19.7156  -21.4182  -12.3167 O   0  0  0  0  0  0  0  0  0  0  0  0
  1  5  1  0
  2  1  1  0
  3  2  1  0
  3  4  1  0
  4  5  1  0
  5  6  1  6
  6  7  2  0
  8  6  1  0
  8 12  1  0
  9 10  1  0
  9  8  1  0
 11 10  1  0
 11 12  1  0
 12 13  1  1
 13 19  1  0
 13 14  2  0
 16 15  1  6
 16 17  1  0
 18 20  1  0
 18 16  1  0
 18 19  1  1
 20 21  1  0
 22 20  2  0
M  END
$$$$
