PPT.pdb
     RDKit          3D

 22 23  0  0  1  0  0  0  0  0999 V2000
   18.7784  -12.5251  -16.9654 N   0  0  0  0  0  0  0  0  0  0  0  0
   17.5734  -12.5798  -17.7771 C   0  0  0  0  0  0  0  0  0  0  0  0
   17.3528  -11.1048  -18.0306 C   0  0  0  0  0  0  0  0  0  0  0  0
   18.7335  -10.6645  -18.4567 C   0  0  0  0  0  0  0  0  0  0  0  0
   19.6248  -11.5249  -17.5918 C   0  0  1  0  0  0  0  0  0  0  0  0
   20.1805  -10.6545  -16.5241 C   0  0  0  0  0  0  0  0  0  0  0  0
   19.7526  -10.7351  -15.3222 O   0  0  0  0  0  0  0  0  0  0  0  0
   21.1910   -9.7186  -16.7939 N   0  0  0  0  0  0  0  0  0  0  0  0
   21.7354   -9.3658  -18.0644 C   0  0  0  0  0  0  0  0  0  0  0  0
   23.1419   -8.8586  -17.8139 C   0  0  0  0  0  0  0  0  0  0  0  0
   23.3225   -9.0593  -16.3353 C   0  0  0  0  0  0  0  0  0  0  0  0
   21.9065   -8.9185  -15.8010 C   0  0  1  0  0  0  0  0  0  0  0  0
   21.4407   -7.5217  -15.9033 C   0  0  0  0  0  0  0  0  0  0  0  0
   20.6116   -7.1528  -16.7756 O   0  0  0  0  0  0  0  0  0  0  0  0
   19.0465   -6.5568  -15.1021 C   0  0  0  0  0  0  0  0  0  0  0  0
   19.8664   -5.7140  -14.1733 C   0  0  1  0  0  0  0  0  0  0  0  0
   20.0117   -6.3181  -12.9236 O   0  0  0  0  0  0  0  0  0  0  0  0
   21.2131   -5.3396  -14.7543 C   0  0  2  0  0  0  0  0  0  0  0  0
   21.9495   -6.5468  -14.9765 N   0  0  0  0  0  0  0  0  0  0  0  0
   21.9652   -4.4367  -13.8825 C   0  0  0  0  0  0  0  0  0  0  0  0
   21.6201   -3.0959  -13.8280 O   0  0  0  0  0  0  0  0  0  0  0  0
   22.9282   -4.8275  -13.1668 O   0  0  0  0  0  0  0  0  0  0  0  0
  1  5  1  0
  2  1  1  0
  3  2  1  0
  3  4  1  0
  4  5  1  0
  5  6  1  1
  6  7  2  0
  8  6  1  0
  8 12  1  0
  9 10  1  0
  9  8  1  0
 11 10  1  0
 11 12  1  0
 12 13  1  6
 13 19  1  0
 13 14  2  0
 16 15  1  6
 16 17  1  0
 18 20  1  0
 18 16  1  0
 18 19  1  1
 20 21  1  0
 22 20  2  0
M  END
$$$$
