GEY.pdb
     RDKit          3D

 26 26  0  0  1  0  0  0  0  0999 V2000
    6.1730  -15.4049   20.4414 N   0  0  0  0  0  0  0  0  0  0  0  0
    7.4737  -14.9228   20.8179 C   0  0  0  0  0  0  0  0  0  0  0  0
    8.2497  -15.9711   21.5606 C   0  0  0  0  0  0  0  0  0  0  0  0
    7.6775  -16.9608   22.0814 O   0  0  0  0  0  0  0  0  0  0  0  0
    9.6612  -15.8902   21.7066 N   0  0  0  0  0  0  0  0  0  0  0  0
   10.4248  -16.9149   22.4383 C   0  0  1  0  0  0  0  0  0  0  0  0
   11.7890  -16.9274   21.8591 C   0  0  0  0  0  0  0  0  0  0  0  0
   11.8964  -17.3379   20.4348 C   0  0  0  0  0  0  0  0  0  0  0  0
   13.2519  -17.6703   19.9838 C   0  0  0  0  0  0  0  0  0  0  0  0
   13.9026  -16.9037   19.2339 O   0  0  0  0  0  0  0  0  0  0  0  0
   10.3658  -16.5415   23.8578 C   0  0  0  0  0  0  0  0  0  0  0  0
   11.0269  -15.5418   24.2396 O   0  0  0  0  0  0  0  0  0  0  0  0
   13.8530  -18.8531   20.3802 O   0  0  0  0  0  0  0  0  0  0  0  0
    6.7477  -11.1631   25.6385 O   0  0  0  0  0  0  0  0  0  0  0  0
    7.1109  -12.4844   25.8762 C   0  0  0  0  0  0  0  0  0  0  0  0
    6.5928  -13.4884   25.0908 C   0  0  0  0  0  0  0  0  0  0  0  0
    6.9482  -14.7829   25.3229 C   0  0  0  0  0  0  0  0  0  0  0  0
    7.8267  -15.0856   26.3445 C   0  0  0  0  0  0  0  0  0  0  0  0
    8.2219  -16.4721   26.6302 C   0  0  0  0  0  0  0  0  0  0  0  0
    9.6376  -16.7885   26.2409 C   0  0  2  0  0  0  0  0  0  0  0  0
    9.6078  -17.2357   24.8401 N   0  0  0  0  0  0  0  0  0  0  0  0
   10.1864  -17.8479   27.1091 C   0  0  0  0  0  0  0  0  0  0  0  0
   10.4381  -18.9863   26.6065 O   0  0  0  0  0  0  0  0  0  0  0  0
    8.3410  -14.0840   27.1252 C   0  0  0  0  0  0  0  0  0  0  0  0
    7.9822  -12.7817   26.8900 C   0  0  0  0  0  0  0  0  0  0  0  0
   10.4533  -17.6991   28.4420 O   0  0  0  0  0  0  0  0  0  0  0  0
  2  1  1  0
  3  2  1  0
  4  3  2  0
  5  3  1  0
  6  5  1  0
  6  7  1  6
  8  7  1  0
  9  8  1  0
 10  9  2  0
 11  6  1  0
 11 21  1  0
 12 11  2  0
 13  9  1  0
 15 14  1  0
 16 15  2  0
 17 16  1  0
 18 17  2  0
 18 24  1  0
 19 18  1  0
 20 21  1  0
 20 22  1  0
 20 19  1  1
 22 26  1  0
 23 22  2  0
 24 25  2  0
 25 15  1  0
M  END
$$$$
