GEY.pdb
     RDKit          3D

 26 26  0  0  1  0  0  0  0  0999 V2000
    6.7960  -13.3005   18.4437 N   0  0  0  0  0  0  0  0  0  0  0  0
    8.1017  -13.2485   19.0424 C   0  0  0  0  0  0  0  0  0  0  0  0
    8.3579  -14.4552   19.8972 C   0  0  0  0  0  0  0  0  0  0  0  0
    7.4382  -14.9893   20.5658 O   0  0  0  0  0  0  0  0  0  0  0  0
    9.6482  -15.0447   19.9873 N   0  0  0  0  0  0  0  0  0  0  0  0
    9.8912  -16.2607   20.7815 C   0  0  1  0  0  0  0  0  0  0  0  0
   10.8881  -17.0661   20.0373 C   0  0  0  0  0  0  0  0  0  0  0  0
   11.2861  -18.3576   20.6558 C   0  0  0  0  0  0  0  0  0  0  0  0
   12.3062  -19.1117   19.9195 C   0  0  0  0  0  0  0  0  0  0  0  0
   13.5161  -19.0763   20.2484 O   0  0  0  0  0  0  0  0  0  0  0  0
   10.3353  -15.8088   22.1068 C   0  0  0  0  0  0  0  0  0  0  0  0
   11.2235  -14.9201   22.1672 O   0  0  0  0  0  0  0  0  0  0  0  0
   11.9532  -19.8904   18.8302 O   0  0  0  0  0  0  0  0  0  0  0  0
   10.7016  -14.7510   30.8760 O   0  0  0  0  0  0  0  0  0  0  0  0
   10.3318  -14.9907   29.5569 C   0  0  0  0  0  0  0  0  0  0  0  0
   10.0791  -13.9328   28.7140 C   0  0  0  0  0  0  0  0  0  0  0  0
    9.7170  -14.1668   27.4218 C   0  0  0  0  0  0  0  0  0  0  0  0
    9.6041  -15.4633   26.9598 C   0  0  0  0  0  0  0  0  0  0  0  0
    9.2039  -15.7517   25.5753 C   0  0  0  0  0  0  0  0  0  0  0  0
   10.3544  -15.7939   24.6108 C   0  0  2  0  0  0  0  0  0  0  0  0
    9.8284  -16.3088   23.3374 N   0  0  0  0  0  0  0  0  0  0  0  0
   11.4230  -16.6743   25.1212 C   0  0  0  0  0  0  0  0  0  0  0  0
   12.4488  -16.1506   25.6552 O   0  0  0  0  0  0  0  0  0  0  0  0
    9.8561  -16.5148   27.8011 C   0  0  0  0  0  0  0  0  0  0  0  0
   10.2205  -16.2774   29.1014 C   0  0  0  0  0  0  0  0  0  0  0  0
   11.3967  -18.0404   25.0655 O   0  0  0  0  0  0  0  0  0  0  0  0
  2  1  1  0
  3  2  1  0
  4  3  2  0
  5  3  1  0
  6  5  1  0
  6  7  1  6
  8  7  1  0
  9  8  1  0
 10  9  2  0
 11  6  1  0
 11 21  1  0
 12 11  2  0
 13  9  1  0
 15 14  1  0
 16 15  2  0
 17 16  1  0
 18 17  2  0
 18 24  1  0
 19 18  1  0
 20 21  1  0
 20 22  1  0
 20 19  1  1
 22 26  1  0
 23 22  2  0
 24 25  2  0
 25 15  1  0
M  END
$$$$
