GEY.pdb
     RDKit          3D

 26 26  0  0  1  0  0  0  0  0999 V2000
   -2.1487  -26.7865   28.7997 N   0  0  0  0  0  0  0  0  0  0  0  0
   -2.9633  -26.2583   29.8596 C   0  0  0  0  0  0  0  0  0  0  0  0
   -4.3574  -25.9706   29.3840 C   0  0  0  0  0  0  0  0  0  0  0  0
   -4.5733  -25.1722   28.4384 O   0  0  0  0  0  0  0  0  0  0  0  0
   -5.4908  -26.5868   29.9808 N   0  0  0  0  0  0  0  0  0  0  0  0
   -6.8558  -26.3464   29.4832 C   0  0  1  0  0  0  0  0  0  0  0  0
   -7.6420  -27.5663   29.7832 C   0  0  0  0  0  0  0  0  0  0  0  0
   -9.0374  -27.5931   29.2724 C   0  0  0  0  0  0  0  0  0  0  0  0
   -9.9462  -28.4915   29.9923 C   0  0  0  0  0  0  0  0  0  0  0  0
  -10.1294  -29.6763   29.6233 O   0  0  0  0  0  0  0  0  0  0  0  0
   -7.3335  -25.1298   30.1538 C   0  0  0  0  0  0  0  0  0  0  0  0
   -7.5931  -25.1892   31.3833 O   0  0  0  0  0  0  0  0  0  0  0  0
  -10.6320  -28.0474   31.1103 O   0  0  0  0  0  0  0  0  0  0  0  0
   -3.8078  -20.7585   26.0720 O   0  0  0  0  0  0  0  0  0  0  0  0
   -4.9360  -20.9822   26.8539 C   0  0  0  0  0  0  0  0  0  0  0  0
   -6.1548  -21.1950   26.2517 C   0  0  0  0  0  0  0  0  0  0  0  0
   -7.2603  -21.4143   27.0168 C   0  0  0  0  0  0  0  0  0  0  0  0
   -7.1569  -21.4228   28.3939 C   0  0  0  0  0  0  0  0  0  0  0  0
   -8.3312  -21.6441   29.2495 C   0  0  0  0  0  0  0  0  0  0  0  0
   -8.1591  -22.7670   30.2320 C   0  0  2  0  0  0  0  0  0  0  0  0
   -7.5253  -23.8785   29.5067 N   0  0  0  0  0  0  0  0  0  0  0  0
   -9.4671  -23.1834   30.7733 C   0  0  0  0  0  0  0  0  0  0  0  0
   -9.8977  -22.6326   31.8330 O   0  0  0  0  0  0  0  0  0  0  0  0
   -5.9423  -21.2103   28.9911 C   0  0  0  0  0  0  0  0  0  0  0  0
   -4.8306  -20.9899   28.2192 C   0  0  0  0  0  0  0  0  0  0  0  0
  -10.2723  -24.1356   30.2123 O   0  0  0  0  0  0  0  0  0  0  0  0
  2  1  1  0
  3  2  1  0
  4  3  2  0
  5  3  1  0
  6  5  1  0
  6  7  1  1
  8  7  1  0
  9  8  1  0
 10  9  2  0
 11  6  1  0
 11 21  1  0
 12 11  2  0
 13  9  1  0
 15 14  1  0
 16 15  2  0
 17 16  1  0
 18 17  2  0
 18 24  1  0
 19 18  1  0
 20 21  1  0
 20 22  1  0
 20 19  1  6
 22 26  1  0
 23 22  2  0
 24 25  2  0
 25 15  1  0
M  END
$$$$
