GEY.pdb
     RDKit          3D

 26 26  0  0  1  0  0  0  0  0999 V2000
    7.3073  -13.0794   18.2105 N   0  0  0  0  0  0  0  0  0  0  0  0
    8.6637  -13.4883   18.4528 C   0  0  0  0  0  0  0  0  0  0  0  0
    8.7169  -14.7246   19.3021 C   0  0  0  0  0  0  0  0  0  0  0  0
    7.6797  -15.2027   19.8254 O   0  0  0  0  0  0  0  0  0  0  0  0
    9.9392  -15.4063   19.5507 N   0  0  0  0  0  0  0  0  0  0  0  0
   10.0141  -16.5521   20.4726 C   0  0  1  0  0  0  0  0  0  0  0  0
   11.2299  -17.3169   20.1074 C   0  0  0  0  0  0  0  0  0  0  0  0
   11.2466  -17.9181   18.7483 C   0  0  0  0  0  0  0  0  0  0  0  0
   12.0057  -19.1676   18.6302 C   0  0  0  0  0  0  0  0  0  0  0  0
   13.2563  -19.1711   18.5332 O   0  0  0  0  0  0  0  0  0  0  0  0
   10.0282  -15.9918   21.8305 C   0  0  0  0  0  0  0  0  0  0  0  0
   10.9587  -15.2044   22.1412 O   0  0  0  0  0  0  0  0  0  0  0  0
   11.3516  -20.3881   18.6229 O   0  0  0  0  0  0  0  0  0  0  0  0
    6.3454  -10.9396   27.7686 O   0  0  0  0  0  0  0  0  0  0  0  0
    6.6719  -11.8386   26.7590 C   0  0  0  0  0  0  0  0  0  0  0  0
    7.5534  -11.4666   25.7701 C   0  0  0  0  0  0  0  0  0  0  0  0
    7.8739  -12.3468   24.7810 C   0  0  0  0  0  0  0  0  0  0  0  0
    7.3147  -13.6094   24.7718 C   0  0  0  0  0  0  0  0  0  0  0  0
    7.6289  -14.5794   23.7132 C   0  0  0  0  0  0  0  0  0  0  0  0
    8.8834  -15.3651   23.9676 C   0  0  2  0  0  0  0  0  0  0  0  0
    9.0563  -16.2785   22.8279 N   0  0  0  0  0  0  0  0  0  0  0  0
    8.7683  -16.1267   25.2262 C   0  0  0  0  0  0  0  0  0  0  0  0
    8.2593  -17.2894   25.1973 O   0  0  0  0  0  0  0  0  0  0  0  0
    6.4371  -13.9773   25.7574 C   0  0  0  0  0  0  0  0  0  0  0  0
    6.1158  -13.0901   26.7523 C   0  0  0  0  0  0  0  0  0  0  0  0
    9.1761  -15.6715   26.4495 O   0  0  0  0  0  0  0  0  0  0  0  0
  2  1  1  0
  3  2  1  0
  4  3  2  0
  5  3  1  0
  6  5  1  0
  6  7  1  6
  8  7  1  0
  9  8  1  0
 10  9  2  0
 11  6  1  0
 11 21  1  0
 12 11  2  0
 13  9  1  0
 15 14  1  0
 16 15  2  0
 17 16  1  0
 18 17  2  0
 18 24  1  0
 19 18  1  0
 20 21  1  0
 20 22  1  0
 20 19  1  6
 22 26  1  0
 23 22  2  0
 24 25  2  0
 25 15  1  0
M  END
$$$$
