GEY.pdb
     RDKit          3D

 26 26  0  0  1  0  0  0  0  0999 V2000
    6.9073  -13.0856   18.7144 N   0  0  0  0  0  0  0  0  0  0  0  0
    8.1763  -13.1441   19.3867 C   0  0  0  0  0  0  0  0  0  0  0  0
    8.3223  -14.4186   20.1658 C   0  0  0  0  0  0  0  0  0  0  0  0
    7.3305  -15.1472   20.4179 O   0  0  0  0  0  0  0  0  0  0  0  0
    9.5849  -14.8554   20.6510 N   0  0  0  0  0  0  0  0  0  0  0  0
    9.7404  -16.1326   21.3673 C   0  0  1  0  0  0  0  0  0  0  0  0
   11.0617  -16.6820   20.9814 C   0  0  0  0  0  0  0  0  0  0  0  0
   11.3929  -18.0321   21.5068 C   0  0  0  0  0  0  0  0  0  0  0  0
   12.6937  -18.5621   21.0844 C   0  0  0  0  0  0  0  0  0  0  0  0
   12.9344  -19.7932   21.0850 O   0  0  0  0  0  0  0  0  0  0  0  0
    9.5987  -15.8262   22.7970 C   0  0  0  0  0  0  0  0  0  0  0  0
   10.2278  -14.8406   23.2611 O   0  0  0  0  0  0  0  0  0  0  0  0
   13.6993  -17.7052   20.6696 O   0  0  0  0  0  0  0  0  0  0  0  0
    6.2185  -10.4081   26.5741 O   0  0  0  0  0  0  0  0  0  0  0  0
    6.4655  -11.7367   26.2454 C   0  0  0  0  0  0  0  0  0  0  0  0
    7.1487  -12.0402   25.0903 C   0  0  0  0  0  0  0  0  0  0  0  0
    7.3912  -13.3413   24.7677 C   0  0  0  0  0  0  0  0  0  0  0  0
    6.9517  -14.3527   25.5989 C   0  0  0  0  0  0  0  0  0  0  0  0
    7.1853  -15.7672   25.2752 C   0  0  0  0  0  0  0  0  0  0  0  0
    8.6353  -16.1125   25.0906 C   0  0  2  0  0  0  0  0  0  0  0  0
    8.7940  -16.5709   23.7022 N   0  0  0  0  0  0  0  0  0  0  0  0
    9.0365  -17.1742   26.0335 C   0  0  0  0  0  0  0  0  0  0  0  0
    9.0778  -18.3758   25.6256 O   0  0  0  0  0  0  0  0  0  0  0  0
    6.2713  -14.0478   26.7484 C   0  0  0  0  0  0  0  0  0  0  0  0
    6.0284  -12.7376   27.0715 C   0  0  0  0  0  0  0  0  0  0  0  0
    9.3765  -16.9639   27.3412 O   0  0  0  0  0  0  0  0  0  0  0  0
  2  1  1  0
  3  2  1  0
  4  3  2  0
  5  3  1  0
  6  5  1  0
  6  7  1  1
  8  7  1  0
  9  8  1  0
 10  9  2  0
 11  6  1  0
 11 21  1  0
 12 11  2  0
 13  9  1  0
 15 14  1  0
 16 15  2  0
 17 16  1  0
 18 17  2  0
 18 24  1  0
 19 18  1  0
 20 21  1  0
 20 22  1  0
 20 19  1  1
 22 26  1  0
 23 22  2  0
 24 25  2  0
 25 15  1  0
M  END
$$$$
