GEY.pdb
     RDKit          3D

 26 26  0  0  1  0  0  0  0  0999 V2000
    2.9833  -18.9857   21.3705 N   0  0  0  0  0  0  0  0  0  0  0  0
    3.9332  -18.2334   20.5975 C   0  0  0  0  0  0  0  0  0  0  0  0
    5.3343  -18.4590   21.0861 C   0  0  0  0  0  0  0  0  0  0  0  0
    5.5614  -19.0788   22.1549 O   0  0  0  0  0  0  0  0  0  0  0  0
    6.4617  -17.9828   20.3632 N   0  0  0  0  0  0  0  0  0  0  0  0
    7.8240  -18.0518   20.9182 C   0  0  1  0  0  0  0  0  0  0  0  0
    8.7523  -18.1322   19.7657 C   0  0  0  0  0  0  0  0  0  0  0  0
   10.1990  -18.2343   20.0908 C   0  0  0  0  0  0  0  0  0  0  0  0
   11.0982  -18.2360   18.9320 C   0  0  0  0  0  0  0  0  0  0  0  0
   11.5056  -17.1689   18.4136 O   0  0  0  0  0  0  0  0  0  0  0  0
    7.9912  -16.8575   21.7570 C   0  0  0  0  0  0  0  0  0  0  0  0
    7.3286  -15.8280   21.4678 O   0  0  0  0  0  0  0  0  0  0  0  0
   11.5241  -19.4306   18.3761 O   0  0  0  0  0  0  0  0  0  0  0  0
    6.9515  -11.0768   27.7762 O   0  0  0  0  0  0  0  0  0  0  0  0
    7.0856  -12.1650   26.9206 C   0  0  0  0  0  0  0  0  0  0  0  0
    7.6802  -13.3209   27.3717 C   0  0  0  0  0  0  0  0  0  0  0  0
    7.8118  -14.3873   26.5343 C   0  0  0  0  0  0  0  0  0  0  0  0
    7.3490  -14.3072   25.2356 C   0  0  0  0  0  0  0  0  0  0  0  0
    7.4857  -15.4342   24.3021 C   0  0  0  0  0  0  0  0  0  0  0  0
    8.8639  -15.5731   23.7215 C   0  0  2  0  0  0  0  0  0  0  0  0
    8.8564  -16.7811   22.8826 N   0  0  0  0  0  0  0  0  0  0  0  0
    9.8662  -15.6982   24.7971 C   0  0  0  0  0  0  0  0  0  0  0  0
   10.1035  -16.8454   25.2865 O   0  0  0  0  0  0  0  0  0  0  0  0
    6.7575  -13.1550   24.7889 C   0  0  0  0  0  0  0  0  0  0  0  0
    6.6258  -12.0828   25.6333 C   0  0  0  0  0  0  0  0  0  0  0  0
   10.5778  -14.6545   25.3209 O   0  0  0  0  0  0  0  0  0  0  0  0
  2  1  1  0
  3  2  1  0
  4  3  2  0
  5  3  1  0
  6  5  1  0
  6  7  1  6
  8  7  1  0
  9  8  1  0
 10  9  2  0
 11  6  1  0
 11 21  1  0
 12 11  2  0
 13  9  1  0
 15 14  1  0
 16 15  2  0
 17 16  1  0
 18 17  2  0
 18 24  1  0
 19 18  1  0
 20 21  1  0
 20 22  1  0
 20 19  1  1
 22 26  1  0
 23 22  2  0
 24 25  2  0
 25 15  1  0
M  END
$$$$
