GEY.pdb
     RDKit          3D

 26 26  0  0  1  0  0  0  0  0999 V2000
    5.9855  -16.4062   19.8592 N   0  0  0  0  0  0  0  0  0  0  0  0
    6.8212  -15.5384   20.6431 C   0  0  0  0  0  0  0  0  0  0  0  0
    7.5991  -16.3108   21.6683 C   0  0  0  0  0  0  0  0  0  0  0  0
    7.0696  -16.6851   22.7443 O   0  0  0  0  0  0  0  0  0  0  0  0
    8.9644  -16.6513   21.4673 N   0  0  0  0  0  0  0  0  0  0  0  0
    9.7149  -17.4558   22.4461 C   0  0  1  0  0  0  0  0  0  0  0  0
   10.7631  -18.1813   21.6903 C   0  0  0  0  0  0  0  0  0  0  0  0
   11.6506  -19.0714   22.4834 C   0  0  0  0  0  0  0  0  0  0  0  0
   11.0623  -20.3612   22.8597 C   0  0  0  0  0  0  0  0  0  0  0  0
   10.9339  -20.7007   24.0604 O   0  0  0  0  0  0  0  0  0  0  0  0
   10.2257  -16.5148   23.4519 C   0  0  0  0  0  0  0  0  0  0  0  0
   11.0852  -15.6686   23.0948 O   0  0  0  0  0  0  0  0  0  0  0  0
   10.6293  -21.2457   21.8862 O   0  0  0  0  0  0  0  0  0  0  0  0
    5.0757  -12.2786   26.9943 O   0  0  0  0  0  0  0  0  0  0  0  0
    6.3056  -12.7470   26.5447 C   0  0  0  0  0  0  0  0  0  0  0  0
    6.3537  -13.7565   25.6110 C   0  0  0  0  0  0  0  0  0  0  0  0
    7.5580  -14.2157   25.1701 C   0  0  0  0  0  0  0  0  0  0  0  0
    8.7275  -13.6684   25.6598 C   0  0  0  0  0  0  0  0  0  0  0  0
   10.0436  -14.1482   25.2150 C   0  0  0  0  0  0  0  0  0  0  0  0
   10.3982  -15.5103   25.7392 C   0  0  2  0  0  0  0  0  0  0  0  0
    9.8144  -16.4921   24.8126 N   0  0  0  0  0  0  0  0  0  0  0  0
    9.8550  -15.6970   27.0983 C   0  0  0  0  0  0  0  0  0  0  0  0
   10.2858  -14.9618   28.0394 O   0  0  0  0  0  0  0  0  0  0  0  0
    8.6769  -12.6634   26.5895 C   0  0  0  0  0  0  0  0  0  0  0  0
    7.4637  -12.2024   27.0321 C   0  0  0  0  0  0  0  0  0  0  0  0
    8.9020  -16.6185   27.4340 O   0  0  0  0  0  0  0  0  0  0  0  0
  2  1  1  0
  3  2  1  0
  4  3  2  0
  5  3  1  0
  6  5  1  0
  6  7  1  6
  8  7  1  0
  9  8  1  0
 10  9  2  0
 11  6  1  0
 11 21  1  0
 12 11  2  0
 13  9  1  0
 15 14  1  0
 16 15  2  0
 17 16  1  0
 18 17  2  0
 18 24  1  0
 19 18  1  0
 20 21  1  0
 20 22  1  0
 20 19  1  6
 22 26  1  0
 23 22  2  0
 24 25  2  0
 25 15  1  0
M  END
$$$$
