GEY.pdb
     RDKit          3D

 26 26  0  0  1  0  0  0  0  0999 V2000
    8.7225  -16.9627   15.8864 N   0  0  0  0  0  0  0  0  0  0  0  0
    9.6278  -15.9303   16.3111 C   0  0  0  0  0  0  0  0  0  0  0  0
   10.4778  -16.3893   17.4599 C   0  0  0  0  0  0  0  0  0  0  0  0
   10.1385  -17.3653   18.1743 O   0  0  0  0  0  0  0  0  0  0  0  0
   11.6997  -15.7417   17.7885 N   0  0  0  0  0  0  0  0  0  0  0  0
   12.4728  -16.1074   18.9874 C   0  0  1  0  0  0  0  0  0  0  0  0
   13.8701  -15.6781   18.7433 C   0  0  0  0  0  0  0  0  0  0  0  0
   14.6312  -16.4558   17.7311 C   0  0  0  0  0  0  0  0  0  0  0  0
   16.0088  -16.0048   17.5072 C   0  0  0  0  0  0  0  0  0  0  0  0
   16.9926  -16.7330   17.7819 O   0  0  0  0  0  0  0  0  0  0  0  0
   11.8175  -15.4434   20.1221 C   0  0  0  0  0  0  0  0  0  0  0  0
   11.2346  -14.3478   19.9165 O   0  0  0  0  0  0  0  0  0  0  0  0
   16.2592  -14.7489   16.9805 O   0  0  0  0  0  0  0  0  0  0  0  0
    7.7863  -11.9734   18.0816 O   0  0  0  0  0  0  0  0  0  0  0  0
    8.2029  -12.8935   19.0376 C   0  0  0  0  0  0  0  0  0  0  0  0
    7.6200  -14.1388   19.0887 C   0  0  0  0  0  0  0  0  0  0  0  0
    8.0277  -15.0406   20.0248 C   0  0  0  0  0  0  0  0  0  0  0  0
    9.0239  -14.7046   20.9201 C   0  0  0  0  0  0  0  0  0  0  0  0
    9.4792  -15.6487   21.9504 C   0  0  0  0  0  0  0  0  0  0  0  0
   10.8734  -15.3810   22.4406 C   0  0  2  0  0  0  0  0  0  0  0  0
   11.7949  -15.9551   21.4484 N   0  0  0  0  0  0  0  0  0  0  0  0
   11.0840  -16.0041   23.7614 C   0  0  0  0  0  0  0  0  0  0  0  0
   11.8539  -17.0096   23.8516 O   0  0  0  0  0  0  0  0  0  0  0  0
    9.6025  -13.4638   20.8674 C   0  0  0  0  0  0  0  0  0  0  0  0
    9.1910  -12.5575   19.9244 C   0  0  0  0  0  0  0  0  0  0  0  0
   10.5047  -15.5755   24.9237 O   0  0  0  0  0  0  0  0  0  0  0  0
  2  1  1  0
  3  2  1  0
  4  3  2  0
  5  3  1  0
  6  5  1  0
  6  7  1  6
  8  7  1  0
  9  8  1  0
 10  9  2  0
 11  6  1  0
 11 21  1  0
 12 11  2  0
 13  9  1  0
 15 14  1  0
 16 15  2  0
 17 16  1  0
 18 17  2  0
 18 24  1  0
 19 18  1  0
 20 21  1  0
 20 22  1  0
 20 19  1  6
 22 26  1  0
 23 22  2  0
 24 25  2  0
 25 15  1  0
M  END
$$$$
