GEY.pdb
     RDKit          3D

 26 26  0  0  1  0  0  0  0  0999 V2000
    8.1801  -12.4582   18.4555 N   0  0  0  0  0  0  0  0  0  0  0  0
    9.1098  -13.5033   18.7861 C   0  0  0  0  0  0  0  0  0  0  0  0
    8.6413  -14.2946   19.9723 C   0  0  0  0  0  0  0  0  0  0  0  0
    7.7662  -13.8446   20.7532 O   0  0  0  0  0  0  0  0  0  0  0  0
    9.1655  -15.5835   20.2628 N   0  0  0  0  0  0  0  0  0  0  0  0
    8.6502  -16.3967   21.3771 C   0  0  1  0  0  0  0  0  0  0  0  0
    8.6453  -17.8043   20.9135 C   0  0  0  0  0  0  0  0  0  0  0  0
    7.5693  -18.1802   19.9597 C   0  0  0  0  0  0  0  0  0  0  0  0
    6.2419  -18.3581   20.5580 C   0  0  0  0  0  0  0  0  0  0  0  0
    6.0830  -18.4187   21.8007 O   0  0  0  0  0  0  0  0  0  0  0  0
    9.5291  -16.1330   22.5243 C   0  0  0  0  0  0  0  0  0  0  0  0
   10.6203  -15.5427   22.3163 O   0  0  0  0  0  0  0  0  0  0  0  0
    5.1189  -18.4646   19.7549 O   0  0  0  0  0  0  0  0  0  0  0  0
    5.1195  -12.6612   26.9077 O   0  0  0  0  0  0  0  0  0  0  0  0
    6.3405  -13.1466   26.4517 C   0  0  0  0  0  0  0  0  0  0  0  0
    7.0625  -14.0221   27.2298 C   0  0  0  0  0  0  0  0  0  0  0  0
    8.2585  -14.4980   26.7839 C   0  0  0  0  0  0  0  0  0  0  0  0
    8.7442  -14.1019   25.5533 C   0  0  0  0  0  0  0  0  0  0  0  0
   10.0362  -14.5863   25.0470 C   0  0  0  0  0  0  0  0  0  0  0  0
   10.1259  -16.0828   24.9557 C   0  0  2  0  0  0  0  0  0  0  0  0
    9.2319  -16.5006   23.8651 N   0  0  0  0  0  0  0  0  0  0  0  0
    9.7113  -16.7027   26.2289 C   0  0  0  0  0  0  0  0  0  0  0  0
    8.6492  -17.3977   26.2575 O   0  0  0  0  0  0  0  0  0  0  0  0
    8.0235  -13.2299   24.7806 C   0  0  0  0  0  0  0  0  0  0  0  0
    6.8199  -12.7520   25.2311 C   0  0  0  0  0  0  0  0  0  0  0  0
   10.3948  -16.5877   27.4077 O   0  0  0  0  0  0  0  0  0  0  0  0
  2  1  1  0
  3  2  1  0
  4  3  2  0
  5  3  1  0
  6  5  1  0
  6  7  1  6
  8  7  1  0
  9  8  1  0
 10  9  2  0
 11  6  1  0
 11 21  1  0
 12 11  2  0
 13  9  1  0
 15 14  1  0
 16 15  2  0
 17 16  1  0
 18 17  2  0
 18 24  1  0
 19 18  1  0
 20 21  1  0
 20 22  1  0
 20 19  1  1
 22 26  1  0
 23 22  2  0
 24 25  2  0
 25 15  1  0
M  END
$$$$
