TSA.pdb
     RDKit          3D

 19 18  0  0  1  0  0  0  0  0999 V2000
   12.1405  -16.6989   22.2300 C   0  0  0  0  0  0  0  0  0  0  0  0
   11.1828  -16.7217   21.0639 C   0  0  1  0  0  0  0  0  0  0  0  0
   11.7169  -17.3334   19.9491 O   0  0  0  0  0  0  0  0  0  0  0  0
    9.9590  -17.5127   21.4902 C   0  0  2  0  0  0  0  0  0  0  0  0
    8.9899  -17.5740   20.3818 N   0  0  0  0  0  0  0  0  0  0  0  0
    9.2528  -16.9336   22.6367 C   0  0  0  0  0  0  0  0  0  0  0  0
    8.4958  -15.9063   22.5192 O   0  0  0  0  0  0  0  0  0  0  0  0
    8.7830  -18.9356   26.2244 O   0  0  0  0  0  0  0  0  0  0  0  0
    7.9137  -17.9538   25.7998 C   0  0  0  0  0  0  0  0  0  0  0  0
    8.6374  -16.7980   25.0926 C   0  0  2  0  0  0  0  0  0  0  0  0
    9.3227  -17.4270   23.9668 N   0  0  0  0  0  0  0  0  0  0  0  0
    9.5996  -16.1492   25.9852 C   0  0  0  0  0  0  0  0  0  0  0  0
   10.7686  -16.5889   26.0601 O   0  0  0  0  0  0  0  0  0  0  0  0
    9.5662  -13.0399   28.0929 C   0  0  0  0  0  0  0  0  0  0  0  0
   10.1214  -14.3972   27.6983 C   0  0  2  0  0  0  0  0  0  0  0  0
    9.2398  -15.0289   26.7716 N   0  0  0  0  0  0  0  0  0  0  0  0
   10.3054  -15.2723   28.8756 C   0  0  0  0  0  0  0  0  0  0  0  0
    9.6189  -16.4657   29.0646 O   0  0  0  0  0  0  0  0  0  0  0  0
   11.1202  -14.9351   29.7602 O   0  0  0  0  0  0  0  0  0  0  0  0
  2  3  1  0
  2  1  1  1
  4  2  1  0
  4  5  1  6
  6 11  1  0
  6  4  1  0
  7  6  2  0
  9  8  1  0
 10  9  1  1
 10 11  1  0
 10 12  1  0
 12 16  1  0
 13 12  2  0
 15 14  1  1
 15 17  1  0
 16 15  1  0
 17 19  2  0
 17 18  1  0
M  END
$$$$
