TSA.pdb
     RDKit          3D

 19 18  0  0  1  0  0  0  0  0999 V2000
   -1.4096  -19.7945   23.4219 C   0  0  0  0  0  0  0  0  0  0  0  0
   -2.5571  -20.4373   24.1619 C   0  0  1  0  0  0  0  0  0  0  0  0
   -3.7195  -20.4644   23.4200 O   0  0  0  0  0  0  0  0  0  0  0  0
   -2.1621  -21.8716   24.4650 C   0  0  2  0  0  0  0  0  0  0  0  0
   -1.9451  -22.6087   23.2075 N   0  0  0  0  0  0  0  0  0  0  0  0
   -3.1747  -22.6148   25.2204 C   0  0  0  0  0  0  0  0  0  0  0  0
   -4.0700  -23.3242   24.6394 O   0  0  0  0  0  0  0  0  0  0  0  0
   -2.7827  -23.2445   29.2298 O   0  0  0  0  0  0  0  0  0  0  0  0
   -3.5583  -24.1016   28.4789 C   0  0  0  0  0  0  0  0  0  0  0  0
   -4.3123  -23.3751   27.3550 C   0  0  2  0  0  0  0  0  0  0  0  0
   -3.2783  -22.6350   26.6369 N   0  0  0  0  0  0  0  0  0  0  0  0
   -5.3193  -22.4607   27.8966 C   0  0  0  0  0  0  0  0  0  0  0  0
   -4.9852  -21.3047   28.2398 O   0  0  0  0  0  0  0  0  0  0  0  0
   -9.0492  -22.6151   28.3555 C   0  0  0  0  0  0  0  0  0  0  0  0
   -7.6767  -22.0228   28.6228 C   0  0  2  0  0  0  0  0  0  0  0  0
   -6.6713  -22.8525   28.0433 N   0  0  0  0  0  0  0  0  0  0  0  0
   -7.4196  -21.8791   30.0716 C   0  0  0  0  0  0  0  0  0  0  0  0
   -7.8853  -20.8162   30.8360 O   0  0  0  0  0  0  0  0  0  0  0  0
   -6.7474  -22.7536   30.6576 O   0  0  0  0  0  0  0  0  0  0  0  0
  2  3  1  0
  2  1  1  6
  4  2  1  0
  4  5  1  6
  6 11  1  0
  6  4  1  0
  7  6  2  0
  9  8  1  0
 10  9  1  1
 10 11  1  0
 10 12  1  0
 12 16  1  0
 13 12  2  0
 15 14  1  1
 15 17  1  0
 16 15  1  0
 17 19  2  0
 17 18  1  0
M  END
$$$$
