TSA.pdb
     RDKit          3D

 19 18  0  0  1  0  0  0  0  0999 V2000
   10.8206  -15.3126   18.8266 C   0  0  0  0  0  0  0  0  0  0  0  0
   10.3047  -14.0618   18.1582 C   0  0  1  0  0  0  0  0  0  0  0  0
   10.7203  -13.9491   16.8479 O   0  0  0  0  0  0  0  0  0  0  0  0
    8.7880  -14.1305   18.1635 C   0  0  2  0  0  0  0  0  0  0  0  0
    8.2288  -12.9233   17.5299 N   0  0  0  0  0  0  0  0  0  0  0  0
    8.2063  -14.2103   19.5065 C   0  0  0  0  0  0  0  0  0  0  0  0
    8.1146  -13.1840   20.2685 O   0  0  0  0  0  0  0  0  0  0  0  0
    6.9995  -17.8436   21.2092 O   0  0  0  0  0  0  0  0  0  0  0  0
    6.2574  -16.7081   21.4545 C   0  0  0  0  0  0  0  0  0  0  0  0
    7.1158  -15.4343   21.4407 C   0  0  2  0  0  0  0  0  0  0  0  0
    7.6934  -15.3944   20.1000 N   0  0  0  0  0  0  0  0  0  0  0  0
    8.1697  -15.4937   22.4551 C   0  0  0  0  0  0  0  0  0  0  0  0
    9.3234  -15.8519   22.1290 O   0  0  0  0  0  0  0  0  0  0  0  0
    8.4376  -14.5149   26.0700 C   0  0  0  0  0  0  0  0  0  0  0  0
    8.8707  -15.3142   24.8536 C   0  0  2  0  0  0  0  0  0  0  0  0
    7.9165  -15.1540   23.8054 N   0  0  0  0  0  0  0  0  0  0  0  0
    9.0151  -16.7511   25.1707 C   0  0  0  0  0  0  0  0  0  0  0  0
   10.1717  -17.3122   25.6983 O   0  0  0  0  0  0  0  0  0  0  0  0
    8.0526  -17.5183   24.9586 O   0  0  0  0  0  0  0  0  0  0  0  0
  2  3  1  0
  2  1  1  6
  4  2  1  0
  4  5  1  1
  6 11  1  0
  6  4  1  0
  7  6  2  0
  9  8  1  0
 10  9  1  6
 10 11  1  0
 10 12  1  0
 12 16  1  0
 13 12  2  0
 15 14  1  1
 15 17  1  0
 16 15  1  0
 17 19  2  0
 17 18  1  0
M  END
$$$$
