TSA.pdb
     RDKit          3D

 19 18  0  0  1  0  0  0  0  0999 V2000
    7.4596  -12.1225   18.9778 C   0  0  0  0  0  0  0  0  0  0  0  0
    8.4194  -13.2101   19.3941 C   0  0  1  0  0  0  0  0  0  0  0  0
    7.7792  -14.3064   19.9334 O   0  0  0  0  0  0  0  0  0  0  0  0
    9.1627  -13.6669   18.1516 C   0  0  2  0  0  0  0  0  0  0  0  0
    8.2020  -14.1194   17.1300 N   0  0  0  0  0  0  0  0  0  0  0  0
   10.0812  -14.7837   18.3914 C   0  0  0  0  0  0  0  0  0  0  0  0
    9.8548  -15.9590   17.9333 O   0  0  0  0  0  0  0  0  0  0  0  0
   13.8863  -14.2564   19.9784 O   0  0  0  0  0  0  0  0  0  0  0  0
   13.5749  -15.3247   19.1649 C   0  0  0  0  0  0  0  0  0  0  0  0
   12.1495  -15.8453   19.4032 C   0  0  2  0  0  0  0  0  0  0  0  0
   11.2887  -14.6967   19.1343 N   0  0  0  0  0  0  0  0  0  0  0  0
   11.9772  -16.3078   20.7816 C   0  0  0  0  0  0  0  0  0  0  0  0
   11.6432  -15.4933   21.6707 O   0  0  0  0  0  0  0  0  0  0  0  0
   11.9543  -19.6731   22.4473 C   0  0  0  0  0  0  0  0  0  0  0  0
   12.0513  -18.1577   22.4694 C   0  0  2  0  0  0  0  0  0  0  0  0
   12.1798  -17.6624   21.1378 N   0  0  0  0  0  0  0  0  0  0  0  0
   13.2013  -17.6985   23.2771 C   0  0  0  0  0  0  0  0  0  0  0  0
   13.2192  -17.7036   24.6666 O   0  0  0  0  0  0  0  0  0  0  0  0
   14.2228  -17.2789   22.6936 O   0  0  0  0  0  0  0  0  0  0  0  0
  2  3  1  0
  2  1  1  6
  4  2  1  0
  4  5  1  6
  6 11  1  0
  6  4  1  0
  7  6  2  0
  9  8  1  0
 10  9  1  1
 10 11  1  0
 10 12  1  0
 12 16  1  0
 13 12  2  0
 15 14  1  6
 15 17  1  0
 16 15  1  0
 17 19  2  0
 17 18  1  0
M  END
$$$$
