TSA.pdb
     RDKit          3D

 19 18  0  0  1  0  0  0  0  0999 V2000
    8.7724  -12.5030   20.9711 C   0  0  0  0  0  0  0  0  0  0  0  0
    7.9694  -13.3200   19.9885 C   0  0  1  0  0  0  0  0  0  0  0  0
    8.3066  -13.0564   18.6773 O   0  0  0  0  0  0  0  0  0  0  0  0
    8.2623  -14.7845   20.2614 C   0  0  2  0  0  0  0  0  0  0  0  0
    7.4847  -15.6318   19.3401 N   0  0  0  0  0  0  0  0  0  0  0  0
    7.9171  -15.2113   21.6204 C   0  0  0  0  0  0  0  0  0  0  0  0
    6.7022  -15.2781   22.0229 O   0  0  0  0  0  0  0  0  0  0  0  0
   10.1262  -17.7410   23.8646 O   0  0  0  0  0  0  0  0  0  0  0  0
    8.7883  -17.4704   24.0569 C   0  0  0  0  0  0  0  0  0  0  0  0
    8.4778  -15.9683   23.9744 C   0  0  2  0  0  0  0  0  0  0  0  0
    8.8571  -15.5882   22.6164 N   0  0  0  0  0  0  0  0  0  0  0  0
    9.2542  -15.2112   24.9580 C   0  0  0  0  0  0  0  0  0  0  0  0
   10.4380  -14.8965   24.7028 O   0  0  0  0  0  0  0  0  0  0  0  0
    8.4787  -13.1282   27.8994 C   0  0  0  0  0  0  0  0  0  0  0  0
    9.4142  -14.0955   27.1955 C   0  0  2  0  0  0  0  0  0  0  0  0
    8.6970  -14.8228   26.1996 N   0  0  0  0  0  0  0  0  0  0  0  0
   10.0316  -15.0440   28.1468 C   0  0  0  0  0  0  0  0  0  0  0  0
   10.9674  -14.6755   29.1057 O   0  0  0  0  0  0  0  0  0  0  0  0
    9.7049  -16.2486   28.0998 O   0  0  0  0  0  0  0  0  0  0  0  0
  2  3  1  0
  2  1  1  1
  4  2  1  0
  4  5  1  6
  6 11  1  0
  6  4  1  0
  7  6  2  0
  9  8  1  0
 10  9  1  6
 10 11  1  0
 10 12  1  0
 12 16  1  0
 13 12  2  0
 15 14  1  1
 15 17  1  0
 16 15  1  0
 17 19  2  0
 17 18  1  0
M  END
$$$$
