TSA.pdb
     RDKit          3D

 19 18  0  0  1  0  0  0  0  0999 V2000
   12.9738  -27.1092   25.3253 C   0  0  0  0  0  0  0  0  0  0  0  0
   12.9739  -26.2269   24.1009 C   0  0  1  0  0  0  0  0  0  0  0  0
   12.8407  -26.9429   22.9296 O   0  0  0  0  0  0  0  0  0  0  0  0
   11.7868  -25.2870   24.2122 C   0  0  2  0  0  0  0  0  0  0  0  0
   11.6244  -24.5328   22.9567 N   0  0  0  0  0  0  0  0  0  0  0  0
   11.9172  -24.2971   25.2853 C   0  0  0  0  0  0  0  0  0  0  0  0
   12.8461  -23.4142   25.2850 O   0  0  0  0  0  0  0  0  0  0  0  0
    8.8934  -23.6534   27.9756 O   0  0  0  0  0  0  0  0  0  0  0  0
    9.8009  -22.6548   27.6940 C   0  0  0  0  0  0  0  0  0  0  0  0
   11.2178  -23.2008   27.4619 C   0  0  2  0  0  0  0  0  0  0  0  0
   11.0582  -24.2039   26.4126 N   0  0  0  0  0  0  0  0  0  0  0  0
   11.7581  -23.8088   28.6792 C   0  0  0  0  0  0  0  0  0  0  0  0
   11.6152  -25.0366   28.8739 O   0  0  0  0  0  0  0  0  0  0  0  0
   13.8036  -22.5311   31.5726 C   0  0  0  0  0  0  0  0  0  0  0  0
   12.9591  -23.5766   30.8655 C   0  0  2  0  0  0  0  0  0  0  0  0
   12.4433  -23.0389   29.6491 N   0  0  0  0  0  0  0  0  0  0  0  0
   11.8383  -24.0345   31.7141 C   0  0  0  0  0  0  0  0  0  0  0  0
   11.9810  -24.9413   32.7573 O   0  0  0  0  0  0  0  0  0  0  0  0
   10.6914  -23.5913   31.4945 O   0  0  0  0  0  0  0  0  0  0  0  0
  2  3  1  0
  2  1  1  1
  4  2  1  0
  4  5  1  6
  6 11  1  0
  6  4  1  0
  7  6  2  0
  9  8  1  0
 10  9  1  1
 10 11  1  0
 10 12  1  0
 12 16  1  0
 13 12  2  0
 15 14  1  1
 15 17  1  0
 16 15  1  0
 17 19  2  0
 17 18  1  0
M  END
$$$$
