TSA.pdb
     RDKit          3D

 19 18  0  0  1  0  0  0  0  0999 V2000
    7.4441  -15.1313   16.5920 C   0  0  0  0  0  0  0  0  0  0  0  0
    8.1146  -15.2621   17.9377 C   0  0  1  0  0  0  0  0  0  0  0  0
    9.4784  -15.4414   17.8369 O   0  0  0  0  0  0  0  0  0  0  0  0
    7.8674  -13.9732   18.7011 C   0  0  2  0  0  0  0  0  0  0  0  0
    8.4004  -12.8293   17.9403 N   0  0  0  0  0  0  0  0  0  0  0  0
    8.5061  -13.9375   20.0198 C   0  0  0  0  0  0  0  0  0  0  0  0
    9.7055  -13.5163   20.1819 O   0  0  0  0  0  0  0  0  0  0  0  0
    6.5778  -15.3192   23.4959 O   0  0  0  0  0  0  0  0  0  0  0  0
    7.4835  -14.2824   23.5663 C   0  0  0  0  0  0  0  0  0  0  0  0
    8.5930  -14.4025   22.5108 C   0  0  2  0  0  0  0  0  0  0  0  0
    7.8909  -14.3513   21.2314 N   0  0  0  0  0  0  0  0  0  0  0  0
    9.3223  -15.6645   22.6490 C   0  0  0  0  0  0  0  0  0  0  0  0
    8.9154  -16.6837   22.0479 O   0  0  0  0  0  0  0  0  0  0  0  0
   12.6870  -16.6733   23.8095 C   0  0  0  0  0  0  0  0  0  0  0  0
   11.2076  -16.9765   23.6494 C   0  0  2  0  0  0  0  0  0  0  0  0
   10.4845  -15.7630   23.4505 N   0  0  0  0  0  0  0  0  0  0  0  0
   10.6666  -17.6825   24.8304 C   0  0  0  0  0  0  0  0  0  0  0  0
    9.6293  -17.1918   25.6142 O   0  0  0  0  0  0  0  0  0  0  0  0
   11.1580  -18.7835   25.1562 O   0  0  0  0  0  0  0  0  0  0  0  0
  2  3  1  0
  2  1  1  6
  4  2  1  0
  4  5  1  6
  6 11  1  0
  6  4  1  0
  7  6  2  0
  9  8  1  0
 10  9  1  1
 10 11  1  0
 10 12  1  0
 12 16  1  0
 13 12  2  0
 15 14  1  1
 15 17  1  0
 16 15  1  0
 17 19  2  0
 17 18  1  0
M  END
$$$$
