TSA.pdb
     RDKit          3D

 19 18  0  0  1  0  0  0  0  0999 V2000
   10.3455  -15.8663   18.5310 C   0  0  0  0  0  0  0  0  0  0  0  0
    9.9255  -14.5617   17.8992 C   0  0  1  0  0  0  0  0  0  0  0  0
   10.3050  -14.4650   16.5767 O   0  0  0  0  0  0  0  0  0  0  0  0
    8.4101  -14.4901   17.9574 C   0  0  2  0  0  0  0  0  0  0  0  0
    7.9456  -13.2143   17.3847 N   0  0  0  0  0  0  0  0  0  0  0  0
    7.8683  -14.5645   19.3172 C   0  0  0  0  0  0  0  0  0  0  0  0
    7.8351  -13.5438   20.0914 O   0  0  0  0  0  0  0  0  0  0  0  0
    6.7934  -18.1846   21.1350 O   0  0  0  0  0  0  0  0  0  0  0  0
    5.9863  -17.0837   21.3266 C   0  0  0  0  0  0  0  0  0  0  0  0
    6.7712  -15.7648   21.2626 C   0  0  2  0  0  0  0  0  0  0  0  0
    7.3345  -15.7370   19.9155 N   0  0  0  0  0  0  0  0  0  0  0  0
    7.8353  -15.7315   22.2676 C   0  0  0  0  0  0  0  0  0  0  0  0
    8.9907  -16.0990   21.9583 O   0  0  0  0  0  0  0  0  0  0  0  0
    8.1221  -14.3322   25.7361 C   0  0  0  0  0  0  0  0  0  0  0  0
    8.5953  -15.2215   24.5997 C   0  0  2  0  0  0  0  0  0  0  0  0
    7.5900  -15.2911   23.5900 N   0  0  0  0  0  0  0  0  0  0  0  0
    8.9112  -16.5861   25.0728 C   0  0  0  0  0  0  0  0  0  0  0  0
   10.1329  -16.9464   25.6284 O   0  0  0  0  0  0  0  0  0  0  0  0
    8.0422  -17.4779   24.9751 O   0  0  0  0  0  0  0  0  0  0  0  0
  2  3  1  0
  2  1  1  6
  4  2  1  0
  4  5  1  1
  6 11  1  0
  6  4  1  0
  7  6  2  0
  9  8  1  0
 10  9  1  6
 10 11  1  0
 10 12  1  0
 12 16  1  0
 13 12  2  0
 15 14  1  1
 15 17  1  0
 16 15  1  0
 17 19  2  0
 17 18  1  0
M  END
$$$$
