TSA.pdb
     RDKit          3D

 19 18  0  0  1  0  0  0  0  0999 V2000
    8.8256  -12.5126   19.2105 C   0  0  0  0  0  0  0  0  0  0  0  0
    8.1766  -13.1135   17.9877 C   0  0  1  0  0  0  0  0  0  0  0  0
    8.4723  -12.4191   16.8333 O   0  0  0  0  0  0  0  0  0  0  0  0
    8.7091  -14.5268   17.8329 C   0  0  2  0  0  0  0  0  0  0  0  0
    8.0692  -15.1803   16.6774 N   0  0  0  0  0  0  0  0  0  0  0  0
    8.4560  -15.3828   18.9954 C   0  0  0  0  0  0  0  0  0  0  0  0
    7.2818  -15.8092   19.2816 O   0  0  0  0  0  0  0  0  0  0  0  0
   11.4182  -17.5056   20.8468 O   0  0  0  0  0  0  0  0  0  0  0  0
   10.0917  -17.8740   20.9150 C   0  0  0  0  0  0  0  0  0  0  0  0
    9.1562  -16.6652   21.0676 C   0  0  2  0  0  0  0  0  0  0  0  0
    9.4491  -15.8249   19.9097 N   0  0  0  0  0  0  0  0  0  0  0  0
    9.4237  -15.9409   22.3115 C   0  0  0  0  0  0  0  0  0  0  0  0
   10.3860  -15.1433   22.3689 O   0  0  0  0  0  0  0  0  0  0  0  0
    7.4747  -15.1072   25.3250 C   0  0  0  0  0  0  0  0  0  0  0  0
    8.8164  -15.4176   24.6851 C   0  0  2  0  0  0  0  0  0  0  0  0
    8.6163  -16.1204   23.4599 N   0  0  0  0  0  0  0  0  0  0  0  0
    9.6717  -16.2255   25.5804 C   0  0  0  0  0  0  0  0  0  0  0  0
   10.2633  -15.7301   26.7361 O   0  0  0  0  0  0  0  0  0  0  0  0
    9.8850  -17.4230   25.2969 O   0  0  0  0  0  0  0  0  0  0  0  0
  2  3  1  0
  2  1  1  1
  4  2  1  0
  4  5  1  6
  6 11  1  0
  6  4  1  0
  7  6  2  0
  9  8  1  0
 10  9  1  6
 10 11  1  0
 10 12  1  0
 12 16  1  0
 13 12  2  0
 15 14  1  1
 15 17  1  0
 16 15  1  0
 17 19  2  0
 17 18  1  0
M  END
$$$$
