KIC.pdb
     RDKit          3D

 24 23  0  0  1  0  0  0  0  0999 V2000
    7.0466  -16.9987   21.4025 N   0  0  0  0  0  0  0  0  0  0  0  0
    8.3240  -16.8864   22.0288 C   0  0  1  0  0  0  0  0  0  0  0  0
    9.4912  -17.1256   21.1414 C   0  0  0  0  0  0  0  0  0  0  0  0
    9.5007  -18.4309   20.4480 C   0  0  0  0  0  0  0  0  0  0  0  0
   10.6516  -18.7141   19.5505 C   0  0  0  0  0  0  0  0  0  0  0  0
   10.5267  -20.1022   18.9032 C   0  0  0  0  0  0  0  0  0  0  0  0
   10.5359  -19.9763   17.4631 N   0  0  0  0  0  0  0  0  0  0  0  0
    8.4023  -15.5868   22.7482 C   0  0  0  0  0  0  0  0  0  0  0  0
    7.9484  -14.5217   22.2316 O   0  0  0  0  0  0  0  0  0  0  0  0
    6.0837  -12.4674   26.6677 C   0  0  0  0  0  0  0  0  0  0  0  0
    7.4023  -12.6175   25.9536 C   0  0  0  0  0  0  0  0  0  0  0  0
    7.5387  -13.8754   25.1698 C   0  0  2  0  0  0  0  0  0  0  0  0
    6.7161  -14.9963   25.8181 C   0  0  0  0  0  0  0  0  0  0  0  0
    8.9332  -14.3198   24.8820 C   0  0  2  0  0  0  0  0  0  0  0  0
    8.9862  -15.4892   24.0364 N   0  0  0  0  0  0  0  0  0  0  0  0
    9.8229  -14.3606   26.0494 C   0  0  0  0  0  0  0  0  0  0  0  0
   10.0440  -13.3876   26.8066 O   0  0  0  0  0  0  0  0  0  0  0  0
   10.4924  -15.5683   26.3743 N   0  0  0  0  0  0  0  0  0  0  0  0
   10.6770  -15.9998   27.7038 C   0  0  1  0  0  0  0  0  0  0  0  0
    9.8079  -15.4651   28.7654 C   0  0  0  0  0  0  0  0  0  0  0  0
   10.4319  -14.0805   29.6993 S   0  0  0  0  0  0  0  0  0  0  0  0
   10.7997  -17.5086   27.7400 C   0  0  0  0  0  0  0  0  0  0  0  0
   10.2641  -18.3059   26.7470 O   0  0  0  0  0  0  0  0  0  0  0  0
   11.3980  -18.0653   28.6856 O   0  0  0  0  0  0  0  0  0  0  0  0
  2  1  1  6
  2  3  1  0
  4  3  1  0
  4  5  1  0
  5  6  1  0
  6  7  1  0
  8  9  2  0
  8  2  1  0
 10 11  1  0
 11 12  1  0
 12 14  1  0
 12 13  1  1
 14 15  1  1
 15  8  1  0
 16 18  1  0
 16 14  1  0
 17 16  2  0
 19 22  1  0
 19 18  1  0
 19 20  1  1
 20 21  1  0
 22 23  1  0
 24 22  2  0
M  END
$$$$
