KIC.pdb
     RDKit          3D

 24 23  0  0  1  0  0  0  0  0999 V2000
    8.8642  -16.5711   20.7656 N   0  0  0  0  0  0  0  0  0  0  0  0
    8.1635  -16.8328   21.9809 C   0  0  1  0  0  0  0  0  0  0  0  0
    8.0955  -18.2618   22.3815 C   0  0  0  0  0  0  0  0  0  0  0  0
    7.5181  -19.1741   21.3722 C   0  0  0  0  0  0  0  0  0  0  0  0
    6.0889  -19.5495   21.5354 C   0  0  0  0  0  0  0  0  0  0  0  0
    5.6740  -20.6240   20.5181 C   0  0  0  0  0  0  0  0  0  0  0  0
    5.1978  -21.7999   21.2112 N   0  0  0  0  0  0  0  0  0  0  0  0
    8.7048  -15.9572   23.0547 C   0  0  0  0  0  0  0  0  0  0  0  0
    9.9466  -15.7167   23.1425 O   0  0  0  0  0  0  0  0  0  0  0  0
    6.8278  -11.4687   26.9200 C   0  0  0  0  0  0  0  0  0  0  0  0
    7.8263  -12.5374   26.5565 C   0  0  0  0  0  0  0  0  0  0  0  0
    7.3470  -13.5057   25.5328 C   0  0  2  0  0  0  0  0  0  0  0  0
    5.9886  -14.0861   25.9464 C   0  0  0  0  0  0  0  0  0  0  0  0
    8.3057  -14.5826   25.1503 C   0  0  2  0  0  0  0  0  0  0  0  0
    7.8551  -15.3590   24.0192 N   0  0  0  0  0  0  0  0  0  0  0  0
    8.8296  -15.3717   26.2722 C   0  0  0  0  0  0  0  0  0  0  0  0
    8.2426  -16.3526   26.7843 O   0  0  0  0  0  0  0  0  0  0  0  0
   10.0850  -15.0312   26.8384 N   0  0  0  0  0  0  0  0  0  0  0  0
   10.8452  -15.9409   27.6014 C   0  0  1  0  0  0  0  0  0  0  0  0
   12.2471  -16.2001   27.2328 C   0  0  0  0  0  0  0  0  0  0  0  0
   13.2031  -14.8072   26.6628 S   0  0  0  0  0  0  0  0  0  0  0  0
   10.6628  -15.6500   29.0762 C   0  0  0  0  0  0  0  0  0  0  0  0
   10.0109  -14.5149   29.5183 O   0  0  0  0  0  0  0  0  0  0  0  0
   11.1070  -16.4463   29.9308 O   0  0  0  0  0  0  0  0  0  0  0  0
  2  1  1  6
  2  3  1  0
  4  3  1  0
  4  5  1  0
  5  6  1  0
  6  7  1  0
  8  9  2  0
  8  2  1  0
 10 11  1  0
 11 12  1  0
 12 14  1  0
 12 13  1  1
 14 15  1  6
 15  8  1  0
 16 18  1  0
 16 14  1  0
 17 16  2  0
 19 22  1  0
 19 18  1  0
 19 20  1  6
 20 21  1  0
 22 23  1  0
 24 22  2  0
M  END
$$$$
