KIC.pdb
     RDKit          3D

 24 23  0  0  1  0  0  0  0  0999 V2000
    9.6969  -17.7704   16.0284 N   0  0  0  0  0  0  0  0  0  0  0  0
    8.7762  -17.8672   17.1144 C   0  0  1  0  0  0  0  0  0  0  0  0
    8.3599  -19.2469   17.4749 C   0  0  0  0  0  0  0  0  0  0  0  0
    7.6105  -19.9744   16.4291 C   0  0  0  0  0  0  0  0  0  0  0  0
    6.1269  -19.8927   16.4764 C   0  0  0  0  0  0  0  0  0  0  0  0
    5.4872  -20.6783   15.3208 C   0  0  0  0  0  0  0  0  0  0  0  0
    4.0485  -20.6773   15.4622 N   0  0  0  0  0  0  0  0  0  0  0  0
    9.3076  -17.1026   18.2745 C   0  0  0  0  0  0  0  0  0  0  0  0
   10.5414  -17.1241   18.5657 O   0  0  0  0  0  0  0  0  0  0  0  0
    6.6676  -12.4692   19.8998 C   0  0  0  0  0  0  0  0  0  0  0  0
    7.7386  -13.4799   19.5795 C   0  0  0  0  0  0  0  0  0  0  0  0
    7.9690  -14.4923   20.6459 C   0  0  2  0  0  0  0  0  0  0  0  0
    8.4143  -13.8048   21.9429 C   0  0  0  0  0  0  0  0  0  0  0  0
    8.8740  -15.6235   20.2906 C   0  0  2  0  0  0  0  0  0  0  0  0
    8.4571  -16.3221   19.0974 N   0  0  0  0  0  0  0  0  0  0  0  0
    9.2514  -16.4904   21.4140 C   0  0  0  0  0  0  0  0  0  0  0  0
    8.4987  -17.3467   21.9328 O   0  0  0  0  0  0  0  0  0  0  0  0
   10.5502  -16.3808   21.9739 N   0  0  0  0  0  0  0  0  0  0  0  0
   11.0078  -17.2305   23.0018 C   0  0  1  0  0  0  0  0  0  0  0  0
   11.9141  -18.3429   22.6714 C   0  0  0  0  0  0  0  0  0  0  0  0
   12.3781  -19.4304   24.0060 S   0  0  0  0  0  0  0  0  0  0  0  0
   11.4869  -16.4023   24.1755 C   0  0  0  0  0  0  0  0  0  0  0  0
   11.8170  -16.9796   25.3864 O   0  0  0  0  0  0  0  0  0  0  0  0
   11.5928  -15.1620   24.0643 O   0  0  0  0  0  0  0  0  0  0  0  0
  2  1  1  6
  2  3  1  0
  4  3  1  0
  4  5  1  0
  5  6  1  0
  6  7  1  0
  8  9  2  0
  8  2  1  0
 10 11  1  0
 11 12  1  0
 12 14  1  0
 12 13  1  1
 14 15  1  6
 15  8  1  0
 16 18  1  0
 16 14  1  0
 17 16  2  0
 19 22  1  0
 19 18  1  0
 19 20  1  6
 20 21  1  0
 22 23  1  0
 24 22  2  0
M  END
$$$$
