KIC.pdb
     RDKit          3D

 24 23  0  0  1  0  0  0  0  0999 V2000
    8.2567  -18.5225   16.9800 N   0  0  0  0  0  0  0  0  0  0  0  0
    7.4615  -18.1509   18.1053 C   0  0  1  0  0  0  0  0  0  0  0  0
    6.7613  -19.2698   18.7871 C   0  0  0  0  0  0  0  0  0  0  0  0
    6.6667  -20.5234   18.0098 C   0  0  0  0  0  0  0  0  0  0  0  0
    6.9108  -21.7949   18.7405 C   0  0  0  0  0  0  0  0  0  0  0  0
    6.8432  -23.0043   17.7948 C   0  0  0  0  0  0  0  0  0  0  0  0
    6.9472  -24.2296   18.5548 N   0  0  0  0  0  0  0  0  0  0  0  0
    8.2842  -17.3321   19.0354 C   0  0  0  0  0  0  0  0  0  0  0  0
    9.5402  -17.4879   19.1120 O   0  0  0  0  0  0  0  0  0  0  0  0
    6.9659  -12.0751   19.9800 C   0  0  0  0  0  0  0  0  0  0  0  0
    7.7172  -13.3683   19.7942 C   0  0  0  0  0  0  0  0  0  0  0  0
    7.8323  -14.1962   21.0258 C   0  0  2  0  0  0  0  0  0  0  0  0
    8.5666  -13.4154   22.1232 C   0  0  0  0  0  0  0  0  0  0  0  0
    8.4111  -15.5593   20.8468 C   0  0  2  0  0  0  0  0  0  0  0  0
    7.6973  -16.3482   19.8704 N   0  0  0  0  0  0  0  0  0  0  0  0
    8.7328  -16.2635   22.0945 C   0  0  0  0  0  0  0  0  0  0  0  0
    7.8806  -16.7198   22.8910 O   0  0  0  0  0  0  0  0  0  0  0  0
   10.0909  -16.4619   22.4532 N   0  0  0  0  0  0  0  0  0  0  0  0
   10.4745  -17.1753   23.6072 C   0  0  1  0  0  0  0  0  0  0  0  0
   10.6407  -18.6365   23.5328 C   0  0  0  0  0  0  0  0  0  0  0  0
   11.2738  -19.4525   24.9861 S   0  0  0  0  0  0  0  0  0  0  0  0
   11.6405  -16.4781   24.2761 C   0  0  0  0  0  0  0  0  0  0  0  0
   12.0884  -16.8498   25.5291 O   0  0  0  0  0  0  0  0  0  0  0  0
   12.2256  -15.5394   23.6945 O   0  0  0  0  0  0  0  0  0  0  0  0
  2  1  1  6
  2  3  1  0
  4  3  1  0
  4  5  1  0
  5  6  1  0
  6  7  1  0
  8  9  2  0
  8  2  1  0
 10 11  1  0
 11 12  1  0
 12 14  1  0
 12 13  1  1
 14 15  1  1
 15  8  1  0
 16 18  1  0
 16 14  1  0
 17 16  2  0
 19 22  1  0
 19 18  1  0
 19 20  1  6
 20 21  1  0
 22 23  1  0
 24 22  2  0
M  END
$$$$
