KIC.pdb
     RDKit          3D

 24 23  0  0  1  0  0  0  0  0999 V2000
    8.7207  -15.3244   20.3607 N   0  0  0  0  0  0  0  0  0  0  0  0
    7.9465  -15.8047   21.4591 C   0  0  1  0  0  0  0  0  0  0  0  0
    7.6939  -17.2687   21.4679 C   0  0  0  0  0  0  0  0  0  0  0  0
    7.4091  -17.8687   20.1475 C   0  0  0  0  0  0  0  0  0  0  0  0
    6.0876  -17.5679   19.5364 C   0  0  0  0  0  0  0  0  0  0  0  0
    5.8852  -18.3514   18.2299 C   0  0  0  0  0  0  0  0  0  0  0  0
    5.9533  -19.7714   18.4921 N   0  0  0  0  0  0  0  0  0  0  0  0
    8.5448  -15.3143   22.7295 C   0  0  0  0  0  0  0  0  0  0  0  0
    9.7914  -15.4001   22.9446 O   0  0  0  0  0  0  0  0  0  0  0  0
    5.9413  -11.4896   25.8461 C   0  0  0  0  0  0  0  0  0  0  0  0
    6.9791  -12.3436   25.1643 C   0  0  0  0  0  0  0  0  0  0  0  0
    7.2954  -13.6131   25.8741 C   0  0  2  0  0  0  0  0  0  0  0  0
    7.8756  -13.3143   27.2623 C   0  0  0  0  0  0  0  0  0  0  0  0
    8.1430  -14.5873   25.1275 C   0  0  2  0  0  0  0  0  0  0  0  0
    7.7464  -14.7332   23.7467 N   0  0  0  0  0  0  0  0  0  0  0  0
    8.4027  -15.8489   25.8324 C   0  0  0  0  0  0  0  0  0  0  0  0
    7.7652  -16.9105   25.6440 O   0  0  0  0  0  0  0  0  0  0  0  0
    9.4409  -15.9078   26.7973 N   0  0  0  0  0  0  0  0  0  0  0  0
   10.1761  -17.0840   27.0502 C   0  0  1  0  0  0  0  0  0  0  0  0
   11.0965  -17.5973   26.0218 C   0  0  0  0  0  0  0  0  0  0  0  0
   11.5361  -19.3225   26.1198 S   0  0  0  0  0  0  0  0  0  0  0  0
   10.8045  -17.0092   28.4259 C   0  0  0  0  0  0  0  0  0  0  0  0
   11.0872  -15.8001   29.0316 O   0  0  0  0  0  0  0  0  0  0  0  0
   11.0817  -18.0588   29.0451 O   0  0  0  0  0  0  0  0  0  0  0  0
  2  1  1  6
  2  3  1  0
  4  3  1  0
  4  5  1  0
  5  6  1  0
  6  7  1  0
  8  9  2  0
  8  2  1  0
 10 11  1  0
 11 12  1  0
 12 14  1  0
 12 13  1  1
 14 15  1  6
 15  8  1  0
 16 18  1  0
 16 14  1  0
 17 16  2  0
 19 22  1  0
 19 18  1  0
 19 20  1  6
 20 21  1  0
 22 23  1  0
 24 22  2  0
M  END
$$$$
