KIC.pdb
     RDKit          3D

 24 23  0  0  1  0  0  0  0  0999 V2000
    8.7080  -15.5094   20.7818 N   0  0  0  0  0  0  0  0  0  0  0  0
    8.0408  -16.0225   21.9342 C   0  0  1  0  0  0  0  0  0  0  0  0
    7.9667  -17.5038   22.0201 C   0  0  0  0  0  0  0  0  0  0  0  0
    7.4570  -18.1822   20.8099 C   0  0  0  0  0  0  0  0  0  0  0  0
    7.3455  -19.6638   20.8587 C   0  0  0  0  0  0  0  0  0  0  0  0
    6.7668  -20.2238   19.5498 C   0  0  0  0  0  0  0  0  0  0  0  0
    5.3715  -19.8635   19.4349 N   0  0  0  0  0  0  0  0  0  0  0  0
    8.6251  -15.4019   23.1533 C   0  0  0  0  0  0  0  0  0  0  0  0
    9.8650  -15.1488   23.2316 O   0  0  0  0  0  0  0  0  0  0  0  0
    5.5619  -11.9054   25.8862 C   0  0  0  0  0  0  0  0  0  0  0  0
    6.7711  -12.5904   25.3031 C   0  0  0  0  0  0  0  0  0  0  0  0
    7.3861  -13.6152   26.1902 C   0  0  2  0  0  0  0  0  0  0  0  0
    8.0371  -12.9430   27.4057 C   0  0  0  0  0  0  0  0  0  0  0  0
    8.3202  -14.5746   25.5330 C   0  0  2  0  0  0  0  0  0  0  0  0
    7.8201  -15.0701   24.2721 N   0  0  0  0  0  0  0  0  0  0  0  0
    8.8798  -15.6006   26.4219 C   0  0  0  0  0  0  0  0  0  0  0  0
    8.2344  -16.5728   26.8772 O   0  0  0  0  0  0  0  0  0  0  0  0
   10.2417  -15.5195   26.8104 N   0  0  0  0  0  0  0  0  0  0  0  0
   10.8832  -16.5374   27.5454 C   0  0  1  0  0  0  0  0  0  0  0  0
   12.2059  -17.0186   27.1127 C   0  0  0  0  0  0  0  0  0  0  0  0
   12.2778  -17.9011   25.5651 S   0  0  0  0  0  0  0  0  0  0  0  0
   10.8220  -16.2174   29.0242 C   0  0  0  0  0  0  0  0  0  0  0  0
   10.2010  -15.0772   29.4964 O   0  0  0  0  0  0  0  0  0  0  0  0
   11.3414  -16.9938   29.8544 O   0  0  0  0  0  0  0  0  0  0  0  0
  2  1  1  6
  2  3  1  0
  4  3  1  0
  4  5  1  0
  5  6  1  0
  6  7  1  0
  8  9  2  0
  8  2  1  0
 10 11  1  0
 11 12  1  0
 12 14  1  0
 12 13  1  1
 14 15  1  6
 15  8  1  0
 16 18  1  0
 16 14  1  0
 17 16  2  0
 19 22  1  0
 19 18  1  0
 19 20  1  6
 20 21  1  0
 22 23  1  0
 24 22  2  0
M  END
$$$$
