KIC.pdb
     RDKit          3D

 24 23  0  0  1  0  0  0  0  0999 V2000
    9.0656  -15.2359   20.6936 N   0  0  0  0  0  0  0  0  0  0  0  0
    8.3523  -15.8612   21.7597 C   0  0  1  0  0  0  0  0  0  0  0  0
    8.3098  -17.3455   21.7128 C   0  0  0  0  0  0  0  0  0  0  0  0
    7.7561  -17.9228   20.4700 C   0  0  0  0  0  0  0  0  0  0  0  0
    6.2883  -17.8079   20.2636 C   0  0  0  0  0  0  0  0  0  0  0  0
    5.8499  -18.5092   18.9684 C   0  0  0  0  0  0  0  0  0  0  0  0
    6.1430  -19.9224   19.0506 N   0  0  0  0  0  0  0  0  0  0  0  0
    8.8574  -15.3387   23.0576 C   0  0  0  0  0  0  0  0  0  0  0  0
   10.0930  -15.1231   23.2427 O   0  0  0  0  0  0  0  0  0  0  0  0
    5.8054  -11.8267   25.8597 C   0  0  0  0  0  0  0  0  0  0  0  0
    7.0053  -12.5565   25.3130 C   0  0  0  0  0  0  0  0  0  0  0  0
    7.4271  -13.7366   26.1159 C   0  0  2  0  0  0  0  0  0  0  0  0
    7.9281  -13.2886   27.4948 C   0  0  0  0  0  0  0  0  0  0  0  0
    8.3941  -14.6635   25.4596 C   0  0  2  0  0  0  0  0  0  0  0  0
    7.9788  -15.0621   24.1353 N   0  0  0  0  0  0  0  0  0  0  0  0
    8.8776  -15.7577   26.3111 C   0  0  0  0  0  0  0  0  0  0  0  0
    8.1682  -16.7073   26.7162 O   0  0  0  0  0  0  0  0  0  0  0  0
   10.2358  -15.7753   26.7201 N   0  0  0  0  0  0  0  0  0  0  0  0
   10.8454  -16.9174   27.2786 C   0  0  1  0  0  0  0  0  0  0  0  0
   12.2064  -17.2900   26.8580 C   0  0  0  0  0  0  0  0  0  0  0  0
   13.1198  -16.0826   25.9162 S   0  0  0  0  0  0  0  0  0  0  0  0
   10.6703  -16.9073   28.7827 C   0  0  0  0  0  0  0  0  0  0  0  0
   10.9688  -18.0118   29.5571 O   0  0  0  0  0  0  0  0  0  0  0  0
   10.2455  -15.8815   29.3564 O   0  0  0  0  0  0  0  0  0  0  0  0
  2  1  1  6
  2  3  1  0
  4  3  1  0
  4  5  1  0
  5  6  1  0
  6  7  1  0
  8  9  2  0
  8  2  1  0
 10 11  1  0
 11 12  1  0
 12 14  1  0
 12 13  1  1
 14 15  1  6
 15  8  1  0
 16 18  1  0
 16 14  1  0
 17 16  2  0
 19 22  1  0
 19 18  1  0
 19 20  1  1
 20 21  1  0
 22 23  1  0
 24 22  2  0
M  END
$$$$
