FFI.pdb
     RDKit          3D

 31 32  0  0  1  0  0  0  0  0999 V2000
   26.3202  -22.2270  -17.2914 N   0  0  0  0  0  0  0  0  0  0  0  0
   26.3751  -20.9690  -16.5778 C   0  0  1  0  0  0  0  0  0  0  0  0
   25.0014  -20.3623  -16.5683 C   0  0  0  0  0  0  0  0  0  0  0  0
   24.8149  -19.6698  -17.8756 C   0  0  0  0  0  0  0  0  0  0  0  0
   24.0212  -20.2327  -18.8502 C   0  0  0  0  0  0  0  0  0  0  0  0
   23.8229  -19.6179  -20.0813 C   0  0  0  0  0  0  0  0  0  0  0  0
   24.4250  -18.4196  -20.3504 C   0  0  0  0  0  0  0  0  0  0  0  0
   25.2278  -17.8334  -19.3867 C   0  0  0  0  0  0  0  0  0  0  0  0
   25.4165  -18.4613  -18.1591 C   0  0  0  0  0  0  0  0  0  0  0  0
   26.9499  -21.1853  -15.2565 C   0  0  0  0  0  0  0  0  0  0  0  0
   26.6174  -22.2102  -14.6081 O   0  0  0  0  0  0  0  0  0  0  0  0
   27.8780  -20.3183  -14.6172 N   0  0  0  0  0  0  0  0  0  0  0  0
   28.2896  -20.5498  -13.2714 C   0  0  1  0  0  0  0  0  0  0  0  0
   29.6416  -19.9586  -12.9471 C   0  0  0  0  0  0  0  0  0  0  0  0
   30.3732  -20.7291  -11.9256 C   0  0  0  0  0  0  0  0  0  0  0  0
   30.5933  -20.1722  -10.6851 C   0  0  0  0  0  0  0  0  0  0  0  0
   31.2681  -20.8323   -9.6828 C   0  0  0  0  0  0  0  0  0  0  0  0
   31.7567  -22.0969   -9.8877 C   0  0  0  0  0  0  0  0  0  0  0  0
   31.5513  -22.6824  -11.1231 C   0  0  0  0  0  0  0  0  0  0  0  0
   30.8702  -21.9996  -12.1153 C   0  0  0  0  0  0  0  0  0  0  0  0
   27.3082  -20.0504  -12.2699 C   0  0  0  0  0  0  0  0  0  0  0  0
   26.9083  -18.8597  -12.3372 O   0  0  0  0  0  0  0  0  0  0  0  0
   22.6206  -21.3055  -12.0931 C   0  0  0  0  0  0  0  0  0  0  0  0
   23.9748  -20.6367  -11.8503 C   0  0  0  0  0  0  0  0  0  0  0  0
   24.4738  -20.9820  -10.4731 C   0  0  2  0  0  0  0  0  0  0  0  0
   23.4400  -20.4838   -9.4858 C   0  0  0  0  0  0  0  0  0  0  0  0
   25.8176  -20.3862  -10.2469 C   0  0  2  0  0  0  0  0  0  0  0  0
   26.7935  -20.8596  -11.2286 N   0  0  0  0  0  0  0  0  0  0  0  0
   26.3582  -20.5572   -8.8879 C   0  0  0  0  0  0  0  0  0  0  0  0
   26.2119  -19.4824   -7.9888 O   0  0  0  0  0  0  0  0  0  0  0  0
   26.9372  -21.5521   -8.4324 O   0  0  0  0  0  0  0  0  0  0  0  0
  2  1  1  1
  2 10  1  0
  3  2  1  0
  3  4  1  0
  4  9  1  0
  4  5  2  0
  5  6  1  0
  6  7  2  0
  8  7  1  0
  9  8  2  0
 10 11  2  0
 12 13  1  0
 12 10  1  0
 13 21  1  0
 13 14  1  1
 15 14  1  0
 16 15  2  0
 17 16  1  0
 18 19  1  0
 18 17  2  0
 19 20  2  0
 20 15  1  0
 21 22  2  0
 24 25  1  0
 24 23  1  0
 25 27  1  0
 25 26  1  1
 27 29  1  0
 28 21  1  0
 27 28  1  6
 29 31  2  0
 29 30  1  0
M  END
$$$$
