FFI.pdb
     RDKit          3D

 31 32  0  0  1  0  0  0  0  0999 V2000
   18.3390  -10.5303  -16.0123 N   0  0  0  0  0  0  0  0  0  0  0  0
   18.0008   -9.1353  -15.8272 C   0  0  1  0  0  0  0  0  0  0  0  0
   16.5372   -8.9546  -16.1105 C   0  0  0  0  0  0  0  0  0  0  0  0
   16.3691   -8.9649  -17.5921 C   0  0  0  0  0  0  0  0  0  0  0  0
   16.6988   -7.8524  -18.3340 C   0  0  0  0  0  0  0  0  0  0  0  0
   16.5562   -7.8232  -19.7166 C   0  0  0  0  0  0  0  0  0  0  0  0
   16.0765   -8.9212  -20.3764 C   0  0  0  0  0  0  0  0  0  0  0  0
   15.7380  -10.0520  -19.6527 C   0  0  0  0  0  0  0  0  0  0  0  0
   15.8865  -10.0656  -18.2691 C   0  0  0  0  0  0  0  0  0  0  0  0
   18.4169   -8.7073  -14.4980 C   0  0  0  0  0  0  0  0  0  0  0  0
   18.2586   -9.4922  -13.5282 O   0  0  0  0  0  0  0  0  0  0  0  0
   19.0015   -7.4482  -14.1906 N   0  0  0  0  0  0  0  0  0  0  0  0
   19.3799   -7.1228  -12.8546 C   0  0  1  0  0  0  0  0  0  0  0  0
   20.8554   -6.8358  -12.7015 C   0  0  0  0  0  0  0  0  0  0  0  0
   21.6997   -8.0087  -12.9908 C   0  0  0  0  0  0  0  0  0  0  0  0
   22.1910   -8.1925  -14.2644 C   0  0  0  0  0  0  0  0  0  0  0  0
   22.9853   -9.2637  -14.6077 C   0  0  0  0  0  0  0  0  0  0  0  0
   23.3236  -10.2078  -13.6727 C   0  0  0  0  0  0  0  0  0  0  0  0
   22.8452  -10.0503  -12.3853 C   0  0  0  0  0  0  0  0  0  0  0  0
   22.0486   -8.9657  -12.0637 C   0  0  0  0  0  0  0  0  0  0  0  0
   18.6191   -5.9699  -12.2999 C   0  0  0  0  0  0  0  0  0  0  0  0
   18.5227   -4.9119  -12.9733 O   0  0  0  0  0  0  0  0  0  0  0  0
   13.5307   -3.9234  -10.9362 C   0  0  0  0  0  0  0  0  0  0  0  0
   14.9537   -3.8714  -10.3772 C   0  0  0  0  0  0  0  0  0  0  0  0
   15.7481   -5.0392  -10.8969 C   0  0  2  0  0  0  0  0  0  0  0  0
   15.1072   -6.2955  -10.3464 C   0  0  0  0  0  0  0  0  0  0  0  0
   17.1770   -4.9056  -10.5069 C   0  0  2  0  0  0  0  0  0  0  0  0
   17.9882   -6.0035  -11.0330 N   0  0  0  0  0  0  0  0  0  0  0  0
   17.4211   -4.7566   -9.0624 C   0  0  0  0  0  0  0  0  0  0  0  0
   17.0556   -3.5353   -8.4628 O   0  0  0  0  0  0  0  0  0  0  0  0
   17.9189   -5.5929   -8.2973 O   0  0  0  0  0  0  0  0  0  0  0  0
  2  1  1  1
  2 10  1  0
  3  2  1  0
  3  4  1  0
  4  9  1  0
  4  5  2  0
  5  6  1  0
  6  7  2  0
  8  7  1  0
  9  8  2  0
 10 11  2  0
 12 13  1  0
 12 10  1  0
 13 21  1  0
 13 14  1  6
 15 14  1  0
 16 15  2  0
 17 16  1  0
 18 19  1  0
 18 17  2  0
 19 20  2  0
 20 15  1  0
 21 22  2  0
 24 25  1  0
 24 23  1  0
 25 27  1  0
 25 26  1  1
 27 29  1  0
 28 21  1  0
 27 28  1  1
 29 31  2  0
 29 30  1  0
M  END
$$$$
