FFI.pdb
     RDKit          3D

 31 32  0  0  1  0  0  0  0  0999 V2000
   24.7818  -20.1898  -18.5274 N   0  0  0  0  0  0  0  0  0  0  0  0
   24.7989  -19.2238  -17.4498 C   0  0  1  0  0  0  0  0  0  0  0  0
   23.3908  -18.7723  -17.1877 C   0  0  0  0  0  0  0  0  0  0  0  0
   22.9710  -17.9366  -18.3490 C   0  0  0  0  0  0  0  0  0  0  0  0
   21.8390  -18.2618  -19.0628 C   0  0  0  0  0  0  0  0  0  0  0  0
   21.4154  -17.5077  -20.1511 C   0  0  0  0  0  0  0  0  0  0  0  0
   22.1303  -16.4079  -20.5390 C   0  0  0  0  0  0  0  0  0  0  0  0
   23.2722  -16.0603  -19.8374 C   0  0  0  0  0  0  0  0  0  0  0  0
   23.6833  -16.8254  -18.7500 C   0  0  0  0  0  0  0  0  0  0  0  0
   25.4749  -19.7981  -16.2938 C   0  0  0  0  0  0  0  0  0  0  0  0
   25.0958  -20.9159  -15.8599 O   0  0  0  0  0  0  0  0  0  0  0  0
   26.5538  -19.1920  -15.5937 N   0  0  0  0  0  0  0  0  0  0  0  0
   27.0451  -19.7526  -14.3778 C   0  0  1  0  0  0  0  0  0  0  0  0
   28.3771  -19.1825  -13.9491 C   0  0  0  0  0  0  0  0  0  0  0  0
   28.8806  -19.7813  -12.7000 C   0  0  0  0  0  0  0  0  0  0  0  0
   28.6338  -19.1527  -11.4995 C   0  0  0  0  0  0  0  0  0  0  0  0
   29.0726  -19.6531  -10.2941 C   0  0  0  0  0  0  0  0  0  0  0  0
   29.7876  -20.8220  -10.2439 C   0  0  0  0  0  0  0  0  0  0  0  0
   30.0511  -21.4760  -11.4331 C   0  0  0  0  0  0  0  0  0  0  0  0
   29.5999  -20.9540  -12.6324 C   0  0  0  0  0  0  0  0  0  0  0  0
   26.0896  -19.6114  -13.2453 C   0  0  0  0  0  0  0  0  0  0  0  0
   25.5183  -18.5074  -13.0529 O   0  0  0  0  0  0  0  0  0  0  0  0
   21.0040  -20.3504  -11.2309 C   0  0  0  0  0  0  0  0  0  0  0  0
   22.4321  -20.3384  -10.6826 C   0  0  0  0  0  0  0  0  0  0  0  0
   23.4095  -20.5754  -11.8021 C   0  0  2  0  0  0  0  0  0  0  0  0
   23.0359  -21.8919  -12.4496 C   0  0  0  0  0  0  0  0  0  0  0  0
   24.8025  -20.5668  -11.2812 C   0  0  2  0  0  0  0  0  0  0  0  0
   25.7858  -20.6728  -12.3593 N   0  0  0  0  0  0  0  0  0  0  0  0
   25.0907  -21.5739  -10.2463 C   0  0  0  0  0  0  0  0  0  0  0  0
   25.9940  -22.6043  -10.5739 O   0  0  0  0  0  0  0  0  0  0  0  0
   24.6249  -21.6241   -9.1005 O   0  0  0  0  0  0  0  0  0  0  0  0
  2  1  1  6
  2 10  1  0
  3  2  1  0
  3  4  1  0
  4  9  1  0
  4  5  2  0
  5  6  1  0
  6  7  2  0
  8  7  1  0
  9  8  2  0
 10 11  2  0
 12 13  1  0
 12 10  1  0
 13 21  1  0
 13 14  1  1
 15 14  1  0
 16 15  2  0
 17 16  1  0
 18 19  1  0
 18 17  2  0
 19 20  2  0
 20 15  1  0
 21 22  2  0
 24 25  1  0
 24 23  1  0
 25 27  1  0
 25 26  1  1
 27 29  1  0
 28 21  1  0
 27 28  1  6
 29 31  2  0
 29 30  1  0
M  END
$$$$
