FFI.pdb
     RDKit          3D

 31 32  0  0  1  0  0  0  0  0999 V2000
   27.3866  -21.4900  -18.6259 N   0  0  0  0  0  0  0  0  0  0  0  0
   27.3776  -20.3552  -17.7275 C   0  0  1  0  0  0  0  0  0  0  0  0
   26.5061  -19.2836  -18.3168 C   0  0  0  0  0  0  0  0  0  0  0  0
   27.2304  -18.7216  -19.4927 C   0  0  0  0  0  0  0  0  0  0  0  0
   26.8255  -19.0370  -20.7707 C   0  0  0  0  0  0  0  0  0  0  0  0
   27.4749  -18.5333  -21.8920 C   0  0  0  0  0  0  0  0  0  0  0  0
   28.5485  -17.6992  -21.7416 C   0  0  0  0  0  0  0  0  0  0  0  0
   28.9748  -17.3671  -20.4669 C   0  0  0  0  0  0  0  0  0  0  0  0
   28.3142  -17.8796  -19.3543 C   0  0  0  0  0  0  0  0  0  0  0  0
   26.9804  -20.7936  -16.3959 C   0  0  0  0  0  0  0  0  0  0  0  0
   26.1390  -21.7217  -16.2862 O   0  0  0  0  0  0  0  0  0  0  0  0
   27.4720  -20.2517  -15.1767 N   0  0  0  0  0  0  0  0  0  0  0  0
   26.8225  -20.5286  -13.9375 C   0  0  1  0  0  0  0  0  0  0  0  0
   27.6236  -20.0986  -12.7308 C   0  0  0  0  0  0  0  0  0  0  0  0
   26.8937  -20.2833  -11.4637 C   0  0  0  0  0  0  0  0  0  0  0  0
   26.8214  -21.5380  -10.8999 C   0  0  0  0  0  0  0  0  0  0  0  0
   26.1575  -21.7855   -9.7193 C   0  0  0  0  0  0  0  0  0  0  0  0
   25.5300  -20.7688   -9.0466 C   0  0  0  0  0  0  0  0  0  0  0  0
   25.5853  -19.4980   -9.5880 C   0  0  0  0  0  0  0  0  0  0  0  0
   26.2584  -19.2732  -10.7758 C   0  0  0  0  0  0  0  0  0  0  0  0
   25.4686  -19.9175  -13.8421 C   0  0  0  0  0  0  0  0  0  0  0  0
   25.2894  -18.7445  -14.2593 O   0  0  0  0  0  0  0  0  0  0  0  0
   20.8424  -19.1221  -16.4125 C   0  0  0  0  0  0  0  0  0  0  0  0
   21.1780  -19.4371  -14.9536 C   0  0  0  0  0  0  0  0  0  0  0  0
   22.5867  -19.9575  -14.8559 C   0  0  2  0  0  0  0  0  0  0  0  0
   22.6385  -21.2545  -15.6349 C   0  0  0  0  0  0  0  0  0  0  0  0
   22.9759  -20.1280  -13.4307 C   0  0  2  0  0  0  0  0  0  0  0  0
   24.3543  -20.5997  -13.2971 N   0  0  0  0  0  0  0  0  0  0  0  0
   22.0798  -20.9830  -12.6343 C   0  0  0  0  0  0  0  0  0  0  0  0
   22.4090  -22.3486  -12.5259 O   0  0  0  0  0  0  0  0  0  0  0  0
   21.0516  -20.6383  -12.0372 O   0  0  0  0  0  0  0  0  0  0  0  0
  2  1  1  6
  2 10  1  0
  3  2  1  0
  3  4  1  0
  4  9  1  0
  4  5  2  0
  5  6  1  0
  6  7  2  0
  8  7  1  0
  9  8  2  0
 10 11  2  0
 12 13  1  0
 12 10  1  0
 13 21  1  0
 13 14  1  1
 15 14  1  0
 16 15  2  0
 17 16  1  0
 18 19  1  0
 18 17  2  0
 19 20  2  0
 20 15  1  0
 21 22  2  0
 24 25  1  0
 24 23  1  0
 25 27  1  0
 25 26  1  6
 27 29  1  0
 28 21  1  0
 27 28  1  6
 29 31  2  0
 29 30  1  0
M  END
$$$$
