FFI.pdb
     RDKit          3D

 31 32  0  0  1  0  0  0  0  0999 V2000
   26.2126  -19.0624  -15.6203 N   0  0  0  0  0  0  0  0  0  0  0  0
   27.0779  -19.5631  -14.5736 C   0  0  1  0  0  0  0  0  0  0  0  0
   28.3629  -18.7864  -14.6009 C   0  0  0  0  0  0  0  0  0  0  0  0
   29.0827  -19.1661  -15.8503 C   0  0  0  0  0  0  0  0  0  0  0  0
   29.2622  -18.2407  -16.8543 C   0  0  0  0  0  0  0  0  0  0  0  0
   29.9276  -18.5565  -18.0335 C   0  0  0  0  0  0  0  0  0  0  0  0
   30.4251  -19.8170  -18.2197 C   0  0  0  0  0  0  0  0  0  0  0  0
   30.2574  -20.7652  -17.2248 C   0  0  0  0  0  0  0  0  0  0  0  0
   29.5890  -20.4336  -16.0501 C   0  0  0  0  0  0  0  0  0  0  0  0
   26.3726  -19.5211  -13.2993 C   0  0  0  0  0  0  0  0  0  0  0  0
   25.9389  -18.4179  -12.8795 O   0  0  0  0  0  0  0  0  0  0  0  0
   26.1241  -20.6456  -12.4655 N   0  0  0  0  0  0  0  0  0  0  0  0
   25.3717  -20.5126  -11.2612 C   0  0  1  0  0  0  0  0  0  0  0  0
   24.0252  -21.1957  -11.3161 C   0  0  0  0  0  0  0  0  0  0  0  0
   23.1798  -20.7068  -12.4200 C   0  0  0  0  0  0  0  0  0  0  0  0
   22.3646  -19.6152  -12.2171 C   0  0  0  0  0  0  0  0  0  0  0  0
   21.5487  -19.1033  -13.2011 C   0  0  0  0  0  0  0  0  0  0  0  0
   21.5173  -19.6747  -14.4471 C   0  0  0  0  0  0  0  0  0  0  0  0
   22.3249  -20.7722  -14.6810 C   0  0  0  0  0  0  0  0  0  0  0  0
   23.1367  -21.2691  -13.6766 C   0  0  0  0  0  0  0  0  0  0  0  0
   26.1006  -21.0110  -10.0629 C   0  0  0  0  0  0  0  0  0  0  0  0
   26.4616  -22.2151  -10.0159 O   0  0  0  0  0  0  0  0  0  0  0  0
   29.0857  -18.0708   -6.3960 C   0  0  0  0  0  0  0  0  0  0  0  0
   28.5146  -19.1786   -7.2829 C   0  0  0  0  0  0  0  0  0  0  0  0
   27.2159  -19.6743   -6.7061 C   0  0  2  0  0  0  0  0  0  0  0  0
   27.5177  -20.2105   -5.3229 C   0  0  0  0  0  0  0  0  0  0  0  0
   26.6121  -20.6984   -7.5996 C   0  0  2  0  0  0  0  0  0  0  0  0
   26.4136  -20.1864   -8.9556 N   0  0  0  0  0  0  0  0  0  0  0  0
   25.3608  -21.2994   -7.1083 C   0  0  0  0  0  0  0  0  0  0  0  0
   24.1506  -20.6878   -7.4907 O   0  0  0  0  0  0  0  0  0  0  0  0
   25.2433  -22.2973   -6.3852 O   0  0  0  0  0  0  0  0  0  0  0  0
  2  1  1  6
  2 10  1  0
  3  2  1  0
  3  4  1  0
  4  9  1  0
  4  5  2  0
  5  6  1  0
  6  7  2  0
  8  7  1  0
  9  8  2  0
 10 11  2  0
 12 13  1  0
 12 10  1  0
 13 21  1  0
 13 14  1  6
 15 14  1  0
 16 15  2  0
 17 16  1  0
 18 19  1  0
 18 17  2  0
 19 20  2  0
 20 15  1  0
 21 22  2  0
 24 25  1  0
 24 23  1  0
 25 27  1  0
 25 26  1  1
 27 29  1  0
 28 21  1  0
 27 28  1  6
 29 31  2  0
 29 30  1  0
M  END
$$$$
