FFI.pdb
     RDKit          3D

 31 32  0  0  1  0  0  0  0  0999 V2000
   24.5551  -22.4206  -12.7552 N   0  0  0  0  0  0  0  0  0  0  0  0
   24.9681  -21.1682  -12.1587 C   0  0  1  0  0  0  0  0  0  0  0  0
   23.7497  -20.4569  -11.6443 C   0  0  0  0  0  0  0  0  0  0  0  0
   22.9719  -19.9978  -12.8307 C   0  0  0  0  0  0  0  0  0  0  0  0
   23.4930  -19.0398  -13.6718 C   0  0  0  0  0  0  0  0  0  0  0  0
   22.7987  -18.5861  -14.7875 C   0  0  0  0  0  0  0  0  0  0  0  0
   21.5614  -19.0939  -15.0742 C   0  0  0  0  0  0  0  0  0  0  0  0
   21.0158  -20.0581  -14.2438 C   0  0  0  0  0  0  0  0  0  0  0  0
   21.7234  -20.5020  -13.1306 C   0  0  0  0  0  0  0  0  0  0  0  0
   25.9895  -21.4240  -11.1515 C   0  0  0  0  0  0  0  0  0  0  0  0
   25.8013  -22.3420  -10.3128 O   0  0  0  0  0  0  0  0  0  0  0  0
   27.2127  -20.7097  -11.0284 N   0  0  0  0  0  0  0  0  0  0  0  0
   28.1580  -21.0450  -10.0145 C   0  0  1  0  0  0  0  0  0  0  0  0
   29.5905  -20.7898  -10.4214 C   0  0  0  0  0  0  0  0  0  0  0  0
   30.5599  -21.1932   -9.3870 C   0  0  0  0  0  0  0  0  0  0  0  0
   30.9076  -20.2992   -8.3984 C   0  0  0  0  0  0  0  0  0  0  0  0
   31.8054  -20.6060   -7.4006 C   0  0  0  0  0  0  0  0  0  0  0  0
   32.3995  -21.8408   -7.3536 C   0  0  0  0  0  0  0  0  0  0  0  0
   32.0704  -22.7597   -8.3327 C   0  0  0  0  0  0  0  0  0  0  0  0
   31.1653  -22.4288   -9.3257 C   0  0  0  0  0  0  0  0  0  0  0  0
   27.9045  -20.3403   -8.7281 C   0  0  0  0  0  0  0  0  0  0  0  0
   27.5270  -19.1406   -8.7448 O   0  0  0  0  0  0  0  0  0  0  0  0
   25.5486  -22.7222   -4.5133 C   0  0  0  0  0  0  0  0  0  0  0  0
   25.9911  -21.6325   -5.4914 C   0  0  0  0  0  0  0  0  0  0  0  0
   27.3733  -21.1572   -5.1332 C   0  0  2  0  0  0  0  0  0  0  0  0
   27.2754  -20.4751   -3.7852 C   0  0  0  0  0  0  0  0  0  0  0  0
   27.9010  -20.2585   -6.1942 C   0  0  2  0  0  0  0  0  0  0  0  0
   28.0690  -20.9610   -7.4665 N   0  0  0  0  0  0  0  0  0  0  0  0
   29.1444  -19.5477   -5.8523 C   0  0  0  0  0  0  0  0  0  0  0  0
   29.0283  -18.2344   -5.3555 O   0  0  0  0  0  0  0  0  0  0  0  0
   30.3021  -19.9748   -5.9512 O   0  0  0  0  0  0  0  0  0  0  0  0
  2  1  1  1
  2 10  1  0
  3  2  1  0
  3  4  1  0
  4  9  1  0
  4  5  2  0
  5  6  1  0
  6  7  2  0
  8  7  1  0
  9  8  2  0
 10 11  2  0
 12 13  1  0
 12 10  1  0
 13 21  1  0
 13 14  1  6
 15 14  1  0
 16 15  2  0
 17 16  1  0
 18 19  1  0
 18 17  2  0
 19 20  2  0
 20 15  1  0
 21 22  2  0
 24 25  1  0
 24 23  1  0
 25 27  1  0
 25 26  1  1
 27 29  1  0
 28 21  1  0
 27 28  1  6
 29 31  2  0
 29 30  1  0
M  END
$$$$
