FFI.pdb
     RDKit          3D

 31 32  0  0  1  0  0  0  0  0999 V2000
   28.6696  -21.3666  -14.7171 N   0  0  0  0  0  0  0  0  0  0  0  0
   27.6492  -20.3762  -14.4472 C   0  0  1  0  0  0  0  0  0  0  0  0
   27.0132  -19.9758  -15.7474 C   0  0  0  0  0  0  0  0  0  0  0  0
   27.5371  -18.6246  -16.0982 C   0  0  0  0  0  0  0  0  0  0  0  0
   26.9782  -17.4981  -15.5368 C   0  0  0  0  0  0  0  0  0  0  0  0
   27.4386  -16.2215  -15.8387 C   0  0  0  0  0  0  0  0  0  0  0  0
   28.4754  -16.0600  -16.7162 C   0  0  0  0  0  0  0  0  0  0  0  0
   29.0541  -17.1771  -17.2940 C   0  0  0  0  0  0  0  0  0  0  0  0
   28.5819  -18.4484  -16.9815 C   0  0  0  0  0  0  0  0  0  0  0  0
   26.7189  -20.8963  -13.4536 C   0  0  0  0  0  0  0  0  0  0  0  0
   26.3293  -22.0881  -13.5494 O   0  0  0  0  0  0  0  0  0  0  0  0
   26.1981  -20.1574  -12.3562 N   0  0  0  0  0  0  0  0  0  0  0  0
   25.1751  -20.7027  -11.5254 C   0  0  1  0  0  0  0  0  0  0  0  0
   25.1946  -20.1608  -10.1152 C   0  0  0  0  0  0  0  0  0  0  0  0
   26.4140  -20.5330   -9.3757 C   0  0  0  0  0  0  0  0  0  0  0  0
   26.5945  -20.0719   -8.0903 C   0  0  0  0  0  0  0  0  0  0  0  0
   27.7074  -20.3784   -7.3398 C   0  0  0  0  0  0  0  0  0  0  0  0
   28.6991  -21.1719   -7.8564 C   0  0  0  0  0  0  0  0  0  0  0  0
   28.5462  -21.6499   -9.1446 C   0  0  0  0  0  0  0  0  0  0  0  0
   27.4190  -21.3285   -9.8799 C   0  0  0  0  0  0  0  0  0  0  0  0
   23.8087  -20.5075  -12.0827 C   0  0  0  0  0  0  0  0  0  0  0  0
   23.4441  -19.3565  -12.4355 O   0  0  0  0  0  0  0  0  0  0  0  0
   22.2537  -23.1783  -16.1517 C   0  0  0  0  0  0  0  0  0  0  0  0
   22.4126  -22.1353  -15.0440 C   0  0  0  0  0  0  0  0  0  0  0  0
   21.3669  -22.3545  -13.9841 C   0  0  2  0  0  0  0  0  0  0  0  0
   20.0165  -22.1943  -14.6494 C   0  0  0  0  0  0  0  0  0  0  0  0
   21.5678  -21.4052  -12.8571 C   0  0  2  0  0  0  0  0  0  0  0  0
   22.8836  -21.5677  -12.2386 N   0  0  0  0  0  0  0  0  0  0  0  0
   20.5245  -21.4357  -11.8184 C   0  0  0  0  0  0  0  0  0  0  0  0
   19.4597  -20.5209  -11.9379 O   0  0  0  0  0  0  0  0  0  0  0  0
   20.4704  -22.1839  -10.8336 O   0  0  0  0  0  0  0  0  0  0  0  0
  2  1  1  6
  2 10  1  0
  3  2  1  0
  3  4  1  0
  4  9  1  0
  4  5  2  0
  5  6  1  0
  6  7  2  0
  8  7  1  0
  9  8  2  0
 10 11  2  0
 12 13  1  0
 12 10  1  0
 13 21  1  0
 13 14  1  1
 15 14  1  0
 16 15  2  0
 17 16  1  0
 18 19  1  0
 18 17  2  0
 19 20  2  0
 20 15  1  0
 21 22  2  0
 24 25  1  0
 24 23  1  0
 25 27  1  0
 25 26  1  6
 27 29  1  0
 28 21  1  0
 27 28  1  1
 29 31  2  0
 29 30  1  0
M  END
$$$$
