MRE.pdb
     RDKit          3D

 29 28  0  0  1  0  0  0  0  0999 V2000
   24.1871  -13.9879  -15.0816 C   0  0  0  0  0  0  0  0  0  0  0  0
   25.9635  -14.2611  -15.1989 S   0  0  0  0  0  0  0  0  0  0  0  0
   26.2210  -16.0223  -15.6177 C   0  0  0  0  0  0  0  0  0  0  0  0
   24.8499  -16.6348  -15.7725 C   0  0  0  0  0  0  0  0  0  0  0  0
   24.9603  -18.1193  -15.9368 C   0  0  2  0  0  0  0  0  0  0  0  0
   25.7752  -18.5094  -17.0023 N   0  0  0  0  0  0  0  0  0  0  0  0
   23.6215  -18.7719  -15.9989 C   0  0  0  0  0  0  0  0  0  0  0  0
   23.0568  -18.9849  -17.1306 O   0  0  0  0  0  0  0  0  0  0  0  0
   25.8395  -23.6133  -14.0743 N   0  0  0  0  0  0  0  0  0  0  0  0
   24.9095  -24.3576  -14.8419 C   0  0  0  0  0  0  0  0  0  0  0  0
   25.2712  -25.4795  -15.3449 N   0  0  0  0  0  0  0  0  0  0  0  0
   23.6140  -23.8203  -15.0134 N   0  0  0  0  0  0  0  0  0  0  0  0
   23.2371  -22.6039  -14.3454 C   0  0  0  0  0  0  0  0  0  0  0  0
   21.8058  -22.2794  -14.6536 C   0  0  0  0  0  0  0  0  0  0  0  0
   21.4401  -20.9803  -14.0038 C   0  0  0  0  0  0  0  0  0  0  0  0
   21.5637  -19.8064  -14.9257 C   0  0  2  0  0  0  0  0  0  0  0  0
   22.8727  -19.1990  -14.8791 N   0  0  0  0  0  0  0  0  0  0  0  0
   20.5648  -18.7960  -14.4512 C   0  0  0  0  0  0  0  0  0  0  0  0
   20.7988  -18.1431  -13.4083 O   0  0  0  0  0  0  0  0  0  0  0  0
   24.6053  -26.0216  -15.9302 N   0  0  0  0  0  0  0  0  0  0  0  0
   19.3556  -18.5695  -15.1707 C   0  0  1  0  0  0  0  0  0  0  0  0
   18.4278  -17.5968  -14.6906 C   0  0  0  0  0  0  0  0  0  0  0  0
   18.4332  -16.3363  -15.4698 C   0  0  0  0  0  0  0  0  0  0  0  0
   17.4777  -15.2703  -15.1330 C   0  0  0  0  0  0  0  0  0  0  0  0
   17.4504  -14.0812  -15.9760 O   0  0  0  0  0  0  0  0  0  0  0  0
   18.3762  -13.5677  -16.6331 C   0  0  0  0  0  0  0  0  0  0  0  0
   17.0721  -18.1423  -14.4541 O   0  0  0  0  0  0  0  0  0  0  0  0
   16.6418  -19.1969  -15.2472 O   0  0  0  0  0  0  0  0  0  0  0  0
   16.2064  -13.4138  -16.0655 O   0  0  0  0  0  0  0  0  0  0  0  0
  1  2  1  0
  2  3  1  0
  3  4  1  0
  5  6  1  6
  5  4  1  0
  7  5  1  0
  8  7  2  0
 10  9  1  0
 10 12  1  0
 11 10  2  0
 12 13  1  0
 13 14  1  0
 14 15  1  0
 16 15  1  1
 16 17  1  0
 17  7  1  0
 18 16  1  0
 18 19  2  0
 20 18  1  0
 21 20  1  0
 21 22  1  1
 22 23  1  0
 23 24  1  0
 24 28  1  0
 24 25  2  0
 26 21  1  0
 27 26  1  0
 29 26  2  0
M  END
$$$$
