MRE.pdb
     RDKit          3D

 29 28  0  0  1  0  0  0  0  0999 V2000
   27.4182  -18.5660  -20.0988 C   0  0  0  0  0  0  0  0  0  0  0  0
   28.8612  -18.1122  -19.1213 S   0  0  0  0  0  0  0  0  0  0  0  0
   29.2906  -19.5505  -18.0771 C   0  0  0  0  0  0  0  0  0  0  0  0
   28.0202  -19.9729  -17.3795 C   0  0  0  0  0  0  0  0  0  0  0  0
   28.2877  -21.1345  -16.4728 C   0  0  2  0  0  0  0  0  0  0  0  0
   28.6979  -22.2898  -17.1427 N   0  0  0  0  0  0  0  0  0  0  0  0
   27.1387  -21.4039  -15.5621 C   0  0  0  0  0  0  0  0  0  0  0  0
   26.2580  -22.2827  -15.8733 O   0  0  0  0  0  0  0  0  0  0  0  0
   24.8340  -21.2404   -7.2648 N   0  0  0  0  0  0  0  0  0  0  0  0
   23.5865  -21.1450   -7.9302 C   0  0  0  0  0  0  0  0  0  0  0  0
   22.5105  -21.3877   -7.2775 N   0  0  0  0  0  0  0  0  0  0  0  0
   23.5917  -20.7796   -9.2950 N   0  0  0  0  0  0  0  0  0  0  0  0
   24.8176  -20.7931  -10.0467 C   0  0  0  0  0  0  0  0  0  0  0  0
   24.5881  -20.1911  -11.4008 C   0  0  0  0  0  0  0  0  0  0  0  0
   25.8674  -20.2178  -12.1794 C   0  0  0  0  0  0  0  0  0  0  0  0
   25.7374  -20.9119  -13.5003 C   0  0  2  0  0  0  0  0  0  0  0  0
   26.9092  -20.7533  -14.3287 N   0  0  0  0  0  0  0  0  0  0  0  0
   24.5819  -20.2648  -14.2000 C   0  0  0  0  0  0  0  0  0  0  0  0
   24.7056  -19.0996  -14.6426 O   0  0  0  0  0  0  0  0  0  0  0  0
   21.5939  -21.3657   -7.7666 N   0  0  0  0  0  0  0  0  0  0  0  0
   23.3477  -20.9574  -14.3678 C   0  0  2  0  0  0  0  0  0  0  0  0
   22.2847  -20.3292  -15.0839 C   0  0  0  0  0  0  0  0  0  0  0  0
   21.2808  -21.2825  -15.6127 C   0  0  0  0  0  0  0  0  0  0  0  0
   20.1073  -20.7731  -16.3379 C   0  0  0  0  0  0  0  0  0  0  0  0
   19.1154  -21.7358  -16.8013 O   0  0  0  0  0  0  0  0  0  0  0  0
   18.0711  -21.5314  -17.4495 C   0  0  0  0  0  0  0  0  0  0  0  0
   21.6903  -19.1788  -14.3665 O   0  0  0  0  0  0  0  0  0  0  0  0
   21.1286  -18.1561  -15.1180 O   0  0  0  0  0  0  0  0  0  0  0  0
   19.3660  -23.0891  -16.4746 O   0  0  0  0  0  0  0  0  0  0  0  0
  1  2  1  0
  2  3  1  0
  3  4  1  0
  5  6  1  6
  5  4  1  0
  7  5  1  0
  8  7  2  0
 10  9  1  0
 10 12  1  0
 11 10  2  0
 12 13  1  0
 13 14  1  0
 14 15  1  0
 16 15  1  1
 16 17  1  0
 17  7  1  0
 18 16  1  0
 18 19  2  0
 20 18  1  0
 21 20  1  0
 21 22  1  6
 22 23  1  0
 23 24  1  0
 24 28  1  0
 24 25  2  0
 26 21  1  0
 27 26  1  0
 29 26  2  0
M  END
$$$$
