MRE.pdb
     RDKit          3D

 29 28  0  0  1  0  0  0  0  0999 V2000
   15.3623  -30.7418   -1.7403 C   0  0  0  0  0  0  0  0  0  0  0  0
   16.9915  -30.7904   -2.5066 S   0  0  0  0  0  0  0  0  0  0  0  0
   18.0458  -29.5800   -1.6308 C   0  0  0  0  0  0  0  0  0  0  0  0
   17.6572  -28.2154   -2.1465 C   0  0  0  0  0  0  0  0  0  0  0  0
   18.7430  -27.6610   -3.0164 C   0  0  2  0  0  0  0  0  0  0  0  0
   19.9480  -27.4430   -2.3440 N   0  0  0  0  0  0  0  0  0  0  0  0
   18.2962  -26.4457   -3.7551 C   0  0  0  0  0  0  0  0  0  0  0  0
   18.6203  -25.2776   -3.3363 O   0  0  0  0  0  0  0  0  0  0  0  0
   18.2264  -27.0545  -11.8629 N   0  0  0  0  0  0  0  0  0  0  0  0
   19.4501  -26.8957  -11.1662 C   0  0  0  0  0  0  0  0  0  0  0  0
   20.5513  -27.1401  -11.7748 N   0  0  0  0  0  0  0  0  0  0  0  0
   19.3940  -26.4680   -9.8208 N   0  0  0  0  0  0  0  0  0  0  0  0
   18.1409  -26.0767   -9.2340 C   0  0  0  0  0  0  0  0  0  0  0  0
   18.3330  -25.7880   -7.7750 C   0  0  0  0  0  0  0  0  0  0  0  0
   17.0009  -25.5321   -7.1398 C   0  0  0  0  0  0  0  0  0  0  0  0
   17.0906  -25.2826   -5.6657 C   0  0  2  0  0  0  0  0  0  0  0  0
   17.5093  -26.4515   -4.9290 N   0  0  0  0  0  0  0  0  0  0  0  0
   15.7074  -24.9215   -5.2184 C   0  0  0  0  0  0  0  0  0  0  0  0
   14.8327  -25.8149   -5.1436 O   0  0  0  0  0  0  0  0  0  0  0  0
   21.4549  -27.0152  -11.2772 N   0  0  0  0  0  0  0  0  0  0  0  0
   15.3765  -23.5778   -4.8777 C   0  0  2  0  0  0  0  0  0  0  0  0
   14.0181  -23.2420   -4.5955 C   0  0  0  0  0  0  0  0  0  0  0  0
   13.8157  -22.6773   -3.2403 C   0  0  0  0  0  0  0  0  0  0  0  0
   14.2773  -23.4295   -2.0640 C   0  0  0  0  0  0  0  0  0  0  0  0
   14.1671  -22.7944   -0.7564 O   0  0  0  0  0  0  0  0  0  0  0  0
   13.7876  -21.6408   -0.4773 C   0  0  0  0  0  0  0  0  0  0  0  0
   13.3707  -22.4548   -5.6690 O   0  0  0  0  0  0  0  0  0  0  0  0
   14.1446  -22.0619   -6.7522 O   0  0  0  0  0  0  0  0  0  0  0  0
   14.5396  -23.5902    0.3521 O   0  0  0  0  0  0  0  0  0  0  0  0
  1  2  1  0
  2  3  1  0
  3  4  1  0
  5  6  1  1
  5  4  1  0
  7  5  1  0
  8  7  2  0
 10  9  1  0
 10 12  1  0
 11 10  2  0
 12 13  1  0
 13 14  1  0
 14 15  1  0
 16 15  1  6
 16 17  1  0
 17  7  1  0
 18 16  1  0
 18 19  2  0
 20 18  1  0
 21 20  1  0
 21 22  1  1
 22 23  1  0
 23 24  1  0
 24 28  1  0
 24 25  2  0
 26 21  1  0
 27 26  1  0
 29 26  2  0
M  END
$$$$
