MRE.pdb
     RDKit          3D

 29 28  0  0  1  0  0  0  0  0999 V2000
   25.6581  -17.3737  -17.9731 C   0  0  0  0  0  0  0  0  0  0  0  0
   27.1405  -17.9096  -18.8442 S   0  0  0  0  0  0  0  0  0  0  0  0
   28.0115  -19.1000  -17.7634 C   0  0  0  0  0  0  0  0  0  0  0  0
   26.9564  -19.7599  -16.9087 C   0  0  0  0  0  0  0  0  0  0  0  0
   27.5976  -20.6402  -15.8806 C   0  0  2  0  0  0  0  0  0  0  0  0
   28.3880  -21.6566  -16.4226 N   0  0  0  0  0  0  0  0  0  0  0  0
   26.6015  -21.1751  -14.9090 C   0  0  0  0  0  0  0  0  0  0  0  0
   26.0414  -22.3103  -15.1148 O   0  0  0  0  0  0  0  0  0  0  0  0
   27.0521  -19.6720   -6.8300 N   0  0  0  0  0  0  0  0  0  0  0  0
   25.8711  -20.3154   -7.2765 C   0  0  0  0  0  0  0  0  0  0  0  0
   24.8754  -20.4183   -6.4761 N   0  0  0  0  0  0  0  0  0  0  0  0
   25.8495  -20.8142   -8.5982 N   0  0  0  0  0  0  0  0  0  0  0  0
   26.9881  -20.6411   -9.4594 C   0  0  0  0  0  0  0  0  0  0  0  0
   26.7009  -21.2379  -10.8048 C   0  0  0  0  0  0  0  0  0  0  0  0
   25.4793  -20.5928  -11.3837 C   0  0  0  0  0  0  0  0  0  0  0  0
   25.2029  -21.0161  -12.7935 C   0  0  2  0  0  0  0  0  0  0  0  0
   26.1895  -20.5227  -13.7250 N   0  0  0  0  0  0  0  0  0  0  0  0
   23.8791  -20.4170  -13.1573 C   0  0  0  0  0  0  0  0  0  0  0  0
   23.7655  -19.1715  -13.2244 O   0  0  0  0  0  0  0  0  0  0  0  0
   24.0009  -20.8790   -6.7966 N   0  0  0  0  0  0  0  0  0  0  0  0
   22.7512  -21.2452  -13.4277 C   0  0  2  0  0  0  0  0  0  0  0  0
   21.5291  -20.6448  -13.8559 C   0  0  0  0  0  0  0  0  0  0  0  0
   21.1973  -20.9206  -15.2736 C   0  0  0  0  0  0  0  0  0  0  0  0
   19.9430  -20.4021  -15.8399 C   0  0  0  0  0  0  0  0  0  0  0  0
   19.6062  -20.7668  -17.2106 O   0  0  0  0  0  0  0  0  0  0  0  0
   20.2416  -21.4839  -18.0072 C   0  0  0  0  0  0  0  0  0  0  0  0
   20.4008  -20.8782  -12.9263 O   0  0  0  0  0  0  0  0  0  0  0  0
   19.2737  -20.0775  -13.0485 O   0  0  0  0  0  0  0  0  0  0  0  0
   18.3935  -20.2385  -17.7119 O   0  0  0  0  0  0  0  0  0  0  0  0
  1  2  1  0
  2  3  1  0
  3  4  1  0
  5  6  1  6
  5  4  1  0
  7  5  1  0
  8  7  2  0
 10  9  1  0
 10 12  1  0
 11 10  2  0
 12 13  1  0
 13 14  1  0
 14 15  1  0
 16 15  1  1
 16 17  1  0
 17  7  1  0
 18 16  1  0
 18 19  2  0
 20 18  1  0
 21 20  1  0
 21 22  1  1
 22 23  1  0
 23 24  1  0
 24 28  1  0
 24 25  2  0
 26 21  1  0
 27 26  1  0
 29 26  2  0
M  END
$$$$
