MRE.pdb
     RDKit          3D

 29 28  0  0  1  0  0  0  0  0999 V2000
   20.8745  -17.5577  -21.2201 C   0  0  0  0  0  0  0  0  0  0  0  0
   21.4268  -15.8896  -20.8251 S   0  0  0  0  0  0  0  0  0  0  0  0
   21.3055  -15.6867  -19.0119 C   0  0  0  0  0  0  0  0  0  0  0  0
   21.1455  -17.0713  -18.4317 C   0  0  0  0  0  0  0  0  0  0  0  0
   20.9416  -16.9926  -16.9501 C   0  0  2  0  0  0  0  0  0  0  0  0
   21.9312  -16.2667  -16.2827 N   0  0  0  0  0  0  0  0  0  0  0  0
   20.7437  -18.3404  -16.3448 C   0  0  0  0  0  0  0  0  0  0  0  0
   19.8533  -19.1361  -16.8128 O   0  0  0  0  0  0  0  0  0  0  0  0
   24.4719  -24.7048  -13.8221 N   0  0  0  0  0  0  0  0  0  0  0  0
   24.7309  -24.1027  -15.0786 C   0  0  0  0  0  0  0  0  0  0  0  0
   24.9794  -24.8502  -16.0897 N   0  0  0  0  0  0  0  0  0  0  0  0
   24.6987  -22.6923  -15.1549 N   0  0  0  0  0  0  0  0  0  0  0  0
   24.3069  -21.9112  -14.0128 C   0  0  0  0  0  0  0  0  0  0  0  0
   22.8125  -21.9116  -13.8874 C   0  0  0  0  0  0  0  0  0  0  0  0
   22.3325  -20.5104  -13.6643 C   0  0  0  0  0  0  0  0  0  0  0  0
   21.2236  -20.1144  -14.5900 C   0  0  2  0  0  0  0  0  0  0  0  0
   21.4741  -18.8548  -15.2498 N   0  0  0  0  0  0  0  0  0  0  0  0
   20.0030  -19.9577  -13.7361 C   0  0  0  0  0  0  0  0  0  0  0  0
   19.9639  -19.0429  -12.8814 O   0  0  0  0  0  0  0  0  0  0  0  0
   25.1004  -24.4238  -17.0295 N   0  0  0  0  0  0  0  0  0  0  0  0
   18.8890  -20.8341  -13.8849 C   0  0  2  0  0  0  0  0  0  0  0  0
   17.7552  -20.6751  -13.0325 C   0  0  0  0  0  0  0  0  0  0  0  0
   16.5491  -20.1781  -13.7359 C   0  0  0  0  0  0  0  0  0  0  0  0
   15.3221  -19.9089  -12.9714 C   0  0  0  0  0  0  0  0  0  0  0  0
   14.1131  -19.5681  -13.7113 O   0  0  0  0  0  0  0  0  0  0  0  0
   13.8952  -19.6549  -14.9351 C   0  0  0  0  0  0  0  0  0  0  0  0
   17.4970  -21.8505  -12.1704 O   0  0  0  0  0  0  0  0  0  0  0  0
   16.7433  -21.6671  -11.0195 O   0  0  0  0  0  0  0  0  0  0  0  0
   13.0354  -19.0707  -12.9418 O   0  0  0  0  0  0  0  0  0  0  0  0
  1  2  1  0
  2  3  1  0
  3  4  1  0
  5  6  1  1
  5  4  1  0
  7  5  1  0
  8  7  2  0
 10  9  1  0
 10 12  1  0
 11 10  2  0
 12 13  1  0
 13 14  1  0
 14 15  1  0
 16 15  1  1
 16 17  1  0
 17  7  1  0
 18 16  1  0
 18 19  2  0
 20 18  1  0
 21 20  1  0
 21 22  1  6
 22 23  1  0
 23 24  1  0
 24 28  1  0
 24 25  2  0
 26 21  1  0
 27 26  1  0
 29 26  2  0
M  END
$$$$
