MRE.pdb
     RDKit          3D

 29 28  0  0  1  0  0  0  0  0999 V2000
   16.2278  -10.2165  -22.6996 C   0  0  0  0  0  0  0  0  0  0  0  0
   15.2380  -11.5490  -22.0007 S   0  0  0  0  0  0  0  0  0  0  0  0
   16.3939  -12.8173  -21.3688 C   0  0  0  0  0  0  0  0  0  0  0  0
   17.0441  -12.2344  -20.1373 C   0  0  0  0  0  0  0  0  0  0  0  0
   18.0594  -13.1875  -19.5863 C   0  0  2  0  0  0  0  0  0  0  0  0
   17.5218  -14.4115  -19.1807 N   0  0  0  0  0  0  0  0  0  0  0  0
   18.8808  -12.5626  -18.5106 C   0  0  0  0  0  0  0  0  0  0  0  0
   18.4249  -12.4768  -17.3149 O   0  0  0  0  0  0  0  0  0  0  0  0
   27.3736  -13.1327  -17.1479 N   0  0  0  0  0  0  0  0  0  0  0  0
   26.5506  -13.4561  -16.0406 C   0  0  0  0  0  0  0  0  0  0  0  0
   27.0063  -14.2346  -15.1302 N   0  0  0  0  0  0  0  0  0  0  0  0
   25.2548  -12.8947  -15.9939 N   0  0  0  0  0  0  0  0  0  0  0  0
   24.7906  -12.0479  -17.0594 C   0  0  0  0  0  0  0  0  0  0  0  0
   23.4012  -11.5706  -16.7582 C   0  0  0  0  0  0  0  0  0  0  0  0
   22.4826  -11.9852  -17.8664 C   0  0  0  0  0  0  0  0  0  0  0  0
   21.0570  -11.5941  -17.6257 C   0  0  2  0  0  0  0  0  0  0  0  0
   20.1763  -12.0256  -18.6853 N   0  0  0  0  0  0  0  0  0  0  0  0
   21.0362  -10.0969  -17.5842 C   0  0  0  0  0  0  0  0  0  0  0  0
   21.2431   -9.4498  -18.6364 O   0  0  0  0  0  0  0  0  0  0  0  0
   26.4065  -14.4892  -14.3208 N   0  0  0  0  0  0  0  0  0  0  0  0
   20.7839   -9.4027  -16.3654 C   0  0  2  0  0  0  0  0  0  0  0  0
   20.7598   -7.9754  -16.3654 C   0  0  0  0  0  0  0  0  0  0  0  0
   19.5292   -7.4028  -15.7706 C   0  0  0  0  0  0  0  0  0  0  0  0
   19.3796   -5.9429  -15.6765 C   0  0  0  0  0  0  0  0  0  0  0  0
   18.1499   -5.4145  -15.0987 O   0  0  0  0  0  0  0  0  0  0  0  0
   17.1928   -6.0346  -14.5966 C   0  0  0  0  0  0  0  0  0  0  0  0
   22.0067   -7.3653  -15.8513 O   0  0  0  0  0  0  0  0  0  0  0  0
   22.2924   -6.0552  -16.2097 O   0  0  0  0  0  0  0  0  0  0  0  0
   18.0178   -4.0061  -15.1050 O   0  0  0  0  0  0  0  0  0  0  0  0
  1  2  1  0
  2  3  1  0
  3  4  1  0
  5  6  1  1
  5  4  1  0
  7  5  1  0
  8  7  2  0
 10  9  1  0
 10 12  1  0
 11 10  2  0
 12 13  1  0
 13 14  1  0
 14 15  1  0
 16 15  1  6
 16 17  1  0
 17  7  1  0
 18 16  1  0
 18 19  2  0
 20 18  1  0
 21 20  1  0
 21 22  1  1
 22 23  1  0
 23 24  1  0
 24 28  1  0
 24 25  2  0
 26 21  1  0
 27 26  1  0
 29 26  2  0
M  END
$$$$
