RAT.pdb
     RDKit          3D

 24 23  0  0  1  0  0  0  0  0999 V2000
    6.9060  -14.6389   15.3118 N   0  0  0  0  0  0  0  0  0  0  0  0
    7.8552  -13.6844   15.7362 C   0  0  0  0  0  0  0  0  0  0  0  0
    8.2731  -12.7577   14.9410 N   0  0  0  0  0  0  0  0  0  0  0  0
    8.3705  -13.7361   17.0757 N   0  0  0  0  0  0  0  0  0  0  0  0
    7.8073  -14.7507   17.9598 C   0  0  0  0  0  0  0  0  0  0  0  0
    7.2844  -14.1266   19.2331 C   0  0  0  0  0  0  0  0  0  0  0  0
    8.2518  -14.2754   20.3806 C   0  0  0  0  0  0  0  0  0  0  0  0
    8.7134  -15.7074   20.5518 C   0  0  2  0  0  0  0  0  0  0  0  0
    7.7950  -16.6188   19.8896 N   0  0  0  0  0  0  0  0  0  0  0  0
    8.7587  -16.0127   21.9975 C   0  0  0  0  0  0  0  0  0  0  0  0
    7.6923  -16.1954   22.6111 O   0  0  0  0  0  0  0  0  0  0  0  0
    9.0114  -12.0888   15.2497 C   0  0  0  0  0  0  0  0  0  0  0  0
   11.2052  -17.4291   24.3876 C   0  0  1  0  0  0  0  0  0  0  0  0
   10.0566  -16.4768   24.1237 N   0  0  0  0  0  0  0  0  0  0  0  0
    9.9673  -16.1104   22.7359 C   0  0  0  0  0  0  0  0  0  0  0  0
   10.1564  -15.3169   25.0217 O   0  0  0  0  0  0  0  0  0  0  0  0
   11.0267  -14.4224   24.8001 C   0  0  0  0  0  0  0  0  0  0  0  0
    7.8107  -12.4042   25.8261 C   0  0  2  0  0  0  0  0  0  0  0  0
    8.0673  -13.2158   27.0559 O   0  0  0  0  0  0  0  0  0  0  0  0
    7.0422  -14.1454   27.2886 C   0  0  2  0  0  0  0  0  0  0  0  0
    9.4137  -13.9289   26.9915 N   0  0  0  0  0  0  0  0  0  0  0  0
    9.3275  -15.1178   26.1506 C   0  0  0  0  0  0  0  0  0  0  0  0
    9.7749  -14.4258   28.3595 O   0  0  0  0  0  0  0  0  0  0  0  0
   10.0755  -13.5410   29.3988 O   0  0  0  0  0  0  0  0  0  0  0  0
  1  2  1  0
  2  3  2  0
  4  5  1  0
  4  2  1  0
  6  7  1  0
  6  5  1  0
  7  8  1  0
  8  9  1  6
  8 10  1  0
 10 11  2  0
 13 12  1  6
 14 10  1  0
 14 13  1  0
 15 13  1  0
 15 16  2  0
 18 17  1  1
 18 20  1  0
 19 18  1  0
 20 21  1  1
 21 15  1  0
 22 20  1  0
 23 22  1  0
 24 22  2  0
M  END
$$$$
