RAT.pdb
     RDKit          3D

 24 23  0  0  1  0  0  0  0  0999 V2000
    8.8703  -15.0338   18.3532 N   0  0  0  0  0  0  0  0  0  0  0  0
    8.1441  -13.8256   18.2850 C   0  0  0  0  0  0  0  0  0  0  0  0
    7.9974  -13.1957   17.1680 N   0  0  0  0  0  0  0  0  0  0  0  0
    7.5526  -13.2795   19.4743 N   0  0  0  0  0  0  0  0  0  0  0  0
    7.8061  -13.9906   20.7227 C   0  0  0  0  0  0  0  0  0  0  0  0
    6.7183  -15.0033   20.9972 C   0  0  0  0  0  0  0  0  0  0  0  0
    7.2763  -16.3658   21.3240 C   0  0  0  0  0  0  0  0  0  0  0  0
    6.1820  -17.3830   21.5703 C   0  0  2  0  0  0  0  0  0  0  0  0
    4.8745  -16.7568   21.4662 N   0  0  0  0  0  0  0  0  0  0  0  0
    6.3591  -17.9383   22.9289 C   0  0  0  0  0  0  0  0  0  0  0  0
    5.9994  -17.2635   23.9100 O   0  0  0  0  0  0  0  0  0  0  0  0
    7.4966  -12.2813   17.1380 C   0  0  0  0  0  0  0  0  0  0  0  0
    7.2415  -21.2321   24.5354 C   0  0  1  0  0  0  0  0  0  0  0  0
    7.2758  -19.7182   24.4822 N   0  0  0  0  0  0  0  0  0  0  0  0
    6.9245  -19.2158   23.1812 C   0  0  0  0  0  0  0  0  0  0  0  0
    8.5808  -19.2337   24.9551 O   0  0  0  0  0  0  0  0  0  0  0  0
    8.9922  -19.5584   26.1092 C   0  0  0  0  0  0  0  0  0  0  0  0
   12.0575  -19.4125   23.0103 C   0  0  2  0  0  0  0  0  0  0  0  0
   11.7579  -18.0256   23.4834 O   0  0  0  0  0  0  0  0  0  0  0  0
   11.2736  -17.2154   22.4450 C   0  0  2  0  0  0  0  0  0  0  0  0
   10.7731  -18.0261   24.6477 N   0  0  0  0  0  0  0  0  0  0  0  0
    9.4395  -18.4058   24.1943 C   0  0  0  0  0  0  0  0  0  0  0  0
   10.6377  -16.6308   25.1802 O   0  0  0  0  0  0  0  0  0  0  0  0
   11.6888  -16.0053   25.8564 O   0  0  0  0  0  0  0  0  0  0  0  0
  1  2  1  0
  2  3  2  0
  4  5  1  0
  4  2  1  0
  6  7  1  0
  6  5  1  0
  7  8  1  0
  8  9  1  1
  8 10  1  0
 10 11  2  0
 13 12  1  1
 14 10  1  0
 14 13  1  0
 15 13  1  0
 15 16  2  0
 18 17  1  6
 18 20  1  0
 19 18  1  0
 20 21  1  1
 21 15  1  0
 22 20  1  0
 23 22  1  0
 24 22  2  0
M  END
$$$$
