RAT.pdb
     RDKit          3D

 24 23  0  0  1  0  0  0  0  0999 V2000
    8.9182  -15.2970   16.5491 N   0  0  0  0  0  0  0  0  0  0  0  0
    8.5318  -13.9602   16.3135 C   0  0  0  0  0  0  0  0  0  0  0  0
    8.3049  -13.5306   15.1178 N   0  0  0  0  0  0  0  0  0  0  0  0
    8.3846  -13.0539   17.4178 N   0  0  0  0  0  0  0  0  0  0  0  0
    7.3249  -13.3493   18.3760 C   0  0  0  0  0  0  0  0  0  0  0  0
    7.4173  -14.7784   18.8590 C   0  0  0  0  0  0  0  0  0  0  0  0
    7.8134  -14.8651   20.3117 C   0  0  0  0  0  0  0  0  0  0  0  0
    7.8011  -16.2918   20.8191 C   0  0  2  0  0  0  0  0  0  0  0  0
    6.5752  -16.9620   20.4185 N   0  0  0  0  0  0  0  0  0  0  0  0
    7.8909  -16.2626   22.2944 C   0  0  0  0  0  0  0  0  0  0  0  0
    6.8668  -16.0228   22.9583 O   0  0  0  0  0  0  0  0  0  0  0  0
    7.9858  -12.5503   14.9593 C   0  0  0  0  0  0  0  0  0  0  0  0
   10.5043  -17.1534   24.9002 C   0  0  1  0  0  0  0  0  0  0  0  0
    9.2196  -16.4953   24.4395 N   0  0  0  0  0  0  0  0  0  0  0  0
    9.0967  -16.4957   23.0066 C   0  0  0  0  0  0  0  0  0  0  0  0
    9.1105  -15.1523   25.0278 O   0  0  0  0  0  0  0  0  0  0  0  0
    9.7473  -14.1855   24.5117 C   0  0  0  0  0  0  0  0  0  0  0  0
    6.6341  -12.4390   25.1680 C   0  0  2  0  0  0  0  0  0  0  0  0
    6.8624  -12.9171   26.5667 O   0  0  0  0  0  0  0  0  0  0  0  0
    5.8910  -13.8493   26.9626 C   0  0  2  0  0  0  0  0  0  0  0  0
    8.2565  -13.5104   26.7405 N   0  0  0  0  0  0  0  0  0  0  0  0
    8.3228  -14.8484   26.1629 C   0  0  0  0  0  0  0  0  0  0  0  0
    8.5392  -13.6861   28.2027 O   0  0  0  0  0  0  0  0  0  0  0  0
    8.6455  -12.5875   29.0600 O   0  0  0  0  0  0  0  0  0  0  0  0
  1  2  1  0
  2  3  2  0
  4  5  1  0
  4  2  1  0
  6  7  1  0
  6  5  1  0
  7  8  1  0
  8  9  1  1
  8 10  1  0
 10 11  2  0
 13 12  1  1
 14 10  1  0
 14 13  1  0
 15 13  1  0
 15 16  2  0
 18 17  1  1
 18 20  1  0
 19 18  1  0
 20 21  1  1
 21 15  1  0
 22 20  1  0
 23 22  1  0
 24 22  2  0
M  END
$$$$
