RAT.pdb
     RDKit          3D

 24 23  0  0  1  0  0  0  0  0999 V2000
    8.1780  -12.7854   15.8536 N   0  0  0  0  0  0  0  0  0  0  0  0
    8.0198  -14.1750   15.6639 C   0  0  0  0  0  0  0  0  0  0  0  0
    8.3860  -14.7459   14.5658 N   0  0  0  0  0  0  0  0  0  0  0  0
    7.4430  -14.9772   16.7061 N   0  0  0  0  0  0  0  0  0  0  0  0
    7.1842  -14.3155   17.9803 C   0  0  0  0  0  0  0  0  0  0  0  0
    8.0761  -14.8701   19.0671 C   0  0  0  0  0  0  0  0  0  0  0  0
    7.8011  -14.2382   20.4087 C   0  0  0  0  0  0  0  0  0  0  0  0
    8.6953  -14.7994   21.4943 C   0  0  2  0  0  0  0  0  0  0  0  0
    9.1459  -16.1351   21.1401 N   0  0  0  0  0  0  0  0  0  0  0  0
    7.9218  -14.8544   22.7529 C   0  0  0  0  0  0  0  0  0  0  0  0
    7.3950  -13.8139   23.1854 O   0  0  0  0  0  0  0  0  0  0  0  0
    8.3596  -15.7846   14.4751 C   0  0  0  0  0  0  0  0  0  0  0  0
    6.7492  -17.5421   25.1702 C   0  0  2  0  0  0  0  0  0  0  0  0
    7.0949  -16.1171   24.7883 N   0  0  0  0  0  0  0  0  0  0  0  0
    7.7437  -16.0441   23.5069 C   0  0  0  0  0  0  0  0  0  0  0  0
    7.8728  -15.4886   25.8659 O   0  0  0  0  0  0  0  0  0  0  0  0
    7.2895  -14.7498   26.7148 C   0  0  0  0  0  0  0  0  0  0  0  0
    8.3469  -14.0085   28.5178 C   0  0  2  0  0  0  0  0  0  0  0  0
    9.5876  -14.8200   28.3192 O   0  0  0  0  0  0  0  0  0  0  0  0
    9.4067  -16.1527   28.7195 C   0  0  2  0  0  0  0  0  0  0  0  0
   10.0700  -14.7701   26.8734 N   0  0  0  0  0  0  0  0  0  0  0  0
    9.2682  -15.6519   26.0320 C   0  0  0  0  0  0  0  0  0  0  0  0
   11.4694  -15.3040   26.8014 O   0  0  0  0  0  0  0  0  0  0  0  0
   11.7719  -16.4553   26.0691 O   0  0  0  0  0  0  0  0  0  0  0  0
  1  2  1  0
  2  3  2  0
  4  5  1  0
  4  2  1  0
  6  7  1  0
  6  5  1  0
  7  8  1  0
  8  9  1  6
  8 10  1  0
 10 11  2  0
 13 12  1  6
 14 10  1  0
 14 13  1  0
 15 13  1  0
 15 16  2  0
 18 17  1  1
 18 20  1  0
 19 18  1  0
 20 21  1  1
 21 15  1  0
 22 20  1  0
 23 22  1  0
 24 22  2  0
M  END
$$$$
