RAT.pdb
     RDKit          3D

 24 23  0  0  1  0  0  0  0  0999 V2000
    6.5803  -17.2943   11.9506 N   0  0  0  0  0  0  0  0  0  0  0  0
    6.8943  -18.5716   12.4621 C   0  0  0  0  0  0  0  0  0  0  0  0
    6.6502  -19.6421   11.7837 N   0  0  0  0  0  0  0  0  0  0  0  0
    7.4978  -18.6930   13.7597 N   0  0  0  0  0  0  0  0  0  0  0  0
    7.9700  -17.4622   14.3846 C   0  0  0  0  0  0  0  0  0  0  0  0
    7.0893  -17.0769   15.5507 C   0  0  0  0  0  0  0  0  0  0  0  0
    7.8884  -16.7697   16.7923 C   0  0  0  0  0  0  0  0  0  0  0  0
    8.6689  -15.4789   16.6600 C   0  0  2  0  0  0  0  0  0  0  0  0
    9.8391  -15.6774   15.8211 N   0  0  0  0  0  0  0  0  0  0  0  0
    9.0933  -15.0504   18.0097 C   0  0  0  0  0  0  0  0  0  0  0  0
   10.0697  -15.6075   18.5422 O   0  0  0  0  0  0  0  0  0  0  0  0
    6.9260  -20.5775   12.1536 C   0  0  0  0  0  0  0  0  0  0  0  0
    7.9622  -12.4329   20.5420 C   0  0  1  0  0  0  0  0  0  0  0  0
    8.8221  -13.5825   20.0572 N   0  0  0  0  0  0  0  0  0  0  0  0
    8.4407  -14.0249   18.7431 C   0  0  0  0  0  0  0  0  0  0  0  0
    8.8157  -14.6628   21.0545 O   0  0  0  0  0  0  0  0  0  0  0  0
    7.7128  -15.1309   21.4683 C   0  0  0  0  0  0  0  0  0  0  0  0
    9.0713  -18.0854   21.0981 C   0  0  2  0  0  0  0  0  0  0  0  0
   10.2083  -17.6547   21.9692 O   0  0  0  0  0  0  0  0  0  0  0  0
   11.4218  -17.6287   21.2651 C   0  0  2  0  0  0  0  0  0  0  0  0
    9.9466  -16.2952   22.6086 N   0  0  0  0  0  0  0  0  0  0  0  0
    9.9855  -15.2375   21.6045 C   0  0  0  0  0  0  0  0  0  0  0  0
   11.0531  -15.9811   23.5707 O   0  0  0  0  0  0  0  0  0  0  0  0
   11.2139  -16.7047   24.7555 O   0  0  0  0  0  0  0  0  0  0  0  0
  1  2  1  0
  2  3  2  0
  4  5  1  0
  4  2  1  0
  6  7  1  0
  6  5  1  0
  7  8  1  0
  8  9  1  6
  8 10  1  0
 10 11  2  0
 13 12  1  6
 14 10  1  0
 14 13  1  0
 15 13  1  0
 15 16  2  0
 18 17  1  1
 18 20  1  0
 19 18  1  0
 20 21  1  1
 21 15  1  0
 22 20  1  0
 23 22  1  0
 24 22  2  0
M  END
$$$$
