RAT.pdb
     RDKit          3D

 24 23  0  0  1  0  0  0  0  0999 V2000
    8.2584  -12.6747   17.5787 N   0  0  0  0  0  0  0  0  0  0  0  0
    8.3228  -13.8583   16.8126 C   0  0  0  0  0  0  0  0  0  0  0  0
    8.5474  -13.8211   15.5422 N   0  0  0  0  0  0  0  0  0  0  0  0
    8.1374  -15.1323   17.4492 N   0  0  0  0  0  0  0  0  0  0  0  0
    7.6196  -15.1184   18.8130 C   0  0  0  0  0  0  0  0  0  0  0  0
    8.5064  -14.2950   19.7184 C   0  0  0  0  0  0  0  0  0  0  0  0
    9.6420  -15.1036   20.2940 C   0  0  0  0  0  0  0  0  0  0  0  0
    9.1740  -16.0411   21.3871 C   0  0  2  0  0  0  0  0  0  0  0  0
    7.8329  -16.5234   21.1020 N   0  0  0  0  0  0  0  0  0  0  0  0
    9.1732  -15.3012   22.6669 C   0  0  0  0  0  0  0  0  0  0  0  0
   10.2456  -14.8470   23.1039 O   0  0  0  0  0  0  0  0  0  0  0  0
    8.6519  -14.7043   14.9972 C   0  0  0  0  0  0  0  0  0  0  0  0
    6.7050  -13.6822   24.9775 C   0  0  2  0  0  0  0  0  0  0  0  0
    7.9771  -14.4707   24.7406 N   0  0  0  0  0  0  0  0  0  0  0  0
    8.0016  -15.0763   23.4365 C   0  0  0  0  0  0  0  0  0  0  0  0
    8.1722  -15.4382   25.8303 O   0  0  0  0  0  0  0  0  0  0  0  0
    8.1103  -15.0500   27.0353 C   0  0  0  0  0  0  0  0  0  0  0  0
    6.4745  -19.0210   26.3220 C   0  0  2  0  0  0  0  0  0  0  0  0
    7.9667  -19.1026   26.3842 O   0  0  0  0  0  0  0  0  0  0  0  0
    8.5110  -19.5907   25.1866 C   0  0  2  0  0  0  0  0  0  0  0  0
    8.5922  -17.7557   26.7311 N   0  0  0  0  0  0  0  0  0  0  0  0
    8.4322  -16.8141   25.6284 C   0  0  0  0  0  0  0  0  0  0  0  0
   10.0716  -17.9287   26.9044 O   0  0  0  0  0  0  0  0  0  0  0  0
   10.5963  -18.7130   27.9353 O   0  0  0  0  0  0  0  0  0  0  0  0
  1  2  1  0
  2  3  2  0
  4  5  1  0
  4  2  1  0
  6  7  1  0
  6  5  1  0
  7  8  1  0
  8  9  1  6
  8 10  1  0
 10 11  2  0
 13 12  1  6
 14 10  1  0
 14 13  1  0
 15 13  1  0
 15 16  2  0
 18 17  1  1
 18 20  1  0
 19 18  1  0
 20 21  1  1
 21 15  1  0
 22 20  1  0
 23 22  1  0
 24 22  2  0
M  END
$$$$
