RAT.pdb
     RDKit          3D

 24 23  0  0  1  0  0  0  0  0999 V2000
    7.7744  -13.9112   16.1159 N   0  0  0  0  0  0  0  0  0  0  0  0
    9.0269  -13.9503   16.7652 C   0  0  0  0  0  0  0  0  0  0  0  0
   10.0322  -14.5682   16.2423 N   0  0  0  0  0  0  0  0  0  0  0  0
    9.1963  -13.2927   18.0307 N   0  0  0  0  0  0  0  0  0  0  0  0
    7.9837  -12.8543   18.7131 C   0  0  0  0  0  0  0  0  0  0  0  0
    7.5165  -13.8949   19.7047 C   0  0  0  0  0  0  0  0  0  0  0  0
    8.5020  -14.0951   20.8286 C   0  0  0  0  0  0  0  0  0  0  0  0
    8.0476  -15.1661   21.7978 C   0  0  2  0  0  0  0  0  0  0  0  0
    6.5999  -15.2926   21.7717 N   0  0  0  0  0  0  0  0  0  0  0  0
    8.4874  -14.7825   23.1561 C   0  0  0  0  0  0  0  0  0  0  0  0
    9.6695  -14.9815   23.4880 O   0  0  0  0  0  0  0  0  0  0  0  0
   10.9526  -14.5906   16.7323 C   0  0  0  0  0  0  0  0  0  0  0  0
    6.9891  -12.8872   26.0898 C   0  0  2  0  0  0  0  0  0  0  0  0
    8.0206  -13.7859   25.4385 N   0  0  0  0  0  0  0  0  0  0  0  0
    7.6252  -14.1917   24.1167 C   0  0  0  0  0  0  0  0  0  0  0  0
    8.3221  -14.9198   26.3245 O   0  0  0  0  0  0  0  0  0  0  0  0
    7.4035  -15.7347   26.6387 C   0  0  0  0  0  0  0  0  0  0  0  0
   10.7222  -17.8391   26.0576 C   0  0  2  0  0  0  0  0  0  0  0  0
   11.0320  -17.1187   27.3313 O   0  0  0  0  0  0  0  0  0  0  0  0
   12.1801  -16.3209   27.2113 C   0  0  2  0  0  0  0  0  0  0  0  0
    9.8546  -16.2715   27.8020 N   0  0  0  0  0  0  0  0  0  0  0  0
    9.6015  -15.1780   26.8701 C   0  0  0  0  0  0  0  0  0  0  0  0
   10.2060  -15.6193   29.1058 O   0  0  0  0  0  0  0  0  0  0  0  0
   10.4381  -16.3756   30.2580 O   0  0  0  0  0  0  0  0  0  0  0  0
  1  2  1  0
  2  3  2  0
  4  5  1  0
  4  2  1  0
  6  7  1  0
  6  5  1  0
  7  8  1  0
  8  9  1  1
  8 10  1  0
 10 11  2  0
 13 12  1  6
 14 10  1  0
 14 13  1  0
 15 13  1  0
 15 16  2  0
 18 17  1  1
 18 20  1  0
 19 18  1  0
 20 21  1  1
 21 15  1  0
 22 20  1  0
 23 22  1  0
 24 22  2  0
M  END
$$$$
