RAT.pdb
     RDKit          3D

 24 23  0  0  1  0  0  0  0  0999 V2000
    8.2452  -12.6706   15.3484 N   0  0  0  0  0  0  0  0  0  0  0  0
    8.1735  -13.8355   16.1420 C   0  0  0  0  0  0  0  0  0  0  0  0
    8.9435  -14.8465   15.9168 N   0  0  0  0  0  0  0  0  0  0  0  0
    7.2307  -13.9065   17.2231 N   0  0  0  0  0  0  0  0  0  0  0  0
    7.7359  -13.6083   18.5588 C   0  0  0  0  0  0  0  0  0  0  0  0
    8.4956  -14.7864   19.1237 C   0  0  0  0  0  0  0  0  0  0  0  0
    9.0079  -14.5200   20.5169 C   0  0  0  0  0  0  0  0  0  0  0  0
    8.2360  -15.2957   21.5635 C   0  0  2  0  0  0  0  0  0  0  0  0
    6.8083  -15.2164   21.3031 N   0  0  0  0  0  0  0  0  0  0  0  0
    8.5315  -14.7114   22.8889 C   0  0  0  0  0  0  0  0  0  0  0  0
    9.7169  -14.5882   23.2452 O   0  0  0  0  0  0  0  0  0  0  0  0
    8.9611  -15.6553   16.5752 C   0  0  0  0  0  0  0  0  0  0  0  0
    6.5222  -13.2622   25.7820 C   0  0  2  0  0  0  0  0  0  0  0  0
    7.7585  -13.8691   25.1502 N   0  0  0  0  0  0  0  0  0  0  0  0
    7.5252  -14.2767   23.7910 C   0  0  0  0  0  0  0  0  0  0  0  0
    8.2681  -14.9558   25.9994 O   0  0  0  0  0  0  0  0  0  0  0  0
    7.5924  -16.0199   26.1329 C   0  0  0  0  0  0  0  0  0  0  0  0
   12.3122  -15.0735   27.0517 C   0  0  2  0  0  0  0  0  0  0  0  0
   11.4788  -16.3146   27.0070 O   0  0  0  0  0  0  0  0  0  0  0  0
   12.0258  -17.3370   27.7973 C   0  0  1  0  0  0  0  0  0  0  0  0
   10.0384  -16.0434   27.4282 N   0  0  0  0  0  0  0  0  0  0  0  0
    9.4953  -14.9013   26.7010 C   0  0  0  0  0  0  0  0  0  0  0  0
   10.0130  -15.6513   28.8754 O   0  0  0  0  0  0  0  0  0  0  0  0
   10.3429  -16.5632   29.8819 O   0  0  0  0  0  0  0  0  0  0  0  0
  1  2  1  0
  2  3  2  0
  4  5  1  0
  4  2  1  0
  6  7  1  0
  6  5  1  0
  7  8  1  0
  8  9  1  6
  8 10  1  0
 10 11  2  0
 13 12  1  6
 14 10  1  0
 14 13  1  0
 15 13  1  0
 15 16  2  0
 18 17  1  6
 18 20  1  0
 19 18  1  0
 20 21  1  6
 21 15  1  0
 22 20  1  0
 23 22  1  0
 24 22  2  0
M  END
$$$$
