RAT.pdb
     RDKit          3D

 24 23  0  0  1  0  0  0  0  0999 V2000
    9.8485  -12.9205   18.9771 N   0  0  0  0  0  0  0  0  0  0  0  0
    8.8463  -13.4647   18.1456 C   0  0  0  0  0  0  0  0  0  0  0  0
    9.0091  -13.5462   16.8678 N   0  0  0  0  0  0  0  0  0  0  0  0
    7.6200  -13.9402   18.7223 N   0  0  0  0  0  0  0  0  0  0  0  0
    7.4137  -13.6763   20.1422 C   0  0  0  0  0  0  0  0  0  0  0  0
    6.7977  -14.8732   20.8294 C   0  0  0  0  0  0  0  0  0  0  0  0
    7.6162  -16.1253   20.6373 C   0  0  0  0  0  0  0  0  0  0  0  0
    7.0245  -17.3088   21.3736 C   0  0  2  0  0  0  0  0  0  0  0  0
    5.7150  -17.6377   20.8356 N   0  0  0  0  0  0  0  0  0  0  0  0
    6.8982  -16.9526   22.8028 C   0  0  0  0  0  0  0  0  0  0  0  0
    5.9188  -16.2822   23.1750 O   0  0  0  0  0  0  0  0  0  0  0  0
    8.2677  -13.9652   16.2656 C   0  0  0  0  0  0  0  0  0  0  0  0
    8.3202  -18.2019   26.0305 C   0  0  1  0  0  0  0  0  0  0  0  0
    7.7098  -17.0918   25.1992 N   0  0  0  0  0  0  0  0  0  0  0  0
    7.8444  -17.3375   23.7886 C   0  0  0  0  0  0  0  0  0  0  0  0
    8.2662  -15.7961   25.6152 O   0  0  0  0  0  0  0  0  0  0  0  0
    9.3606  -15.3926   25.1191 C   0  0  0  0  0  0  0  0  0  0  0  0
    6.6285  -12.0827   25.9284 C   0  0  2  0  0  0  0  0  0  0  0  0
    7.1678  -12.6232   27.2145 O   0  0  0  0  0  0  0  0  0  0  0  0
    6.1507  -13.1533   28.0229 C   0  0  2  0  0  0  0  0  0  0  0  0
    8.2471  -13.6741   26.9774 N   0  0  0  0  0  0  0  0  0  0  0  0
    7.6521  -14.9382   26.5577 C   0  0  0  0  0  0  0  0  0  0  0  0
    8.9453  -13.9654   28.2721 O   0  0  0  0  0  0  0  0  0  0  0  0
    8.9291  -15.2443   28.8355 O   0  0  0  0  0  0  0  0  0  0  0  0
  1  2  1  0
  2  3  2  0
  4  5  1  0
  4  2  1  0
  6  7  1  0
  6  5  1  0
  7  8  1  0
  8  9  1  6
  8 10  1  0
 10 11  2  0
 13 12  1  1
 14 10  1  0
 14 13  1  0
 15 13  1  0
 15 16  2  0
 18 17  1  1
 18 20  1  0
 19 18  1  0
 20 21  1  1
 21 15  1  0
 22 20  1  0
 23 22  1  0
 24 22  2  0
M  END
$$$$
