RAT.pdb
     RDKit          3D

 24 23  0  0  1  0  0  0  0  0999 V2000
    9.3590  -15.5403   15.3426 N   0  0  0  0  0  0  0  0  0  0  0  0
    8.4190  -14.6238   14.8246 C   0  0  0  0  0  0  0  0  0  0  0  0
    8.1481  -14.5850   13.5632 N   0  0  0  0  0  0  0  0  0  0  0  0
    7.7456  -13.7144   15.7089 N   0  0  0  0  0  0  0  0  0  0  0  0
    8.2038  -13.6810   17.0936 C   0  0  0  0  0  0  0  0  0  0  0  0
    7.6009  -14.8161   17.8888 C   0  0  0  0  0  0  0  0  0  0  0  0
    7.3266  -14.4275   19.3200 C   0  0  0  0  0  0  0  0  0  0  0  0
    8.5753  -14.4903   20.1744 C   0  0  2  0  0  0  0  0  0  0  0  0
    9.5006  -15.4800   19.6484 N   0  0  0  0  0  0  0  0  0  0  0  0
    8.1806  -14.8620   21.5498 C   0  0  0  0  0  0  0  0  0  0  0  0
    7.3100  -14.1908   22.1317 O   0  0  0  0  0  0  0  0  0  0  0  0
    7.5372  -13.8335   13.1761 C   0  0  0  0  0  0  0  0  0  0  0  0
    9.2415  -17.5041   24.0873 C   0  0  2  0  0  0  0  0  0  0  0  0
    8.4599  -16.2920   23.6228 N   0  0  0  0  0  0  0  0  0  0  0  0
    8.7469  -15.9568   22.2541 C   0  0  0  0  0  0  0  0  0  0  0  0
    8.6813  -15.1727   24.5500 O   0  0  0  0  0  0  0  0  0  0  0  0
    9.7720  -14.5281   24.5093 C   0  0  0  0  0  0  0  0  0  0  0  0
    6.8086  -11.6562   27.4888 C   0  0  2  0  0  0  0  0  0  0  0  0
    6.6222  -12.8689   26.6333 O   0  0  0  0  0  0  0  0  0  0  0  0
    5.9800  -12.5588   25.4248 C   0  0  1  0  0  0  0  0  0  0  0  0
    7.9460  -13.5730   26.3552 N   0  0  0  0  0  0  0  0  0  0  0  0
    7.7384  -14.7474   25.5150 C   0  0  0  0  0  0  0  0  0  0  0  0
    8.5092  -14.0920   27.6445 O   0  0  0  0  0  0  0  0  0  0  0  0
    9.0128  -13.2261   28.6190 O   0  0  0  0  0  0  0  0  0  0  0  0
  1  2  1  0
  2  3  2  0
  4  5  1  0
  4  2  1  0
  6  7  1  0
  6  5  1  0
  7  8  1  0
  8  9  1  6
  8 10  1  0
 10 11  2  0
 13 12  1  6
 14 10  1  0
 14 13  1  0
 15 13  1  0
 15 16  2  0
 18 17  1  1
 18 20  1  0
 19 18  1  0
 20 21  1  1
 21 15  1  0
 22 20  1  0
 23 22  1  0
 24 22  2  0
M  END
$$$$
