DMV.pdb
     RDKit          3D

 24 23  0  0  1  0  0  0  0  0999 V2000
   10.2487  -15.9177   19.9922 N   0  0  0  0  0  0  0  0  0  0  0  0
    9.5828  -16.6969   21.0184 C   0  0  1  0  0  0  0  0  0  0  0  0
   10.2416  -18.0517   21.1867 C   0  0  0  0  0  0  0  0  0  0  0  0
    9.9925  -18.9373   20.0301 C   0  0  0  0  0  0  0  0  0  0  0  0
   10.8601  -19.0235   19.1083 O   0  0  0  0  0  0  0  0  0  0  0  0
    9.6770  -15.9674   22.3043 C   0  0  0  0  0  0  0  0  0  0  0  0
   10.7441  -15.3548   22.6094 O   0  0  0  0  0  0  0  0  0  0  0  0
    8.8447  -19.7023   19.8777 O   0  0  0  0  0  0  0  0  0  0  0  0
    5.9548  -11.1486   25.6702 C   0  0  0  0  0  0  0  0  0  0  0  0
    5.6555  -12.8548   26.2255 S   0  0  0  0  0  0  0  0  0  0  0  0
    7.1830  -13.7797   26.0076 C   0  0  0  0  0  0  0  0  0  0  0  0
    7.2608  -14.6069   24.7828 C   0  0  0  0  0  0  0  0  0  0  0  0
    8.5895  -15.1360   24.3859 C   0  0  2  0  0  0  0  0  0  0  0  0
    8.5768  -15.9487   23.2019 N   0  0  0  0  0  0  0  0  0  0  0  0
    9.2711  -15.8820   25.4758 C   0  0  0  0  0  0  0  0  0  0  0  0
    9.3958  -17.1402   25.4056 O   0  0  0  0  0  0  0  0  0  0  0  0
   12.1001  -14.1343   27.9624 C   0  0  0  0  0  0  0  0  0  0  0  0
   11.2268  -15.1739   28.6324 C   0  0  1  0  0  0  0  0  0  0  0  0
   10.2068  -14.4431   29.4711 C   0  0  0  0  0  0  0  0  0  0  0  0
   10.5968  -16.0236   27.5624 C   0  0  2  0  0  0  0  0  0  0  0  0
    9.8090  -15.2508   26.6283 N   0  0  0  0  0  0  0  0  0  0  0  0
    9.7384  -17.0428   28.1839 C   0  0  0  0  0  0  0  0  0  0  0  0
    8.5094  -17.0288   27.9813 O   0  0  0  0  0  0  0  0  0  0  0  0
   10.2862  -18.0120   28.9886 O   0  0  0  0  0  0  0  0  0  0  0  0
  2  1  1  6
  2  3  1  0
  4  3  1  0
  4  8  1  0
  5  4  2  0
  6  7  2  0
  6  2  1  0
  9 10  1  0
 10 11  1  0
 11 12  1  0
 13 12  1  1
 13 14  1  0
 14  6  1  0
 15 13  1  0
 15 21  1  0
 16 15  2  0
 18 17  1  6
 18 20  1  0
 19 18  1  0
 20 21  1  6
 20 22  1  0
 22 24  1  0
 23 22  2  0
M  END
$$$$
