DMV.pdb
     RDKit          3D

 24 23  0  0  1  0  0  0  0  0999 V2000
    9.6203  -17.6025   20.7569 N   0  0  0  0  0  0  0  0  0  0  0  0
   10.8617  -17.1149   21.3271 C   0  0  1  0  0  0  0  0  0  0  0  0
   11.6186  -16.2584   20.3315 C   0  0  0  0  0  0  0  0  0  0  0  0
   12.1255  -17.0498   19.1910 C   0  0  0  0  0  0  0  0  0  0  0  0
   11.7950  -18.2697   19.0784 O   0  0  0  0  0  0  0  0  0  0  0  0
   10.5457  -16.2857   22.5133 C   0  0  0  0  0  0  0  0  0  0  0  0
   11.4337  -15.5337   23.0163 O   0  0  0  0  0  0  0  0  0  0  0  0
   12.9605  -16.5381   18.2077 O   0  0  0  0  0  0  0  0  0  0  0  0
    6.3473  -11.6284   26.3466 C   0  0  0  0  0  0  0  0  0  0  0  0
    6.9103  -12.5963   24.9130 S   0  0  0  0  0  0  0  0  0  0  0  0
    6.9867  -14.3232   25.4115 C   0  0  0  0  0  0  0  0  0  0  0  0
    7.4346  -15.2713   24.3671 C   0  0  0  0  0  0  0  0  0  0  0  0
    8.8947  -15.4729   24.1927 C   0  0  2  0  0  0  0  0  0  0  0  0
    9.2505  -16.3266   23.0941 N   0  0  0  0  0  0  0  0  0  0  0  0
    9.5681  -15.9644   25.4232 C   0  0  0  0  0  0  0  0  0  0  0  0
   10.0249  -17.1444   25.4716 O   0  0  0  0  0  0  0  0  0  0  0  0
   11.2310  -13.3689   28.1808 C   0  0  0  0  0  0  0  0  0  0  0  0
   10.7037  -14.6535   28.7843 C   0  0  1  0  0  0  0  0  0  0  0  0
    9.4019  -14.3328   29.4775 C   0  0  0  0  0  0  0  0  0  0  0  0
   10.5400  -15.6628   27.6806 C   0  0  2  0  0  0  0  0  0  0  0  0
    9.7367  -15.1667   26.5857 N   0  0  0  0  0  0  0  0  0  0  0  0
    9.9180  -16.8827   28.2163 C   0  0  0  0  0  0  0  0  0  0  0  0
    8.7710  -17.2067   27.8542 O   0  0  0  0  0  0  0  0  0  0  0  0
   10.5969  -17.6680   29.1159 O   0  0  0  0  0  0  0  0  0  0  0  0
  2  1  1  6
  2  3  1  0
  4  3  1  0
  4  8  1  0
  5  4  2  0
  6  7  2  0
  6  2  1  0
  9 10  1  0
 10 11  1  0
 11 12  1  0
 13 12  1  1
 13 14  1  0
 14  6  1  0
 15 13  1  0
 15 21  1  0
 16 15  2  0
 18 17  1  6
 18 20  1  0
 19 18  1  0
 20 21  1  6
 20 22  1  0
 22 24  1  0
 23 22  2  0
M  END
$$$$
