DMV.pdb
     RDKit          3D

 24 23  0  0  1  0  0  0  0  0999 V2000
   10.2044  -17.8345   20.8757 N   0  0  0  0  0  0  0  0  0  0  0  0
   11.3165  -17.0460   21.3709 C   0  0  1  0  0  0  0  0  0  0  0  0
   11.9449  -16.2317   20.2575 C   0  0  0  0  0  0  0  0  0  0  0  0
   12.5839  -17.0879   19.2364 C   0  0  0  0  0  0  0  0  0  0  0  0
   13.4589  -17.9367   19.5885 O   0  0  0  0  0  0  0  0  0  0  0  0
   10.8134  -16.1137   22.4064 C   0  0  0  0  0  0  0  0  0  0  0  0
   11.5773  -15.2197   22.8801 O   0  0  0  0  0  0  0  0  0  0  0  0
   12.2857  -17.0269   17.8824 O   0  0  0  0  0  0  0  0  0  0  0  0
    6.1971  -12.1074   26.5830 C   0  0  0  0  0  0  0  0  0  0  0  0
    6.8241  -12.7897   25.0176 S   0  0  0  0  0  0  0  0  0  0  0  0
    6.9507  -14.5741   25.2073 C   0  0  0  0  0  0  0  0  0  0  0  0
    7.5244  -15.3010   24.0528 C   0  0  0  0  0  0  0  0  0  0  0  0
    9.0022  -15.4076   23.9645 C   0  0  2  0  0  0  0  0  0  0  0  0
    9.4766  -16.2137   22.8747 N   0  0  0  0  0  0  0  0  0  0  0  0
    9.6304  -15.8827   25.2250 C   0  0  0  0  0  0  0  0  0  0  0  0
   10.0435  -17.0758   25.3208 O   0  0  0  0  0  0  0  0  0  0  0  0
    9.3500  -13.9320   28.8632 C   0  0  0  0  0  0  0  0  0  0  0  0
   10.7200  -14.5097   28.5775 C   0  0  1  0  0  0  0  0  0  0  0  0
   11.2456  -15.0987   29.8639 C   0  0  0  0  0  0  0  0  0  0  0  0
   10.5831  -15.5337   27.4838 C   0  0  2  0  0  0  0  0  0  0  0  0
    9.8020  -15.0546   26.3655 N   0  0  0  0  0  0  0  0  0  0  0  0
    9.9534  -16.7487   28.0218 C   0  0  0  0  0  0  0  0  0  0  0  0
    8.7508  -16.9793   27.7936 O   0  0  0  0  0  0  0  0  0  0  0  0
   10.6864  -17.6320   28.7764 O   0  0  0  0  0  0  0  0  0  0  0  0
  2  1  1  6
  2  3  1  0
  4  3  1  0
  4  8  1  0
  5  4  2  0
  6  7  2  0
  6  2  1  0
  9 10  1  0
 10 11  1  0
 11 12  1  0
 13 12  1  1
 13 14  1  0
 14  6  1  0
 15 13  1  0
 15 21  1  0
 16 15  2  0
 18 17  1  1
 18 20  1  0
 19 18  1  0
 20 21  1  6
 20 22  1  0
 22 24  1  0
 23 22  2  0
M  END
$$$$
