DMV.pdb
     RDKit          3D

 24 23  0  0  1  0  0  0  0  0999 V2000
    9.9345  -15.7220   19.4293 N   0  0  0  0  0  0  0  0  0  0  0  0
    8.8993  -16.1331   20.3584 C   0  0  1  0  0  0  0  0  0  0  0  0
    8.7100  -17.6368   20.3321 C   0  0  0  0  0  0  0  0  0  0  0  0
    8.1962  -18.1087   19.0293 C   0  0  0  0  0  0  0  0  0  0  0  0
    8.4917  -19.2742   18.6239 O   0  0  0  0  0  0  0  0  0  0  0  0
    9.3048  -15.7360   21.7267 C   0  0  0  0  0  0  0  0  0  0  0  0
   10.5072  -15.8844   22.1003 O   0  0  0  0  0  0  0  0  0  0  0  0
    7.3909  -17.3455   18.1956 O   0  0  0  0  0  0  0  0  0  0  0  0
    5.7349  -12.3822   27.1922 C   0  0  0  0  0  0  0  0  0  0  0  0
    7.2036  -11.7080   26.3571 S   0  0  0  0  0  0  0  0  0  0  0  0
    8.2086  -13.0951   25.8074 C   0  0  0  0  0  0  0  0  0  0  0  0
    7.9275  -13.5865   24.4400 C   0  0  0  0  0  0  0  0  0  0  0  0
    8.7373  -14.7211   23.9301 C   0  0  2  0  0  0  0  0  0  0  0  0
    8.3535  -15.1880   22.6274 N   0  0  0  0  0  0  0  0  0  0  0  0
    8.7779  -15.8766   24.8641 C   0  0  0  0  0  0  0  0  0  0  0  0
    7.7339  -16.5608   25.0771 O   0  0  0  0  0  0  0  0  0  0  0  0
   10.5556  -18.8584   24.3804 C   0  0  0  0  0  0  0  0  0  0  0  0
   10.9332  -18.5123   25.8052 C   0  0  1  0  0  0  0  0  0  0  0  0
   12.3501  -17.9925   25.7896 C   0  0  0  0  0  0  0  0  0  0  0  0
    9.9490  -17.4989   26.3229 C   0  0  2  0  0  0  0  0  0  0  0  0
    9.9531  -16.2742   25.5545 N   0  0  0  0  0  0  0  0  0  0  0  0
   10.2569  -17.1847   27.7259 C   0  0  0  0  0  0  0  0  0  0  0  0
   10.5780  -16.0249   28.0477 O   0  0  0  0  0  0  0  0  0  0  0  0
   10.1922  -18.1658   28.6852 O   0  0  0  0  0  0  0  0  0  0  0  0
  2  1  1  6
  2  3  1  0
  4  3  1  0
  4  8  1  0
  5  4  2  0
  6  7  2  0
  6  2  1  0
  9 10  1  0
 10 11  1  0
 11 12  1  0
 13 12  1  1
 13 14  1  0
 14  6  1  0
 15 13  1  0
 15 21  1  0
 16 15  2  0
 18 17  1  6
 18 20  1  0
 19 18  1  0
 20 21  1  6
 20 22  1  0
 22 24  1  0
 23 22  2  0
M  END
$$$$
