DMV.pdb
     RDKit          3D

 24 23  0  0  1  0  0  0  0  0999 V2000
    9.6242  -15.9358   19.6099 N   0  0  0  0  0  0  0  0  0  0  0  0
   10.0241  -16.7484   20.7429 C   0  0  1  0  0  0  0  0  0  0  0  0
   11.4150  -17.3162   20.5417 C   0  0  0  0  0  0  0  0  0  0  0  0
   11.8288  -18.1821   21.6656 C   0  0  0  0  0  0  0  0  0  0  0  0
   11.0038  -19.0140   22.1527 O   0  0  0  0  0  0  0  0  0  0  0  0
   10.0363  -15.8982   21.9560 C   0  0  0  0  0  0  0  0  0  0  0  0
   10.7843  -14.8758   22.0066 O   0  0  0  0  0  0  0  0  0  0  0  0
   13.0912  -18.1480   22.2412 O   0  0  0  0  0  0  0  0  0  0  0  0
    5.8087  -11.9944   26.9743 C   0  0  0  0  0  0  0  0  0  0  0  0
    5.7853  -13.2520   25.6602 S   0  0  0  0  0  0  0  0  0  0  0  0
    7.4144  -14.0127   25.5984 C   0  0  0  0  0  0  0  0  0  0  0  0
    7.6637  -14.8972   24.4383 C   0  0  0  0  0  0  0  0  0  0  0  0
    9.0623  -15.3182   24.1745 C   0  0  2  0  0  0  0  0  0  0  0  0
    9.2134  -16.2204   23.0675 N   0  0  0  0  0  0  0  0  0  0  0  0
    9.7322  -15.9009   25.3666 C   0  0  0  0  0  0  0  0  0  0  0  0
   10.2061  -17.0742   25.3212 O   0  0  0  0  0  0  0  0  0  0  0  0
   11.5211  -13.6457   28.3567 C   0  0  0  0  0  0  0  0  0  0  0  0
   10.7987  -14.8824   28.8479 C   0  0  1  0  0  0  0  0  0  0  0  0
    9.4922  -14.4370   29.4583 C   0  0  0  0  0  0  0  0  0  0  0  0
   10.6068  -15.8131   27.6815 C   0  0  2  0  0  0  0  0  0  0  0  0
    9.8788  -15.2005   26.5929 N   0  0  0  0  0  0  0  0  0  0  0  0
    9.8847  -17.0152   28.1236 C   0  0  0  0  0  0  0  0  0  0  0  0
    8.7403  -17.2481   27.6901 O   0  0  0  0  0  0  0  0  0  0  0  0
   10.4669  -17.8841   29.0140 O   0  0  0  0  0  0  0  0  0  0  0  0
  2  1  1  6
  2  3  1  0
  4  3  1  0
  4  8  1  0
  5  4  2  0
  6  7  2  0
  6  2  1  0
  9 10  1  0
 10 11  1  0
 11 12  1  0
 13 12  1  1
 13 14  1  0
 14  6  1  0
 15 13  1  0
 15 21  1  0
 16 15  2  0
 18 17  1  6
 18 20  1  0
 19 18  1  0
 20 21  1  6
 20 22  1  0
 22 24  1  0
 23 22  2  0
M  END
$$$$
