DMV.pdb
     RDKit          3D

 24 23  0  0  1  0  0  0  0  0999 V2000
    8.6757  -16.4692   19.9150 N   0  0  0  0  0  0  0  0  0  0  0  0
    9.6409  -16.8621   20.9239 C   0  0  1  0  0  0  0  0  0  0  0  0
   11.0579  -16.7339   20.4010 C   0  0  0  0  0  0  0  0  0  0  0  0
   12.0407  -17.3774   21.2977 C   0  0  0  0  0  0  0  0  0  0  0  0
   11.6674  -18.3147   22.0672 O   0  0  0  0  0  0  0  0  0  0  0  0
    9.4919  -15.9693   22.0966 C   0  0  0  0  0  0  0  0  0  0  0  0
   10.0657  -14.8389   22.1102 O   0  0  0  0  0  0  0  0  0  0  0  0
   13.3799  -17.0184   21.3586 O   0  0  0  0  0  0  0  0  0  0  0  0
    6.7665  -11.5106   25.5606 C   0  0  0  0  0  0  0  0  0  0  0  0
    5.7456  -13.0152   25.5049 S   0  0  0  0  0  0  0  0  0  0  0  0
    6.8113  -14.4165   25.8751 C   0  0  0  0  0  0  0  0  0  0  0  0
    7.0981  -15.3199   24.7385 C   0  0  0  0  0  0  0  0  0  0  0  0
    8.5160  -15.5078   24.3419 C   0  0  2  0  0  0  0  0  0  0  0  0
    8.7080  -16.3710   23.2104 N   0  0  0  0  0  0  0  0  0  0  0  0
    9.3781  -15.9767   25.4582 C   0  0  0  0  0  0  0  0  0  0  0  0
    9.9079  -17.1260   25.4147 O   0  0  0  0  0  0  0  0  0  0  0  0
   11.2500  -13.4185   28.1002 C   0  0  0  0  0  0  0  0  0  0  0  0
   10.7906  -14.7153   28.7324 C   0  0  1  0  0  0  0  0  0  0  0  0
    9.5590  -14.4141   29.5513 C   0  0  0  0  0  0  0  0  0  0  0  0
   10.5284  -15.7102   27.6347 C   0  0  2  0  0  0  0  0  0  0  0  0
    9.6537  -15.1902   26.6077 N   0  0  0  0  0  0  0  0  0  0  0  0
    9.9282  -16.9259   28.2040 C   0  0  0  0  0  0  0  0  0  0  0  0
    8.7443  -17.2147   27.9460 O   0  0  0  0  0  0  0  0  0  0  0  0
   10.6682  -17.7458   29.0208 O   0  0  0  0  0  0  0  0  0  0  0  0
  2  1  1  6
  2  3  1  0
  4  3  1  0
  4  8  1  0
  5  4  2  0
  6  7  2  0
  6  2  1  0
  9 10  1  0
 10 11  1  0
 11 12  1  0
 13 12  1  1
 13 14  1  0
 14  6  1  0
 15 13  1  0
 15 21  1  0
 16 15  2  0
 18 17  1  6
 18 20  1  0
 19 18  1  0
 20 21  1  6
 20 22  1  0
 22 24  1  0
 23 22  2  0
M  END
$$$$
