DMV.pdb
     RDKit          3D

 24 23  0  0  1  0  0  0  0  0999 V2000
   10.6681  -16.0860   20.0427 N   0  0  0  0  0  0  0  0  0  0  0  0
   10.2829  -16.9452   21.1460 C   0  0  1  0  0  0  0  0  0  0  0  0
   11.3995  -17.9060   21.5034 C   0  0  0  0  0  0  0  0  0  0  0  0
   11.3554  -19.1367   20.6865 C   0  0  0  0  0  0  0  0  0  0  0  0
   10.3975  -19.3156   19.8738 O   0  0  0  0  0  0  0  0  0  0  0  0
    9.9962  -16.0998   22.3282 C   0  0  0  0  0  0  0  0  0  0  0  0
   10.7217  -15.0905   22.5773 O   0  0  0  0  0  0  0  0  0  0  0  0
   12.3145  -20.1378   20.7477 O   0  0  0  0  0  0  0  0  0  0  0  0
    6.3453  -12.3766   23.8106 C   0  0  0  0  0  0  0  0  0  0  0  0
    6.7670  -12.8503   25.5155 S   0  0  0  0  0  0  0  0  0  0  0  0
    6.6050  -14.6373   25.6455 C   0  0  0  0  0  0  0  0  0  0  0  0
    7.0729  -15.4090   24.4726 C   0  0  0  0  0  0  0  0  0  0  0  0
    8.5370  -15.5434   24.2694 C   0  0  2  0  0  0  0  0  0  0  0  0
    8.9105  -16.4122   23.1886 N   0  0  0  0  0  0  0  0  0  0  0  0
    9.2616  -15.9627   25.4976 C   0  0  0  0  0  0  0  0  0  0  0  0
    9.6499  -17.1606   25.6308 O   0  0  0  0  0  0  0  0  0  0  0  0
    9.3655  -13.8783   29.1023 C   0  0  0  0  0  0  0  0  0  0  0  0
   10.7014  -14.4170   28.6360 C   0  0  1  0  0  0  0  0  0  0  0  0
   11.4409  -14.9214   29.8512 C   0  0  0  0  0  0  0  0  0  0  0  0
   10.4476  -15.4983   27.6211 C   0  0  2  0  0  0  0  0  0  0  0  0
    9.5553  -15.0742   26.5655 N   0  0  0  0  0  0  0  0  0  0  0  0
    9.8736  -16.6761   28.2886 C   0  0  0  0  0  0  0  0  0  0  0  0
    8.6535  -16.9099   28.1973 O   0  0  0  0  0  0  0  0  0  0  0  0
   10.6779  -17.5212   29.0137 O   0  0  0  0  0  0  0  0  0  0  0  0
  2  1  1  6
  2  3  1  0
  4  3  1  0
  4  8  1  0
  5  4  2  0
  6  7  2  0
  6  2  1  0
  9 10  1  0
 10 11  1  0
 11 12  1  0
 13 12  1  1
 13 14  1  0
 14  6  1  0
 15 13  1  0
 15 21  1  0
 16 15  2  0
 18 17  1  1
 18 20  1  0
 19 18  1  0
 20 21  1  6
 20 22  1  0
 22 24  1  0
 23 22  2  0
M  END
$$$$
