DMV.pdb
     RDKit          3D

 24 23  0  0  1  0  0  0  0  0999 V2000
    8.7457  -15.0984   19.9055 N   0  0  0  0  0  0  0  0  0  0  0  0
    8.9676  -16.2531   20.7548 C   0  0  1  0  0  0  0  0  0  0  0  0
   10.1514  -17.0662   20.2699 C   0  0  0  0  0  0  0  0  0  0  0  0
    9.8567  -17.7775   19.0084 C   0  0  0  0  0  0  0  0  0  0  0  0
    8.7686  -17.5465   18.3980 O   0  0  0  0  0  0  0  0  0  0  0  0
    9.2544  -15.7827   22.1299 C   0  0  0  0  0  0  0  0  0  0  0  0
   10.4483  -15.5428   22.4823 O   0  0  0  0  0  0  0  0  0  0  0  0
   10.7101  -18.7059   18.4290 O   0  0  0  0  0  0  0  0  0  0  0  0
    7.4124  -10.9463   26.1002 C   0  0  0  0  0  0  0  0  0  0  0  0
    6.5362  -12.3805   26.7962 S   0  0  0  0  0  0  0  0  0  0  0  0
    7.4727  -13.8563   26.3705 C   0  0  0  0  0  0  0  0  0  0  0  0
    7.3326  -14.3218   24.9726 C   0  0  0  0  0  0  0  0  0  0  0  0
    8.4464  -15.1099   24.3886 C   0  0  2  0  0  0  0  0  0  0  0  0
    8.1981  -15.5975   23.0608 N   0  0  0  0  0  0  0  0  0  0  0  0
    8.8722  -16.2456   25.2477 C   0  0  0  0  0  0  0  0  0  0  0  0
    8.1651  -17.2939   25.3148 O   0  0  0  0  0  0  0  0  0  0  0  0
   12.2835  -18.9681   27.3152 C   0  0  0  0  0  0  0  0  0  0  0  0
   11.9313  -17.7519   26.4850 C   0  0  1  0  0  0  0  0  0  0  0  0
   12.2335  -18.0791   25.0430 C   0  0  0  0  0  0  0  0  0  0  0  0
   10.4805  -17.4262   26.7144 C   0  0  2  0  0  0  0  0  0  0  0  0
   10.0618  -16.2276   26.0227 N   0  0  0  0  0  0  0  0  0  0  0  0
   10.2345  -17.2585   28.1543 C   0  0  0  0  0  0  0  0  0  0  0  0
    9.9347  -16.1377   28.6079 O   0  0  0  0  0  0  0  0  0  0  0  0
   10.3341  -18.3338   29.0034 O   0  0  0  0  0  0  0  0  0  0  0  0
  2  1  1  6
  2  3  1  0
  4  3  1  0
  4  8  1  0
  5  4  2  0
  6  7  2  0
  6  2  1  0
  9 10  1  0
 10 11  1  0
 11 12  1  0
 13 12  1  1
 13 14  1  0
 14  6  1  0
 15 13  1  0
 15 21  1  0
 16 15  2  0
 18 17  1  1
 18 20  1  0
 19 18  1  0
 20 21  1  6
 20 22  1  0
 22 24  1  0
 23 22  2  0
M  END
$$$$
