DMV.pdb
     RDKit          3D

 24 23  0  0  1  0  0  0  0  0999 V2000
   10.1032  -16.4209   19.6313 N   0  0  0  0  0  0  0  0  0  0  0  0
   10.3770  -17.1419   20.8597 C   0  0  1  0  0  0  0  0  0  0  0  0
   11.7554  -17.7715   20.8258 C   0  0  0  0  0  0  0  0  0  0  0  0
   11.7226  -19.1509   20.2964 C   0  0  0  0  0  0  0  0  0  0  0  0
   11.4809  -19.3444   19.0659 O   0  0  0  0  0  0  0  0  0  0  0  0
   10.3257  -16.1875   21.9916 C   0  0  0  0  0  0  0  0  0  0  0  0
   11.2877  -15.3860   22.1896 O   0  0  0  0  0  0  0  0  0  0  0  0
   11.9437  -20.2802   21.0722 O   0  0  0  0  0  0  0  0  0  0  0  0
    6.1347  -12.5279   27.2644 C   0  0  0  0  0  0  0  0  0  0  0  0
    5.9122  -13.1422   25.5667 S   0  0  0  0  0  0  0  0  0  0  0  0
    7.5449  -13.3837   24.8511 C   0  0  0  0  0  0  0  0  0  0  0  0
    7.7080  -14.6015   24.0261 C   0  0  0  0  0  0  0  0  0  0  0  0
    9.0725  -15.1692   23.8888 C   0  0  2  0  0  0  0  0  0  0  0  0
    9.2028  -16.1632   22.8605 N   0  0  0  0  0  0  0  0  0  0  0  0
    9.6076  -15.7192   25.1618 C   0  0  0  0  0  0  0  0  0  0  0  0
    9.6225  -16.9698   25.3593 O   0  0  0  0  0  0  0  0  0  0  0  0
    9.7921  -13.5069   28.4773 C   0  0  0  0  0  0  0  0  0  0  0  0
   10.9052  -14.5330   28.5018 C   0  0  1  0  0  0  0  0  0  0  0  0
   10.9033  -15.1779   29.8664 C   0  0  0  0  0  0  0  0  0  0  0  0
   10.6631  -15.5206   27.3929 C   0  0  2  0  0  0  0  0  0  0  0  0
   10.1203  -14.9025   26.2040 N   0  0  0  0  0  0  0  0  0  0  0  0
    9.7360  -16.5639   27.8557 C   0  0  0  0  0  0  0  0  0  0  0  0
    8.5342  -16.5165   27.5317 O   0  0  0  0  0  0  0  0  0  0  0  0
   10.1898  -17.5925   28.6451 O   0  0  0  0  0  0  0  0  0  0  0  0
  2  1  1  6
  2  3  1  0
  4  3  1  0
  4  8  1  0
  5  4  2  0
  6  7  2  0
  6  2  1  0
  9 10  1  0
 10 11  1  0
 11 12  1  0
 13 12  1  1
 13 14  1  0
 14  6  1  0
 15 13  1  0
 15 21  1  0
 16 15  2  0
 18 17  1  1
 18 20  1  0
 19 18  1  0
 20 21  1  6
 20 22  1  0
 22 24  1  0
 23 22  2  0
M  END
$$$$
