ASC.pdb
     RDKit          3D

 18 17  0  0  1  0  0  0  0  0999 V2000
   15.8960   -8.3990   -8.4535 C   0  0  0  0  0  0  0  0  0  0  0  0
   15.0446   -7.5186   -9.3288 C   0  0  2  0  0  0  0  0  0  0  0  0
   13.7183   -8.0265   -9.5062 N   0  0  0  0  0  0  0  0  0  0  0  0
   15.6882   -7.3087  -10.6421 C   0  0  0  0  0  0  0  0  0  0  0  0
   15.4442   -8.0541  -11.6368 O   0  0  0  0  0  0  0  0  0  0  0  0
   16.8863   -3.5926  -11.6884 O   0  0  0  0  0  0  0  0  0  0  0  0
   16.6766   -4.6215  -12.5684 C   0  0  0  0  0  0  0  0  0  0  0  0
   17.2254   -5.9434  -12.0894 C   0  0  2  0  0  0  0  0  0  0  0  0
   16.6030   -6.2491  -10.8023 N   0  0  0  0  0  0  0  0  0  0  0  0
   18.6919   -5.9173  -11.9055 C   0  0  0  0  0  0  0  0  0  0  0  0
   19.1968   -5.5237  -10.8251 O   0  0  0  0  0  0  0  0  0  0  0  0
   19.5367   -6.3384  -12.9534 N   0  0  0  0  0  0  0  0  0  0  0  0
   21.0004   -6.1995  -12.8831 C   0  0  1  0  0  0  0  0  0  0  0  0
   21.5476   -7.2481  -13.8498 C   0  0  0  0  0  0  0  0  0  0  0  0
   21.1923   -8.8862  -13.2113 S   0  0  0  0  0  0  0  0  0  0  0  0
   21.3959   -4.8344  -13.2574 C   0  0  0  0  0  0  0  0  0  0  0  0
   20.5960   -4.1290  -13.9152 O   0  0  0  0  0  0  0  0  0  0  0  0
   22.6070   -4.2624  -12.9308 O   0  0  0  0  0  0  0  0  0  0  0  0
  2  1  1  1
  2  3  1  0
  4  2  1  0
  5  4  2  0
  7  6  1  0
  8  7  1  1
  8  9  1  0
  9  4  1  0
 10  8  1  0
 10 12  1  0
 11 10  2  0
 13 14  1  6
 13 12  1  0
 13 16  1  0
 14 15  1  0
 16 18  1  0
 17 16  2  0
M  END
$$$$
