ASC.pdb
     RDKit          3D

 18 17  0  0  1  0  0  0  0  0999 V2000
   19.5169   -9.0515  -20.2474 C   0  0  0  0  0  0  0  0  0  0  0  0
   20.0820  -10.2837  -19.5929 C   0  0  2  0  0  0  0  0  0  0  0  0
   19.1570  -11.3756  -19.5702 N   0  0  0  0  0  0  0  0  0  0  0  0
   20.5454   -9.9816  -18.2228 C   0  0  0  0  0  0  0  0  0  0  0  0
   19.7365   -9.7874  -17.2675 O   0  0  0  0  0  0  0  0  0  0  0  0
   23.8588  -11.5126  -16.3126 O   0  0  0  0  0  0  0  0  0  0  0  0
   23.8451  -10.1608  -16.5359 C   0  0  0  0  0  0  0  0  0  0  0  0
   22.4547   -9.5822  -16.6365 C   0  0  2  0  0  0  0  0  0  0  0  0
   21.9278   -9.9053  -17.9614 N   0  0  0  0  0  0  0  0  0  0  0  0
   22.4367   -8.1134  -16.4712 C   0  0  0  0  0  0  0  0  0  0  0  0
   22.5571   -7.3539  -17.4640 O   0  0  0  0  0  0  0  0  0  0  0  0
   22.2827   -7.5553  -15.1851 N   0  0  0  0  0  0  0  0  0  0  0  0
   22.2824   -6.1010  -14.9576 C   0  0  1  0  0  0  0  0  0  0  0  0
   21.0556   -5.5806  -15.7044 C   0  0  0  0  0  0  0  0  0  0  0  0
   20.7873   -3.8593  -15.2773 S   0  0  0  0  0  0  0  0  0  0  0  0
   22.2219   -5.8160  -13.5171 C   0  0  0  0  0  0  0  0  0  0  0  0
   21.5968   -6.6022  -12.7680 O   0  0  0  0  0  0  0  0  0  0  0  0
   22.8147   -4.7248  -12.9185 O   0  0  0  0  0  0  0  0  0  0  0  0
  2  1  1  1
  2  3  1  0
  4  2  1  0
  5  4  2  0
  7  6  1  0
  8  7  1  6
  8  9  1  0
  9  4  1  0
 10  8  1  0
 10 12  1  0
 11 10  2  0
 13 14  1  6
 13 12  1  0
 13 16  1  0
 14 15  1  0
 16 18  1  0
 17 16  2  0
M  END
$$$$
