ASC.pdb
     RDKit          3D

 18 17  0  0  1  0  0  0  0  0999 V2000
   14.3980  -22.6616   -4.9787 C   0  0  0  0  0  0  0  0  0  0  0  0
   15.0080  -23.9469   -5.4705 C   0  0  2  0  0  0  0  0  0  0  0  0
   14.2721  -24.5353   -6.5479 N   0  0  0  0  0  0  0  0  0  0  0  0
   15.1497  -24.9151   -4.3635 C   0  0  0  0  0  0  0  0  0  0  0  0
   14.1502  -25.3447   -3.7145 O   0  0  0  0  0  0  0  0  0  0  0  0
   18.9892  -25.8039   -3.0078 O   0  0  0  0  0  0  0  0  0  0  0  0
   18.0737  -26.8232   -3.0129 C   0  0  0  0  0  0  0  0  0  0  0  0
   16.6435  -26.3471   -2.9354 C   0  0  2  0  0  0  0  0  0  0  0  0
   16.4322  -25.3804   -4.0117 N   0  0  0  0  0  0  0  0  0  0  0  0
   16.3320  -25.6899   -1.6485 C   0  0  0  0  0  0  0  0  0  0  0  0
   16.5585  -24.4661   -1.4809 O   0  0  0  0  0  0  0  0  0  0  0  0
   15.7738  -26.4430   -0.5947 N   0  0  0  0  0  0  0  0  0  0  0  0
   15.4694  -25.8484    0.7170 C   0  0  1  0  0  0  0  0  0  0  0  0
   13.9445  -25.8429    0.8084 C   0  0  0  0  0  0  0  0  0  0  0  0
   13.2949  -24.5071   -0.1972 S   0  0  0  0  0  0  0  0  0  0  0  0
   16.0902  -26.6422    1.7868 C   0  0  0  0  0  0  0  0  0  0  0  0
   16.7256  -27.6786    1.4836 O   0  0  0  0  0  0  0  0  0  0  0  0
   16.0228  -26.3227    3.1262 O   0  0  0  0  0  0  0  0  0  0  0  0
  2  1  1  1
  2  3  1  0
  4  2  1  0
  5  4  2  0
  7  6  1  0
  8  7  1  1
  8  9  1  0
  9  4  1  0
 10  8  1  0
 10 12  1  0
 11 10  2  0
 13 14  1  1
 13 12  1  0
 13 16  1  0
 14 15  1  0
 16 18  1  0
 17 16  2  0
M  END
$$$$
