ASC.pdb
     RDKit          3D

 18 17  0  0  1  0  0  0  0  0999 V2000
   15.8397  -11.4076  -14.3167 C   0  0  0  0  0  0  0  0  0  0  0  0
   15.0646  -10.5548  -13.3481 C   0  0  2  0  0  0  0  0  0  0  0  0
   13.7348  -10.2728  -13.7959 N   0  0  0  0  0  0  0  0  0  0  0  0
   15.7847   -9.2951  -13.0690 C   0  0  0  0  0  0  0  0  0  0  0  0
   16.0006   -8.4309  -13.9696 O   0  0  0  0  0  0  0  0  0  0  0  0
   17.3645   -8.7089   -9.2168 O   0  0  0  0  0  0  0  0  0  0  0  0
   16.8902   -7.6345   -9.9224 C   0  0  0  0  0  0  0  0  0  0  0  0
   16.9710   -7.8151  -11.4187 C   0  0  2  0  0  0  0  0  0  0  0  0
   16.2492   -9.0387  -11.7638 N   0  0  0  0  0  0  0  0  0  0  0  0
   18.3623   -7.9404  -11.9021 C   0  0  0  0  0  0  0  0  0  0  0  0
   18.8798   -9.0701  -12.0836 O   0  0  0  0  0  0  0  0  0  0  0  0
   19.1200   -6.7799  -12.1635 N   0  0  0  0  0  0  0  0  0  0  0  0
   20.4878   -6.8430  -12.7037 C   0  0  1  0  0  0  0  0  0  0  0  0
   20.3293   -7.3627  -14.1315 C   0  0  0  0  0  0  0  0  0  0  0  0
   21.9157   -7.2974  -14.9659 S   0  0  0  0  0  0  0  0  0  0  0  0
   21.1093   -5.5119  -12.6596 C   0  0  0  0  0  0  0  0  0  0  0  0
   20.3919   -4.5003  -12.8384 O   0  0  0  0  0  0  0  0  0  0  0  0
   22.4509   -5.2914  -12.4313 O   0  0  0  0  0  0  0  0  0  0  0  0
  2  1  1  6
  2  3  1  0
  4  2  1  0
  5  4  2  0
  7  6  1  0
  8  7  1  1
  8  9  1  0
  9  4  1  0
 10  8  1  0
 10 12  1  0
 11 10  2  0
 13 14  1  6
 13 12  1  0
 13 16  1  0
 14 15  1  0
 16 18  1  0
 17 16  2  0
M  END
$$$$
