ASC.pdb
     RDKit          3D

 18 17  0  0  1  0  0  0  0  0999 V2000
   17.2522   -9.7838  -17.8202 C   0  0  0  0  0  0  0  0  0  0  0  0
   18.4545  -10.4652  -17.2233 C   0  0  2  0  0  0  0  0  0  0  0  0
   18.1380  -11.7236  -16.6194 N   0  0  0  0  0  0  0  0  0  0  0  0
   19.1208   -9.5839  -16.2422 C   0  0  0  0  0  0  0  0  0  0  0  0
   18.4712   -8.7733  -15.5173 O   0  0  0  0  0  0  0  0  0  0  0  0
   22.5071  -10.7073  -14.2953 O   0  0  0  0  0  0  0  0  0  0  0  0
   22.5863   -9.4727  -14.8840 C   0  0  0  0  0  0  0  0  0  0  0  0
   21.2403   -8.8312  -15.1186 C   0  0  2  0  0  0  0  0  0  0  0  0
   20.5216   -9.6402  -16.1017 N   0  0  0  0  0  0  0  0  0  0  0  0
   21.3506   -7.4519  -15.6384 C   0  0  0  0  0  0  0  0  0  0  0  0
   21.0925   -7.1960  -16.8405 O   0  0  0  0  0  0  0  0  0  0  0  0
   21.7500   -6.4088  -14.7772 N   0  0  0  0  0  0  0  0  0  0  0  0
   21.8715   -5.0161  -15.2380 C   0  0  1  0  0  0  0  0  0  0  0  0
   20.4665   -4.6212  -15.6893 C   0  0  0  0  0  0  0  0  0  0  0  0
   20.4128   -2.8523  -15.9820 S   0  0  0  0  0  0  0  0  0  0  0  0
   22.3674   -4.1654  -14.1470 C   0  0  0  0  0  0  0  0  0  0  0  0
   22.0583   -4.4497  -12.9665 O   0  0  0  0  0  0  0  0  0  0  0  0
   23.1638   -3.0553  -14.3319 O   0  0  0  0  0  0  0  0  0  0  0  0
  2  1  1  1
  2  3  1  0
  4  2  1  0
  5  4  2  0
  7  6  1  0
  8  7  1  6
  8  9  1  0
  9  4  1  0
 10  8  1  0
 10 12  1  0
 11 10  2  0
 13 14  1  1
 13 12  1  0
 13 16  1  0
 14 15  1  0
 16 18  1  0
 17 16  2  0
M  END
$$$$
