ASC.pdb
     RDKit          3D

 18 17  0  0  1  0  0  0  0  0999 V2000
   26.6737  -24.4226  -17.4804 C   0  0  0  0  0  0  0  0  0  0  0  0
   27.6559  -23.2880  -17.6002 C   0  0  2  0  0  0  0  0  0  0  0  0
   28.9356  -23.7088  -18.0836 N   0  0  0  0  0  0  0  0  0  0  0  0
   27.8059  -22.5883  -16.3076 C   0  0  0  0  0  0  0  0  0  0  0  0
   28.4855  -23.0742  -15.3554 O   0  0  0  0  0  0  0  0  0  0  0  0
   25.8330  -18.8011  -15.5476 O   0  0  0  0  0  0  0  0  0  0  0  0
   27.1291  -19.1103  -15.2288 C   0  0  0  0  0  0  0  0  0  0  0  0
   27.3336  -20.5666  -14.8893 C   0  0  2  0  0  0  0  0  0  0  0  0
   27.1771  -21.3415  -16.1191 N   0  0  0  0  0  0  0  0  0  0  0  0
   26.3566  -21.0618  -13.8967 C   0  0  0  0  0  0  0  0  0  0  0  0
   25.3552  -21.7279  -14.2582 O   0  0  0  0  0  0  0  0  0  0  0  0
   26.5480  -20.7847  -12.5271 N   0  0  0  0  0  0  0  0  0  0  0  0
   25.5465  -21.1405  -11.5088 C   0  0  1  0  0  0  0  0  0  0  0  0
   26.1438  -20.6751  -10.1820 C   0  0  0  0  0  0  0  0  0  0  0  0
   24.9561  -20.9530   -8.8670 S   0  0  0  0  0  0  0  0  0  0  0  0
   24.2675  -20.4810  -11.8074 C   0  0  0  0  0  0  0  0  0  0  0  0
   24.2774  -19.3105  -12.2543 O   0  0  0  0  0  0  0  0  0  0  0  0
   23.0333  -21.0685  -11.6279 O   0  0  0  0  0  0  0  0  0  0  0  0
  2  1  1  1
  2  3  1  0
  4  2  1  0
  5  4  2  0
  7  6  1  0
  8  7  1  6
  8  9  1  0
  9  4  1  0
 10  8  1  0
 10 12  1  0
 11 10  2  0
 13 14  1  1
 13 12  1  0
 13 16  1  0
 14 15  1  0
 16 18  1  0
 17 16  2  0
M  END
$$$$
