ASC.pdb
     RDKit          3D

 18 17  0  0  1  0  0  0  0  0999 V2000
   26.9079  -15.9539  -15.9754 C   0  0  0  0  0  0  0  0  0  0  0  0
   25.9761  -17.0394  -16.4439 C   0  0  2  0  0  0  0  0  0  0  0  0
   24.9055  -16.5425  -17.2534 N   0  0  0  0  0  0  0  0  0  0  0  0
   25.4359  -17.7959  -15.2954 C   0  0  0  0  0  0  0  0  0  0  0  0
   24.5880  -17.2942  -14.4994 O   0  0  0  0  0  0  0  0  0  0  0  0
   26.4720  -21.8840  -14.8517 O   0  0  0  0  0  0  0  0  0  0  0  0
   25.2566  -21.3655  -14.4892 C   0  0  0  0  0  0  0  0  0  0  0  0
   25.3345  -19.9429  -13.9910 C   0  0  2  0  0  0  0  0  0  0  0  0
   25.8718  -19.1168  -15.0709 N   0  0  0  0  0  0  0  0  0  0  0  0
   26.2138  -19.8009  -12.8113 C   0  0  0  0  0  0  0  0  0  0  0  0
   27.4285  -19.5123  -12.9467 O   0  0  0  0  0  0  0  0  0  0  0  0
   25.6858  -19.9909  -11.5174 N   0  0  0  0  0  0  0  0  0  0  0  0
   26.5485  -20.1635  -10.3372 C   0  0  1  0  0  0  0  0  0  0  0  0
   25.7040  -19.6947   -9.1537 C   0  0  0  0  0  0  0  0  0  0  0  0
   26.6434  -19.8942   -7.6388 S   0  0  0  0  0  0  0  0  0  0  0  0
   26.9549  -21.5702  -10.2110 C   0  0  0  0  0  0  0  0  0  0  0  0
   26.1438  -22.4683  -10.5360 O   0  0  0  0  0  0  0  0  0  0  0  0
   28.1881  -21.9813   -9.7518 O   0  0  0  0  0  0  0  0  0  0  0  0
  2  1  1  1
  2  3  1  0
  4  2  1  0
  5  4  2  0
  7  6  1  0
  8  7  1  6
  8  9  1  0
  9  4  1  0
 10  8  1  0
 10 12  1  0
 11 10  2  0
 13 14  1  1
 13 12  1  0
 13 16  1  0
 14 15  1  0
 16 18  1  0
 17 16  2  0
M  END
$$$$
