ACT.pdb
     RDKit          3D

 19 18  0  0  1  0  0  0  0  0999 V2000
   15.9303  -13.5766  -18.8535 C   0  0  0  0  0  0  0  0  0  0  0  0
   16.8273  -12.3695  -18.9618 C   0  0  2  0  0  0  0  0  0  0  0  0
   18.1995  -12.7585  -19.1214 N   0  0  0  0  0  0  0  0  0  0  0  0
   16.6672  -11.4379  -17.8276 C   0  0  0  0  0  0  0  0  0  0  0  0
   15.5101  -11.0292  -17.5587 O   0  0  0  0  0  0  0  0  0  0  0  0
   17.7303  -10.9840  -17.0351 N   0  0  0  0  0  0  0  0  0  0  0  0
   17.6444  -10.0618  -15.9504 C   0  0  1  0  0  0  0  0  0  0  0  0
   18.2506  -10.5648  -14.6691 C   0  0  0  0  0  0  0  0  0  0  0  0
   17.2826  -11.9825  -14.0823 S   0  0  0  0  0  0  0  0  0  0  0  0
   18.2287   -8.7296  -16.3111 C   0  0  0  0  0  0  0  0  0  0  0  0
   19.3787   -8.6329  -16.7617 O   0  0  0  0  0  0  0  0  0  0  0  0
   16.1922   -5.7082  -18.1107 C   0  0  0  0  0  0  0  0  0  0  0  0
   16.9247   -5.2319  -16.8772 C   0  0  1  0  0  0  0  0  0  0  0  0
   16.0075   -5.2421  -15.8168 O   0  0  0  0  0  0  0  0  0  0  0  0
   17.9886   -6.2421  -16.5509 C   0  0  2  0  0  0  0  0  0  0  0  0
   17.4828   -7.5160  -16.1500 N   0  0  0  0  0  0  0  0  0  0  0  0
   18.8254   -5.6810  -15.4532 C   0  0  0  0  0  0  0  0  0  0  0  0
   18.8430   -6.2217  -14.3163 O   0  0  0  0  0  0  0  0  0  0  0  0
   19.6180   -4.5490  -15.6238 O   0  0  0  0  0  0  0  0  0  0  0  0
  2  1  1  1
  2  3  1  0
  4  5  2  0
  4  2  1  0
  6  4  1  0
  7  6  1  0
  7  8  1  1
  9  8  1  0
 10 11  2  0
 10  7  1  0
 13 12  1  6
 13 14  1  0
 15 13  1  0
 15 16  1  1
 16 10  1  0
 17 15  1  0
 18 17  2  0
 19 17  1  0
M  END
$$$$
