ACT.pdb
     RDKit          3D

 19 18  0  0  1  0  0  0  0  0999 V2000
   16.0764  -10.9351  -11.3228 C   0  0  0  0  0  0  0  0  0  0  0  0
   15.4419   -9.7033  -10.7282 C   0  0  2  0  0  0  0  0  0  0  0  0
   14.0755   -9.5728  -11.1473 N   0  0  0  0  0  0  0  0  0  0  0  0
   16.2064   -8.4736  -11.0166 C   0  0  0  0  0  0  0  0  0  0  0  0
   16.1099   -7.9748  -12.1656 O   0  0  0  0  0  0  0  0  0  0  0  0
   17.0324   -7.8319  -10.0837 N   0  0  0  0  0  0  0  0  0  0  0  0
   17.7158   -6.5936  -10.2682 C   0  0  1  0  0  0  0  0  0  0  0  0
   17.8547   -5.7773   -9.0126 C   0  0  0  0  0  0  0  0  0  0  0  0
   16.1986   -5.3448   -8.4113 S   0  0  0  0  0  0  0  0  0  0  0  0
   19.0571   -6.7934  -10.9064 C   0  0  0  0  0  0  0  0  0  0  0  0
   19.8378   -7.6661  -10.5015 O   0  0  0  0  0  0  0  0  0  0  0  0
   19.6291   -5.7171  -14.8994 C   0  0  0  0  0  0  0  0  0  0  0  0
   20.3915   -6.7881  -14.1531 C   0  0  1  0  0  0  0  0  0  0  0  0
   21.6320   -6.9376  -14.7892 O   0  0  0  0  0  0  0  0  0  0  0  0
   20.6648   -6.2807  -12.7651 C   0  0  2  0  0  0  0  0  0  0  0  0
   19.4904   -5.9852  -12.0082 N   0  0  0  0  0  0  0  0  0  0  0  0
   21.4905   -5.0465  -12.8879 C   0  0  0  0  0  0  0  0  0  0  0  0
   20.9956   -3.9141  -12.6473 O   0  0  0  0  0  0  0  0  0  0  0  0
   22.8295   -5.0800  -13.2685 O   0  0  0  0  0  0  0  0  0  0  0  0
  2  1  1  6
  2  3  1  0
  4  5  2  0
  4  2  1  0
  6  4  1  0
  7  6  1  0
  7  8  1  1
  9  8  1  0
 10 11  2  0
 10  7  1  0
 13 12  1  6
 13 14  1  0
 15 13  1  0
 15 16  1  6
 16 10  1  0
 17 15  1  0
 18 17  2  0
 19 17  1  0
M  END
$$$$
