ACT.pdb
     RDKit          3D

 19 18  0  0  1  0  0  0  0  0999 V2000
   14.3948  -11.4050  -14.2230 C   0  0  0  0  0  0  0  0  0  0  0  0
   15.8763  -11.1933  -14.4070 C   0  0  2  0  0  0  0  0  0  0  0  0
   16.5753  -12.4459  -14.4519 N   0  0  0  0  0  0  0  0  0  0  0  0
   16.4545  -10.2981  -13.3851 C   0  0  0  0  0  0  0  0  0  0  0  0
   16.5211  -10.7177  -12.2028 O   0  0  0  0  0  0  0  0  0  0  0  0
   16.9326   -9.0091  -13.6580 N   0  0  0  0  0  0  0  0  0  0  0  0
   17.5369   -8.1150  -12.7253 C   0  0  1  0  0  0  0  0  0  0  0  0
   18.6457   -7.2811  -13.3062 C   0  0  0  0  0  0  0  0  0  0  0  0
   20.2055   -8.1945  -13.1515 S   0  0  0  0  0  0  0  0  0  0  0  0
   16.5188   -7.2348  -12.0656 C   0  0  0  0  0  0  0  0  0  0  0  0
   15.5390   -6.8055  -12.6904 O   0  0  0  0  0  0  0  0  0  0  0  0
   15.0206   -7.6221   -8.3028 C   0  0  0  0  0  0  0  0  0  0  0  0
   15.5914   -6.2436   -8.5459 C   0  0  1  0  0  0  0  0  0  0  0  0
   16.9053   -6.2435   -8.0565 O   0  0  0  0  0  0  0  0  0  0  0  0
   15.6730   -6.0310  -10.0314 C   0  0  2  0  0  0  0  0  0  0  0  0
   16.6369   -6.8549  -10.6884 N   0  0  0  0  0  0  0  0  0  0  0  0
   16.0123   -4.5993  -10.2666 C   0  0  0  0  0  0  0  0  0  0  0  0
   17.1052   -4.2761  -10.8016 O   0  0  0  0  0  0  0  0  0  0  0  0
   15.1535   -3.5618   -9.9135 O   0  0  0  0  0  0  0  0  0  0  0  0
  2  1  1  1
  2  3  1  0
  4  5  2  0
  4  2  1  0
  6  4  1  0
  7  6  1  0
  7  8  1  6
  9  8  1  0
 10 11  2  0
 10  7  1  0
 13 12  1  6
 13 14  1  0
 15 13  1  0
 15 16  1  1
 16 10  1  0
 17 15  1  0
 18 17  2  0
 19 17  1  0
M  END
$$$$
