ACT.pdb
     RDKit          3D

 19 18  0  0  1  0  0  0  0  0999 V2000
   18.0334   -9.1466  -17.4247 C   0  0  0  0  0  0  0  0  0  0  0  0
   19.0840   -8.0922  -17.6659 C   0  0  2  0  0  0  0  0  0  0  0  0
   20.2557   -8.6595  -18.2700 N   0  0  0  0  0  0  0  0  0  0  0  0
   19.4273   -7.3405  -16.4424 C   0  0  0  0  0  0  0  0  0  0  0  0
   18.4958   -6.7777  -15.8149 O   0  0  0  0  0  0  0  0  0  0  0  0
   20.7308   -7.2190  -15.9418 N   0  0  0  0  0  0  0  0  0  0  0  0
   21.1253   -6.5062  -14.7710 C   0  0  1  0  0  0  0  0  0  0  0  0
   22.3745   -7.0365  -14.1226 C   0  0  0  0  0  0  0  0  0  0  0  0
   21.9979   -8.6335  -13.3488 S   0  0  0  0  0  0  0  0  0  0  0  0
   21.2647   -5.0383  -15.0394 C   0  0  0  0  0  0  0  0  0  0  0  0
   21.8809   -4.6218  -16.0302 O   0  0  0  0  0  0  0  0  0  0  0  0
   19.9374   -0.3893  -14.1415 C   0  0  0  0  0  0  0  0  0  0  0  0
   19.6950   -1.8397  -13.7913 C   0  0  1  0  0  0  0  0  0  0  0  0
   18.5022   -2.2269  -14.4183 O   0  0  0  0  0  0  0  0  0  0  0  0
   20.8001   -2.6549  -14.4018 C   0  0  2  0  0  0  0  0  0  0  0  0
   20.6923   -4.0587  -14.1631 N   0  0  0  0  0  0  0  0  0  0  0  0
   22.0899   -2.1616  -13.8423 C   0  0  0  0  0  0  0  0  0  0  0  0
   22.6254   -1.1125  -14.2870 O   0  0  0  0  0  0  0  0  0  0  0  0
   22.7592   -2.8233  -12.8161 O   0  0  0  0  0  0  0  0  0  0  0  0
  2  1  1  1
  2  3  1  0
  4  5  2  0
  4  2  1  0
  6  4  1  0
  7  6  1  0
  7  8  1  6
  9  8  1  0
 10 11  2  0
 10  7  1  0
 13 12  1  6
 13 14  1  0
 15 13  1  0
 15 16  1  1
 16 10  1  0
 17 15  1  0
 18 17  2  0
 19 17  1  0
M  END
$$$$
