ACT.pdb
     RDKit          3D

 19 18  0  0  1  0  0  0  0  0999 V2000
   17.5956  -11.2365  -18.7655 C   0  0  0  0  0  0  0  0  0  0  0  0
   18.4611  -10.0043  -18.8441 C   0  0  2  0  0  0  0  0  0  0  0  0
   19.4657  -10.1430  -19.8596 N   0  0  0  0  0  0  0  0  0  0  0  0
   19.0643   -9.6486  -17.5443 C   0  0  0  0  0  0  0  0  0  0  0  0
   18.2930   -9.3829  -16.5890 O   0  0  0  0  0  0  0  0  0  0  0  0
   20.4458   -9.5906  -17.3155 N   0  0  0  0  0  0  0  0  0  0  0  0
   21.0873   -9.2631  -16.0843 C   0  0  1  0  0  0  0  0  0  0  0  0
   22.3669  -10.0152  -15.8411 C   0  0  0  0  0  0  0  0  0  0  0  0
   23.0669   -9.4791  -14.2556 S   0  0  0  0  0  0  0  0  0  0  0  0
   21.3224   -7.7882  -15.9597 C   0  0  0  0  0  0  0  0  0  0  0  0
   21.9251   -7.1570  -16.8391 O   0  0  0  0  0  0  0  0  0  0  0  0
   20.0637   -3.4225  -14.3258 C   0  0  0  0  0  0  0  0  0  0  0  0
   19.7379   -4.8951  -14.4275 C   0  0  1  0  0  0  0  0  0  0  0  0
   18.9113   -5.0634  -15.5475 O   0  0  0  0  0  0  0  0  0  0  0  0
   21.0162   -5.6345  -14.7065 C   0  0  2  0  0  0  0  0  0  0  0  0
   20.8608   -7.0494  -14.8212 N   0  0  0  0  0  0  0  0  0  0  0  0
   21.9646   -5.3353  -13.5969 C   0  0  0  0  0  0  0  0  0  0  0  0
   21.9783   -6.0405  -12.5540 O   0  0  0  0  0  0  0  0  0  0  0  0
   22.8696   -4.2787  -13.6541 O   0  0  0  0  0  0  0  0  0  0  0  0
  2  1  1  1
  2  3  1  0
  4  5  2  0
  4  2  1  0
  6  4  1  0
  7  6  1  0
  7  8  1  6
  9  8  1  0
 10 11  2  0
 10  7  1  0
 13 12  1  6
 13 14  1  0
 15 13  1  0
 15 16  1  1
 16 10  1  0
 17 15  1  0
 18 17  2  0
 19 17  1  0
M  END
$$$$
