HLD.pdb
     RDKit          3D

 27 27  0  0  1  0  0  0  0  0999 V2000
   18.3943  -11.2945  -19.5382 N   0  0  0  0  0  0  0  0  0  0  0  0
   19.1948  -10.0993  -19.3762 C   0  0  1  0  0  0  0  0  0  0  0  0
   18.3429   -8.9142  -19.7516 C   0  0  0  0  0  0  0  0  0  0  0  0
   18.0677   -9.0114  -21.2282 C   0  0  0  0  0  0  0  0  0  0  0  0
   16.8232   -9.1990  -21.7803 C   0  0  0  0  0  0  0  0  0  0  0  0
   16.9646   -9.2357  -23.1311 N   0  0  0  0  0  0  0  0  0  0  0  0
   18.2627   -9.0748  -23.4024 C   0  0  0  0  0  0  0  0  0  0  0  0
   18.9402   -8.9375  -22.2439 N   0  0  0  0  0  0  0  0  0  0  0  0
   19.6554   -9.9284  -17.9756 C   0  0  0  0  0  0  0  0  0  0  0  0
   18.9798  -10.3511  -17.0294 O   0  0  0  0  0  0  0  0  0  0  0  0
   22.4497   -9.9812  -13.6537 C   0  0  0  0  0  0  0  0  0  0  0  0
   23.3039   -9.7307  -14.8438 C   0  0  1  0  0  0  0  0  0  0  0  0
   24.5705  -10.5757  -14.8100 C   0  0  0  0  0  0  0  0  0  0  0  0
   22.6391   -9.8793  -16.1809 C   0  0  0  0  0  0  0  0  0  0  0  0
   21.4294   -9.0404  -16.4085 C   0  0  2  0  0  0  0  0  0  0  0  0
   20.8773   -9.2773  -17.7057 N   0  0  0  0  0  0  0  0  0  0  0  0
   21.6690   -7.6035  -16.1400 C   0  0  0  0  0  0  0  0  0  0  0  0
   22.4901   -6.9745  -16.8405 O   0  0  0  0  0  0  0  0  0  0  0  0
   20.9923   -6.9151  -15.1072 N   0  0  0  0  0  0  0  0  0  0  0  0
   21.1625   -5.4837  -14.8850 C   0  0  1  0  0  0  0  0  0  0  0  0
   19.9100   -4.8506  -14.3132 C   0  0  0  0  0  0  0  0  0  0  0  0
   18.8498   -4.7782  -15.3479 C   0  0  0  0  0  0  0  0  0  0  0  0
   19.0350   -4.4485  -16.5333 O   0  0  0  0  0  0  0  0  0  0  0  0
   22.2925   -5.3050  -13.9246 C   0  0  0  0  0  0  0  0  0  0  0  0
   22.9990   -4.1142  -13.8143 O   0  0  0  0  0  0  0  0  0  0  0  0
   17.5438   -5.1007  -14.9788 O   0  0  0  0  0  0  0  0  0  0  0  0
   22.6516   -6.2438  -13.1672 O   0  0  0  0  0  0  0  0  0  0  0  0
  2  3  1  0
  2  1  1  1
  4  8  1  0
  4  3  1  0
  5  4  2  0
  6  5  1  0
  6  7  1  0
  7  8  2  0
  9 10  2  0
  9  2  1  0
 12 14  1  0
 12 11  1  1
 13 12  1  0
 15 14  1  6
 15 16  1  0
 16  9  1  0
 17 18  2  0
 17 15  1  0
 19 17  1  0
 20 19  1  0
 20 21  1  1
 21 22  1  0
 22 26  1  0
 23 22  2  0
 24 25  1  0
 24 20  1  0
 27 24  2  0
M  END
$$$$
