HLD.pdb
     RDKit          3D

 27 27  0  0  1  0  0  0  0  0999 V2000
   20.4761  -10.7914  -18.4370 N   0  0  0  0  0  0  0  0  0  0  0  0
   19.3740  -10.9255  -17.5080 C   0  0  1  0  0  0  0  0  0  0  0  0
   18.8505  -12.3351  -17.6073 C   0  0  0  0  0  0  0  0  0  0  0  0
   18.0919  -12.4400  -18.9030 C   0  0  0  0  0  0  0  0  0  0  0  0
   17.8471  -11.3877  -19.7524 C   0  0  0  0  0  0  0  0  0  0  0  0
   17.1399  -11.8596  -20.8122 N   0  0  0  0  0  0  0  0  0  0  0  0
   16.9547  -13.1685  -20.6192 C   0  0  0  0  0  0  0  0  0  0  0  0
   17.5341  -13.5275  -19.4551 N   0  0  0  0  0  0  0  0  0  0  0  0
   19.7978  -10.6738  -16.1079 C   0  0  0  0  0  0  0  0  0  0  0  0
   19.0075  -10.8269  -15.1685 O   0  0  0  0  0  0  0  0  0  0  0  0
   24.2379   -8.9358  -15.8919 C   0  0  0  0  0  0  0  0  0  0  0  0
   23.9544  -10.3493  -15.5307 C   0  0  1  0  0  0  0  0  0  0  0  0
   25.2381  -11.1320  -15.2879 C   0  0  0  0  0  0  0  0  0  0  0  0
   23.0125  -10.5647  -14.3826 C   0  0  0  0  0  0  0  0  0  0  0  0
   21.6504   -9.9809  -14.5334 C   0  0  2  0  0  0  0  0  0  0  0  0
   21.1157  -10.2542  -15.8307 N   0  0  0  0  0  0  0  0  0  0  0  0
   21.6009   -8.5425  -14.1832 C   0  0  0  0  0  0  0  0  0  0  0  0
   22.0054   -8.1671  -13.0625 O   0  0  0  0  0  0  0  0  0  0  0  0
   21.1060   -7.5723  -15.0846 N   0  0  0  0  0  0  0  0  0  0  0  0
   20.9510   -6.1709  -14.7113 C   0  0  1  0  0  0  0  0  0  0  0  0
   22.2597   -5.4138  -14.8132 C   0  0  0  0  0  0  0  0  0  0  0  0
   22.0659   -3.9941  -14.4299 C   0  0  0  0  0  0  0  0  0  0  0  0
   20.9854   -3.4983  -14.0629 O   0  0  0  0  0  0  0  0  0  0  0  0
   19.9512   -5.5622  -15.6392 C   0  0  0  0  0  0  0  0  0  0  0  0
   19.1384   -4.4983  -15.2695 O   0  0  0  0  0  0  0  0  0  0  0  0
   23.1679   -3.1403  -14.4799 O   0  0  0  0  0  0  0  0  0  0  0  0
   19.8067   -5.9993  -16.8105 O   0  0  0  0  0  0  0  0  0  0  0  0
  2  3  1  0
  2  1  1  6
  4  8  1  0
  4  3  1  0
  5  4  2  0
  6  5  1  0
  6  7  1  0
  7  8  2  0
  9 10  2  0
  9  2  1  0
 12 14  1  0
 12 11  1  1
 13 12  1  0
 15 14  1  6
 15 16  1  0
 16  9  1  0
 17 18  2  0
 17 15  1  0
 19 17  1  0
 20 19  1  0
 20 21  1  6
 21 22  1  0
 22 26  1  0
 23 22  2  0
 24 25  1  0
 24 20  1  0
 27 24  2  0
M  END
$$$$
