HLD.pdb
     RDKit          3D

 27 27  0  0  1  0  0  0  0  0999 V2000
   26.4738  -21.4190  -17.9719 N   0  0  0  0  0  0  0  0  0  0  0  0
   26.5411  -20.0841  -18.5279 C   0  0  1  0  0  0  0  0  0  0  0  0
   25.8355  -20.0984  -19.8594 C   0  0  0  0  0  0  0  0  0  0  0  0
   24.4587  -20.6614  -19.6296 C   0  0  0  0  0  0  0  0  0  0  0  0
   24.1868  -21.7771  -18.8747 C   0  0  0  0  0  0  0  0  0  0  0  0
   22.8435  -21.9803  -18.8948 N   0  0  0  0  0  0  0  0  0  0  0  0
   22.3035  -21.0142  -19.6429 C   0  0  0  0  0  0  0  0  0  0  0  0
   23.2855  -20.2065  -20.0937 N   0  0  0  0  0  0  0  0  0  0  0  0
   25.8796  -19.0861  -17.6507 C   0  0  0  0  0  0  0  0  0  0  0  0
   25.1769  -19.4455  -16.6980 O   0  0  0  0  0  0  0  0  0  0  0  0
   25.8094  -14.6012  -14.7169 C   0  0  0  0  0  0  0  0  0  0  0  0
   26.0601  -14.3492  -16.1599 C   0  0  1  0  0  0  0  0  0  0  0  0
   27.0376  -13.1993  -16.3645 C   0  0  0  0  0  0  0  0  0  0  0  0
   26.5006  -15.5308  -16.9732 C   0  0  0  0  0  0  0  0  0  0  0  0
   25.5209  -16.6466  -17.0926 C   0  0  2  0  0  0  0  0  0  0  0  0
   26.0458  -17.7068  -17.8950 N   0  0  0  0  0  0  0  0  0  0  0  0
   24.1856  -16.1916  -17.5441 C   0  0  0  0  0  0  0  0  0  0  0  0
   23.9508  -16.0885  -18.7668 O   0  0  0  0  0  0  0  0  0  0  0  0
   23.1591  -15.8674  -16.6276 N   0  0  0  0  0  0  0  0  0  0  0  0
   21.8264  -15.4648  -17.0627 C   0  0  1  0  0  0  0  0  0  0  0  0
   20.7593  -15.8941  -16.0761 C   0  0  0  0  0  0  0  0  0  0  0  0
   20.4845  -17.3453  -16.2120 C   0  0  0  0  0  0  0  0  0  0  0  0
   20.1213  -17.9044  -17.2626 O   0  0  0  0  0  0  0  0  0  0  0  0
   21.8198  -13.9762  -17.1854 C   0  0  0  0  0  0  0  0  0  0  0  0
   20.8002  -13.2830  -17.8250 O   0  0  0  0  0  0  0  0  0  0  0  0
   20.6407  -18.1552  -15.0870 O   0  0  0  0  0  0  0  0  0  0  0  0
   22.7546  -13.2839  -16.7050 O   0  0  0  0  0  0  0  0  0  0  0  0
  2  3  1  0
  2  1  1  1
  4  8  1  0
  4  3  1  0
  5  4  2  0
  6  5  1  0
  6  7  1  0
  7  8  2  0
  9 10  2  0
  9  2  1  0
 12 14  1  0
 12 11  1  1
 13 12  1  0
 15 14  1  6
 15 16  1  0
 16  9  1  0
 17 18  2  0
 17 15  1  0
 19 17  1  0
 20 19  1  0
 20 21  1  1
 21 22  1  0
 22 26  1  0
 23 22  2  0
 24 25  1  0
 24 20  1  0
 27 24  2  0
M  END
$$$$
