HLD.pdb
     RDKit          3D

 27 27  0  0  1  0  0  0  0  0999 V2000
   19.6763  -11.7011  -17.7926 N   0  0  0  0  0  0  0  0  0  0  0  0
   19.1359  -11.6726  -16.4499 C   0  0  1  0  0  0  0  0  0  0  0  0
   19.1539  -13.0798  -15.9110 C   0  0  0  0  0  0  0  0  0  0  0  0
   18.0998  -13.8563  -16.6534 C   0  0  0  0  0  0  0  0  0  0  0  0
   16.7461  -13.7171  -16.4609 C   0  0  0  0  0  0  0  0  0  0  0  0
   16.1122  -14.5753  -17.3022 N   0  0  0  0  0  0  0  0  0  0  0  0
   17.0521  -15.2254  -17.9940 C   0  0  0  0  0  0  0  0  0  0  0  0
   18.2671  -14.7899  -17.6015 N   0  0  0  0  0  0  0  0  0  0  0  0
   19.9393  -10.8088  -15.5492 C   0  0  0  0  0  0  0  0  0  0  0  0
   19.6025  -10.6328  -14.3719 O   0  0  0  0  0  0  0  0  0  0  0  0
   23.4893  -11.7914  -14.5027 C   0  0  0  0  0  0  0  0  0  0  0  0
   24.1404  -10.4793  -14.7539 C   0  0  1  0  0  0  0  0  0  0  0  0
   25.5534  -10.6516  -15.2953 C   0  0  0  0  0  0  0  0  0  0  0  0
   23.3845   -9.5194  -15.6252 C   0  0  0  0  0  0  0  0  0  0  0  0
   21.9527   -9.3044  -15.2755 C   0  0  2  0  0  0  0  0  0  0  0  0
   21.1042  -10.1741  -16.0287 N   0  0  0  0  0  0  0  0  0  0  0  0
   21.5465   -7.8831  -15.3691 C   0  0  0  0  0  0  0  0  0  0  0  0
   22.0925   -7.0364  -14.6305 O   0  0  0  0  0  0  0  0  0  0  0  0
   20.5518   -7.4501  -16.2756 N   0  0  0  0  0  0  0  0  0  0  0  0
   20.1686   -6.0481  -16.3987 C   0  0  1  0  0  0  0  0  0  0  0  0
   19.7778   -5.6948  -17.8196 C   0  0  0  0  0  0  0  0  0  0  0  0
   20.9391   -5.1296  -18.5489 C   0  0  0  0  0  0  0  0  0  0  0  0
   22.0576   -4.9159  -18.0476 O   0  0  0  0  0  0  0  0  0  0  0  0
   19.0058   -5.8144  -15.4908 C   0  0  0  0  0  0  0  0  0  0  0  0
   18.9004   -4.6876  -14.6855 O   0  0  0  0  0  0  0  0  0  0  0  0
   20.7798   -4.8094  -19.8972 O   0  0  0  0  0  0  0  0  0  0  0  0
   18.0627   -6.6449  -15.4215 O   0  0  0  0  0  0  0  0  0  0  0  0
  2  3  1  0
  2  1  1  6
  4  8  1  0
  4  3  1  0
  5  4  2  0
  6  5  1  0
  6  7  1  0
  7  8  2  0
  9 10  2  0
  9  2  1  0
 12 14  1  0
 12 11  1  6
 13 12  1  0
 15 14  1  6
 15 16  1  0
 16  9  1  0
 17 18  2  0
 17 15  1  0
 19 17  1  0
 20 19  1  0
 20 21  1  6
 21 22  1  0
 22 26  1  0
 23 22  2  0
 24 25  1  0
 24 20  1  0
 27 24  2  0
M  END
$$$$
