HLD.pdb
     RDKit          3D

 27 27  0  0  1  0  0  0  0  0999 V2000
   20.3369  -12.6189  -16.1925 N   0  0  0  0  0  0  0  0  0  0  0  0
   21.1873  -11.7605  -16.9897 C   0  0  1  0  0  0  0  0  0  0  0  0
   20.3281  -11.0926  -18.0321 C   0  0  0  0  0  0  0  0  0  0  0  0
   19.8471  -12.1669  -18.9702 C   0  0  0  0  0  0  0  0  0  0  0  0
   18.5630  -12.6552  -19.0062 C   0  0  0  0  0  0  0  0  0  0  0  0
   18.5033  -13.6082  -19.9729 N   0  0  0  0  0  0  0  0  0  0  0  0
   19.7196  -13.7032  -20.5172 C   0  0  0  0  0  0  0  0  0  0  0  0
   20.5434  -12.8253  -19.9084 N   0  0  0  0  0  0  0  0  0  0  0  0
   21.8388  -10.7105  -16.1675 C   0  0  0  0  0  0  0  0  0  0  0  0
   21.3099  -10.2999  -15.1273 O   0  0  0  0  0  0  0  0  0  0  0  0
   27.3159  -10.6712  -16.5774 C   0  0  0  0  0  0  0  0  0  0  0  0
   25.9179  -10.5719  -16.0829 C   0  0  1  0  0  0  0  0  0  0  0  0
   25.7971  -11.0648  -14.6469 C   0  0  0  0  0  0  0  0  0  0  0  0
   25.2641   -9.2270  -16.2068 C   0  0  0  0  0  0  0  0  0  0  0  0
   23.8170   -9.1668  -15.8588 C   0  0  2  0  0  0  0  0  0  0  0  0
   23.0771  -10.1649  -16.5659 N   0  0  0  0  0  0  0  0  0  0  0  0
   23.2453   -7.8094  -16.0158 C   0  0  0  0  0  0  0  0  0  0  0  0
   23.6544   -6.8806  -15.2873 O   0  0  0  0  0  0  0  0  0  0  0  0
   22.2425   -7.5287  -16.9720 N   0  0  0  0  0  0  0  0  0  0  0  0
   21.6604   -6.1998  -17.1216 C   0  0  1  0  0  0  0  0  0  0  0  0
   21.0183   -6.0171  -18.4820 C   0  0  0  0  0  0  0  0  0  0  0  0
   20.4312   -4.6599  -18.5976 C   0  0  0  0  0  0  0  0  0  0  0  0
   19.2232   -4.3944  -18.4620 O   0  0  0  0  0  0  0  0  0  0  0  0
   20.6251   -6.0357  -16.0574 C   0  0  0  0  0  0  0  0  0  0  0  0
   20.0116   -7.1168  -15.4379 O   0  0  0  0  0  0  0  0  0  0  0  0
   21.2846   -3.5930  -18.8789 O   0  0  0  0  0  0  0  0  0  0  0  0
   20.2650   -4.8913  -15.6771 O   0  0  0  0  0  0  0  0  0  0  0  0
  2  3  1  0
  2  1  1  1
  4  8  1  0
  4  3  1  0
  5  4  2  0
  6  5  1  0
  6  7  1  0
  7  8  2  0
  9 10  2  0
  9  2  1  0
 12 14  1  0
 12 11  1  1
 13 12  1  0
 15 14  1  6
 15 16  1  0
 16  9  1  0
 17 18  2  0
 17 15  1  0
 19 17  1  0
 20 19  1  0
 20 21  1  6
 21 22  1  0
 22 26  1  0
 23 22  2  0
 24 25  1  0
 24 20  1  0
 27 24  2  0
M  END
$$$$
