HLD.pdb
     RDKit          3D

 27 27  0  0  1  0  0  0  0  0999 V2000
   26.4878  -19.7938  -14.5608 N   0  0  0  0  0  0  0  0  0  0  0  0
   26.1241  -21.1713  -14.8174 C   0  0  1  0  0  0  0  0  0  0  0  0
   27.3915  -21.9504  -15.0575 C   0  0  0  0  0  0  0  0  0  0  0  0
   28.0421  -21.3773  -16.2877 C   0  0  0  0  0  0  0  0  0  0  0  0
   27.5399  -20.3289  -17.0208 C   0  0  0  0  0  0  0  0  0  0  0  0
   28.3921  -20.0918  -18.0522 N   0  0  0  0  0  0  0  0  0  0  0  0
   29.3925  -20.9718  -17.9555 C   0  0  0  0  0  0  0  0  0  0  0  0
   29.1833  -21.7588  -16.8799 N   0  0  0  0  0  0  0  0  0  0  0  0
   25.4053  -21.7762  -13.6683 C   0  0  0  0  0  0  0  0  0  0  0  0
   25.0020  -22.9448  -13.7161 O   0  0  0  0  0  0  0  0  0  0  0  0
   26.5490  -19.5949   -8.9172 C   0  0  0  0  0  0  0  0  0  0  0  0
   26.1598  -20.4762  -10.0488 C   0  0  1  0  0  0  0  0  0  0  0  0
   26.9901  -21.7527  -10.0737 C   0  0  0  0  0  0  0  0  0  0  0  0
   24.7036  -20.8246  -10.1481 C   0  0  0  0  0  0  0  0  0  0  0  0
   24.2428  -21.3473  -11.4646 C   0  0  2  0  0  0  0  0  0  0  0  0
   25.1720  -21.0201  -12.5005 N   0  0  0  0  0  0  0  0  0  0  0  0
   22.8554  -20.9424  -11.7887 C   0  0  0  0  0  0  0  0  0  0  0  0
   21.9758  -20.9937  -10.9030 O   0  0  0  0  0  0  0  0  0  0  0  0
   22.4914  -20.4957  -13.0797 N   0  0  0  0  0  0  0  0  0  0  0  0
   21.1302  -20.0857  -13.4059 C   0  0  1  0  0  0  0  0  0  0  0  0
   21.0942  -19.1582  -14.6037 C   0  0  0  0  0  0  0  0  0  0  0  0
   19.6953  -18.7845  -14.9253 C   0  0  0  0  0  0  0  0  0  0  0  0
   18.9882  -18.0224  -14.2417 O   0  0  0  0  0  0  0  0  0  0  0  0
   20.3451  -21.3197  -13.7092 C   0  0  0  0  0  0  0  0  0  0  0  0
   19.0069  -21.4584  -13.3641 O   0  0  0  0  0  0  0  0  0  0  0  0
   19.1168  -19.3196  -16.0764 O   0  0  0  0  0  0  0  0  0  0  0  0
   20.8775  -22.2958  -14.2989 O   0  0  0  0  0  0  0  0  0  0  0  0
  2  3  1  0
  2  1  1  1
  4  8  1  0
  4  3  1  0
  5  4  2  0
  6  5  1  0
  6  7  1  0
  7  8  2  0
  9 10  2  0
  9  2  1  0
 12 14  1  0
 12 11  1  1
 13 12  1  0
 15 14  1  1
 15 16  1  0
 16  9  1  0
 17 18  2  0
 17 15  1  0
 19 17  1  0
 20 19  1  0
 20 21  1  6
 21 22  1  0
 22 26  1  0
 23 22  2  0
 24 25  1  0
 24 20  1  0
 27 24  2  0
M  END
$$$$
