THR.pdb
     RDKit          3D

 29 29  0  0  1  0  0  0  0  0999 V2000
   10.1722  -18.6950   15.2214 C   0  0  0  0  0  0  0  0  0  0  0  0
   10.2778  -17.7287   16.3580 C   0  0  1  0  0  0  0  0  0  0  0  0
    9.4272  -16.6295   16.2315 O   0  0  0  0  0  0  0  0  0  0  0  0
    9.8695  -18.4716   17.6368 C   0  0  2  0  0  0  0  0  0  0  0  0
    8.4673  -18.8429   17.5782 N   0  0  0  0  0  0  0  0  0  0  0  0
   10.1424  -17.5387   18.7609 C   0  0  0  0  0  0  0  0  0  0  0  0
   11.3063  -17.2016   19.0952 O   0  0  0  0  0  0  0  0  0  0  0  0
    9.0159  -17.0265   19.4637 N   0  0  0  0  0  0  0  0  0  0  0  0
    9.1251  -16.1674   20.6004 C   0  0  1  0  0  0  0  0  0  0  0  0
    7.8730  -15.3563   20.8365 C   0  0  0  0  0  0  0  0  0  0  0  0
    7.6682  -14.3337   19.7801 C   0  0  0  0  0  0  0  0  0  0  0  0
    8.1133  -13.0248   19.8467 C   0  0  0  0  0  0  0  0  0  0  0  0
    7.7483  -12.3810   18.7075 N   0  0  0  0  0  0  0  0  0  0  0  0
    7.0963  -13.2465   17.9454 C   0  0  0  0  0  0  0  0  0  0  0  0
    7.0482  -14.4258   18.5940 N   0  0  0  0  0  0  0  0  0  0  0  0
    9.4258  -17.0005   21.7982 C   0  0  0  0  0  0  0  0  0  0  0  0
    8.7481  -18.0407   22.0416 O   0  0  0  0  0  0  0  0  0  0  0  0
   14.8626  -21.7098   22.2614 N   0  0  0  0  0  0  0  0  0  0  0  0
   15.4979  -21.4527   23.4987 C   0  0  0  0  0  0  0  0  0  0  0  0
   16.1390  -22.3387   24.1486 N   0  0  0  0  0  0  0  0  0  0  0  0
   15.4114  -20.1491   24.0304 N   0  0  0  0  0  0  0  0  0  0  0  0
   14.7325  -19.0611   23.3539 C   0  0  0  0  0  0  0  0  0  0  0  0
   13.2916  -18.9449   23.8029 C   0  0  0  0  0  0  0  0  0  0  0  0
   12.5629  -17.8785   23.0597 C   0  0  0  0  0  0  0  0  0  0  0  0
   11.1195  -17.6986   23.4702 C   0  0  2  0  0  0  0  0  0  0  0  0
   10.4682  -16.6668   22.7018 N   0  0  0  0  0  0  0  0  0  0  0  0
   10.9697  -17.4912   24.9245 C   0  0  0  0  0  0  0  0  0  0  0  0
   10.5064  -16.4405   25.4027 O   0  0  0  0  0  0  0  0  0  0  0  0
   11.3537  -18.4907   25.7955 O   0  0  0  0  0  0  0  0  0  0  0  0
  2  1  1  6
  2  3  1  0
  4  2  1  0
  4  5  1  6
  6  4  1  0
  7  6  2  0
  8  6  1  0
  9  8  1  0
 10 11  1  0
  9 10  1  1
 11 15  1  0
 12 11  2  0
 12 13  1  0
 13 14  1  0
 15 14  2  0
 16  9  1  0
 16 17  2  0
 19 18  1  0
 20 19  2  0
 21 19  1  0
 22 21  1  0
 23 22  1  0
 25 24  1  1
 24 23  1  0
 25 26  1  0
 26 16  1  0
 27 25  1  0
 28 27  2  0
 29 27  1  0
M  END
$$$$
