THR.pdb
     RDKit          3D

 29 29  0  0  1  0  0  0  0  0999 V2000
    9.3778  -21.9793   17.3036 C   0  0  0  0  0  0  0  0  0  0  0  0
    9.2663  -20.9269   18.3603 C   0  0  1  0  0  0  0  0  0  0  0  0
    9.5842  -19.6471   17.9034 O   0  0  0  0  0  0  0  0  0  0  0  0
    7.8048  -20.8908   18.8256 C   0  0  2  0  0  0  0  0  0  0  0  0
    6.9286  -20.5781   17.7113 N   0  0  0  0  0  0  0  0  0  0  0  0
    7.7348  -19.8515   19.8856 C   0  0  0  0  0  0  0  0  0  0  0  0
    7.5356  -18.6366   19.6321 O   0  0  0  0  0  0  0  0  0  0  0  0
    7.9045  -20.2870   21.2298 N   0  0  0  0  0  0  0  0  0  0  0  0
    7.8047  -19.4128   22.3557 C   0  0  1  0  0  0  0  0  0  0  0  0
    7.5377  -20.1548   23.6440 C   0  0  0  0  0  0  0  0  0  0  0  0
    7.4094  -19.2310   24.7988 C   0  0  0  0  0  0  0  0  0  0  0  0
    7.4323  -17.8496   24.7153 C   0  0  0  0  0  0  0  0  0  0  0  0
    7.2888  -17.3343   25.9641 N   0  0  0  0  0  0  0  0  0  0  0  0
    7.1786  -18.3483   26.8095 C   0  0  0  0  0  0  0  0  0  0  0  0
    7.2516  -19.4937   26.1048 N   0  0  0  0  0  0  0  0  0  0  0  0
    9.0712  -18.6364   22.4681 C   0  0  0  0  0  0  0  0  0  0  0  0
   10.1902  -19.2184   22.3700 O   0  0  0  0  0  0  0  0  0  0  0  0
    6.7478  -12.6595   19.8061 N   0  0  0  0  0  0  0  0  0  0  0  0
    7.6265  -12.9996   18.7511 C   0  0  0  0  0  0  0  0  0  0  0  0
    7.2663  -13.0392   17.5316 N   0  0  0  0  0  0  0  0  0  0  0  0
    8.9640  -13.3085   19.0754 N   0  0  0  0  0  0  0  0  0  0  0  0
    9.4367  -13.4470   20.4391 C   0  0  0  0  0  0  0  0  0  0  0  0
    9.7271  -14.8933   20.7787 C   0  0  0  0  0  0  0  0  0  0  0  0
   10.0978  -15.0633   22.2120 C   0  0  0  0  0  0  0  0  0  0  0  0
   10.3129  -16.4964   22.6413 C   0  0  2  0  0  0  0  0  0  0  0  0
    9.0747  -17.2341   22.6866 N   0  0  0  0  0  0  0  0  0  0  0  0
   11.0705  -16.5976   23.9047 C   0  0  0  0  0  0  0  0  0  0  0  0
   12.2490  -16.2127   24.0066 O   0  0  0  0  0  0  0  0  0  0  0  0
   10.4614  -17.1366   25.0198 O   0  0  0  0  0  0  0  0  0  0  0  0
  2  1  1  6
  2  3  1  0
  4  2  1  0
  4  5  1  6
  6  4  1  0
  7  6  2  0
  8  6  1  0
  9  8  1  0
 10 11  1  0
  9 10  1  1
 11 15  1  0
 12 11  2  0
 12 13  1  0
 13 14  1  0
 15 14  2  0
 16  9  1  0
 16 17  2  0
 19 18  1  0
 20 19  2  0
 21 19  1  0
 22 21  1  0
 23 22  1  0
 25 24  1  1
 24 23  1  0
 25 26  1  0
 26 16  1  0
 27 25  1  0
 28 27  2  0
 29 27  1  0
M  END
$$$$
