THR.pdb
     RDKit          3D

 29 29  0  0  1  0  0  0  0  0999 V2000
    8.8917  -16.3468   19.3171 C   0  0  0  0  0  0  0  0  0  0  0  0
    9.1659  -15.0265   18.6704 C   0  0  1  0  0  0  0  0  0  0  0  0
    9.0089  -15.0455   17.2837 O   0  0  0  0  0  0  0  0  0  0  0  0
    8.1512  -14.0189   19.2264 C   0  0  2  0  0  0  0  0  0  0  0  0
    8.2020  -12.7819   18.4684 N   0  0  0  0  0  0  0  0  0  0  0  0
    8.5204  -13.8044   20.6499 C   0  0  0  0  0  0  0  0  0  0  0  0
    9.4270  -13.0086   21.0029 O   0  0  0  0  0  0  0  0  0  0  0  0
    7.7964  -14.5472   21.6242 N   0  0  0  0  0  0  0  0  0  0  0  0
    7.9514  -14.3544   23.0316 C   0  0  1  0  0  0  0  0  0  0  0  0
    6.6556  -13.9809   23.7118 C   0  0  0  0  0  0  0  0  0  0  0  0
    6.8605  -13.6315   25.1399 C   0  0  0  0  0  0  0  0  0  0  0  0
    8.0900  -13.5702   25.7726 C   0  0  0  0  0  0  0  0  0  0  0  0
    7.8960  -13.2211   27.0710 N   0  0  0  0  0  0  0  0  0  0  0  0
    6.5936  -13.0662   27.2576 C   0  0  0  0  0  0  0  0  0  0  0  0
    5.9687  -13.3144   26.0906 N   0  0  0  0  0  0  0  0  0  0  0  0
    8.4959  -15.6075   23.6256 C   0  0  0  0  0  0  0  0  0  0  0  0
    7.7625  -16.6314   23.7443 O   0  0  0  0  0  0  0  0  0  0  0  0
   12.8380  -18.4599   29.2422 N   0  0  0  0  0  0  0  0  0  0  0  0
   11.9085  -17.8123   30.0892 C   0  0  0  0  0  0  0  0  0  0  0  0
   11.7771  -18.0952   31.3226 N   0  0  0  0  0  0  0  0  0  0  0  0
   11.0919  -16.8065   29.5316 N   0  0  0  0  0  0  0  0  0  0  0  0
   11.0983  -16.4726   28.1207 C   0  0  0  0  0  0  0  0  0  0  0  0
   10.1620  -15.3214   27.8213 C   0  0  0  0  0  0  0  0  0  0  0  0
   10.1819  -14.9507   26.3781 C   0  0  0  0  0  0  0  0  0  0  0  0
   10.1223  -16.1227   25.4258 C   0  0  2  0  0  0  0  0  0  0  0  0
    9.8384  -15.7027   24.0759 N   0  0  0  0  0  0  0  0  0  0  0  0
    9.1988  -17.1777   25.8889 C   0  0  0  0  0  0  0  0  0  0  0  0
    8.2193  -16.9327   26.6156 O   0  0  0  0  0  0  0  0  0  0  0  0
    9.4187  -18.4864   25.5096 O   0  0  0  0  0  0  0  0  0  0  0  0
  2  1  1  1
  2  3  1  0
  4  2  1  0
  4  5  1  6
  6  4  1  0
  7  6  2  0
  8  6  1  0
  9  8  1  0
 10 11  1  0
  9 10  1  1
 11 15  1  0
 12 11  2  0
 12 13  1  0
 13 14  1  0
 15 14  2  0
 16  9  1  0
 16 17  2  0
 19 18  1  0
 20 19  2  0
 21 19  1  0
 22 21  1  0
 23 22  1  0
 25 24  1  1
 24 23  1  0
 25 26  1  0
 26 16  1  0
 27 25  1  0
 28 27  2  0
 29 27  1  0
M  END
$$$$
