THR.pdb
     RDKit          3D

 29 29  0  0  1  0  0  0  0  0999 V2000
    7.0703  -14.4364   17.2810 C   0  0  0  0  0  0  0  0  0  0  0  0
    7.9625  -14.5709   18.4736 C   0  0  1  0  0  0  0  0  0  0  0  0
    9.3204  -14.4917   18.1615 O   0  0  0  0  0  0  0  0  0  0  0  0
    7.6477  -13.4060   19.4212 C   0  0  2  0  0  0  0  0  0  0  0  0
    7.9467  -12.1389   18.7790 N   0  0  0  0  0  0  0  0  0  0  0  0
    8.4863  -13.6188   20.6295 C   0  0  0  0  0  0  0  0  0  0  0  0
    9.5591  -12.9950   20.8289 O   0  0  0  0  0  0  0  0  0  0  0  0
    8.0240  -14.5750   21.5767 N   0  0  0  0  0  0  0  0  0  0  0  0
    8.7869  -14.9848   22.7134 C   0  0  1  0  0  0  0  0  0  0  0  0
    7.9598  -15.7445   23.7235 C   0  0  0  0  0  0  0  0  0  0  0  0
    7.1517  -14.8349   24.5738 C   0  0  0  0  0  0  0  0  0  0  0  0
    7.2361  -13.4535   24.5604 C   0  0  0  0  0  0  0  0  0  0  0  0
    6.3534  -12.9533   25.4638 N   0  0  0  0  0  0  0  0  0  0  0  0
    5.7313  -13.9766   26.0302 C   0  0  0  0  0  0  0  0  0  0  0  0
    6.2141  -15.1129   25.4921 N   0  0  0  0  0  0  0  0  0  0  0  0
    9.9209  -15.8297   22.2447 C   0  0  0  0  0  0  0  0  0  0  0  0
    9.7237  -16.7627   21.4134 O   0  0  0  0  0  0  0  0  0  0  0  0
   15.6365  -12.8996   17.0563 N   0  0  0  0  0  0  0  0  0  0  0  0
   16.1482  -14.1967   17.2934 C   0  0  0  0  0  0  0  0  0  0  0  0
   17.0582  -14.7264   16.5794 N   0  0  0  0  0  0  0  0  0  0  0  0
   15.6186  -14.9312   18.3748 N   0  0  0  0  0  0  0  0  0  0  0  0
   14.4667  -14.4954   19.1399 C   0  0  0  0  0  0  0  0  0  0  0  0
   14.0725  -15.5234   20.1787 C   0  0  0  0  0  0  0  0  0  0  0  0
   12.8633  -15.1053   20.9425 C   0  0  0  0  0  0  0  0  0  0  0  0
   12.3645  -16.1251   21.9402 C   0  0  2  0  0  0  0  0  0  0  0  0
   11.2482  -15.6262   22.7044 N   0  0  0  0  0  0  0  0  0  0  0  0
   13.4451  -16.6437   22.8026 C   0  0  0  0  0  0  0  0  0  0  0  0
   14.1671  -15.8966   23.4867 O   0  0  0  0  0  0  0  0  0  0  0  0
   13.6730  -18.0037   22.8610 O   0  0  0  0  0  0  0  0  0  0  0  0
  2  1  1  6
  2  3  1  0
  4  2  1  0
  4  5  1  6
  6  4  1  0
  7  6  2  0
  8  6  1  0
  9  8  1  0
 10 11  1  0
  9 10  1  1
 11 15  1  0
 12 11  2  0
 12 13  1  0
 13 14  1  0
 15 14  2  0
 16  9  1  0
 16 17  2  0
 19 18  1  0
 20 19  2  0
 21 19  1  0
 22 21  1  0
 23 22  1  0
 25 24  1  1
 24 23  1  0
 25 26  1  0
 26 16  1  0
 27 25  1  0
 28 27  2  0
 29 27  1  0
M  END
$$$$
