THR.pdb
     RDKit          3D

 29 29  0  0  1  0  0  0  0  0999 V2000
   11.5320  -20.2394   14.7807 C   0  0  0  0  0  0  0  0  0  0  0  0
   11.4458  -19.2506   15.8994 C   0  0  1  0  0  0  0  0  0  0  0  0
   12.3662  -19.4883   16.9211 O   0  0  0  0  0  0  0  0  0  0  0  0
   11.7621  -17.8660   15.3191 C   0  0  2  0  0  0  0  0  0  0  0  0
   13.1196  -17.8326   14.8058 N   0  0  0  0  0  0  0  0  0  0  0  0
   11.5735  -16.8993   16.4319 C   0  0  0  0  0  0  0  0  0  0  0  0
   12.5206  -16.5130   17.1625 O   0  0  0  0  0  0  0  0  0  0  0  0
   10.2538  -16.4129   16.6488 N   0  0  0  0  0  0  0  0  0  0  0  0
    9.8999  -15.5679   17.7455 C   0  0  1  0  0  0  0  0  0  0  0  0
    8.4983  -15.0182   17.6251 C   0  0  0  0  0  0  0  0  0  0  0  0
    8.1496  -14.1356   18.7665 C   0  0  0  0  0  0  0  0  0  0  0  0
    8.9732  -13.8758   19.8482 C   0  0  0  0  0  0  0  0  0  0  0  0
    8.3295  -13.0293   20.6937 N   0  0  0  0  0  0  0  0  0  0  0  0
    7.1425  -12.7607   20.1704 C   0  0  0  0  0  0  0  0  0  0  0  0
    7.0345  -13.4294   19.0063 N   0  0  0  0  0  0  0  0  0  0  0  0
   10.0350  -16.3468   19.0081 C   0  0  0  0  0  0  0  0  0  0  0  0
    9.9029  -17.6050   19.0019 O   0  0  0  0  0  0  0  0  0  0  0  0
   14.5545  -21.7465   22.1113 N   0  0  0  0  0  0  0  0  0  0  0  0
   13.1465  -21.8118   22.2289 C   0  0  0  0  0  0  0  0  0  0  0  0
   12.4983  -22.9065   22.2244 N   0  0  0  0  0  0  0  0  0  0  0  0
   12.4347  -20.6008   22.3564 N   0  0  0  0  0  0  0  0  0  0  0  0
   13.0485  -19.2989   22.1812 C   0  0  0  0  0  0  0  0  0  0  0  0
   12.0843  -18.1832   22.5231 C   0  0  0  0  0  0  0  0  0  0  0  0
   11.8207  -17.2993   21.3526 C   0  0  0  0  0  0  0  0  0  0  0  0
   10.5303  -16.5165   21.4325 C   0  0  2  0  0  0  0  0  0  0  0  0
   10.3128  -15.7196   20.2506 N   0  0  0  0  0  0  0  0  0  0  0  0
   10.4321  -15.7183   22.6708 C   0  0  0  0  0  0  0  0  0  0  0  0
   10.5859  -16.2189   23.7992 O   0  0  0  0  0  0  0  0  0  0  0  0
   10.1603  -14.3677   22.5878 O   0  0  0  0  0  0  0  0  0  0  0  0
  2  1  1  6
  2  3  1  0
  4  2  1  0
  4  5  1  1
  6  4  1  0
  7  6  2  0
  8  6  1  0
  9  8  1  0
 10 11  1  0
  9 10  1  6
 11 15  1  0
 12 11  2  0
 12 13  1  0
 13 14  1  0
 15 14  2  0
 16  9  1  0
 16 17  2  0
 19 18  1  0
 20 19  2  0
 21 19  1  0
 22 21  1  0
 23 22  1  0
 25 24  1  6
 24 23  1  0
 25 26  1  0
 26 16  1  0
 27 25  1  0
 28 27  2  0
 29 27  1  0
M  END
$$$$
