THR.pdb
     RDKit          3D

 29 29  0  0  1  0  0  0  0  0999 V2000
   11.8951  -20.0513   20.3507 C   0  0  0  0  0  0  0  0  0  0  0  0
   12.2584  -19.0261   19.3243 C   0  0  1  0  0  0  0  0  0  0  0  0
   12.6365  -19.5781   18.0995 O   0  0  0  0  0  0  0  0  0  0  0  0
   11.0138  -18.1664   19.0677 C   0  0  2  0  0  0  0  0  0  0  0  0
   11.1546  -17.4346   17.8219 N   0  0  0  0  0  0  0  0  0  0  0  0
   10.8987  -17.2494   20.2315 C   0  0  0  0  0  0  0  0  0  0  0  0
   11.8936  -16.8810   20.9057 O   0  0  0  0  0  0  0  0  0  0  0  0
    9.5938  -16.7904   20.5659 N   0  0  0  0  0  0  0  0  0  0  0  0
    9.3157  -15.9871   21.7146 C   0  0  1  0  0  0  0  0  0  0  0  0
    7.9491  -15.3463   21.6569 C   0  0  0  0  0  0  0  0  0  0  0  0
    7.8346  -14.3865   20.5303 C   0  0  0  0  0  0  0  0  0  0  0  0
    8.8589  -14.0626   19.6576 C   0  0  0  0  0  0  0  0  0  0  0  0
    8.3957  -13.1561   18.7580 N   0  0  0  0  0  0  0  0  0  0  0  0
    7.1260  -12.9126   19.0469 C   0  0  0  0  0  0  0  0  0  0  0  0
    6.7878  -13.6561   20.1177 N   0  0  0  0  0  0  0  0  0  0  0  0
    9.4269  -16.8414   22.9299 C   0  0  0  0  0  0  0  0  0  0  0  0
    8.9468  -18.0119   22.9363 O   0  0  0  0  0  0  0  0  0  0  0  0
   14.3141  -22.2683   22.2710 N   0  0  0  0  0  0  0  0  0  0  0  0
   13.2010  -22.7482   22.9999 C   0  0  0  0  0  0  0  0  0  0  0  0
   12.8851  -23.9793   23.0564 N   0  0  0  0  0  0  0  0  0  0  0  0
   12.4084  -21.8104   23.6941 N   0  0  0  0  0  0  0  0  0  0  0  0
   12.5980  -20.3771   23.5839 C   0  0  0  0  0  0  0  0  0  0  0  0
   11.5480  -19.6192   24.3677 C   0  0  0  0  0  0  0  0  0  0  0  0
   11.7544  -18.1454   24.2912 C   0  0  0  0  0  0  0  0  0  0  0  0
   10.7028  -17.3243   25.0012 C   0  0  2  0  0  0  0  0  0  0  0  0
   10.0656  -16.3848   24.1122 N   0  0  0  0  0  0  0  0  0  0  0  0
   11.2244  -16.6750   26.2205 C   0  0  0  0  0  0  0  0  0  0  0  0
   11.7456  -17.3206   27.1473 O   0  0  0  0  0  0  0  0  0  0  0  0
   11.1368  -15.3036   26.3493 O   0  0  0  0  0  0  0  0  0  0  0  0
  2  1  1  1
  2  3  1  0
  4  2  1  0
  4  5  1  6
  6  4  1  0
  7  6  2  0
  8  6  1  0
  9  8  1  0
 10 11  1  0
  9 10  1  6
 11 15  1  0
 12 11  2  0
 12 13  1  0
 13 14  1  0
 15 14  2  0
 16  9  1  0
 16 17  2  0
 19 18  1  0
 20 19  2  0
 21 19  1  0
 22 21  1  0
 23 22  1  0
 25 24  1  6
 24 23  1  0
 25 26  1  0
 26 16  1  0
 27 25  1  0
 28 27  2  0
 29 27  1  0
M  END
$$$$
