THR.pdb
     RDKit          3D

 29 29  0  0  1  0  0  0  0  0999 V2000
    7.8784  -20.4481   20.1027 C   0  0  0  0  0  0  0  0  0  0  0  0
    8.1693  -19.1219   20.7297 C   0  0  1  0  0  0  0  0  0  0  0  0
    9.0493  -19.2009   21.8101 O   0  0  0  0  0  0  0  0  0  0  0  0
    8.8384  -18.2430   19.6649 C   0  0  2  0  0  0  0  0  0  0  0  0
   10.0785  -18.8502   19.2167 N   0  0  0  0  0  0  0  0  0  0  0  0
    9.0755  -16.9243   20.3078 C   0  0  0  0  0  0  0  0  0  0  0  0
   10.1782  -16.6090   20.8223 O   0  0  0  0  0  0  0  0  0  0  0  0
    7.9871  -16.0075   20.3224 N   0  0  0  0  0  0  0  0  0  0  0  0
    8.0345  -14.7447   20.9897 C   0  0  1  0  0  0  0  0  0  0  0  0
    7.3343  -13.6532   20.2153 C   0  0  0  0  0  0  0  0  0  0  0  0
    7.8885  -13.5025   18.8465 C   0  0  0  0  0  0  0  0  0  0  0  0
    8.9435  -14.2367   18.3331 C   0  0  0  0  0  0  0  0  0  0  0  0
    9.1769  -13.8322   17.0573 N   0  0  0  0  0  0  0  0  0  0  0  0
    8.3043  -12.8777   16.7699 C   0  0  0  0  0  0  0  0  0  0  0  0
    7.5263  -12.6790   17.8512 N   0  0  0  0  0  0  0  0  0  0  0  0
    7.4122  -14.8946   22.3348 C   0  0  0  0  0  0  0  0  0  0  0  0
    6.2736  -15.4324   22.4576 O   0  0  0  0  0  0  0  0  0  0  0  0
    7.1430  -21.5894   25.4900 N   0  0  0  0  0  0  0  0  0  0  0  0
    6.9014  -20.9250   26.7150 C   0  0  0  0  0  0  0  0  0  0  0  0
    6.7224  -21.5383   27.8152 N   0  0  0  0  0  0  0  0  0  0  0  0
    6.8579  -19.5153   26.7077 N   0  0  0  0  0  0  0  0  0  0  0  0
    6.9578  -18.7260   25.4955 C   0  0  0  0  0  0  0  0  0  0  0  0
    6.8950  -17.2435   25.7949 C   0  0  0  0  0  0  0  0  0  0  0  0
    7.0659  -16.4209   24.5642 C   0  0  0  0  0  0  0  0  0  0  0  0
    7.9041  -15.1770   24.7493 C   0  0  2  0  0  0  0  0  0  0  0  0
    8.0603  -14.4472   23.5155 N   0  0  0  0  0  0  0  0  0  0  0  0
    9.1996  -15.4628   25.3976 C   0  0  0  0  0  0  0  0  0  0  0  0
    9.3027  -15.6564   26.6221 O   0  0  0  0  0  0  0  0  0  0  0  0
   10.3449  -15.5200   24.6294 O   0  0  0  0  0  0  0  0  0  0  0  0
  2  1  1  6
  2  3  1  0
  4  2  1  0
  4  5  1  1
  6  4  1  0
  7  6  2  0
  8  6  1  0
  9  8  1  0
 10 11  1  0
  9 10  1  6
 11 15  1  0
 12 11  2  0
 12 13  1  0
 13 14  1  0
 15 14  2  0
 16  9  1  0
 16 17  2  0
 19 18  1  0
 20 19  2  0
 21 19  1  0
 22 21  1  0
 23 22  1  0
 25 24  1  6
 24 23  1  0
 25 26  1  0
 26 16  1  0
 27 25  1  0
 28 27  2  0
 29 27  1  0
M  END
$$$$
