THR.pdb
     RDKit          3D

 29 29  0  0  1  0  0  0  0  0999 V2000
    7.0976  -14.2955   17.1889 C   0  0  0  0  0  0  0  0  0  0  0  0
    7.8491  -14.6847   18.4219 C   0  0  1  0  0  0  0  0  0  0  0  0
    9.1513  -15.1155   18.1642 O   0  0  0  0  0  0  0  0  0  0  0  0
    7.9525  -13.4403   19.3133 C   0  0  2  0  0  0  0  0  0  0  0  0
    8.5575  -12.3435   18.5796 N   0  0  0  0  0  0  0  0  0  0  0  0
    8.7785  -13.8381   20.4829 C   0  0  0  0  0  0  0  0  0  0  0  0
   10.0145  -13.6186   20.5465 O   0  0  0  0  0  0  0  0  0  0  0  0
    8.1084  -14.4915   21.5550 N   0  0  0  0  0  0  0  0  0  0  0  0
    8.7828  -14.9989   22.7082 C   0  0  1  0  0  0  0  0  0  0  0  0
    7.8283  -15.4062   23.8056 C   0  0  0  0  0  0  0  0  0  0  0  0
    7.3883  -14.2435   24.6167 C   0  0  0  0  0  0  0  0  0  0  0  0
    7.8065  -12.9383   24.4234 C   0  0  0  0  0  0  0  0  0  0  0  0
    7.2016  -12.1449   25.3454 N   0  0  0  0  0  0  0  0  0  0  0  0
    6.4283  -12.9151   26.0963 C   0  0  0  0  0  0  0  0  0  0  0  0
    6.5417  -14.1827   25.6556 N   0  0  0  0  0  0  0  0  0  0  0  0
    9.6144  -16.1647   22.2975 C   0  0  0  0  0  0  0  0  0  0  0  0
    9.3691  -16.7781   21.2186 O   0  0  0  0  0  0  0  0  0  0  0  0
   14.4069  -14.5033   16.9616 N   0  0  0  0  0  0  0  0  0  0  0  0
   15.4665  -14.6025   17.8933 C   0  0  0  0  0  0  0  0  0  0  0  0
   16.6627  -14.2628   17.6248 N   0  0  0  0  0  0  0  0  0  0  0  0
   15.1743  -15.1034   19.1791 N   0  0  0  0  0  0  0  0  0  0  0  0
   13.8243  -15.2252   19.6939 C   0  0  0  0  0  0  0  0  0  0  0  0
   13.8155  -15.8208   21.0855 C   0  0  0  0  0  0  0  0  0  0  0  0
   12.4988  -15.6385   21.7589 C   0  0  0  0  0  0  0  0  0  0  0  0
   11.9872  -16.8622   22.4836 C   0  0  2  0  0  0  0  0  0  0  0  0
   10.6987  -16.6282   23.0872 N   0  0  0  0  0  0  0  0  0  0  0  0
   12.9685  -17.3954   23.4495 C   0  0  0  0  0  0  0  0  0  0  0  0
   12.9127  -17.1383   24.6654 O   0  0  0  0  0  0  0  0  0  0  0  0
   13.9890  -18.2091   23.0008 O   0  0  0  0  0  0  0  0  0  0  0  0
  2  1  1  6
  2  3  1  0
  4  2  1  0
  4  5  1  6
  6  4  1  0
  7  6  2  0
  8  6  1  0
  9  8  1  0
 10 11  1  0
  9 10  1  1
 11 15  1  0
 12 11  2  0
 12 13  1  0
 13 14  1  0
 15 14  2  0
 16  9  1  0
 16 17  2  0
 19 18  1  0
 20 19  2  0
 21 19  1  0
 22 21  1  0
 23 22  1  0
 25 24  1  1
 24 23  1  0
 25 26  1  0
 26 16  1  0
 27 25  1  0
 28 27  2  0
 29 27  1  0
M  END
$$$$
