THR.pdb
     RDKit          3D

 29 29  0  0  1  0  0  0  0  0999 V2000
   10.0702  -20.0468   16.7401 C   0  0  0  0  0  0  0  0  0  0  0  0
   10.4139  -19.2245   17.9411 C   0  0  1  0  0  0  0  0  0  0  0  0
   11.6818  -19.4988   18.4559 O   0  0  0  0  0  0  0  0  0  0  0  0
   10.4095  -17.7519   17.5108 C   0  0  2  0  0  0  0  0  0  0  0  0
   11.4494  -17.5111   16.5269 N   0  0  0  0  0  0  0  0  0  0  0  0
   10.6325  -16.9598   18.7483 C   0  0  0  0  0  0  0  0  0  0  0  0
   11.7622  -16.5162   19.0752 O   0  0  0  0  0  0  0  0  0  0  0  0
    9.4979  -16.7135   19.5712 N   0  0  0  0  0  0  0  0  0  0  0  0
    9.5170  -15.8199   20.6861 C   0  0  1  0  0  0  0  0  0  0  0  0
    8.1632  -15.2102   20.9637 C   0  0  0  0  0  0  0  0  0  0  0  0
    7.6767  -14.3979   19.8205 C   0  0  0  0  0  0  0  0  0  0  0  0
    7.9957  -13.0693   19.5995 C   0  0  0  0  0  0  0  0  0  0  0  0
    7.3750  -12.6543   18.4646 N   0  0  0  0  0  0  0  0  0  0  0  0
    6.6877  -13.6789   17.9820 C   0  0  0  0  0  0  0  0  0  0  0  0
    6.8704  -14.7318   18.8017 N   0  0  0  0  0  0  0  0  0  0  0  0
    9.9955  -16.5650   21.8840 C   0  0  0  0  0  0  0  0  0  0  0  0
    9.4306  -17.6405   22.2373 O   0  0  0  0  0  0  0  0  0  0  0  0
   16.1075  -14.4049   20.2938 N   0  0  0  0  0  0  0  0  0  0  0  0
   16.7410  -14.5675   21.5479 C   0  0  0  0  0  0  0  0  0  0  0  0
   17.7744  -13.9118   21.8952 N   0  0  0  0  0  0  0  0  0  0  0  0
   16.1947  -15.5037   22.4505 N   0  0  0  0  0  0  0  0  0  0  0  0
   15.0171  -16.2959   22.1540 C   0  0  0  0  0  0  0  0  0  0  0  0
   13.8637  -15.9329   23.0647 C   0  0  0  0  0  0  0  0  0  0  0  0
   13.1271  -17.1397   23.5355 C   0  0  0  0  0  0  0  0  0  0  0  0
   11.6380  -16.9431   23.7035 C   0  0  2  0  0  0  0  0  0  0  0  0
   11.0873  -16.1065   22.6662 N   0  0  0  0  0  0  0  0  0  0  0  0
   11.2824  -16.4655   25.0547 C   0  0  0  0  0  0  0  0  0  0  0  0
   11.6354  -17.0642   26.0864 O   0  0  0  0  0  0  0  0  0  0  0  0
   10.5320  -15.3154   25.1922 O   0  0  0  0  0  0  0  0  0  0  0  0
  2  1  1  6
  2  3  1  0
  4  2  1  0
  4  5  1  6
  6  4  1  0
  7  6  2  0
  8  6  1  0
  9  8  1  0
 10 11  1  0
  9 10  1  1
 11 15  1  0
 12 11  2  0
 12 13  1  0
 13 14  1  0
 15 14  2  0
 16  9  1  0
 16 17  2  0
 19 18  1  0
 20 19  2  0
 21 19  1  0
 22 21  1  0
 23 22  1  0
 25 24  1  1
 24 23  1  0
 25 26  1  0
 26 16  1  0
 27 25  1  0
 28 27  2  0
 29 27  1  0
M  END
$$$$
