TSR.pdb
     RDKit          3D

 25 24  0  0  1  0  0  0  0  0999 V2000
   12.9980  -20.6967   17.7263 C   0  0  0  0  0  0  0  0  0  0  0  0
   13.0818  -19.6742   16.6309 C   0  0  1  0  0  0  0  0  0  0  0  0
   13.5450  -20.1813   15.4389 O   0  0  0  0  0  0  0  0  0  0  0  0
   11.7586  -18.9195   16.4741 C   0  0  2  0  0  0  0  0  0  0  0  0
   11.9046  -18.0648   15.3115 N   0  0  0  0  0  0  0  0  0  0  0  0
   11.6279  -18.1093   17.7270 C   0  0  0  0  0  0  0  0  0  0  0  0
   12.4852  -17.2103   17.9163 O   0  0  0  0  0  0  0  0  0  0  0  0
    8.1381  -17.1476   19.7374 O   0  0  0  0  0  0  0  0  0  0  0  0
    9.1402  -17.7546   20.4639 C   0  0  0  0  0  0  0  0  0  0  0  0
   10.5189  -17.5604   19.8509 C   0  0  2  0  0  0  0  0  0  0  0  0
   10.5827  -18.3436   18.6605 N   0  0  0  0  0  0  0  0  0  0  0  0
   11.5942  -17.8369   20.8110 C   0  0  0  0  0  0  0  0  0  0  0  0
   11.9806  -19.0523   20.9268 O   0  0  0  0  0  0  0  0  0  0  0  0
   17.8926  -14.6823   23.1316 N   0  0  0  0  0  0  0  0  0  0  0  0
   18.4110  -15.3771   21.9937 C   0  0  0  0  0  0  0  0  0  0  0  0
   19.3640  -14.8352   21.3312 N   0  0  0  0  0  0  0  0  0  0  0  0
   17.8264  -16.6164   21.6833 N   0  0  0  0  0  0  0  0  0  0  0  0
   16.3861  -16.6536   21.3188 C   0  0  0  0  0  0  0  0  0  0  0  0
   15.6544  -16.1912   22.5176 C   0  0  0  0  0  0  0  0  0  0  0  0
   14.2072  -16.1181   22.5615 C   0  0  0  0  0  0  0  0  0  0  0  0
   13.2960  -17.2768   22.6235 C   0  0  2  0  0  0  0  0  0  0  0  0
   12.2407  -16.8966   21.6143 N   0  0  0  0  0  0  0  0  0  0  0  0
   12.6537  -17.6776   23.8482 C   0  0  0  0  0  0  0  0  0  0  0  0
   11.5148  -17.3191   24.1822 O   0  0  0  0  0  0  0  0  0  0  0  0
   13.2754  -18.5316   24.7974 O   0  0  0  0  0  0  0  0  0  0  0  0
  2  4  1  0
  2  1  1  1
  3  2  1  0
  4  6  1  0
  4  5  1  6
  6 11  1  0
  6  7  2  0
  9  8  1  0
 10  9  1  1
 10 12  1  0
 11 10  1  0
 12 13  2  0
 15 14  1  0
 15 16  2  0
 17 15  1  0
 18 17  1  0
 19 18  1  0
 20 19  1  0
 21 20  1  1
 21 23  1  0
 22 12  1  0
 22 21  1  0
 23 25  1  0
 24 23  2  0
M  END
$$$$
