TSR.pdb
     RDKit          3D

 25 24  0  0  1  0  0  0  0  0999 V2000
    9.7574  -19.2869   17.5064 C   0  0  0  0  0  0  0  0  0  0  0  0
    9.6270  -18.3835   18.6978 C   0  0  1  0  0  0  0  0  0  0  0  0
   10.1107  -18.9345   19.8618 O   0  0  0  0  0  0  0  0  0  0  0  0
   10.2182  -17.0002   18.4122 C   0  0  2  0  0  0  0  0  0  0  0  0
   11.6584  -17.1661   18.3697 N   0  0  0  0  0  0  0  0  0  0  0  0
    9.8060  -16.1579   19.5801 C   0  0  0  0  0  0  0  0  0  0  0  0
   10.6587  -15.9838   20.4864 O   0  0  0  0  0  0  0  0  0  0  0  0
    5.7865  -15.1086   20.4542 O   0  0  0  0  0  0  0  0  0  0  0  0
    6.7993  -14.1781   20.5488 C   0  0  0  0  0  0  0  0  0  0  0  0
    8.1603  -14.8065   20.8080 C   0  0  2  0  0  0  0  0  0  0  0  0
    8.5105  -15.5799   19.6619 N   0  0  0  0  0  0  0  0  0  0  0  0
    8.1919  -15.5544   22.0707 C   0  0  0  0  0  0  0  0  0  0  0  0
    8.1012  -16.8299   22.0007 O   0  0  0  0  0  0  0  0  0  0  0  0
   10.3108  -16.2375   29.1251 N   0  0  0  0  0  0  0  0  0  0  0  0
   10.6128  -14.8543   29.3300 C   0  0  0  0  0  0  0  0  0  0  0  0
   11.3430  -14.5322   30.3319 N   0  0  0  0  0  0  0  0  0  0  0  0
   10.0766  -13.9416   28.4062 N   0  0  0  0  0  0  0  0  0  0  0  0
    8.6282  -14.0227   28.0828 C   0  0  0  0  0  0  0  0  0  0  0  0
    8.4996  -15.0963   27.0742 C   0  0  0  0  0  0  0  0  0  0  0  0
    8.3776  -14.8169   25.6569 C   0  0  0  0  0  0  0  0  0  0  0  0
    8.1567  -15.8269   24.6043 C   0  0  2  0  0  0  0  0  0  0  0  0
    8.3130  -15.0058   23.3481 N   0  0  0  0  0  0  0  0  0  0  0  0
    6.9371  -16.5876   24.5209 C   0  0  0  0  0  0  0  0  0  0  0  0
    6.7788  -17.7016   25.0417 O   0  0  0  0  0  0  0  0  0  0  0  0
    5.7892  -16.1242   23.8249 O   0  0  0  0  0  0  0  0  0  0  0  0
  2  4  1  0
  2  1  1  6
  3  2  1  0
  4  6  1  0
  4  5  1  1
  6 11  1  0
  6  7  2  0
  9  8  1  0
 10  9  1  6
 10 12  1  0
 11 10  1  0
 12 13  2  0
 15 14  1  0
 15 16  2  0
 17 15  1  0
 18 17  1  0
 19 18  1  0
 20 19  1  0
 21 20  1  1
 21 23  1  0
 22 12  1  0
 22 21  1  0
 23 25  1  0
 24 23  2  0
M  END
$$$$
