TSR.pdb
     RDKit          3D

 25 24  0  0  1  0  0  0  0  0999 V2000
    6.6528  -18.4537   17.9930 C   0  0  0  0  0  0  0  0  0  0  0  0
    7.6095  -18.2564   16.8535 C   0  0  1  0  0  0  0  0  0  0  0  0
    7.3017  -19.0043   15.7407 O   0  0  0  0  0  0  0  0  0  0  0  0
    7.7895  -16.7702   16.5315 C   0  0  2  0  0  0  0  0  0  0  0  0
    8.6558  -16.7001   15.3705 N   0  0  0  0  0  0  0  0  0  0  0  0
    8.4595  -16.1938   17.7408 C   0  0  0  0  0  0  0  0  0  0  0  0
    9.5988  -16.6391   18.0277 O   0  0  0  0  0  0  0  0  0  0  0  0
    7.7079  -12.3789   19.1308 O   0  0  0  0  0  0  0  0  0  0  0  0
    7.7798  -13.3779   20.0780 C   0  0  0  0  0  0  0  0  0  0  0  0
    8.5638  -14.5916   19.6021 C   0  0  2  0  0  0  0  0  0  0  0  0
    7.8378  -15.1883   18.5291 N   0  0  0  0  0  0  0  0  0  0  0  0
    8.8772  -15.5125   20.7015 C   0  0  0  0  0  0  0  0  0  0  0  0
    7.9667  -16.3426   21.0505 O   0  0  0  0  0  0  0  0  0  0  0  0
   16.3915  -19.4362   22.5736 N   0  0  0  0  0  0  0  0  0  0  0  0
   15.4431  -20.1206   23.3973 C   0  0  0  0  0  0  0  0  0  0  0  0
   15.8257  -21.1711   24.0227 N   0  0  0  0  0  0  0  0  0  0  0  0
   14.1463  -19.5834   23.4569 N   0  0  0  0  0  0  0  0  0  0  0  0
   13.8082  -18.4376   22.5727 C   0  0  0  0  0  0  0  0  0  0  0  0
   12.4254  -18.0505   22.9249 C   0  0  0  0  0  0  0  0  0  0  0  0
   11.7042  -17.0166   22.2088 C   0  0  0  0  0  0  0  0  0  0  0  0
   10.3294  -16.5725   22.5077 C   0  0  2  0  0  0  0  0  0  0  0  0
   10.0800  -15.5714   21.4067 N   0  0  0  0  0  0  0  0  0  0  0  0
    9.9769  -15.9799   23.7717 C   0  0  0  0  0  0  0  0  0  0  0  0
    9.7846  -14.7665   23.9379 O   0  0  0  0  0  0  0  0  0  0  0  0
    9.8155  -16.7426   24.9588 O   0  0  0  0  0  0  0  0  0  0  0  0
  2  4  1  0
  2  1  1  1
  3  2  1  0
  4  6  1  0
  4  5  1  6
  6 11  1  0
  6  7  2  0
  9  8  1  0
 10  9  1  1
 10 12  1  0
 11 10  1  0
 12 13  2  0
 15 14  1  0
 15 16  2  0
 17 15  1  0
 18 17  1  0
 19 18  1  0
 20 19  1  0
 21 20  1  1
 21 23  1  0
 22 12  1  0
 22 21  1  0
 23 25  1  0
 24 23  2  0
M  END
$$$$
