TSR.pdb
     RDKit          3D

 25 24  0  0  1  0  0  0  0  0999 V2000
    5.4716  -19.5060   17.5748 C   0  0  0  0  0  0  0  0  0  0  0  0
    6.5500  -18.7920   18.3362 C   0  0  1  0  0  0  0  0  0  0  0  0
    7.5190  -19.6312   18.8354 O   0  0  0  0  0  0  0  0  0  0  0  0
    7.1363  -17.6384   17.5175 C   0  0  2  0  0  0  0  0  0  0  0  0
    7.8871  -18.2404   16.4325 N   0  0  0  0  0  0  0  0  0  0  0  0
    8.0430  -16.9164   18.4661 C   0  0  0  0  0  0  0  0  0  0  0  0
    9.2065  -17.3715   18.6002 O   0  0  0  0  0  0  0  0  0  0  0  0
    6.7107  -13.8594   21.0641 O   0  0  0  0  0  0  0  0  0  0  0  0
    7.9209  -13.7508   20.4129 C   0  0  0  0  0  0  0  0  0  0  0  0
    8.5234  -15.1000   20.0512 C   0  0  2  0  0  0  0  0  0  0  0  0
    7.6104  -15.7681   19.1825 N   0  0  0  0  0  0  0  0  0  0  0  0
    8.8980  -15.8744   21.2405 C   0  0  0  0  0  0  0  0  0  0  0  0
    7.9636  -16.5018   21.8516 O   0  0  0  0  0  0  0  0  0  0  0  0
    5.8089  -20.8493   22.6278 N   0  0  0  0  0  0  0  0  0  0  0  0
    7.0545  -21.5438   22.5164 C   0  0  0  0  0  0  0  0  0  0  0  0
    7.0563  -22.7104   21.9873 N   0  0  0  0  0  0  0  0  0  0  0  0
    8.1962  -20.8862   23.0044 N   0  0  0  0  0  0  0  0  0  0  0  0
    8.7559  -19.7539   22.2211 C   0  0  0  0  0  0  0  0  0  0  0  0
    9.9190  -19.2657   22.9925 C   0  0  0  0  0  0  0  0  0  0  0  0
   10.6864  -18.1049   22.5856 C   0  0  0  0  0  0  0  0  0  0  0  0
   10.4646  -16.7261   23.0613 C   0  0  2  0  0  0  0  0  0  0  0  0
   10.1826  -15.9943   21.7723 N   0  0  0  0  0  0  0  0  0  0  0  0
   11.4657  -16.0047   23.8031 C   0  0  0  0  0  0  0  0  0  0  0  0
   11.7567  -16.2416   24.9848 O   0  0  0  0  0  0  0  0  0  0  0  0
   12.2209  -14.9417   23.2404 O   0  0  0  0  0  0  0  0  0  0  0  0
  2  4  1  0
  2  1  1  6
  3  2  1  0
  4  6  1  0
  4  5  1  6
  6 11  1  0
  6  7  2  0
  9  8  1  0
 10  9  1  1
 10 12  1  0
 11 10  1  0
 12 13  2  0
 15 14  1  0
 15 16  2  0
 17 15  1  0
 18 17  1  0
 19 18  1  0
 20 19  1  0
 21 20  1  6
 21 23  1  0
 22 12  1  0
 22 21  1  0
 23 25  1  0
 24 23  2  0
M  END
$$$$
