TSR.pdb
     RDKit          3D

 25 24  0  0  1  0  0  0  0  0999 V2000
    9.5176  -12.3748   20.3709 C   0  0  0  0  0  0  0  0  0  0  0  0
    8.2935  -12.9422   19.7134 C   0  0  1  0  0  0  0  0  0  0  0  0
    7.2647  -12.0371   19.5915 O   0  0  0  0  0  0  0  0  0  0  0  0
    8.6411  -13.6195   18.3848 C   0  0  2  0  0  0  0  0  0  0  0  0
    7.4168  -14.2232   17.8950 N   0  0  0  0  0  0  0  0  0  0  0  0
    9.6539  -14.6643   18.7398 C   0  0  0  0  0  0  0  0  0  0  0  0
    9.2158  -15.7555   19.1826 O   0  0  0  0  0  0  0  0  0  0  0  0
   13.8882  -14.0168   18.8344 O   0  0  0  0  0  0  0  0  0  0  0  0
   13.3054  -15.1221   18.2519 C   0  0  0  0  0  0  0  0  0  0  0  0
   11.9667  -15.4856   18.8766 C   0  0  2  0  0  0  0  0  0  0  0  0
   11.0475  -14.4351   18.5835 N   0  0  0  0  0  0  0  0  0  0  0  0
   12.0902  -15.7952   20.3061 C   0  0  0  0  0  0  0  0  0  0  0  0
   12.0022  -14.8177   21.1289 O   0  0  0  0  0  0  0  0  0  0  0  0
   11.4558  -22.7352   24.2403 N   0  0  0  0  0  0  0  0  0  0  0  0
   11.5165  -22.1409   25.5401 C   0  0  0  0  0  0  0  0  0  0  0  0
   11.5555  -22.9128   26.5616 N   0  0  0  0  0  0  0  0  0  0  0  0
   11.5265  -20.7372   25.5989 N   0  0  0  0  0  0  0  0  0  0  0  0
   10.9860  -19.9717   24.4453 C   0  0  0  0  0  0  0  0  0  0  0  0
   12.1643  -19.4637   23.7105 C   0  0  0  0  0  0  0  0  0  0  0  0
   12.0417  -18.6782   22.4982 C   0  0  0  0  0  0  0  0  0  0  0  0
   12.4863  -17.2805   22.3388 C   0  0  2  0  0  0  0  0  0  0  0  0
   12.2946  -17.0603   20.8585 N   0  0  0  0  0  0  0  0  0  0  0  0
   13.8102  -16.8539   22.7108 C   0  0  0  0  0  0  0  0  0  0  0  0
   14.7749  -16.8321   21.9324 O   0  0  0  0  0  0  0  0  0  0  0  0
   14.1350  -16.4134   24.0213 O   0  0  0  0  0  0  0  0  0  0  0  0
  2  4  1  0
  2  1  1  6
  3  2  1  0
  4  6  1  0
  4  5  1  1
  6 11  1  0
  6  7  2  0
  9  8  1  0
 10  9  1  1
 10 12  1  0
 11 10  1  0
 12 13  2  0
 15 14  1  0
 15 16  2  0
 17 15  1  0
 18 17  1  0
 19 18  1  0
 20 19  1  0
 21 20  1  6
 21 23  1  0
 22 12  1  0
 22 21  1  0
 23 25  1  0
 24 23  2  0
M  END
$$$$
