TSR.pdb
     RDKit          3D

 25 24  0  0  1  0  0  0  0  0999 V2000
   10.3825  -12.6490   19.6998 C   0  0  0  0  0  0  0  0  0  0  0  0
    8.8821  -12.6126   19.6898 C   0  0  1  0  0  0  0  0  0  0  0  0
    8.3632  -11.4640   19.1384 O   0  0  0  0  0  0  0  0  0  0  0  0
    8.3007  -13.8816   19.0602 C   0  0  2  0  0  0  0  0  0  0  0  0
    6.8590  -13.7808   19.1812 N   0  0  0  0  0  0  0  0  0  0  0  0
    8.8355  -15.0042   19.8953 C   0  0  0  0  0  0  0  0  0  0  0  0
    8.2959  -15.1886   21.0150 O   0  0  0  0  0  0  0  0  0  0  0  0
   12.0729  -17.5682   18.7009 O   0  0  0  0  0  0  0  0  0  0  0  0
   10.8997  -17.9853   19.2927 C   0  0  0  0  0  0  0  0  0  0  0  0
   10.3058  -16.9453   20.2308 C   0  0  2  0  0  0  0  0  0  0  0  0
    9.9037  -15.8254   19.4443 N   0  0  0  0  0  0  0  0  0  0  0  0
   11.2167  -16.6105   21.3321 C   0  0  0  0  0  0  0  0  0  0  0  0
   12.0276  -15.6365   21.1487 O   0  0  0  0  0  0  0  0  0  0  0  0
   11.0612  -15.1191   29.5203 N   0  0  0  0  0  0  0  0  0  0  0  0
   10.1905  -14.7456   28.4485 C   0  0  0  0  0  0  0  0  0  0  0  0
    9.5266  -13.6552   28.5549 N   0  0  0  0  0  0  0  0  0  0  0  0
   10.1266  -15.6154   27.3470 N   0  0  0  0  0  0  0  0  0  0  0  0
   10.9219  -16.8705   27.3830 C   0  0  0  0  0  0  0  0  0  0  0  0
   11.8428  -16.7976   26.2285 C   0  0  0  0  0  0  0  0  0  0  0  0
   11.3818  -16.9303   24.8603 C   0  0  0  0  0  0  0  0  0  0  0  0
   12.2325  -16.8249   23.6596 C   0  0  2  0  0  0  0  0  0  0  0  0
   11.2839  -17.2552   22.5680 N   0  0  0  0  0  0  0  0  0  0  0  0
   13.4639  -17.5597   23.5301 C   0  0  0  0  0  0  0  0  0  0  0  0
   13.5477  -18.6856   23.0179 O   0  0  0  0  0  0  0  0  0  0  0  0
   14.7111  -17.0541   23.9838 O   0  0  0  0  0  0  0  0  0  0  0  0
  2  4  1  0
  2  1  1  6
  3  2  1  0
  4  6  1  0
  4  5  1  1
  6 11  1  0
  6  7  2  0
  9  8  1  0
 10  9  1  6
 10 12  1  0
 11 10  1  0
 12 13  2  0
 15 14  1  0
 15 16  2  0
 17 15  1  0
 18 17  1  0
 19 18  1  0
 20 19  1  0
 21 20  1  1
 21 23  1  0
 22 12  1  0
 22 21  1  0
 23 25  1  0
 24 23  2  0
M  END
$$$$
