TSR.pdb
     RDKit          3D

 25 24  0  0  1  0  0  0  0  0999 V2000
    6.8899  -14.4010   18.2741 C   0  0  0  0  0  0  0  0  0  0  0  0
    7.6464  -14.4756   19.5682 C   0  0  1  0  0  0  0  0  0  0  0  0
    8.8701  -15.0939   19.4554 O   0  0  0  0  0  0  0  0  0  0  0  0
    7.7418  -13.1005   20.2349 C   0  0  2  0  0  0  0  0  0  0  0  0
    8.5878  -12.2856   19.3843 N   0  0  0  0  0  0  0  0  0  0  0  0
    8.3954  -13.3595   21.5574 C   0  0  0  0  0  0  0  0  0  0  0  0
    9.6498  -13.2977   21.5950 O   0  0  0  0  0  0  0  0  0  0  0  0
    6.1692  -14.7893   24.7924 O   0  0  0  0  0  0  0  0  0  0  0  0
    7.2996  -14.0425   25.0474 C   0  0  0  0  0  0  0  0  0  0  0  0
    8.3049  -14.0790   23.9062 C   0  0  2  0  0  0  0  0  0  0  0  0
    7.6342  -13.6609   22.7188 N   0  0  0  0  0  0  0  0  0  0  0  0
    8.9671  -15.3843   23.7949 C   0  0  0  0  0  0  0  0  0  0  0  0
    8.6617  -16.1143   22.7881 O   0  0  0  0  0  0  0  0  0  0  0  0
   15.4106  -18.6518   21.4872 N   0  0  0  0  0  0  0  0  0  0  0  0
   14.5529  -19.6926   21.0100 C   0  0  0  0  0  0  0  0  0  0  0  0
   15.0832  -20.8015   20.6494 N   0  0  0  0  0  0  0  0  0  0  0  0
   13.1762  -19.4152   20.9700 N   0  0  0  0  0  0  0  0  0  0  0  0
   12.7090  -18.0649   21.3791 C   0  0  0  0  0  0  0  0  0  0  0  0
   11.9368  -18.2652   22.6240 C   0  0  0  0  0  0  0  0  0  0  0  0
   11.2750  -17.1724   23.3093 C   0  0  0  0  0  0  0  0  0  0  0  0
   10.4743  -17.2987   24.5420 C   0  0  2  0  0  0  0  0  0  0  0  0
    9.9041  -15.9092   24.6859 N   0  0  0  0  0  0  0  0  0  0  0  0
   11.0603  -17.6993   25.7947 C   0  0  0  0  0  0  0  0  0  0  0  0
   11.3528  -16.9110   26.7058 O   0  0  0  0  0  0  0  0  0  0  0  0
   11.3604  -19.0525   26.1040 O   0  0  0  0  0  0  0  0  0  0  0  0
  2  4  1  0
  2  1  1  6
  3  2  1  0
  4  6  1  0
  4  5  1  6
  6 11  1  0
  6  7  2  0
  9  8  1  0
 10  9  1  1
 10 12  1  0
 11 10  1  0
 12 13  2  0
 15 14  1  0
 15 16  2  0
 17 15  1  0
 18 17  1  0
 19 18  1  0
 20 19  1  0
 21 20  1  6
 21 23  1  0
 22 12  1  0
 22 21  1  0
 23 25  1  0
 24 23  2  0
M  END
$$$$
