QEW.pdb
     RDKit          3D

 33 34  0  0  1  0  0  0  0  0999 V2000
    8.4339  -12.9799   17.2615 N   0  0  0  0  0  0  0  0  0  0  0  0
    8.7656  -12.6862   18.6182 C   0  0  0  0  0  0  0  0  0  0  0  0
   10.0140  -12.6126   18.8840 O   0  0  0  0  0  0  0  0  0  0  0  0
    7.7433  -12.4753   19.6716 C   0  0  0  0  0  0  0  0  0  0  0  0
    8.0262  -13.4545   20.7901 C   0  0  0  0  0  0  0  0  0  0  0  0
    7.7390  -14.8785   20.3659 C   0  0  2  0  0  0  0  0  0  0  0  0
    6.3302  -14.9405   20.0341 N   0  0  0  0  0  0  0  0  0  0  0  0
    8.0611  -15.7535   21.5328 C   0  0  0  0  0  0  0  0  0  0  0  0
    7.2583  -15.8616   22.4928 O   0  0  0  0  0  0  0  0  0  0  0  0
    9.2722  -16.4933   21.6124 N   0  0  0  0  0  0  0  0  0  0  0  0
    9.5112  -17.6124   22.4803 C   0  0  1  0  0  0  0  0  0  0  0  0
   10.4002  -18.6499   21.8910 C   0  0  0  0  0  0  0  0  0  0  0  0
   10.7418  -19.8401   22.6767 C   0  0  0  0  0  0  0  0  0  0  0  0
   11.6302  -20.8473   22.1242 C   0  0  0  0  0  0  0  0  0  0  0  0
   11.9699  -21.8555   22.8754 O   0  0  0  0  0  0  0  0  0  0  0  0
    9.8405  -17.3050   23.8727 C   0  0  0  0  0  0  0  0  0  0  0  0
    9.8628  -18.2512   24.7357 O   0  0  0  0  0  0  0  0  0  0  0  0
   12.1819  -20.8886   20.8802 O   0  0  0  0  0  0  0  0  0  0  0  0
   10.1423  -15.9954   24.3497 N   0  0  0  0  0  0  0  0  0  0  0  0
   10.2876  -15.6998   25.7734 C   0  0  1  0  0  0  0  0  0  0  0  0
    9.0233  -15.9273   26.5166 C   0  0  0  0  0  0  0  0  0  0  0  0
    7.8491  -15.1658   26.0671 C   0  0  0  0  0  0  0  0  0  0  0  0
    6.6827  -15.7298   25.5358 C   0  0  0  0  0  0  0  0  0  0  0  0
    5.8319  -14.7425   25.2856 N   0  0  0  0  0  0  0  0  0  0  0  0
    6.3671  -13.5443   25.6207 C   0  0  0  0  0  0  0  0  0  0  0  0
    5.8951  -12.2509   25.5467 C   0  0  0  0  0  0  0  0  0  0  0  0
    6.6616  -11.1672   25.9545 C   0  0  0  0  0  0  0  0  0  0  0  0
    7.9267  -11.4306   26.4420 C   0  0  0  0  0  0  0  0  0  0  0  0
    8.3917  -12.7225   26.5136 C   0  0  0  0  0  0  0  0  0  0  0  0
    7.6297  -13.8096   26.1090 C   0  0  0  0  0  0  0  0  0  0  0  0
   11.4961  -16.3755   26.2558 C   0  0  0  0  0  0  0  0  0  0  0  0
   12.2894  -17.0621   25.3454 O   0  0  0  0  0  0  0  0  0  0  0  0
   11.8975  -16.3946   27.4497 O   0  0  0  0  0  0  0  0  0  0  0  0
  2  1  1  0
  2  3  2  0
  4  2  1  0
  5  4  1  0
  5  6  1  0
  6  7  1  1
  8  6  1  0
  8  9  2  0
 10  8  1  0
 11 10  1  0
 11 12  1  6
 13 12  1  0
 13 14  1  0
 14 15  2  0
 16 11  1  0
 17 16  2  0
 18 14  1  0
 19 16  1  0
 20 21  1  1
 20 19  1  0
 21 22  1  0
 22 30  1  0
 23 22  2  0
 23 24  1  0
 24 25  1  0
 25 26  1  0
 26 27  2  0
 28 27  1  0
 29 28  2  0
 30 25  2  0
 30 29  1  0
 31 20  1  0
 32 31  1  0
 33 31  2  0
M  END
$$$$
