QEW.pdb
     RDKit          3D

 33 34  0  0  1  0  0  0  0  0999 V2000
    5.3207  -19.7521   19.3789 N   0  0  0  0  0  0  0  0  0  0  0  0
    5.8895  -19.0927   18.2481 C   0  0  0  0  0  0  0  0  0  0  0  0
    5.4914  -19.5029   17.1044 O   0  0  0  0  0  0  0  0  0  0  0  0
    6.8819  -17.9972   18.3674 C   0  0  0  0  0  0  0  0  0  0  0  0
    7.1852  -17.8091   19.8379 C   0  0  0  0  0  0  0  0  0  0  0  0
    8.0173  -16.5680   20.0778 C   0  0  2  0  0  0  0  0  0  0  0  0
    8.7907  -16.3432   18.8737 N   0  0  0  0  0  0  0  0  0  0  0  0
    8.9024  -16.8566   21.2457 C   0  0  0  0  0  0  0  0  0  0  0  0
    8.4114  -17.1470   22.3648 O   0  0  0  0  0  0  0  0  0  0  0  0
   10.3200  -16.8164   21.1491 N   0  0  0  0  0  0  0  0  0  0  0  0
   11.2382  -17.1443   22.2038 C   0  0  1  0  0  0  0  0  0  0  0  0
   12.6637  -17.1527   21.7777 C   0  0  0  0  0  0  0  0  0  0  0  0
   13.7115  -17.4332   22.7645 C   0  0  0  0  0  0  0  0  0  0  0  0
   15.1109  -17.3406   22.3875 C   0  0  0  0  0  0  0  0  0  0  0  0
   15.6959  -16.1788   22.4509 O   0  0  0  0  0  0  0  0  0  0  0  0
   11.0318  -16.4713   23.4869 C   0  0  0  0  0  0  0  0  0  0  0  0
   11.4528  -15.2715   23.6408 O   0  0  0  0  0  0  0  0  0  0  0  0
   15.9325  -18.3381   21.9588 O   0  0  0  0  0  0  0  0  0  0  0  0
   10.3828  -17.0712   24.6061 N   0  0  0  0  0  0  0  0  0  0  0  0
   10.4241  -16.4768   25.9404 C   0  0  1  0  0  0  0  0  0  0  0  0
   10.1028  -15.0282   25.9100 C   0  0  0  0  0  0  0  0  0  0  0  0
    8.6778  -14.6707   25.8610 C   0  0  0  0  0  0  0  0  0  0  0  0
    7.6502  -15.5261   25.4449 C   0  0  0  0  0  0  0  0  0  0  0  0
    6.5015  -14.8746   25.5762 N   0  0  0  0  0  0  0  0  0  0  0  0
    6.7048  -13.6253   26.0582 C   0  0  0  0  0  0  0  0  0  0  0  0
    5.8526  -12.5827   26.3547 C   0  0  0  0  0  0  0  0  0  0  0  0
    6.3216  -11.3687   26.8389 C   0  0  0  0  0  0  0  0  0  0  0  0
    7.6851  -11.2386   27.0155 C   0  0  0  0  0  0  0  0  0  0  0  0
    8.5298  -12.2818   26.7183 C   0  0  0  0  0  0  0  0  0  0  0  0
    8.0668  -13.4979   26.2356 C   0  0  0  0  0  0  0  0  0  0  0  0
    9.6456  -17.3317   26.8420 C   0  0  0  0  0  0  0  0  0  0  0  0
    9.1654  -18.5456   26.3671 O   0  0  0  0  0  0  0  0  0  0  0  0
    9.3617  -17.0658   28.0401 O   0  0  0  0  0  0  0  0  0  0  0  0
  2  1  1  0
  2  3  2  0
  4  2  1  0
  5  4  1  0
  5  6  1  0
  6  7  1  6
  8  6  1  0
  8  9  2  0
 10  8  1  0
 11 10  1  0
 11 12  1  6
 13 12  1  0
 13 14  1  0
 14 15  2  0
 16 11  1  0
 17 16  2  0
 18 14  1  0
 19 16  1  0
 20 21  1  6
 20 19  1  0
 21 22  1  0
 22 30  1  0
 23 22  2  0
 23 24  1  0
 24 25  1  0
 25 26  1  0
 26 27  2  0
 28 27  1  0
 29 28  2  0
 30 25  2  0
 30 29  1  0
 31 20  1  0
 32 31  1  0
 33 31  2  0
M  END
$$$$
