QEW.pdb
     RDKit          3D

 33 34  0  0  1  0  0  0  0  0999 V2000
    5.0662  -19.5080   18.2486 N   0  0  0  0  0  0  0  0  0  0  0  0
    6.1961  -19.5429   17.3774 C   0  0  0  0  0  0  0  0  0  0  0  0
    6.0585  -20.2374   16.3127 O   0  0  0  0  0  0  0  0  0  0  0  0
    7.4615  -18.8261   17.6675 C   0  0  0  0  0  0  0  0  0  0  0  0
    7.2920  -18.1101   18.9898 C   0  0  0  0  0  0  0  0  0  0  0  0
    8.2466  -16.9423   19.1139 C   0  0  2  0  0  0  0  0  0  0  0  0
    9.0980  -16.9711   17.9423 N   0  0  0  0  0  0  0  0  0  0  0  0
    9.0356  -17.1564   20.3640 C   0  0  0  0  0  0  0  0  0  0  0  0
    8.4569  -17.3046   21.4689 O   0  0  0  0  0  0  0  0  0  0  0  0
   10.4564  -17.2011   20.3638 N   0  0  0  0  0  0  0  0  0  0  0  0
   11.2908  -17.2258   21.5325 C   0  0  1  0  0  0  0  0  0  0  0  0
   12.7475  -17.2437   21.2298 C   0  0  0  0  0  0  0  0  0  0  0  0
   13.7148  -17.2498   22.3319 C   0  0  0  0  0  0  0  0  0  0  0  0
   15.1393  -17.2767   22.0507 C   0  0  0  0  0  0  0  0  0  0  0  0
   15.8092  -18.3559   22.3385 O   0  0  0  0  0  0  0  0  0  0  0  0
   10.9443  -16.2941   22.6066 C   0  0  0  0  0  0  0  0  0  0  0  0
   10.7653  -15.0564   22.3299 O   0  0  0  0  0  0  0  0  0  0  0  0
   15.9062  -16.2923   21.5063 O   0  0  0  0  0  0  0  0  0  0  0  0
   10.7913  -16.6740   23.9726 N   0  0  0  0  0  0  0  0  0  0  0  0
    9.9092  -15.9523   24.8871 C   0  0  1  0  0  0  0  0  0  0  0  0
    8.5852  -15.6769   24.2755 C   0  0  0  0  0  0  0  0  0  0  0  0
    7.5768  -15.0509   25.1426 C   0  0  0  0  0  0  0  0  0  0  0  0
    6.4817  -15.7154   25.7082 C   0  0  0  0  0  0  0  0  0  0  0  0
    5.8214  -14.8433   26.4597 N   0  0  0  0  0  0  0  0  0  0  0  0
    6.4162  -13.6269   26.4272 C   0  0  0  0  0  0  0  0  0  0  0  0
    6.1168  -12.4187   27.0201 C   0  0  0  0  0  0  0  0  0  0  0  0
    6.8976  -11.2888   26.8151 C   0  0  0  0  0  0  0  0  0  0  0  0
    7.9963  -11.4167   25.9881 C   0  0  0  0  0  0  0  0  0  0  0  0
    8.2899  -12.6242   25.3999 C   0  0  0  0  0  0  0  0  0  0  0  0
    7.5142  -13.7571   25.6023 C   0  0  0  0  0  0  0  0  0  0  0  0
    9.9353  -16.6415   26.1809 C   0  0  0  0  0  0  0  0  0  0  0  0
   10.1023  -18.0204   26.2031 O   0  0  0  0  0  0  0  0  0  0  0  0
    9.8180  -16.0898   27.3073 O   0  0  0  0  0  0  0  0  0  0  0  0
  2  1  1  0
  2  3  2  0
  4  2  1  0
  5  4  1  0
  5  6  1  0
  6  7  1  6
  8  6  1  0
  8  9  2  0
 10  8  1  0
 11 10  1  0
 11 12  1  6
 13 12  1  0
 13 14  1  0
 14 15  2  0
 16 11  1  0
 17 16  2  0
 18 14  1  0
 19 16  1  0
 20 21  1  6
 20 19  1  0
 21 22  1  0
 22 30  1  0
 23 22  2  0
 23 24  1  0
 24 25  1  0
 25 26  1  0
 26 27  2  0
 28 27  1  0
 29 28  2  0
 30 25  2  0
 30 29  1  0
 31 20  1  0
 32 31  1  0
 33 31  2  0
M  END
$$$$
