QEW.pdb
     RDKit          3D

 33 34  0  0  1  0  0  0  0  0999 V2000
    9.0974  -12.6448   18.4700 N   0  0  0  0  0  0  0  0  0  0  0  0
    7.9743  -13.0993   19.2241 C   0  0  0  0  0  0  0  0  0  0  0  0
    7.2012  -12.1877   19.6782 O   0  0  0  0  0  0  0  0  0  0  0  0
    7.7000  -14.5343   19.4783 C   0  0  0  0  0  0  0  0  0  0  0  0
    8.8870  -15.3260   18.9744 C   0  0  0  0  0  0  0  0  0  0  0  0
    8.7113  -16.8082   19.2249 C   0  0  2  0  0  0  0  0  0  0  0  0
    7.2864  -17.0503   19.3224 N   0  0  0  0  0  0  0  0  0  0  0  0
    9.4040  -17.1170   20.5117 C   0  0  0  0  0  0  0  0  0  0  0  0
    8.7514  -17.2300   21.5790 O   0  0  0  0  0  0  0  0  0  0  0  0
   10.8122  -17.2941   20.5895 N   0  0  0  0  0  0  0  0  0  0  0  0
   11.5626  -17.4954   21.7975 C   0  0  1  0  0  0  0  0  0  0  0  0
   13.0154  -17.7230   21.5708 C   0  0  0  0  0  0  0  0  0  0  0  0
   13.4628  -18.3485   20.3221 C   0  0  0  0  0  0  0  0  0  0  0  0
   14.6941  -17.9109   19.6886 C   0  0  0  0  0  0  0  0  0  0  0  0
   15.7846  -17.8875   20.4001 O   0  0  0  0  0  0  0  0  0  0  0  0
   11.2969  -16.5677   22.8979 C   0  0  0  0  0  0  0  0  0  0  0  0
   11.3393  -15.3065   22.6791 O   0  0  0  0  0  0  0  0  0  0  0  0
   14.8778  -17.5042   18.4023 O   0  0  0  0  0  0  0  0  0  0  0  0
   10.9902  -16.9774   24.2290 N   0  0  0  0  0  0  0  0  0  0  0  0
   10.0366  -16.2527   25.0661 C   0  0  1  0  0  0  0  0  0  0  0  0
    8.7735  -15.9646   24.3421 C   0  0  0  0  0  0  0  0  0  0  0  0
    7.7016  -15.3236   25.1174 C   0  0  0  0  0  0  0  0  0  0  0  0
    6.5587  -15.9754   25.5966 C   0  0  0  0  0  0  0  0  0  0  0  0
    5.8452  -15.0917   26.2832 N   0  0  0  0  0  0  0  0  0  0  0  0
    6.4498  -13.8797   26.2890 C   0  0  0  0  0  0  0  0  0  0  0  0
    6.1115  -12.6639   26.8444 C   0  0  0  0  0  0  0  0  0  0  0  0
    6.9150  -11.5413   26.6945 C   0  0  0  0  0  0  0  0  0  0  0  0
    8.0771  -11.6845   25.9621 C   0  0  0  0  0  0  0  0  0  0  0  0
    8.4092  -12.8994   25.4109 C   0  0  0  0  0  0  0  0  0  0  0  0
    7.6110  -14.0251   25.5587 C   0  0  0  0  0  0  0  0  0  0  0  0
    9.9441  -16.9475   26.3538 C   0  0  0  0  0  0  0  0  0  0  0  0
   10.1382  -18.3226   26.3896 O   0  0  0  0  0  0  0  0  0  0  0  0
    9.6990  -16.4039   27.4635 O   0  0  0  0  0  0  0  0  0  0  0  0
  2  1  1  0
  2  3  2  0
  4  2  1  0
  5  4  1  0
  5  6  1  0
  6  7  1  1
  8  6  1  0
  8  9  2  0
 10  8  1  0
 11 10  1  0
 11 12  1  6
 13 12  1  0
 13 14  1  0
 14 15  2  0
 16 11  1  0
 17 16  2  0
 18 14  1  0
 19 16  1  0
 20 21  1  6
 20 19  1  0
 21 22  1  0
 22 30  1  0
 23 22  2  0
 23 24  1  0
 24 25  1  0
 25 26  1  0
 26 27  2  0
 28 27  1  0
 29 28  2  0
 30 25  2  0
 30 29  1  0
 31 20  1  0
 32 31  1  0
 33 31  2  0
M  END
$$$$
