QEW.pdb
     RDKit          3D

 33 34  0  0  1  0  0  0  0  0999 V2000
    7.1332  -23.0538   21.7479 N   0  0  0  0  0  0  0  0  0  0  0  0
    5.8422  -22.4455   21.7600 C   0  0  0  0  0  0  0  0  0  0  0  0
    4.8952  -23.1362   21.2494 O   0  0  0  0  0  0  0  0  0  0  0  0
    5.5903  -21.0974   22.3243 C   0  0  0  0  0  0  0  0  0  0  0  0
    6.8741  -20.6209   22.9681 C   0  0  0  0  0  0  0  0  0  0  0  0
    7.0597  -19.1287   22.7962 C   0  0  2  0  0  0  0  0  0  0  0  0
    6.6660  -18.8116   21.4387 N   0  0  0  0  0  0  0  0  0  0  0  0
    8.5077  -18.8414   23.0230 C   0  0  0  0  0  0  0  0  0  0  0  0
    9.2359  -19.6640   23.6319 O   0  0  0  0  0  0  0  0  0  0  0  0
    9.1215  -17.6424   22.5689 N   0  0  0  0  0  0  0  0  0  0  0  0
   10.4717  -17.2389   22.8464 C   0  0  1  0  0  0  0  0  0  0  0  0
   11.0286  -16.2821   21.8523 C   0  0  0  0  0  0  0  0  0  0  0  0
   12.4507  -15.9285   21.9074 C   0  0  0  0  0  0  0  0  0  0  0  0
   13.0150  -15.0234   20.9219 C   0  0  0  0  0  0  0  0  0  0  0  0
   13.2239  -15.4695   19.7163 O   0  0  0  0  0  0  0  0  0  0  0  0
   10.7741  -16.8640   24.2284 C   0  0  0  0  0  0  0  0  0  0  0  0
   11.9917  -16.6651   24.5723 O   0  0  0  0  0  0  0  0  0  0  0  0
   13.3721  -13.7200   21.0865 O   0  0  0  0  0  0  0  0  0  0  0  0
    9.7867  -16.7038   25.2448 N   0  0  0  0  0  0  0  0  0  0  0  0
   10.1402  -16.4859   26.6459 C   0  0  1  0  0  0  0  0  0  0  0  0
    9.0849  -15.7362   27.3718 C   0  0  0  0  0  0  0  0  0  0  0  0
    8.1023  -15.0178   26.5476 C   0  0  0  0  0  0  0  0  0  0  0  0
    7.0977  -15.6260   25.7848 C   0  0  0  0  0  0  0  0  0  0  0  0
    6.3826  -14.6643   25.2147 N   0  0  0  0  0  0  0  0  0  0  0  0
    6.8556  -13.4416   25.5547 C   0  0  0  0  0  0  0  0  0  0  0  0
    6.4705  -12.1599   25.2230 C   0  0  0  0  0  0  0  0  0  0  0  0
    7.1426  -11.0451   25.7064 C   0  0  0  0  0  0  0  0  0  0  0  0
    8.2220  -11.2651   26.5396 C   0  0  0  0  0  0  0  0  0  0  0  0
    8.6010  -12.5454   26.8669 C   0  0  0  0  0  0  0  0  0  0  0  0
    7.9323  -13.6633   26.3881 C   0  0  0  0  0  0  0  0  0  0  0  0
   10.5788  -17.7673   27.2075 C   0  0  0  0  0  0  0  0  0  0  0  0
   10.4986  -18.9079   26.4187 O   0  0  0  0  0  0  0  0  0  0  0  0
   11.0348  -17.9402   28.3690 O   0  0  0  0  0  0  0  0  0  0  0  0
  2  1  1  0
  2  3  2  0
  4  2  1  0
  5  4  1  0
  5  6  1  0
  6  7  1  6
  8  6  1  0
  8  9  2  0
 10  8  1  0
 11 10  1  0
 11 12  1  6
 13 12  1  0
 13 14  1  0
 14 15  2  0
 16 11  1  0
 17 16  2  0
 18 14  1  0
 19 16  1  0
 20 21  1  1
 20 19  1  0
 21 22  1  0
 22 30  1  0
 23 22  2  0
 23 24  1  0
 24 25  1  0
 25 26  1  0
 26 27  2  0
 28 27  1  0
 29 28  2  0
 30 25  2  0
 30 29  1  0
 31 20  1  0
 32 31  1  0
 33 31  2  0
M  END
$$$$
