QEW.pdb
     RDKit          3D

 33 34  0  0  1  0  0  0  0  0999 V2000
    3.6465  -18.7829   22.2265 N   0  0  0  0  0  0  0  0  0  0  0  0
    3.8732  -18.6429   20.8244 C   0  0  0  0  0  0  0  0  0  0  0  0
    2.9206  -19.0288   20.0639 O   0  0  0  0  0  0  0  0  0  0  0  0
    5.1272  -18.0868   20.2610 C   0  0  0  0  0  0  0  0  0  0  0  0
    5.9575  -17.5647   21.4133 C   0  0  0  0  0  0  0  0  0  0  0  0
    7.2301  -16.9064   20.9258 C   0  0  2  0  0  0  0  0  0  0  0  0
    7.5419  -17.4982   19.6408 N   0  0  0  0  0  0  0  0  0  0  0  0
    8.2899  -17.2081   21.9342 C   0  0  0  0  0  0  0  0  0  0  0  0
    8.0483  -17.9588   22.9118 O   0  0  0  0  0  0  0  0  0  0  0  0
    9.6013  -16.6683   21.8383 N   0  0  0  0  0  0  0  0  0  0  0  0
   10.6422  -16.8255   22.8154 C   0  0  1  0  0  0  0  0  0  0  0  0
   11.9972  -16.4747   22.3108 C   0  0  0  0  0  0  0  0  0  0  0  0
   13.1534  -16.5871   23.2059 C   0  0  0  0  0  0  0  0  0  0  0  0
   14.4741  -16.2008   22.7419 C   0  0  0  0  0  0  0  0  0  0  0  0
   15.4695  -17.0133   22.9545 O   0  0  0  0  0  0  0  0  0  0  0  0
   10.3757  -16.2890   24.1507 C   0  0  0  0  0  0  0  0  0  0  0  0
   10.5242  -15.0348   24.3639 O   0  0  0  0  0  0  0  0  0  0  0  0
   14.8346  -15.0618   22.0889 O   0  0  0  0  0  0  0  0  0  0  0  0
    9.9557  -17.0821   25.2590 N   0  0  0  0  0  0  0  0  0  0  0  0
    9.9758  -16.5766   26.6299 C   0  0  1  0  0  0  0  0  0  0  0  0
    8.6115  -16.4936   27.2082 C   0  0  0  0  0  0  0  0  0  0  0  0
    7.6652  -15.5917   26.5359 C   0  0  0  0  0  0  0  0  0  0  0  0
    6.5797  -16.0061   25.7544 C   0  0  0  0  0  0  0  0  0  0  0  0
    5.9318  -14.9203   25.3512 N   0  0  0  0  0  0  0  0  0  0  0  0
    6.5267  -13.7980   25.8210 C   0  0  0  0  0  0  0  0  0  0  0  0
    6.2458  -12.4557   25.6781 C   0  0  0  0  0  0  0  0  0  0  0  0
    7.0349  -11.4757   26.2657 C   0  0  0  0  0  0  0  0  0  0  0  0
    8.1229  -11.8948   27.0061 C   0  0  0  0  0  0  0  0  0  0  0  0
    8.3977  -13.2347   27.1452 C   0  0  0  0  0  0  0  0  0  0  0  0
    7.6119  -14.2186   26.5617 C   0  0  0  0  0  0  0  0  0  0  0  0
   10.9905  -17.3278   27.3753 C   0  0  0  0  0  0  0  0  0  0  0  0
   11.2679  -16.9615   28.6862 O   0  0  0  0  0  0  0  0  0  0  0  0
   11.6546  -18.3016   26.9307 O   0  0  0  0  0  0  0  0  0  0  0  0
  2  1  1  0
  2  3  2  0
  4  2  1  0
  5  4  1  0
  5  6  1  0
  6  7  1  6
  8  6  1  0
  8  9  2  0
 10  8  1  0
 11 10  1  0
 11 12  1  6
 13 12  1  0
 13 14  1  0
 14 15  2  0
 16 11  1  0
 17 16  2  0
 18 14  1  0
 19 16  1  0
 20 21  1  1
 20 19  1  0
 21 22  1  0
 22 30  1  0
 23 22  2  0
 23 24  1  0
 24 25  1  0
 25 26  1  0
 26 27  2  0
 28 27  1  0
 29 28  2  0
 30 25  2  0
 30 29  1  0
 31 20  1  0
 32 31  1  0
 33 31  2  0
M  END
$$$$
