QEW.pdb
     RDKit          3D

 33 34  0  0  1  0  0  0  0  0999 V2000
    6.7050  -18.9580   18.0340 N   0  0  0  0  0  0  0  0  0  0  0  0
    6.8987  -17.5534   17.8713 C   0  0  0  0  0  0  0  0  0  0  0  0
    6.5478  -17.0689   16.7413 O   0  0  0  0  0  0  0  0  0  0  0  0
    7.4692  -16.6890   18.9327 C   0  0  0  0  0  0  0  0  0  0  0  0
    7.7517  -17.5627   20.1354 C   0  0  0  0  0  0  0  0  0  0  0  0
    8.0932  -16.7337   21.3546 C   0  0  2  0  0  0  0  0  0  0  0  0
    8.4223  -15.4055   20.8791 N   0  0  0  0  0  0  0  0  0  0  0  0
    9.2690  -17.3837   22.0073 C   0  0  0  0  0  0  0  0  0  0  0  0
    9.2021  -18.5716   22.4098 O   0  0  0  0  0  0  0  0  0  0  0  0
   10.5001  -16.7003   22.2019 N   0  0  0  0  0  0  0  0  0  0  0  0
   11.6304  -17.2074   22.9287 C   0  0  1  0  0  0  0  0  0  0  0  0
   12.9422  -16.7665   22.3824 C   0  0  0  0  0  0  0  0  0  0  0  0
   13.2123  -16.9082   20.9480 C   0  0  0  0  0  0  0  0  0  0  0  0
   14.5792  -17.0290   20.4725 C   0  0  0  0  0  0  0  0  0  0  0  0
   15.1207  -16.0080   19.8721 O   0  0  0  0  0  0  0  0  0  0  0  0
   11.5643  -17.1225   24.3883 C   0  0  0  0  0  0  0  0  0  0  0  0
   12.5235  -17.6021   25.0886 O   0  0  0  0  0  0  0  0  0  0  0  0
   15.4097  -18.1035   20.5692 O   0  0  0  0  0  0  0  0  0  0  0  0
   10.4809  -16.5329   25.1039 N   0  0  0  0  0  0  0  0  0  0  0  0
   10.4139  -16.5452   26.5636 C   0  0  1  0  0  0  0  0  0  0  0  0
    9.7905  -15.3091   27.0986 C   0  0  0  0  0  0  0  0  0  0  0  0
    8.4684  -14.9537   26.5634 C   0  0  0  0  0  0  0  0  0  0  0  0
    7.5182  -15.8713   26.0987 C   0  0  0  0  0  0  0  0  0  0  0  0
    6.4388  -15.1896   25.7362 N   0  0  0  0  0  0  0  0  0  0  0  0
    6.6155  -13.8612   25.9327 C   0  0  0  0  0  0  0  0  0  0  0  0
    5.8111  -12.7636   25.7106 C   0  0  0  0  0  0  0  0  0  0  0  0
    6.2389  -11.4730   25.9927 C   0  0  0  0  0  0  0  0  0  0  0  0
    7.5113  -11.3235   26.5087 C   0  0  0  0  0  0  0  0  0  0  0  0
    8.3086  -12.4218   26.7282 C   0  0  0  0  0  0  0  0  0  0  0  0
    7.8860  -13.7140   26.4496 C   0  0  0  0  0  0  0  0  0  0  0  0
    9.8489  -17.8323   26.9808 C   0  0  0  0  0  0  0  0  0  0  0  0
    9.9080  -18.1876   28.3224 O   0  0  0  0  0  0  0  0  0  0  0  0
    9.2989  -18.6719   26.2196 O   0  0  0  0  0  0  0  0  0  0  0  0
  2  1  1  0
  2  3  2  0
  4  2  1  0
  5  4  1  0
  5  6  1  0
  6  7  1  6
  8  6  1  0
  8  9  2  0
 10  8  1  0
 11 10  1  0
 11 12  1  6
 13 12  1  0
 13 14  1  0
 14 15  2  0
 16 11  1  0
 17 16  2  0
 18 14  1  0
 19 16  1  0
 20 21  1  6
 20 19  1  0
 21 22  1  0
 22 30  1  0
 23 22  2  0
 23 24  1  0
 24 25  1  0
 25 26  1  0
 26 27  2  0
 28 27  1  0
 29 28  2  0
 30 25  2  0
 30 29  1  0
 31 20  1  0
 32 31  1  0
 33 31  2  0
M  END
$$$$
