QEW.pdb
     RDKit          3D

 33 34  0  0  1  0  0  0  0  0999 V2000
    9.8033  -13.9000   17.3323 N   0  0  0  0  0  0  0  0  0  0  0  0
    8.4323  -13.7587   16.9618 C   0  0  0  0  0  0  0  0  0  0  0  0
    8.2117  -13.1422   15.8636 O   0  0  0  0  0  0  0  0  0  0  0  0
    7.3158  -14.2861   17.7830 C   0  0  0  0  0  0  0  0  0  0  0  0
    7.9151  -14.9391   19.0095 C   0  0  0  0  0  0  0  0  0  0  0  0
    8.5581  -16.2669   18.6721 C   0  0  2  0  0  0  0  0  0  0  0  0
    7.5168  -17.1073   18.1173 N   0  0  0  0  0  0  0  0  0  0  0  0
    9.0880  -16.8307   19.9497 C   0  0  0  0  0  0  0  0  0  0  0  0
    8.3051  -17.2053   20.8576 O   0  0  0  0  0  0  0  0  0  0  0  0
   10.4813  -16.9677   20.1961 N   0  0  0  0  0  0  0  0  0  0  0  0
   11.1126  -16.8917   21.4839 C   0  0  1  0  0  0  0  0  0  0  0  0
   12.5979  -16.8316   21.4216 C   0  0  0  0  0  0  0  0  0  0  0  0
   13.3725  -16.7900   22.6662 C   0  0  0  0  0  0  0  0  0  0  0  0
   14.8225  -16.7237   22.6199 C   0  0  0  0  0  0  0  0  0  0  0  0
   15.4764  -17.7462   22.1477 O   0  0  0  0  0  0  0  0  0  0  0  0
   10.5441  -15.9394   22.4388 C   0  0  0  0  0  0  0  0  0  0  0  0
    9.6901  -15.0763   22.0310 O   0  0  0  0  0  0  0  0  0  0  0  0
   15.6291  -15.7014   23.0171 O   0  0  0  0  0  0  0  0  0  0  0  0
   10.8835  -15.9004   23.8233 N   0  0  0  0  0  0  0  0  0  0  0  0
    9.9232  -15.4995   24.8491 C   0  0  1  0  0  0  0  0  0  0  0  0
    8.6063  -15.1439   24.2643 C   0  0  0  0  0  0  0  0  0  0  0  0
    7.5643  -14.7075   25.2049 C   0  0  0  0  0  0  0  0  0  0  0  0
    6.6027  -15.5460   25.7820 C   0  0  0  0  0  0  0  0  0  0  0  0
    5.8648  -14.8114   26.6048 N   0  0  0  0  0  0  0  0  0  0  0  0
    6.2808  -13.5225   26.6095 C   0  0  0  0  0  0  0  0  0  0  0  0
    5.8447  -12.3971   27.2760 C   0  0  0  0  0  0  0  0  0  0  0  0
    6.4481  -11.1594   27.0961 C   0  0  0  0  0  0  0  0  0  0  0  0
    7.5114  -11.0923   26.2173 C   0  0  0  0  0  0  0  0  0  0  0  0
    7.9419  -12.2180   25.5557 C   0  0  0  0  0  0  0  0  0  0  0  0
    7.3438  -13.4578   25.7327 C   0  0  0  0  0  0  0  0  0  0  0  0
    9.9495  -16.5073   25.9137 C   0  0  0  0  0  0  0  0  0  0  0  0
    9.7082  -16.1076   27.2220 O   0  0  0  0  0  0  0  0  0  0  0  0
   10.1757  -17.7362   25.7535 O   0  0  0  0  0  0  0  0  0  0  0  0
  2  1  1  0
  2  3  2  0
  4  2  1  0
  5  4  1  0
  5  6  1  0
  6  7  1  1
  8  6  1  0
  8  9  2  0
 10  8  1  0
 11 10  1  0
 11 12  1  6
 13 12  1  0
 13 14  1  0
 14 15  2  0
 16 11  1  0
 17 16  2  0
 18 14  1  0
 19 16  1  0
 20 21  1  6
 20 19  1  0
 21 22  1  0
 22 30  1  0
 23 22  2  0
 23 24  1  0
 24 25  1  0
 25 26  1  0
 26 27  2  0
 28 27  1  0
 29 28  2  0
 30 25  2  0
 30 29  1  0
 31 20  1  0
 32 31  1  0
 33 31  2  0
M  END
$$$$
