QEW.pdb
     RDKit          3D

 33 34  0  0  1  0  0  0  0  0999 V2000
    7.2492  -12.4922   18.3040 N   0  0  0  0  0  0  0  0  0  0  0  0
    7.6890  -13.4180   17.3109 C   0  0  0  0  0  0  0  0  0  0  0  0
    7.4782  -13.0762   16.0970 O   0  0  0  0  0  0  0  0  0  0  0  0
    8.3518  -14.7026   17.6420 C   0  0  0  0  0  0  0  0  0  0  0  0
    8.3472  -14.8480   19.1482 C   0  0  0  0  0  0  0  0  0  0  0  0
    9.7525  -14.9625   19.6982 C   0  0  2  0  0  0  0  0  0  0  0  0
   10.5501  -15.6109   18.6775 N   0  0  0  0  0  0  0  0  0  0  0  0
    9.6693  -15.7971   20.9341 C   0  0  0  0  0  0  0  0  0  0  0  0
    8.8814  -15.4893   21.8627 O   0  0  0  0  0  0  0  0  0  0  0  0
   10.4654  -16.9605   21.1166 N   0  0  0  0  0  0  0  0  0  0  0  0
   10.5769  -17.7129   22.3349 C   0  0  1  0  0  0  0  0  0  0  0  0
   11.4561  -18.9081   22.2239 C   0  0  0  0  0  0  0  0  0  0  0  0
   11.6876  -19.7473   23.4040 C   0  0  0  0  0  0  0  0  0  0  0  0
   12.5293  -20.9267   23.3055 C   0  0  0  0  0  0  0  0  0  0  0  0
   13.8190  -20.7801   23.4116 O   0  0  0  0  0  0  0  0  0  0  0  0
   10.8091  -16.9475   23.5605 C   0  0  0  0  0  0  0  0  0  0  0  0
   11.7388  -16.0668   23.5834 O   0  0  0  0  0  0  0  0  0  0  0  0
   12.1453  -22.2180   23.1094 O   0  0  0  0  0  0  0  0  0  0  0  0
   10.0586  -17.1185   24.7610 N   0  0  0  0  0  0  0  0  0  0  0  0
   10.3707  -16.3842   25.9852 C   0  0  1  0  0  0  0  0  0  0  0  0
    9.9493  -14.9636   25.9000 C   0  0  0  0  0  0  0  0  0  0  0  0
    8.5026  -14.7080   25.8486 C   0  0  0  0  0  0  0  0  0  0  0  0
    7.5193  -15.6925   25.6918 C   0  0  0  0  0  0  0  0  0  0  0  0
    6.3354  -15.0943   25.7347 N   0  0  0  0  0  0  0  0  0  0  0  0
    6.4731  -13.7585   25.9115 C   0  0  0  0  0  0  0  0  0  0  0  0
    5.5651  -12.7257   26.0111 C   0  0  0  0  0  0  0  0  0  0  0  0
    5.9700  -11.4087   26.1836 C   0  0  0  0  0  0  0  0  0  0  0  0
    7.3277  -11.1648   26.2526 C   0  0  0  0  0  0  0  0  0  0  0  0
    8.2282  -12.1989   26.1529 C   0  0  0  0  0  0  0  0  0  0  0  0
    7.8294  -13.5171   25.9819 C   0  0  0  0  0  0  0  0  0  0  0  0
    9.8892  -17.1738   27.1229 C   0  0  0  0  0  0  0  0  0  0  0  0
   10.1592  -16.7284   28.4107 O   0  0  0  0  0  0  0  0  0  0  0  0
    9.2353  -18.2476   27.0448 O   0  0  0  0  0  0  0  0  0  0  0  0
  2  1  1  0
  2  3  2  0
  4  2  1  0
  5  4  1  0
  5  6  1  0
  6  7  1  6
  8  6  1  0
  8  9  2  0
 10  8  1  0
 11 10  1  0
 11 12  1  6
 13 12  1  0
 13 14  1  0
 14 15  2  0
 16 11  1  0
 17 16  2  0
 18 14  1  0
 19 16  1  0
 20 21  1  6
 20 19  1  0
 21 22  1  0
 22 30  1  0
 23 22  2  0
 23 24  1  0
 24 25  1  0
 25 26  1  0
 26 27  2  0
 28 27  1  0
 29 28  2  0
 30 25  2  0
 30 29  1  0
 31 20  1  0
 32 31  1  0
 33 31  2  0
M  END
$$$$
