QEW.pdb
     RDKit          3D

 33 34  0  0  1  0  0  0  0  0999 V2000
    9.5434  -12.3587   19.1827 N   0  0  0  0  0  0  0  0  0  0  0  0
    8.3951  -12.3392   20.0299 C   0  0  0  0  0  0  0  0  0  0  0  0
    8.1366  -11.2211   20.5937 O   0  0  0  0  0  0  0  0  0  0  0  0
    7.5395  -13.5289   20.2575 C   0  0  0  0  0  0  0  0  0  0  0  0
    8.1466  -14.6853   19.4932 C   0  0  0  0  0  0  0  0  0  0  0  0
    7.3973  -15.9745   19.7515 C   0  0  2  0  0  0  0  0  0  0  0  0
    6.0265  -15.6104   20.0459 N   0  0  0  0  0  0  0  0  0  0  0  0
    8.0494  -16.6291   20.9250 C   0  0  0  0  0  0  0  0  0  0  0  0
    7.4606  -16.6905   22.0328 O   0  0  0  0  0  0  0  0  0  0  0  0
    9.3471  -17.2040   20.8465 N   0  0  0  0  0  0  0  0  0  0  0  0
   10.0465  -17.8371   21.9295 C   0  0  1  0  0  0  0  0  0  0  0  0
   11.2666  -18.5756   21.5058 C   0  0  0  0  0  0  0  0  0  0  0  0
   12.0815  -19.2632   22.5126 C   0  0  0  0  0  0  0  0  0  0  0  0
   13.5096  -19.4272   22.3058 C   0  0  0  0  0  0  0  0  0  0  0  0
   14.3225  -19.0315   23.2432 O   0  0  0  0  0  0  0  0  0  0  0  0
   10.2575  -17.0331   23.1340 C   0  0  0  0  0  0  0  0  0  0  0  0
   10.8828  -15.9190   23.0430 O   0  0  0  0  0  0  0  0  0  0  0  0
   14.1459  -19.9578   21.2254 O   0  0  0  0  0  0  0  0  0  0  0  0
    9.8090  -17.4120   24.4336 N   0  0  0  0  0  0  0  0  0  0  0  0
   10.2006  -16.6800   25.6362 C   0  0  1  0  0  0  0  0  0  0  0  0
    9.9724  -15.2204   25.4934 C   0  0  0  0  0  0  0  0  0  0  0  0
    8.5815  -14.7576   25.6030 C   0  0  0  0  0  0  0  0  0  0  0  0
    7.4513  -15.5661   25.4306 C   0  0  0  0  0  0  0  0  0  0  0  0
    6.3784  -14.8156   25.6467 N   0  0  0  0  0  0  0  0  0  0  0  0
    6.7298  -13.5443   25.9546 C   0  0  0  0  0  0  0  0  0  0  0  0
    5.9990  -12.4128   26.2490 C   0  0  0  0  0  0  0  0  0  0  0  0
    6.6107  -11.1974   26.5262 C   0  0  0  0  0  0  0  0  0  0  0  0
    7.9909  -11.1589   26.4966 C   0  0  0  0  0  0  0  0  0  0  0  0
    8.7142  -12.2906   26.2026 C   0  0  0  0  0  0  0  0  0  0  0  0
    8.1085  -13.5083   25.9263 C   0  0  0  0  0  0  0  0  0  0  0  0
    9.6046  -17.3559   26.7927 C   0  0  0  0  0  0  0  0  0  0  0  0
    9.9157  -16.9024   28.0684 O   0  0  0  0  0  0  0  0  0  0  0  0
    8.8147  -18.3358   26.7415 O   0  0  0  0  0  0  0  0  0  0  0  0
  2  1  1  0
  2  3  2  0
  4  2  1  0
  5  4  1  0
  5  6  1  0
  6  7  1  1
  8  6  1  0
  8  9  2  0
 10  8  1  0
 11 10  1  0
 11 12  1  6
 13 12  1  0
 13 14  1  0
 14 15  2  0
 16 11  1  0
 17 16  2  0
 18 14  1  0
 19 16  1  0
 20 21  1  6
 20 19  1  0
 21 22  1  0
 22 30  1  0
 23 22  2  0
 23 24  1  0
 24 25  1  0
 25 26  1  0
 26 27  2  0
 28 27  1  0
 29 28  2  0
 30 25  2  0
 30 29  1  0
 31 20  1  0
 32 31  1  0
 33 31  2  0
M  END
$$$$
