KKS.pdb
     RDKit          3D

 25 24  0  0  1  0  0  0  0  0999 V2000
   19.7012  -12.3521  -16.5896 N   0  0  0  0  0  0  0  0  0  0  0  0
   19.0999  -11.0851  -16.7043 C   0  0  1  0  0  0  0  0  0  0  0  0
   18.0382  -10.9119  -15.6325 C   0  0  0  0  0  0  0  0  0  0  0  0
   16.9240  -11.8850  -15.6687 C   0  0  0  0  0  0  0  0  0  0  0  0
   15.8831  -11.7687  -14.6096 C   0  0  0  0  0  0  0  0  0  0  0  0
   14.8345  -12.8797  -14.7312 C   0  0  0  0  0  0  0  0  0  0  0  0
   13.8174  -12.7315  -13.6831 N   0  0  0  0  0  0  0  0  0  0  0  0
   20.0036   -9.9372  -16.7663 C   0  0  0  0  0  0  0  0  0  0  0  0
   20.9930   -9.9124  -15.9402 O   0  0  0  0  0  0  0  0  0  0  0  0
   19.8829   -8.8743  -17.6404 N   0  0  0  0  0  0  0  0  0  0  0  0
   20.8639   -7.7629  -17.6826 C   0  0  1  0  0  0  0  0  0  0  0  0
   20.5995   -7.0902  -19.0082 C   0  0  0  0  0  0  0  0  0  0  0  0
   21.8195   -6.7428  -19.7713 C   0  0  0  0  0  0  0  0  0  0  0  0
   22.3354   -7.8263  -20.6834 C   0  0  0  0  0  0  0  0  0  0  0  0
   23.5731   -7.5150  -21.4363 C   0  0  0  0  0  0  0  0  0  0  0  0
   24.0900   -8.5498  -22.2781 N   0  0  0  0  0  0  0  0  0  0  0  0
   20.6931   -6.9009  -16.5017 C   0  0  0  0  0  0  0  0  0  0  0  0
   19.5056   -6.6323  -16.1237 O   0  0  0  0  0  0  0  0  0  0  0  0
   22.5502   -4.7788  -12.5146 O   0  0  0  0  0  0  0  0  0  0  0  0
   22.6692   -5.5936  -13.6092 C   0  0  0  0  0  0  0  0  0  0  0  0
   21.5199   -5.4992  -14.5787 C   0  0  2  0  0  0  0  0  0  0  0  0
   21.7222   -6.3424  -15.7395 N   0  0  0  0  0  0  0  0  0  0  0  0
   21.1658   -4.1141  -14.9353 C   0  0  0  0  0  0  0  0  0  0  0  0
   20.1830   -3.4359  -14.2461 O   0  0  0  0  0  0  0  0  0  0  0  0
   21.7595   -3.5422  -15.8714 O   0  0  0  0  0  0  0  0  0  0  0  0
  2  1  1  1
  2  3  1  0
  3  4  1  0
  5  6  1  0
  5  4  1  0
  7  6  1  0
  8  2  1  0
  9  8  2  0
 10  8  1  0
 11 10  1  0
 11 12  1  6
 12 13  1  0
 14 15  1  0
 14 13  1  0
 16 15  1  0
 17 11  1  0
 18 17  2  0
 19 20  1  0
 21 20  1  6
 21 23  1  0
 21 22  1  0
 22 17  1  0
 23 24  1  0
 25 23  2  0
M  END
$$$$
