KKS.pdb
     RDKit          3D

 25 24  0  0  1  0  0  0  0  0999 V2000
   18.3806  -17.9126  -20.0679 N   0  0  0  0  0  0  0  0  0  0  0  0
   18.7026  -16.5448  -19.9967 C   0  0  1  0  0  0  0  0  0  0  0  0
   17.8243  -15.7511  -20.9478 C   0  0  0  0  0  0  0  0  0  0  0  0
   16.7616  -16.5194  -21.6333 C   0  0  0  0  0  0  0  0  0  0  0  0
   15.4607  -15.8302  -21.8601 C   0  0  0  0  0  0  0  0  0  0  0  0
   14.4581  -16.7466  -22.5698 C   0  0  0  0  0  0  0  0  0  0  0  0
   13.1851  -16.0436  -22.7704 N   0  0  0  0  0  0  0  0  0  0  0  0
   18.7346  -15.9506  -18.6609 C   0  0  0  0  0  0  0  0  0  0  0  0
   17.7762  -16.2500  -17.8525 O   0  0  0  0  0  0  0  0  0  0  0  0
   19.7111  -15.0924  -18.1937 N   0  0  0  0  0  0  0  0  0  0  0  0
   19.6918  -14.5376  -16.8185 C   0  0  1  0  0  0  0  0  0  0  0  0
   21.0098  -14.9765  -16.2271 C   0  0  0  0  0  0  0  0  0  0  0  0
   21.1288  -16.4370  -16.0165 C   0  0  0  0  0  0  0  0  0  0  0  0
   22.4797  -16.9082  -15.5419 C   0  0  0  0  0  0  0  0  0  0  0  0
   22.6373  -18.3704  -15.3607 C   0  0  0  0  0  0  0  0  0  0  0  0
   23.9347  -18.8334  -14.9746 N   0  0  0  0  0  0  0  0  0  0  0  0
   19.4870  -13.0808  -16.8707 C   0  0  0  0  0  0  0  0  0  0  0  0
   20.1562  -12.4126  -17.7256 O   0  0  0  0  0  0  0  0  0  0  0  0
   17.1906   -9.0669  -15.1994 O   0  0  0  0  0  0  0  0  0  0  0  0
   17.3984  -10.4204  -15.1658 C   0  0  0  0  0  0  0  0  0  0  0  0
   18.4596  -10.9074  -16.1178 C   0  0  2  0  0  0  0  0  0  0  0  0
   18.6133  -12.3470  -16.0643 N   0  0  0  0  0  0  0  0  0  0  0  0
   19.7408  -10.1921  -15.9835 C   0  0  0  0  0  0  0  0  0  0  0  0
   20.7291  -10.6635  -15.1457 O   0  0  0  0  0  0  0  0  0  0  0  0
   19.9400   -9.1465  -16.6337 O   0  0  0  0  0  0  0  0  0  0  0  0
  2  1  1  1
  2  3  1  0
  3  4  1  0
  5  6  1  0
  5  4  1  0
  7  6  1  0
  8  2  1  0
  9  8  2  0
 10  8  1  0
 11 10  1  0
 11 12  1  6
 12 13  1  0
 14 15  1  0
 14 13  1  0
 16 15  1  0
 17 11  1  0
 18 17  2  0
 19 20  1  0
 21 20  1  1
 21 23  1  0
 21 22  1  0
 22 17  1  0
 23 24  1  0
 25 23  2  0
M  END
$$$$
