KKS.pdb
     RDKit          3D

 25 24  0  0  1  0  0  0  0  0999 V2000
   14.7112  -13.4166  -12.5604 N   0  0  0  0  0  0  0  0  0  0  0  0
   15.8001  -12.5712  -12.8423 C   0  0  1  0  0  0  0  0  0  0  0  0
   16.4935  -13.0199  -14.1166 C   0  0  0  0  0  0  0  0  0  0  0  0
   16.4387  -14.4710  -14.4011 C   0  0  0  0  0  0  0  0  0  0  0  0
   17.0852  -14.9440  -15.6570 C   0  0  0  0  0  0  0  0  0  0  0  0
   16.8762  -16.4484  -15.8616 C   0  0  0  0  0  0  0  0  0  0  0  0
   17.4583  -16.8700  -17.1417 N   0  0  0  0  0  0  0  0  0  0  0  0
   15.5265  -11.1347  -12.8479 C   0  0  0  0  0  0  0  0  0  0  0  0
   15.1470  -10.6047  -13.9601 O   0  0  0  0  0  0  0  0  0  0  0  0
   15.6421  -10.2973  -11.7554 N   0  0  0  0  0  0  0  0  0  0  0  0
   15.2031   -8.8811  -11.7878 C   0  0  1  0  0  0  0  0  0  0  0  0
   14.4936   -8.6865  -10.4694 C   0  0  0  0  0  0  0  0  0  0  0  0
   13.0886   -9.1525  -10.4569 C   0  0  0  0  0  0  0  0  0  0  0  0
   12.3919   -9.0528   -9.1239 C   0  0  0  0  0  0  0  0  0  0  0  0
   10.9601   -9.4337   -9.1026 C   0  0  0  0  0  0  0  0  0  0  0  0
   10.2940   -9.3565   -7.8389 N   0  0  0  0  0  0  0  0  0  0  0  0
   16.3645   -8.0032  -12.0056 C   0  0  0  0  0  0  0  0  0  0  0  0
   17.4229   -8.2331  -11.3331 O   0  0  0  0  0  0  0  0  0  0  0  0
   17.9416   -6.7594  -15.4260 O   0  0  0  0  0  0  0  0  0  0  0  0
   18.4982   -6.7065  -14.1755 C   0  0  0  0  0  0  0  0  0  0  0  0
   17.5990   -6.1126  -13.1226 C   0  0  2  0  0  0  0  0  0  0  0  0
   16.4228   -6.9274  -12.8951 N   0  0  0  0  0  0  0  0  0  0  0  0
   17.2731   -4.6956  -13.3612 C   0  0  0  0  0  0  0  0  0  0  0  0
   18.2664   -3.7408  -13.4131 O   0  0  0  0  0  0  0  0  0  0  0  0
   16.0854   -4.3491  -13.5195 O   0  0  0  0  0  0  0  0  0  0  0  0
  2  1  1  6
  2  3  1  0
  3  4  1  0
  5  6  1  0
  5  4  1  0
  7  6  1  0
  8  2  1  0
  9  8  2  0
 10  8  1  0
 11 10  1  0
 11 12  1  1
 12 13  1  0
 14 15  1  0
 14 13  1  0
 16 15  1  0
 17 11  1  0
 18 17  2  0
 19 20  1  0
 21 20  1  6
 21 23  1  0
 21 22  1  0
 22 17  1  0
 23 24  1  0
 25 23  2  0
M  END
$$$$
