KKS.pdb
     RDKit          3D

 25 24  0  0  1  0  0  0  0  0999 V2000
   13.0415  -10.6295  -10.2075 N   0  0  0  0  0  0  0  0  0  0  0  0
   14.4211  -10.4820   -9.9735 C   0  0  1  0  0  0  0  0  0  0  0  0
   15.1809  -11.6510  -10.5755 C   0  0  0  0  0  0  0  0  0  0  0  0
   14.5187  -12.9701  -10.4705 C   0  0  0  0  0  0  0  0  0  0  0  0
   14.3441  -13.7470  -11.7294 C   0  0  0  0  0  0  0  0  0  0  0  0
   13.5919  -15.0584  -11.4778 C   0  0  0  0  0  0  0  0  0  0  0  0
   13.4486  -15.8073  -12.7323 N   0  0  0  0  0  0  0  0  0  0  0  0
   15.0126   -9.1978  -10.3468 C   0  0  0  0  0  0  0  0  0  0  0  0
   14.6143   -8.6555  -11.4464 O   0  0  0  0  0  0  0  0  0  0  0  0
   15.9659   -8.5168   -9.6148 N   0  0  0  0  0  0  0  0  0  0  0  0
   16.4984   -7.1975  -10.0333 C   0  0  1  0  0  0  0  0  0  0  0  0
   16.3150   -6.3246   -8.8152 C   0  0  0  0  0  0  0  0  0  0  0  0
   14.9557   -5.7567   -8.6694 C   0  0  0  0  0  0  0  0  0  0  0  0
   14.7948   -4.7574   -7.5524 C   0  0  0  0  0  0  0  0  0  0  0  0
   13.4604   -4.1259   -7.4252 C   0  0  0  0  0  0  0  0  0  0  0  0
   13.2750   -3.2333   -6.3226 N   0  0  0  0  0  0  0  0  0  0  0  0
   17.8898   -7.3431  -10.4914 C   0  0  0  0  0  0  0  0  0  0  0  0
   18.7397   -7.8330   -9.6772 O   0  0  0  0  0  0  0  0  0  0  0  0
   19.2896   -8.8409  -13.8144 O   0  0  0  0  0  0  0  0  0  0  0  0
   20.0427   -8.5077  -12.7198 C   0  0  0  0  0  0  0  0  0  0  0  0
   19.7585   -7.1350  -12.1678 C   0  0  2  0  0  0  0  0  0  0  0  0
   18.3773   -6.9950  -11.7536 N   0  0  0  0  0  0  0  0  0  0  0  0
   20.2013   -6.0437  -13.0534 C   0  0  0  0  0  0  0  0  0  0  0  0
   19.2865   -5.2021  -13.6499 O   0  0  0  0  0  0  0  0  0  0  0  0
   21.4178   -5.8737  -13.2698 O   0  0  0  0  0  0  0  0  0  0  0  0
  2  1  1  6
  2  3  1  0
  3  4  1  0
  5  6  1  0
  5  4  1  0
  7  6  1  0
  8  2  1  0
  9  8  2  0
 10  8  1  0
 11 10  1  0
 11 12  1  1
 12 13  1  0
 14 15  1  0
 14 13  1  0
 16 15  1  0
 17 11  1  0
 18 17  2  0
 19 20  1  0
 21 20  1  6
 21 23  1  0
 21 22  1  0
 22 17  1  0
 23 24  1  0
 25 23  2  0
M  END
$$$$
