KKS.pdb
     RDKit          3D

 25 24  0  0  1  0  0  0  0  0999 V2000
   19.4288  -24.5758   -7.2304 N   0  0  0  0  0  0  0  0  0  0  0  0
   18.2581  -25.1984   -6.7597 C   0  0  1  0  0  0  0  0  0  0  0  0
   18.0917  -26.5594   -7.4124 C   0  0  0  0  0  0  0  0  0  0  0  0
   18.0689  -26.5640   -8.8919 C   0  0  0  0  0  0  0  0  0  0  0  0
   17.6984  -27.8407   -9.5639 C   0  0  0  0  0  0  0  0  0  0  0  0
   17.6851  -27.6872  -11.0886 C   0  0  0  0  0  0  0  0  0  0  0  0
   17.2568  -28.9419  -11.7191 N   0  0  0  0  0  0  0  0  0  0  0  0
   18.0938  -25.2668   -5.3082 C   0  0  0  0  0  0  0  0  0  0  0  0
   19.1618  -25.2536   -4.5864 O   0  0  0  0  0  0  0  0  0  0  0  0
   16.8840  -25.3445   -4.6460 N   0  0  0  0  0  0  0  0  0  0  0  0
   16.7752  -25.2340   -3.1711 C   0  0  1  0  0  0  0  0  0  0  0  0
   15.7012  -24.1942   -2.9593 C   0  0  0  0  0  0  0  0  0  0  0  0
   15.5636  -23.7343   -1.5589 C   0  0  0  0  0  0  0  0  0  0  0  0
   14.4206  -22.7850   -1.3052 C   0  0  0  0  0  0  0  0  0  0  0  0
   14.2462  -22.3280    0.0935 C   0  0  0  0  0  0  0  0  0  0  0  0
   13.1806  -21.4056    0.3394 N   0  0  0  0  0  0  0  0  0  0  0  0
   16.4854  -26.5557   -2.5914 C   0  0  0  0  0  0  0  0  0  0  0  0
   15.7588  -27.3582   -3.2646 O   0  0  0  0  0  0  0  0  0  0  0  0
   18.7837  -28.8772   -0.1210 O   0  0  0  0  0  0  0  0  0  0  0  0
   17.4930  -28.7291    0.3133 C   0  0  0  0  0  0  0  0  0  0  0  0
   16.5293  -28.2776   -0.7531 C   0  0  2  0  0  0  0  0  0  0  0  0
   16.9398  -27.0261   -1.3568 N   0  0  0  0  0  0  0  0  0  0  0  0
   15.1255  -28.2610   -0.3058 C   0  0  0  0  0  0  0  0  0  0  0  0
   14.3602  -29.4074   -0.3365 O   0  0  0  0  0  0  0  0  0  0  0  0
   14.6174  -27.1995    0.1075 O   0  0  0  0  0  0  0  0  0  0  0  0
  2  1  1  1
  2  3  1  0
  3  4  1  0
  5  6  1  0
  5  4  1  0
  7  6  1  0
  8  2  1  0
  9  8  2  0
 10  8  1  0
 11 10  1  0
 11 12  1  6
 12 13  1  0
 14 15  1  0
 14 13  1  0
 16 15  1  0
 17 11  1  0
 18 17  2  0
 19 20  1  0
 21 20  1  1
 21 23  1  0
 21 22  1  0
 22 17  1  0
 23 24  1  0
 25 23  2  0
M  END
$$$$
