KKS.pdb
     RDKit          3D

 25 24  0  0  1  0  0  0  0  0999 V2000
   26.5485  -22.4698  -14.8007 N   0  0  0  0  0  0  0  0  0  0  0  0
   25.9408  -21.3080  -14.2900 C   0  0  1  0  0  0  0  0  0  0  0  0
   26.0732  -20.1687  -15.2852 C   0  0  0  0  0  0  0  0  0  0  0  0
   26.5755  -20.5420  -16.6260 C   0  0  0  0  0  0  0  0  0  0  0  0
   25.6315  -21.2509  -17.5344 C   0  0  0  0  0  0  0  0  0  0  0  0
   26.2250  -21.4196  -18.9372 C   0  0  0  0  0  0  0  0  0  0  0  0
   26.0753  -20.1755  -19.7021 N   0  0  0  0  0  0  0  0  0  0  0  0
   24.5691  -21.4493  -13.8032 C   0  0  0  0  0  0  0  0  0  0  0  0
   23.8698  -22.4277  -14.2675 O   0  0  0  0  0  0  0  0  0  0  0  0
   23.9603  -20.6173  -12.8837 N   0  0  0  0  0  0  0  0  0  0  0  0
   22.5796  -20.8472  -12.3938 C   0  0  1  0  0  0  0  0  0  0  0  0
   22.5213  -20.0873  -11.0904 C   0  0  0  0  0  0  0  0  0  0  0  0
   21.2498  -20.2432  -10.3486 C   0  0  0  0  0  0  0  0  0  0  0  0
   21.0596  -21.5785   -9.6757 C   0  0  0  0  0  0  0  0  0  0  0  0
   19.7702  -21.7814   -8.9744 C   0  0  0  0  0  0  0  0  0  0  0  0
   19.4982  -23.1035   -8.5002 N   0  0  0  0  0  0  0  0  0  0  0  0
   21.6096  -20.4124  -13.4121 C   0  0  0  0  0  0  0  0  0  0  0  0
   21.7926  -19.2798  -13.9678 O   0  0  0  0  0  0  0  0  0  0  0  0
   20.0767  -22.5142  -16.3372 O   0  0  0  0  0  0  0  0  0  0  0  0
   19.0759  -21.8135  -15.7176 C   0  0  0  0  0  0  0  0  0  0  0  0
   19.5593  -20.6798  -14.8511 C   0  0  2  0  0  0  0  0  0  0  0  0
   20.4917  -21.1334  -13.8392 N   0  0  0  0  0  0  0  0  0  0  0  0
   18.4681  -19.8609  -14.2944 C   0  0  0  0  0  0  0  0  0  0  0  0
   18.3467  -19.6756  -12.9337 O   0  0  0  0  0  0  0  0  0  0  0  0
   17.6407  -19.3254  -15.0590 O   0  0  0  0  0  0  0  0  0  0  0  0
  2  1  1  6
  2  3  1  0
  3  4  1  0
  5  6  1  0
  5  4  1  0
  7  6  1  0
  8  2  1  0
  9  8  2  0
 10  8  1  0
 11 10  1  0
 11 12  1  1
 12 13  1  0
 14 15  1  0
 14 13  1  0
 16 15  1  0
 17 11  1  0
 18 17  2  0
 19 20  1  0
 21 20  1  1
 21 23  1  0
 21 22  1  0
 22 17  1  0
 23 24  1  0
 25 23  2  0
M  END
$$$$
