KKS.pdb
     RDKit          3D

 25 24  0  0  1  0  0  0  0  0999 V2000
   24.1412  -22.6086  -14.6385 N   0  0  0  0  0  0  0  0  0  0  0  0
   23.2447  -22.6514  -15.7221 C   0  0  1  0  0  0  0  0  0  0  0  0
   23.8711  -23.3941  -16.8892 C   0  0  0  0  0  0  0  0  0  0  0  0
   25.3340  -23.2328  -17.0426 C   0  0  0  0  0  0  0  0  0  0  0  0
   26.1801  -24.4373  -16.8141 C   0  0  0  0  0  0  0  0  0  0  0  0
   27.6642  -24.1299  -17.0412 C   0  0  0  0  0  0  0  0  0  0  0  0
   28.4749  -25.3230  -16.7682 N   0  0  0  0  0  0  0  0  0  0  0  0
   21.8940  -23.1315  -15.4329 C   0  0  0  0  0  0  0  0  0  0  0  0
   21.1396  -23.4277  -16.4354 O   0  0  0  0  0  0  0  0  0  0  0  0
   21.3595  -23.2938  -14.1695 N   0  0  0  0  0  0  0  0  0  0  0  0
   19.9797  -23.7894  -13.9464 C   0  0  1  0  0  0  0  0  0  0  0  0
   20.0234  -24.3851  -12.5598 C   0  0  0  0  0  0  0  0  0  0  0  0
   19.2091  -25.6103  -12.3951 C   0  0  0  0  0  0  0  0  0  0  0  0
   19.1544  -26.1600  -10.9926 C   0  0  0  0  0  0  0  0  0  0  0  0
   18.2348  -27.3005  -10.7710 C   0  0  0  0  0  0  0  0  0  0  0  0
   18.1685  -27.8229   -9.4408 N   0  0  0  0  0  0  0  0  0  0  0  0
   19.0191  -22.6878  -14.1210 C   0  0  0  0  0  0  0  0  0  0  0  0
   19.3042  -21.5577  -13.6046 O   0  0  0  0  0  0  0  0  0  0  0  0
   17.3033  -19.7731  -16.9000 O   0  0  0  0  0  0  0  0  0  0  0  0
   17.9408  -20.8440  -16.3317 C   0  0  0  0  0  0  0  0  0  0  0  0
   17.0987  -21.6154  -15.3491 C   0  0  2  0  0  0  0  0  0  0  0  0
   17.8072  -22.7596  -14.8125 N   0  0  0  0  0  0  0  0  0  0  0  0
   15.7638  -21.9633  -15.8671 C   0  0  0  0  0  0  0  0  0  0  0  0
   14.6841  -21.1330  -15.6534 O   0  0  0  0  0  0  0  0  0  0  0  0
   15.6023  -23.0209  -16.5083 O   0  0  0  0  0  0  0  0  0  0  0  0
  2  1  1  1
  2  3  1  0
  3  4  1  0
  5  6  1  0
  5  4  1  0
  7  6  1  0
  8  2  1  0
  9  8  2  0
 10  8  1  0
 11 10  1  0
 11 12  1  1
 12 13  1  0
 14 15  1  0
 14 13  1  0
 16 15  1  0
 17 11  1  0
 18 17  2  0
 19 20  1  0
 21 20  1  6
 21 23  1  0
 21 22  1  0
 22 17  1  0
 23 24  1  0
 25 23  2  0
M  END
$$$$
