KKS.pdb
     RDKit          3D

 25 24  0  0  1  0  0  0  0  0999 V2000
   26.5648  -32.7477  -17.8822 N   0  0  0  0  0  0  0  0  0  0  0  0
   27.5030  -33.1293  -16.9054 C   0  0  1  0  0  0  0  0  0  0  0  0
   26.8566  -34.0623  -15.8966 C   0  0  0  0  0  0  0  0  0  0  0  0
   25.8148  -33.4572  -15.0375 C   0  0  0  0  0  0  0  0  0  0  0  0
   25.3065  -34.2772  -13.9026 C   0  0  0  0  0  0  0  0  0  0  0  0
   26.4500  -34.7539  -13.0004 C   0  0  0  0  0  0  0  0  0  0  0  0
   25.9142  -35.5147  -11.8650 N   0  0  0  0  0  0  0  0  0  0  0  0
   28.7771  -33.6545  -17.3945 C   0  0  0  0  0  0  0  0  0  0  0  0
   28.7517  -34.3896  -18.4532 O   0  0  0  0  0  0  0  0  0  0  0  0
   30.0091  -33.4262  -16.8127 N   0  0  0  0  0  0  0  0  0  0  0  0
   31.2566  -34.0470  -17.3204 C   0  0  1  0  0  0  0  0  0  0  0  0
   32.3503  -33.1333  -16.8219 C   0  0  0  0  0  0  0  0  0  0  0  0
   32.4145  -31.8246  -17.5108 C   0  0  0  0  0  0  0  0  0  0  0  0
   33.4910  -30.8922  -17.0168 C   0  0  0  0  0  0  0  0  0  0  0  0
   34.6487  -30.6910  -17.9195 C   0  0  0  0  0  0  0  0  0  0  0  0
   35.7100  -29.8667  -17.4286 N   0  0  0  0  0  0  0  0  0  0  0  0
   31.3474  -35.4398  -16.8528 C   0  0  0  0  0  0  0  0  0  0  0  0
   30.7404  -35.7502  -15.7755 O   0  0  0  0  0  0  0  0  0  0  0  0
   30.4533  -39.6570  -16.5542 O   0  0  0  0  0  0  0  0  0  0  0  0
   30.5671  -38.3320  -16.8825 C   0  0  0  0  0  0  0  0  0  0  0  0
   31.9845  -37.8654  -17.0903 C   0  0  2  0  0  0  0  0  0  0  0  0
   32.0418  -36.4731  -17.4869 N   0  0  0  0  0  0  0  0  0  0  0  0
   32.7665  -38.7435  -17.9783 C   0  0  0  0  0  0  0  0  0  0  0  0
   33.8009  -39.5090  -17.4835 O   0  0  0  0  0  0  0  0  0  0  0  0
   32.4938  -38.7997  -19.1942 O   0  0  0  0  0  0  0  0  0  0  0  0
  2  1  1  6
  2  3  1  0
  3  4  1  0
  5  6  1  0
  5  4  1  0
  7  6  1  0
  8  2  1  0
  9  8  2  0
 10  8  1  0
 11 10  1  0
 11 12  1  1
 12 13  1  0
 14 15  1  0
 14 13  1  0
 16 15  1  0
 17 11  1  0
 18 17  2  0
 19 20  1  0
 21 20  1  6
 21 23  1  0
 21 22  1  0
 22 17  1  0
 23 24  1  0
 25 23  2  0
M  END
$$$$
