KKS.pdb
     RDKit          3D

 25 24  0  0  1  0  0  0  0  0999 V2000
   26.0858  -20.9432  -12.6194 N   0  0  0  0  0  0  0  0  0  0  0  0
   24.9260  -20.9190  -13.4157 C   0  0  1  0  0  0  0  0  0  0  0  0
   23.7372  -21.4329  -12.6228 C   0  0  0  0  0  0  0  0  0  0  0  0
   23.9012  -21.4418  -11.1522 C   0  0  0  0  0  0  0  0  0  0  0  0
   25.1796  -20.9069  -10.6059 C   0  0  0  0  0  0  0  0  0  0  0  0
   25.1873  -20.9320   -9.0736 C   0  0  0  0  0  0  0  0  0  0  0  0
   26.4481  -20.3777   -8.5654 N   0  0  0  0  0  0  0  0  0  0  0  0
   24.6253  -19.6580  -14.0924 C   0  0  0  0  0  0  0  0  0  0  0  0
   24.9003  -18.5654  -13.4661 O   0  0  0  0  0  0  0  0  0  0  0  0
   24.0689  -19.5424  -15.3515 N   0  0  0  0  0  0  0  0  0  0  0  0
   23.8140  -18.2291  -15.9917 C   0  0  1  0  0  0  0  0  0  0  0  0
   24.1516  -18.4578  -17.4454 C   0  0  0  0  0  0  0  0  0  0  0  0
   23.9877  -17.2645  -18.3059 C   0  0  0  0  0  0  0  0  0  0  0  0
   25.2101  -16.3916  -18.4311 C   0  0  0  0  0  0  0  0  0  0  0  0
   25.0679  -15.1814  -19.2743 C   0  0  0  0  0  0  0  0  0  0  0  0
   26.2386  -14.3773  -19.4461 N   0  0  0  0  0  0  0  0  0  0  0  0
   22.4273  -17.8084  -15.7331 C   0  0  0  0  0  0  0  0  0  0  0  0
   21.5174  -18.7010  -15.7538 O   0  0  0  0  0  0  0  0  0  0  0  0
   19.2321  -14.3384  -14.3858 O   0  0  0  0  0  0  0  0  0  0  0  0
   20.5179  -14.7618  -14.5950 C   0  0  0  0  0  0  0  0  0  0  0  0
   20.6251  -16.1180  -15.2424 C   0  0  2  0  0  0  0  0  0  0  0  0
   22.0044  -16.5054  -15.4585 N   0  0  0  0  0  0  0  0  0  0  0  0
   19.7978  -16.2565  -16.4538 C   0  0  0  0  0  0  0  0  0  0  0  0
   18.5528  -16.8460  -16.3960 O   0  0  0  0  0  0  0  0  0  0  0  0
   20.2235  -15.8366  -17.5484 O   0  0  0  0  0  0  0  0  0  0  0  0
  2  1  1  1
  2  3  1  0
  3  4  1  0
  5  6  1  0
  5  4  1  0
  7  6  1  0
  8  2  1  0
  9  8  2  0
 10  8  1  0
 11 10  1  0
 11 12  1  6
 12 13  1  0
 14 15  1  0
 14 13  1  0
 16 15  1  0
 17 11  1  0
 18 17  2  0
 19 20  1  0
 21 20  1  6
 21 23  1  0
 21 22  1  0
 22 17  1  0
 23 24  1  0
 25 23  2  0
M  END
$$$$
