KKS.pdb
     RDKit          3D

 25 24  0  0  1  0  0  0  0  0999 V2000
   21.8875  -16.8991  -18.5311 N   0  0  0  0  0  0  0  0  0  0  0  0
   22.3587  -16.7423  -17.2146 C   0  0  1  0  0  0  0  0  0  0  0  0
   21.1957  -16.4980  -16.2692 C   0  0  0  0  0  0  0  0  0  0  0  0
   20.3954  -15.2823  -16.5359 C   0  0  0  0  0  0  0  0  0  0  0  0
   19.3001  -14.9637  -15.5779 C   0  0  0  0  0  0  0  0  0  0  0  0
   18.6789  -13.5943  -15.8735 C   0  0  0  0  0  0  0  0  0  0  0  0
   17.6333  -13.2906  -14.8888 N   0  0  0  0  0  0  0  0  0  0  0  0
   23.2574  -17.7821  -16.7151 C   0  0  0  0  0  0  0  0  0  0  0  0
   22.9156  -19.0096  -16.9107 O   0  0  0  0  0  0  0  0  0  0  0  0
   24.4462  -17.5552  -16.0489 N   0  0  0  0  0  0  0  0  0  0  0  0
   25.2822  -18.6574  -15.5145 C   0  0  1  0  0  0  0  0  0  0  0  0
   26.6539  -18.0425  -15.3738 C   0  0  0  0  0  0  0  0  0  0  0  0
   27.6972  -18.9783  -14.8972 C   0  0  0  0  0  0  0  0  0  0  0  0
   27.8593  -20.2308  -15.7201 C   0  0  0  0  0  0  0  0  0  0  0  0
   28.8964  -21.1854  -15.2635 C   0  0  0  0  0  0  0  0  0  0  0  0
   29.0038  -22.4130  -15.9903 N   0  0  0  0  0  0  0  0  0  0  0  0
   24.6968  -19.1669  -14.2637 C   0  0  0  0  0  0  0  0  0  0  0  0
   24.2651  -18.3184  -13.4159 O   0  0  0  0  0  0  0  0  0  0  0  0
   22.1201  -21.9694  -13.6146 O   0  0  0  0  0  0  0  0  0  0  0  0
   23.1719  -22.1668  -12.7596 C   0  0  0  0  0  0  0  0  0  0  0  0
   24.0898  -20.9799  -12.6234 C   0  0  2  0  0  0  0  0  0  0  0  0
   24.5618  -20.5120  -13.9108 N   0  0  0  0  0  0  0  0  0  0  0  0
   25.1829  -21.1917  -11.6583 C   0  0  0  0  0  0  0  0  0  0  0  0
   24.9149  -21.5456  -10.3530 O   0  0  0  0  0  0  0  0  0  0  0  0
   26.3680  -21.0512  -12.0209 O   0  0  0  0  0  0  0  0  0  0  0  0
  2  1  1  6
  2  3  1  0
  3  4  1  0
  5  6  1  0
  5  4  1  0
  7  6  1  0
  8  2  1  0
  9  8  2  0
 10  8  1  0
 11 10  1  0
 11 12  1  1
 12 13  1  0
 14 15  1  0
 14 13  1  0
 16 15  1  0
 17 11  1  0
 18 17  2  0
 19 20  1  0
 21 20  1  6
 21 23  1  0
 21 22  1  0
 22 17  1  0
 23 24  1  0
 25 23  2  0
M  END
$$$$
