KKS.pdb
     RDKit          3D

 25 24  0  0  1  0  0  0  0  0999 V2000
   25.7847  -22.0184  -13.9594 N   0  0  0  0  0  0  0  0  0  0  0  0
   24.8354  -20.9810  -13.9102 C   0  0  1  0  0  0  0  0  0  0  0  0
   24.9009  -20.2763  -12.5667 C   0  0  0  0  0  0  0  0  0  0  0  0
   24.5572  -21.1042  -11.3895 C   0  0  0  0  0  0  0  0  0  0  0  0
   24.7181  -20.4797  -10.0467 C   0  0  0  0  0  0  0  0  0  0  0  0
   24.3610  -21.4623   -8.9262 C   0  0  0  0  0  0  0  0  0  0  0  0
   24.4966  -20.8087   -7.6187 N   0  0  0  0  0  0  0  0  0  0  0  0
   24.8465  -20.0330  -15.0236 C   0  0  0  0  0  0  0  0  0  0  0  0
   25.9419  -19.9124  -15.6926 O   0  0  0  0  0  0  0  0  0  0  0  0
   23.7758  -19.2542  -15.4178 N   0  0  0  0  0  0  0  0  0  0  0  0
   23.8540  -18.3136  -16.5617 C   0  0  1  0  0  0  0  0  0  0  0  0
   22.8196  -18.8300  -17.5328 C   0  0  0  0  0  0  0  0  0  0  0  0
   22.6912  -18.0298  -18.7716 C   0  0  0  0  0  0  0  0  0  0  0  0
   21.7646  -18.6042  -19.8126 C   0  0  0  0  0  0  0  0  0  0  0  0
   21.6051  -17.8137  -21.0558 C   0  0  0  0  0  0  0  0  0  0  0  0
   20.7799  -18.3824  -22.0767 N   0  0  0  0  0  0  0  0  0  0  0  0
   23.6338  -16.9362  -16.0914 C   0  0  0  0  0  0  0  0  0  0  0  0
   22.6847  -16.7303  -15.2656 O   0  0  0  0  0  0  0  0  0  0  0  0
   26.2738  -14.0409  -15.1029 O   0  0  0  0  0  0  0  0  0  0  0  0
   25.3296  -13.6074  -15.9955 C   0  0  0  0  0  0  0  0  0  0  0  0
   24.0874  -14.4587  -16.0445 C   0  0  2  0  0  0  0  0  0  0  0  0
   24.3784  -15.8144  -16.4646 N   0  0  0  0  0  0  0  0  0  0  0  0
   22.9879  -13.8478  -16.8120 C   0  0  0  0  0  0  0  0  0  0  0  0
   21.9368  -13.2281  -16.1702 O   0  0  0  0  0  0  0  0  0  0  0  0
   23.0028  -13.8883  -18.0586 O   0  0  0  0  0  0  0  0  0  0  0  0
  2  1  1  6
  2  3  1  0
  3  4  1  0
  5  6  1  0
  5  4  1  0
  7  6  1  0
  8  2  1  0
  9  8  2  0
 10  8  1  0
 11 10  1  0
 11 12  1  6
 12 13  1  0
 14 15  1  0
 14 13  1  0
 16 15  1  0
 17 11  1  0
 18 17  2  0
 19 20  1  0
 21 20  1  6
 21 23  1  0
 21 22  1  0
 22 17  1  0
 23 24  1  0
 25 23  2  0
M  END
$$$$
