KKS.pdb
     RDKit          3D

 25 24  0  0  1  0  0  0  0  0999 V2000
   19.0166  -15.2969  -16.6331 N   0  0  0  0  0  0  0  0  0  0  0  0
   18.5422  -14.0110  -16.9513 C   0  0  1  0  0  0  0  0  0  0  0  0
   17.3835  -13.6418  -16.0419 C   0  0  0  0  0  0  0  0  0  0  0  0
   16.2893  -14.6345  -15.9602 C   0  0  0  0  0  0  0  0  0  0  0  0
   15.0544  -14.2291  -15.2326 C   0  0  0  0  0  0  0  0  0  0  0  0
   13.9950  -15.3360  -15.2682 C   0  0  0  0  0  0  0  0  0  0  0  0
   12.8095  -14.9257  -14.5058 N   0  0  0  0  0  0  0  0  0  0  0  0
   19.5414  -12.9455  -17.0203 C   0  0  0  0  0  0  0  0  0  0  0  0
   20.4586  -12.9292  -16.1145 O   0  0  0  0  0  0  0  0  0  0  0  0
   19.5825  -11.9525  -17.9797 N   0  0  0  0  0  0  0  0  0  0  0  0
   20.5991  -10.8729  -17.9650 C   0  0  1  0  0  0  0  0  0  0  0  0
   20.5695  -10.3218  -19.3704 C   0  0  0  0  0  0  0  0  0  0  0  0
   21.5205   -9.2135  -19.6124 C   0  0  0  0  0  0  0  0  0  0  0  0
   21.5408   -8.6826  -21.0230 C   0  0  0  0  0  0  0  0  0  0  0  0
   22.4798   -7.5680  -21.2904 C   0  0  0  0  0  0  0  0  0  0  0  0
   22.4415   -6.9967  -22.6015 N   0  0  0  0  0  0  0  0  0  0  0  0
   20.2792   -9.9000  -16.9077 C   0  0  0  0  0  0  0  0  0  0  0  0
   19.0576   -9.5744  -16.7438 O   0  0  0  0  0  0  0  0  0  0  0  0
   21.1586   -7.8746  -12.6550 O   0  0  0  0  0  0  0  0  0  0  0  0
   21.4140   -8.7596  -13.6688 C   0  0  0  0  0  0  0  0  0  0  0  0
   20.8479   -8.3513  -15.0040 C   0  0  2  0  0  0  0  0  0  0  0  0
   21.1982   -9.2914  -16.0492 N   0  0  0  0  0  0  0  0  0  0  0  0
   21.1513   -6.9559  -15.3675 C   0  0  0  0  0  0  0  0  0  0  0  0
   20.3056   -5.9303  -15.0021 O   0  0  0  0  0  0  0  0  0  0  0  0
   22.1853   -6.6928  -16.0136 O   0  0  0  0  0  0  0  0  0  0  0  0
  2  1  1  1
  2  3  1  0
  3  4  1  0
  5  6  1  0
  5  4  1  0
  7  6  1  0
  8  2  1  0
  9  8  2  0
 10  8  1  0
 11 10  1  0
 11 12  1  6
 12 13  1  0
 14 15  1  0
 14 13  1  0
 16 15  1  0
 17 11  1  0
 18 17  2  0
 19 20  1  0
 21 20  1  1
 21 23  1  0
 21 22  1  0
 22 17  1  0
 23 24  1  0
 25 23  2  0
M  END
$$$$
