ERD.pdb
     RDKit          3D

 29 28  0  0  1  0  0  0  0  0999 V2000
    9.4434  -14.0466   26.5195 N   0  0  0  0  0  0  0  0  0  0  0  0
    8.2738  -14.8699   26.4847 C   0  0  1  0  0  0  0  0  0  0  0  0
    7.0056  -14.0964   26.7570 C   0  0  0  0  0  0  0  0  0  0  0  0
    7.2160  -12.5995   26.7242 C   0  0  0  0  0  0  0  0  0  0  0  0
    5.9122  -11.9677   26.9927 C   0  0  0  0  0  0  0  0  0  0  0  0
    4.9087  -12.6814   27.1573 O   0  0  0  0  0  0  0  0  0  0  0  0
    8.2250  -15.6665   25.2483 C   0  0  0  0  0  0  0  0  0  0  0  0
    7.3007  -16.4820   24.9853 O   0  0  0  0  0  0  0  0  0  0  0  0
    5.8137  -10.6031   27.0588 O   0  0  0  0  0  0  0  0  0  0  0  0
    8.2705  -11.7989   19.2525 N   0  0  0  0  0  0  0  0  0  0  0  0
    7.8233  -13.1327   19.1034 C   0  0  0  0  0  0  0  0  0  0  0  0
    8.2427  -13.8387   18.1152 N   0  0  0  0  0  0  0  0  0  0  0  0
    6.9085  -13.6682   20.0623 N   0  0  0  0  0  0  0  0  0  0  0  0
    7.3084  -14.7918   20.8719 C   0  0  0  0  0  0  0  0  0  0  0  0
    8.3058  -14.2802   21.9254 C   0  0  0  0  0  0  0  0  0  0  0  0
    9.4566  -15.2228   21.9673 C   0  0  0  0  0  0  0  0  0  0  0  0
    9.2885  -16.2419   23.0395 C   0  0  2  0  0  0  0  0  0  0  0  0
    9.2759  -15.5052   24.3060 N   0  0  0  0  0  0  0  0  0  0  0  0
   10.3859  -17.2166   23.1151 C   0  0  0  0  0  0  0  0  0  0  0  0
   10.4643  -18.1265   22.2678 O   0  0  0  0  0  0  0  0  0  0  0  0
    7.9166  -14.8226   18.0346 N   0  0  0  0  0  0  0  0  0  0  0  0
   11.3559  -17.1387   24.1359 C   0  0  1  0  0  0  0  0  0  0  0  0
   12.4556  -18.0892   24.3065 C   0  0  0  0  0  0  0  0  0  0  0  0
   13.7038  -17.4103   23.9135 C   0  0  0  0  0  0  0  0  0  0  0  0
   13.6562  -16.4415   22.8286 O   0  0  0  0  0  0  0  0  0  0  0  0
   13.0908  -16.5450   21.7293 C   0  0  0  0  0  0  0  0  0  0  0  0
   12.4267  -18.6808   25.6649 O   0  0  0  0  0  0  0  0  0  0  0  0
   11.5429  -18.3885   26.4860 O   0  0  0  0  0  0  0  0  0  0  0  0
   14.3481  -15.2298   23.0736 O   0  0  0  0  0  0  0  0  0  0  0  0
  2  1  1  6
  2  3  1  0
  2  7  1  0
  3  4  1  0
  4  5  1  0
  5  9  1  0
  6  5  2  0
  7  8  2  0
 11 10  1  0
 12 11  2  0
 13 11  1  0
 14 13  1  0
 15 14  1  0
 15 16  1  0
 17 16  1  6
 18  7  1  0
 18 17  1  0
 19 17  1  0
 19 20  2  0
 21 19  1  0
 22 21  1  0
 22 23  1  6
 24 25  2  0
 24 23  1  0
 26 22  1  0
 26 29  1  0
 27 26  2  0
 28 24  1  0
M  END
$$$$
