ERD.pdb
     RDKit          3D

 29 28  0  0  1  0  0  0  0  0999 V2000
   10.4480  -19.5697   15.4997 N   0  0  0  0  0  0  0  0  0  0  0  0
   10.3460  -19.9739   16.8684 C   0  0  1  0  0  0  0  0  0  0  0  0
   10.9426  -21.3379   17.1216 C   0  0  0  0  0  0  0  0  0  0  0  0
   10.9680  -21.7009   18.5892 C   0  0  0  0  0  0  0  0  0  0  0  0
   11.5227  -23.0620   18.6944 C   0  0  0  0  0  0  0  0  0  0  0  0
   12.2957  -23.4775   17.8150 O   0  0  0  0  0  0  0  0  0  0  0  0
   10.8605  -18.9287   17.7677 C   0  0  0  0  0  0  0  0  0  0  0  0
   11.9900  -18.3874   17.6266 O   0  0  0  0  0  0  0  0  0  0  0  0
   11.1843  -23.8585   19.7562 O   0  0  0  0  0  0  0  0  0  0  0  0
    5.8483  -12.5925   20.5548 N   0  0  0  0  0  0  0  0  0  0  0  0
    7.1111  -12.2446   21.0891 C   0  0  0  0  0  0  0  0  0  0  0  0
    7.2838  -11.0839   21.6123 N   0  0  0  0  0  0  0  0  0  0  0  0
    8.1736  -13.1993   21.0344 N   0  0  0  0  0  0  0  0  0  0  0  0
    7.9431  -14.4806   20.4157 C   0  0  0  0  0  0  0  0  0  0  0  0
    9.2501  -15.2869   20.5041 C   0  0  0  0  0  0  0  0  0  0  0  0
    9.0736  -16.5393   19.7200 C   0  0  0  0  0  0  0  0  0  0  0  0
   10.3457  -17.3068   19.6238 C   0  0  2  0  0  0  0  0  0  0  0  0
   10.0388  -18.5121   18.8491 N   0  0  0  0  0  0  0  0  0  0  0  0
   10.8771  -17.7482   20.9211 C   0  0  0  0  0  0  0  0  0  0  0  0
   10.6150  -18.8918   21.3399 O   0  0  0  0  0  0  0  0  0  0  0  0
    8.2355  -10.8241   21.9402 N   0  0  0  0  0  0  0  0  0  0  0  0
   11.6820  -16.8943   21.7034 C   0  0  2  0  0  0  0  0  0  0  0  0
   12.4445  -17.3220   22.8771 C   0  0  0  0  0  0  0  0  0  0  0  0
   13.8436  -16.8988   22.6848 C   0  0  0  0  0  0  0  0  0  0  0  0
   14.8195  -17.2381   23.7097 O   0  0  0  0  0  0  0  0  0  0  0  0
   14.6261  -17.7927   24.8024 C   0  0  0  0  0  0  0  0  0  0  0  0
   11.7833  -16.8660   24.1224 O   0  0  0  0  0  0  0  0  0  0  0  0
   12.3057  -17.0286   25.2366 O   0  0  0  0  0  0  0  0  0  0  0  0
   16.1574  -16.8844   23.4068 O   0  0  0  0  0  0  0  0  0  0  0  0
  2  1  1  6
  2  3  1  0
  2  7  1  0
  3  4  1  0
  4  5  1  0
  5  9  1  0
  6  5  2  0
  7  8  2  0
 11 10  1  0
 12 11  2  0
 13 11  1  0
 14 13  1  0
 15 14  1  0
 15 16  1  0
 17 16  1  1
 18  7  1  0
 18 17  1  0
 19 17  1  0
 19 20  2  0
 21 19  1  0
 22 21  1  0
 22 23  1  6
 24 25  2  0
 24 23  1  0
 26 22  1  0
 26 29  1  0
 27 26  2  0
 28 24  1  0
M  END
$$$$
