ERD.pdb
     RDKit          3D

 29 28  0  0  1  0  0  0  0  0999 V2000
   16.4219  -13.1687   15.9952 N   0  0  0  0  0  0  0  0  0  0  0  0
   15.8464  -14.3529   16.5550 C   0  0  1  0  0  0  0  0  0  0  0  0
   16.8443  -15.4776   16.6968 C   0  0  0  0  0  0  0  0  0  0  0  0
   17.6917  -15.3528   17.9429 C   0  0  0  0  0  0  0  0  0  0  0  0
   18.6598  -16.4635   17.9273 C   0  0  0  0  0  0  0  0  0  0  0  0
   18.4559  -17.4631   18.6364 O   0  0  0  0  0  0  0  0  0  0  0  0
   15.1182  -14.0501   17.7975 C   0  0  0  0  0  0  0  0  0  0  0  0
   15.2728  -12.9821   18.4488 O   0  0  0  0  0  0  0  0  0  0  0  0
   19.7748  -16.3883   17.1351 O   0  0  0  0  0  0  0  0  0  0  0  0
    7.1827  -13.2711   17.8491 N   0  0  0  0  0  0  0  0  0  0  0  0
    7.5772  -12.9789   19.1758 C   0  0  0  0  0  0  0  0  0  0  0  0
    6.7199  -12.5010   20.0050 N   0  0  0  0  0  0  0  0  0  0  0  0
    8.9303  -13.2237   19.5663 N   0  0  0  0  0  0  0  0  0  0  0  0
    9.5228  -14.5102   19.2988 C   0  0  0  0  0  0  0  0  0  0  0  0
   10.9160  -14.5304   19.9505 C   0  0  0  0  0  0  0  0  0  0  0  0
   11.9211  -14.7848   18.8831 C   0  0  0  0  0  0  0  0  0  0  0  0
   13.3101  -14.7237   19.4155 C   0  0  2  0  0  0  0  0  0  0  0  0
   14.1950  -15.0140   18.2842 N   0  0  0  0  0  0  0  0  0  0  0  0
   13.5955  -15.7207   20.4569 C   0  0  0  0  0  0  0  0  0  0  0  0
   13.4534  -16.9330   20.2079 O   0  0  0  0  0  0  0  0  0  0  0  0
    7.0345  -12.2778   20.9704 N   0  0  0  0  0  0  0  0  0  0  0  0
   14.0290  -15.3258   21.7395 C   0  0  2  0  0  0  0  0  0  0  0  0
   14.2019  -16.2372   22.8714 C   0  0  0  0  0  0  0  0  0  0  0  0
   15.3996  -15.8089   23.6167 C   0  0  0  0  0  0  0  0  0  0  0  0
   16.6507  -15.6508   22.8901 O   0  0  0  0  0  0  0  0  0  0  0  0
   17.4550  -14.7076   22.9399 C   0  0  0  0  0  0  0  0  0  0  0  0
   12.9454  -16.3456   23.6495 O   0  0  0  0  0  0  0  0  0  0  0  0
   12.8509  -17.0918   24.6370 O   0  0  0  0  0  0  0  0  0  0  0  0
   16.9791  -16.7183   22.0188 O   0  0  0  0  0  0  0  0  0  0  0  0
  2  1  1  1
  2  3  1  0
  2  7  1  0
  3  4  1  0
  4  5  1  0
  5  9  1  0
  6  5  2  0
  7  8  2  0
 11 10  1  0
 12 11  2  0
 13 11  1  0
 14 13  1  0
 15 14  1  0
 15 16  1  0
 17 16  1  6
 18  7  1  0
 18 17  1  0
 19 17  1  0
 19 20  2  0
 21 19  1  0
 22 21  1  0
 22 23  1  6
 24 25  2  0
 24 23  1  0
 26 22  1  0
 26 29  1  0
 27 26  2  0
 28 24  1  0
M  END
$$$$
