ERD.pdb
     RDKit          3D

 29 28  0  0  1  0  0  0  0  0999 V2000
   10.9506  -16.8262   15.1805 N   0  0  0  0  0  0  0  0  0  0  0  0
   11.0181  -16.3593   16.5312 C   0  0  1  0  0  0  0  0  0  0  0  0
   10.1115  -17.1286   17.4622 C   0  0  0  0  0  0  0  0  0  0  0  0
   10.5261  -18.5743   17.6187 C   0  0  0  0  0  0  0  0  0  0  0  0
    9.5782  -19.2030   18.5553 C   0  0  0  0  0  0  0  0  0  0  0  0
    9.8390  -19.2213   19.7698 O   0  0  0  0  0  0  0  0  0  0  0  0
   12.4127  -16.2833   16.9949 C   0  0  0  0  0  0  0  0  0  0  0  0
   13.2747  -17.1689   16.7471 O   0  0  0  0  0  0  0  0  0  0  0  0
    8.4197  -19.7619   18.0840 O   0  0  0  0  0  0  0  0  0  0  0  0
   18.6380  -12.4671   15.2777 N   0  0  0  0  0  0  0  0  0  0  0  0
   19.0185  -12.4576   16.6401 C   0  0  0  0  0  0  0  0  0  0  0  0
   20.2458  -12.2483   16.9576 N   0  0  0  0  0  0  0  0  0  0  0  0
   18.0217  -12.6828   17.6397 N   0  0  0  0  0  0  0  0  0  0  0  0
   16.6576  -12.9198   17.2386 C   0  0  0  0  0  0  0  0  0  0  0  0
   15.8239  -13.1351   18.5132 C   0  0  0  0  0  0  0  0  0  0  0  0
   14.4353  -13.4794   18.1037 C   0  0  0  0  0  0  0  0  0  0  0  0
   14.1950  -14.9472   18.1693 C   0  0  2  0  0  0  0  0  0  0  0  0
   12.8027  -15.1525   17.7614 N   0  0  0  0  0  0  0  0  0  0  0  0
   14.3415  -15.5173   19.5159 C   0  0  0  0  0  0  0  0  0  0  0  0
   13.4556  -15.3221   20.3698 O   0  0  0  0  0  0  0  0  0  0  0  0
   20.5196  -12.3246   17.9576 N   0  0  0  0  0  0  0  0  0  0  0  0
   15.4738  -16.2848   19.8593 C   0  0  2  0  0  0  0  0  0  0  0  0
   15.7131  -16.8594   21.1839 C   0  0  0  0  0  0  0  0  0  0  0  0
   15.9604  -18.3025   21.0116 C   0  0  0  0  0  0  0  0  0  0  0  0
   16.2769  -19.0988   22.1880 O   0  0  0  0  0  0  0  0  0  0  0  0
   16.3865  -18.7221   23.3649 C   0  0  0  0  0  0  0  0  0  0  0  0
   16.7579  -16.0930   21.9030 O   0  0  0  0  0  0  0  0  0  0  0  0
   17.5835  -15.3893   21.2997 O   0  0  0  0  0  0  0  0  0  0  0  0
   16.4831  -20.4786   21.9424 O   0  0  0  0  0  0  0  0  0  0  0  0
  2  1  1  6
  2  3  1  0
  2  7  1  0
  3  4  1  0
  4  5  1  0
  5  9  1  0
  6  5  2  0
  7  8  2  0
 11 10  1  0
 12 11  2  0
 13 11  1  0
 14 13  1  0
 15 14  1  0
 15 16  1  0
 17 16  1  1
 18  7  1  0
 18 17  1  0
 19 17  1  0
 19 20  2  0
 21 19  1  0
 22 21  1  0
 22 23  1  6
 24 25  2  0
 24 23  1  0
 26 22  1  0
 26 29  1  0
 27 26  2  0
 28 24  1  0
M  END
$$$$
