ERD.pdb
     RDKit          3D

 29 28  0  0  1  0  0  0  0  0999 V2000
   10.5359  -19.7778   18.7275 N   0  0  0  0  0  0  0  0  0  0  0  0
   11.8445  -19.2003   18.6942 C   0  0  1  0  0  0  0  0  0  0  0  0
   12.2533  -18.7569   17.3097 C   0  0  0  0  0  0  0  0  0  0  0  0
   11.2591  -17.8048   16.6840 C   0  0  0  0  0  0  0  0  0  0  0  0
   11.7379  -17.5030   15.3236 C   0  0  0  0  0  0  0  0  0  0  0  0
   12.4335  -18.3373   14.7205 O   0  0  0  0  0  0  0  0  0  0  0  0
   11.9847  -18.1500   19.7155 C   0  0  0  0  0  0  0  0  0  0  0  0
   13.0134  -17.4314   19.8340 O   0  0  0  0  0  0  0  0  0  0  0  0
   11.4154  -16.3095   14.7337 O   0  0  0  0  0  0  0  0  0  0  0  0
    7.5982  -11.5073   20.2215 N   0  0  0  0  0  0  0  0  0  0  0  0
    7.6745  -12.8893   19.9294 C   0  0  0  0  0  0  0  0  0  0  0  0
    7.7459  -13.2793   18.7072 N   0  0  0  0  0  0  0  0  0  0  0  0
    7.6704  -13.8270   21.0083 N   0  0  0  0  0  0  0  0  0  0  0  0
    7.6581  -15.2391   20.7191 C   0  0  0  0  0  0  0  0  0  0  0  0
    9.1151  -15.6905   20.5204 C   0  0  0  0  0  0  0  0  0  0  0  0
    9.5602  -16.3741   21.7650 C   0  0  0  0  0  0  0  0  0  0  0  0
   10.9499  -16.8922   21.6360 C   0  0  2  0  0  0  0  0  0  0  0  0
   10.9028  -17.9392   20.6119 N   0  0  0  0  0  0  0  0  0  0  0  0
   11.4745  -17.5083   22.8629 C   0  0  0  0  0  0  0  0  0  0  0  0
   11.0905  -18.6454   23.1969 O   0  0  0  0  0  0  0  0  0  0  0  0
    7.8295  -14.2976   18.5154 N   0  0  0  0  0  0  0  0  0  0  0  0
   12.4092  -16.8301   23.6724 C   0  0  1  0  0  0  0  0  0  0  0  0
   12.9810  -17.3707   24.9064 C   0  0  0  0  0  0  0  0  0  0  0  0
   14.3281  -16.7945   25.0697 C   0  0  0  0  0  0  0  0  0  0  0  0
   15.2467  -16.8442   23.9420 O   0  0  0  0  0  0  0  0  0  0  0  0
   15.7939  -17.8375   23.4390 C   0  0  0  0  0  0  0  0  0  0  0  0
   12.0436  -17.1863   26.0393 O   0  0  0  0  0  0  0  0  0  0  0  0
   11.0081  -16.5110   25.9271 O   0  0  0  0  0  0  0  0  0  0  0  0
   15.5445  -15.5906   23.3532 O   0  0  0  0  0  0  0  0  0  0  0  0
  2  1  1  6
  2  3  1  0
  2  7  1  0
  3  4  1  0
  4  5  1  0
  5  9  1  0
  6  5  2  0
  7  8  2  0
 11 10  1  0
 12 11  2  0
 13 11  1  0
 14 13  1  0
 15 14  1  0
 15 16  1  0
 17 16  1  1
 18  7  1  0
 18 17  1  0
 19 17  1  0
 19 20  2  0
 21 19  1  0
 22 21  1  0
 22 23  1  6
 24 25  2  0
 24 23  1  0
 26 22  1  0
 26 29  1  0
 27 26  2  0
 28 24  1  0
M  END
$$$$
