YRD.pdb
     RDKit          3D

 32 32  0  0  1  0  0  0  0  0999 V2000
   10.8717  -14.2354   30.9385 O   0  0  0  0  0  0  0  0  0  0  0  0
   10.2042  -14.5166   29.7517 C   0  0  0  0  0  0  0  0  0  0  0  0
    9.6391  -15.7496   29.5644 C   0  0  0  0  0  0  0  0  0  0  0  0
    8.9709  -16.0371   28.3811 C   0  0  0  0  0  0  0  0  0  0  0  0
    8.8597  -15.0998   27.3755 C   0  0  0  0  0  0  0  0  0  0  0  0
    8.1470  -15.4056   26.1146 C   0  0  0  0  0  0  0  0  0  0  0  0
    8.5127  -16.7912   25.6114 C   0  0  2  0  0  0  0  0  0  0  0  0
    9.9377  -17.0012   25.6762 N   0  0  0  0  0  0  0  0  0  0  0  0
    8.1247  -16.8109   24.1529 C   0  0  0  0  0  0  0  0  0  0  0  0
    6.9282  -16.8335   23.8288 O   0  0  0  0  0  0  0  0  0  0  0  0
    9.4330  -13.8678   27.5810 C   0  0  0  0  0  0  0  0  0  0  0  0
   10.1080  -13.5558   28.7583 C   0  0  0  0  0  0  0  0  0  0  0  0
    9.0667  -12.8136   17.8825 N   0  0  0  0  0  0  0  0  0  0  0  0
    8.6379  -12.1395   19.0550 C   0  0  0  0  0  0  0  0  0  0  0  0
    9.0871  -10.9790   19.3566 N   0  0  0  0  0  0  0  0  0  0  0  0
    7.6957  -12.7623   19.9107 N   0  0  0  0  0  0  0  0  0  0  0  0
    7.3996  -14.1913   19.8059 C   0  0  0  0  0  0  0  0  0  0  0  0
    8.3014  -14.8720   20.8576 C   0  0  0  0  0  0  0  0  0  0  0  0
    8.0341  -16.3469   20.9014 C   0  0  0  0  0  0  0  0  0  0  0  0
    8.9054  -17.1585   21.7959 C   0  0  2  0  0  0  0  0  0  0  0  0
    9.0861  -16.8049   23.1314 N   0  0  0  0  0  0  0  0  0  0  0  0
   10.2014  -17.3945   21.1432 C   0  0  0  0  0  0  0  0  0  0  0  0
   10.1931  -17.4067   19.8593 O   0  0  0  0  0  0  0  0  0  0  0  0
    8.8096  -10.4048   20.1652 N   0  0  0  0  0  0  0  0  0  0  0  0
   11.4033  -17.5996   21.8273 C   0  0  2  0  0  0  0  0  0  0  0  0
   12.6519  -17.2487   21.0992 C   0  0  0  0  0  0  0  0  0  0  0  0
   12.4570  -15.8742   20.4738 C   0  0  0  0  0  0  0  0  0  0  0  0
   13.6730  -15.4764   19.7695 O   0  0  0  0  0  0  0  0  0  0  0  0
   14.0150  -15.9642   18.6896 C   0  0  0  0  0  0  0  0  0  0  0  0
   13.7007  -17.2224   22.1263 O   0  0  0  0  0  0  0  0  0  0  0  0
   14.8999  -16.9400   21.7887 O   0  0  0  0  0  0  0  0  0  0  0  0
   14.5082  -14.4971   20.3236 O   0  0  0  0  0  0  0  0  0  0  0  0
  2  1  1  0
  2 12  2  0
  3  2  1  0
  4  3  2  0
  4  5  1  0
  5 11  2  0
  6  5  1  0
  7  9  1  0
  7  6  1  0
  7  8  1  6
  9 10  2  0
 11 12  1  0
 14 15  2  0
 14 13  1  0
 16 14  1  0
 17 16  1  0
 18 17  1  0
 19 18  1  0
 20 19  1  6
 21 20  1  0
 21  9  1  0
 22 20  1  0
 23 22  2  0
 24 22  1  0
 25 26  1  6
 25 24  1  0
 26 27  1  0
 27 28  2  0
 27 31  1  0
 29 32  1  0
 29 25  1  0
 30 29  2  0
M  END
$$$$
