YRD.pdb
     RDKit          3D

 32 32  0  0  1  0  0  0  0  0999 V2000
    4.8453  -10.7816   28.1798 O   0  0  0  0  0  0  0  0  0  0  0  0
    5.6277  -11.6568   27.4348 C   0  0  0  0  0  0  0  0  0  0  0  0
    6.7877  -12.1534   27.9663 C   0  0  0  0  0  0  0  0  0  0  0  0
    7.5740  -13.0280   27.2273 C   0  0  0  0  0  0  0  0  0  0  0  0
    7.2118  -13.4153   25.9542 C   0  0  0  0  0  0  0  0  0  0  0  0
    8.0492  -14.3481   25.1667 C   0  0  0  0  0  0  0  0  0  0  0  0
    7.3304  -15.6691   24.9543 C   0  0  2  0  0  0  0  0  0  0  0  0
    7.1237  -16.3483   26.2092 N   0  0  0  0  0  0  0  0  0  0  0  0
    8.2724  -16.5190   24.1369 C   0  0  0  0  0  0  0  0  0  0  0  0
    9.0632  -17.2889   24.7018 O   0  0  0  0  0  0  0  0  0  0  0  0
    6.0445  -12.9070   25.4370 C   0  0  0  0  0  0  0  0  0  0  0  0
    5.2395  -12.0288   26.1580 C   0  0  0  0  0  0  0  0  0  0  0  0
    6.9334  -13.8603   18.3347 N   0  0  0  0  0  0  0  0  0  0  0  0
    8.1132  -13.8013   17.5488 C   0  0  0  0  0  0  0  0  0  0  0  0
    8.4393  -12.7359   16.9180 N   0  0  0  0  0  0  0  0  0  0  0  0
    8.9468  -14.9436   17.4580 N   0  0  0  0  0  0  0  0  0  0  0  0
    8.6123  -16.1876   18.1517 C   0  0  0  0  0  0  0  0  0  0  0  0
    9.0397  -15.9636   19.6180 C   0  0  0  0  0  0  0  0  0  0  0  0
    8.8628  -17.2224   20.4135 C   0  0  0  0  0  0  0  0  0  0  0  0
    9.1518  -17.1382   21.8721 C   0  0  2  0  0  0  0  0  0  0  0  0
    8.2868  -16.4687   22.7351 N   0  0  0  0  0  0  0  0  0  0  0  0
   10.5368  -16.6896   22.0770 C   0  0  0  0  0  0  0  0  0  0  0  0
   10.6905  -15.6517   22.8171 O   0  0  0  0  0  0  0  0  0  0  0  0
    9.2998  -12.5849   16.3725 N   0  0  0  0  0  0  0  0  0  0  0  0
   11.6584  -17.3156   21.5251 C   0  0  1  0  0  0  0  0  0  0  0  0
   12.9847  -16.7559   21.8993 C   0  0  0  0  0  0  0  0  0  0  0  0
   13.1526  -16.9189   23.4038 C   0  0  0  0  0  0  0  0  0  0  0  0
   14.5083  -16.5396   23.7923 O   0  0  0  0  0  0  0  0  0  0  0  0
   15.2871  -15.9568   23.0340 C   0  0  0  0  0  0  0  0  0  0  0  0
   13.9642  -17.5651   21.1634 O   0  0  0  0  0  0  0  0  0  0  0  0
   14.8463  -16.9810   20.4475 O   0  0  0  0  0  0  0  0  0  0  0  0
   14.9716  -16.8392   25.0804 O   0  0  0  0  0  0  0  0  0  0  0  0
  2  1  1  0
  2 12  2  0
  3  2  1  0
  4  3  2  0
  4  5  1  0
  5 11  2  0
  6  5  1  0
  7  9  1  0
  7  6  1  0
  7  8  1  1
  9 10  2  0
 11 12  1  0
 14 15  2  0
 14 13  1  0
 16 14  1  0
 17 16  1  0
 18 17  1  0
 19 18  1  0
 20 19  1  6
 21 20  1  0
 21  9  1  0
 22 20  1  0
 23 22  2  0
 24 22  1  0
 25 26  1  6
 25 24  1  0
 26 27  1  0
 27 28  2  0
 27 31  1  0
 29 32  1  0
 29 25  1  0
 30 29  2  0
M  END
$$$$
