YRD.pdb
     RDKit          3D

 32 32  0  0  1  0  0  0  0  0999 V2000
   11.2056  -14.1313   29.4801 O   0  0  0  0  0  0  0  0  0  0  0  0
   10.0898  -14.4782   28.7265 C   0  0  0  0  0  0  0  0  0  0  0  0
    9.7349  -15.7947   28.6022 C   0  0  0  0  0  0  0  0  0  0  0  0
    8.6215  -16.1481   27.8509 C   0  0  0  0  0  0  0  0  0  0  0  0
    7.8526  -15.1942   27.2178 C   0  0  0  0  0  0  0  0  0  0  0  0
    6.6653  -15.5703   26.4176 C   0  0  0  0  0  0  0  0  0  0  0  0
    6.9752  -16.7540   25.5176 C   0  0  2  0  0  0  0  0  0  0  0  0
    8.2471  -17.3401   25.8603 N   0  0  0  0  0  0  0  0  0  0  0  0
    7.1066  -16.1847   24.1260 C   0  0  0  0  0  0  0  0  0  0  0  0
    6.1144  -15.7124   23.5519 O   0  0  0  0  0  0  0  0  0  0  0  0
    8.2237  -13.8779   27.3536 C   0  0  0  0  0  0  0  0  0  0  0  0
    9.3355  -13.4987   28.1012 C   0  0  0  0  0  0  0  0  0  0  0  0
    9.0743  -14.7902   17.7565 N   0  0  0  0  0  0  0  0  0  0  0  0
    8.1765  -13.7886   17.3052 C   0  0  0  0  0  0  0  0  0  0  0  0
    8.1779  -13.3943   16.0871 N   0  0  0  0  0  0  0  0  0  0  0  0
    7.2610  -13.2112   18.2199 N   0  0  0  0  0  0  0  0  0  0  0  0
    7.6124  -13.0126   19.6262 C   0  0  0  0  0  0  0  0  0  0  0  0
    8.2597  -14.3401   20.0754 C   0  0  0  0  0  0  0  0  0  0  0  0
    7.9720  -14.5995   21.5240 C   0  0  0  0  0  0  0  0  0  0  0  0
    8.5577  -15.8365   22.1114 C   0  0  2  0  0  0  0  0  0  0  0  0
    8.3331  -16.1705   23.4453 N   0  0  0  0  0  0  0  0  0  0  0  0
    9.9921  -15.9029   21.7959 C   0  0  0  0  0  0  0  0  0  0  0  0
   10.7923  -15.5106   22.7202 O   0  0  0  0  0  0  0  0  0  0  0  0
    7.5862  -12.6560   15.6804 N   0  0  0  0  0  0  0  0  0  0  0  0
   10.5120  -16.3568   20.5801 C   0  0  1  0  0  0  0  0  0  0  0  0
   11.9135  -16.8547   20.5999 C   0  0  0  0  0  0  0  0  0  0  0  0
   11.9782  -18.0287   21.5672 C   0  0  0  0  0  0  0  0  0  0  0  0
   13.2670  -18.0309   22.2540 O   0  0  0  0  0  0  0  0  0  0  0  0
   14.1426  -17.1879   22.0439 C   0  0  0  0  0  0  0  0  0  0  0  0
   12.1878  -17.2837   19.2228 O   0  0  0  0  0  0  0  0  0  0  0  0
   13.3532  -17.7114   18.9213 O   0  0  0  0  0  0  0  0  0  0  0  0
   13.5485  -19.0251   23.2005 O   0  0  0  0  0  0  0  0  0  0  0  0
  2  1  1  0
  2 12  2  0
  3  2  1  0
  4  3  2  0
  4  5  1  0
  5 11  2  0
  6  5  1  0
  7  9  1  0
  7  6  1  0
  7  8  1  1
  9 10  2  0
 11 12  1  0
 14 15  2  0
 14 13  1  0
 16 14  1  0
 17 16  1  0
 18 17  1  0
 19 18  1  0
 20 19  1  1
 21 20  1  0
 21  9  1  0
 22 20  1  0
 23 22  2  0
 24 22  1  0
 25 26  1  6
 25 24  1  0
 26 27  1  0
 27 28  2  0
 27 31  1  0
 29 32  1  0
 29 25  1  0
 30 29  2  0
M  END
$$$$
