YRD.pdb
     RDKit          3D

 32 32  0  0  1  0  0  0  0  0999 V2000
   10.2989  -14.3842   31.6940 O   0  0  0  0  0  0  0  0  0  0  0  0
   10.2539  -14.6713   30.3343 C   0  0  0  0  0  0  0  0  0  0  0  0
   10.7148  -15.8770   29.8777 C   0  0  0  0  0  0  0  0  0  0  0  0
   10.6729  -16.1701   28.5207 C   0  0  0  0  0  0  0  0  0  0  0  0
   10.1716  -15.2659   27.6079 C   0  0  0  0  0  0  0  0  0  0  0  0
   10.1259  -15.5783   26.1616 C   0  0  0  0  0  0  0  0  0  0  0  0
    8.7580  -16.1079   25.7677 C   0  0  2  0  0  0  0  0  0  0  0  0
    8.5172  -17.3993   26.3618 N   0  0  0  0  0  0  0  0  0  0  0  0
    8.8132  -16.3078   24.2727 C   0  0  0  0  0  0  0  0  0  0  0  0
    9.1888  -17.3927   23.8046 O   0  0  0  0  0  0  0  0  0  0  0  0
    9.7133  -14.0610   28.0842 C   0  0  0  0  0  0  0  0  0  0  0  0
    9.7450  -13.7439   29.4398 C   0  0  0  0  0  0  0  0  0  0  0  0
    8.8674  -15.1565   16.9421 N   0  0  0  0  0  0  0  0  0  0  0  0
    8.0427  -14.0233   16.7214 C   0  0  0  0  0  0  0  0  0  0  0  0
    8.2502  -13.2316   15.7368 N   0  0  0  0  0  0  0  0  0  0  0  0
    6.9691  -13.7605   17.6082 N   0  0  0  0  0  0  0  0  0  0  0  0
    7.2058  -13.2756   18.9681 C   0  0  0  0  0  0  0  0  0  0  0  0
    7.9831  -14.4071   19.6741 C   0  0  0  0  0  0  0  0  0  0  0  0
    7.9084  -14.2442   21.1630 C   0  0  0  0  0  0  0  0  0  0  0  0
    8.5248  -15.3220   21.9856 C   0  0  2  0  0  0  0  0  0  0  0  0
    8.4487  -15.2920   23.3765 N   0  0  0  0  0  0  0  0  0  0  0  0
    9.9100  -15.5477   21.5479 C   0  0  0  0  0  0  0  0  0  0  0  0
   10.8282  -15.1124   22.3328 O   0  0  0  0  0  0  0  0  0  0  0  0
    7.7069  -12.3887   15.5021 N   0  0  0  0  0  0  0  0  0  0  0  0
   10.2666  -16.1913   20.3592 C   0  0  1  0  0  0  0  0  0  0  0  0
   11.7191  -16.4222   20.1370 C   0  0  0  0  0  0  0  0  0  0  0  0
   12.2249  -17.3237   21.2549 C   0  0  0  0  0  0  0  0  0  0  0  0
   13.4568  -16.7728   21.8130 O   0  0  0  0  0  0  0  0  0  0  0  0
   13.9608  -15.7182   21.4195 C   0  0  0  0  0  0  0  0  0  0  0  0
   11.8063  -17.0910   18.8329 O   0  0  0  0  0  0  0  0  0  0  0  0
   12.8894  -17.0114   18.1603 O   0  0  0  0  0  0  0  0  0  0  0  0
   14.1176  -17.4532   22.8445 O   0  0  0  0  0  0  0  0  0  0  0  0
  2  1  1  0
  2 12  2  0
  3  2  1  0
  4  3  2  0
  4  5  1  0
  5 11  2  0
  6  5  1  0
  7  9  1  0
  7  6  1  0
  7  8  1  1
  9 10  2  0
 11 12  1  0
 14 15  2  0
 14 13  1  0
 16 14  1  0
 17 16  1  0
 18 17  1  0
 19 18  1  0
 20 19  1  6
 21 20  1  0
 21  9  1  0
 22 20  1  0
 23 22  2  0
 24 22  1  0
 25 26  1  6
 25 24  1  0
 26 27  1  0
 27 28  2  0
 27 31  1  0
 29 32  1  0
 29 25  1  0
 30 29  2  0
M  END
$$$$
