YRD.pdb
     RDKit          3D

 32 32  0  0  1  0  0  0  0  0999 V2000
    5.4142  -10.4352   27.9671 O   0  0  0  0  0  0  0  0  0  0  0  0
    6.0561  -11.4971   27.3398 C   0  0  0  0  0  0  0  0  0  0  0  0
    5.8694  -12.7730   27.8002 C   0  0  0  0  0  0  0  0  0  0  0  0
    6.5077  -13.8383   27.1782 C   0  0  0  0  0  0  0  0  0  0  0  0
    7.3362  -13.6422   26.0932 C   0  0  0  0  0  0  0  0  0  0  0  0
    8.0161  -14.7774   25.4295 C   0  0  0  0  0  0  0  0  0  0  0  0
    7.1098  -15.4156   24.3911 C   0  0  2  0  0  0  0  0  0  0  0  0
    6.3714  -16.5152   24.9608 N   0  0  0  0  0  0  0  0  0  0  0  0
    8.0318  -15.9919   23.3443 C   0  0  0  0  0  0  0  0  0  0  0  0
    8.4020  -17.1725   23.4248 O   0  0  0  0  0  0  0  0  0  0  0  0
    7.5118  -12.3550   25.6449 C   0  0  0  0  0  0  0  0  0  0  0  0
    6.8831  -11.2707   26.2517 C   0  0  0  0  0  0  0  0  0  0  0  0
    8.5534  -15.7004   16.5597 N   0  0  0  0  0  0  0  0  0  0  0  0
    8.0515  -14.4293   16.1784 C   0  0  0  0  0  0  0  0  0  0  0  0
    7.5880  -14.2228   15.0029 N   0  0  0  0  0  0  0  0  0  0  0  0
    8.0644  -13.3662   17.1153 N   0  0  0  0  0  0  0  0  0  0  0  0
    9.0551  -13.3107   18.1906 C   0  0  0  0  0  0  0  0  0  0  0  0
    8.6219  -14.3956   19.1996 C   0  0  0  0  0  0  0  0  0  0  0  0
    9.7398  -14.7031   20.1506 C   0  0  0  0  0  0  0  0  0  0  0  0
    9.4185  -15.6046   21.2918 C   0  0  2  0  0  0  0  0  0  0  0  0
    8.4944  -15.2265   22.2636 N   0  0  0  0  0  0  0  0  0  0  0  0
   10.6634  -16.0748   21.9166 C   0  0  0  0  0  0  0  0  0  0  0  0
   11.1453  -15.3304   22.8452 O   0  0  0  0  0  0  0  0  0  0  0  0
    7.2265  -13.3319   14.6336 N   0  0  0  0  0  0  0  0  0  0  0  0
   11.3274  -17.2531   21.5626 C   0  0  2  0  0  0  0  0  0  0  0  0
   12.5673  -17.5717   22.3200 C   0  0  0  0  0  0  0  0  0  0  0  0
   12.4300  -18.9861   22.8667 C   0  0  0  0  0  0  0  0  0  0  0  0
   12.2818  -19.9293   21.7616 O   0  0  0  0  0  0  0  0  0  0  0  0
   12.0344  -19.5775   20.6056 C   0  0  0  0  0  0  0  0  0  0  0  0
   13.6521  -17.4847   21.3345 O   0  0  0  0  0  0  0  0  0  0  0  0
   13.3705  -17.2265   20.1155 O   0  0  0  0  0  0  0  0  0  0  0  0
   12.4222  -21.3034   21.9972 O   0  0  0  0  0  0  0  0  0  0  0  0
  2  1  1  0
  2 12  2  0
  3  2  1  0
  4  3  2  0
  4  5  1  0
  5 11  2  0
  6  5  1  0
  7  9  1  0
  7  6  1  0
  7  8  1  1
  9 10  2  0
 11 12  1  0
 14 15  2  0
 14 13  1  0
 16 14  1  0
 17 16  1  0
 18 17  1  0
 19 18  1  0
 20 19  1  6
 21 20  1  0
 21  9  1  0
 22 20  1  0
 23 22  2  0
 24 22  1  0
 25 26  1  1
 25 24  1  0
 26 27  1  0
 27 28  2  0
 27 31  1  0
 29 32  1  0
 29 25  1  0
 30 29  2  0
M  END
$$$$
