WLV.pdb
     RDKit          3D

 30 31  0  0  1  0  0  0  0  0999 V2000
    5.8365  -18.1917   24.3125 N   0  0  0  0  0  0  0  0  0  0  0  0
    6.3721  -16.8733   24.4340 C   0  0  1  0  0  0  0  0  0  0  0  0
    6.6113  -16.3871   25.8190 C   0  0  0  0  0  0  0  0  0  0  0  0
    5.9274  -15.0961   26.0270 C   0  0  0  0  0  0  0  0  0  0  0  0
    4.5615  -14.8793   26.0626 C   0  0  0  0  0  0  0  0  0  0  0  0
    4.3548  -13.5794   26.3029 N   0  0  0  0  0  0  0  0  0  0  0  0
    5.5310  -12.9338   26.4257 C   0  0  0  0  0  0  0  0  0  0  0  0
    5.8340  -11.5876   26.6694 C   0  0  0  0  0  0  0  0  0  0  0  0
    7.1511  -11.2242   26.7327 C   0  0  0  0  0  0  0  0  0  0  0  0
    8.1269  -12.1721   26.5585 C   0  0  0  0  0  0  0  0  0  0  0  0
    7.8554  -13.4954   26.3192 C   0  0  0  0  0  0  0  0  0  0  0  0
    6.5197  -13.8765   26.2537 C   0  0  0  0  0  0  0  0  0  0  0  0
    7.6285  -16.8324   23.6046 C   0  0  0  0  0  0  0  0  0  0  0  0
    8.3915  -17.8373   23.5004 O   0  0  0  0  0  0  0  0  0  0  0  0
    7.8854  -14.8458   19.6691 C   0  0  0  0  0  0  0  0  0  0  0  0
    8.0701  -13.8785   20.8640 C   0  0  2  0  0  0  0  0  0  0  0  0
    8.2364  -12.4838   20.3040 C   0  0  0  0  0  0  0  0  0  0  0  0
    9.3192  -14.2995   21.5291 C   0  0  0  0  0  0  0  0  0  0  0  0
    9.3303  -15.6309   22.2184 C   0  0  2  0  0  0  0  0  0  0  0  0
    8.0163  -15.6704   22.9033 N   0  0  0  0  0  0  0  0  0  0  0  0
   10.4030  -15.6170   23.2534 C   0  0  0  0  0  0  0  0  0  0  0  0
   11.6328  -15.6616   22.8914 O   0  0  0  0  0  0  0  0  0  0  0  0
    9.7505  -15.4781   27.5349 C   0  0  0  0  0  0  0  0  0  0  0  0
   10.8782  -14.7917   26.8350 C   0  0  1  0  0  0  0  0  0  0  0  0
   12.0935  -14.8249   27.7614 C   0  0  0  0  0  0  0  0  0  0  0  0
   11.2956  -15.5544   25.5871 C   0  0  2  0  0  0  0  0  0  0  0  0
   10.1931  -15.5534   24.6430 N   0  0  0  0  0  0  0  0  0  0  0  0
   11.7391  -16.9229   25.9209 C   0  0  0  0  0  0  0  0  0  0  0  0
   12.9042  -17.1083   26.6507 O   0  0  0  0  0  0  0  0  0  0  0  0
   11.1224  -17.9673   25.5834 O   0  0  0  0  0  0  0  0  0  0  0  0
  2  1  1  1
  2 13  1  0
  2  3  1  0
  4  3  1  0
  4  5  2  0
  6  5  1  0
  7  6  1  0
  8  7  2  0
  9  8  1  0
 10  9  2  0
 10 11  1  0
 11 12  2  0
 12  7  1  0
 12  4  1  0
 13 14  2  0
 16 15  1  6
 17 16  1  0
 18 16  1  0
 19 18  1  1
 20 19  1  0
 20 13  1  0
 21 22  2  0
 21 19  1  0
 24 23  1  1
 24 26  1  0
 25 24  1  0
 26 28  1  0
 26 27  1  6
 27 21  1  0
 28 29  1  0
 30 28  2  0
M  END
$$$$
