WLV.pdb
     RDKit          3D

 30 31  0  0  1  0  0  0  0  0999 V2000
    5.7263  -18.0616   23.8799 N   0  0  0  0  0  0  0  0  0  0  0  0
    6.3566  -16.8103   24.1574 C   0  0  1  0  0  0  0  0  0  0  0  0
    6.5419  -16.4731   25.5940 C   0  0  0  0  0  0  0  0  0  0  0  0
    5.9833  -15.1366   25.8759 C   0  0  0  0  0  0  0  0  0  0  0  0
    4.6470  -14.8140   26.0311 C   0  0  0  0  0  0  0  0  0  0  0  0
    4.5658  -13.5068   26.3045 N   0  0  0  0  0  0  0  0  0  0  0  0
    5.7959  -12.9581   26.3342 C   0  0  0  0  0  0  0  0  0  0  0  0
    6.2250  -11.6447   26.5679 C   0  0  0  0  0  0  0  0  0  0  0  0
    7.5674  -11.3871   26.5227 C   0  0  0  0  0  0  0  0  0  0  0  0
    8.4462  -12.4051   26.2537 C   0  0  0  0  0  0  0  0  0  0  0  0
    8.0507  -13.6982   26.0220 C   0  0  0  0  0  0  0  0  0  0  0  0
    6.6881  -13.9719   26.0663 C   0  0  0  0  0  0  0  0  0  0  0  0
    7.6642  -16.8030   23.4104 C   0  0  0  0  0  0  0  0  0  0  0  0
    8.3461  -17.8576   23.2497 O   0  0  0  0  0  0  0  0  0  0  0  0
    8.1187  -14.8504   19.7665 C   0  0  0  0  0  0  0  0  0  0  0  0
    8.4113  -13.8421   20.9047 C   0  0  2  0  0  0  0  0  0  0  0  0
    8.6642  -12.4935   20.2694 C   0  0  0  0  0  0  0  0  0  0  0  0
    9.6450  -14.3236   21.5572 C   0  0  0  0  0  0  0  0  0  0  0  0
    9.5759  -15.6130   22.3193 C   0  0  2  0  0  0  0  0  0  0  0  0
    8.1932  -15.6188   22.8534 N   0  0  0  0  0  0  0  0  0  0  0  0
   10.5256  -15.5346   23.4656 C   0  0  0  0  0  0  0  0  0  0  0  0
   11.7871  -15.4788   23.2401 O   0  0  0  0  0  0  0  0  0  0  0  0
   11.4650  -15.0667   28.3125 C   0  0  0  0  0  0  0  0  0  0  0  0
   10.4837  -15.0945   27.1860 C   0  0  1  0  0  0  0  0  0  0  0  0
    9.9935  -13.6650   26.9570 C   0  0  0  0  0  0  0  0  0  0  0  0
   11.1528  -15.5097   25.8848 C   0  0  2  0  0  0  0  0  0  0  0  0
   10.1618  -15.5108   24.8243 N   0  0  0  0  0  0  0  0  0  0  0  0
   11.8204  -16.8198   26.0219 C   0  0  0  0  0  0  0  0  0  0  0  0
   13.1393  -16.8772   26.4479 O   0  0  0  0  0  0  0  0  0  0  0  0
   11.2677  -17.9235   25.7739 O   0  0  0  0  0  0  0  0  0  0  0  0
  2  1  1  1
  2 13  1  0
  2  3  1  0
  4  3  1  0
  4  5  2  0
  6  5  1  0
  7  6  1  0
  8  7  2  0
  9  8  1  0
 10  9  2  0
 10 11  1  0
 11 12  2  0
 12  7  1  0
 12  4  1  0
 13 14  2  0
 16 15  1  6
 17 16  1  0
 18 16  1  0
 19 18  1  6
 20 19  1  0
 20 13  1  0
 21 22  2  0
 21 19  1  0
 24 23  1  1
 24 26  1  0
 25 24  1  0
 26 28  1  0
 26 27  1  6
 27 21  1  0
 28 29  1  0
 30 28  2  0
M  END
$$$$
