WLV.pdb
     RDKit          3D

 30 31  0  0  1  0  0  0  0  0999 V2000
    8.7791  -16.5543   22.3219 N   0  0  0  0  0  0  0  0  0  0  0  0
    8.7775  -15.1321   22.4532 C   0  0  1  0  0  0  0  0  0  0  0  0
    7.5264  -14.4371   22.0490 C   0  0  0  0  0  0  0  0  0  0  0  0
    7.2774  -14.6408   20.6088 C   0  0  0  0  0  0  0  0  0  0  0  0
    6.5620  -15.6742   20.0306 C   0  0  0  0  0  0  0  0  0  0  0  0
    6.5454  -15.4766   18.7075 N   0  0  0  0  0  0  0  0  0  0  0  0
    7.2223  -14.3546   18.3938 C   0  0  0  0  0  0  0  0  0  0  0  0
    7.4875  -13.7398   17.1628 C   0  0  0  0  0  0  0  0  0  0  0  0
    8.2256  -12.5883   17.1628 C   0  0  0  0  0  0  0  0  0  0  0  0
    8.6807  -12.0727   18.3494 C   0  0  0  0  0  0  0  0  0  0  0  0
    8.4341  -12.6559   19.5665 C   0  0  0  0  0  0  0  0  0  0  0  0
    7.6837  -13.8265   19.5786 C   0  0  0  0  0  0  0  0  0  0  0  0
    9.1504  -14.8232   23.8793 C   0  0  0  0  0  0  0  0  0  0  0  0
    9.5141  -13.6645   24.2372 O   0  0  0  0  0  0  0  0  0  0  0  0
    6.0842  -13.0188   26.8809 C   0  0  0  0  0  0  0  0  0  0  0  0
    7.5915  -13.3728   26.8636 C   0  0  2  0  0  0  0  0  0  0  0  0
    8.2642  -12.4676   25.8563 C   0  0  0  0  0  0  0  0  0  0  0  0
    7.6675  -14.7732   26.4022 C   0  0  0  0  0  0  0  0  0  0  0  0
    9.0233  -15.4066   26.3092 C   0  0  2  0  0  0  0  0  0  0  0  0
    9.1126  -15.8117   24.8862 N   0  0  0  0  0  0  0  0  0  0  0  0
    9.0282  -16.6359   27.1523 C   0  0  0  0  0  0  0  0  0  0  0  0
    8.7287  -16.5515   28.3967 O   0  0  0  0  0  0  0  0  0  0  0  0
   10.1293  -20.0364   25.3063 C   0  0  0  0  0  0  0  0  0  0  0  0
   10.8979  -19.7755   26.5609 C   0  0  1  0  0  0  0  0  0  0  0  0
   12.1658  -19.0105   26.1825 C   0  0  0  0  0  0  0  0  0  0  0  0
   10.1286  -18.8538   27.4946 C   0  0  2  0  0  0  0  0  0  0  0  0
    9.3370  -17.9319   26.7005 N   0  0  0  0  0  0  0  0  0  0  0  0
   11.0393  -18.1490   28.4192 C   0  0  0  0  0  0  0  0  0  0  0  0
   11.4405  -18.7691   29.5934 O   0  0  0  0  0  0  0  0  0  0  0  0
   11.4938  -16.9923   28.2180 O   0  0  0  0  0  0  0  0  0  0  0  0
  2  1  1  1
  2 13  1  0
  2  3  1  0
  4  3  1  0
  4  5  2  0
  6  5  1  0
  7  6  1  0
  8  7  2  0
  9  8  1  0
 10  9  2  0
 10 11  1  0
 11 12  2  0
 12  7  1  0
 12  4  1  0
 13 14  2  0
 16 15  1  6
 17 16  1  0
 18 16  1  0
 19 18  1  6
 20 19  1  0
 20 13  1  0
 21 22  2  0
 21 19  1  0
 24 23  1  6
 24 26  1  0
 25 24  1  0
 26 28  1  0
 26 27  1  6
 27 21  1  0
 28 29  1  0
 30 28  2  0
M  END
$$$$
