WLV.pdb
     RDKit          3D

 30 31  0  0  1  0  0  0  0  0999 V2000
    6.0761  -18.2498   24.6993 N   0  0  0  0  0  0  0  0  0  0  0  0
    6.5892  -16.9184   24.6374 C   0  0  1  0  0  0  0  0  0  0  0  0
    6.9682  -16.3001   25.9358 C   0  0  0  0  0  0  0  0  0  0  0  0
    6.1198  -15.1223   26.2018 C   0  0  0  0  0  0  0  0  0  0  0  0
    4.7467  -15.1125   26.3703 C   0  0  0  0  0  0  0  0  0  0  0  0
    4.3694  -13.8537   26.6216 N   0  0  0  0  0  0  0  0  0  0  0  0
    5.4405  -13.0363   26.6240 C   0  0  0  0  0  0  0  0  0  0  0  0
    5.5580  -11.6549   26.8283 C   0  0  0  0  0  0  0  0  0  0  0  0
    6.8046  -11.0965   26.7594 C   0  0  0  0  0  0  0  0  0  0  0  0
    7.8915  -11.8905   26.4960 C   0  0  0  0  0  0  0  0  0  0  0  0
    7.8020  -13.2444   26.2929 C   0  0  0  0  0  0  0  0  0  0  0  0
    6.5394  -13.8231   26.3616 C   0  0  0  0  0  0  0  0  0  0  0  0
    7.7446  -16.9384   23.6717 C   0  0  0  0  0  0  0  0  0  0  0  0
    8.3664  -18.0068   23.3981 O   0  0  0  0  0  0  0  0  0  0  0  0
    7.7259  -14.7927   19.8762 C   0  0  0  0  0  0  0  0  0  0  0  0
    8.1544  -13.8996   21.0663 C   0  0  2  0  0  0  0  0  0  0  0  0
    8.3726  -12.5007   20.5352 C   0  0  0  0  0  0  0  0  0  0  0  0
    9.4364  -14.4565   21.5419 C   0  0  0  0  0  0  0  0  0  0  0  0
    9.4145  -15.8084   22.1898 C   0  0  2  0  0  0  0  0  0  0  0  0
    8.1906  -15.7656   23.0249 N   0  0  0  0  0  0  0  0  0  0  0  0
   10.5977  -15.9191   23.0897 C   0  0  0  0  0  0  0  0  0  0  0  0
   11.7754  -15.9689   22.5840 O   0  0  0  0  0  0  0  0  0  0  0  0
   11.3162  -14.0575   26.4256 C   0  0  0  0  0  0  0  0  0  0  0  0
   11.5986  -15.5110   26.6259 C   0  0  1  0  0  0  0  0  0  0  0  0
   10.3816  -16.1345   27.3088 C   0  0  0  0  0  0  0  0  0  0  0  0
   11.7333  -16.2329   25.2940 C   0  0  2  0  0  0  0  0  0  0  0  0
   10.5499  -15.9727   24.4947 N   0  0  0  0  0  0  0  0  0  0  0  0
   11.9631  -17.6784   25.4908 C   0  0  0  0  0  0  0  0  0  0  0  0
   13.1086  -18.1088   26.1442 O   0  0  0  0  0  0  0  0  0  0  0  0
   11.1752  -18.5787   25.0988 O   0  0  0  0  0  0  0  0  0  0  0  0
  2  1  1  1
  2 13  1  0
  2  3  1  0
  4  3  1  0
  4  5  2  0
  6  5  1  0
  7  6  1  0
  8  7  2  0
  9  8  1  0
 10  9  2  0
 10 11  1  0
 11 12  2  0
 12  7  1  0
 12  4  1  0
 13 14  2  0
 16 15  1  6
 17 16  1  0
 18 16  1  0
 19 18  1  1
 20 19  1  0
 20 13  1  0
 21 22  2  0
 21 19  1  0
 24 23  1  6
 24 26  1  0
 25 24  1  0
 26 28  1  0
 26 27  1  6
 27 21  1  0
 28 29  1  0
 30 28  2  0
M  END
$$$$
