WLV.pdb
     RDKit          3D

 30 31  0  0  1  0  0  0  0  0999 V2000
    6.1583  -17.7376   24.1640 N   0  0  0  0  0  0  0  0  0  0  0  0
    6.8544  -16.5099   23.9451 C   0  0  1  0  0  0  0  0  0  0  0  0
    7.6037  -15.9639   25.1080 C   0  0  0  0  0  0  0  0  0  0  0  0
    6.7992  -14.9302   25.7878 C   0  0  0  0  0  0  0  0  0  0  0  0
    5.5122  -15.0710   26.2754 C   0  0  0  0  0  0  0  0  0  0  0  0
    5.1565  -13.9138   26.8450 N   0  0  0  0  0  0  0  0  0  0  0  0
    6.1588  -13.0183   26.7500 C   0  0  0  0  0  0  0  0  0  0  0  0
    6.2648  -11.6892   27.1810 C   0  0  0  0  0  0  0  0  0  0  0  0
    7.4302  -11.0199   26.9270 C   0  0  0  0  0  0  0  0  0  0  0  0
    8.4498  -11.6567   26.2667 C   0  0  0  0  0  0  0  0  0  0  0  0
    8.3699  -12.9566   25.8353 C   0  0  0  0  0  0  0  0  0  0  0  0
    7.1900  -13.6472   26.0891 C   0  0  0  0  0  0  0  0  0  0  0  0
    7.7515  -16.7210   22.7540 C   0  0  0  0  0  0  0  0  0  0  0  0
    8.2723  -17.8474   22.5029 O   0  0  0  0  0  0  0  0  0  0  0  0
    8.1227  -12.6379   19.0132 C   0  0  0  0  0  0  0  0  0  0  0  0
    7.7943  -13.9712   19.7288 C   0  0  2  0  0  0  0  0  0  0  0  0
    7.0261  -13.6392   20.9882 C   0  0  0  0  0  0  0  0  0  0  0  0
    9.0983  -14.5655   20.0839 C   0  0  0  0  0  0  0  0  0  0  0  0
    9.0946  -15.8709   20.8215 C   0  0  2  0  0  0  0  0  0  0  0  0
    8.0554  -15.6721   21.8596 N   0  0  0  0  0  0  0  0  0  0  0  0
   10.4132  -16.0343   21.4972 C   0  0  0  0  0  0  0  0  0  0  0  0
   11.1819  -15.0174   21.6400 O   0  0  0  0  0  0  0  0  0  0  0  0
   13.5045  -18.6217   24.3186 C   0  0  0  0  0  0  0  0  0  0  0  0
   12.1526  -18.1538   23.8874 C   0  0  1  0  0  0  0  0  0  0  0  0
   11.6225  -17.2025   24.9598 C   0  0  0  0  0  0  0  0  0  0  0  0
   12.2381  -17.3263   22.6142 C   0  0  2  0  0  0  0  0  0  0  0  0
   10.9173  -17.2399   22.0183 N   0  0  0  0  0  0  0  0  0  0  0  0
   13.2334  -17.8871   21.6785 C   0  0  0  0  0  0  0  0  0  0  0  0
   12.8113  -18.6775   20.6195 O   0  0  0  0  0  0  0  0  0  0  0  0
   14.4747  -17.6977   21.7706 O   0  0  0  0  0  0  0  0  0  0  0  0
  2  1  1  1
  2 13  1  0
  2  3  1  0
  4  3  1  0
  4  5  2  0
  6  5  1  0
  7  6  1  0
  8  7  2  0
  9  8  1  0
 10  9  2  0
 10 11  1  0
 11 12  2  0
 12  7  1  0
 12  4  1  0
 13 14  2  0
 16 15  1  1
 17 16  1  0
 18 16  1  0
 19 18  1  6
 20 19  1  0
 20 13  1  0
 21 22  2  0
 21 19  1  0
 24 23  1  1
 24 26  1  0
 25 24  1  0
 26 28  1  0
 26 27  1  6
 27 21  1  0
 28 29  1  0
 30 28  2  0
M  END
$$$$
