WLV.pdb
     RDKit          3D

 30 31  0  0  1  0  0  0  0  0999 V2000
    5.4342  -17.5140   23.1991 N   0  0  0  0  0  0  0  0  0  0  0  0
    6.3993  -16.6398   23.7859 C   0  0  1  0  0  0  0  0  0  0  0  0
    6.6465  -16.8175   25.2416 C   0  0  0  0  0  0  0  0  0  0  0  0
    5.9902  -15.7362   26.0017 C   0  0  0  0  0  0  0  0  0  0  0  0
    4.9596  -15.8736   26.9142 C   0  0  0  0  0  0  0  0  0  0  0  0
    4.6733  -14.6607   27.4011 N   0  0  0  0  0  0  0  0  0  0  0  0
    5.4748  -13.7321   26.8439 C   0  0  0  0  0  0  0  0  0  0  0  0
    5.5557  -12.3443   27.0201 C   0  0  0  0  0  0  0  0  0  0  0  0
    6.4853  -11.6548   26.2913 C   0  0  0  0  0  0  0  0  0  0  0  0
    7.3021  -12.3288   25.4198 C   0  0  0  0  0  0  0  0  0  0  0  0
    7.2421  -13.6862   25.2302 C   0  0  0  0  0  0  0  0  0  0  0  0
    6.3013  -14.3976   25.9667 C   0  0  0  0  0  0  0  0  0  0  0  0
    7.6660  -16.7840   22.9842 C   0  0  0  0  0  0  0  0  0  0  0  0
    8.3258  -17.8645   22.9687 O   0  0  0  0  0  0  0  0  0  0  0  0
    7.6576  -14.3536   19.4952 C   0  0  0  0  0  0  0  0  0  0  0  0
    8.4603  -13.7268   20.6615 C   0  0  2  0  0  0  0  0  0  0  0  0
    8.8673  -12.3324   20.2415 C   0  0  0  0  0  0  0  0  0  0  0  0
    9.6622  -14.5698   20.8174 C   0  0  0  0  0  0  0  0  0  0  0  0
    9.5330  -15.8312   21.6175 C   0  0  2  0  0  0  0  0  0  0  0  0
    8.1793  -15.7203   22.2112 N   0  0  0  0  0  0  0  0  0  0  0  0
   10.5370  -15.7959   22.7188 C   0  0  0  0  0  0  0  0  0  0  0  0
   11.7879  -15.8226   22.4364 O   0  0  0  0  0  0  0  0  0  0  0  0
    9.4764  -15.3429   26.7861 C   0  0  0  0  0  0  0  0  0  0  0  0
   10.7847  -14.8357   26.2727 C   0  0  1  0  0  0  0  0  0  0  0  0
   11.8248  -15.0219   27.3771 C   0  0  0  0  0  0  0  0  0  0  0  0
   11.2776  -15.6733   25.1028 C   0  0  2  0  0  0  0  0  0  0  0  0
   10.2376  -15.7296   24.0918 N   0  0  0  0  0  0  0  0  0  0  0  0
   11.6931  -17.0190   25.5469 C   0  0  0  0  0  0  0  0  0  0  0  0
   12.9058  -17.1824   26.2005 O   0  0  0  0  0  0  0  0  0  0  0  0
   11.0105  -18.0624   25.3725 O   0  0  0  0  0  0  0  0  0  0  0  0
  2  1  1  6
  2 13  1  0
  2  3  1  0
  4  3  1  0
  4  5  2  0
  6  5  1  0
  7  6  1  0
  8  7  2  0
  9  8  1  0
 10  9  2  0
 10 11  1  0
 11 12  2  0
 12  7  1  0
 12  4  1  0
 13 14  2  0
 16 15  1  6
 17 16  1  0
 18 16  1  0
 19 18  1  6
 20 19  1  0
 20 13  1  0
 21 22  2  0
 21 19  1  0
 24 23  1  1
 24 26  1  0
 25 24  1  0
 26 28  1  0
 26 27  1  6
 27 21  1  0
 28 29  1  0
 30 28  2  0
M  END
$$$$
