WLV.pdb
     RDKit          3D

 30 31  0  0  1  0  0  0  0  0999 V2000
    9.3718  -16.0289   25.4839 N   0  0  0  0  0  0  0  0  0  0  0  0
    8.1709  -16.7417   25.1847 C   0  0  1  0  0  0  0  0  0  0  0  0
    6.9584  -16.3321   25.9423 C   0  0  0  0  0  0  0  0  0  0  0  0
    7.1734  -15.0115   26.5649 C   0  0  0  0  0  0  0  0  0  0  0  0
    6.3439  -13.9081   26.4728 C   0  0  0  0  0  0  0  0  0  0  0  0
    6.8810  -12.9243   27.2033 N   0  0  0  0  0  0  0  0  0  0  0  0
    8.0309  -13.3377   27.7709 C   0  0  0  0  0  0  0  0  0  0  0  0
    8.9469  -12.6822   28.6045 C   0  0  0  0  0  0  0  0  0  0  0  0
   10.0495  -13.3754   29.0221 C   0  0  0  0  0  0  0  0  0  0  0  0
   10.2281  -14.6745   28.6205 C   0  0  0  0  0  0  0  0  0  0  0  0
    9.3458  -15.3376   27.8055 C   0  0  0  0  0  0  0  0  0  0  0  0
    8.2206  -14.6428   27.3755 C   0  0  0  0  0  0  0  0  0  0  0  0
    7.9592  -16.6389   23.6972 C   0  0  0  0  0  0  0  0  0  0  0  0
    7.1654  -17.4098   23.0819 O   0  0  0  0  0  0  0  0  0  0  0  0
    6.5687  -14.1601   20.9319 C   0  0  0  0  0  0  0  0  0  0  0  0
    7.9605  -13.6288   21.3542 C   0  0  2  0  0  0  0  0  0  0  0  0
    8.1770  -12.3043   20.6575 C   0  0  0  0  0  0  0  0  0  0  0  0
    8.9345  -14.6189   20.8537 C   0  0  0  0  0  0  0  0  0  0  0  0
    8.9501  -15.9725   21.4983 C   0  0  2  0  0  0  0  0  0  0  0  0
    8.6367  -15.6775   22.9167 N   0  0  0  0  0  0  0  0  0  0  0  0
   10.3367  -16.5146   21.4230 C   0  0  0  0  0  0  0  0  0  0  0  0
   10.8609  -16.7562   20.2775 O   0  0  0  0  0  0  0  0  0  0  0  0
   14.7996  -17.3696   23.2279 C   0  0  0  0  0  0  0  0  0  0  0  0
   13.4657  -16.6972   23.2618 C   0  0  1  0  0  0  0  0  0  0  0  0
   13.6274  -15.3056   22.6505 C   0  0  0  0  0  0  0  0  0  0  0  0
   12.4640  -17.4190   22.3736 C   0  0  2  0  0  0  0  0  0  0  0  0
   11.1624  -16.7951   22.5270 N   0  0  0  0  0  0  0  0  0  0  0  0
   12.4259  -18.8639   22.6763 C   0  0  0  0  0  0  0  0  0  0  0  0
   11.5219  -19.3460   23.6115 O   0  0  0  0  0  0  0  0  0  0  0  0
   13.1744  -19.7190   22.1345 O   0  0  0  0  0  0  0  0  0  0  0  0
  2  1  1  1
  2 13  1  0
  2  3  1  0
  4  3  1  0
  4  5  2  0
  6  5  1  0
  7  6  1  0
  8  7  2  0
  9  8  1  0
 10  9  2  0
 10 11  1  0
 11 12  2  0
 12  7  1  0
 12  4  1  0
 13 14  2  0
 16 15  1  6
 17 16  1  0
 18 16  1  0
 19 18  1  6
 20 19  1  0
 20 13  1  0
 21 22  2  0
 21 19  1  0
 24 23  1  6
 24 26  1  0
 25 24  1  0
 26 28  1  0
 26 27  1  1
 27 21  1  0
 28 29  1  0
 30 28  2  0
M  END
$$$$
