WLV.pdb
     RDKit          3D

 30 31  0  0  1  0  0  0  0  0999 V2000
    6.9457  -19.0167   26.7680 N   0  0  0  0  0  0  0  0  0  0  0  0
    7.6798  -17.8050   26.5870 C   0  0  1  0  0  0  0  0  0  0  0  0
    9.1368  -17.9529   26.3280 C   0  0  0  0  0  0  0  0  0  0  0  0
    9.9079  -17.4911   27.4985 C   0  0  0  0  0  0  0  0  0  0  0  0
   10.6008  -18.2820   28.3975 C   0  0  0  0  0  0  0  0  0  0  0  0
   11.1872  -17.4769   29.2909 N   0  0  0  0  0  0  0  0  0  0  0  0
   10.9061  -16.1885   29.0144 C   0  0  0  0  0  0  0  0  0  0  0  0
   11.2764  -14.9966   29.6515 C   0  0  0  0  0  0  0  0  0  0  0  0
   10.8186  -13.8177   29.1306 C   0  0  0  0  0  0  0  0  0  0  0  0
   10.0207  -13.8319   28.0152 C   0  0  0  0  0  0  0  0  0  0  0  0
    9.6451  -14.9851   27.3740 C   0  0  0  0  0  0  0  0  0  0  0  0
   10.1055  -16.1896   27.8943 C   0  0  0  0  0  0  0  0  0  0  0  0
    6.9939  -17.0370   25.4881 C   0  0  0  0  0  0  0  0  0  0  0  0
    6.2882  -17.6157   24.6105 O   0  0  0  0  0  0  0  0  0  0  0  0
    5.6288  -13.3767   26.7673 C   0  0  0  0  0  0  0  0  0  0  0  0
    6.9446  -13.1095   25.9961 C   0  0  2  0  0  0  0  0  0  0  0  0
    7.2367  -11.6286   26.0857 C   0  0  0  0  0  0  0  0  0  0  0  0
    6.6670  -13.4775   24.5935 C   0  0  0  0  0  0  0  0  0  0  0  0
    6.4051  -14.9218   24.2879 C   0  0  2  0  0  0  0  0  0  0  0  0
    7.1054  -15.6338   25.3832 N   0  0  0  0  0  0  0  0  0  0  0  0
    7.0746  -15.2601   22.9997 C   0  0  0  0  0  0  0  0  0  0  0  0
    6.7292  -16.3204   22.3658 O   0  0  0  0  0  0  0  0  0  0  0  0
    6.6923  -13.4266   20.0834 C   0  0  0  0  0  0  0  0  0  0  0  0
    8.1732  -13.6204   20.1308 C   0  0  1  0  0  0  0  0  0  0  0  0
    8.7868  -12.3812   20.7819 C   0  0  0  0  0  0  0  0  0  0  0  0
    8.5461  -14.7840   21.0363 C   0  0  2  0  0  0  0  0  0  0  0  0
    8.0852  -14.5001   22.3831 N   0  0  0  0  0  0  0  0  0  0  0  0
    9.9977  -15.0518   20.9914 C   0  0  0  0  0  0  0  0  0  0  0  0
   10.7512  -14.9481   22.1514 O   0  0  0  0  0  0  0  0  0  0  0  0
   10.6241  -15.3767   19.9487 O   0  0  0  0  0  0  0  0  0  0  0  0
  2  1  1  6
  2 13  1  0
  2  3  1  0
  4  3  1  0
  4  5  2  0
  6  5  1  0
  7  6  1  0
  8  7  2  0
  9  8  1  0
 10  9  2  0
 10 11  1  0
 11 12  2  0
 12  7  1  0
 12  4  1  0
 13 14  2  0
 16 15  1  1
 17 16  1  0
 18 16  1  0
 19 18  1  1
 20 19  1  0
 20 13  1  0
 21 22  2  0
 21 19  1  0
 24 23  1  1
 24 26  1  0
 25 24  1  0
 26 28  1  0
 26 27  1  1
 27 21  1  0
 28 29  1  0
 30 28  2  0
M  END
$$$$
