WLV.pdb
     RDKit          3D

 30 31  0  0  1  0  0  0  0  0999 V2000
    6.0028  -17.6766   25.1399 N   0  0  0  0  0  0  0  0  0  0  0  0
    6.7268  -16.4736   24.8784 C   0  0  1  0  0  0  0  0  0  0  0  0
    7.9794  -16.2792   25.6562 C   0  0  0  0  0  0  0  0  0  0  0  0
    7.7486  -15.3223   26.7556 C   0  0  0  0  0  0  0  0  0  0  0  0
    7.7705  -15.5980   28.1111 C   0  0  0  0  0  0  0  0  0  0  0  0
    7.5439  -14.4557   28.7697 N   0  0  0  0  0  0  0  0  0  0  0  0
    7.3734  -13.4407   27.9001 C   0  0  0  0  0  0  0  0  0  0  0  0
    7.1091  -12.0788   28.0978 C   0  0  0  0  0  0  0  0  0  0  0  0
    6.9763  -11.2809   26.9950 C   0  0  0  0  0  0  0  0  0  0  0  0
    7.1030  -11.8256   25.7427 C   0  0  0  0  0  0  0  0  0  0  0  0
    7.3617  -13.1550   25.5237 C   0  0  0  0  0  0  0  0  0  0  0  0
    7.4996  -13.9755   26.6378 C   0  0  0  0  0  0  0  0  0  0  0  0
    6.9800  -16.4283   23.3945 C   0  0  0  0  0  0  0  0  0  0  0  0
    6.8535  -17.4552   22.6649 O   0  0  0  0  0  0  0  0  0  0  0  0
    8.0875  -11.9336   19.4629 C   0  0  0  0  0  0  0  0  0  0  0  0
    8.0695  -13.4807   19.5245 C   0  0  2  0  0  0  0  0  0  0  0  0
    6.9719  -13.9641   18.6036 C   0  0  0  0  0  0  0  0  0  0  0  0
    7.7324  -13.8207   20.9211 C   0  0  0  0  0  0  0  0  0  0  0  0
    7.7297  -15.2694   21.3073 C   0  0  2  0  0  0  0  0  0  0  0  0
    7.3713  -15.2375   22.7452 N   0  0  0  0  0  0  0  0  0  0  0  0
    9.1187  -15.7945   21.1775 C   0  0  0  0  0  0  0  0  0  0  0  0
    9.5788  -16.0881   20.0167 O   0  0  0  0  0  0  0  0  0  0  0  0
   12.0081  -14.6739   23.5564 C   0  0  0  0  0  0  0  0  0  0  0  0
   12.2343  -16.1063   23.1963 C   0  0  1  0  0  0  0  0  0  0  0  0
   11.7861  -16.9629   24.3802 C   0  0  0  0  0  0  0  0  0  0  0  0
   11.3509  -16.5259   22.0316 C   0  0  2  0  0  0  0  0  0  0  0  0
   10.0126  -16.0051   22.2432 N   0  0  0  0  0  0  0  0  0  0  0  0
   11.3547  -17.9927   21.8597 C   0  0  0  0  0  0  0  0  0  0  0  0
   12.5228  -18.6363   21.4784 O   0  0  0  0  0  0  0  0  0  0  0  0
   10.3478  -18.7273   22.0378 O   0  0  0  0  0  0  0  0  0  0  0  0
  2  1  1  6
  2 13  1  0
  2  3  1  0
  4  3  1  0
  4  5  2  0
  6  5  1  0
  7  6  1  0
  8  7  2  0
  9  8  1  0
 10  9  2  0
 10 11  1  0
 11 12  2  0
 12  7  1  0
 12  4  1  0
 13 14  2  0
 16 15  1  1
 17 16  1  0
 18 16  1  0
 19 18  1  1
 20 19  1  0
 20 13  1  0
 21 22  2  0
 21 19  1  0
 24 23  1  1
 24 26  1  0
 25 24  1  0
 26 28  1  0
 26 27  1  1
 27 21  1  0
 28 29  1  0
 30 28  2  0
M  END
$$$$
