PLW.pdb
     RDKit          3D

 30 32  0  0  1  0  0  0  0  0999 V2000
   29.1702  -21.1034  -13.3894 N   0  0  0  0  0  0  0  0  0  0  0  0
   28.2306  -21.0008  -14.4561 C   0  0  0  0  0  0  0  0  0  0  0  0
   27.6384  -19.6317  -14.3764 C   0  0  0  0  0  0  0  0  0  0  0  0
   28.2014  -19.0035  -13.1300 C   0  0  0  0  0  0  0  0  0  0  0  0
   28.8515  -20.1630  -12.3611 C   0  0  1  0  0  0  0  0  0  0  0  0
   27.8467  -20.6216  -11.3802 C   0  0  0  0  0  0  0  0  0  0  0  0
   27.1608  -21.6429  -11.7158 O   0  0  0  0  0  0  0  0  0  0  0  0
   28.2348  -21.4977   -7.0557 C   0  0  0  0  0  0  0  0  0  0  0  0
   28.0633  -20.0054   -7.4235 C   0  0  2  0  0  0  0  0  0  0  0  0
   28.1542  -19.2094   -6.1354 C   0  0  0  0  0  0  0  0  0  0  0  0
   26.6758  -19.8452   -7.9726 C   0  0  0  0  0  0  0  0  0  0  0  0
   26.4148  -20.4861   -9.2952 C   0  0  2  0  0  0  0  0  0  0  0  0
   27.5686  -20.0623  -10.1352 N   0  0  0  0  0  0  0  0  0  0  0  0
   25.1617  -20.0856   -9.9556 C   0  0  0  0  0  0  0  0  0  0  0  0
   24.9714  -18.8372  -10.1390 O   0  0  0  0  0  0  0  0  0  0  0  0
   24.1542  -20.9459  -10.4072 N   0  0  0  0  0  0  0  0  0  0  0  0
   22.9503  -20.4670  -11.1047 C   0  0  1  0  0  0  0  0  0  0  0  0
   23.0720  -20.9045  -12.5220 C   0  0  0  0  0  0  0  0  0  0  0  0
   21.9749  -20.5561  -13.4310 C   0  0  0  0  0  0  0  0  0  0  0  0
   21.7955  -19.2766  -13.9654 C   0  0  0  0  0  0  0  0  0  0  0  0
   20.6988  -19.2960  -14.7186 N   0  0  0  0  0  0  0  0  0  0  0  0
   20.1309  -20.5097  -14.7238 C   0  0  0  0  0  0  0  0  0  0  0  0
   19.0043  -21.0150  -15.3606 C   0  0  0  0  0  0  0  0  0  0  0  0
   18.7146  -22.3443  -15.1553 C   0  0  0  0  0  0  0  0  0  0  0  0
   19.4910  -23.1607  -14.3583 C   0  0  0  0  0  0  0  0  0  0  0  0
   20.5970  -22.6414  -13.7398 C   0  0  0  0  0  0  0  0  0  0  0  0
   20.9206  -21.3067  -13.9218 C   0  0  0  0  0  0  0  0  0  0  0  0
   21.7331  -20.9088  -10.4190 C   0  0  0  0  0  0  0  0  0  0  0  0
   20.4829  -20.3358  -10.5857 O   0  0  0  0  0  0  0  0  0  0  0  0
   21.7465  -21.8859   -9.5861 O   0  0  0  0  0  0  0  0  0  0  0  0
  1  2  1  0
  3  2  1  0
  4  5  1  0
  4  3  1  0
  5  1  1  0
  5  6  1  1
  7  6  2  0
  9  8  1  1
  9 11  1  0
 10  9  1  0
 12 11  1  1
 12 14  1  0
 12 13  1  0
 13  6  1  0
 14 15  2  0
 16 14  1  0
 16 17  1  0
 17 18  1  6
 19 18  1  0
 20 19  2  0
 21 20  1  0
 22 21  1  0
 22 27  2  0
 23 22  1  0
 24 23  2  0
 24 25  1  0
 25 26  2  0
 26 27  1  0
 27 19  1  0
 28 29  1  0
 28 17  1  0
 30 28  2  0
M  END
$$$$
