PLW.pdb
     RDKit          3D

 30 32  0  0  1  0  0  0  0  0999 V2000
   29.4338  -21.2032  -13.4625 N   0  0  0  0  0  0  0  0  0  0  0  0
   28.5330  -21.1858  -14.5668 C   0  0  0  0  0  0  0  0  0  0  0  0
   27.8723  -19.8461  -14.5609 C   0  0  0  0  0  0  0  0  0  0  0  0
   28.3545  -19.1464  -13.3188 C   0  0  0  0  0  0  0  0  0  0  0  0
   29.0294  -20.2438  -12.4829 C   0  0  1  0  0  0  0  0  0  0  0  0
   28.0102  -20.7168  -11.5239 C   0  0  0  0  0  0  0  0  0  0  0  0
   27.3135  -21.7183  -11.8947 O   0  0  0  0  0  0  0  0  0  0  0  0
   28.5197  -21.5723   -7.2191 C   0  0  0  0  0  0  0  0  0  0  0  0
   28.2457  -20.0944   -7.5829 C   0  0  2  0  0  0  0  0  0  0  0  0
   28.3176  -19.2920   -6.2974 C   0  0  0  0  0  0  0  0  0  0  0  0
   26.8379  -20.0228   -8.0979 C   0  0  0  0  0  0  0  0  0  0  0  0
   26.5914  -20.6570   -9.4264 C   0  0  2  0  0  0  0  0  0  0  0  0
   27.7292  -20.1901  -10.2655 N   0  0  0  0  0  0  0  0  0  0  0  0
   25.3247  -20.2871  -10.0786 C   0  0  0  0  0  0  0  0  0  0  0  0
   24.9719  -19.0623  -10.0165 O   0  0  0  0  0  0  0  0  0  0  0  0
   24.4661  -21.1522  -10.7666 N   0  0  0  0  0  0  0  0  0  0  0  0
   23.2509  -20.6888  -11.4549 C   0  0  1  0  0  0  0  0  0  0  0  0
   23.1756  -21.4328  -12.7417 C   0  0  0  0  0  0  0  0  0  0  0  0
   22.0186  -21.1710  -13.6043 C   0  0  0  0  0  0  0  0  0  0  0  0
   21.8860  -20.0185  -14.3848 C   0  0  0  0  0  0  0  0  0  0  0  0
   20.7166  -20.0824  -15.0164 N   0  0  0  0  0  0  0  0  0  0  0  0
   20.0559  -21.2069  -14.7090 C   0  0  0  0  0  0  0  0  0  0  0  0
   18.8304  -21.7164  -15.1198 C   0  0  0  0  0  0  0  0  0  0  0  0
   18.4588  -22.9380  -14.6072 C   0  0  0  0  0  0  0  0  0  0  0  0
   19.2484  -23.6459  -13.7241 C   0  0  0  0  0  0  0  0  0  0  0  0
   20.4527  -23.1245  -13.3323 C   0  0  0  0  0  0  0  0  0  0  0  0
   20.8608  -21.8963  -13.8264 C   0  0  0  0  0  0  0  0  0  0  0  0
   22.0743  -20.8177  -10.5913 C   0  0  0  0  0  0  0  0  0  0  0  0
   20.8774  -20.1478  -10.7855 O   0  0  0  0  0  0  0  0  0  0  0  0
   22.0770  -21.5821   -9.5596 O   0  0  0  0  0  0  0  0  0  0  0  0
  1  2  1  0
  3  2  1  0
  4  5  1  0
  4  3  1  0
  5  1  1  0
  5  6  1  1
  7  6  2  0
  9  8  1  1
  9 11  1  0
 10  9  1  0
 12 11  1  1
 12 14  1  0
 12 13  1  0
 13  6  1  0
 14 15  2  0
 16 14  1  0
 16 17  1  0
 17 18  1  6
 19 18  1  0
 20 19  2  0
 21 20  1  0
 22 21  1  0
 22 27  2  0
 23 22  1  0
 24 23  2  0
 24 25  1  0
 25 26  2  0
 26 27  1  0
 27 19  1  0
 28 29  1  0
 28 17  1  0
 30 28  2  0
M  END
$$$$
