FFM.pdb
     RDKit          3D

 31 32  0  0  1  0  0  0  0  0999 V2000
   10.6480  -17.7059   19.1169 N   0  0  0  0  0  0  0  0  0  0  0  0
    9.5906  -17.8765   20.0851 C   0  0  1  0  0  0  0  0  0  0  0  0
    9.6064  -19.2673   20.6455 C   0  0  0  0  0  0  0  0  0  0  0  0
    9.3288  -20.3285   19.6708 C   0  0  0  0  0  0  0  0  0  0  0  0
    9.2360  -21.6536   20.0320 C   0  0  0  0  0  0  0  0  0  0  0  0
    8.9747  -22.6402   19.1078 C   0  0  0  0  0  0  0  0  0  0  0  0
    8.8006  -22.2978   17.7844 C   0  0  0  0  0  0  0  0  0  0  0  0
    8.8925  -20.9712   17.4165 C   0  0  0  0  0  0  0  0  0  0  0  0
    9.1518  -19.9922   18.3337 C   0  0  0  0  0  0  0  0  0  0  0  0
    9.5155  -16.8003   21.0663 C   0  0  0  0  0  0  0  0  0  0  0  0
   10.5698  -16.1210   21.3070 O   0  0  0  0  0  0  0  0  0  0  0  0
    8.3602  -16.4219   21.7972 N   0  0  0  0  0  0  0  0  0  0  0  0
    8.3408  -15.3507   22.7596 C   0  0  1  0  0  0  0  0  0  0  0  0
    7.0104  -15.2571   23.4775 C   0  0  0  0  0  0  0  0  0  0  0  0
    6.9941  -14.1885   24.5066 C   0  0  0  0  0  0  0  0  0  0  0  0
    7.6076  -12.9644   24.3838 C   0  0  0  0  0  0  0  0  0  0  0  0
    7.5631  -12.0043   25.3713 C   0  0  0  0  0  0  0  0  0  0  0  0
    6.8904  -12.2344   26.5435 C   0  0  0  0  0  0  0  0  0  0  0  0
    6.2693  -13.4589   26.6815 C   0  0  0  0  0  0  0  0  0  0  0  0
    6.3067  -14.4263   25.7018 C   0  0  0  0  0  0  0  0  0  0  0  0
    9.3840  -15.5535   23.7785 C   0  0  0  0  0  0  0  0  0  0  0  0
   10.3299  -14.7309   23.8437 O   0  0  0  0  0  0  0  0  0  0  0  0
   10.8146  -14.0386   30.6786 C   0  0  0  0  0  0  0  0  0  0  0  0
    9.9163  -13.9408   29.0862 S   0  0  0  0  0  0  0  0  0  0  0  0
   10.4244  -15.3799   28.1067 C   0  0  0  0  0  0  0  0  0  0  0  0
    9.7331  -15.3952   26.7822 C   0  0  0  0  0  0  0  0  0  0  0  0
   10.1803  -16.5444   25.8857 C   0  0  2  0  0  0  0  0  0  0  0  0
    9.3817  -16.6338   24.7029 N   0  0  0  0  0  0  0  0  0  0  0  0
   10.1034  -17.7696   26.6747 C   0  0  0  0  0  0  0  0  0  0  0  0
    9.2753  -18.6864   26.4701 O   0  0  0  0  0  0  0  0  0  0  0  0
   11.0096  -17.9474   27.7360 O   0  0  0  0  0  0  0  0  0  0  0  0
  2  1  1  1
  2 10  1  0
  2  3  1  0
  3  4  1  0
  4  9  2  0
  5  6  2  0
  5  4  1  0
  6  7  1  0
  7  8  2  0
  9  8  1  0
 10 11  2  0
 12 13  1  0
 12 10  1  0
 13 21  1  0
 13 14  1  1
 15 14  1  0
 15 16  2  0
 17 16  1  0
 18 17  2  0
 19 20  2  0
 19 18  1  0
 20 15  1  0
 21 22  2  0
 21 28  1  0
 23 24  1  0
 24 25  1  0
 26 25  1  0
 27 26  1  1
 28 27  1  0
 29 31  1  0
 29 27  1  0
 30 29  2  0
M  END
$$$$
