FFM.pdb
     RDKit          3D

 31 32  0  0  1  0  0  0  0  0999 V2000
    9.6543  -18.1934   19.5337 N   0  0  0  0  0  0  0  0  0  0  0  0
    9.5446  -16.7547   19.5862 C   0  0  1  0  0  0  0  0  0  0  0  0
    8.4457  -16.2751   18.6856 C   0  0  0  0  0  0  0  0  0  0  0  0
    8.0895  -14.8607   18.8459 C   0  0  0  0  0  0  0  0  0  0  0  0
    6.9479  -14.4590   19.5021 C   0  0  0  0  0  0  0  0  0  0  0  0
    6.6249  -13.1284   19.6461 C   0  0  0  0  0  0  0  0  0  0  0  0
    7.4630  -12.1686   19.1214 C   0  0  0  0  0  0  0  0  0  0  0  0
    8.6087  -12.5653   18.4627 C   0  0  0  0  0  0  0  0  0  0  0  0
    8.9292  -13.8858   18.3199 C   0  0  0  0  0  0  0  0  0  0  0  0
    9.5310  -16.2173   20.9418 C   0  0  0  0  0  0  0  0  0  0  0  0
   10.4964  -15.4664   21.3090 O   0  0  0  0  0  0  0  0  0  0  0  0
    8.5275  -16.4494   21.9171 N   0  0  0  0  0  0  0  0  0  0  0  0
    8.4421  -15.7282   23.1607 C   0  0  1  0  0  0  0  0  0  0  0  0
    7.0067  -15.4881   23.5800 C   0  0  0  0  0  0  0  0  0  0  0  0
    6.9048  -14.6944   24.8293 C   0  0  0  0  0  0  0  0  0  0  0  0
    6.5275  -15.1934   26.0534 C   0  0  0  0  0  0  0  0  0  0  0  0
    6.4479  -14.4125   27.1860 C   0  0  0  0  0  0  0  0  0  0  0  0
    6.7483  -13.0757   27.1388 C   0  0  0  0  0  0  0  0  0  0  0  0
    7.1288  -12.5601   25.9167 C   0  0  0  0  0  0  0  0  0  0  0  0
    7.2120  -13.3304   24.7779 C   0  0  0  0  0  0  0  0  0  0  0  0
    9.1020  -16.4811   24.2402 C   0  0  0  0  0  0  0  0  0  0  0  0
    8.9821  -17.7304   24.2633 O   0  0  0  0  0  0  0  0  0  0  0  0
   10.6173  -14.6328   30.8591 C   0  0  0  0  0  0  0  0  0  0  0  0
   11.2320  -13.9987   29.2553 S   0  0  0  0  0  0  0  0  0  0  0  0
   10.3593  -14.9168   27.9576 C   0  0  0  0  0  0  0  0  0  0  0  0
   11.2791  -15.8717   27.2685 C   0  0  0  0  0  0  0  0  0  0  0  0
   10.5872  -16.6983   26.1904 C   0  0  2  0  0  0  0  0  0  0  0  0
    9.8762  -15.8716   25.2652 N   0  0  0  0  0  0  0  0  0  0  0  0
    9.6936  -17.6350   26.8640 C   0  0  0  0  0  0  0  0  0  0  0  0
    8.4441  -17.5823   26.8020 O   0  0  0  0  0  0  0  0  0  0  0  0
   10.2557  -18.6682   27.6359 O   0  0  0  0  0  0  0  0  0  0  0  0
  2  1  1  1
  2 10  1  0
  2  3  1  0
  3  4  1  0
  4  9  2  0
  5  6  2  0
  5  4  1  0
  6  7  1  0
  7  8  2  0
  9  8  1  0
 10 11  2  0
 12 13  1  0
 12 10  1  0
 13 21  1  0
 13 14  1  1
 15 14  1  0
 15 16  2  0
 17 16  1  0
 18 17  2  0
 19 20  2  0
 19 18  1  0
 20 15  1  0
 21 22  2  0
 21 28  1  0
 23 24  1  0
 24 25  1  0
 26 25  1  0
 27 26  1  1
 28 27  1  0
 29 31  1  0
 29 27  1  0
 30 29  2  0
M  END
$$$$
