FFM.pdb
     RDKit          3D

 31 32  0  0  1  0  0  0  0  0999 V2000
    8.5764  -17.0160   21.6518 N   0  0  0  0  0  0  0  0  0  0  0  0
    9.6791  -16.2321   22.1559 C   0  0  1  0  0  0  0  0  0  0  0  0
    9.9542  -15.0658   21.2544 C   0  0  0  0  0  0  0  0  0  0  0  0
    8.7608  -14.4394   20.6743 C   0  0  0  0  0  0  0  0  0  0  0  0
    7.9761  -15.0760   19.7394 C   0  0  0  0  0  0  0  0  0  0  0  0
    6.8584  -14.4775   19.2026 C   0  0  0  0  0  0  0  0  0  0  0  0
    6.5111  -13.2072   19.6083 C   0  0  0  0  0  0  0  0  0  0  0  0
    7.2938  -12.5641   20.5452 C   0  0  0  0  0  0  0  0  0  0  0  0
    8.4029  -13.1582   21.0778 C   0  0  0  0  0  0  0  0  0  0  0  0
    9.5762  -15.9222   23.5772 C   0  0  0  0  0  0  0  0  0  0  0  0
   10.5357  -15.2894   24.1336 O   0  0  0  0  0  0  0  0  0  0  0  0
    8.4898  -16.2601   24.4243 N   0  0  0  0  0  0  0  0  0  0  0  0
    8.5373  -16.1606   25.8602 C   0  0  1  0  0  0  0  0  0  0  0  0
    7.2433  -15.6224   26.4347 C   0  0  0  0  0  0  0  0  0  0  0  0
    7.1858  -14.1400   26.4146 C   0  0  0  0  0  0  0  0  0  0  0  0
    6.1147  -13.3971   25.9780 C   0  0  0  0  0  0  0  0  0  0  0  0
    6.1115  -12.0191   25.9792 C   0  0  0  0  0  0  0  0  0  0  0  0
    7.2001  -11.3155   26.4256 C   0  0  0  0  0  0  0  0  0  0  0  0
    8.2833  -12.0476   26.8672 C   0  0  0  0  0  0  0  0  0  0  0  0
    8.2984  -13.4248   26.8708 C   0  0  0  0  0  0  0  0  0  0  0  0
    8.7762  -17.4830   26.4615 C   0  0  0  0  0  0  0  0  0  0  0  0
    7.8060  -18.0992   26.9662 O   0  0  0  0  0  0  0  0  0  0  0  0
    8.2938  -21.2785   22.9331 C   0  0  0  0  0  0  0  0  0  0  0  0
    7.4001  -21.7990   24.4439 S   0  0  0  0  0  0  0  0  0  0  0  0
    8.3449  -21.1679   25.8573 C   0  0  0  0  0  0  0  0  0  0  0  0
    9.3882  -20.1958   25.4108 C   0  0  0  0  0  0  0  0  0  0  0  0
   10.1283  -19.5365   26.5692 C   0  0  2  0  0  0  0  0  0  0  0  0
   10.0517  -18.1101   26.5021 N   0  0  0  0  0  0  0  0  0  0  0  0
   11.5118  -19.9987   26.5236 C   0  0  0  0  0  0  0  0  0  0  0  0
   12.4919  -19.2594   26.2768 O   0  0  0  0  0  0  0  0  0  0  0  0
   11.7781  -21.3579   26.7702 O   0  0  0  0  0  0  0  0  0  0  0  0
  2  1  1  6
  2 10  1  0
  2  3  1  0
  3  4  1  0
  4  9  2  0
  5  6  2  0
  5  4  1  0
  6  7  1  0
  7  8  2  0
  9  8  1  0
 10 11  2  0
 12 13  1  0
 12 10  1  0
 13 21  1  0
 13 14  1  1
 15 14  1  0
 15 16  2  0
 17 16  1  0
 18 17  2  0
 19 20  2  0
 19 18  1  0
 20 15  1  0
 21 22  2  0
 21 28  1  0
 23 24  1  0
 24 25  1  0
 26 25  1  0
 27 26  1  6
 28 27  1  0
 29 31  1  0
 29 27  1  0
 30 29  2  0
M  END
$$$$
