FFM.pdb
     RDKit          3D

 31 32  0  0  1  0  0  0  0  0999 V2000
   10.8628  -15.7404   21.1188 N   0  0  0  0  0  0  0  0  0  0  0  0
    9.6756  -15.3379   21.8351 C   0  0  1  0  0  0  0  0  0  0  0  0
    8.4452  -15.6516   21.0374 C   0  0  0  0  0  0  0  0  0  0  0  0
    7.8993  -14.5226   20.2754 C   0  0  0  0  0  0  0  0  0  0  0  0
    6.7485  -14.6273   19.5274 C   0  0  0  0  0  0  0  0  0  0  0  0
    6.2463  -13.5602   18.8168 C   0  0  0  0  0  0  0  0  0  0  0  0
    6.9092  -12.3527   18.8516 C   0  0  0  0  0  0  0  0  0  0  0  0
    8.0633  -12.2418   19.5997 C   0  0  0  0  0  0  0  0  0  0  0  0
    8.5616  -13.3008   20.3048 C   0  0  0  0  0  0  0  0  0  0  0  0
    9.6550  -15.7736   23.2267 C   0  0  0  0  0  0  0  0  0  0  0  0
   10.7159  -16.2849   23.7204 O   0  0  0  0  0  0  0  0  0  0  0  0
    8.5482  -15.6828   24.1091 N   0  0  0  0  0  0  0  0  0  0  0  0
    8.6516  -15.8399   25.5369 C   0  0  1  0  0  0  0  0  0  0  0  0
    7.3930  -15.3905   26.2497 C   0  0  0  0  0  0  0  0  0  0  0  0
    7.3181  -13.9159   26.3952 C   0  0  0  0  0  0  0  0  0  0  0  0
    8.3538  -13.1090   26.8028 C   0  0  0  0  0  0  0  0  0  0  0  0
    8.2325  -11.7416   26.9225 C   0  0  0  0  0  0  0  0  0  0  0  0
    7.0481  -11.1144   26.6340 C   0  0  0  0  0  0  0  0  0  0  0  0
    5.9990  -11.9114   26.2236 C   0  0  0  0  0  0  0  0  0  0  0  0
    6.1080  -13.2789   26.1001 C   0  0  0  0  0  0  0  0  0  0  0  0
    8.8817  -17.2516   25.8854 C   0  0  0  0  0  0  0  0  0  0  0  0
    7.9922  -18.0929   25.6085 O   0  0  0  0  0  0  0  0  0  0  0  0
   13.9000  -19.2079   22.8237 C   0  0  0  0  0  0  0  0  0  0  0  0
   13.4631  -19.9675   24.4313 S   0  0  0  0  0  0  0  0  0  0  0  0
   11.9245  -19.1820   24.9830 C   0  0  0  0  0  0  0  0  0  0  0  0
   11.5329  -19.6696   26.3400 C   0  0  0  0  0  0  0  0  0  0  0  0
   10.1928  -19.1168   26.8120 C   0  0  2  0  0  0  0  0  0  0  0  0
   10.0635  -17.7229   26.5201 N   0  0  0  0  0  0  0  0  0  0  0  0
   10.0950  -19.3725   28.2455 C   0  0  0  0  0  0  0  0  0  0  0  0
   10.1212  -20.5142   28.7590 O   0  0  0  0  0  0  0  0  0  0  0  0
    9.9624  -18.2778   29.1191 O   0  0  0  0  0  0  0  0  0  0  0  0
  2  1  1  6
  2 10  1  0
  2  3  1  0
  3  4  1  0
  4  9  2  0
  5  6  2  0
  5  4  1  0
  6  7  1  0
  7  8  2  0
  9  8  1  0
 10 11  2  0
 12 13  1  0
 12 10  1  0
 13 21  1  0
 13 14  1  1
 15 14  1  0
 15 16  2  0
 17 16  1  0
 18 17  2  0
 19 20  2  0
 19 18  1  0
 20 15  1  0
 21 22  2  0
 21 28  1  0
 23 24  1  0
 24 25  1  0
 26 25  1  0
 27 26  1  1
 28 27  1  0
 29 31  1  0
 29 27  1  0
 30 29  2  0
M  END
$$$$
