FFM.pdb
     RDKit          3D

 31 32  0  0  1  0  0  0  0  0999 V2000
    5.5410  -17.4927   23.6912 N   0  0  0  0  0  0  0  0  0  0  0  0
    6.7932  -16.8179   23.9392 C   0  0  1  0  0  0  0  0  0  0  0  0
    6.8991  -16.4127   25.3790 C   0  0  0  0  0  0  0  0  0  0  0  0
    6.8584  -14.9654   25.6174 C   0  0  0  0  0  0  0  0  0  0  0  0
    5.8555  -14.3676   26.3466 C   0  0  0  0  0  0  0  0  0  0  0  0
    5.8287  -13.0081   26.5635 C   0  0  0  0  0  0  0  0  0  0  0  0
    6.8300  -12.2200   26.0389 C   0  0  0  0  0  0  0  0  0  0  0  0
    7.8379  -12.8137   25.3072 C   0  0  0  0  0  0  0  0  0  0  0  0
    7.8644  -14.1628   25.0920 C   0  0  0  0  0  0  0  0  0  0  0  0
    7.9519  -17.5133   23.3911 C   0  0  0  0  0  0  0  0  0  0  0  0
    8.3413  -18.5889   23.9586 O   0  0  0  0  0  0  0  0  0  0  0  0
    8.7077  -17.1056   22.2621 N   0  0  0  0  0  0  0  0  0  0  0  0
    9.8270  -16.2024   22.3355 C   0  0  1  0  0  0  0  0  0  0  0  0
    9.3883  -14.7747   22.5871 C   0  0  0  0  0  0  0  0  0  0  0  0
    8.6907  -14.1806   21.4201 C   0  0  0  0  0  0  0  0  0  0  0  0
    7.3278  -14.0496   21.2976 C   0  0  0  0  0  0  0  0  0  0  0  0
    6.7278  -13.4899   20.1905 C   0  0  0  0  0  0  0  0  0  0  0  0
    7.4814  -13.0301   19.1415 C   0  0  0  0  0  0  0  0  0  0  0  0
    8.8514  -13.1548   19.2500 C   0  0  0  0  0  0  0  0  0  0  0  0
    9.4625  -13.7123   20.3513 C   0  0  0  0  0  0  0  0  0  0  0  0
   10.7321  -16.5902   23.4298 C   0  0  0  0  0  0  0  0  0  0  0  0
   11.8147  -17.1574   23.1434 O   0  0  0  0  0  0  0  0  0  0  0  0
    9.1588  -12.5841   28.0182 C   0  0  0  0  0  0  0  0  0  0  0  0
    9.4002  -14.3802   28.2786 S   0  0  0  0  0  0  0  0  0  0  0  0
   10.9024  -14.8451   27.3754 C   0  0  0  0  0  0  0  0  0  0  0  0
   10.9781  -16.3261   27.1919 C   0  0  0  0  0  0  0  0  0  0  0  0
   11.4153  -16.7348   25.7897 C   0  0  2  0  0  0  0  0  0  0  0  0
   10.4514  -16.3556   24.8038 N   0  0  0  0  0  0  0  0  0  0  0  0
   11.6263  -18.1788   25.8011 C   0  0  0  0  0  0  0  0  0  0  0  0
   12.4159  -18.7675   26.5744 O   0  0  0  0  0  0  0  0  0  0  0  0
   10.9046  -18.9739   24.8922 O   0  0  0  0  0  0  0  0  0  0  0  0
  2  1  1  1
  2 10  1  0
  2  3  1  0
  3  4  1  0
  4  9  2  0
  5  6  2  0
  5  4  1  0
  6  7  1  0
  7  8  2  0
  9  8  1  0
 10 11  2  0
 12 13  1  0
 12 10  1  0
 13 21  1  0
 13 14  1  1
 15 14  1  0
 15 16  2  0
 17 16  1  0
 18 17  2  0
 19 20  2  0
 19 18  1  0
 20 15  1  0
 21 22  2  0
 21 28  1  0
 23 24  1  0
 24 25  1  0
 26 25  1  0
 27 26  1  1
 28 27  1  0
 29 31  1  0
 29 27  1  0
 30 29  2  0
M  END
$$$$
