FFM.pdb
     RDKit          3D

 31 32  0  0  1  0  0  0  0  0999 V2000
    5.0128  -20.2219   22.2573 N   0  0  0  0  0  0  0  0  0  0  0  0
    5.8079  -19.9324   23.4272 C   0  0  1  0  0  0  0  0  0  0  0  0
    6.9812  -20.8623   23.5121 C   0  0  0  0  0  0  0  0  0  0  0  0
    6.6351  -22.2809   23.6573 C   0  0  0  0  0  0  0  0  0  0  0  0
    6.0917  -22.7911   24.8146 C   0  0  0  0  0  0  0  0  0  0  0  0
    5.7710  -24.1244   24.9383 C   0  0  0  0  0  0  0  0  0  0  0  0
    5.9978  -24.9755   23.8786 C   0  0  0  0  0  0  0  0  0  0  0  0
    6.5423  -24.4697   22.7160 C   0  0  0  0  0  0  0  0  0  0  0  0
    6.8605  -23.1466   22.5933 C   0  0  0  0  0  0  0  0  0  0  0  0
    6.1107  -18.5156   23.5938 C   0  0  0  0  0  0  0  0  0  0  0  0
    6.1991  -17.7850   22.5503 O   0  0  0  0  0  0  0  0  0  0  0  0
    6.3205  -17.8509   24.8292 N   0  0  0  0  0  0  0  0  0  0  0  0
    6.7299  -16.4743   24.9347 C   0  0  1  0  0  0  0  0  0  0  0  0
    6.5065  -15.9209   26.3267 C   0  0  0  0  0  0  0  0  0  0  0  0
    6.8141  -14.4724   26.4185 C   0  0  0  0  0  0  0  0  0  0  0  0
    5.9896  -13.4611   25.9857 C   0  0  0  0  0  0  0  0  0  0  0  0
    6.3227  -12.1283   26.0934 C   0  0  0  0  0  0  0  0  0  0  0  0
    7.5164  -11.7462   26.6490 C   0  0  0  0  0  0  0  0  0  0  0  0
    8.3548  -12.7504   27.0882 C   0  0  0  0  0  0  0  0  0  0  0  0
    8.0330  -14.0857   26.9860 C   0  0  0  0  0  0  0  0  0  0  0  0
    8.1626  -16.3368   24.6247 C   0  0  0  0  0  0  0  0  0  0  0  0
    8.9678  -17.1622   25.1207 O   0  0  0  0  0  0  0  0  0  0  0  0
    6.6441  -13.3742   19.9965 C   0  0  0  0  0  0  0  0  0  0  0  0
    7.7840  -13.3916   21.4292 S   0  0  0  0  0  0  0  0  0  0  0  0
    9.1711  -14.4718   20.9841 C   0  0  0  0  0  0  0  0  0  0  0  0
   10.2079  -14.4799   22.0601 C   0  0  0  0  0  0  0  0  0  0  0  0
    9.9474  -15.5286   23.1356 C   0  0  2  0  0  0  0  0  0  0  0  0
    8.6922  -15.3172   23.7872 N   0  0  0  0  0  0  0  0  0  0  0  0
   11.0563  -15.4684   24.0824 C   0  0  0  0  0  0  0  0  0  0  0  0
   12.2637  -15.5234   23.7550 O   0  0  0  0  0  0  0  0  0  0  0  0
   10.7675  -15.3404   25.4533 O   0  0  0  0  0  0  0  0  0  0  0  0
  2  1  1  6
  2 10  1  0
  2  3  1  0
  3  4  1  0
  4  9  2  0
  5  6  2  0
  5  4  1  0
  6  7  1  0
  7  8  2  0
  9  8  1  0
 10 11  2  0
 12 13  1  0
 12 10  1  0
 13 21  1  0
 13 14  1  1
 15 14  1  0
 15 16  2  0
 17 16  1  0
 18 17  2  0
 19 20  2  0
 19 18  1  0
 20 15  1  0
 21 22  2  0
 21 28  1  0
 23 24  1  0
 24 25  1  0
 26 25  1  0
 27 26  1  6
 28 27  1  0
 29 31  1  0
 29 27  1  0
 30 29  2  0
M  END
$$$$
