FFM.pdb
     RDKit          3D

 31 32  0  0  1  0  0  0  0  0999 V2000
    8.2793  -18.6366   19.5673 N   0  0  0  0  0  0  0  0  0  0  0  0
    8.0276  -18.3517   20.9602 C   0  0  1  0  0  0  0  0  0  0  0  0
    7.5702  -19.5863   21.6779 C   0  0  0  0  0  0  0  0  0  0  0  0
    7.3767  -20.7620   20.8216 C   0  0  0  0  0  0  0  0  0  0  0  0
    8.1919  -21.8688   20.8958 C   0  0  0  0  0  0  0  0  0  0  0  0
    7.9997  -22.9661   20.0866 C   0  0  0  0  0  0  0  0  0  0  0  0
    6.9654  -22.9619   19.1762 C   0  0  0  0  0  0  0  0  0  0  0  0
    6.1450  -21.8553   19.0973 C   0  0  0  0  0  0  0  0  0  0  0  0
    6.3357  -20.7664   19.9003 C   0  0  0  0  0  0  0  0  0  0  0  0
    9.0990  -17.6040   21.6081 C   0  0  0  0  0  0  0  0  0  0  0  0
   10.0100  -18.2544   22.2228 O   0  0  0  0  0  0  0  0  0  0  0  0
    9.2351  -16.1922   21.6231 N   0  0  0  0  0  0  0  0  0  0  0  0
    8.9874  -15.3795   22.7860 C   0  0  1  0  0  0  0  0  0  0  0  0
    7.5084  -15.1364   23.0036 C   0  0  0  0  0  0  0  0  0  0  0  0
    7.2404  -14.2931   24.1946 C   0  0  0  0  0  0  0  0  0  0  0  0
    6.5049  -14.6827   25.2887 C   0  0  0  0  0  0  0  0  0  0  0  0
    6.2842  -13.8597   26.3717 C   0  0  0  0  0  0  0  0  0  0  0  0
    6.8001  -12.5900   26.4045 C   0  0  0  0  0  0  0  0  0  0  0  0
    7.5408  -12.1845   25.3131 C   0  0  0  0  0  0  0  0  0  0  0  0
    7.7683  -12.9978   24.2250 C   0  0  0  0  0  0  0  0  0  0  0  0
    9.5144  -16.0341   23.9948 C   0  0  0  0  0  0  0  0  0  0  0  0
    8.7202  -16.6701   24.7299 O   0  0  0  0  0  0  0  0  0  0  0  0
   10.4990  -12.2945   28.2098 C   0  0  0  0  0  0  0  0  0  0  0  0
    9.9957  -13.8621   29.0108 S   0  0  0  0  0  0  0  0  0  0  0  0
   10.7756  -15.2050   28.0744 C   0  0  0  0  0  0  0  0  0  0  0  0
   10.4965  -15.0688   26.6128 C   0  0  0  0  0  0  0  0  0  0  0  0
   11.2230  -16.1064   25.7645 C   0  0  2  0  0  0  0  0  0  0  0  0
   10.8822  -15.9904   24.3805 N   0  0  0  0  0  0  0  0  0  0  0  0
   10.8750  -17.4224   26.2906 C   0  0  0  0  0  0  0  0  0  0  0  0
    9.7036  -17.8555   26.3815 O   0  0  0  0  0  0  0  0  0  0  0  0
   11.9092  -18.2701   26.7274 O   0  0  0  0  0  0  0  0  0  0  0  0
  2  1  1  6
  2 10  1  0
  2  3  1  0
  3  4  1  0
  4  9  2  0
  5  6  2  0
  5  4  1  0
  6  7  1  0
  7  8  2  0
  9  8  1  0
 10 11  2  0
 12 13  1  0
 12 10  1  0
 13 21  1  0
 13 14  1  1
 15 14  1  0
 15 16  2  0
 17 16  1  0
 18 17  2  0
 19 20  2  0
 19 18  1  0
 20 15  1  0
 21 22  2  0
 21 28  1  0
 23 24  1  0
 24 25  1  0
 26 25  1  0
 27 26  1  1
 28 27  1  0
 29 31  1  0
 29 27  1  0
 30 29  2  0
M  END
$$$$
