GCN.pdb
     RDKit          3D

 19 18  0  0  1  0  0  0  0  0999 V2000
   31.7860  -29.6124  -18.3230 N   0  0  0  0  0  0  0  0  0  0  0  0
   31.2332  -30.5013  -17.3221 C   0  0  0  0  0  0  0  0  0  0  0  0
   29.7813  -30.6387  -17.5790 C   0  0  0  0  0  0  0  0  0  0  0  0
   29.2243  -29.8223  -18.3557 O   0  0  0  0  0  0  0  0  0  0  0  0
   28.9760  -31.6410  -16.9975 N   0  0  0  0  0  0  0  0  0  0  0  0
   27.5588  -31.7528  -17.3086 C   0  0  1  0  0  0  0  0  0  0  0  0
   26.9745  -33.0834  -16.9304 C   0  0  0  0  0  0  0  0  0  0  0  0
   27.8922  -34.4988  -17.5310 S   0  0  0  0  0  0  0  0  0  0  0  0
   26.8178  -30.5896  -16.7825 C   0  0  0  0  0  0  0  0  0  0  0  0
   27.3362  -29.8659  -15.8739 O   0  0  0  0  0  0  0  0  0  0  0  0
   26.3694  -25.7001  -15.8433 N   0  0  0  0  0  0  0  0  0  0  0  0
   25.5182  -26.8305  -15.7987 C   0  0  0  0  0  0  0  0  0  0  0  0
   24.3597  -26.6738  -15.3549 O   0  0  0  0  0  0  0  0  0  0  0  0
   25.9550  -28.1464  -16.2509 C   0  0  0  0  0  0  0  0  0  0  0  0
   24.9082  -28.9507  -16.9833 C   0  0  2  0  0  0  0  0  0  0  0  0
   25.5432  -30.2490  -17.2577 N   0  0  0  0  0  0  0  0  0  0  0  0
   24.4752  -28.3148  -18.2499 C   0  0  0  0  0  0  0  0  0  0  0  0
   23.8381  -27.2442  -18.2225 O   0  0  0  0  0  0  0  0  0  0  0  0
   24.8023  -28.9482  -19.4462 O   0  0  0  0  0  0  0  0  0  0  0  0
  2  1  1  0
  3  2  1  0
  4  3  2  0
  5  3  1  0
  6  9  1  0
  6  5  1  0
  7  8  1  0
  6  7  1  1
  9 10  2  0
 11 12  1  0
 12 13  2  0
 14 12  1  0
 15 14  1  6
 16 15  1  0
 16  9  1  0
 17 19  1  0
 17 15  1  0
 18 17  2  0
M  END
$$$$
