GCN.pdb
     RDKit          3D

 19 18  0  0  1  0  0  0  0  0999 V2000
   17.5903  -11.2727  -16.9667 N   0  0  0  0  0  0  0  0  0  0  0  0
   17.2044  -10.6642  -15.7103 C   0  0  0  0  0  0  0  0  0  0  0  0
   18.4134  -10.0702  -15.0953 C   0  0  0  0  0  0  0  0  0  0  0  0
   18.3224   -9.5637  -13.9485 O   0  0  0  0  0  0  0  0  0  0  0  0
   19.6752  -10.0369  -15.7261 N   0  0  0  0  0  0  0  0  0  0  0  0
   20.8280   -9.4192  -15.0877 C   0  0  1  0  0  0  0  0  0  0  0  0
   22.1021  -10.1845  -15.3022 C   0  0  0  0  0  0  0  0  0  0  0  0
   23.5453   -9.4628  -14.5259 S   0  0  0  0  0  0  0  0  0  0  0  0
   20.9103   -7.9874  -15.4368 C   0  0  0  0  0  0  0  0  0  0  0  0
   21.0572   -7.6385  -16.6511 O   0  0  0  0  0  0  0  0  0  0  0  0
   17.2531   -5.5899  -15.0515 N   0  0  0  0  0  0  0  0  0  0  0  0
   18.5656   -5.2211  -15.4333 C   0  0  0  0  0  0  0  0  0  0  0  0
   18.8152   -5.1266  -16.6549 O   0  0  0  0  0  0  0  0  0  0  0  0
   19.6107   -4.9541  -14.4517 C   0  0  0  0  0  0  0  0  0  0  0  0
   20.9588   -5.5518  -14.7748 C   0  0  2  0  0  0  0  0  0  0  0  0
   20.8299   -6.9832  -14.4612 N   0  0  0  0  0  0  0  0  0  0  0  0
   22.0592   -4.9516  -13.9843 C   0  0  0  0  0  0  0  0  0  0  0  0
   22.7393   -5.6656  -13.2225 O   0  0  0  0  0  0  0  0  0  0  0  0
   22.2976   -3.5867  -14.1245 O   0  0  0  0  0  0  0  0  0  0  0  0
  2  1  1  0
  3  2  1  0
  4  3  2  0
  5  3  1  0
  6  9  1  0
  6  5  1  0
  7  8  1  0
  6  7  1  6
  9 10  2  0
 11 12  1  0
 12 13  2  0
 14 12  1  0
 15 14  1  1
 16 15  1  0
 16  9  1  0
 17 19  1  0
 17 15  1  0
 18 17  2  0
M  END
$$$$
