GCN.pdb
     RDKit          3D

 19 18  0  0  1  0  0  0  0  0999 V2000
   16.3747   -9.3689  -10.0134 N   0  0  0  0  0  0  0  0  0  0  0  0
   16.5670   -9.4951  -11.4434 C   0  0  0  0  0  0  0  0  0  0  0  0
   17.6308   -8.5490  -11.8507 C   0  0  0  0  0  0  0  0  0  0  0  0
   17.7968   -7.4994  -11.1792 O   0  0  0  0  0  0  0  0  0  0  0  0
   18.4782   -8.7560  -12.9599 N   0  0  0  0  0  0  0  0  0  0  0  0
   19.4051   -7.7285  -13.4103 C   0  0  1  0  0  0  0  0  0  0  0  0
   20.6242   -8.2880  -14.0855 C   0  0  0  0  0  0  0  0  0  0  0  0
   22.1017   -8.2914  -13.0739 S   0  0  0  0  0  0  0  0  0  0  0  0
   18.6964   -6.6948  -14.1901 C   0  0  0  0  0  0  0  0  0  0  0  0
   17.8816   -7.0380  -15.1044 O   0  0  0  0  0  0  0  0  0  0  0  0
   16.7817   -2.0065  -15.6763 N   0  0  0  0  0  0  0  0  0  0  0  0
   16.4754   -2.5404  -14.4013 C   0  0  0  0  0  0  0  0  0  0  0  0
   15.5687   -1.9904  -13.7388 O   0  0  0  0  0  0  0  0  0  0  0  0
   17.1805   -3.6948  -13.8561 C   0  0  0  0  0  0  0  0  0  0  0  0
   18.2459   -4.2758  -14.7541 C   0  0  2  0  0  0  0  0  0  0  0  0
   18.8928   -5.3265  -13.9533 N   0  0  0  0  0  0  0  0  0  0  0  0
   19.2466   -3.2713  -15.1849 C   0  0  0  0  0  0  0  0  0  0  0  0
   20.0922   -2.8479  -14.3735 O   0  0  0  0  0  0  0  0  0  0  0  0
   19.2048   -2.8293  -16.5049 O   0  0  0  0  0  0  0  0  0  0  0  0
  2  1  1  0
  3  2  1  0
  4  3  2  0
  5  3  1  0
  6  9  1  0
  6  5  1  0
  7  8  1  0
  6  7  1  6
  9 10  2  0
 11 12  1  0
 12 13  2  0
 14 12  1  0
 15 14  1  1
 16 15  1  0
 16  9  1  0
 17 19  1  0
 17 15  1  0
 18 17  2  0
M  END
$$$$
