GCN.pdb
     RDKit          3D

 19 18  0  0  1  0  0  0  0  0999 V2000
   24.7670  -18.4615  -16.5556 N   0  0  0  0  0  0  0  0  0  0  0  0
   24.2369  -17.6321  -15.4932 C   0  0  0  0  0  0  0  0  0  0  0  0
   23.8329  -16.3339  -16.0799 C   0  0  0  0  0  0  0  0  0  0  0  0
   24.2337  -16.0407  -17.2346 O   0  0  0  0  0  0  0  0  0  0  0  0
   23.0171  -15.3951  -15.4133 N   0  0  0  0  0  0  0  0  0  0  0  0
   22.6234  -14.1453  -16.0465 C   0  0  1  0  0  0  0  0  0  0  0  0
   21.1355  -13.9466  -16.0862 C   0  0  0  0  0  0  0  0  0  0  0  0
   20.1836  -15.4594  -16.1934 S   0  0  0  0  0  0  0  0  0  0  0  0
   23.3750  -13.0122  -15.4720 C   0  0  0  0  0  0  0  0  0  0  0  0
   23.4229  -12.8580  -14.2103 O   0  0  0  0  0  0  0  0  0  0  0  0
   28.4931  -10.0788  -16.3662 N   0  0  0  0  0  0  0  0  0  0  0  0
   27.1781  -10.1272  -15.8439 C   0  0  0  0  0  0  0  0  0  0  0  0
   26.8408   -9.2450  -15.0245 O   0  0  0  0  0  0  0  0  0  0  0  0
   26.2282  -11.1628  -16.2341 C   0  0  0  0  0  0  0  0  0  0  0  0
   24.8182  -10.9578  -15.7349 C   0  0  2  0  0  0  0  0  0  0  0  0
   24.0490  -12.0863  -16.2814 N   0  0  0  0  0  0  0  0  0  0  0  0
   24.2301   -9.6732  -16.1819 C   0  0  0  0  0  0  0  0  0  0  0  0
   23.7738   -9.5661  -17.3364 O   0  0  0  0  0  0  0  0  0  0  0  0
   24.2083   -8.6133  -15.2787 O   0  0  0  0  0  0  0  0  0  0  0  0
  2  1  1  0
  3  2  1  0
  4  3  2  0
  5  3  1  0
  6  9  1  0
  6  5  1  0
  7  8  1  0
  6  7  1  1
  9 10  2  0
 11 12  1  0
 12 13  2  0
 14 12  1  0
 15 14  1  6
 16 15  1  0
 16  9  1  0
 17 19  1  0
 17 15  1  0
 18 17  2  0
M  END
$$$$
