GCN.pdb
     RDKit          3D

 19 18  0  0  1  0  0  0  0  0999 V2000
   17.7437  -15.1081  -15.6620 N   0  0  0  0  0  0  0  0  0  0  0  0
   17.2444  -13.7879  -15.3371 C   0  0  0  0  0  0  0  0  0  0  0  0
   18.1001  -12.7907  -16.0198 C   0  0  0  0  0  0  0  0  0  0  0  0
   18.5561  -13.0632  -17.1590 O   0  0  0  0  0  0  0  0  0  0  0  0
   18.4394  -11.5396  -15.4623 N   0  0  0  0  0  0  0  0  0  0  0  0
   19.1624  -10.5365  -16.2298 C   0  0  1  0  0  0  0  0  0  0  0  0
   18.2757   -9.4471  -16.7608 C   0  0  0  0  0  0  0  0  0  0  0  0
   19.1486   -8.0236  -17.4073 S   0  0  0  0  0  0  0  0  0  0  0  0
   20.3376  -10.0542  -15.4779 C   0  0  0  0  0  0  0  0  0  0  0  0
   20.2056   -9.6735  -14.2715 O   0  0  0  0  0  0  0  0  0  0  0  0
   26.2516  -10.6335  -15.1632 N   0  0  0  0  0  0  0  0  0  0  0  0
   25.2813   -9.6739  -15.5404 C   0  0  0  0  0  0  0  0  0  0  0  0
   25.5689   -8.4649  -15.4021 O   0  0  0  0  0  0  0  0  0  0  0  0
   23.9805  -10.0583  -16.0763 C   0  0  0  0  0  0  0  0  0  0  0  0
   22.7922   -9.4796  -15.3468 C   0  0  2  0  0  0  0  0  0  0  0  0
   21.6140  -10.0014  -16.0563 N   0  0  0  0  0  0  0  0  0  0  0  0
   22.7787   -7.9978  -15.3526 C   0  0  0  0  0  0  0  0  0  0  0  0
   22.7750   -7.3714  -14.2754 O   0  0  0  0  0  0  0  0  0  0  0  0
   22.7708   -7.3476  -16.5841 O   0  0  0  0  0  0  0  0  0  0  0  0
  2  1  1  0
  3  2  1  0
  4  3  2  0
  5  3  1  0
  6  9  1  0
  6  5  1  0
  7  8  1  0
  6  7  1  1
  9 10  2  0
 11 12  1  0
 12 13  2  0
 14 12  1  0
 15 14  1  6
 16 15  1  0
 16  9  1  0
 17 19  1  0
 17 15  1  0
 18 17  2  0
M  END
$$$$
