GCN.pdb
     RDKit          3D

 19 18  0  0  1  0  0  0  0  0999 V2000
   21.0205  -15.4233  -17.1961 N   0  0  0  0  0  0  0  0  0  0  0  0
   20.6890  -14.6654  -18.3850 C   0  0  0  0  0  0  0  0  0  0  0  0
   19.9952  -13.4270  -17.9635 C   0  0  0  0  0  0  0  0  0  0  0  0
   19.4380  -12.7176  -18.8390 O   0  0  0  0  0  0  0  0  0  0  0  0
   19.9217  -12.9895  -16.6240 N   0  0  0  0  0  0  0  0  0  0  0  0
   19.1668  -11.8019  -16.2527 C   0  0  1  0  0  0  0  0  0  0  0  0
   18.1695  -12.0544  -15.1588 C   0  0  0  0  0  0  0  0  0  0  0  0
   16.6400  -12.8095  -15.7037 S   0  0  0  0  0  0  0  0  0  0  0  0
   20.0755  -10.6666  -15.9995 C   0  0  0  0  0  0  0  0  0  0  0  0
   21.1983  -10.8667  -15.4363 O   0  0  0  0  0  0  0  0  0  0  0  0
   21.9471   -5.5129  -17.9576 N   0  0  0  0  0  0  0  0  0  0  0  0
   20.9247   -5.9025  -17.0591 C   0  0  0  0  0  0  0  0  0  0  0  0
   20.6103   -5.1050  -16.1487 O   0  0  0  0  0  0  0  0  0  0  0  0
   20.2444   -7.1876  -17.1712 C   0  0  0  0  0  0  0  0  0  0  0  0
   20.6244   -8.2057  -16.1232 C   0  0  2  0  0  0  0  0  0  0  0  0
   19.7389   -9.3551  -16.3648 N   0  0  0  0  0  0  0  0  0  0  0  0
   20.4456   -7.7032  -14.7406 C   0  0  0  0  0  0  0  0  0  0  0  0
   19.3201   -7.7370  -14.2071 O   0  0  0  0  0  0  0  0  0  0  0  0
   21.5624   -7.2028  -14.0759 O   0  0  0  0  0  0  0  0  0  0  0  0
  2  1  1  0
  3  2  1  0
  4  3  2  0
  5  3  1  0
  6  9  1  0
  6  5  1  0
  7  8  1  0
  6  7  1  1
  9 10  2  0
 11 12  1  0
 12 13  2  0
 14 12  1  0
 15 14  1  6
 16 15  1  0
 16  9  1  0
 17 19  1  0
 17 15  1  0
 18 17  2  0
M  END
$$$$
