ADN.pdb
     RDKit          3D

 22 21  0  0  1  0  0  0  0  0999 V2000
   25.5267  -16.5494  -21.2459 C   0  0  0  0  0  0  0  0  0  0  0  0
   24.6311  -16.6882  -20.0361 C   0  0  2  0  0  0  0  0  0  0  0  0
   24.8356  -15.6097  -19.0907 N   0  0  0  0  0  0  0  0  0  0  0  0
   24.8688  -18.0150  -19.4088 C   0  0  0  0  0  0  0  0  0  0  0  0
   24.6600  -19.1079  -19.9945 O   0  0  0  0  0  0  0  0  0  0  0  0
   25.3662  -18.1288  -18.0550 N   0  0  0  0  0  0  0  0  0  0  0  0
   25.5238  -19.3955  -17.3933 C   0  0  1  0  0  0  0  0  0  0  0  0
   26.9325  -19.6292  -16.9128 C   0  0  0  0  0  0  0  0  0  0  0  0
   27.1162  -20.9546  -16.2939 C   0  0  0  0  0  0  0  0  0  0  0  0
   26.7321  -21.2575  -15.1384 O   0  0  0  0  0  0  0  0  0  0  0  0
   24.5168  -19.5396  -16.3138 C   0  0  0  0  0  0  0  0  0  0  0  0
   24.4334  -18.7243  -15.3525 O   0  0  0  0  0  0  0  0  0  0  0  0
   27.7585  -21.9286  -17.0457 O   0  0  0  0  0  0  0  0  0  0  0  0
   21.0581  -20.8235  -12.8419 N   0  0  0  0  0  0  0  0  0  0  0  0
   21.2013  -19.5983  -13.5838 C   0  0  0  0  0  0  0  0  0  0  0  0
   20.3291  -18.6935  -13.3942 O   0  0  0  0  0  0  0  0  0  0  0  0
   22.3301  -19.4294  -14.5244 C   0  0  0  0  0  0  0  0  0  0  0  0
   22.4771  -20.6763  -15.3450 C   0  0  2  0  0  0  0  0  0  0  0  0
   23.5676  -20.6143  -16.2870 N   0  0  0  0  0  0  0  0  0  0  0  0
   21.2178  -21.1549  -15.9575 C   0  0  0  0  0  0  0  0  0  0  0  0
   20.2446  -21.8687  -15.2689 O   0  0  0  0  0  0  0  0  0  0  0  0
   20.9699  -20.9266  -17.1676 O   0  0  0  0  0  0  0  0  0  0  0  0
  2  1  1  6
  3  2  1  0
  4  6  1  0
  4  2  1  0
  5  4  2  0
  7  6  1  0
  7 11  1  0
  7  8  1  1
  9  8  1  0
 10  9  2  0
 11 19  1  0
 12 11  2  0
 13  9  1  0
 15 14  1  0
 16 15  2  0
 17 15  1  0
 18 20  1  0
 18 17  1  6
 19 18  1  0
 20 21  1  0
 22 20  2  0
M  END
$$$$
