ADN.pdb
     RDKit          3D

 22 21  0  0  1  0  0  0  0  0999 V2000
   20.0042  -10.8835  -14.9564 C   0  0  0  0  0  0  0  0  0  0  0  0
   18.7021  -10.5626  -15.6539 C   0  0  2  0  0  0  0  0  0  0  0  0
   18.9103  -10.2139  -17.0446 N   0  0  0  0  0  0  0  0  0  0  0  0
   18.0149   -9.4705  -14.9154 C   0  0  0  0  0  0  0  0  0  0  0  0
   18.2469   -8.2496  -15.1062 O   0  0  0  0  0  0  0  0  0  0  0  0
   17.0149   -9.7559  -13.9094 N   0  0  0  0  0  0  0  0  0  0  0  0
   16.2333   -8.7250  -13.2822 C   0  0  1  0  0  0  0  0  0  0  0  0
   14.8225   -9.1635  -12.9869 C   0  0  0  0  0  0  0  0  0  0  0  0
   13.9925   -8.0854  -12.4192 C   0  0  0  0  0  0  0  0  0  0  0  0
   14.4364   -6.9778  -12.0307 O   0  0  0  0  0  0  0  0  0  0  0  0
   16.9364   -8.2049  -12.0842 C   0  0  0  0  0  0  0  0  0  0  0  0
   17.8021   -8.8812  -11.4603 O   0  0  0  0  0  0  0  0  0  0  0  0
   12.6286   -8.3179  -12.3095 O   0  0  0  0  0  0  0  0  0  0  0  0
   19.0486   -5.4320   -8.4778 N   0  0  0  0  0  0  0  0  0  0  0  0
   19.7286   -5.8029   -9.6911 C   0  0  0  0  0  0  0  0  0  0  0  0
   20.9774   -5.5756   -9.7554 O   0  0  0  0  0  0  0  0  0  0  0  0
   18.9752   -6.4218  -10.8031 C   0  0  0  0  0  0  0  0  0  0  0  0
   17.5053   -6.2905  -10.5342 C   0  0  2  0  0  0  0  0  0  0  0  0
   16.6826   -6.8979  -11.5513 N   0  0  0  0  0  0  0  0  0  0  0  0
   17.0691   -4.9194  -10.1882 C   0  0  0  0  0  0  0  0  0  0  0  0
   16.6817   -3.9705  -11.1264 O   0  0  0  0  0  0  0  0  0  0  0  0
   17.0301   -4.5456   -8.9896 O   0  0  0  0  0  0  0  0  0  0  0  0
  2  1  1  1
  3  2  1  0
  4  6  1  0
  4  2  1  0
  5  4  2  0
  7  6  1  0
  7 11  1  0
  7  8  1  1
  9  8  1  0
 10  9  2  0
 11 19  1  0
 12 11  2  0
 13  9  1  0
 15 14  1  0
 16 15  2  0
 17 15  1  0
 18 20  1  0
 18 17  1  6
 19 18  1  0
 20 21  1  0
 22 20  2  0
M  END
$$$$
