RCD.pdb
     RDKit          3D

 26 25  0  0  1  0  0  0  0  0999 V2000
   27.9156  -22.3337  -19.2627 N   0  0  0  0  0  0  0  0  0  0  0  0
   27.4769  -23.5036  -19.9491 C   0  0  0  0  0  0  0  0  0  0  0  0
   27.9674  -23.8151  -21.0971 N   0  0  0  0  0  0  0  0  0  0  0  0
   26.4905  -24.3410  -19.3700 N   0  0  0  0  0  0  0  0  0  0  0  0
   25.9717  -24.0160  -18.0582 C   0  0  0  0  0  0  0  0  0  0  0  0
   26.8583  -24.5802  -16.9385 C   0  0  0  0  0  0  0  0  0  0  0  0
   26.1167  -24.3191  -15.6581 C   0  0  0  0  0  0  0  0  0  0  0  0
   25.5616  -22.9214  -15.5509 C   0  0  2  0  0  0  0  0  0  0  0  0
   26.7061  -22.0346  -15.4505 N   0  0  0  0  0  0  0  0  0  0  0  0
   24.6850  -22.6994  -14.4042 C   0  0  0  0  0  0  0  0  0  0  0  0
   23.6767  -23.4242  -14.1289 O   0  0  0  0  0  0  0  0  0  0  0  0
   27.6912  -24.6450  -21.6448 N   0  0  0  0  0  0  0  0  0  0  0  0
   24.9241  -21.6259  -13.5097 C   0  0  1  0  0  0  0  0  0  0  0  0
   24.0511  -21.4329  -12.3297 C   0  0  0  0  0  0  0  0  0  0  0  0
   24.7982  -20.4884  -11.3772 S   0  0  0  0  0  0  0  0  0  0  0  0
   25.4602  -21.4054   -9.9754 C   0  0  0  0  0  0  0  0  0  0  0  0
   22.8550  -20.6913  -12.8087 O   0  0  0  0  0  0  0  0  0  0  0  0
   22.9898  -19.4979  -13.2338 N   0  0  0  0  0  0  0  0  0  0  0  0
   21.5474  -21.2091  -12.8374 C   0  0  1  0  0  0  0  0  0  0  0  0
   20.4705  -20.4134  -13.3837 C   0  0  0  0  0  0  0  0  0  0  0  0
   20.0300  -20.8754  -14.7592 C   0  0  0  0  0  0  0  0  0  0  0  0
   19.2204  -19.8247  -15.3796 O   0  0  0  0  0  0  0  0  0  0  0  0
   19.0332  -18.7295  -14.7604 C   0  0  0  0  0  0  0  0  0  0  0  0
   19.3592  -20.4073  -12.4188 O   0  0  0  0  0  0  0  0  0  0  0  0
   18.5479  -19.4590  -12.3891 O   0  0  0  0  0  0  0  0  0  0  0  0
   18.6296  -19.9632  -16.6370 O   0  0  0  0  0  0  0  0  0  0  0  0
  2  1  1  0
  2  3  2  0
  4  2  1  0
  5  4  1  0
  6  5  1  0
  7  8  1  0
  7  6  1  0
  8 10  1  0
  8  9  1  1
 10 11  2  0
 12 13  1  0
 12 10  1  0
 13 16  1  0
 14 15  1  0
 13 14  1  1
 16 17  2  0
 18 19  1  0
 18 16  1  0
 19 23  1  0
 20 21  1  0
 19 20  1  1
 21 22  2  0
 23 24  2  0
 23 26  1  0
 25 21  1  0
M  END
$$$$
