RCD.pdb
     RDKit          3D

 26 25  0  0  1  0  0  0  0  0999 V2000
   29.8132  -26.0660  -16.5663 N   0  0  0  0  0  0  0  0  0  0  0  0
   29.7562  -25.0247  -17.5383 C   0  0  0  0  0  0  0  0  0  0  0  0
   30.2543  -25.1935  -18.7126 N   0  0  0  0  0  0  0  0  0  0  0  0
   29.1459  -23.7856  -17.2193 N   0  0  0  0  0  0  0  0  0  0  0  0
   28.1712  -23.7345  -16.1502 C   0  0  0  0  0  0  0  0  0  0  0  0
   26.8775  -24.4736  -16.5222 C   0  0  0  0  0  0  0  0  0  0  0  0
   25.9485  -24.2852  -15.3565 C   0  0  0  0  0  0  0  0  0  0  0  0
   25.4773  -22.8643  -15.1776 C   0  0  2  0  0  0  0  0  0  0  0  0
   26.6681  -22.0642  -14.9580 N   0  0  0  0  0  0  0  0  0  0  0  0
   24.5558  -22.6628  -14.0627 C   0  0  0  0  0  0  0  0  0  0  0  0
   23.4905  -23.3358  -13.8900 O   0  0  0  0  0  0  0  0  0  0  0  0
   30.3045  -24.4601  -19.4369 N   0  0  0  0  0  0  0  0  0  0  0  0
   24.8135  -21.6710  -13.0831 C   0  0  1  0  0  0  0  0  0  0  0  0
   23.8614  -21.4613  -11.9691 C   0  0  0  0  0  0  0  0  0  0  0  0
   24.6233  -20.7012  -10.8739 S   0  0  0  0  0  0  0  0  0  0  0  0
   25.9128  -21.7423  -10.1686 C   0  0  0  0  0  0  0  0  0  0  0  0
   22.8164  -20.5345  -12.4781 O   0  0  0  0  0  0  0  0  0  0  0  0
   23.1500  -19.5901  -13.2654 N   0  0  0  0  0  0  0  0  0  0  0  0
   21.4486  -20.6135  -12.1593 C   0  0  1  0  0  0  0  0  0  0  0  0
   20.4569  -20.2841  -13.1588 C   0  0  0  0  0  0  0  0  0  0  0  0
   20.6601  -21.0281  -14.4643 C   0  0  0  0  0  0  0  0  0  0  0  0
   19.5708  -20.6890  -15.3823 O   0  0  0  0  0  0  0  0  0  0  0  0
   19.1777  -19.4825  -15.4702 C   0  0  0  0  0  0  0  0  0  0  0  0
   19.1216  -20.5222  -12.5872 O   0  0  0  0  0  0  0  0  0  0  0  0
   18.9289  -21.4655  -11.7926 O   0  0  0  0  0  0  0  0  0  0  0  0
   18.9264  -21.6365  -16.1799 O   0  0  0  0  0  0  0  0  0  0  0  0
  2  1  1  0
  2  3  2  0
  4  2  1  0
  5  4  1  0
  6  5  1  0
  7  8  1  0
  7  6  1  0
  8 10  1  0
  8  9  1  1
 10 11  2  0
 12 13  1  0
 12 10  1  0
 13 16  1  0
 14 15  1  0
 13 14  1  1
 16 17  2  0
 18 19  1  0
 18 16  1  0
 19 23  1  0
 20 21  1  0
 19 20  1  1
 21 22  2  0
 23 24  2  0
 23 26  1  0
 25 21  1  0
M  END
$$$$
