RCD.pdb
     RDKit          3D

 26 25  0  0  1  0  0  0  0  0999 V2000
   29.7577  -25.2455  -16.3489 N   0  0  0  0  0  0  0  0  0  0  0  0
   29.6756  -24.3498  -17.4548 C   0  0  0  0  0  0  0  0  0  0  0  0
   30.5835  -24.3460  -18.3666 N   0  0  0  0  0  0  0  0  0  0  0  0
   28.5861  -23.4492  -17.5623 N   0  0  0  0  0  0  0  0  0  0  0  0
   28.0243  -22.8755  -16.3578 C   0  0  0  0  0  0  0  0  0  0  0  0
   27.5465  -23.9585  -15.3795 C   0  0  0  0  0  0  0  0  0  0  0  0
   26.0458  -23.8859  -15.3892 C   0  0  0  0  0  0  0  0  0  0  0  0
   25.4973  -22.5717  -14.8941 C   0  0  2  0  0  0  0  0  0  0  0  0
   26.2491  -22.2405  -13.6977 N   0  0  0  0  0  0  0  0  0  0  0  0
   24.0729  -22.5875  -14.5723 C   0  0  0  0  0  0  0  0  0  0  0  0
   23.2246  -23.3490  -15.1366 O   0  0  0  0  0  0  0  0  0  0  0  0
   30.5283  -23.8051  -19.2437 N   0  0  0  0  0  0  0  0  0  0  0  0
   23.5473  -21.7233  -13.5790 C   0  0  1  0  0  0  0  0  0  0  0  0
   22.1254  -21.8267  -13.1803 C   0  0  0  0  0  0  0  0  0  0  0  0
   22.0972  -21.8447  -11.6452 S   0  0  0  0  0  0  0  0  0  0  0  0
   23.1800  -20.5671  -10.9825 C   0  0  0  0  0  0  0  0  0  0  0  0
   21.4777  -20.5562  -13.6002 O   0  0  0  0  0  0  0  0  0  0  0  0
   22.0658  -19.4500  -13.3691 N   0  0  0  0  0  0  0  0  0  0  0  0
   20.2352  -20.4660  -14.2536 C   0  0  1  0  0  0  0  0  0  0  0  0
   19.6537  -19.1684  -14.5171 C   0  0  0  0  0  0  0  0  0  0  0  0
   19.5907  -18.8354  -15.9951 C   0  0  0  0  0  0  0  0  0  0  0  0
   18.8940  -17.5590  -16.1681 O   0  0  0  0  0  0  0  0  0  0  0  0
   19.4731  -16.4780  -15.8306 C   0  0  0  0  0  0  0  0  0  0  0  0
   18.3283  -19.1131  -13.8795 O   0  0  0  0  0  0  0  0  0  0  0  0
   17.8353  -20.1294  -13.3479 O   0  0  0  0  0  0  0  0  0  0  0  0
   17.6033  -17.4626  -16.6914 O   0  0  0  0  0  0  0  0  0  0  0  0
  2  1  1  0
  2  3  2  0
  4  2  1  0
  5  4  1  0
  6  5  1  0
  7  8  1  0
  7  6  1  0
  8 10  1  0
  8  9  1  1
 10 11  2  0
 12 13  1  0
 12 10  1  0
 13 16  1  0
 14 15  1  0
 13 14  1  1
 16 17  2  0
 18 19  1  0
 18 16  1  0
 19 23  1  0
 20 21  1  0
 19 20  1  1
 21 22  2  0
 23 24  2  0
 23 26  1  0
 25 21  1  0
M  END
$$$$
