RCD.pdb
     RDKit          3D

 26 25  0  0  1  0  0  0  0  0999 V2000
   19.0577  -27.8133  -14.9416 N   0  0  0  0  0  0  0  0  0  0  0  0
   17.7382  -27.9391  -15.4662 C   0  0  0  0  0  0  0  0  0  0  0  0
   17.5237  -28.5851  -16.5581 N   0  0  0  0  0  0  0  0  0  0  0  0
   16.6424  -27.3511  -14.7858 N   0  0  0  0  0  0  0  0  0  0  0  0
   16.8907  -26.5690  -13.5932 C   0  0  0  0  0  0  0  0  0  0  0  0
   16.9998  -27.4545  -12.3432 C   0  0  0  0  0  0  0  0  0  0  0  0
   16.9460  -26.5163  -11.1708 C   0  0  0  0  0  0  0  0  0  0  0  0
   18.2731  -25.8837  -10.8366 C   0  0  2  0  0  0  0  0  0  0  0  0
   19.2488  -26.4897  -11.7236 N   0  0  0  0  0  0  0  0  0  0  0  0
   18.7063  -26.0688   -9.4543 C   0  0  0  0  0  0  0  0  0  0  0  0
   19.3867  -27.0642   -9.0494 O   0  0  0  0  0  0  0  0  0  0  0  0
   16.6037  -28.6638  -17.0193 N   0  0  0  0  0  0  0  0  0  0  0  0
   18.3774  -25.1129   -8.4603 C   0  0  1  0  0  0  0  0  0  0  0  0
   18.8992  -25.2629   -7.0831 C   0  0  0  0  0  0  0  0  0  0  0  0
   19.5563  -23.9258   -6.7115 S   0  0  0  0  0  0  0  0  0  0  0  0
   18.6295  -22.5530   -7.4191 C   0  0  0  0  0  0  0  0  0  0  0  0
   17.7138  -25.4118   -6.1984 O   0  0  0  0  0  0  0  0  0  0  0  0
   16.6428  -24.7814   -6.4791 N   0  0  0  0  0  0  0  0  0  0  0  0
   17.6687  -26.2153   -5.0446 C   0  0  1  0  0  0  0  0  0  0  0  0
   16.5507  -26.1045   -4.1342 C   0  0  0  0  0  0  0  0  0  0  0  0
   15.5011  -27.1775   -4.3498 C   0  0  0  0  0  0  0  0  0  0  0  0
   14.4374  -27.0120   -3.3572 O   0  0  0  0  0  0  0  0  0  0  0  0
   14.1168  -25.8433   -2.9709 C   0  0  0  0  0  0  0  0  0  0  0  0
   17.0690  -26.1050   -2.7567 O   0  0  0  0  0  0  0  0  0  0  0  0
   18.2870  -26.2663   -2.5355 O   0  0  0  0  0  0  0  0  0  0  0  0
   13.7442  -28.0879   -2.7995 O   0  0  0  0  0  0  0  0  0  0  0  0
  2  1  1  0
  2  3  2  0
  4  2  1  0
  5  4  1  0
  6  5  1  0
  7  8  1  0
  7  6  1  0
  8 10  1  0
  8  9  1  6
 10 11  2  0
 12 13  1  0
 12 10  1  0
 13 16  1  0
 14 15  1  0
 13 14  1  6
 16 17  2  0
 18 19  1  0
 18 16  1  0
 19 23  1  0
 20 21  1  0
 19 20  1  1
 21 22  2  0
 23 24  2  0
 23 26  1  0
 25 21  1  0
M  END
$$$$
