RCD.pdb
     RDKit          3D

 26 25  0  0  1  0  0  0  0  0999 V2000
   22.2408  -12.7772  -23.8483 N   0  0  0  0  0  0  0  0  0  0  0  0
   22.9837  -13.5275  -22.8905 C   0  0  0  0  0  0  0  0  0  0  0  0
   24.1333  -14.0213  -23.1906 N   0  0  0  0  0  0  0  0  0  0  0  0
   22.4606  -13.7379  -21.5898 N   0  0  0  0  0  0  0  0  0  0  0  0
   21.1968  -13.1297  -21.2315 C   0  0  0  0  0  0  0  0  0  0  0  0
   20.6813  -13.6410  -19.8783 C   0  0  0  0  0  0  0  0  0  0  0  0
   20.6160  -12.4361  -18.9831 C   0  0  0  0  0  0  0  0  0  0  0  0
   21.4800  -12.5453  -17.7523 C   0  0  2  0  0  0  0  0  0  0  0  0
   21.3057  -13.8957  -17.2500 N   0  0  0  0  0  0  0  0  0  0  0  0
   21.1532  -11.5965  -16.6914 C   0  0  0  0  0  0  0  0  0  0  0  0
   20.0173  -11.5284  -16.1232 O   0  0  0  0  0  0  0  0  0  0  0  0
   24.7279  -14.5559  -22.5381 N   0  0  0  0  0  0  0  0  0  0  0  0
   22.1216  -10.6714  -16.2264 C   0  0  2  0  0  0  0  0  0  0  0  0
   21.7945   -9.7471  -15.1172 C   0  0  0  0  0  0  0  0  0  0  0  0
   22.7789  -10.0558  -13.9800 S   0  0  0  0  0  0  0  0  0  0  0  0
   22.5227   -8.9230  -12.6033 C   0  0  0  0  0  0  0  0  0  0  0  0
   22.1211   -8.3795  -15.5997 O   0  0  0  0  0  0  0  0  0  0  0  0
   23.1753   -8.1970  -16.2912 N   0  0  0  0  0  0  0  0  0  0  0  0
   21.3419   -7.2341  -15.3545 C   0  0  1  0  0  0  0  0  0  0  0  0
   21.7878   -5.9448  -15.8340 C   0  0  0  0  0  0  0  0  0  0  0  0
   20.7913   -5.2803  -16.7639 C   0  0  0  0  0  0  0  0  0  0  0  0
   21.3123   -3.9726  -17.1672 O   0  0  0  0  0  0  0  0  0  0  0  0
   20.8864   -2.9226  -16.5892 C   0  0  0  0  0  0  0  0  0  0  0  0
   22.1096   -5.1008  -14.6720 O   0  0  0  0  0  0  0  0  0  0  0  0
   22.5874   -3.9582  -14.8285 O   0  0  0  0  0  0  0  0  0  0  0  0
   22.2679   -3.8123  -18.1723 O   0  0  0  0  0  0  0  0  0  0  0  0
  2  1  1  0
  2  3  2  0
  4  2  1  0
  5  4  1  0
  6  5  1  0
  7  8  1  0
  7  6  1  0
  8 10  1  0
  8  9  1  1
 10 11  2  0
 12 13  1  0
 12 10  1  0
 13 16  1  0
 14 15  1  0
 13 14  1  1
 16 17  2  0
 18 19  1  0
 18 16  1  0
 19 23  1  0
 20 21  1  0
 19 20  1  1
 21 22  2  0
 23 24  2  0
 23 26  1  0
 25 21  1  0
M  END
$$$$
