RCD.pdb
     RDKit          3D

 26 25  0  0  1  0  0  0  0  0999 V2000
   12.6518  -12.2573   -8.4187 N   0  0  0  0  0  0  0  0  0  0  0  0
   11.7640  -12.1986   -9.5324 C   0  0  0  0  0  0  0  0  0  0  0  0
   10.5288  -12.5365   -9.4070 N   0  0  0  0  0  0  0  0  0  0  0  0
   12.2355  -11.7640  -10.7967 N   0  0  0  0  0  0  0  0  0  0  0  0
   13.2709  -10.7540  -10.8537 C   0  0  0  0  0  0  0  0  0  0  0  0
   13.7137  -10.4721  -12.2969 C   0  0  0  0  0  0  0  0  0  0  0  0
   14.8488   -9.4932  -12.1933 C   0  0  0  0  0  0  0  0  0  0  0  0
   14.4202   -8.0515  -12.2990 C   0  0  2  0  0  0  0  0  0  0  0  0
   13.9507   -7.8643  -13.6594 N   0  0  0  0  0  0  0  0  0  0  0  0
   15.4743   -7.0798  -12.0210 C   0  0  0  0  0  0  0  0  0  0  0  0
   16.0253   -6.3545  -12.9087 O   0  0  0  0  0  0  0  0  0  0  0  0
    9.8359  -12.5122  -10.1715 N   0  0  0  0  0  0  0  0  0  0  0  0
   15.9520   -6.8909  -10.6996 C   0  0  2  0  0  0  0  0  0  0  0  0
   16.9314   -5.8194  -10.4092 C   0  0  0  0  0  0  0  0  0  0  0  0
   16.9867   -5.6736   -8.8817 S   0  0  0  0  0  0  0  0  0  0  0  0
   15.4672   -4.9271   -8.2670 C   0  0  0  0  0  0  0  0  0  0  0  0
   18.2589   -6.3372  -10.8330 O   0  0  0  0  0  0  0  0  0  0  0  0
   18.5536   -7.5561  -10.6087 N   0  0  0  0  0  0  0  0  0  0  0  0
   19.2474   -5.5762  -11.4830 C   0  0  1  0  0  0  0  0  0  0  0  0
   20.3716   -6.2391  -12.1059 C   0  0  0  0  0  0  0  0  0  0  0  0
   19.9562   -7.2603  -13.1469 C   0  0  0  0  0  0  0  0  0  0  0  0
   21.1547   -7.7965  -13.7954 O   0  0  0  0  0  0  0  0  0  0  0  0
   22.3030   -7.4124  -13.4061 C   0  0  0  0  0  0  0  0  0  0  0  0
   21.2680   -5.2131  -12.6627 O   0  0  0  0  0  0  0  0  0  0  0  0
   22.3931   -5.5239  -13.1053 O   0  0  0  0  0  0  0  0  0  0  0  0
   21.1042   -8.7224  -14.8390 O   0  0  0  0  0  0  0  0  0  0  0  0
  2  1  1  0
  2  3  2  0
  4  2  1  0
  5  4  1  0
  6  5  1  0
  7  8  1  0
  7  6  1  0
  8 10  1  0
  8  9  1  6
 10 11  2  0
 12 13  1  0
 12 10  1  0
 13 16  1  0
 14 15  1  0
 13 14  1  6
 16 17  2  0
 18 19  1  0
 18 16  1  0
 19 23  1  0
 20 21  1  0
 19 20  1  1
 21 22  2  0
 23 24  2  0
 23 26  1  0
 25 21  1  0
M  END
$$$$
