RCD.pdb
     RDKit          3D

 26 25  0  0  1  0  0  0  0  0999 V2000
   21.3094  -19.3703  -19.0714 N   0  0  0  0  0  0  0  0  0  0  0  0
   20.1590  -19.0970  -19.8677 C   0  0  0  0  0  0  0  0  0  0  0  0
   19.6272  -20.0178  -20.5922 N   0  0  0  0  0  0  0  0  0  0  0  0
   19.5856  -17.8006  -19.8689 N   0  0  0  0  0  0  0  0  0  0  0  0
   20.0969  -16.8028  -18.9533 C   0  0  0  0  0  0  0  0  0  0  0  0
   19.6545  -17.0750  -17.5081 C   0  0  0  0  0  0  0  0  0  0  0  0
   20.2390  -15.9626  -16.6845 C   0  0  0  0  0  0  0  0  0  0  0  0
   21.7409  -15.8647  -16.7730 C   0  0  2  0  0  0  0  0  0  0  0  0
   22.2648  -17.0797  -16.1768 N   0  0  0  0  0  0  0  0  0  0  0  0
   22.3185  -14.7110  -16.0888 C   0  0  0  0  0  0  0  0  0  0  0  0
   21.9980  -14.3477  -14.9128 O   0  0  0  0  0  0  0  0  0  0  0  0
   18.7835  -19.8901  -21.1727 N   0  0  0  0  0  0  0  0  0  0  0  0
   23.3002  -13.9108  -16.7257 C   0  0  2  0  0  0  0  0  0  0  0  0
   23.8979  -12.7594  -16.0126 C   0  0  0  0  0  0  0  0  0  0  0  0
   25.2620  -12.4948  -16.6659 S   0  0  0  0  0  0  0  0  0  0  0  0
   26.4948  -13.6453  -16.0328 C   0  0  0  0  0  0  0  0  0  0  0  0
   23.0444  -11.5828  -16.3245 O   0  0  0  0  0  0  0  0  0  0  0  0
   22.4756  -11.5087  -17.4620 N   0  0  0  0  0  0  0  0  0  0  0  0
   22.7996  -10.5126  -15.4449 C   0  0  1  0  0  0  0  0  0  0  0  0
   21.8108   -9.5137  -15.7851 C   0  0  0  0  0  0  0  0  0  0  0  0
   20.4493  -10.1066  -16.0916 C   0  0  0  0  0  0  0  0  0  0  0  0
   19.4914   -9.0195  -16.3038 O   0  0  0  0  0  0  0  0  0  0  0  0
   19.8690   -7.9572  -16.8926 C   0  0  0  0  0  0  0  0  0  0  0  0
   21.7526   -8.5253  -14.6962 O   0  0  0  0  0  0  0  0  0  0  0  0
   21.0003   -7.5325  -14.7780 O   0  0  0  0  0  0  0  0  0  0  0  0
   18.1613   -9.0862  -15.8849 O   0  0  0  0  0  0  0  0  0  0  0  0
  2  1  1  0
  2  3  2  0
  4  2  1  0
  5  4  1  0
  6  5  1  0
  7  8  1  0
  7  6  1  0
  8 10  1  0
  8  9  1  1
 10 11  2  0
 12 13  1  0
 12 10  1  0
 13 16  1  0
 14 15  1  0
 13 14  1  1
 16 17  2  0
 18 19  1  0
 18 16  1  0
 19 23  1  0
 20 21  1  0
 19 20  1  6
 21 22  2  0
 23 24  2  0
 23 26  1  0
 25 21  1  0
M  END
$$$$
