RCD.pdb
     RDKit          3D

 26 25  0  0  1  0  0  0  0  0999 V2000
   18.3745  -23.4961  -15.5281 N   0  0  0  0  0  0  0  0  0  0  0  0
   17.2224  -22.7446  -15.1539 C   0  0  0  0  0  0  0  0  0  0  0  0
   16.0605  -23.0491  -15.6152 N   0  0  0  0  0  0  0  0  0  0  0  0
   17.3458  -21.6481  -14.2638 N   0  0  0  0  0  0  0  0  0  0  0  0
   18.6327  -21.0022  -14.1152 C   0  0  0  0  0  0  0  0  0  0  0  0
   19.7130  -21.9855  -13.6415 C   0  0  0  0  0  0  0  0  0  0  0  0
   20.9487  -21.1603  -13.4189 C   0  0  0  0  0  0  0  0  0  0  0  0
   21.5630  -21.3410  -12.0539 C   0  0  2  0  0  0  0  0  0  0  0  0
   20.6163  -20.7865  -11.1039 N   0  0  0  0  0  0  0  0  0  0  0  0
   22.8560  -20.6861  -11.8753 C   0  0  0  0  0  0  0  0  0  0  0  0
   23.0056  -19.5404  -11.3435 O   0  0  0  0  0  0  0  0  0  0  0  0
   15.1892  -22.5481  -15.3808 N   0  0  0  0  0  0  0  0  0  0  0  0
   24.0509  -21.3188  -12.3016 C   0  0  1  0  0  0  0  0  0  0  0  0
   25.2739  -20.5179  -12.5345 C   0  0  0  0  0  0  0  0  0  0  0  0
   26.3259  -21.0167  -11.5333 S   0  0  0  0  0  0  0  0  0  0  0  0
   25.5759  -22.1413  -10.3430 C   0  0  0  0  0  0  0  0  0  0  0  0
   25.7679  -20.8885  -13.8867 O   0  0  0  0  0  0  0  0  0  0  0  0
   25.3356  -21.9519  -14.4391 N   0  0  0  0  0  0  0  0  0  0  0  0
   26.6973  -20.1427  -14.6343 C   0  0  1  0  0  0  0  0  0  0  0  0
   27.0717  -20.5818  -15.9603 C   0  0  0  0  0  0  0  0  0  0  0  0
   27.6653  -19.4729  -16.8072 C   0  0  0  0  0  0  0  0  0  0  0  0
   26.7504  -19.1719  -17.9102 O   0  0  0  0  0  0  0  0  0  0  0  0
   25.6676  -19.8296  -18.0238 C   0  0  0  0  0  0  0  0  0  0  0  0
   27.9839  -21.7296  -15.8313 O   0  0  0  0  0  0  0  0  0  0  0  0
   28.6325  -21.9116  -14.7804 O   0  0  0  0  0  0  0  0  0  0  0  0
   27.0080  -18.1850  -18.8634 O   0  0  0  0  0  0  0  0  0  0  0  0
  2  1  1  0
  2  3  2  0
  4  2  1  0
  5  4  1  0
  6  5  1  0
  7  8  1  0
  7  6  1  0
  8 10  1  0
  8  9  1  1
 10 11  2  0
 12 13  1  0
 12 10  1  0
 13 16  1  0
 14 15  1  0
 13 14  1  1
 16 17  2  0
 18 19  1  0
 18 16  1  0
 19 23  1  0
 20 21  1  0
 19 20  1  6
 21 22  2  0
 23 24  2  0
 23 26  1  0
 25 21  1  0
M  END
$$$$
