QER.pdb
     RDKit          3D

 30 29  0  0  1  0  0  0  0  0999 V2000
   29.3778  -17.6807  -17.6663 N   0  0  0  0  0  0  0  0  0  0  0  0
   28.8307  -18.5913  -18.5942 C   0  0  0  0  0  0  0  0  0  0  0  0
   29.3282  -18.6042  -19.7601 O   0  0  0  0  0  0  0  0  0  0  0  0
   27.6955  -19.5140  -18.2087 C   0  0  0  0  0  0  0  0  0  0  0  0
   27.3429  -19.1874  -16.8017 C   0  0  0  0  0  0  0  0  0  0  0  0
   27.8147  -20.1339  -15.7536 C   0  0  2  0  0  0  0  0  0  0  0  0
   28.4082  -21.2753  -16.4858 N   0  0  0  0  0  0  0  0  0  0  0  0
   26.8168  -20.6538  -14.8333 C   0  0  0  0  0  0  0  0  0  0  0  0
   25.7517  -21.2077  -15.2863 O   0  0  0  0  0  0  0  0  0  0  0  0
   26.8717  -20.6284  -13.4127 N   0  0  0  0  0  0  0  0  0  0  0  0
   25.7546  -20.9936  -12.5709 C   0  0  1  0  0  0  0  0  0  0  0  0
   26.1330  -20.8356  -11.1227 C   0  0  0  0  0  0  0  0  0  0  0  0
   25.0080  -21.3071  -10.2511 C   0  0  0  0  0  0  0  0  0  0  0  0
   25.2716  -21.2088   -8.8072 C   0  0  0  0  0  0  0  0  0  0  0  0
   26.3429  -20.7580   -8.3606 O   0  0  0  0  0  0  0  0  0  0  0  0
   24.5434  -20.1511  -12.8900 C   0  0  0  0  0  0  0  0  0  0  0  0
   24.7502  -19.0038  -13.3427 O   0  0  0  0  0  0  0  0  0  0  0  0
   24.3067  -21.6273   -7.8864 O   0  0  0  0  0  0  0  0  0  0  0  0
   19.6274  -19.7559  -19.1654 N   0  0  0  0  0  0  0  0  0  0  0  0
   18.9702  -18.8406  -18.3016 C   0  0  0  0  0  0  0  0  0  0  0  0
   17.9313  -18.2217  -18.7673 N   0  0  0  0  0  0  0  0  0  0  0  0
   19.4047  -18.5893  -16.9729 N   0  0  0  0  0  0  0  0  0  0  0  0
   20.5971  -19.2178  -16.4376 C   0  0  0  0  0  0  0  0  0  0  0  0
   20.8375  -18.8236  -14.9983 C   0  0  0  0  0  0  0  0  0  0  0  0
   22.0695  -19.5277  -14.5172 C   0  0  0  0  0  0  0  0  0  0  0  0
   22.0403  -19.8347  -13.0359 C   0  0  2  0  0  0  0  0  0  0  0  0
   23.2259  -20.5890  -12.7053 N   0  0  0  0  0  0  0  0  0  0  0  0
   20.7991  -20.5436  -12.6269 C   0  0  0  0  0  0  0  0  0  0  0  0
   20.7134  -21.8080  -12.5808 O   0  0  0  0  0  0  0  0  0  0  0  0
   19.6510  -19.8511  -12.2686 O   0  0  0  0  0  0  0  0  0  0  0  0
  2  1  1  0
  2  3  2  0
  4  5  1  0
  4  2  1  0
  6  7  1  6
  6  5  1  0
  8  6  1  0
  9  8  2  0
 10  8  1  0
 11 10  1  0
 11 12  1  1
 13 12  1  0
 14 15  2  0
 14 13  1  0
 16 11  1  0
 16 17  2  0
 18 14  1  0
 20 19  1  0
 21 20  2  0
 22 20  1  0
 23 22  1  0
 24 25  1  0
 24 23  1  0
 26 25  1  6
 26 27  1  0
 27 16  1  0
 28 26  1  0
 29 28  2  0
 30 28  1  0
M  END
$$$$
