QER.pdb
     RDKit          3D

 30 29  0  0  1  0  0  0  0  0999 V2000
   21.6865  -20.7241   -9.1749 N   0  0  0  0  0  0  0  0  0  0  0  0
   22.6745  -20.8802   -8.1805 C   0  0  0  0  0  0  0  0  0  0  0  0
   22.3009  -20.8045   -6.9714 O   0  0  0  0  0  0  0  0  0  0  0  0
   24.1212  -21.1280   -8.5470 C   0  0  0  0  0  0  0  0  0  0  0  0
   24.1925  -21.1035  -10.0319 C   0  0  0  0  0  0  0  0  0  0  0  0
   25.5428  -20.9378  -10.6372 C   0  0  2  0  0  0  0  0  0  0  0  0
   26.2929  -20.0663   -9.7050 N   0  0  0  0  0  0  0  0  0  0  0  0
   25.6058  -20.3454  -11.9632 C   0  0  0  0  0  0  0  0  0  0  0  0
   25.0166  -19.2298  -12.1971 O   0  0  0  0  0  0  0  0  0  0  0  0
   26.2764  -20.8718  -13.1011 N   0  0  0  0  0  0  0  0  0  0  0  0
   26.2567  -20.2321  -14.3974 C   0  0  1  0  0  0  0  0  0  0  0  0
   27.3653  -20.7808  -15.2549 C   0  0  0  0  0  0  0  0  0  0  0  0
   27.3304  -20.1301  -16.6051 C   0  0  0  0  0  0  0  0  0  0  0  0
   28.3769  -20.5892  -17.5315 C   0  0  0  0  0  0  0  0  0  0  0  0
   29.2135  -21.4526  -17.2073 O   0  0  0  0  0  0  0  0  0  0  0  0
   24.9229  -20.4328  -15.0753 C   0  0  0  0  0  0  0  0  0  0  0  0
   24.3581  -21.5358  -14.9070 O   0  0  0  0  0  0  0  0  0  0  0  0
   28.4569  -20.0564  -18.8213 O   0  0  0  0  0  0  0  0  0  0  0  0
   17.0767  -17.7099  -16.9047 N   0  0  0  0  0  0  0  0  0  0  0  0
   17.4118  -18.3315  -15.6730 C   0  0  0  0  0  0  0  0  0  0  0  0
   16.4596  -18.9279  -15.0273 N   0  0  0  0  0  0  0  0  0  0  0  0
   18.7280  -18.3217  -15.1394 N   0  0  0  0  0  0  0  0  0  0  0  0
   19.8190  -17.6662  -15.8347 C   0  0  0  0  0  0  0  0  0  0  0  0
   20.7024  -18.6618  -16.5512 C   0  0  0  0  0  0  0  0  0  0  0  0
   22.0305  -18.6960  -15.8585 C   0  0  0  0  0  0  0  0  0  0  0  0
   23.0316  -19.6073  -16.5342 C   0  0  2  0  0  0  0  0  0  0  0  0
   24.3034  -19.4580  -15.8676 N   0  0  0  0  0  0  0  0  0  0  0  0
   23.1370  -19.3517  -17.9950 C   0  0  0  0  0  0  0  0  0  0  0  0
   23.9783  -18.5435  -18.4922 O   0  0  0  0  0  0  0  0  0  0  0  0
   22.3093  -19.9920  -18.9066 O   0  0  0  0  0  0  0  0  0  0  0  0
  2  1  1  0
  2  3  2  0
  4  5  1  0
  4  2  1  0
  6  7  1  1
  6  5  1  0
  8  6  1  0
  9  8  2  0
 10  8  1  0
 11 10  1  0
 11 12  1  6
 13 12  1  0
 14 15  2  0
 14 13  1  0
 16 11  1  0
 16 17  2  0
 18 14  1  0
 20 19  1  0
 21 20  2  0
 22 20  1  0
 23 22  1  0
 24 25  1  0
 24 23  1  0
 26 25  1  1
 26 27  1  0
 27 16  1  0
 28 26  1  0
 29 28  2  0
 30 28  1  0
M  END
$$$$
