QER.pdb
     RDKit          3D

 30 29  0  0  1  0  0  0  0  0999 V2000
   22.9984  -26.3673  -14.6456 N   0  0  0  0  0  0  0  0  0  0  0  0
   22.7112  -25.1457  -14.0017 C   0  0  0  0  0  0  0  0  0  0  0  0
   21.6237  -25.0702  -13.3546 O   0  0  0  0  0  0  0  0  0  0  0  0
   23.6659  -23.9750  -14.0829 C   0  0  0  0  0  0  0  0  0  0  0  0
   24.7736  -24.3928  -14.9823 C   0  0  0  0  0  0  0  0  0  0  0  0
   25.3220  -23.3559  -15.8995 C   0  0  2  0  0  0  0  0  0  0  0  0
   26.7565  -23.2374  -15.5543 N   0  0  0  0  0  0  0  0  0  0  0  0
   24.7274  -22.0311  -15.8322 C   0  0  0  0  0  0  0  0  0  0  0  0
   25.1033  -21.2036  -14.9265 O   0  0  0  0  0  0  0  0  0  0  0  0
   23.7259  -21.5015  -16.6913 N   0  0  0  0  0  0  0  0  0  0  0  0
   23.2045  -20.1589  -16.5654 C   0  0  1  0  0  0  0  0  0  0  0  0
   22.9110  -19.5948  -17.9297 C   0  0  0  0  0  0  0  0  0  0  0  0
   22.3703  -18.2029  -17.7963 C   0  0  0  0  0  0  0  0  0  0  0  0
   21.0277  -18.0121  -18.3665 C   0  0  0  0  0  0  0  0  0  0  0  0
   20.0094  -18.4902  -17.8326 O   0  0  0  0  0  0  0  0  0  0  0  0
   21.9580  -20.1443  -15.7141 C   0  0  0  0  0  0  0  0  0  0  0  0
   21.1651  -21.1022  -15.8476 O   0  0  0  0  0  0  0  0  0  0  0  0
   20.8618  -17.2756  -19.5430 O   0  0  0  0  0  0  0  0  0  0  0  0
   17.7428  -22.0787  -11.3831 N   0  0  0  0  0  0  0  0  0  0  0  0
   18.6048  -22.2646  -10.2703 C   0  0  0  0  0  0  0  0  0  0  0  0
   18.4966  -23.3748   -9.6108 N   0  0  0  0  0  0  0  0  0  0  0  0
   19.5612  -21.2948   -9.8677 N   0  0  0  0  0  0  0  0  0  0  0  0
   19.7747  -20.0823  -10.6343 C   0  0  0  0  0  0  0  0  0  0  0  0
   20.6612  -20.3290  -11.8335 C   0  0  0  0  0  0  0  0  0  0  0  0
   20.8759  -19.0233  -12.5363 C   0  0  0  0  0  0  0  0  0  0  0  0
   20.4634  -19.0552  -13.9917 C   0  0  2  0  0  0  0  0  0  0  0  0
   21.6572  -19.1263  -14.8004 N   0  0  0  0  0  0  0  0  0  0  0  0
   19.6079  -17.8980  -14.3652 C   0  0  0  0  0  0  0  0  0  0  0  0
   20.0805  -16.7518  -14.6317 O   0  0  0  0  0  0  0  0  0  0  0  0
   18.2269  -18.0104  -14.4434 O   0  0  0  0  0  0  0  0  0  0  0  0
  2  1  1  0
  2  3  2  0
  4  5  1  0
  4  2  1  0
  6  7  1  1
  6  5  1  0
  8  6  1  0
  9  8  2  0
 10  8  1  0
 11 10  1  0
 11 12  1  6
 13 12  1  0
 14 15  2  0
 14 13  1  0
 16 11  1  0
 16 17  2  0
 18 14  1  0
 20 19  1  0
 21 20  2  0
 22 20  1  0
 23 22  1  0
 24 25  1  0
 24 23  1  0
 26 25  1  1
 26 27  1  0
 27 16  1  0
 28 26  1  0
 29 28  2  0
 30 28  1  0
M  END
$$$$
