QER.pdb
     RDKit          3D

 30 29  0  0  1  0  0  0  0  0999 V2000
   27.4320  -20.9779  -10.1234 N   0  0  0  0  0  0  0  0  0  0  0  0
   28.7840  -20.9007  -10.5178 C   0  0  0  0  0  0  0  0  0  0  0  0
   29.6348  -21.5113   -9.8034 O   0  0  0  0  0  0  0  0  0  0  0  0
   29.1976  -20.1191  -11.7453 C   0  0  0  0  0  0  0  0  0  0  0  0
   27.9623  -19.4913  -12.2842 C   0  0  0  0  0  0  0  0  0  0  0  0
   27.1576  -20.3027  -13.2389 C   0  0  2  0  0  0  0  0  0  0  0  0
   28.0925  -20.6895  -14.3193 N   0  0  0  0  0  0  0  0  0  0  0  0
   26.0035  -19.6596  -13.8453 C   0  0  0  0  0  0  0  0  0  0  0  0
   25.7950  -18.4072  -13.6604 O   0  0  0  0  0  0  0  0  0  0  0  0
   25.0187  -20.2741  -14.6665 N   0  0  0  0  0  0  0  0  0  0  0  0
   23.7824  -19.6246  -15.0401 C   0  0  1  0  0  0  0  0  0  0  0  0
   23.7109  -19.4846  -16.5370 C   0  0  0  0  0  0  0  0  0  0  0  0
   22.4529  -18.7639  -16.9185 C   0  0  0  0  0  0  0  0  0  0  0  0
   22.2974  -18.5295  -18.3625 C   0  0  0  0  0  0  0  0  0  0  0  0
   22.9367  -17.6439  -18.9605 O   0  0  0  0  0  0  0  0  0  0  0  0
   22.5923  -20.4005  -14.5298 C   0  0  0  0  0  0  0  0  0  0  0  0
   22.5789  -21.6320  -14.7469 O   0  0  0  0  0  0  0  0  0  0  0  0
   21.4114  -19.3107  -19.1101 O   0  0  0  0  0  0  0  0  0  0  0  0
   20.8786  -21.9792   -8.5953 N   0  0  0  0  0  0  0  0  0  0  0  0
   19.4950  -22.2516   -8.4304 C   0  0  0  0  0  0  0  0  0  0  0  0
   19.1703  -23.2588   -7.6824 N   0  0  0  0  0  0  0  0  0  0  0  0
   18.4789  -21.4716   -9.0441 N   0  0  0  0  0  0  0  0  0  0  0  0
   18.8041  -20.3292   -9.8762 C   0  0  0  0  0  0  0  0  0  0  0  0
   18.8731  -20.7055  -11.3385 C   0  0  0  0  0  0  0  0  0  0  0  0
   20.1259  -20.1209  -11.9161 C   0  0  0  0  0  0  0  0  0  0  0  0
   20.3549  -20.5109  -13.3599 C   0  0  2  0  0  0  0  0  0  0  0  0
   21.5250  -19.8137  -13.8384 N   0  0  0  0  0  0  0  0  0  0  0  0
   19.1660  -20.2513  -14.2140 C   0  0  0  0  0  0  0  0  0  0  0  0
   18.0529  -20.8328  -14.0375 O   0  0  0  0  0  0  0  0  0  0  0  0
   19.2099  -19.3464  -15.2653 O   0  0  0  0  0  0  0  0  0  0  0  0
  2  1  1  0
  2  3  2  0
  4  5  1  0
  4  2  1  0
  6  7  1  6
  6  5  1  0
  8  6  1  0
  9  8  2  0
 10  8  1  0
 11 10  1  0
 11 12  1  6
 13 12  1  0
 14 15  2  0
 14 13  1  0
 16 11  1  0
 16 17  2  0
 18 14  1  0
 20 19  1  0
 21 20  2  0
 22 20  1  0
 23 22  1  0
 24 25  1  0
 24 23  1  0
 26 25  1  1
 26 27  1  0
 27 16  1  0
 28 26  1  0
 29 28  2  0
 30 28  1  0
M  END
$$$$
