QER.pdb
     RDKit          3D

 30 29  0  0  1  0  0  0  0  0999 V2000
   15.8204  -23.8073    1.8269 N   0  0  0  0  0  0  0  0  0  0  0  0
   15.5655  -23.5125    0.4713 C   0  0  0  0  0  0  0  0  0  0  0  0
   15.4905  -24.4895   -0.3329 O   0  0  0  0  0  0  0  0  0  0  0  0
   15.3894  -22.0856    0.0006 C   0  0  0  0  0  0  0  0  0  0  0  0
   15.5046  -21.2240    1.2069 C   0  0  0  0  0  0  0  0  0  0  0  0
   14.2577  -20.9880    1.9857 C   0  0  2  0  0  0  0  0  0  0  0  0
   13.4265  -20.0961    1.1462 N   0  0  0  0  0  0  0  0  0  0  0  0
   14.4015  -20.3749    3.2959 C   0  0  0  0  0  0  0  0  0  0  0  0
   14.3510  -19.0985    3.4169 O   0  0  0  0  0  0  0  0  0  0  0  0
   14.6007  -21.0455    4.5338 N   0  0  0  0  0  0  0  0  0  0  0  0
   14.6441  -20.3611    5.8064 C   0  0  1  0  0  0  0  0  0  0  0  0
   14.3803  -21.3377    6.9210 C   0  0  0  0  0  0  0  0  0  0  0  0
   14.2262  -20.5983    8.2160 C   0  0  0  0  0  0  0  0  0  0  0  0
   13.9173  -21.4520    9.3736 C   0  0  0  0  0  0  0  0  0  0  0  0
   12.9774  -22.2687    9.3598 O   0  0  0  0  0  0  0  0  0  0  0  0
   15.9789  -19.6855    6.0079 C   0  0  0  0  0  0  0  0  0  0  0  0
   16.9457  -20.1249    5.3475 O   0  0  0  0  0  0  0  0  0  0  0  0
   14.6867  -21.3639   10.5373 O   0  0  0  0  0  0  0  0  0  0  0  0
   17.8507  -11.7328    5.1373 N   0  0  0  0  0  0  0  0  0  0  0  0
   17.8187  -12.9786    4.4573 C   0  0  0  0  0  0  0  0  0  0  0  0
   17.5588  -12.9589    3.1879 N   0  0  0  0  0  0  0  0  0  0  0  0
   18.0589  -14.2174    5.1093 N   0  0  0  0  0  0  0  0  0  0  0  0
   18.2964  -14.2839    6.5385 C   0  0  0  0  0  0  0  0  0  0  0  0
   18.5438  -15.7026    6.9977 C   0  0  0  0  0  0  0  0  0  0  0  0
   17.3341  -16.5221    6.6662 C   0  0  0  0  0  0  0  0  0  0  0  0
   17.4408  -17.9576    7.1322 C   0  0  2  0  0  0  0  0  0  0  0  0
   16.1775  -18.6107    6.8837 N   0  0  0  0  0  0  0  0  0  0  0  0
   17.8495  -18.0633    8.5578 C   0  0  0  0  0  0  0  0  0  0  0  0
   19.0631  -18.0900    8.9246 O   0  0  0  0  0  0  0  0  0  0  0  0
   16.9125  -18.1399    9.5787 O   0  0  0  0  0  0  0  0  0  0  0  0
  2  1  1  0
  2  3  2  0
  4  5  1  0
  4  2  1  0
  6  7  1  6
  6  5  1  0
  8  6  1  0
  9  8  2  0
 10  8  1  0
 11 10  1  0
 11 12  1  1
 13 12  1  0
 14 15  2  0
 14 13  1  0
 16 11  1  0
 16 17  2  0
 18 14  1  0
 20 19  1  0
 21 20  2  0
 22 20  1  0
 23 22  1  0
 24 25  1  0
 24 23  1  0
 26 25  1  1
 26 27  1  0
 27 16  1  0
 28 26  1  0
 29 28  2  0
 30 28  1  0
M  END
$$$$
