QER.pdb
     RDKit          3D

 30 29  0  0  1  0  0  0  0  0999 V2000
   18.6854  -17.2617  -15.7698 N   0  0  0  0  0  0  0  0  0  0  0  0
   17.4108  -17.1500  -15.1760 C   0  0  0  0  0  0  0  0  0  0  0  0
   16.8803  -18.2123  -14.7320 O   0  0  0  0  0  0  0  0  0  0  0  0
   16.7089  -15.8137  -15.0754 C   0  0  0  0  0  0  0  0  0  0  0  0
   17.6257  -14.8072  -15.6729 C   0  0  0  0  0  0  0  0  0  0  0  0
   17.0670  -13.9456  -16.7511 C   0  0  2  0  0  0  0  0  0  0  0  0
   17.2327  -14.7171  -18.0034 N   0  0  0  0  0  0  0  0  0  0  0  0
   17.6771  -12.6395  -16.9378 C   0  0  0  0  0  0  0  0  0  0  0  0
   18.6765  -12.5048  -17.7312 O   0  0  0  0  0  0  0  0  0  0  0  0
   17.2862  -11.4197  -16.3206 N   0  0  0  0  0  0  0  0  0  0  0  0
   17.8521  -10.1371  -16.6738 C   0  0  1  0  0  0  0  0  0  0  0  0
   16.7963   -9.0687  -16.5771 C   0  0  0  0  0  0  0  0  0  0  0  0
   15.7452   -9.2999  -17.6208 C   0  0  0  0  0  0  0  0  0  0  0  0
   14.4064   -8.8094  -17.2583 C   0  0  0  0  0  0  0  0  0  0  0  0
   13.6208   -9.4838  -16.5666 O   0  0  0  0  0  0  0  0  0  0  0  0
   19.0203   -9.8006  -15.7789 C   0  0  0  0  0  0  0  0  0  0  0  0
   18.8815  -10.0161  -14.5549 O   0  0  0  0  0  0  0  0  0  0  0  0
   13.9781   -7.5509  -17.6904 O   0  0  0  0  0  0  0  0  0  0  0  0
   25.2773   -6.0674  -19.9646 N   0  0  0  0  0  0  0  0  0  0  0  0
   23.9443   -6.5016  -20.1883 C   0  0  0  0  0  0  0  0  0  0  0  0
   23.5436   -6.5886  -21.4176 N   0  0  0  0  0  0  0  0  0  0  0  0
   23.0570   -6.8377  -19.1313 N   0  0  0  0  0  0  0  0  0  0  0  0
   23.4335   -6.6531  -17.7430 C   0  0  0  0  0  0  0  0  0  0  0  0
   22.2899   -6.9719  -16.8075 C   0  0  0  0  0  0  0  0  0  0  0  0
   22.4533   -8.3820  -16.3282 C   0  0  0  0  0  0  0  0  0  0  0  0
   21.3297   -8.8377  -15.4232 C   0  0  2  0  0  0  0  0  0  0  0  0
   20.2275   -9.2689  -16.2498 N   0  0  0  0  0  0  0  0  0  0  0  0
   20.9192   -7.7875  -14.4541 C   0  0  0  0  0  0  0  0  0  0  0  0
   19.9896   -6.9584  -14.6920 O   0  0  0  0  0  0  0  0  0  0  0  0
   21.5394   -7.6553  -13.2196 O   0  0  0  0  0  0  0  0  0  0  0  0
  2  1  1  0
  2  3  2  0
  4  5  1  0
  4  2  1  0
  6  7  1  6
  6  5  1  0
  8  6  1  0
  9  8  2  0
 10  8  1  0
 11 10  1  0
 11 12  1  1
 13 12  1  0
 14 15  2  0
 14 13  1  0
 16 11  1  0
 16 17  2  0
 18 14  1  0
 20 19  1  0
 21 20  2  0
 22 20  1  0
 23 22  1  0
 24 25  1  0
 24 23  1  0
 26 25  1  6
 26 27  1  0
 27 16  1  0
 28 26  1  0
 29 28  2  0
 30 28  1  0
M  END
$$$$
