QER.pdb
     RDKit          3D

 30 29  0  0  1  0  0  0  0  0999 V2000
   13.2095  -10.1139  -15.9246 N   0  0  0  0  0  0  0  0  0  0  0  0
   13.3868  -11.4053  -16.4634 C   0  0  0  0  0  0  0  0  0  0  0  0
   12.6263  -11.7471  -17.4183 O   0  0  0  0  0  0  0  0  0  0  0  0
   14.4436  -12.3415  -15.9201 C   0  0  0  0  0  0  0  0  0  0  0  0
   15.0641  -11.6519  -14.7582 C   0  0  0  0  0  0  0  0  0  0  0  0
   16.5359  -11.4337  -14.8138 C   0  0  2  0  0  0  0  0  0  0  0  0
   17.1390  -12.7855  -14.8203 N   0  0  0  0  0  0  0  0  0  0  0  0
   17.1341  -10.6744  -13.7281 C   0  0  0  0  0  0  0  0  0  0  0  0
   17.2714  -11.2090  -12.5697 O   0  0  0  0  0  0  0  0  0  0  0  0
   17.6170   -9.3383  -13.7869 N   0  0  0  0  0  0  0  0  0  0  0  0
   18.1582   -8.6414  -12.6418 C   0  0  1  0  0  0  0  0  0  0  0  0
   19.2087   -7.6610  -13.0900 C   0  0  0  0  0  0  0  0  0  0  0  0
   20.4386   -8.4001  -13.5240 C   0  0  0  0  0  0  0  0  0  0  0  0
   21.5179   -7.5418  -14.0365 C   0  0  0  0  0  0  0  0  0  0  0  0
   22.4885   -8.0050  -14.6640 O   0  0  0  0  0  0  0  0  0  0  0  0
   17.0664   -7.9273  -11.8821 C   0  0  0  0  0  0  0  0  0  0  0  0
   15.8969   -8.0612  -12.3042 O   0  0  0  0  0  0  0  0  0  0  0  0
   21.4771   -6.1604  -13.8267 O   0  0  0  0  0  0  0  0  0  0  0  0
   10.8317   -9.5163   -7.5531 N   0  0  0  0  0  0  0  0  0  0  0  0
   11.0882   -8.2317   -7.0055 C   0  0  0  0  0  0  0  0  0  0  0  0
   10.3281   -7.8346   -6.0341 N   0  0  0  0  0  0  0  0  0  0  0  0
   12.1292   -7.3884   -7.4772 N   0  0  0  0  0  0  0  0  0  0  0  0
   13.2238   -7.9130   -8.2710 C   0  0  0  0  0  0  0  0  0  0  0  0
   14.2254   -6.8364   -8.6211 C   0  0  0  0  0  0  0  0  0  0  0  0
   15.2841   -7.4435   -9.4903 C   0  0  0  0  0  0  0  0  0  0  0  0
   16.2903   -6.4336   -9.9971 C   0  0  2  0  0  0  0  0  0  0  0  0
   17.3013   -7.1383  -10.7490 N   0  0  0  0  0  0  0  0  0  0  0  0
   16.8797   -5.6197   -8.9015 C   0  0  0  0  0  0  0  0  0  0  0  0
   16.2142   -4.7583   -8.2509 O   0  0  0  0  0  0  0  0  0  0  0  0
   18.2083   -5.7598   -8.5258 O   0  0  0  0  0  0  0  0  0  0  0  0
  2  1  1  0
  2  3  2  0
  4  5  1  0
  4  2  1  0
  6  7  1  1
  6  5  1  0
  8  6  1  0
  9  8  2  0
 10  8  1  0
 11 10  1  0
 11 12  1  6
 13 12  1  0
 14 15  2  0
 14 13  1  0
 16 11  1  0
 16 17  2  0
 18 14  1  0
 20 19  1  0
 21 20  2  0
 22 20  1  0
 23 22  1  0
 24 25  1  0
 24 23  1  0
 26 25  1  1
 26 27  1  0
 27 16  1  0
 28 26  1  0
 29 28  2  0
 30 28  1  0
M  END
$$$$
