NSS.pdb
     RDKit          3D

 21 20  0  0  1  0  0  0  0  0999 V2000
    8.8776  -12.7155   17.4710 N   0  0  0  0  0  0  0  0  0  0  0  0
    8.2069  -13.8239   18.0703 C   0  0  0  0  0  0  0  0  0  0  0  0
    8.0841  -14.8723   17.4020 O   0  0  0  0  0  0  0  0  0  0  0  0
    7.6692  -13.7327   19.4521 C   0  0  0  0  0  0  0  0  0  0  0  0
    8.6096  -14.4158   20.3900 C   0  0  2  0  0  0  0  0  0  0  0  0
    8.6503  -15.8204   20.0601 N   0  0  0  0  0  0  0  0  0  0  0  0
    8.2548  -14.2010   21.8128 C   0  0  0  0  0  0  0  0  0  0  0  0
    8.2366  -13.0648   22.3487 O   0  0  0  0  0  0  0  0  0  0  0  0
    6.9973  -17.4601   24.4171 O   0  0  0  0  0  0  0  0  0  0  0  0
    6.4990  -16.1587   24.3432 C   0  0  0  0  0  0  0  0  0  0  0  0
    7.5823  -15.1950   24.0181 C   0  0  2  0  0  0  0  0  0  0  0  0
    7.9189  -15.3274   22.6135 N   0  0  0  0  0  0  0  0  0  0  0  0
    8.7653  -15.2302   24.8532 C   0  0  0  0  0  0  0  0  0  0  0  0
    9.7786  -15.8391   24.4195 O   0  0  0  0  0  0  0  0  0  0  0  0
    8.5804  -13.5792   28.4280 O   0  0  0  0  0  0  0  0  0  0  0  0
    9.9119  -13.6342   28.0508 C   0  0  0  0  0  0  0  0  0  0  0  0
   10.0155  -14.7455   26.9984 C   0  0  2  0  0  0  0  0  0  0  0  0
    8.8900  -14.6335   26.1330 N   0  0  0  0  0  0  0  0  0  0  0  0
   10.1294  -16.0116   27.7074 C   0  0  0  0  0  0  0  0  0  0  0  0
    9.2598  -16.8974   27.5760 O   0  0  0  0  0  0  0  0  0  0  0  0
   11.1996  -16.2603   28.5394 O   0  0  0  0  0  0  0  0  0  0  0  0
  2  3  2  0
  2  1  1  0
  4  2  1  0
  5  7  1  0
  5  4  1  0
  5  6  1  6
  7  8  2  0
 10  9  1  0
 11 10  1  1
 11 13  1  0
 12 11  1  0
 12  7  1  0
 13 14  2  0
 13 18  1  0
 15 16  1  0
 17 16  1  1
 17 19  1  0
 18 17  1  0
 19 20  2  0
 19 21  1  0
M  END
$$$$
