NSS.pdb
     RDKit          3D

 21 20  0  0  1  0  0  0  0  0999 V2000
   12.1250  -17.5936   10.6717 N   0  0  0  0  0  0  0  0  0  0  0  0
   10.7527  -17.2838   10.9130 C   0  0  0  0  0  0  0  0  0  0  0  0
   10.1497  -16.5788   10.0762 O   0  0  0  0  0  0  0  0  0  0  0  0
   10.0601  -17.7866   12.1272 C   0  0  0  0  0  0  0  0  0  0  0  0
   11.0223  -18.5829   12.9460 C   0  0  2  0  0  0  0  0  0  0  0  0
   10.8750  -19.9774   12.6037 N   0  0  0  0  0  0  0  0  0  0  0  0
   10.8563  -18.3594   14.4017 C   0  0  0  0  0  0  0  0  0  0  0  0
   11.0469  -17.2443   14.9482 O   0  0  0  0  0  0  0  0  0  0  0  0
    9.2379  -21.4095   16.8938 O   0  0  0  0  0  0  0  0  0  0  0  0
    9.1207  -20.0356   17.1084 C   0  0  0  0  0  0  0  0  0  0  0  0
   10.3468  -19.3241   16.6630 C   0  0  2  0  0  0  0  0  0  0  0  0
   10.4638  -19.4521   15.2230 N   0  0  0  0  0  0  0  0  0  0  0  0
   11.5857  -19.6698   17.3292 C   0  0  0  0  0  0  0  0  0  0  0  0
   12.4382  -20.3368   16.6857 O   0  0  0  0  0  0  0  0  0  0  0  0
   14.4354  -18.4374   20.7235 O   0  0  0  0  0  0  0  0  0  0  0  0
   13.1663  -18.9904   20.6811 C   0  0  0  0  0  0  0  0  0  0  0  0
   13.0827  -19.7755   19.3658 C   0  0  2  0  0  0  0  0  0  0  0  0
   11.9327  -19.3216   18.6588 N   0  0  0  0  0  0  0  0  0  0  0  0
   13.0865  -21.1922   19.6999 C   0  0  0  0  0  0  0  0  0  0  0  0
   12.0198  -21.7946   19.9393 O   0  0  0  0  0  0  0  0  0  0  0  0
   14.2677  -21.8997   19.7593 O   0  0  0  0  0  0  0  0  0  0  0  0
  2  3  2  0
  2  1  1  0
  4  2  1  0
  5  7  1  0
  5  4  1  0
  5  6  1  1
  7  8  2  0
 10  9  1  0
 11 10  1  1
 11 13  1  0
 12 11  1  0
 12  7  1  0
 13 14  2  0
 13 18  1  0
 15 16  1  0
 17 16  1  1
 17 19  1  0
 18 17  1  0
 19 20  2  0
 19 21  1  0
M  END
$$$$
