NSS.pdb
     RDKit          3D

 21 20  0  0  1  0  0  0  0  0999 V2000
   11.2818  -17.7701   11.6393 N   0  0  0  0  0  0  0  0  0  0  0  0
   12.3076  -17.7977   12.6314 C   0  0  0  0  0  0  0  0  0  0  0  0
   13.4877  -17.9662   12.2571 O   0  0  0  0  0  0  0  0  0  0  0  0
   11.9804  -17.6305   14.0707 C   0  0  0  0  0  0  0  0  0  0  0  0
   11.6182  -16.2047   14.3286 C   0  0  2  0  0  0  0  0  0  0  0  0
   12.1517  -15.3932   13.2608 N   0  0  0  0  0  0  0  0  0  0  0  0
   12.0769  -15.7289   15.6551 C   0  0  0  0  0  0  0  0  0  0  0  0
   12.9507  -14.8374   15.7969 O   0  0  0  0  0  0  0  0  0  0  0  0
    9.9243  -16.8916   19.0732 O   0  0  0  0  0  0  0  0  0  0  0  0
   10.5672  -15.6622   18.9235 C   0  0  0  0  0  0  0  0  0  0  0  0
   11.8279  -15.8148   18.1519 C   0  0  2  0  0  0  0  0  0  0  0  0
   11.5066  -16.3031   16.8245 N   0  0  0  0  0  0  0  0  0  0  0  0
   12.8824  -16.5964   18.7644 C   0  0  0  0  0  0  0  0  0  0  0  0
   13.0802  -17.7636   18.3353 O   0  0  0  0  0  0  0  0  0  0  0  0
   14.9702  -14.9655   21.6787 O   0  0  0  0  0  0  0  0  0  0  0  0
   15.7260  -15.9811   21.1167 C   0  0  0  0  0  0  0  0  0  0  0  0
   14.7304  -16.9438   20.4567 C   0  0  2  0  0  0  0  0  0  0  0  0
   13.7254  -16.1623   19.8182 N   0  0  0  0  0  0  0  0  0  0  0  0
   14.2489  -17.8512   21.4879 C   0  0  0  0  0  0  0  0  0  0  0  0
   13.0676  -17.7947   21.8872 O   0  0  0  0  0  0  0  0  0  0  0  0
   15.0864  -18.7927   22.0461 O   0  0  0  0  0  0  0  0  0  0  0  0
  2  3  2  0
  2  1  1  0
  4  2  1  0
  5  7  1  0
  5  4  1  0
  5  6  1  6
  7  8  2  0
 10  9  1  0
 11 10  1  1
 11 13  1  0
 12 11  1  0
 12  7  1  0
 13 14  2  0
 13 18  1  0
 15 16  1  0
 17 16  1  1
 17 19  1  0
 18 17  1  0
 19 20  2  0
 19 21  1  0
M  END
$$$$
