NSS.pdb
     RDKit          3D

 21 20  0  0  1  0  0  0  0  0999 V2000
   16.4972  -14.2251   16.9140 N   0  0  0  0  0  0  0  0  0  0  0  0
   15.9552  -15.5425   17.0042 C   0  0  0  0  0  0  0  0  0  0  0  0
   16.6953  -16.5073   16.7171 O   0  0  0  0  0  0  0  0  0  0  0  0
   14.5483  -15.7604   17.4283 C   0  0  0  0  0  0  0  0  0  0  0  0
   13.9898  -14.4777   17.9513 C   0  0  2  0  0  0  0  0  0  0  0  0
   14.9907  -13.4474   17.8094 N   0  0  0  0  0  0  0  0  0  0  0  0
   13.5174  -14.5884   19.3517 C   0  0  0  0  0  0  0  0  0  0  0  0
   14.2520  -14.3471   20.3419 O   0  0  0  0  0  0  0  0  0  0  0  0
    9.6244  -15.4522   22.1324 O   0  0  0  0  0  0  0  0  0  0  0  0
   10.1698  -15.2423   20.8653 C   0  0  0  0  0  0  0  0  0  0  0  0
   11.6507  -15.1424   20.9366 C   0  0  2  0  0  0  0  0  0  0  0  0
   12.1732  -14.9851   19.5927 N   0  0  0  0  0  0  0  0  0  0  0  0
   12.3458  -16.1889   21.6574 C   0  0  0  0  0  0  0  0  0  0  0  0
   12.3979  -17.3337   21.1356 O   0  0  0  0  0  0  0  0  0  0  0  0
   14.9513  -15.3285   24.4031 O   0  0  0  0  0  0  0  0  0  0  0  0
   15.0307  -16.6486   23.9916 C   0  0  0  0  0  0  0  0  0  0  0  0
   13.5965  -17.0848   23.6657 C   0  0  2  0  0  0  0  0  0  0  0  0
   12.9827  -16.0414   22.9153 N   0  0  0  0  0  0  0  0  0  0  0  0
   12.9414  -17.4124   24.9235 C   0  0  0  0  0  0  0  0  0  0  0  0
   11.9092  -16.8089   25.2819 O   0  0  0  0  0  0  0  0  0  0  0  0
   13.4462  -18.3959   25.7464 O   0  0  0  0  0  0  0  0  0  0  0  0
  2  3  2  0
  2  1  1  0
  4  2  1  0
  5  7  1  0
  5  4  1  0
  5  6  1  1
  7  8  2  0
 10  9  1  0
 11 10  1  6
 11 13  1  0
 12 11  1  0
 12  7  1  0
 13 14  2  0
 13 18  1  0
 15 16  1  0
 17 16  1  1
 17 19  1  0
 18 17  1  0
 19 20  2  0
 19 21  1  0
M  END
$$$$
