NSS.pdb
     RDKit          3D

 21 20  0  0  1  0  0  0  0  0999 V2000
   -3.7542  -29.0395   27.8363 N   0  0  0  0  0  0  0  0  0  0  0  0
   -4.4296  -28.9000   29.0860 C   0  0  0  0  0  0  0  0  0  0  0  0
   -4.1455  -29.6984   30.0040 O   0  0  0  0  0  0  0  0  0  0  0  0
   -5.4437  -27.8336   29.2892 C   0  0  0  0  0  0  0  0  0  0  0  0
   -4.7472  -26.5373   29.5441 C   0  0  2  0  0  0  0  0  0  0  0  0
   -3.5626  -26.7965   30.3269 N   0  0  0  0  0  0  0  0  0  0  0  0
   -5.6232  -25.5363   30.1978 C   0  0  0  0  0  0  0  0  0  0  0  0
   -5.8811  -25.5529   31.4273 O   0  0  0  0  0  0  0  0  0  0  0  0
   -7.4271  -22.5093   27.8470 O   0  0  0  0  0  0  0  0  0  0  0  0
   -6.9645  -22.2614   29.1400 C   0  0  0  0  0  0  0  0  0  0  0  0
   -7.0544  -23.4852   29.9779 C   0  0  2  0  0  0  0  0  0  0  0  0
   -6.2011  -24.5079   29.4035 N   0  0  0  0  0  0  0  0  0  0  0  0
   -8.3813  -23.9953   30.2557 C   0  0  0  0  0  0  0  0  0  0  0  0
   -8.7978  -24.9668   29.5713 O   0  0  0  0  0  0  0  0  0  0  0  0
  -11.6887  -25.6959   32.6774 O   0  0  0  0  0  0  0  0  0  0  0  0
  -10.4187  -25.1727   32.4990 C   0  0  0  0  0  0  0  0  0  0  0  0
  -10.5701  -23.9980   31.5241 C   0  0  2  0  0  0  0  0  0  0  0  0
   -9.2681  -23.4945   31.2417 N   0  0  0  0  0  0  0  0  0  0  0  0
  -11.4873  -23.0426   32.1280 C   0  0  0  0  0  0  0  0  0  0  0  0
  -11.0666  -21.9711   32.6107 O   0  0  0  0  0  0  0  0  0  0  0  0
  -12.8402  -23.2999   32.1803 O   0  0  0  0  0  0  0  0  0  0  0  0
  2  3  2  0
  2  1  1  0
  4  2  1  0
  5  7  1  0
  5  4  1  0
  5  6  1  1
  7  8  2  0
 10  9  1  0
 11 10  1  6
 11 13  1  0
 12 11  1  0
 12  7  1  0
 13 14  2  0
 13 18  1  0
 15 16  1  0
 17 16  1  1
 17 19  1  0
 18 17  1  0
 19 20  2  0
 19 21  1  0
M  END
$$$$
