NSS.pdb
     RDKit          3D

 21 20  0  0  1  0  0  0  0  0999 V2000
   14.1823  -17.5861   16.8082 N   0  0  0  0  0  0  0  0  0  0  0  0
   14.4873  -16.2829   17.3043 C   0  0  0  0  0  0  0  0  0  0  0  0
   15.2048  -15.5369   16.6047 O   0  0  0  0  0  0  0  0  0  0  0  0
   13.9651  -15.8261   18.6179 C   0  0  0  0  0  0  0  0  0  0  0  0
   12.5665  -15.3317   18.4443 C   0  0  2  0  0  0  0  0  0  0  0  0
   12.5817  -14.2190   17.5251 N   0  0  0  0  0  0  0  0  0  0  0  0
   11.9251  -14.9671   19.7297 C   0  0  0  0  0  0  0  0  0  0  0  0
   12.4590  -14.1959   20.5654 O   0  0  0  0  0  0  0  0  0  0  0  0
    7.9890  -16.3402   20.5904 O   0  0  0  0  0  0  0  0  0  0  0  0
    8.4842  -15.0870   20.9531 C   0  0  0  0  0  0  0  0  0  0  0  0
    9.9380  -15.1588   21.2522 C   0  0  2  0  0  0  0  0  0  0  0  0
   10.6477  -15.5112   20.0373 N   0  0  0  0  0  0  0  0  0  0  0  0
   10.3395  -15.9965   22.3636 C   0  0  0  0  0  0  0  0  0  0  0  0
   11.0311  -17.0190   22.1151 O   0  0  0  0  0  0  0  0  0  0  0  0
   10.3528  -14.8559   26.2499 O   0  0  0  0  0  0  0  0  0  0  0  0
    9.6737  -16.0504   26.0756 C   0  0  0  0  0  0  0  0  0  0  0  0
   10.2366  -16.6828   24.7963 C   0  0  2  0  0  0  0  0  0  0  0  0
   10.0211  -15.7683   23.7260 N   0  0  0  0  0  0  0  0  0  0  0  0
    9.6056  -17.9847   24.6367 C   0  0  0  0  0  0  0  0  0  0  0  0
    8.8667  -18.2204   23.6585 O   0  0  0  0  0  0  0  0  0  0  0  0
    9.8098  -18.9857   25.5616 O   0  0  0  0  0  0  0  0  0  0  0  0
  2  3  2  0
  2  1  1  0
  4  2  1  0
  5  7  1  0
  5  4  1  0
  5  6  1  6
  7  8  2  0
 10  9  1  0
 11 10  1  6
 11 13  1  0
 12 11  1  0
 12  7  1  0
 13 14  2  0
 13 18  1  0
 15 16  1  0
 17 16  1  1
 17 19  1  0
 18 17  1  0
 19 20  2  0
 19 21  1  0
M  END
$$$$
