NSS.pdb
     RDKit          3D

 21 20  0  0  1  0  0  0  0  0999 V2000
    6.0354  -12.9721   17.4889 N   0  0  0  0  0  0  0  0  0  0  0  0
    7.2765  -13.4849   17.0052 C   0  0  0  0  0  0  0  0  0  0  0  0
    7.2517  -14.2893   16.0496 O   0  0  0  0  0  0  0  0  0  0  0  0
    8.5636  -13.0729   17.6221 C   0  0  0  0  0  0  0  0  0  0  0  0
    9.3865  -14.2884   17.8973 C   0  0  2  0  0  0  0  0  0  0  0  0
    8.5047  -15.4250   18.0154 N   0  0  0  0  0  0  0  0  0  0  0  0
   10.2448  -14.1386   19.0963 C   0  0  0  0  0  0  0  0  0  0  0  0
   11.1590  -13.2809   19.1796 O   0  0  0  0  0  0  0  0  0  0  0  0
   10.8324  -15.3511   23.7274 O   0  0  0  0  0  0  0  0  0  0  0  0
   10.0750  -15.4136   22.5571 C   0  0  0  0  0  0  0  0  0  0  0  0
   10.8681  -14.9518   21.3884 C   0  0  2  0  0  0  0  0  0  0  0  0
   10.0293  -15.0013   20.2062 N   0  0  0  0  0  0  0  0  0  0  0  0
   12.1433  -15.6004   21.1621 C   0  0  0  0  0  0  0  0  0  0  0  0
   12.1380  -16.7898   20.7490 O   0  0  0  0  0  0  0  0  0  0  0  0
   14.7664  -14.0585   19.5052 O   0  0  0  0  0  0  0  0  0  0  0  0
   15.5856  -14.7291   20.3983 C   0  0  0  0  0  0  0  0  0  0  0  0
   14.6720  -15.6630   21.2025 C   0  0  2  0  0  0  0  0  0  0  0  0
   13.4164  -15.0110   21.3659 N   0  0  0  0  0  0  0  0  0  0  0  0
   15.3642  -15.9953   22.4390 C   0  0  0  0  0  0  0  0  0  0  0  0
   14.8629  -15.7132   23.5469 O   0  0  0  0  0  0  0  0  0  0  0  0
   16.5880  -16.6285   22.4141 O   0  0  0  0  0  0  0  0  0  0  0  0
  2  3  2  0
  2  1  1  0
  4  2  1  0
  5  7  1  0
  5  4  1  0
  5  6  1  1
  7  8  2  0
 10  9  1  0
 11 10  1  1
 11 13  1  0
 12 11  1  0
 12  7  1  0
 13 14  2  0
 13 18  1  0
 15 16  1  0
 17 16  1  6
 17 19  1  0
 18 17  1  0
 19 20  2  0
 19 21  1  0
M  END
$$$$
