FLI.pdb
     RDKit          3D

 28 28  0  0  1  0  0  0  0  0999 V2000
   27.8707  -20.1437  -15.4626 N   0  0  0  0  0  0  0  0  0  0  0  0
   26.9869  -19.3402  -14.6445 C   0  0  1  0  0  0  0  0  0  0  0  0
   26.2259  -18.4251  -15.5748 C   0  0  0  0  0  0  0  0  0  0  0  0
   27.1409  -17.3068  -15.9304 C   0  0  0  0  0  0  0  0  0  0  0  0
   27.6965  -17.1715  -17.1877 C   0  0  0  0  0  0  0  0  0  0  0  0
   28.5507  -16.1133  -17.4925 C   0  0  0  0  0  0  0  0  0  0  0  0
   28.8612  -15.1669  -16.5274 C   0  0  0  0  0  0  0  0  0  0  0  0
   28.3204  -15.2901  -15.2874 C   0  0  0  0  0  0  0  0  0  0  0  0
   27.4807  -16.3381  -15.0026 C   0  0  0  0  0  0  0  0  0  0  0  0
   26.1226  -20.1928  -13.8306 C   0  0  0  0  0  0  0  0  0  0  0  0
   25.6944  -21.2611  -14.3436 O   0  0  0  0  0  0  0  0  0  0  0  0
   26.7463  -22.0804   -9.8727 C   0  0  0  0  0  0  0  0  0  0  0  0
   26.2622  -20.6152   -9.7108 C   0  0  2  0  0  0  0  0  0  0  0  0
   26.2665  -20.3782   -8.2325 C   0  0  0  0  0  0  0  0  0  0  0  0
   24.9325  -20.5793  -10.3445 C   0  0  0  0  0  0  0  0  0  0  0  0
   24.8441  -20.8055  -11.8162 C   0  0  2  0  0  0  0  0  0  0  0  0
   25.7259  -19.9153  -12.5084 N   0  0  0  0  0  0  0  0  0  0  0  0
   23.4578  -20.4696  -12.2991 C   0  0  0  0  0  0  0  0  0  0  0  0
   23.0576  -19.2833  -12.4546 O   0  0  0  0  0  0  0  0  0  0  0  0
   19.4334  -21.7857  -16.4902 C   0  0  0  0  0  0  0  0  0  0  0  0
   19.6272  -21.3102  -15.0664 C   0  0  0  0  0  0  0  0  0  0  0  0
   21.0012  -21.6852  -14.5531 C   0  0  2  0  0  0  0  0  0  0  0  0
   21.2382  -23.1647  -14.6624 C   0  0  0  0  0  0  0  0  0  0  0  0
   21.2112  -21.1527  -13.1682 C   0  0  2  0  0  0  0  0  0  0  0  0
   22.5073  -21.4810  -12.6117 N   0  0  0  0  0  0  0  0  0  0  0  0
   20.1933  -21.7459  -12.2609 C   0  0  0  0  0  0  0  0  0  0  0  0
   19.0315  -21.2414  -12.1546 O   0  0  0  0  0  0  0  0  0  0  0  0
   20.4377  -22.8709  -11.4821 O   0  0  0  0  0  0  0  0  0  0  0  0
  2  1  1  6
  3  4  1  0
  3  2  1  0
  4  9  2  0
  5  4  1  0
  5  6  2  0
  6  7  1  0
  7  8  2  0
  9  8  1  0
 10 17  1  0
 10  2  1  0
 11 10  2  0
 13 12  1  1
 13 15  1  0
 14 13  1  0
 16 15  1  1
 16 17  1  0
 18 16  1  0
 19 18  2  0
 20 21  1  0
 21 22  1  0
 22 24  1  0
 22 23  1  1
 24 26  1  0
 24 25  1  1
 25 18  1  0
 26 28  1  0
 27 26  2  0
M  END
$$$$
