FLI.pdb
     RDKit          3D

 28 28  0  0  1  0  0  0  0  0999 V2000
   23.2507  -20.6426  -10.2360 N   0  0  0  0  0  0  0  0  0  0  0  0
   23.6636  -21.1600  -11.5234 C   0  0  1  0  0  0  0  0  0  0  0  0
   22.5258  -20.9187  -12.4875 C   0  0  0  0  0  0  0  0  0  0  0  0
   21.4431  -21.8756  -12.1317 C   0  0  0  0  0  0  0  0  0  0  0  0
   21.5195  -23.2248  -12.4173 C   0  0  0  0  0  0  0  0  0  0  0  0
   20.4896  -24.0980  -12.0720 C   0  0  0  0  0  0  0  0  0  0  0  0
   19.3573  -23.6218  -11.4283 C   0  0  0  0  0  0  0  0  0  0  0  0
   19.2716  -22.2966  -11.1426 C   0  0  0  0  0  0  0  0  0  0  0  0
   20.2944  -21.4491  -11.4892 C   0  0  0  0  0  0  0  0  0  0  0  0
   24.9226  -20.5484  -11.9439 C   0  0  0  0  0  0  0  0  0  0  0  0
   24.9618  -19.2938  -12.0552 O   0  0  0  0  0  0  0  0  0  0  0  0
   28.8378  -19.9974  -10.0699 C   0  0  0  0  0  0  0  0  0  0  0  0
   28.6048  -21.4174  -10.6500 C   0  0  2  0  0  0  0  0  0  0  0  0
   29.7935  -22.2083  -10.1992 C   0  0  0  0  0  0  0  0  0  0  0  0
   28.5008  -21.2233  -12.1069 C   0  0  0  0  0  0  0  0  0  0  0  0
   27.2839  -20.5493  -12.6454 C   0  0  2  0  0  0  0  0  0  0  0  0
   26.1060  -21.2529  -12.2373 N   0  0  0  0  0  0  0  0  0  0  0  0
   27.2964  -20.6058  -14.1502 C   0  0  0  0  0  0  0  0  0  0  0  0
   27.0274  -21.6554  -14.7964 O   0  0  0  0  0  0  0  0  0  0  0  0
   24.7653  -17.3523  -18.4026 C   0  0  0  0  0  0  0  0  0  0  0  0
   25.8853  -18.3278  -18.1107 C   0  0  0  0  0  0  0  0  0  0  0  0
   26.1451  -18.4233  -16.6222 C   0  0  2  0  0  0  0  0  0  0  0  0
   26.3782  -17.0660  -16.0219 C   0  0  0  0  0  0  0  0  0  0  0  0
   27.2521  -19.3934  -16.3405 C   0  0  2  0  0  0  0  0  0  0  0  0
   27.6157  -19.4667  -14.9406 N   0  0  0  0  0  0  0  0  0  0  0  0
   28.4709  -18.9657  -17.0773 C   0  0  0  0  0  0  0  0  0  0  0  0
   29.3364  -18.2084  -16.5359 O   0  0  0  0  0  0  0  0  0  0  0  0
   28.7420  -19.3572  -18.3830 O   0  0  0  0  0  0  0  0  0  0  0  0
  2  1  1  1
  3  4  1  0
  3  2  1  0
  4  9  2  0
  5  4  1  0
  5  6  2  0
  6  7  1  0
  7  8  2  0
  9  8  1  0
 10 17  1  0
 10  2  1  0
 11 10  2  0
 13 12  1  1
 13 15  1  0
 14 13  1  0
 16 15  1  1
 16 17  1  0
 18 16  1  0
 19 18  2  0
 20 21  1  0
 21 22  1  0
 22 24  1  0
 22 23  1  6
 24 26  1  0
 24 25  1  1
 25 18  1  0
 26 28  1  0
 27 26  2  0
M  END
$$$$
