FLI.pdb
     RDKit          3D

 28 28  0  0  1  0  0  0  0  0999 V2000
   21.9679  -27.4436  -16.1049 N   0  0  0  0  0  0  0  0  0  0  0  0
   23.1083  -28.1448  -15.5540 C   0  0  1  0  0  0  0  0  0  0  0  0
   23.6674  -27.2858  -14.4442 C   0  0  0  0  0  0  0  0  0  0  0  0
   24.3486  -26.1305  -15.0889 C   0  0  0  0  0  0  0  0  0  0  0  0
   25.5406  -26.2581  -15.7750 C   0  0  0  0  0  0  0  0  0  0  0  0
   26.1561  -25.1579  -16.3691 C   0  0  0  0  0  0  0  0  0  0  0  0
   25.5757  -23.9015  -16.2808 C   0  0  0  0  0  0  0  0  0  0  0  0
   24.4034  -23.7644  -15.6084 C   0  0  0  0  0  0  0  0  0  0  0  0
   23.8094  -24.8577  -15.0285 C   0  0  0  0  0  0  0  0  0  0  0  0
   22.7251  -29.4855  -15.1158 C   0  0  0  0  0  0  0  0  0  0  0  0
   21.5587  -29.6499  -14.6682 O   0  0  0  0  0  0  0  0  0  0  0  0
   21.4010  -33.5584  -16.6644 C   0  0  0  0  0  0  0  0  0  0  0  0
   22.8316  -33.0659  -17.0077 C   0  0  2  0  0  0  0  0  0  0  0  0
   23.3807  -34.1140  -17.9253 C   0  0  0  0  0  0  0  0  0  0  0  0
   23.5188  -32.9512  -15.7094 C   0  0  0  0  0  0  0  0  0  0  0  0
   23.0596  -31.8994  -14.7567 C   0  0  2  0  0  0  0  0  0  0  0  0
   23.5604  -30.6185  -15.1534 N   0  0  0  0  0  0  0  0  0  0  0  0
   23.6386  -32.1631  -13.3918 C   0  0  0  0  0  0  0  0  0  0  0  0
   24.8581  -31.9859  -13.1215 O   0  0  0  0  0  0  0  0  0  0  0  0
   21.7147  -30.0213   -9.0926 C   0  0  0  0  0  0  0  0  0  0  0  0
   22.5792  -30.6971  -10.1353 C   0  0  0  0  0  0  0  0  0  0  0  0
   22.6464  -32.1906   -9.8968 C   0  0  2  0  0  0  0  0  0  0  0  0
   23.1906  -32.5000   -8.5311 C   0  0  0  0  0  0  0  0  0  0  0  0
   23.3986  -32.8686  -11.0015 C   0  0  2  0  0  0  0  0  0  0  0  0
   22.8361  -32.6328  -12.3149 N   0  0  0  0  0  0  0  0  0  0  0  0
   23.3657  -34.3386  -10.7795 C   0  0  0  0  0  0  0  0  0  0  0  0
   24.1749  -34.9021   -9.9775 O   0  0  0  0  0  0  0  0  0  0  0  0
   22.4653  -35.1807  -11.4214 O   0  0  0  0  0  0  0  0  0  0  0  0
  2  1  1  1
  3  4  1  0
  3  2  1  0
  4  9  2  0
  5  4  1  0
  5  6  2  0
  6  7  1  0
  7  8  2  0
  9  8  1  0
 10 17  1  0
 10  2  1  0
 11 10  2  0
 13 12  1  1
 13 15  1  0
 14 13  1  0
 16 15  1  6
 16 17  1  0
 18 16  1  0
 19 18  2  0
 20 21  1  0
 21 22  1  0
 22 24  1  0
 22 23  1  1
 24 26  1  0
 24 25  1  6
 25 18  1  0
 26 28  1  0
 27 26  2  0
M  END
$$$$
