FLI.pdb
     RDKit          3D

 28 28  0  0  1  0  0  0  0  0999 V2000
   25.1309  -20.6971   -9.7343 N   0  0  0  0  0  0  0  0  0  0  0  0
   24.0845  -20.9040  -10.7130 C   0  0  1  0  0  0  0  0  0  0  0  0
   22.8660  -20.1531  -10.2297 C   0  0  0  0  0  0  0  0  0  0  0  0
   22.2495  -20.9719   -9.1508 C   0  0  0  0  0  0  0  0  0  0  0  0
   22.5097  -20.7550   -7.8118 C   0  0  0  0  0  0  0  0  0  0  0  0
   21.9176  -21.5380   -6.8224 C   0  0  0  0  0  0  0  0  0  0  0  0
   21.0469  -22.5602   -7.1694 C   0  0  0  0  0  0  0  0  0  0  0  0
   20.7838  -22.7823   -8.4834 C   0  0  0  0  0  0  0  0  0  0  0  0
   21.3749  -22.0025   -9.4462 C   0  0  0  0  0  0  0  0  0  0  0  0
   24.5336  -20.4916  -12.0413 C   0  0  0  0  0  0  0  0  0  0  0  0
   24.9048  -19.2971  -12.1950 O   0  0  0  0  0  0  0  0  0  0  0  0
   28.1642  -22.5826  -15.6523 C   0  0  0  0  0  0  0  0  0  0  0  0
   27.4149  -21.3472  -15.0868 C   0  0  2  0  0  0  0  0  0  0  0  0
   28.0246  -21.1218  -13.7380 C   0  0  0  0  0  0  0  0  0  0  0  0
   25.9936  -21.7354  -15.0720 C   0  0  0  0  0  0  0  0  0  0  0  0
   25.0137  -20.8075  -14.4366 C   0  0  2  0  0  0  0  0  0  0  0  0
   24.5860  -21.3273  -13.1734 N   0  0  0  0  0  0  0  0  0  0  0  0
   23.7737  -20.7191  -15.2865 C   0  0  0  0  0  0  0  0  0  0  0  0
   22.8358  -21.5599  -15.2155 O   0  0  0  0  0  0  0  0  0  0  0  0
   19.8664  -16.7607  -17.7444 C   0  0  0  0  0  0  0  0  0  0  0  0
   20.5229  -18.1216  -17.8334 C   0  0  0  0  0  0  0  0  0  0  0  0
   21.7580  -18.1845  -16.9601 C   0  0  2  0  0  0  0  0  0  0  0  0
   22.7331  -17.0987  -17.3170 C   0  0  0  0  0  0  0  0  0  0  0  0
   22.3604  -19.5563  -16.9952 C   0  0  2  0  0  0  0  0  0  0  0  0
   23.5845  -19.6710  -16.2299 N   0  0  0  0  0  0  0  0  0  0  0  0
   22.7009  -19.9007  -18.4011 C   0  0  0  0  0  0  0  0  0  0  0  0
   23.8790  -19.7425  -18.8514 O   0  0  0  0  0  0  0  0  0  0  0  0
   21.7724  -20.4092  -19.3017 O   0  0  0  0  0  0  0  0  0  0  0  0
  2  1  1  1
  3  4  1  0
  3  2  1  0
  4  9  2  0
  5  4  1  0
  5  6  2  0
  6  7  1  0
  7  8  2  0
  9  8  1  0
 10 17  1  0
 10  2  1  0
 11 10  2  0
 13 12  1  1
 13 15  1  0
 14 13  1  0
 16 15  1  6
 16 17  1  0
 18 16  1  0
 19 18  2  0
 20 21  1  0
 21 22  1  0
 22 24  1  0
 22 23  1  6
 24 26  1  0
 24 25  1  1
 25 18  1  0
 26 28  1  0
 27 26  2  0
M  END
$$$$
