FLI.pdb
     RDKit          3D

 28 28  0  0  1  0  0  0  0  0999 V2000
   39.4632   -2.9910   -6.1379 N   0  0  0  0  0  0  0  0  0  0  0  0
   39.4622   -4.4341   -6.0233 C   0  0  1  0  0  0  0  0  0  0  0  0
   38.0208   -4.8722   -5.9097 C   0  0  0  0  0  0  0  0  0  0  0  0
   37.5466   -4.4634   -4.5597 C   0  0  0  0  0  0  0  0  0  0  0  0
   38.1084   -4.9495   -3.3953 C   0  0  0  0  0  0  0  0  0  0  0  0
   37.6435   -4.5487   -2.1441 C   0  0  0  0  0  0  0  0  0  0  0  0
   36.5967   -3.6444   -2.0454 C   0  0  0  0  0  0  0  0  0  0  0  0
   36.0366   -3.1599   -3.1842 C   0  0  0  0  0  0  0  0  0  0  0  0
   36.5057   -3.5644   -4.4093 C   0  0  0  0  0  0  0  0  0  0  0  0
   40.1678   -5.0402   -7.1507 C   0  0  0  0  0  0  0  0  0  0  0  0
   39.9541   -4.5731   -8.3014 O   0  0  0  0  0  0  0  0  0  0  0  0
   44.0195   -4.8707   -9.1884 C   0  0  0  0  0  0  0  0  0  0  0  0
   44.0082   -5.5507   -7.7939 C   0  0  2  0  0  0  0  0  0  0  0  0
   45.4522   -5.7936   -7.4815 C   0  0  0  0  0  0  0  0  0  0  0  0
   43.1944   -6.7667   -7.9676 C   0  0  0  0  0  0  0  0  0  0  0  0
   41.7336   -6.6092   -8.2250 C   0  0  2  0  0  0  0  0  0  0  0  0
   41.0748   -6.1130   -7.0551 N   0  0  0  0  0  0  0  0  0  0  0  0
   41.1193   -7.9555   -8.5036 C   0  0  0  0  0  0  0  0  0  0  0  0
   41.0662   -8.8738   -7.6402 O   0  0  0  0  0  0  0  0  0  0  0  0
   36.4790  -11.0200  -10.4242 C   0  0  0  0  0  0  0  0  0  0  0  0
   37.9921  -10.9931  -10.3925 C   0  0  0  0  0  0  0  0  0  0  0  0
   38.5025   -9.5950  -10.1150 C   0  0  2  0  0  0  0  0  0  0  0  0
   37.9503   -8.6075  -11.1034 C   0  0  0  0  0  0  0  0  0  0  0  0
   39.9992   -9.5842  -10.0405 C   0  0  2  0  0  0  0  0  0  0  0  0
   40.5563   -8.2750   -9.7706 N   0  0  0  0  0  0  0  0  0  0  0  0
   40.5531  -10.0236  -11.3487 C   0  0  0  0  0  0  0  0  0  0  0  0
   40.9434   -9.1799  -12.2157 O   0  0  0  0  0  0  0  0  0  0  0  0
   40.6795  -11.3607  -11.7062 O   0  0  0  0  0  0  0  0  0  0  0  0
  2  1  1  6
  3  4  1  0
  3  2  1  0
  4  9  2  0
  5  4  1  0
  5  6  2  0
  6  7  1  0
  7  8  2  0
  9  8  1  0
 10 17  1  0
 10  2  1  0
 11 10  2  0
 13 12  1  6
 13 15  1  0
 14 13  1  0
 16 15  1  1
 16 17  1  0
 18 16  1  0
 19 18  2  0
 20 21  1  0
 21 22  1  0
 22 24  1  0
 22 23  1  6
 24 26  1  0
 24 25  1  6
 25 18  1  0
 26 28  1  0
 27 26  2  0
M  END
$$$$
