FLI.pdb
     RDKit          3D

 28 28  0  0  1  0  0  0  0  0999 V2000
   22.9290  -21.6507  -14.9723 N   0  0  0  0  0  0  0  0  0  0  0  0
   23.5855  -20.5548  -14.2912 C   0  0  1  0  0  0  0  0  0  0  0  0
   22.5030  -19.6947  -13.6823 C   0  0  0  0  0  0  0  0  0  0  0  0
   21.8379  -18.9744  -14.8018 C   0  0  0  0  0  0  0  0  0  0  0  0
   22.4688  -17.9828  -15.5273 C   0  0  0  0  0  0  0  0  0  0  0  0
   21.8208  -17.3249  -16.5712 C   0  0  0  0  0  0  0  0  0  0  0  0
   20.5163  -17.6584  -16.9033 C   0  0  0  0  0  0  0  0  0  0  0  0
   19.8861  -18.6322  -16.1964 C   0  0  0  0  0  0  0  0  0  0  0  0
   20.5378  -19.2711  -15.1709 C   0  0  0  0  0  0  0  0  0  0  0  0
   24.5474  -21.0592  -13.3132 C   0  0  0  0  0  0  0  0  0  0  0  0
   24.2037  -22.0372  -12.5968 O   0  0  0  0  0  0  0  0  0  0  0  0
   30.4554  -20.6467  -11.9276 C   0  0  0  0  0  0  0  0  0  0  0  0
   29.1323  -21.2975  -11.4450 C   0  0  2  0  0  0  0  0  0  0  0  0
   29.4122  -22.7683  -11.4498 C   0  0  0  0  0  0  0  0  0  0  0  0
   28.1126  -20.8534  -12.4115 C   0  0  0  0  0  0  0  0  0  0  0  0
   26.6760  -21.0705  -12.0737 C   0  0  2  0  0  0  0  0  0  0  0  0
   25.8383  -20.5369  -13.1044 N   0  0  0  0  0  0  0  0  0  0  0  0
   26.3275  -20.3067  -10.8235 C   0  0  0  0  0  0  0  0  0  0  0  0
   26.0983  -19.0661  -10.8228 O   0  0  0  0  0  0  0  0  0  0  0  0
   22.6236  -21.8607   -7.2466 C   0  0  0  0  0  0  0  0  0  0  0  0
   23.5728  -21.0702   -8.1213 C   0  0  0  0  0  0  0  0  0  0  0  0
   24.9300  -20.9365   -7.4639 C   0  0  2  0  0  0  0  0  0  0  0  0
   24.8150  -20.3241   -6.0969 C   0  0  0  0  0  0  0  0  0  0  0  0
   25.8822  -20.2063   -8.3617 C   0  0  2  0  0  0  0  0  0  0  0  0
   26.2352  -20.9458   -9.5557 N   0  0  0  0  0  0  0  0  0  0  0  0
   27.1486  -19.9553   -7.6238 C   0  0  0  0  0  0  0  0  0  0  0  0
   28.0978  -20.8006   -7.6376 O   0  0  0  0  0  0  0  0  0  0  0  0
   27.3767  -18.8017   -6.8829 O   0  0  0  0  0  0  0  0  0  0  0  0
  2  1  1  1
  3  4  1  0
  3  2  1  0
  4  9  2  0
  5  4  1  0
  5  6  2  0
  6  7  1  0
  7  8  2  0
  9  8  1  0
 10 17  1  0
 10  2  1  0
 11 10  2  0
 13 12  1  6
 13 15  1  0
 14 13  1  0
 16 15  1  6
 16 17  1  0
 18 16  1  0
 19 18  2  0
 20 21  1  0
 21 22  1  0
 22 24  1  0
 22 23  1  1
 24 26  1  0
 24 25  1  6
 25 18  1  0
 26 28  1  0
 27 26  2  0
M  END
$$$$
