FLI.pdb
     RDKit          3D

 28 28  0  0  1  0  0  0  0  0999 V2000
   28.2543  -20.4728  -15.3505 N   0  0  0  0  0  0  0  0  0  0  0  0
   27.3085  -19.5842  -14.7088 C   0  0  1  0  0  0  0  0  0  0  0  0
   26.6241  -18.7963  -15.8009 C   0  0  0  0  0  0  0  0  0  0  0  0
   27.5496  -17.6983  -16.1912 C   0  0  0  0  0  0  0  0  0  0  0  0
   28.2616  -17.7112  -17.3747 C   0  0  0  0  0  0  0  0  0  0  0  0
   29.1216  -16.6685  -17.7143 C   0  0  0  0  0  0  0  0  0  0  0  0
   29.2793  -15.5875  -16.8599 C   0  0  0  0  0  0  0  0  0  0  0  0
   28.5840  -15.5645  -15.6932 C   0  0  0  0  0  0  0  0  0  0  0  0
   27.7406  -16.5992  -15.3728 C   0  0  0  0  0  0  0  0  0  0  0  0
   26.3821  -20.3396  -13.8678 C   0  0  0  0  0  0  0  0  0  0  0  0
   25.9475  -21.4381  -14.3065 O   0  0  0  0  0  0  0  0  0  0  0  0
   26.6759  -22.1202   -9.7232 C   0  0  0  0  0  0  0  0  0  0  0  0
   26.4005  -20.5934   -9.7276 C   0  0  2  0  0  0  0  0  0  0  0  0
   26.4129  -20.2042   -8.2819 C   0  0  0  0  0  0  0  0  0  0  0  0
   25.1001  -20.4410  -10.4036 C   0  0  0  0  0  0  0  0  0  0  0  0
   25.0185  -20.7565  -11.8591 C   0  0  2  0  0  0  0  0  0  0  0  0
   25.9315  -19.9365  -12.5960 N   0  0  0  0  0  0  0  0  0  0  0  0
   23.6467  -20.4128  -12.3768 C   0  0  0  0  0  0  0  0  0  0  0  0
   23.2486  -19.2241  -12.5190 O   0  0  0  0  0  0  0  0  0  0  0  0
   19.6100  -21.8950  -16.5820 C   0  0  0  0  0  0  0  0  0  0  0  0
   19.8292  -21.3203  -15.1989 C   0  0  0  0  0  0  0  0  0  0  0  0
   21.2063  -21.6733  -14.6785 C   0  0  2  0  0  0  0  0  0  0  0  0
   21.4422  -23.1563  -14.7241 C   0  0  0  0  0  0  0  0  0  0  0  0
   21.4254  -21.0805  -13.3196 C   0  0  2  0  0  0  0  0  0  0  0  0
   22.7087  -21.4189  -12.7401 N   0  0  0  0  0  0  0  0  0  0  0  0
   20.3863  -21.5993  -12.3909 C   0  0  0  0  0  0  0  0  0  0  0  0
   20.6064  -22.6125  -11.6558 O   0  0  0  0  0  0  0  0  0  0  0  0
   19.1278  -21.0229  -12.2656 O   0  0  0  0  0  0  0  0  0  0  0  0
  2  1  1  6
  3  4  1  0
  3  2  1  0
  4  9  2  0
  5  4  1  0
  5  6  2  0
  6  7  1  0
  7  8  2  0
  9  8  1  0
 10 17  1  0
 10  2  1  0
 11 10  2  0
 13 12  1  1
 13 15  1  0
 14 13  1  0
 16 15  1  1
 16 17  1  0
 18 16  1  0
 19 18  2  0
 20 21  1  0
 21 22  1  0
 22 24  1  0
 22 23  1  1
 24 26  1  0
 24 25  1  1
 25 18  1  0
 26 28  1  0
 27 26  2  0
M  END
$$$$
