FLI.pdb
     RDKit          3D

 28 28  0  0  1  0  0  0  0  0999 V2000
   27.1991  -20.6704  -12.6785 N   0  0  0  0  0  0  0  0  0  0  0  0
   27.1085  -20.4469  -11.2510 C   0  0  1  0  0  0  0  0  0  0  0  0
   25.6437  -20.4914  -10.8840 C   0  0  0  0  0  0  0  0  0  0  0  0
   25.5576  -20.2962   -9.4113 C   0  0  0  0  0  0  0  0  0  0  0  0
   24.9717  -21.2230   -8.5713 C   0  0  0  0  0  0  0  0  0  0  0  0
   24.9052  -21.0135   -7.1951 C   0  0  0  0  0  0  0  0  0  0  0  0
   25.4324  -19.8577   -6.6388 C   0  0  0  0  0  0  0  0  0  0  0  0
   26.0111  -18.9394   -7.4556 C   0  0  0  0  0  0  0  0  0  0  0  0
   26.0688  -19.1602   -8.8093 C   0  0  0  0  0  0  0  0  0  0  0  0
   27.9205  -21.4215  -10.5252 C   0  0  0  0  0  0  0  0  0  0  0  0
   27.4636  -22.5882  -10.3911 O   0  0  0  0  0  0  0  0  0  0  0  0
   33.5548  -21.9536  -10.0158 C   0  0  0  0  0  0  0  0  0  0  0  0
   32.0962  -22.3881  -10.3170 C   0  0  2  0  0  0  0  0  0  0  0  0
   31.7649  -21.7210  -11.6158 C   0  0  0  0  0  0  0  0  0  0  0  0
   31.3118  -21.9239   -9.1593 C   0  0  0  0  0  0  0  0  0  0  0  0
   29.8383  -22.1557   -9.1648 C   0  0  2  0  0  0  0  0  0  0  0  0
   29.1829  -21.1610   -9.9584 N   0  0  0  0  0  0  0  0  0  0  0  0
   29.2939  -21.9940   -7.7700 C   0  0  0  0  0  0  0  0  0  0  0  0
   28.8898  -22.9681   -7.0775 O   0  0  0  0  0  0  0  0  0  0  0  0
   31.5416  -18.1632   -4.5955 C   0  0  0  0  0  0  0  0  0  0  0  0
   30.9353  -19.4273   -5.1659 C   0  0  0  0  0  0  0  0  0  0  0  0
   29.4242  -19.3888   -5.0805 C   0  0  2  0  0  0  0  0  0  0  0  0
   28.9633  -19.2115   -3.6616 C   0  0  0  0  0  0  0  0  0  0  0  0
   28.8265  -20.5879   -5.7517 C   0  0  2  0  0  0  0  0  0  0  0  0
   29.2021  -20.7196   -7.1441 N   0  0  0  0  0  0  0  0  0  0  0  0
   27.3442  -20.4743   -5.7174 C   0  0  0  0  0  0  0  0  0  0  0  0
   26.7007  -19.9540   -6.6822 O   0  0  0  0  0  0  0  0  0  0  0  0
   26.5757  -20.9206   -4.6487 O   0  0  0  0  0  0  0  0  0  0  0  0
  2  1  1  6
  3  4  1  0
  3  2  1  0
  4  9  2  0
  5  4  1  0
  5  6  2  0
  6  7  1  0
  7  8  2  0
  9  8  1  0
 10 17  1  0
 10  2  1  0
 11 10  2  0
 13 12  1  1
 13 15  1  0
 14 13  1  0
 16 15  1  1
 16 17  1  0
 18 16  1  0
 19 18  2  0
 20 21  1  0
 21 22  1  0
 22 24  1  0
 22 23  1  1
 24 26  1  0
 24 25  1  6
 25 18  1  0
 26 28  1  0
 27 26  2  0
M  END
$$$$
