FLI.pdb
     RDKit          3D

 28 28  0  0  1  0  0  0  0  0999 V2000
   22.9328  -20.0884  -18.2974 N   0  0  0  0  0  0  0  0  0  0  0  0
   23.3140  -19.1498  -17.2633 C   0  0  1  0  0  0  0  0  0  0  0  0
   22.0479  -18.7237  -16.5580 C   0  0  0  0  0  0  0  0  0  0  0  0
   21.3986  -17.6934  -17.4132 C   0  0  0  0  0  0  0  0  0  0  0  0
   20.2440  -17.9414  -18.1295 C   0  0  0  0  0  0  0  0  0  0  0  0
   19.6577  -16.9568  -18.9227 C   0  0  0  0  0  0  0  0  0  0  0  0
   20.2302  -15.6964  -19.0074 C   0  0  0  0  0  0  0  0  0  0  0  0
   21.3659  -15.4415  -18.3071 C   0  0  0  0  0  0  0  0  0  0  0  0
   21.9314  -16.4218  -17.5302 C   0  0  0  0  0  0  0  0  0  0  0  0
   24.3066  -19.7438  -16.3699 C   0  0  0  0  0  0  0  0  0  0  0  0
   24.0619  -20.8825  -15.8889 O   0  0  0  0  0  0  0  0  0  0  0  0
   28.7330  -20.8750  -16.8228 C   0  0  0  0  0  0  0  0  0  0  0  0
   28.4802  -19.3590  -16.6109 C   0  0  2  0  0  0  0  0  0  0  0  0
   29.8404  -18.7369  -16.6801 C   0  0  0  0  0  0  0  0  0  0  0  0
   27.8156  -19.2615  -15.2995 C   0  0  0  0  0  0  0  0  0  0  0  0
   26.4475  -19.8383  -15.1554 C   0  0  2  0  0  0  0  0  0  0  0  0
   25.5246  -19.1422  -15.9996 N   0  0  0  0  0  0  0  0  0  0  0  0
   25.9549  -19.6307  -13.7476 C   0  0  0  0  0  0  0  0  0  0  0  0
   25.6806  -18.4910  -13.2812 O   0  0  0  0  0  0  0  0  0  0  0  0
   21.5855  -20.5796  -11.8919 C   0  0  0  0  0  0  0  0  0  0  0  0
   23.0157  -20.1336  -12.1076 C   0  0  0  0  0  0  0  0  0  0  0  0
   23.9585  -20.8735  -11.1826 C   0  0  2  0  0  0  0  0  0  0  0  0
   23.5748  -20.6775   -9.7433 C   0  0  0  0  0  0  0  0  0  0  0  0
   25.3814  -20.5029  -11.4717 C   0  0  2  0  0  0  0  0  0  0  0  0
   25.7675  -20.7191  -12.8506 N   0  0  0  0  0  0  0  0  0  0  0  0
   26.2807  -21.3446  -10.6386 C   0  0  0  0  0  0  0  0  0  0  0  0
   26.4550  -21.0999   -9.4035 O   0  0  0  0  0  0  0  0  0  0  0  0
   26.9788  -22.4353  -11.1435 O   0  0  0  0  0  0  0  0  0  0  0  0
  2  1  1  6
  3  4  1  0
  3  2  1  0
  4  9  2  0
  5  4  1  0
  5  6  2  0
  6  7  1  0
  7  8  2  0
  9  8  1  0
 10 17  1  0
 10  2  1  0
 11 10  2  0
 13 12  1  1
 13 15  1  0
 14 13  1  0
 16 15  1  1
 16 17  1  0
 18 16  1  0
 19 18  2  0
 20 21  1  0
 21 22  1  0
 22 24  1  0
 22 23  1  1
 24 26  1  0
 24 25  1  6
 25 18  1  0
 26 28  1  0
 27 26  2  0
M  END
$$$$
