RKH.pdb
     RDKit          3D

 31 31  0  0  1  0  0  0  0  0999 V2000
    9.5171  -13.0016   19.4972 N   0  0  0  0  0  0  0  0  0  0  0  0
    8.6491  -13.4918   18.4723 C   0  0  0  0  0  0  0  0  0  0  0  0
    8.3025  -12.7111   17.5237 N   0  0  0  0  0  0  0  0  0  0  0  0
    8.1658  -14.8188   18.4842 N   0  0  0  0  0  0  0  0  0  0  0  0
    7.1229  -15.2797   19.3708 C   0  0  0  0  0  0  0  0  0  0  0  0
    7.7652  -15.9316   20.5611 C   0  0  0  0  0  0  0  0  0  0  0  0
    6.8936  -15.9279   21.7473 C   0  0  0  0  0  0  0  0  0  0  0  0
    6.3309  -17.2539   22.0846 C   0  0  2  0  0  0  0  0  0  0  0  0
    5.0124  -17.5389   21.5841 N   0  0  0  0  0  0  0  0  0  0  0  0
    6.2966  -17.4529   23.5694 C   0  0  0  0  0  0  0  0  0  0  0  0
    5.4337  -16.8427   24.2598 O   0  0  0  0  0  0  0  0  0  0  0  0
    7.7493  -12.9889   16.6934 N   0  0  0  0  0  0  0  0  0  0  0  0
    7.1882  -18.2987   24.2438 C   0  0  2  0  0  0  0  0  0  0  0  0
    7.3067  -18.2159   25.7247 C   0  0  0  0  0  0  0  0  0  0  0  0
    7.5205  -19.6441   26.1057 C   0  0  0  0  0  0  0  0  0  0  0  0
    7.7820  -20.0655   27.4749 C   0  0  0  0  0  0  0  0  0  0  0  0
    7.9576  -21.5305   27.6476 C   0  0  0  0  0  0  0  0  0  0  0  0
    8.2932  -21.8585   29.1122 N   0  0  0  0  0  0  0  0  0  0  0  0
    8.5406  -23.2790   29.1812 C   0  0  0  0  0  0  0  0  0  0  0  0
    8.2588  -17.2352   26.1440 O   0  0  0  0  0  0  0  0  0  0  0  0
    9.3314  -17.0411   25.4517 N   0  0  0  0  0  0  0  0  0  0  0  0
    8.0353  -16.4724   27.3133 C   0  0  1  0  0  0  0  0  0  0  0  0
    9.0890  -15.4955   27.6703 C   0  0  0  0  0  0  0  0  0  0  0  0
    8.3838  -14.2862   28.2045 C   0  0  0  0  0  0  0  0  0  0  0  0
    7.6878  -13.5028   27.1902 C   0  0  0  0  0  0  0  0  0  0  0  0
    7.8421  -13.7340   25.8259 N   0  0  0  0  0  0  0  0  0  0  0  0
    7.0710  -12.8491   25.1777 C   0  0  0  0  0  0  0  0  0  0  0  0
    6.4555  -12.0908   26.0957 N   0  0  0  0  0  0  0  0  0  0  0  0
    6.8268  -12.4835   27.3323 C   0  0  0  0  0  0  0  0  0  0  0  0
    9.9583  -16.1658   28.6759 O   0  0  0  0  0  0  0  0  0  0  0  0
    9.7053  -17.5048   29.0509 O   0  0  0  0  0  0  0  0  0  0  0  0
  2  1  1  0
  3  2  2  0
  4  2  1  0
  5  4  1  0
  6  5  1  0
  7  6  1  0
  8  9  1  1
  8  7  1  0
 10  8  1  0
 11 10  2  0
 12 10  1  0
 13 12  1  0
 13 19  1  0
 13 14  1  6
 15 14  1  0
 16 15  1  0
 17 16  1  0
 18 17  1  0
 19 21  1  0
 20 19  2  0
 21 22  1  0
 22 23  1  1
 22 29  1  0
 24 23  1  0
 25 24  2  0
 26 25  1  0
 27 26  1  0
 27 28  2  0
 28 24  1  0
 29 31  2  0
 29 30  1  0
M  END
$$$$
