RKH.pdb
     RDKit          3D

 31 31  0  0  1  0  0  0  0  0999 V2000
   16.4008  -24.7540   15.9631 N   0  0  0  0  0  0  0  0  0  0  0  0
   17.1660  -23.6524   15.4682 C   0  0  0  0  0  0  0  0  0  0  0  0
   18.2615  -23.3451   16.0471 N   0  0  0  0  0  0  0  0  0  0  0  0
   16.7392  -22.8960   14.3546 N   0  0  0  0  0  0  0  0  0  0  0  0
   15.4038  -22.9643   13.8086 C   0  0  0  0  0  0  0  0  0  0  0  0
   14.6054  -21.8195   14.3621 C   0  0  0  0  0  0  0  0  0  0  0  0
   13.1975  -21.8518   13.9333 C   0  0  0  0  0  0  0  0  0  0  0  0
   12.3802  -20.7405   14.4676 C   0  0  2  0  0  0  0  0  0  0  0  0
   12.6256  -19.4366   13.9109 N   0  0  0  0  0  0  0  0  0  0  0  0
   12.5438  -20.6288   15.9530 C   0  0  0  0  0  0  0  0  0  0  0  0
   13.2531  -19.7017   16.4334 O   0  0  0  0  0  0  0  0  0  0  0  0
   18.8977  -22.5819   15.7551 N   0  0  0  0  0  0  0  0  0  0  0  0
   11.9372  -21.5156   16.8533 C   0  0  2  0  0  0  0  0  0  0  0  0
   12.1408  -21.3358   18.3163 C   0  0  0  0  0  0  0  0  0  0  0  0
   10.9193  -21.9783   18.8873 C   0  0  0  0  0  0  0  0  0  0  0  0
   10.7144  -22.1526   20.3185 C   0  0  0  0  0  0  0  0  0  0  0  0
    9.4598  -22.8606   20.6813 C   0  0  0  0  0  0  0  0  0  0  0  0
    9.3878  -23.0723   22.2029 N   0  0  0  0  0  0  0  0  0  0  0  0
    8.1854  -23.8256   22.4683 C   0  0  0  0  0  0  0  0  0  0  0  0
   13.4277  -21.7832   18.7493 O   0  0  0  0  0  0  0  0  0  0  0  0
   13.9799  -22.8032   18.1819 N   0  0  0  0  0  0  0  0  0  0  0  0
   14.1043  -21.1157   19.7962 C   0  0  1  0  0  0  0  0  0  0  0  0
   15.4335  -21.6533   20.1654 C   0  0  0  0  0  0  0  0  0  0  0  0
   16.3240  -20.4690   20.3878 C   0  0  0  0  0  0  0  0  0  0  0  0
   17.6755  -20.8091   20.8175 C   0  0  0  0  0  0  0  0  0  0  0  0
   18.1459  -22.1192   20.8502 N   0  0  0  0  0  0  0  0  0  0  0  0
   19.4128  -22.0815   21.2877 C   0  0  0  0  0  0  0  0  0  0  0  0
   19.7286  -20.8000   21.5213 N   0  0  0  0  0  0  0  0  0  0  0  0
   18.6706  -20.0122   21.2361 C   0  0  0  0  0  0  0  0  0  0  0  0
   15.2274  -22.4765   21.3886 O   0  0  0  0  0  0  0  0  0  0  0  0
   14.1917  -22.1526   22.2943 O   0  0  0  0  0  0  0  0  0  0  0  0
  2  1  1  0
  3  2  2  0
  4  2  1  0
  5  4  1  0
  6  5  1  0
  7  6  1  0
  8  9  1  6
  8  7  1  0
 10  8  1  0
 11 10  2  0
 12 10  1  0
 13 12  1  0
 13 19  1  0
 13 14  1  6
 15 14  1  0
 16 15  1  0
 17 16  1  0
 18 17  1  0
 19 21  1  0
 20 19  2  0
 21 22  1  0
 22 23  1  1
 22 29  1  0
 24 23  1  0
 25 24  2  0
 26 25  1  0
 27 26  1  0
 27 28  2  0
 28 24  1  0
 29 31  2  0
 29 30  1  0
M  END
$$$$
