RKH.pdb
     RDKit          3D

 31 31  0  0  1  0  0  0  0  0999 V2000
    6.0408  -14.8259   15.9306 N   0  0  0  0  0  0  0  0  0  0  0  0
    7.1881  -15.4530   15.3521 C   0  0  0  0  0  0  0  0  0  0  0  0
    7.6302  -15.0301   14.2317 N   0  0  0  0  0  0  0  0  0  0  0  0
    7.8436  -16.5290   15.9900 N   0  0  0  0  0  0  0  0  0  0  0  0
    8.1806  -16.5378   17.3944 C   0  0  0  0  0  0  0  0  0  0  0  0
    8.6831  -15.1739   17.7708 C   0  0  0  0  0  0  0  0  0  0  0  0
    9.1278  -15.1014   19.1723 C   0  0  0  0  0  0  0  0  0  0  0  0
    8.3596  -14.1444   19.9984 C   0  0  2  0  0  0  0  0  0  0  0  0
    8.2948  -12.7892   19.5194 N   0  0  0  0  0  0  0  0  0  0  0  0
    8.8996  -14.0978   21.3955 C   0  0  0  0  0  0  0  0  0  0  0  0
    9.9808  -13.4882   21.6252 O   0  0  0  0  0  0  0  0  0  0  0  0
    8.4564  -15.4081   13.7346 N   0  0  0  0  0  0  0  0  0  0  0  0
    8.2533  -14.7056   22.4808 C   0  0  1  0  0  0  0  0  0  0  0  0
    8.8702  -14.6474   23.8337 C   0  0  0  0  0  0  0  0  0  0  0  0
    7.7020  -14.3079   24.7001 C   0  0  0  0  0  0  0  0  0  0  0  0
    7.4030  -12.9476   25.1254 C   0  0  0  0  0  0  0  0  0  0  0  0
    6.2511  -12.8302   26.0560 C   0  0  0  0  0  0  0  0  0  0  0  0
    6.0387  -11.3614   26.4592 N   0  0  0  0  0  0  0  0  0  0  0  0
    4.9733  -11.3403   27.4329 C   0  0  0  0  0  0  0  0  0  0  0  0
    9.6425  -15.8124   24.1340 O   0  0  0  0  0  0  0  0  0  0  0  0
    9.1307  -16.9859   23.9655 N   0  0  0  0  0  0  0  0  0  0  0  0
   10.9666  -15.6909   24.6147 C   0  0  2  0  0  0  0  0  0  0  0  0
   11.5066  -16.8567   25.3505 C   0  0  0  0  0  0  0  0  0  0  0  0
   10.4572  -17.2562   26.3427 C   0  0  0  0  0  0  0  0  0  0  0  0
   10.3884  -16.3972   27.5192 C   0  0  0  0  0  0  0  0  0  0  0  0
   11.1379  -15.2302   27.6421 N   0  0  0  0  0  0  0  0  0  0  0  0
   10.8419  -14.6846   28.8306 C   0  0  0  0  0  0  0  0  0  0  0  0
    9.9424  -15.4751   29.4327 N   0  0  0  0  0  0  0  0  0  0  0  0
    9.6578  -16.5275   28.6372 C   0  0  0  0  0  0  0  0  0  0  0  0
   11.7849  -17.9041   24.3298 O   0  0  0  0  0  0  0  0  0  0  0  0
   12.6246  -18.9961   24.6461 O   0  0  0  0  0  0  0  0  0  0  0  0
  2  1  1  0
  3  2  2  0
  4  2  1  0
  5  4  1  0
  6  5  1  0
  7  6  1  0
  8  9  1  6
  8  7  1  0
 10  8  1  0
 11 10  2  0
 12 10  1  0
 13 12  1  0
 13 19  1  0
 13 14  1  6
 15 14  1  0
 16 15  1  0
 17 16  1  0
 18 17  1  0
 19 21  1  0
 20 19  2  0
 21 22  1  0
 22 23  1  6
 22 29  1  0
 24 23  1  0
 25 24  2  0
 26 25  1  0
 27 26  1  0
 27 28  2  0
 28 24  1  0
 29 31  2  0
 29 30  1  0
M  END
$$$$
