RKH.pdb
     RDKit          3D

 31 31  0  0  1  0  0  0  0  0999 V2000
    9.5344  -14.3821   16.2128 N   0  0  0  0  0  0  0  0  0  0  0  0
    8.3928  -13.5234   16.1541 C   0  0  0  0  0  0  0  0  0  0  0  0
    7.7590  -13.4045   15.0524 N   0  0  0  0  0  0  0  0  0  0  0  0
    7.9497  -12.8034   17.2853 N   0  0  0  0  0  0  0  0  0  0  0  0
    8.2654  -13.1791   18.6437 C   0  0  0  0  0  0  0  0  0  0  0  0
    7.4286  -14.3696   19.0139 C   0  0  0  0  0  0  0  0  0  0  0  0
    7.7236  -14.8701   20.3664 C   0  0  0  0  0  0  0  0  0  0  0  0
    9.1352  -15.2644   20.5675 C   0  0  2  0  0  0  0  0  0  0  0  0
    9.8098  -15.8391   19.4339 N   0  0  0  0  0  0  0  0  0  0  0  0
    9.2573  -16.2386   21.6996 C   0  0  0  0  0  0  0  0  0  0  0  0
    8.5118  -16.1147   22.7108 O   0  0  0  0  0  0  0  0  0  0  0  0
    6.8958  -12.8486   14.9169 N   0  0  0  0  0  0  0  0  0  0  0  0
   10.1718  -17.3009   21.6930 C   0  0  1  0  0  0  0  0  0  0  0  0
   10.4146  -18.0731   22.9415 C   0  0  0  0  0  0  0  0  0  0  0  0
   11.1135  -19.2901   22.4303 C   0  0  0  0  0  0  0  0  0  0  0  0
   11.6447  -20.3231   23.3086 C   0  0  0  0  0  0  0  0  0  0  0  0
   12.2712  -21.4711   22.6038 C   0  0  0  0  0  0  0  0  0  0  0  0
   12.7072  -22.5443   23.6154 N   0  0  0  0  0  0  0  0  0  0  0  0
   13.2180  -23.6595   22.8544 C   0  0  0  0  0  0  0  0  0  0  0  0
   11.0417  -17.2876   23.9582 O   0  0  0  0  0  0  0  0  0  0  0  0
   11.5759  -16.1513   23.6569 N   0  0  0  0  0  0  0  0  0  0  0  0
   11.0816  -17.7449   25.2955 C   0  0  1  0  0  0  0  0  0  0  0  0
   11.0248  -16.7036   26.3465 C   0  0  0  0  0  0  0  0  0  0  0  0
    9.7327  -15.9710   26.1494 C   0  0  0  0  0  0  0  0  0  0  0  0
    9.4151  -15.0224   27.2106 C   0  0  0  0  0  0  0  0  0  0  0  0
   10.2871  -14.7515   28.2618 N   0  0  0  0  0  0  0  0  0  0  0  0
    9.6954  -13.8445   29.0524 C   0  0  0  0  0  0  0  0  0  0  0  0
    8.4992  -13.5551   28.5215 N   0  0  0  0  0  0  0  0  0  0  0  0
    8.3178  -14.2717   27.3924 C   0  0  0  0  0  0  0  0  0  0  0  0
   11.1066  -17.4187   27.6496 O   0  0  0  0  0  0  0  0  0  0  0  0
   11.7440  -16.8085   28.7537 O   0  0  0  0  0  0  0  0  0  0  0  0
  2  1  1  0
  3  2  2  0
  4  2  1  0
  5  4  1  0
  6  5  1  0
  7  6  1  0
  8  9  1  6
  8  7  1  0
 10  8  1  0
 11 10  2  0
 12 10  1  0
 13 12  1  0
 13 19  1  0
 13 14  1  1
 15 14  1  0
 16 15  1  0
 17 16  1  0
 18 17  1  0
 19 21  1  0
 20 19  2  0
 21 22  1  0
 22 23  1  1
 22 29  1  0
 24 23  1  0
 25 24  2  0
 26 25  1  0
 27 26  1  0
 27 28  2  0
 28 24  1  0
 29 31  2  0
 29 30  1  0
M  END
$$$$
