RKH.pdb
     RDKit          3D

 31 31  0  0  1  0  0  0  0  0999 V2000
    7.0687  -14.4310   16.5810 N   0  0  0  0  0  0  0  0  0  0  0  0
    8.1204  -13.6090   17.0932 C   0  0  0  0  0  0  0  0  0  0  0  0
    8.1247  -12.3618   16.8210 N   0  0  0  0  0  0  0  0  0  0  0  0
    9.1546  -14.1435   17.8926 N   0  0  0  0  0  0  0  0  0  0  0  0
    9.2438  -15.5394   18.2528 C   0  0  0  0  0  0  0  0  0  0  0  0
   10.4426  -15.7260   19.1373 C   0  0  0  0  0  0  0  0  0  0  0  0
   10.0783  -15.9278   20.5492 C   0  0  0  0  0  0  0  0  0  0  0  0
    9.7976  -17.3366   20.9027 C   0  0  2  0  0  0  0  0  0  0  0  0
    8.9341  -18.0635   20.0103 N   0  0  0  0  0  0  0  0  0  0  0  0
    9.2013  -17.4302   22.2742 C   0  0  0  0  0  0  0  0  0  0  0  0
    8.0144  -17.0448   22.4649 O   0  0  0  0  0  0  0  0  0  0  0  0
    8.8553  -11.6890   17.1144 N   0  0  0  0  0  0  0  0  0  0  0  0
    9.9054  -17.9346   23.3764 C   0  0  1  0  0  0  0  0  0  0  0  0
    9.2482  -17.9878   24.7103 C   0  0  0  0  0  0  0  0  0  0  0  0
    9.2991  -19.4458   25.0305 C   0  0  0  0  0  0  0  0  0  0  0  0
    8.1612  -20.3353   24.8447 C   0  0  0  0  0  0  0  0  0  0  0  0
    8.3833  -21.4251   23.8599 C   0  0  0  0  0  0  0  0  0  0  0  0
    7.0660  -22.1681   23.5804 N   0  0  0  0  0  0  0  0  0  0  0  0
    7.3343  -23.1247   22.5333 C   0  0  0  0  0  0  0  0  0  0  0  0
    9.8098  -17.0536   25.6353 O   0  0  0  0  0  0  0  0  0  0  0  0
   11.0694  -16.7739   25.5841 N   0  0  0  0  0  0  0  0  0  0  0  0
    8.9954  -16.4299   26.6084 C   0  0  1  0  0  0  0  0  0  0  0  0
    9.6490  -15.4007   27.4484 C   0  0  0  0  0  0  0  0  0  0  0  0
    8.5484  -14.5761   28.0434 C   0  0  0  0  0  0  0  0  0  0  0  0
    7.8644  -13.7125   27.0878 C   0  0  0  0  0  0  0  0  0  0  0  0
    8.2660  -13.5955   25.7597 N   0  0  0  0  0  0  0  0  0  0  0  0
    7.4334  -12.7312   25.1618 C   0  0  0  0  0  0  0  0  0  0  0  0
    6.5429  -12.3201   26.0753 N   0  0  0  0  0  0  0  0  0  0  0  0
    6.7984  -12.9157   27.2590 C   0  0  0  0  0  0  0  0  0  0  0  0
   10.4520  -16.1363   28.4634 O   0  0  0  0  0  0  0  0  0  0  0  0
   11.6123  -15.5451   29.0128 O   0  0  0  0  0  0  0  0  0  0  0  0
  2  1  1  0
  3  2  2  0
  4  2  1  0
  5  4  1  0
  6  5  1  0
  7  6  1  0
  8  9  1  6
  8  7  1  0
 10  8  1  0
 11 10  2  0
 12 10  1  0
 13 12  1  0
 13 19  1  0
 13 14  1  1
 15 14  1  0
 16 15  1  0
 17 16  1  0
 18 17  1  0
 19 21  1  0
 20 19  2  0
 21 22  1  0
 22 23  1  1
 22 29  1  0
 24 23  1  0
 25 24  2  0
 26 25  1  0
 27 26  1  0
 27 28  2  0
 28 24  1  0
 29 31  2  0
 29 30  1  0
M  END
$$$$
