RKH.pdb
     RDKit          3D

 31 31  0  0  1  0  0  0  0  0999 V2000
    9.9347  -12.5733   18.7781 N   0  0  0  0  0  0  0  0  0  0  0  0
    8.5185  -12.7398   18.8818 C   0  0  0  0  0  0  0  0  0  0  0  0
    7.8245  -11.8314   19.4500 N   0  0  0  0  0  0  0  0  0  0  0  0
    7.8689  -13.8851   18.3710 N   0  0  0  0  0  0  0  0  0  0  0  0
    7.8920  -15.1730   19.0243 C   0  0  0  0  0  0  0  0  0  0  0  0
    9.2973  -15.7000   18.9856 C   0  0  0  0  0  0  0  0  0  0  0  0
    9.9140  -15.7660   20.3207 C   0  0  0  0  0  0  0  0  0  0  0  0
    9.3750  -16.8431   21.1797 C   0  0  2  0  0  0  0  0  0  0  0  0
    7.9620  -17.0967   21.0823 N   0  0  0  0  0  0  0  0  0  0  0  0
    9.6811  -16.5741   22.6217 C   0  0  0  0  0  0  0  0  0  0  0  0
   10.8687  -16.3260   22.9704 O   0  0  0  0  0  0  0  0  0  0  0  0
    6.7993  -11.8643   19.5924 N   0  0  0  0  0  0  0  0  0  0  0  0
    8.6987  -16.5818   23.6216 C   0  0  1  0  0  0  0  0  0  0  0  0
    9.0883  -16.3600   25.0405 C   0  0  0  0  0  0  0  0  0  0  0  0
    7.9278  -15.5828   25.5697 C   0  0  0  0  0  0  0  0  0  0  0  0
    7.8453  -14.1313   25.4861 C   0  0  0  0  0  0  0  0  0  0  0  0
    6.6470  -13.5421   26.1370 C   0  0  0  0  0  0  0  0  0  0  0  0
    6.7346  -12.0067   26.1254 N   0  0  0  0  0  0  0  0  0  0  0  0
    5.5357  -11.5102   26.7578 C   0  0  0  0  0  0  0  0  0  0  0  0
    9.4722  -17.5697   25.6986 O   0  0  0  0  0  0  0  0  0  0  0  0
    9.5112  -18.6784   25.0378 N   0  0  0  0  0  0  0  0  0  0  0  0
    9.8120  -17.5628   27.0711 C   0  0  1  0  0  0  0  0  0  0  0  0
   11.0367  -18.3049   27.4471 C   0  0  0  0  0  0  0  0  0  0  0  0
   12.1623  -17.6857   26.6759 C   0  0  0  0  0  0  0  0  0  0  0  0
   12.7197  -18.5448   25.6376 C   0  0  0  0  0  0  0  0  0  0  0  0
   11.9296  -19.3670   24.8386 N   0  0  0  0  0  0  0  0  0  0  0  0
   12.7465  -20.0157   23.9962 C   0  0  0  0  0  0  0  0  0  0  0  0
   14.0007  -19.6188   24.2533 N   0  0  0  0  0  0  0  0  0  0  0  0
   13.9951  -18.7173   25.2576 C   0  0  0  0  0  0  0  0  0  0  0  0
   11.1791  -18.1585   28.9217 O   0  0  0  0  0  0  0  0  0  0  0  0
   10.7839  -16.9588   29.5560 O   0  0  0  0  0  0  0  0  0  0  0  0
  2  1  1  0
  3  2  2  0
  4  2  1  0
  5  4  1  0
  6  5  1  0
  7  6  1  0
  8  9  1  1
  8  7  1  0
 10  8  1  0
 11 10  2  0
 12 10  1  0
 13 12  1  0
 13 19  1  0
 13 14  1  1
 15 14  1  0
 16 15  1  0
 17 16  1  0
 18 17  1  0
 19 21  1  0
 20 19  2  0
 21 22  1  0
 22 23  1  1
 22 29  1  0
 24 23  1  0
 25 24  2  0
 26 25  1  0
 27 26  1  0
 27 28  2  0
 28 24  1  0
 29 31  2  0
 29 30  1  0
M  END
$$$$
