RKH.pdb
     RDKit          3D

 31 31  0  0  1  0  0  0  0  0999 V2000
    8.1019  -12.8076   15.2172 N   0  0  0  0  0  0  0  0  0  0  0  0
    8.4642  -13.3173   16.5029 C   0  0  0  0  0  0  0  0  0  0  0  0
    9.5779  -13.9259   16.6404 N   0  0  0  0  0  0  0  0  0  0  0  0
    7.6196  -13.1639   17.6244 N   0  0  0  0  0  0  0  0  0  0  0  0
    7.9196  -13.7064   18.9289 C   0  0  0  0  0  0  0  0  0  0  0  0
    8.0198  -15.1999   18.8105 C   0  0  0  0  0  0  0  0  0  0  0  0
    8.1967  -15.8603   20.1142 C   0  0  0  0  0  0  0  0  0  0  0  0
    8.1906  -17.3380   20.0458 C   0  0  2  0  0  0  0  0  0  0  0  0
    6.9657  -17.9565   19.6127 N   0  0  0  0  0  0  0  0  0  0  0  0
    8.5435  -17.9316   21.3757 C   0  0  0  0  0  0  0  0  0  0  0  0
    7.6682  -17.9906   22.2833 O   0  0  0  0  0  0  0  0  0  0  0  0
    9.9147  -14.3646   17.5159 N   0  0  0  0  0  0  0  0  0  0  0  0
    9.8182  -18.4359   21.6688 C   0  0  2  0  0  0  0  0  0  0  0  0
   10.1196  -18.9277   23.0404 C   0  0  0  0  0  0  0  0  0  0  0  0
   11.0825  -20.0380   22.7743 C   0  0  0  0  0  0  0  0  0  0  0  0
   11.7554  -20.7715   23.8372 C   0  0  0  0  0  0  0  0  0  0  0  0
   12.7646  -21.7547   23.3663 C   0  0  0  0  0  0  0  0  0  0  0  0
   13.4325  -22.4492   24.5649 N   0  0  0  0  0  0  0  0  0  0  0  0
   14.3718  -23.4056   24.0296 C   0  0  0  0  0  0  0  0  0  0  0  0
   10.5022  -17.8744   23.9282 O   0  0  0  0  0  0  0  0  0  0  0  0
   11.3221  -16.9605   23.5284 N   0  0  0  0  0  0  0  0  0  0  0  0
    9.9882  -17.8236   25.2444 C   0  0  1  0  0  0  0  0  0  0  0  0
   10.5358  -16.7642   26.1217 C   0  0  0  0  0  0  0  0  0  0  0  0
    9.3583  -16.0654   26.7301 C   0  0  0  0  0  0  0  0  0  0  0  0
    9.6941  -15.1882   27.8458 C   0  0  0  0  0  0  0  0  0  0  0  0
   10.9764  -15.1137   28.3831 N   0  0  0  0  0  0  0  0  0  0  0  0
   10.9425  -14.2224   29.3841 C   0  0  0  0  0  0  0  0  0  0  0  0
    9.6900  -13.7538   29.4745 N   0  0  0  0  0  0  0  0  0  0  0  0
    8.9171  -14.3394   28.5360 C   0  0  0  0  0  0  0  0  0  0  0  0
   11.3971  -17.4524   27.1222 O   0  0  0  0  0  0  0  0  0  0  0  0
   10.9787  -18.6745   27.6957 O   0  0  0  0  0  0  0  0  0  0  0  0
  2  1  1  0
  3  2  2  0
  4  2  1  0
  5  4  1  0
  6  5  1  0
  7  6  1  0
  8  9  1  1
  8  7  1  0
 10  8  1  0
 11 10  2  0
 12 10  1  0
 13 12  1  0
 13 19  1  0
 13 14  1  6
 15 14  1  0
 16 15  1  0
 17 16  1  0
 18 17  1  0
 19 21  1  0
 20 19  2  0
 21 22  1  0
 22 23  1  1
 22 29  1  0
 24 23  1  0
 25 24  2  0
 26 25  1  0
 27 26  1  0
 27 28  2  0
 28 24  1  0
 29 31  2  0
 29 30  1  0
M  END
$$$$
