RKH.pdb
     RDKit          3D

 31 31  0  0  1  0  0  0  0  0999 V2000
    8.0434  -12.0387   18.6118 N   0  0  0  0  0  0  0  0  0  0  0  0
    8.2766  -13.3584   18.1136 C   0  0  0  0  0  0  0  0  0  0  0  0
    8.0777  -13.6011   16.8762 N   0  0  0  0  0  0  0  0  0  0  0  0
    8.7215  -14.3998   18.9574 N   0  0  0  0  0  0  0  0  0  0  0  0
    8.7698  -14.2943   20.3971 C   0  0  0  0  0  0  0  0  0  0  0  0
    7.6339  -15.0917   20.9701 C   0  0  0  0  0  0  0  0  0  0  0  0
    7.9300  -16.5322   21.0353 C   0  0  0  0  0  0  0  0  0  0  0  0
    6.8194  -17.3511   21.5688 C   0  0  2  0  0  0  0  0  0  0  0  0
    5.4938  -16.9966   21.1358 N   0  0  0  0  0  0  0  0  0  0  0  0
    6.8189  -17.3318   23.0671 C   0  0  0  0  0  0  0  0  0  0  0  0
    6.0423  -16.5474   23.6795 O   0  0  0  0  0  0  0  0  0  0  0  0
    8.2807  -14.5000   16.4038 N   0  0  0  0  0  0  0  0  0  0  0  0
    7.6500  -18.1562   23.8382 C   0  0  1  0  0  0  0  0  0  0  0  0
    7.5653  -18.1074   25.3230 C   0  0  0  0  0  0  0  0  0  0  0  0
    7.6469  -19.5522   25.6926 C   0  0  0  0  0  0  0  0  0  0  0  0
    6.5497  -20.4854   25.4782 C   0  0  0  0  0  0  0  0  0  0  0  0
    6.8747  -21.9021   25.7849 C   0  0  0  0  0  0  0  0  0  0  0  0
    5.6746  -22.8071   25.4596 N   0  0  0  0  0  0  0  0  0  0  0  0
    6.0597  -24.1570   25.7962 C   0  0  0  0  0  0  0  0  0  0  0  0
    8.5009  -17.1902   25.8951 O   0  0  0  0  0  0  0  0  0  0  0  0
    9.6889  -17.0884   25.3994 N   0  0  0  0  0  0  0  0  0  0  0  0
    8.1355  -16.3899   27.0020 C   0  0  1  0  0  0  0  0  0  0  0  0
    9.1794  -15.4803   27.5264 C   0  0  0  0  0  0  0  0  0  0  0  0
    8.4694  -14.2524   28.0096 C   0  0  0  0  0  0  0  0  0  0  0  0
    7.9529  -13.4016   26.9436 C   0  0  0  0  0  0  0  0  0  0  0  0
    8.1687  -13.6727   25.5950 N   0  0  0  0  0  0  0  0  0  0  0  0
    7.5660  -12.7057   24.8883 C   0  0  0  0  0  0  0  0  0  0  0  0
    6.9935  -11.8593   25.7557 N   0  0  0  0  0  0  0  0  0  0  0  0
    7.2247  -12.2770   27.0179 C   0  0  0  0  0  0  0  0  0  0  0  0
    9.8778  -16.2247   28.6100 O   0  0  0  0  0  0  0  0  0  0  0  0
   11.0087  -15.6598   29.2424 O   0  0  0  0  0  0  0  0  0  0  0  0
  2  1  1  0
  3  2  2  0
  4  2  1  0
  5  4  1  0
  6  5  1  0
  7  6  1  0
  8  9  1  6
  8  7  1  0
 10  8  1  0
 11 10  2  0
 12 10  1  0
 13 12  1  0
 13 19  1  0
 13 14  1  1
 15 14  1  0
 16 15  1  0
 17 16  1  0
 18 17  1  0
 19 21  1  0
 20 19  2  0
 21 22  1  0
 22 23  1  1
 22 29  1  0
 24 23  1  0
 25 24  2  0
 26 25  1  0
 27 26  1  0
 27 28  2  0
 28 24  1  0
 29 31  2  0
 29 30  1  0
M  END
$$$$
