RKH.pdb
     RDKit          3D

 31 31  0  0  1  0  0  0  0  0999 V2000
    7.6589  -12.2023   15.7723 N   0  0  0  0  0  0  0  0  0  0  0  0
    8.3660  -13.4265   15.5593 C   0  0  0  0  0  0  0  0  0  0  0  0
    8.5887  -13.8173   14.3645 N   0  0  0  0  0  0  0  0  0  0  0  0
    8.8238  -14.2140   16.6386 N   0  0  0  0  0  0  0  0  0  0  0  0
    7.9667  -14.6871   17.7004 C   0  0  0  0  0  0  0  0  0  0  0  0
    7.7724  -16.1663   17.5306 C   0  0  0  0  0  0  0  0  0  0  0  0
    8.9028  -16.9495   18.0557 C   0  0  0  0  0  0  0  0  0  0  0  0
    8.6513  -17.5538   19.3824 C   0  0  2  0  0  0  0  0  0  0  0  0
    7.2735  -17.7134   19.7653 N   0  0  0  0  0  0  0  0  0  0  0  0
    9.3249  -16.7621   20.4617 C   0  0  0  0  0  0  0  0  0  0  0  0
   10.5332  -16.4236   20.3239 O   0  0  0  0  0  0  0  0  0  0  0  0
    9.1236  -14.6646   14.1032 N   0  0  0  0  0  0  0  0  0  0  0  0
    8.6702  -16.3690   21.6372 C   0  0  1  0  0  0  0  0  0  0  0  0
    9.4273  -15.6521   22.6989 C   0  0  0  0  0  0  0  0  0  0  0  0
    8.5010  -14.5336   23.0479 C   0  0  0  0  0  0  0  0  0  0  0  0
    7.3396  -14.7095   23.9086 C   0  0  0  0  0  0  0  0  0  0  0  0
    7.1902  -13.6746   24.9639 C   0  0  0  0  0  0  0  0  0  0  0  0
    5.8327  -13.8255   25.6706 N   0  0  0  0  0  0  0  0  0  0  0  0
    5.7513  -12.7758   26.6580 C   0  0  0  0  0  0  0  0  0  0  0  0
    9.8805  -16.5274   23.7344 O   0  0  0  0  0  0  0  0  0  0  0  0
    9.2066  -17.5912   24.0199 N   0  0  0  0  0  0  0  0  0  0  0  0
   11.0649  -16.2383   24.4506 C   0  0  1  0  0  0  0  0  0  0  0  0
   11.5205  -17.2713   25.4084 C   0  0  0  0  0  0  0  0  0  0  0  0
   13.0086  -17.1290   25.5108 C   0  0  0  0  0  0  0  0  0  0  0  0
   13.7560  -18.2604   24.9739 C   0  0  0  0  0  0  0  0  0  0  0  0
   13.1345  -19.3979   24.4655 N   0  0  0  0  0  0  0  0  0  0  0  0
   14.0989  -20.2358   24.0583 C   0  0  0  0  0  0  0  0  0  0  0  0
   15.2803  -19.6506   24.3000 N   0  0  0  0  0  0  0  0  0  0  0  0
   15.0810  -18.4395   24.8610 C   0  0  0  0  0  0  0  0  0  0  0  0
   10.8107  -16.9982   26.6882 O   0  0  0  0  0  0  0  0  0  0  0  0
   10.8487  -17.9464   27.7357 O   0  0  0  0  0  0  0  0  0  0  0  0
  2  1  1  0
  3  2  2  0
  4  2  1  0
  5  4  1  0
  6  5  1  0
  7  6  1  0
  8  9  1  1
  8  7  1  0
 10  8  1  0
 11 10  2  0
 12 10  1  0
 13 12  1  0
 13 19  1  0
 13 14  1  1
 15 14  1  0
 16 15  1  0
 17 16  1  0
 18 17  1  0
 19 21  1  0
 20 19  2  0
 21 22  1  0
 22 23  1  1
 22 29  1  0
 24 23  1  0
 25 24  2  0
 26 25  1  0
 27 26  1  0
 27 28  2  0
 28 24  1  0
 29 31  2  0
 29 30  1  0
M  END
$$$$
