RKH.pdb
     RDKit          3D

 31 31  0  0  1  0  0  0  0  0999 V2000
    9.3343  -15.3100   17.9338 N   0  0  0  0  0  0  0  0  0  0  0  0
    8.7726  -14.1632   17.2908 C   0  0  0  0  0  0  0  0  0  0  0  0
    8.7131  -14.1306   16.0161 N   0  0  0  0  0  0  0  0  0  0  0  0
    8.2823  -13.0655   18.0320 N   0  0  0  0  0  0  0  0  0  0  0  0
    8.4940  -12.9032   19.4514 C   0  0  0  0  0  0  0  0  0  0  0  0
    7.1997  -13.1817   20.1596 C   0  0  0  0  0  0  0  0  0  0  0  0
    7.3958  -13.8605   21.4510 C   0  0  0  0  0  0  0  0  0  0  0  0
    7.2588  -15.3320   21.3841 C   0  0  2  0  0  0  0  0  0  0  0  0
    5.9609  -15.8413   21.0285 N   0  0  0  0  0  0  0  0  0  0  0  0
    7.6414  -15.9597   22.6899 C   0  0  0  0  0  0  0  0  0  0  0  0
    6.7784  -16.0692   23.6047 O   0  0  0  0  0  0  0  0  0  0  0  0
    8.4509  -13.3031   15.4514 N   0  0  0  0  0  0  0  0  0  0  0  0
    8.9310  -16.4424   22.9523 C   0  0  2  0  0  0  0  0  0  0  0  0
    9.2369  -17.0478   24.2767 C   0  0  0  0  0  0  0  0  0  0  0  0
   10.0947  -18.2118   23.9023 C   0  0  0  0  0  0  0  0  0  0  0  0
   10.6642  -19.1219   24.8862 C   0  0  0  0  0  0  0  0  0  0  0  0
   11.4913  -20.2140   24.3116 C   0  0  0  0  0  0  0  0  0  0  0  0
   12.0080  -21.1359   25.4289 N   0  0  0  0  0  0  0  0  0  0  0  0
   12.6462  -22.2606   24.7874 C   0  0  0  0  0  0  0  0  0  0  0  0
    9.7354  -16.0908   25.2145 O   0  0  0  0  0  0  0  0  0  0  0  0
   10.6450  -15.2484   24.8536 N   0  0  0  0  0  0  0  0  0  0  0  0
    9.2388  -16.0575   26.5380 C   0  0  1  0  0  0  0  0  0  0  0  0
    9.8499  -15.0574   27.4425 C   0  0  0  0  0  0  0  0  0  0  0  0
    8.7202  -14.4053   28.1801 C   0  0  0  0  0  0  0  0  0  0  0  0
    7.8883  -13.5378   27.3541 C   0  0  0  0  0  0  0  0  0  0  0  0
    8.2671  -13.1256   26.0792 N   0  0  0  0  0  0  0  0  0  0  0  0
    7.2873  -12.3455   25.6004 C   0  0  0  0  0  0  0  0  0  0  0  0
    6.3297  -12.2689   26.5351 N   0  0  0  0  0  0  0  0  0  0  0  0
    6.6884  -12.9962   27.6138 C   0  0  0  0  0  0  0  0  0  0  0  0
   10.7804  -15.8080   28.3296 O   0  0  0  0  0  0  0  0  0  0  0  0
   11.5601  -15.1173   29.2850 O   0  0  0  0  0  0  0  0  0  0  0  0
  2  1  1  0
  3  2  2  0
  4  2  1  0
  5  4  1  0
  6  5  1  0
  7  6  1  0
  8  9  1  1
  8  7  1  0
 10  8  1  0
 11 10  2  0
 12 10  1  0
 13 12  1  0
 13 19  1  0
 13 14  1  6
 15 14  1  0
 16 15  1  0
 17 16  1  0
 18 17  1  0
 19 21  1  0
 20 19  2  0
 21 22  1  0
 22 23  1  1
 22 29  1  0
 24 23  1  0
 25 24  2  0
 26 25  1  0
 27 26  1  0
 27 28  2  0
 28 24  1  0
 29 31  2  0
 29 30  1  0
M  END
$$$$
