RKH.pdb
     RDKit          3D

 31 31  0  0  1  0  0  0  0  0999 V2000
    7.7593  -12.5769   16.5631 N   0  0  0  0  0  0  0  0  0  0  0  0
    8.0079  -13.4358   15.4475 C   0  0  0  0  0  0  0  0  0  0  0  0
    7.2204  -13.3964   14.4436 N   0  0  0  0  0  0  0  0  0  0  0  0
    9.1034  -14.3269   15.4295 N   0  0  0  0  0  0  0  0  0  0  0  0
    8.9892  -15.7372   15.7192 C   0  0  0  0  0  0  0  0  0  0  0  0
    9.3615  -15.9584   17.1569 C   0  0  0  0  0  0  0  0  0  0  0  0
    8.3262  -16.6919   17.9033 C   0  0  0  0  0  0  0  0  0  0  0  0
    8.5596  -18.1507   17.9801 C   0  0  2  0  0  0  0  0  0  0  0  0
    7.5275  -18.9962   17.4414 N   0  0  0  0  0  0  0  0  0  0  0  0
    8.7895  -18.5766   19.3983 C   0  0  0  0  0  0  0  0  0  0  0  0
    7.8335  -18.5411   20.2219 O   0  0  0  0  0  0  0  0  0  0  0  0
    7.3014  -13.9878   13.5973 N   0  0  0  0  0  0  0  0  0  0  0  0
   10.0335  -19.0226   19.8659 C   0  0  1  0  0  0  0  0  0  0  0  0
   10.1785  -19.4508   21.2835 C   0  0  0  0  0  0  0  0  0  0  0  0
   11.0434  -20.6624   21.1615 C   0  0  0  0  0  0  0  0  0  0  0  0
   10.5867  -21.8996   20.5438 C   0  0  0  0  0  0  0  0  0  0  0  0
   11.5720  -23.0106   20.5842 C   0  0  0  0  0  0  0  0  0  0  0  0
   10.9531  -24.2937   20.0047 N   0  0  0  0  0  0  0  0  0  0  0  0
   11.9820  -25.3059   20.0254 C   0  0  0  0  0  0  0  0  0  0  0  0
   10.5952  -18.3833   22.1383 O   0  0  0  0  0  0  0  0  0  0  0  0
   10.8154  -18.6088   23.3905 N   0  0  0  0  0  0  0  0  0  0  0  0
   10.7699  -17.0783   21.6229 C   0  0  2  0  0  0  0  0  0  0  0  0
   11.2215  -16.0482   22.5857 C   0  0  0  0  0  0  0  0  0  0  0  0
   10.0426  -15.7331   23.4551 C   0  0  0  0  0  0  0  0  0  0  0  0
    8.9208  -15.1285   22.7458 C   0  0  0  0  0  0  0  0  0  0  0  0
    8.9420  -14.8857   21.3749 N   0  0  0  0  0  0  0  0  0  0  0  0
    7.7673  -14.3288   21.0464 C   0  0  0  0  0  0  0  0  0  0  0  0
    7.0353  -14.2247   22.1643 N   0  0  0  0  0  0  0  0  0  0  0  0
    7.7333  -14.7121   23.2115 C   0  0  0  0  0  0  0  0  0  0  0  0
   12.3641  -16.6438   23.3314 O   0  0  0  0  0  0  0  0  0  0  0  0
   12.1465  -17.7253   24.2150 O   0  0  0  0  0  0  0  0  0  0  0  0
  2  1  1  0
  3  2  2  0
  4  2  1  0
  5  4  1  0
  6  5  1  0
  7  6  1  0
  8  9  1  1
  8  7  1  0
 10  8  1  0
 11 10  2  0
 12 10  1  0
 13 12  1  0
 13 19  1  0
 13 14  1  1
 15 14  1  0
 16 15  1  0
 17 16  1  0
 18 17  1  0
 19 21  1  0
 20 19  2  0
 21 22  1  0
 22 23  1  6
 22 29  1  0
 24 23  1  0
 25 24  2  0
 26 25  1  0
 27 26  1  0
 27 28  2  0
 28 24  1  0
 29 31  2  0
 29 30  1  0
M  END
$$$$
