KAG.pdb
     RDKit          3D

 19 18  0  0  1  0  0  0  0  0999 V2000
    7.6550  -12.6506   18.4241 N   0  0  0  0  0  0  0  0  0  0  0  0
    8.1900  -13.8702   18.9429 C   0  0  1  0  0  0  0  0  0  0  0  0
    9.4055  -14.3475   18.1641 C   0  0  0  0  0  0  0  0  0  0  0  0
    9.0574  -14.6768   16.7372 C   0  0  0  0  0  0  0  0  0  0  0  0
    9.4189  -16.0974   16.4460 C   0  0  0  0  0  0  0  0  0  0  0  0
    9.1849  -16.4966   15.0164 C   0  0  0  0  0  0  0  0  0  0  0  0
    9.6196  -17.8679   14.8347 N   0  0  0  0  0  0  0  0  0  0  0  0
    8.4456  -13.8237   20.3958 C   0  0  0  0  0  0  0  0  0  0  0  0
    9.1314  -12.8846   20.8563 O   0  0  0  0  0  0  0  0  0  0  0  0
    7.1537  -15.3807   23.5638 C   0  0  0  0  0  0  0  0  0  0  0  0
    8.2628  -14.8146   22.7075 C   0  0  2  0  0  0  0  0  0  0  0  0
    7.9528  -14.7950   21.3166 N   0  0  0  0  0  0  0  0  0  0  0  0
    9.5198  -15.5219   23.0287 C   0  0  0  0  0  0  0  0  0  0  0  0
    9.8951  -15.5877   24.2271 O   0  0  0  0  0  0  0  0  0  0  0  0
   10.3585  -16.1487   22.0677 N   0  0  0  0  0  0  0  0  0  0  0  0
   11.5015  -16.9636   22.4618 C   0  0  0  0  0  0  0  0  0  0  0  0
   12.7349  -16.1825   22.3395 C   0  0  0  0  0  0  0  0  0  0  0  0
   13.9751  -16.7084   22.6300 O   0  0  0  0  0  0  0  0  0  0  0  0
   12.6710  -14.9815   21.9545 O   0  0  0  0  0  0  0  0  0  0  0  0
  2  1  1  6
  2  3  1  0
  4  3  1  0
  4  5  1  0
  6  5  1  0
  7  6  1  0
  8  2  1  0
  8 12  1  0
  9  8  2  0
 11 10  1  1
 11 12  1  0
 11 13  1  0
 13 15  1  0
 14 13  2  0
 15 16  1  0
 17 18  1  0
 17 16  1  0
 19 17  2  0
M  END
$$$$
