KAG.pdb
     RDKit          3D

 19 18  0  0  1  0  0  0  0  0999 V2000
    8.7745  -18.0950   18.2201 N   0  0  0  0  0  0  0  0  0  0  0  0
    7.8807  -17.5346   19.1844 C   0  0  1  0  0  0  0  0  0  0  0  0
    7.4632  -18.5431   20.2427 C   0  0  0  0  0  0  0  0  0  0  0  0
    6.2465  -19.3217   19.8196 C   0  0  0  0  0  0  0  0  0  0  0  0
    5.8344  -20.2475   20.9180 C   0  0  0  0  0  0  0  0  0  0  0  0
    4.6054  -21.0508   20.5982 C   0  0  0  0  0  0  0  0  0  0  0  0
    4.3170  -21.9319   21.7130 N   0  0  0  0  0  0  0  0  0  0  0  0
    8.3779  -16.2792   19.7803 C   0  0  0  0  0  0  0  0  0  0  0  0
    9.5789  -16.2099   20.1224 O   0  0  0  0  0  0  0  0  0  0  0  0
    7.0374  -12.7712   20.4414 C   0  0  0  0  0  0  0  0  0  0  0  0
    8.0306  -13.9046   20.5550 C   0  0  2  0  0  0  0  0  0  0  0  0
    7.5634  -15.1278   19.9922 N   0  0  0  0  0  0  0  0  0  0  0  0
    8.4595  -14.0216   21.9642 C   0  0  0  0  0  0  0  0  0  0  0  0
    9.0256  -13.0426   22.5141 O   0  0  0  0  0  0  0  0  0  0  0  0
    8.2788  -15.1807   22.7666 N   0  0  0  0  0  0  0  0  0  0  0  0
    8.6317  -15.1974   24.1812 C   0  0  0  0  0  0  0  0  0  0  0  0
    9.9767  -15.7528   24.3515 C   0  0  0  0  0  0  0  0  0  0  0  0
   10.5808  -15.8619   25.5852 O   0  0  0  0  0  0  0  0  0  0  0  0
   10.6153  -16.1494   23.3369 O   0  0  0  0  0  0  0  0  0  0  0  0
  2  1  1  1
  2  3  1  0
  4  3  1  0
  4  5  1  0
  6  5  1  0
  7  6  1  0
  8  2  1  0
  8 12  1  0
  9  8  2  0
 11 10  1  1
 11 12  1  0
 11 13  1  0
 13 15  1  0
 14 13  2  0
 15 16  1  0
 17 18  1  0
 17 16  1  0
 19 17  2  0
M  END
$$$$
