KAG.pdb
     RDKit          3D

 19 18  0  0  1  0  0  0  0  0999 V2000
    7.1230  -14.9057   22.8650 N   0  0  0  0  0  0  0  0  0  0  0  0
    8.2040  -14.8172   21.9343 C   0  0  1  0  0  0  0  0  0  0  0  0
    8.4691  -13.3882   21.4880 C   0  0  0  0  0  0  0  0  0  0  0  0
    7.6466  -13.0205   20.2822 C   0  0  0  0  0  0  0  0  0  0  0  0
    8.2916  -13.5640   19.0484 C   0  0  0  0  0  0  0  0  0  0  0  0
    7.5979  -13.1584   17.7787 C   0  0  0  0  0  0  0  0  0  0  0  0
    8.2689  -13.7849   16.6563 N   0  0  0  0  0  0  0  0  0  0  0  0
    9.4323  -15.4892   22.4012 C   0  0  0  0  0  0  0  0  0  0  0  0
    9.8972  -15.1828   23.5212 O   0  0  0  0  0  0  0  0  0  0  0  0
   11.6539  -18.3744   21.3158 C   0  0  0  0  0  0  0  0  0  0  0  0
   11.3485  -17.0915   22.0538 C   0  0  2  0  0  0  0  0  0  0  0  0
   10.1290  -16.4775   21.6449 N   0  0  0  0  0  0  0  0  0  0  0  0
   12.5240  -16.2005   21.9655 C   0  0  0  0  0  0  0  0  0  0  0  0
   12.5325  -15.2833   21.1053 O   0  0  0  0  0  0  0  0  0  0  0  0
   13.6733  -16.3003   22.7956 N   0  0  0  0  0  0  0  0  0  0  0  0
   14.7681  -15.3411   22.7090 C   0  0  0  0  0  0  0  0  0  0  0  0
   15.7945  -15.6672   23.7022 C   0  0  0  0  0  0  0  0  0  0  0  0
   16.9748  -14.9633   23.8042 O   0  0  0  0  0  0  0  0  0  0  0  0
   15.6010  -16.6270   24.4997 O   0  0  0  0  0  0  0  0  0  0  0  0
  2  1  1  1
  2  3  1  0
  4  3  1  0
  4  5  1  0
  6  5  1  0
  7  6  1  0
  8  2  1  0
  8 12  1  0
  9  8  2  0
 11 10  1  6
 11 12  1  0
 11 13  1  0
 13 15  1  0
 14 13  2  0
 15 16  1  0
 17 18  1  0
 17 16  1  0
 19 17  2  0
M  END
$$$$
