KAG.pdb
     RDKit          3D

 19 18  0  0  1  0  0  0  0  0999 V2000
    7.2443  -17.1777   21.2482 N   0  0  0  0  0  0  0  0  0  0  0  0
    6.6706  -17.1578   22.5571 C   0  0  1  0  0  0  0  0  0  0  0  0
    6.5361  -18.5504   23.1522 C   0  0  0  0  0  0  0  0  0  0  0  0
    5.6114  -19.4158   22.3388 C   0  0  0  0  0  0  0  0  0  0  0  0
    5.3457  -20.6929   23.0682 C   0  0  0  0  0  0  0  0  0  0  0  0
    4.4501  -21.6384   22.3187 C   0  0  0  0  0  0  0  0  0  0  0  0
    4.1696  -22.7857   23.1599 N   0  0  0  0  0  0  0  0  0  0  0  0
    7.3492  -16.2247   23.4774 C   0  0  0  0  0  0  0  0  0  0  0  0
    8.5961  -16.2671   23.5658 O   0  0  0  0  0  0  0  0  0  0  0  0
    6.4278  -13.2099   25.6015 C   0  0  0  0  0  0  0  0  0  0  0  0
    7.3009  -14.3718   25.1874 C   0  0  2  0  0  0  0  0  0  0  0  0
    6.6624  -15.2672   24.2809 N   0  0  0  0  0  0  0  0  0  0  0  0
    7.8276  -15.0276   26.4023 C   0  0  0  0  0  0  0  0  0  0  0  0
    8.4392  -14.3344   27.2547 O   0  0  0  0  0  0  0  0  0  0  0  0
    7.6946  -16.4129   26.6907 N   0  0  0  0  0  0  0  0  0  0  0  0
    8.0804  -16.9683   27.9825 C   0  0  0  0  0  0  0  0  0  0  0  0
    9.4129  -17.5696   27.8872 C   0  0  0  0  0  0  0  0  0  0  0  0
   10.0089  -18.2184   28.9469 O   0  0  0  0  0  0  0  0  0  0  0  0
   10.0481  -17.4968   26.7982 O   0  0  0  0  0  0  0  0  0  0  0  0
  2  1  1  6
  2  3  1  0
  4  3  1  0
  4  5  1  0
  6  5  1  0
  7  6  1  0
  8  2  1  0
  8 12  1  0
  9  8  2  0
 11 10  1  1
 11 12  1  0
 11 13  1  0
 13 15  1  0
 14 13  2  0
 15 16  1  0
 17 18  1  0
 17 16  1  0
 19 17  2  0
M  END
$$$$
