KAG.pdb
     RDKit          3D

 19 18  0  0  1  0  0  0  0  0999 V2000
    9.9910  -16.9095   19.4287 N   0  0  0  0  0  0  0  0  0  0  0  0
    9.0177  -16.9138   20.4754 C   0  0  1  0  0  0  0  0  0  0  0  0
    8.1375  -18.1531   20.4432 C   0  0  0  0  0  0  0  0  0  0  0  0
    8.5416  -19.0937   19.3397 C   0  0  0  0  0  0  0  0  0  0  0  0
    7.7273  -20.3442   19.4210 C   0  0  0  0  0  0  0  0  0  0  0  0
    8.0975  -21.3711   18.3884 C   0  0  0  0  0  0  0  0  0  0  0  0
    7.2966  -22.5609   18.6012 N   0  0  0  0  0  0  0  0  0  0  0  0
    9.5978  -16.6803   21.8123 C   0  0  0  0  0  0  0  0  0  0  0  0
   10.7234  -17.1598   22.0719 O   0  0  0  0  0  0  0  0  0  0  0  0
    8.7301  -14.7263   24.9654 C   0  0  0  0  0  0  0  0  0  0  0  0
    9.4314  -15.8038   24.1711 C   0  0  2  0  0  0  0  0  0  0  0  0
    8.9458  -15.9331   22.8373 N   0  0  0  0  0  0  0  0  0  0  0  0
    9.3965  -17.0630   24.9434 C   0  0  0  0  0  0  0  0  0  0  0  0
    8.3460  -17.7541   24.9385 O   0  0  0  0  0  0  0  0  0  0  0  0
   10.4820  -17.5671   25.7098 N   0  0  0  0  0  0  0  0  0  0  0  0
   10.4138  -18.8610   26.3786 C   0  0  0  0  0  0  0  0  0  0  0  0
   11.6930  -19.1516   27.0309 C   0  0  0  0  0  0  0  0  0  0  0  0
   11.8989  -20.2890   27.7812 O   0  0  0  0  0  0  0  0  0  0  0  0
   12.6495  -18.3364   26.9078 O   0  0  0  0  0  0  0  0  0  0  0  0
  2  1  1  6
  2  3  1  0
  4  3  1  0
  4  5  1  0
  6  5  1  0
  7  6  1  0
  8  2  1  0
  8 12  1  0
  9  8  2  0
 11 10  1  1
 11 12  1  0
 11 13  1  0
 13 15  1  0
 14 13  2  0
 15 16  1  0
 17 18  1  0
 17 16  1  0
 19 17  2  0
M  END
$$$$
