KAG.pdb
     RDKit          3D

 19 18  0  0  1  0  0  0  0  0999 V2000
    7.2772  -12.5456   17.9120 N   0  0  0  0  0  0  0  0  0  0  0  0
    7.8807  -13.7375   18.4197 C   0  0  1  0  0  0  0  0  0  0  0  0
    9.2346  -14.0166   17.7868 C   0  0  0  0  0  0  0  0  0  0  0  0
    9.1039  -14.3817   16.3324 C   0  0  0  0  0  0  0  0  0  0  0  0
    9.4379  -15.8262   16.1441 C   0  0  0  0  0  0  0  0  0  0  0  0
    9.2928  -16.2970   14.7245 C   0  0  0  0  0  0  0  0  0  0  0  0
    9.5392  -17.7250   14.6759 N   0  0  0  0  0  0  0  0  0  0  0  0
    7.9385  -13.7799   19.8939 C   0  0  0  0  0  0  0  0  0  0  0  0
    8.2602  -12.7421   20.5134 O   0  0  0  0  0  0  0  0  0  0  0  0
    6.9931  -16.1729   22.6872 C   0  0  0  0  0  0  0  0  0  0  0  0
    7.7622  -15.0215   22.0818 C   0  0  2  0  0  0  0  0  0  0  0  0
    7.6466  -14.9447   20.6633 N   0  0  0  0  0  0  0  0  0  0  0  0
    9.1576  -15.0755   22.5646 C   0  0  0  0  0  0  0  0  0  0  0  0
    9.3737  -15.1790   23.7991 O   0  0  0  0  0  0  0  0  0  0  0  0
   10.3025  -15.0183   21.7245 N   0  0  0  0  0  0  0  0  0  0  0  0
   11.6388  -15.3148   22.2269 C   0  0  0  0  0  0  0  0  0  0  0  0
   12.3869  -16.0816   21.2277 C   0  0  0  0  0  0  0  0  0  0  0  0
   12.5851  -17.4411   21.3353 O   0  0  0  0  0  0  0  0  0  0  0  0
   12.8725  -15.4850   20.2263 O   0  0  0  0  0  0  0  0  0  0  0  0
  2  1  1  1
  2  3  1  0
  4  3  1  0
  4  5  1  0
  6  5  1  0
  7  6  1  0
  8  2  1  0
  8 12  1  0
  9  8  2  0
 11 10  1  6
 11 12  1  0
 11 13  1  0
 13 15  1  0
 14 13  2  0
 15 16  1  0
 17 18  1  0
 17 16  1  0
 19 17  2  0
M  END
$$$$
