YDI.pdb
     RDKit          3D

 29 29  0  0  1  0  0  0  0  0999 V2000
   13.9980  -15.4095  -16.2623 O   0  0  0  0  0  0  0  0  0  0  0  0
   14.5323  -14.3259  -15.5526 C   0  0  0  0  0  0  0  0  0  0  0  0
   14.0988  -13.0358  -15.7774 C   0  0  0  0  0  0  0  0  0  0  0  0
   14.6336  -11.9768  -15.0713 C   0  0  0  0  0  0  0  0  0  0  0  0
   15.6146  -12.1467  -14.1177 C   0  0  0  0  0  0  0  0  0  0  0  0
   16.1978  -11.0113  -13.3477 C   0  0  0  0  0  0  0  0  0  0  0  0
   17.1549  -10.2053  -14.2018 C   0  0  2  0  0  0  0  0  0  0  0  0
   18.3795  -10.9460  -14.4005 N   0  0  0  0  0  0  0  0  0  0  0  0
   17.4150   -8.8533  -13.6248 C   0  0  0  0  0  0  0  0  0  0  0  0
   18.3235   -8.7896  -12.7684 O   0  0  0  0  0  0  0  0  0  0  0  0
   16.0489  -13.4447  -13.8930 C   0  0  0  0  0  0  0  0  0  0  0  0
   15.5138  -14.5094  -14.6005 C   0  0  0  0  0  0  0  0  0  0  0  0
   16.7125   -7.7091  -13.9904 N   0  0  0  0  0  0  0  0  0  0  0  0
   16.9404   -6.3483  -13.4981 C   0  0  1  0  0  0  0  0  0  0  0  0
   17.1280   -5.4421  -14.6626 C   0  0  0  0  0  0  0  0  0  0  0  0
   17.3980   -4.0444  -14.2977 C   0  0  0  0  0  0  0  0  0  0  0  0
   18.3479   -3.7324  -13.5629 O   0  0  0  0  0  0  0  0  0  0  0  0
   15.9806   -5.9675  -12.5115 C   0  0  0  0  0  0  0  0  0  0  0  0
   14.7715   -6.3716  -12.6461 O   0  0  0  0  0  0  0  0  0  0  0  0
   16.5765   -3.0024  -14.7749 O   0  0  0  0  0  0  0  0  0  0  0  0
   15.8399   -7.3341   -7.6166 C   0  0  0  0  0  0  0  0  0  0  0  0
   15.3439   -6.8284   -8.9539 C   0  0  0  0  0  0  0  0  0  0  0  0
   15.5426   -5.3328   -9.0837 C   0  0  2  0  0  0  0  0  0  0  0  0
   14.8961   -4.5942   -7.9505 C   0  0  0  0  0  0  0  0  0  0  0  0
   15.1659   -4.8120  -10.4430 C   0  0  2  0  0  0  0  0  0  0  0  0
   16.2316   -5.1823  -11.3768 N   0  0  0  0  0  0  0  0  0  0  0  0
   15.0910   -3.3494  -10.3512 C   0  0  0  0  0  0  0  0  0  0  0  0
   16.0707   -2.6309  -10.6729 O   0  0  0  0  0  0  0  0  0  0  0  0
   13.9537   -2.7223   -9.9130 O   0  0  0  0  0  0  0  0  0  0  0  0
  2  1  1  0
  3  2  2  0
  4  3  1  0
  5  4  2  0
  5 11  1  0
  6  5  1  0
  7  8  1  1
  7  6  1  0
  9  7  1  0
 10  9  2  0
 11 12  2  0
 12  2  1  0
 13  9  1  0
 14 18  1  0
 14 13  1  0
 14 15  1  6
 16 15  1  0
 17 16  2  0
 18 19  2  0
 20 16  1  0
 22 21  1  0
 23 24  1  1
 23 22  1  0
 25 23  1  0
 25 26  1  6
 26 18  1  0
 27 29  1  0
 27 25  1  0
 28 27  2  0
M  END
$$$$
