YDI.pdb
     RDKit          3D

 29 29  0  0  1  0  0  0  0  0999 V2000
   28.2025  -18.9554   -3.0406 O   0  0  0  0  0  0  0  0  0  0  0  0
   27.8610  -19.3166   -4.3507 C   0  0  0  0  0  0  0  0  0  0  0  0
   27.7511  -20.6395   -4.7258 C   0  0  0  0  0  0  0  0  0  0  0  0
   27.4139  -20.9821   -6.0200 C   0  0  0  0  0  0  0  0  0  0  0  0
   27.1721  -20.0367   -6.9939 C   0  0  0  0  0  0  0  0  0  0  0  0
   26.8053  -20.3947   -8.3937 C   0  0  0  0  0  0  0  0  0  0  0  0
   25.3205  -20.6697   -8.5169 C   0  0  2  0  0  0  0  0  0  0  0  0
   24.9521  -21.7727   -7.6595 N   0  0  0  0  0  0  0  0  0  0  0  0
   24.9131  -20.9110   -9.9326 C   0  0  0  0  0  0  0  0  0  0  0  0
   25.2904  -21.9924  -10.4337 O   0  0  0  0  0  0  0  0  0  0  0  0
   27.2829  -18.7071   -6.6147 C   0  0  0  0  0  0  0  0  0  0  0  0
   27.6214  -18.3606   -5.3162 C   0  0  0  0  0  0  0  0  0  0  0  0
   24.1598  -20.0136  -10.6835 N   0  0  0  0  0  0  0  0  0  0  0  0
   23.8312  -20.1241  -12.1068 C   0  0  1  0  0  0  0  0  0  0  0  0
   22.4315  -19.6652  -12.3130 C   0  0  0  0  0  0  0  0  0  0  0  0
   21.4187  -20.5323  -11.6947 C   0  0  0  0  0  0  0  0  0  0  0  0
   21.4153  -21.7607  -11.8691 O   0  0  0  0  0  0  0  0  0  0  0  0
   24.8437  -19.5529  -12.9365 C   0  0  0  0  0  0  0  0  0  0  0  0
   25.0991  -18.3022  -12.8169 O   0  0  0  0  0  0  0  0  0  0  0  0
   20.4069  -19.9897  -10.8761 O   0  0  0  0  0  0  0  0  0  0  0  0
   29.5357  -21.2725  -12.6028 C   0  0  0  0  0  0  0  0  0  0  0  0
   28.2828  -20.4596  -12.8471 C   0  0  0  0  0  0  0  0  0  0  0  0
   27.9683  -20.3663  -14.3254 C   0  0  2  0  0  0  0  0  0  0  0  0
   29.1580  -19.9008  -15.1100 C   0  0  0  0  0  0  0  0  0  0  0  0
   26.7127  -19.5875  -14.6047 C   0  0  2  0  0  0  0  0  0  0  0  0
   25.6128  -20.2375  -13.8888 N   0  0  0  0  0  0  0  0  0  0  0  0
   26.4589  -19.6601  -16.0481 C   0  0  0  0  0  0  0  0  0  0  0  0
   25.5915  -20.4418  -16.5131 O   0  0  0  0  0  0  0  0  0  0  0  0
   27.1577  -18.8802  -16.9325 O   0  0  0  0  0  0  0  0  0  0  0  0
  2  1  1  0
  3  2  2  0
  4  3  1  0
  5  4  2  0
  5 11  1  0
  6  5  1  0
  7  8  1  1
  7  6  1  0
  9  7  1  0
 10  9  2  0
 11 12  2  0
 12  2  1  0
 13  9  1  0
 14 18  1  0
 14 13  1  0
 14 15  1  1
 16 15  1  0
 17 16  2  0
 18 19  2  0
 20 16  1  0
 22 21  1  0
 23 24  1  6
 23 22  1  0
 25 23  1  0
 25 26  1  1
 26 18  1  0
 27 29  1  0
 27 25  1  0
 28 27  2  0
M  END
$$$$
