YDI.pdb
     RDKit          3D

 29 29  0  0  1  0  0  0  0  0999 V2000
   32.9713  -16.3121  -19.6057 O   0  0  0  0  0  0  0  0  0  0  0  0
   31.7669  -16.3647  -18.8914 C   0  0  0  0  0  0  0  0  0  0  0  0
   30.7146  -15.5258  -19.1944 C   0  0  0  0  0  0  0  0  0  0  0  0
   29.5332  -15.5878  -18.4828 C   0  0  0  0  0  0  0  0  0  0  0  0
   29.3422  -16.4769  -17.4467 C   0  0  0  0  0  0  0  0  0  0  0  0
   28.0704  -16.5543  -16.6728 C   0  0  0  0  0  0  0  0  0  0  0  0
   27.5642  -17.9801  -16.5934 C   0  0  2  0  0  0  0  0  0  0  0  0
   27.5198  -18.5603  -17.9159 N   0  0  0  0  0  0  0  0  0  0  0  0
   26.2405  -18.0652  -15.9085 C   0  0  0  0  0  0  0  0  0  0  0  0
   26.1515  -17.4675  -14.8141 O   0  0  0  0  0  0  0  0  0  0  0  0
   30.4013  -17.3197  -17.1438 C   0  0  0  0  0  0  0  0  0  0  0  0
   31.5884  -17.2594  -17.8564 C   0  0  0  0  0  0  0  0  0  0  0  0
   25.1476  -18.7564  -16.4226 N   0  0  0  0  0  0  0  0  0  0  0  0
   23.8395  -18.9233  -15.7846 C   0  0  1  0  0  0  0  0  0  0  0  0
   22.7861  -18.8895  -16.8343 C   0  0  0  0  0  0  0  0  0  0  0  0
   21.4259  -19.1169  -16.3266 C   0  0  0  0  0  0  0  0  0  0  0  0
   21.0056  -18.5497  -15.3063 O   0  0  0  0  0  0  0  0  0  0  0  0
   23.8258  -20.0190  -14.8687 C   0  0  0  0  0  0  0  0  0  0  0  0
   24.1982  -21.1718  -15.2882 O   0  0  0  0  0  0  0  0  0  0  0  0
   20.5462  -19.9975  -16.9892 O   0  0  0  0  0  0  0  0  0  0  0  0
   25.7004  -21.7293   -9.5533 C   0  0  0  0  0  0  0  0  0  0  0  0
   24.5912  -21.9848  -10.5505 C   0  0  0  0  0  0  0  0  0  0  0  0
   24.4615  -20.8399  -11.5332 C   0  0  2  0  0  0  0  0  0  0  0  0
   24.1894  -19.5436  -10.8307 C   0  0  0  0  0  0  0  0  0  0  0  0
   23.5017  -21.1392  -12.6512 C   0  0  2  0  0  0  0  0  0  0  0  0
   23.4439  -19.9620  -13.5204 N   0  0  0  0  0  0  0  0  0  0  0  0
   22.1807  -21.3625  -12.0524 C   0  0  0  0  0  0  0  0  0  0  0  0
   21.9273  -22.4202  -11.4227 O   0  0  0  0  0  0  0  0  0  0  0  0
   21.1843  -20.4275  -12.1606 O   0  0  0  0  0  0  0  0  0  0  0  0
  2  1  1  0
  3  2  2  0
  4  3  1  0
  5  4  2  0
  5 11  1  0
  6  5  1  0
  7  8  1  6
  7  6  1  0
  9  7  1  0
 10  9  2  0
 11 12  2  0
 12  2  1  0
 13  9  1  0
 14 18  1  0
 14 13  1  0
 14 15  1  6
 16 15  1  0
 17 16  2  0
 18 19  2  0
 20 16  1  0
 22 21  1  0
 23 24  1  1
 23 22  1  0
 25 23  1  0
 25 26  1  6
 26 18  1  0
 27 29  1  0
 27 25  1  0
 28 27  2  0
M  END
$$$$
