YDI.pdb
     RDKit          3D

 29 29  0  0  1  0  0  0  0  0999 V2000
   27.1634  -20.0216   -7.4491 O   0  0  0  0  0  0  0  0  0  0  0  0
   26.5896  -20.0848   -8.7259 C   0  0  0  0  0  0  0  0  0  0  0  0
   27.3697  -20.1495   -9.8618 C   0  0  0  0  0  0  0  0  0  0  0  0
   26.7918  -20.2113  -11.1141 C   0  0  0  0  0  0  0  0  0  0  0  0
   25.4252  -20.2121  -11.2964 C   0  0  0  0  0  0  0  0  0  0  0  0
   24.7901  -20.2808  -12.6433 C   0  0  0  0  0  0  0  0  0  0  0  0
   24.4118  -21.7043  -12.9978 C   0  0  2  0  0  0  0  0  0  0  0  0
   25.5546  -22.3934  -13.5516 N   0  0  0  0  0  0  0  0  0  0  0  0
   23.2366  -21.7572  -13.9169 C   0  0  0  0  0  0  0  0  0  0  0  0
   23.4933  -21.6800  -15.1379 O   0  0  0  0  0  0  0  0  0  0  0  0
   24.6427  -20.1474  -10.1530 C   0  0  0  0  0  0  0  0  0  0  0  0
   25.2203  -20.0850   -8.8948 C   0  0  0  0  0  0  0  0  0  0  0  0
   21.9208  -21.8842  -13.4821 N   0  0  0  0  0  0  0  0  0  0  0  0
   20.7282  -21.9975  -14.3253 C   0  0  1  0  0  0  0  0  0  0  0  0
   19.9646  -23.2065  -13.9160 C   0  0  0  0  0  0  0  0  0  0  0  0
   18.7544  -23.4500  -14.7134 C   0  0  0  0  0  0  0  0  0  0  0  0
   18.6780  -23.1134  -15.9052 O   0  0  0  0  0  0  0  0  0  0  0  0
   20.0152  -20.7632  -14.4138 C   0  0  0  0  0  0  0  0  0  0  0  0
   19.9104  -20.0402  -13.3602 O   0  0  0  0  0  0  0  0  0  0  0  0
   17.6289  -24.0793  -14.1429 O   0  0  0  0  0  0  0  0  0  0  0  0
   20.5927  -17.2819  -18.3094 C   0  0  0  0  0  0  0  0  0  0  0  0
   20.2915  -17.7821  -16.9133 C   0  0  0  0  0  0  0  0  0  0  0  0
   18.8588  -18.2586  -16.7977 C   0  0  2  0  0  0  0  0  0  0  0  0
   17.8889  -17.1419  -17.0427 C   0  0  0  0  0  0  0  0  0  0  0  0
   18.6004  -19.0213  -15.5279 C   0  0  2  0  0  0  0  0  0  0  0  0
   19.4076  -20.2427  -15.5657 N   0  0  0  0  0  0  0  0  0  0  0  0
   17.1783  -19.3828  -15.5106 C   0  0  0  0  0  0  0  0  0  0  0  0
   16.3670  -18.7782  -14.7652 O   0  0  0  0  0  0  0  0  0  0  0  0
   16.6911  -20.3885  -16.3044 O   0  0  0  0  0  0  0  0  0  0  0  0
  2  1  1  0
  3  2  2  0
  4  3  1  0
  5  4  2  0
  5 11  1  0
  6  5  1  0
  7  8  1  6
  7  6  1  0
  9  7  1  0
 10  9  2  0
 11 12  2  0
 12  2  1  0
 13  9  1  0
 14 18  1  0
 14 13  1  0
 14 15  1  1
 16 15  1  0
 17 16  2  0
 18 19  2  0
 20 16  1  0
 22 21  1  0
 23 24  1  1
 23 22  1  0
 25 23  1  0
 25 26  1  6
 26 18  1  0
 27 29  1  0
 27 25  1  0
 28 27  2  0
M  END
$$$$
