YDI.pdb
     RDKit          3D

 29 29  0  0  1  0  0  0  0  0999 V2000
   24.8258  -14.5460  -23.7360 O   0  0  0  0  0  0  0  0  0  0  0  0
   23.8366  -13.6836  -23.2450 C   0  0  0  0  0  0  0  0  0  0  0  0
   22.4965  -13.9321  -23.4578 C   0  0  0  0  0  0  0  0  0  0  0  0
   21.5317  -13.0743  -22.9687 C   0  0  0  0  0  0  0  0  0  0  0  0
   21.8484  -11.9400  -22.2520 C   0  0  0  0  0  0  0  0  0  0  0  0
   20.8153  -11.0079  -21.7171 C   0  0  0  0  0  0  0  0  0  0  0  0
   20.2106  -11.5394  -20.4337 C   0  0  2  0  0  0  0  0  0  0  0  0
   19.4881  -12.7620  -20.7001 N   0  0  0  0  0  0  0  0  0  0  0  0
   19.3480  -10.5239  -19.7606 C   0  0  0  0  0  0  0  0  0  0  0  0
   18.1463  -10.5124  -20.1049 O   0  0  0  0  0  0  0  0  0  0  0  0
   23.1963  -11.6921  -22.0388 C   0  0  0  0  0  0  0  0  0  0  0  0
   24.1668  -12.5515  -22.5289 C   0  0  0  0  0  0  0  0  0  0  0  0
   19.8134   -9.6271  -18.8036 N   0  0  0  0  0  0  0  0  0  0  0  0
   19.0484   -8.5519  -18.1675 C   0  0  1  0  0  0  0  0  0  0  0  0
   18.8883   -8.8671  -16.7227 C   0  0  0  0  0  0  0  0  0  0  0  0
   18.0453   -7.9118  -15.9901 C   0  0  0  0  0  0  0  0  0  0  0  0
   17.5853   -6.8955  -16.5333 O   0  0  0  0  0  0  0  0  0  0  0  0
   19.5519   -7.2603  -18.5109 C   0  0  0  0  0  0  0  0  0  0  0  0
   20.8076   -7.0381  -18.3785 O   0  0  0  0  0  0  0  0  0  0  0  0
   17.7304   -8.1214  -14.6318 O   0  0  0  0  0  0  0  0  0  0  0  0
   17.5324   -4.4996  -22.6376 C   0  0  0  0  0  0  0  0  0  0  0  0
   18.4605   -5.1215  -21.6167 C   0  0  0  0  0  0  0  0  0  0  0  0
   18.5989   -4.2414  -20.3922 C   0  0  2  0  0  0  0  0  0  0  0  0
   19.0646   -2.8640  -20.7578 C   0  0  0  0  0  0  0  0  0  0  0  0
   19.4067   -4.8870  -19.3006 C   0  0  2  0  0  0  0  0  0  0  0  0
   18.7966   -6.1834  -18.9975 N   0  0  0  0  0  0  0  0  0  0  0  0
   19.3200   -4.0241  -18.1168 C   0  0  0  0  0  0  0  0  0  0  0  0
   18.4379   -4.2143  -17.2419 O   0  0  0  0  0  0  0  0  0  0  0  0
   20.1954   -2.9864  -17.9283 O   0  0  0  0  0  0  0  0  0  0  0  0
  2  1  1  0
  3  2  2  0
  4  3  1  0
  5  4  2  0
  5 11  1  0
  6  5  1  0
  7  8  1  6
  7  6  1  0
  9  7  1  0
 10  9  2  0
 11 12  2  0
 12  2  1  0
 13  9  1  0
 14 18  1  0
 14 13  1  0
 14 15  1  1
 16 15  1  0
 17 16  2  0
 18 19  2  0
 20 16  1  0
 22 21  1  0
 23 24  1  6
 23 22  1  0
 25 23  1  0
 25 26  1  1
 26 18  1  0
 27 29  1  0
 27 25  1  0
 28 27  2  0
M  END
$$$$
