YDI.pdb
     RDKit          3D

 29 29  0  0  1  0  0  0  0  0999 V2000
   15.5235  -16.4432  -19.9878 O   0  0  0  0  0  0  0  0  0  0  0  0
   15.7901  -15.2068  -19.3847 C   0  0  0  0  0  0  0  0  0  0  0  0
   16.8988  -14.4626  -19.7308 C   0  0  0  0  0  0  0  0  0  0  0  0
   17.1500  -13.2459  -19.1289 C   0  0  0  0  0  0  0  0  0  0  0  0
   16.3204  -12.7151  -18.1642 C   0  0  0  0  0  0  0  0  0  0  0  0
   16.5803  -11.4015  -17.5091 C   0  0  0  0  0  0  0  0  0  0  0  0
   17.6138  -11.5337  -16.4091 C   0  0  2  0  0  0  0  0  0  0  0  0
   17.0655  -12.2916  -15.3080 N   0  0  0  0  0  0  0  0  0  0  0  0
   18.1273  -10.2048  -15.9631 C   0  0  0  0  0  0  0  0  0  0  0  0
   17.3489   -9.5259  -15.2588 O   0  0  0  0  0  0  0  0  0  0  0  0
   15.2060  -13.4647  -17.8178 C   0  0  0  0  0  0  0  0  0  0  0  0
   14.9516  -14.6865  -18.4204 C   0  0  0  0  0  0  0  0  0  0  0  0
   19.3883   -9.7149  -16.2889 N   0  0  0  0  0  0  0  0  0  0  0  0
   19.9518   -8.4206  -15.8971 C   0  0  1  0  0  0  0  0  0  0  0  0
   21.4359   -8.5147  -15.9273 C   0  0  0  0  0  0  0  0  0  0  0  0
   22.1236   -7.2697  -15.5576 C   0  0  0  0  0  0  0  0  0  0  0  0
   23.0176   -6.7814  -16.2660 O   0  0  0  0  0  0  0  0  0  0  0  0
   19.3433   -7.3364  -16.5999 C   0  0  0  0  0  0  0  0  0  0  0  0
   19.1711   -7.4473  -17.8654 O   0  0  0  0  0  0  0  0  0  0  0  0
   21.7866   -6.5838  -14.3726 O   0  0  0  0  0  0  0  0  0  0  0  0
   14.5525   -4.4328  -17.5041 C   0  0  0  0  0  0  0  0  0  0  0  0
   16.0349   -4.1318  -17.4588 C   0  0  0  0  0  0  0  0  0  0  0  0
   16.7874   -5.1935  -16.6844 C   0  0  2  0  0  0  0  0  0  0  0  0
   16.3321   -5.2562  -15.2573 C   0  0  0  0  0  0  0  0  0  0  0  0
   18.2785   -5.0815  -16.8430 C   0  0  2  0  0  0  0  0  0  0  0  0
   18.8963   -6.1338  -16.0332 N   0  0  0  0  0  0  0  0  0  0  0  0
   18.6817   -3.7709  -16.3206 C   0  0  0  0  0  0  0  0  0  0  0  0
   18.4411   -2.7176  -16.9626 O   0  0  0  0  0  0  0  0  0  0  0  0
   19.3318   -3.6541  -15.1195 O   0  0  0  0  0  0  0  0  0  0  0  0
  2  1  1  0
  3  2  2  0
  4  3  1  0
  5  4  2  0
  5 11  1  0
  6  5  1  0
  7  8  1  1
  7  6  1  0
  9  7  1  0
 10  9  2  0
 11 12  2  0
 12  2  1  0
 13  9  1  0
 14 18  1  0
 14 13  1  0
 14 15  1  6
 16 15  1  0
 17 16  2  0
 18 19  2  0
 20 16  1  0
 22 21  1  0
 23 24  1  1
 23 22  1  0
 25 23  1  0
 25 26  1  1
 26 18  1  0
 27 29  1  0
 27 25  1  0
 28 27  2  0
M  END
$$$$
