YDI.pdb
     RDKit          3D

 29 29  0  0  1  0  0  0  0  0999 V2000
   14.4755  -21.2945  -21.2028 O   0  0  0  0  0  0  0  0  0  0  0  0
   15.4976  -21.5504  -20.2791 C   0  0  0  0  0  0  0  0  0  0  0  0
   16.3618  -20.5561  -19.8699 C   0  0  0  0  0  0  0  0  0  0  0  0
   17.3648  -20.8214  -18.9592 C   0  0  0  0  0  0  0  0  0  0  0  0
   17.5556  -22.0743  -18.4165 C   0  0  0  0  0  0  0  0  0  0  0  0
   18.6336  -22.3719  -17.4308 C   0  0  0  0  0  0  0  0  0  0  0  0
   19.9515  -22.6439  -18.1269 C   0  0  2  0  0  0  0  0  0  0  0  0
   20.0034  -24.0213  -18.5602 N   0  0  0  0  0  0  0  0  0  0  0  0
   21.1200  -22.2912  -17.2674 C   0  0  0  0  0  0  0  0  0  0  0  0
   21.4399  -23.1377  -16.4048 O   0  0  0  0  0  0  0  0  0  0  0  0
   16.6855  -23.0725  -18.8289 C   0  0  0  0  0  0  0  0  0  0  0  0
   15.6779  -22.8089  -19.7432 C   0  0  0  0  0  0  0  0  0  0  0  0
   21.8363  -21.1042  -17.3865 N   0  0  0  0  0  0  0  0  0  0  0  0
   23.0105  -20.7090  -16.6046 C   0  0  1  0  0  0  0  0  0  0  0  0
   23.6807  -19.5705  -17.2879 C   0  0  0  0  0  0  0  0  0  0  0  0
   24.2846  -19.9188  -18.5817 C   0  0  0  0  0  0  0  0  0  0  0  0
   25.1704  -20.7822  -18.6784 O   0  0  0  0  0  0  0  0  0  0  0  0
   22.7055  -20.5610  -15.2172 C   0  0  0  0  0  0  0  0  0  0  0  0
   21.4754  -20.4692  -14.8676 O   0  0  0  0  0  0  0  0  0  0  0  0
   23.8731  -19.2748  -19.7667 O   0  0  0  0  0  0  0  0  0  0  0  0
   24.9180  -21.7944   -9.6212 C   0  0  0  0  0  0  0  0  0  0  0  0
   23.8617  -21.0975  -10.4510 C   0  0  0  0  0  0  0  0  0  0  0  0
   24.2392  -21.0787  -11.9174 C   0  0  2  0  0  0  0  0  0  0  0  0
   25.6396  -20.5816  -12.1159 C   0  0  0  0  0  0  0  0  0  0  0  0
   23.2185  -20.3791  -12.7716 C   0  0  2  0  0  0  0  0  0  0  0  0
   23.6360  -20.5115  -14.1691 N   0  0  0  0  0  0  0  0  0  0  0  0
   23.2264  -18.9602  -12.3977 C   0  0  0  0  0  0  0  0  0  0  0  0
   23.9999  -18.1472  -12.9637 O   0  0  0  0  0  0  0  0  0  0  0  0
   22.3930  -18.4778  -11.4222 O   0  0  0  0  0  0  0  0  0  0  0  0
  2  1  1  0
  3  2  2  0
  4  3  1  0
  5  4  2  0
  5 11  1  0
  6  5  1  0
  7  8  1  1
  7  6  1  0
  9  7  1  0
 10  9  2  0
 11 12  2  0
 12  2  1  0
 13  9  1  0
 14 18  1  0
 14 13  1  0
 14 15  1  6
 16 15  1  0
 17 16  2  0
 18 19  2  0
 20 16  1  0
 22 21  1  0
 23 24  1  1
 23 22  1  0
 25 23  1  0
 25 26  1  6
 26 18  1  0
 27 29  1  0
 27 25  1  0
 28 27  2  0
M  END
$$$$
