AND.pdb
     RDKit          3D

 22 21  0  0  1  0  0  0  0  0999 V2000
   17.5964  -12.2147  -17.2583 C   0  0  0  0  0  0  0  0  0  0  0  0
   17.7317  -10.8286  -17.8252 C   0  0  2  0  0  0  0  0  0  0  0  0
   18.5655  -10.9201  -19.0197 N   0  0  0  0  0  0  0  0  0  0  0  0
   18.3397   -9.8632  -16.8978 C   0  0  0  0  0  0  0  0  0  0  0  0
   17.7683   -9.6399  -15.7891 O   0  0  0  0  0  0  0  0  0  0  0  0
   21.3787   -9.9657  -14.3436 N   0  0  0  0  0  0  0  0  0  0  0  0
   22.1104   -9.2693  -15.3200 C   0  0  0  0  0  0  0  0  0  0  0  0
   23.3801   -9.4703  -15.3277 O   0  0  0  0  0  0  0  0  0  0  0  0
   21.6084   -8.3462  -16.3299 C   0  0  0  0  0  0  0  0  0  0  0  0
   20.1262   -8.1915  -16.3335 C   0  0  2  0  0  0  0  0  0  0  0  0
   19.5356   -9.1892  -17.2212 N   0  0  0  0  0  0  0  0  0  0  0  0
   19.7413   -6.8444  -16.8972 C   0  0  0  0  0  0  0  0  0  0  0  0
   19.8897   -6.6066  -18.1082 O   0  0  0  0  0  0  0  0  0  0  0  0
   19.2072   -5.8306  -16.0610 N   0  0  0  0  0  0  0  0  0  0  0  0
   18.8489   -4.5445  -16.6158 C   0  0  1  0  0  0  0  0  0  0  0  0
   17.3364   -4.3644  -16.5155 C   0  0  0  0  0  0  0  0  0  0  0  0
   16.9259   -3.0192  -16.9689 C   0  0  0  0  0  0  0  0  0  0  0  0
   17.2782   -2.5756  -18.0932 O   0  0  0  0  0  0  0  0  0  0  0  0
   19.5509   -3.4310  -15.9318 C   0  0  0  0  0  0  0  0  0  0  0  0
   19.8665   -3.5687  -14.7249 O   0  0  0  0  0  0  0  0  0  0  0  0
   16.1379   -2.1934  -16.1775 O   0  0  0  0  0  0  0  0  0  0  0  0
   19.8541   -2.2632  -16.6051 O   0  0  0  0  0  0  0  0  0  0  0  0
  2  1  1  1
  2  3  1  0
  4  2  1  0
  4 11  1  0
  5  4  2  0
  7  8  2  0
  7  6  1  0
  9  7  1  0
 10 11  1  0
 10  9  1  6
 10 12  1  0
 12 13  2  0
 12 14  1  0
 14 15  1  0
 15 16  1  1
 16 17  1  0
 17 21  1  0
 18 17  2  0
 19 22  1  0
 19 15  1  0
 20 19  2  0
M  END
$$$$
