AND.pdb
     RDKit          3D

 22 21  0  0  1  0  0  0  0  0999 V2000
   14.2173  -13.4301  -11.7616 C   0  0  0  0  0  0  0  0  0  0  0  0
   14.1055  -12.3191  -10.7545 C   0  0  2  0  0  0  0  0  0  0  0  0
   12.7681  -12.3834  -10.1736 N   0  0  0  0  0  0  0  0  0  0  0  0
   14.3096  -10.9783  -11.3225 C   0  0  0  0  0  0  0  0  0  0  0  0
   13.7097  -10.6732  -12.3961 O   0  0  0  0  0  0  0  0  0  0  0  0
   16.0663   -6.7734   -8.0050 N   0  0  0  0  0  0  0  0  0  0  0  0
   15.8752   -7.7529   -8.9937 C   0  0  0  0  0  0  0  0  0  0  0  0
   16.5547   -8.8358   -8.8581 O   0  0  0  0  0  0  0  0  0  0  0  0
   14.9985   -7.6960  -10.1566 C   0  0  0  0  0  0  0  0  0  0  0  0
   15.3292   -8.6861  -11.2201 C   0  0  2  0  0  0  0  0  0  0  0  0
   15.1544  -10.0381  -10.6969 N   0  0  0  0  0  0  0  0  0  0  0  0
   16.7832   -8.5694  -11.6109 C   0  0  0  0  0  0  0  0  0  0  0  0
   17.6453   -9.2476  -11.0260 O   0  0  0  0  0  0  0  0  0  0  0  0
   17.1911   -7.6889  -12.6455 N   0  0  0  0  0  0  0  0  0  0  0  0
   18.5826   -7.6145  -13.0306 C   0  0  1  0  0  0  0  0  0  0  0  0
   18.9097   -8.7957  -13.9406 C   0  0  0  0  0  0  0  0  0  0  0  0
   20.3047   -8.7294  -14.4236 C   0  0  0  0  0  0  0  0  0  0  0  0
   21.2054   -8.1778  -13.7383 O   0  0  0  0  0  0  0  0  0  0  0  0
   18.9027   -6.3337  -13.7071 C   0  0  0  0  0  0  0  0  0  0  0  0
   17.9891   -5.7332  -14.3235 O   0  0  0  0  0  0  0  0  0  0  0  0
   20.6778   -9.2708  -15.6471 O   0  0  0  0  0  0  0  0  0  0  0  0
   20.1794   -5.8073  -13.6626 O   0  0  0  0  0  0  0  0  0  0  0  0
  2  1  1  6
  2  3  1  0
  4  2  1  0
  4 11  1  0
  5  4  2  0
  7  8  2  0
  7  6  1  0
  9  7  1  0
 10 11  1  0
 10  9  1  1
 10 12  1  0
 12 13  2  0
 12 14  1  0
 14 15  1  0
 15 16  1  6
 16 17  1  0
 17 21  1  0
 18 17  2  0
 19 22  1  0
 19 15  1  0
 20 19  2  0
M  END
$$$$
