AND.pdb
     RDKit          3D

 22 21  0  0  1  0  0  0  0  0999 V2000
   17.5858  -11.7013  -14.3364 C   0  0  0  0  0  0  0  0  0  0  0  0
   17.5637  -10.2640  -14.7777 C   0  0  2  0  0  0  0  0  0  0  0  0
   17.1096  -10.2353  -16.1645 N   0  0  0  0  0  0  0  0  0  0  0  0
   18.8709   -9.5959  -14.6949 C   0  0  0  0  0  0  0  0  0  0  0  0
   19.3864   -9.4043  -13.5534 O   0  0  0  0  0  0  0  0  0  0  0  0
   23.6222   -7.5396  -16.0864 N   0  0  0  0  0  0  0  0  0  0  0  0
   23.1004   -8.5890  -16.8609 C   0  0  0  0  0  0  0  0  0  0  0  0
   23.9087   -9.1291  -17.7022 O   0  0  0  0  0  0  0  0  0  0  0  0
   21.7538   -9.1455  -16.8286 C   0  0  0  0  0  0  0  0  0  0  0  0
   20.8682   -8.5425  -15.7929 C   0  0  2  0  0  0  0  0  0  0  0  0
   19.5510   -9.1698  -15.8546 N   0  0  0  0  0  0  0  0  0  0  0  0
   20.6510   -7.0756  -16.0786 C   0  0  0  0  0  0  0  0  0  0  0  0
   19.9611   -6.7223  -17.0504 O   0  0  0  0  0  0  0  0  0  0  0  0
   21.2268   -6.0789  -15.2496 N   0  0  0  0  0  0  0  0  0  0  0  0
   20.9729   -4.6799  -15.5112 C   0  0  1  0  0  0  0  0  0  0  0  0
   21.4122   -3.8607  -14.3004 C   0  0  0  0  0  0  0  0  0  0  0  0
   21.0711   -2.4326  -14.4675 C   0  0  0  0  0  0  0  0  0  0  0  0
   21.3688   -1.5847  -13.5857 O   0  0  0  0  0  0  0  0  0  0  0  0
   21.6667   -4.2102  -16.7354 C   0  0  0  0  0  0  0  0  0  0  0  0
   20.9978   -3.6196  -17.6179 O   0  0  0  0  0  0  0  0  0  0  0  0
   20.4118   -1.9693  -15.5988 O   0  0  0  0  0  0  0  0  0  0  0  0
   23.0223   -4.4160  -16.9060 O   0  0  0  0  0  0  0  0  0  0  0  0
  2  1  1  6
  2  3  1  0
  4  2  1  0
  4 11  1  0
  5  4  2  0
  7  8  2  0
  7  6  1  0
  9  7  1  0
 10 11  1  0
 10  9  1  6
 10 12  1  0
 12 13  2  0
 12 14  1  0
 14 15  1  0
 15 16  1  1
 16 17  1  0
 17 21  1  0
 18 17  2  0
 19 22  1  0
 19 15  1  0
 20 19  2  0
M  END
$$$$
