AND.pdb
     RDKit          3D

 22 21  0  0  1  0  0  0  0  0999 V2000
   22.2806  -11.7575  -20.3856 C   0  0  0  0  0  0  0  0  0  0  0  0
   22.8292  -10.8832  -19.2921 C   0  0  2  0  0  0  0  0  0  0  0  0
   23.4390  -11.7559  -18.2937 N   0  0  0  0  0  0  0  0  0  0  0  0
   21.8146  -10.0479  -18.6327 C   0  0  0  0  0  0  0  0  0  0  0  0
   21.4682   -8.9606  -19.1835 O   0  0  0  0  0  0  0  0  0  0  0  0
   18.1305   -8.3558  -15.0940 N   0  0  0  0  0  0  0  0  0  0  0  0
   18.2968   -9.7466  -15.2010 C   0  0  0  0  0  0  0  0  0  0  0  0
   17.4424  -10.4702  -14.5692 O   0  0  0  0  0  0  0  0  0  0  0  0
   19.3186  -10.4744  -15.9427 C   0  0  0  0  0  0  0  0  0  0  0  0
   20.2390   -9.6049  -16.7286 C   0  0  2  0  0  0  0  0  0  0  0  0
   21.2287  -10.4349  -17.4096 N   0  0  0  0  0  0  0  0  0  0  0  0
   21.0144   -8.6942  -15.8065 C   0  0  0  0  0  0  0  0  0  0  0  0
   21.9079   -9.1560  -15.0760 O   0  0  0  0  0  0  0  0  0  0  0  0
   20.7395   -7.3035  -15.7559 N   0  0  0  0  0  0  0  0  0  0  0  0
   21.5545   -6.4305  -14.9411 C   0  0  1  0  0  0  0  0  0  0  0  0
   21.5539   -5.0335  -15.5563 C   0  0  0  0  0  0  0  0  0  0  0  0
   22.3461   -4.0890  -14.7415 C   0  0  0  0  0  0  0  0  0  0  0  0
   23.5794   -4.2634  -14.5579 O   0  0  0  0  0  0  0  0  0  0  0  0
   21.0792   -6.3797  -13.5368 C   0  0  0  0  0  0  0  0  0  0  0  0
   19.8432   -6.3819  -13.3188 O   0  0  0  0  0  0  0  0  0  0  0  0
   21.7658   -2.9753  -14.1482 O   0  0  0  0  0  0  0  0  0  0  0  0
   21.9747   -6.3310  -12.4858 O   0  0  0  0  0  0  0  0  0  0  0  0
  2  1  1  6
  2  3  1  0
  4  2  1  0
  4 11  1  0
  5  4  2  0
  7  8  2  0
  7  6  1  0
  9  7  1  0
 10 11  1  0
 10  9  1  1
 10 12  1  0
 12 13  2  0
 12 14  1  0
 14 15  1  0
 15 16  1  6
 16 17  1  0
 17 21  1  0
 18 17  2  0
 19 22  1  0
 19 15  1  0
 20 19  2  0
M  END
$$$$
