AND.pdb
     RDKit          3D

 22 21  0  0  1  0  0  0  0  0999 V2000
   14.5711  -12.2978  -13.0653 C   0  0  0  0  0  0  0  0  0  0  0  0
   14.7339  -11.8874  -11.6280 C   0  0  2  0  0  0  0  0  0  0  0  0
   13.6561  -12.5110  -10.8665 N   0  0  0  0  0  0  0  0  0  0  0  0
   14.6826  -10.4335  -11.4148 C   0  0  0  0  0  0  0  0  0  0  0  0
   13.8165   -9.7553  -12.0436 O   0  0  0  0  0  0  0  0  0  0  0  0
   15.0957   -5.7040   -8.4530 N   0  0  0  0  0  0  0  0  0  0  0  0
   16.1605   -6.5841   -8.7079 C   0  0  0  0  0  0  0  0  0  0  0  0
   17.3388   -6.0703   -8.6860 O   0  0  0  0  0  0  0  0  0  0  0  0
   16.0968   -8.0120   -8.9930 C   0  0  0  0  0  0  0  0  0  0  0  0
   15.5720   -8.3416  -10.3483 C   0  0  2  0  0  0  0  0  0  0  0  0
   15.5740   -9.7903  -10.5312 N   0  0  0  0  0  0  0  0  0  0  0  0
   16.4831   -7.7803  -11.4138 C   0  0  0  0  0  0  0  0  0  0  0  0
   17.5695   -8.3308  -11.6626 O   0  0  0  0  0  0  0  0  0  0  0  0
   16.1197   -6.6212  -12.1463 N   0  0  0  0  0  0  0  0  0  0  0  0
   17.0383   -6.0493  -13.1052 C   0  0  1  0  0  0  0  0  0  0  0  0
   16.6924   -6.5721  -14.4970 C   0  0  0  0  0  0  0  0  0  0  0  0
   17.5480   -5.9521  -15.5300 C   0  0  0  0  0  0  0  0  0  0  0  0
   18.8035   -5.9899  -15.4440 O   0  0  0  0  0  0  0  0  0  0  0  0
   17.0080   -4.5663  -13.0852 C   0  0  0  0  0  0  0  0  0  0  0  0
   15.9957   -3.9907  -12.6172 O   0  0  0  0  0  0  0  0  0  0  0  0
   17.0050   -5.3059  -16.6331 O   0  0  0  0  0  0  0  0  0  0  0  0
   18.0704   -3.8283  -13.5707 O   0  0  0  0  0  0  0  0  0  0  0  0
  2  1  1  6
  2  3  1  0
  4  2  1  0
  4 11  1  0
  5  4  2  0
  7  8  2  0
  7  6  1  0
  9  7  1  0
 10 11  1  0
 10  9  1  1
 10 12  1  0
 12 13  2  0
 12 14  1  0
 14 15  1  0
 15 16  1  6
 16 17  1  0
 17 21  1  0
 18 17  2  0
 19 22  1  0
 19 15  1  0
 20 19  2  0
M  END
$$$$
