AND.pdb
     RDKit          3D

 22 21  0  0  1  0  0  0  0  0999 V2000
   19.5489  -13.0588  -16.4681 C   0  0  0  0  0  0  0  0  0  0  0  0
   19.6466  -11.6362  -16.9453 C   0  0  2  0  0  0  0  0  0  0  0  0
   20.1907  -11.6617  -18.2995 N   0  0  0  0  0  0  0  0  0  0  0  0
   20.5045  -10.7852  -16.1077 C   0  0  0  0  0  0  0  0  0  0  0  0
   20.1684  -10.5781  -14.9037 O   0  0  0  0  0  0  0  0  0  0  0  0
   25.3794  -10.8911  -14.6762 N   0  0  0  0  0  0  0  0  0  0  0  0
   24.6164  -10.6862  -15.8378 C   0  0  0  0  0  0  0  0  0  0  0  0
   24.4875  -11.6999  -16.6179 O   0  0  0  0  0  0  0  0  0  0  0  0
   23.9485   -9.4649  -16.2698 C   0  0  0  0  0  0  0  0  0  0  0  0
   22.5376   -9.3431  -15.8056 C   0  0  2  0  0  0  0  0  0  0  0  0
   21.6823  -10.2022  -16.6196 N   0  0  0  0  0  0  0  0  0  0  0  0
   22.0381   -7.9330  -16.0116 C   0  0  0  0  0  0  0  0  0  0  0  0
   21.8569   -7.4943  -17.1605 O   0  0  0  0  0  0  0  0  0  0  0  0
   21.7684   -7.0868  -14.9055 N   0  0  0  0  0  0  0  0  0  0  0  0
   21.2637   -5.7490  -15.1195 C   0  0  1  0  0  0  0  0  0  0  0  0
   19.7985   -5.6972  -14.6946 C   0  0  0  0  0  0  0  0  0  0  0  0
   19.2462   -4.3344  -14.8409 C   0  0  0  0  0  0  0  0  0  0  0  0
   18.9902   -3.6241  -13.8334 O   0  0  0  0  0  0  0  0  0  0  0  0
   22.0546   -4.7338  -14.3816 C   0  0  0  0  0  0  0  0  0  0  0  0
   22.7589   -5.1069  -13.4120 O   0  0  0  0  0  0  0  0  0  0  0  0
   18.9887   -3.7836  -16.0897 O   0  0  0  0  0  0  0  0  0  0  0  0
   22.0206   -3.4026  -14.7500 O   0  0  0  0  0  0  0  0  0  0  0  0
  2  1  1  1
  2  3  1  0
  4  2  1  0
  4 11  1  0
  5  4  2  0
  7  8  2  0
  7  6  1  0
  9  7  1  0
 10 11  1  0
 10  9  1  6
 10 12  1  0
 12 13  2  0
 12 14  1  0
 14 15  1  0
 15 16  1  1
 16 17  1  0
 17 21  1  0
 18 17  2  0
 19 22  1  0
 19 15  1  0
 20 19  2  0
M  END
$$$$
