AND.pdb
     RDKit          3D

 22 21  0  0  1  0  0  0  0  0999 V2000
   16.1598  -14.2778  -15.3222 C   0  0  0  0  0  0  0  0  0  0  0  0
   16.8477  -13.0250  -14.8552 C   0  0  2  0  0  0  0  0  0  0  0  0
   17.5393  -13.3399  -13.6090 N   0  0  0  0  0  0  0  0  0  0  0  0
   15.9341  -11.8981  -14.6164 C   0  0  0  0  0  0  0  0  0  0  0  0
   15.2093  -11.4879  -15.5714 O   0  0  0  0  0  0  0  0  0  0  0  0
   12.6241  -12.2404  -11.4769 N   0  0  0  0  0  0  0  0  0  0  0  0
   12.9934  -11.0135  -12.0529 C   0  0  0  0  0  0  0  0  0  0  0  0
   12.1286  -10.4703  -12.8338 O   0  0  0  0  0  0  0  0  0  0  0  0
   14.2375  -10.2756  -11.8738 C   0  0  0  0  0  0  0  0  0  0  0  0
   15.0254  -10.0935  -13.1256 C   0  0  2  0  0  0  0  0  0  0  0  0
   15.8542  -11.2739  -13.3543 N   0  0  0  0  0  0  0  0  0  0  0  0
   15.9779   -8.9306  -12.9807 C   0  0  0  0  0  0  0  0  0  0  0  0
   16.7551   -8.8745  -12.0122 O   0  0  0  0  0  0  0  0  0  0  0  0
   16.0035   -7.8862  -13.9403 N   0  0  0  0  0  0  0  0  0  0  0  0
   16.8968   -6.7625  -13.7682 C   0  0  1  0  0  0  0  0  0  0  0  0
   17.7526   -6.6118  -15.0232 C   0  0  0  0  0  0  0  0  0  0  0  0
   18.6470   -7.7741  -15.2045 C   0  0  0  0  0  0  0  0  0  0  0  0
   19.4980   -8.0832  -14.3297 O   0  0  0  0  0  0  0  0  0  0  0  0
   16.1594   -5.5061  -13.4885 C   0  0  0  0  0  0  0  0  0  0  0  0
   16.8120   -4.4829  -13.1687 O   0  0  0  0  0  0  0  0  0  0  0  0
   18.5854   -8.5696  -16.3414 O   0  0  0  0  0  0  0  0  0  0  0  0
   14.7814   -5.4574  -13.5770 O   0  0  0  0  0  0  0  0  0  0  0  0
  2  1  1  1
  2  3  1  0
  4  2  1  0
  4 11  1  0
  5  4  2  0
  7  8  2  0
  7  6  1  0
  9  7  1  0
 10 11  1  0
 10  9  1  1
 10 12  1  0
 12 13  2  0
 12 14  1  0
 14 15  1  0
 15 16  1  6
 16 17  1  0
 17 21  1  0
 18 17  2  0
 19 22  1  0
 19 15  1  0
 20 19  2  0
M  END
$$$$
