AND.pdb
     RDKit          3D

 22 21  0  0  1  0  0  0  0  0999 V2000
   18.7108  -25.2349   -6.7113 C   0  0  0  0  0  0  0  0  0  0  0  0
   17.6881  -25.8590   -5.8027 C   0  0  2  0  0  0  0  0  0  0  0  0
   16.5416  -24.9577   -5.7441 N   0  0  0  0  0  0  0  0  0  0  0  0
   18.1729  -26.0959   -4.4350 C   0  0  0  0  0  0  0  0  0  0  0  0
   19.4029  -25.9215   -4.1853 O   0  0  0  0  0  0  0  0  0  0  0  0
   18.2788  -26.3262    0.9168 N   0  0  0  0  0  0  0  0  0  0  0  0
   17.0137  -26.2841    0.3075 C   0  0  0  0  0  0  0  0  0  0  0  0
   16.0020  -26.4000    1.0923 O   0  0  0  0  0  0  0  0  0  0  0  0
   16.7033  -26.1227   -1.1073 C   0  0  0  0  0  0  0  0  0  0  0  0
   17.7445  -26.6626   -2.0267 C   0  0  2  0  0  0  0  0  0  0  0  0
   17.2987  -26.5103   -3.4089 N   0  0  0  0  0  0  0  0  0  0  0  0
   17.9242  -28.1451   -1.8020 C   0  0  0  0  0  0  0  0  0  0  0  0
   17.0779  -28.9501   -2.2273 O   0  0  0  0  0  0  0  0  0  0  0  0
   19.0543  -28.6445   -1.1052 N   0  0  0  0  0  0  0  0  0  0  0  0
   19.2213  -30.0681   -0.9162 C   0  0  1  0  0  0  0  0  0  0  0  0
   20.7122  -30.3954   -0.9006 C   0  0  0  0  0  0  0  0  0  0  0  0
   20.9694  -31.7477   -1.4380 C   0  0  0  0  0  0  0  0  0  0  0  0
   20.0297  -32.4668   -1.8682 O   0  0  0  0  0  0  0  0  0  0  0  0
   18.5727  -30.5413    0.3312 C   0  0  0  0  0  0  0  0  0  0  0  0
   18.3716  -29.7168    1.2558 O   0  0  0  0  0  0  0  0  0  0  0  0
   22.2520  -32.2781   -1.4910 O   0  0  0  0  0  0  0  0  0  0  0  0
   18.1951  -31.8623    0.4776 O   0  0  0  0  0  0  0  0  0  0  0  0
  2  1  1  6
  2  3  1  0
  4  2  1  0
  4 11  1  0
  5  4  2  0
  7  8  2  0
  7  6  1  0
  9  7  1  0
 10 11  1  0
 10  9  1  1
 10 12  1  0
 12 13  2  0
 12 14  1  0
 14 15  1  0
 15 16  1  1
 16 17  1  0
 17 21  1  0
 18 17  2  0
 19 22  1  0
 19 15  1  0
 20 19  2  0
M  END
$$$$
