AND.pdb
     RDKit          3D

 22 21  0  0  1  0  0  0  0  0999 V2000
   11.6245  -10.3171   -8.8223 C   0  0  0  0  0  0  0  0  0  0  0  0
   12.6122  -10.3449   -9.9558 C   0  0  2  0  0  0  0  0  0  0  0  0
   13.5557  -11.4269   -9.6922 N   0  0  0  0  0  0  0  0  0  0  0  0
   13.3643   -9.0923  -10.1205 C   0  0  0  0  0  0  0  0  0  0  0  0
   12.7285   -8.0307  -10.3930 O   0  0  0  0  0  0  0  0  0  0  0  0
   17.4177   -5.5857  -10.4891 N   0  0  0  0  0  0  0  0  0  0  0  0
   17.0801   -6.2097   -9.2766 C   0  0  0  0  0  0  0  0  0  0  0  0
   17.5455   -5.6645   -8.2094 O   0  0  0  0  0  0  0  0  0  0  0  0
   16.2641   -7.4004   -9.0761 C   0  0  0  0  0  0  0  0  0  0  0  0
   15.5458   -7.8616  -10.2977 C   0  0  2  0  0  0  0  0  0  0  0  0
   14.7674   -9.0561   -9.9820 N   0  0  0  0  0  0  0  0  0  0  0  0
   16.5341   -8.2713  -11.3635 C   0  0  0  0  0  0  0  0  0  0  0  0
   17.3795   -9.1518  -11.1285 O   0  0  0  0  0  0  0  0  0  0  0  0
   16.5175   -7.6629  -12.6448 N   0  0  0  0  0  0  0  0  0  0  0  0
   17.4691   -8.0688  -13.6547 C   0  0  1  0  0  0  0  0  0  0  0  0
   16.7132   -8.6744  -14.8345 C   0  0  0  0  0  0  0  0  0  0  0  0
   17.6391   -9.0819  -15.9117 C   0  0  0  0  0  0  0  0  0  0  0  0
   18.7575   -9.5968  -15.6486 O   0  0  0  0  0  0  0  0  0  0  0  0
   18.3149   -6.9366  -14.1060 C   0  0  0  0  0  0  0  0  0  0  0  0
   17.8156   -5.7855  -14.1340 O   0  0  0  0  0  0  0  0  0  0  0  0
   17.3149   -8.9149  -17.2519 O   0  0  0  0  0  0  0  0  0  0  0  0
   19.6268   -7.1395  -14.4889 O   0  0  0  0  0  0  0  0  0  0  0  0
  2  1  1  1
  2  3  1  0
  4  2  1  0
  4 11  1  0
  5  4  2  0
  7  8  2  0
  7  6  1  0
  9  7  1  0
 10 11  1  0
 10  9  1  1
 10 12  1  0
 12 13  2  0
 12 14  1  0
 14 15  1  0
 15 16  1  6
 16 17  1  0
 17 21  1  0
 18 17  2  0
 19 22  1  0
 19 15  1  0
 20 19  2  0
M  END
$$$$
