AND.pdb
     RDKit          3D

 22 21  0  0  1  0  0  0  0  0999 V2000
   14.7964  -15.0595  -15.3238 C   0  0  0  0  0  0  0  0  0  0  0  0
   15.7429  -14.1481  -14.5928 C   0  0  2  0  0  0  0  0  0  0  0  0
   15.9417  -14.6991  -13.2559 N   0  0  0  0  0  0  0  0  0  0  0  0
   15.2592  -12.7654  -14.4664 C   0  0  0  0  0  0  0  0  0  0  0  0
   14.6983  -12.2221  -15.4644 O   0  0  0  0  0  0  0  0  0  0  0  0
   12.6781  -12.2043  -10.6803 N   0  0  0  0  0  0  0  0  0  0  0  0
   13.0178  -11.1936  -11.5949 C   0  0  0  0  0  0  0  0  0  0  0  0
   12.0815  -10.8071  -12.3866 O   0  0  0  0  0  0  0  0  0  0  0  0
   14.3023  -10.5245  -11.7578 C   0  0  0  0  0  0  0  0  0  0  0  0
   14.9055  -10.6813  -13.1115 C   0  0  2  0  0  0  0  0  0  0  0  0
   15.4094  -12.0432  -13.2644 N   0  0  0  0  0  0  0  0  0  0  0  0
   16.1001   -9.7698  -13.2616 C   0  0  0  0  0  0  0  0  0  0  0  0
   17.2453  -10.1952  -13.0321 O   0  0  0  0  0  0  0  0  0  0  0  0
   15.9397   -8.4190  -13.6641 N   0  0  0  0  0  0  0  0  0  0  0  0
   17.0992   -7.5922  -13.9138 C   0  0  1  0  0  0  0  0  0  0  0  0
   17.9663   -8.2611  -14.9772 C   0  0  0  0  0  0  0  0  0  0  0  0
   19.1126   -7.4059  -15.3493 C   0  0  0  0  0  0  0  0  0  0  0  0
   19.9380   -7.0112  -14.4844 O   0  0  0  0  0  0  0  0  0  0  0  0
   16.7215   -6.2219  -14.3383 C   0  0  0  0  0  0  0  0  0  0  0  0
   15.6350   -6.0570  -14.9446 O   0  0  0  0  0  0  0  0  0  0  0  0
   19.3257   -7.0050  -16.6619 O   0  0  0  0  0  0  0  0  0  0  0  0
   17.5454   -5.1447  -14.0741 O   0  0  0  0  0  0  0  0  0  0  0  0
  2  1  1  1
  2  3  1  0
  4  2  1  0
  4 11  1  0
  5  4  2  0
  7  8  2  0
  7  6  1  0
  9  7  1  0
 10 11  1  0
 10  9  1  1
 10 12  1  0
 12 13  2  0
 12 14  1  0
 14 15  1  0
 15 16  1  6
 16 17  1  0
 17 21  1  0
 18 17  2  0
 19 22  1  0
 19 15  1  0
 20 19  2  0
M  END
$$$$
