AND.pdb
     RDKit          3D

 22 21  0  0  1  0  0  0  0  0999 V2000
   26.3014  -20.1734   -9.5543 C   0  0  0  0  0  0  0  0  0  0  0  0
   24.9357  -20.4711  -10.1084 C   0  0  2  0  0  0  0  0  0  0  0  0
   24.5118  -21.7592   -9.5685 N   0  0  0  0  0  0  0  0  0  0  0  0
   24.8905  -20.5367  -11.5766 C   0  0  0  0  0  0  0  0  0  0  0  0
   25.0875  -19.4756  -12.2406 O   0  0  0  0  0  0  0  0  0  0  0  0
   25.0006  -22.3202  -16.5868 N   0  0  0  0  0  0  0  0  0  0  0  0
   25.5392  -23.1477  -15.5874 C   0  0  0  0  0  0  0  0  0  0  0  0
   26.2816  -24.1161  -15.9921 O   0  0  0  0  0  0  0  0  0  0  0  0
   25.3629  -23.0442  -14.1444 C   0  0  0  0  0  0  0  0  0  0  0  0
   24.6077  -21.8366  -13.7061 C   0  0  2  0  0  0  0  0  0  0  0  0
   24.6334  -21.7496  -12.2487 N   0  0  0  0  0  0  0  0  0  0  0  0
   23.1538  -21.9576  -14.0961 C   0  0  0  0  0  0  0  0  0  0  0  0
   22.8392  -22.1927  -15.2755 O   0  0  0  0  0  0  0  0  0  0  0  0
   22.1256  -21.8056  -13.1308 N   0  0  0  0  0  0  0  0  0  0  0  0
   20.7390  -21.9368  -13.5187 C   0  0  1  0  0  0  0  0  0  0  0  0
   19.8594  -21.7665  -12.2828 C   0  0  0  0  0  0  0  0  0  0  0  0
   18.4280  -21.9121  -12.6199 C   0  0  0  0  0  0  0  0  0  0  0  0
   17.9968  -22.9450  -13.1963 O   0  0  0  0  0  0  0  0  0  0  0  0
   20.3609  -20.9549  -14.5645 C   0  0  0  0  0  0  0  0  0  0  0  0
   19.4913  -21.2793  -15.4092 O   0  0  0  0  0  0  0  0  0  0  0  0
   17.5041  -20.9207  -12.3155 O   0  0  0  0  0  0  0  0  0  0  0  0
   20.9511  -19.7065  -14.6124 O   0  0  0  0  0  0  0  0  0  0  0  0
  2  1  1  6
  2  3  1  0
  4  2  1  0
  4 11  1  0
  5  4  2  0
  7  8  2  0
  7  6  1  0
  9  7  1  0
 10 11  1  0
 10  9  1  1
 10 12  1  0
 12 13  2  0
 12 14  1  0
 14 15  1  0
 15 16  1  1
 16 17  1  0
 17 21  1  0
 18 17  2  0
 19 22  1  0
 19 15  1  0
 20 19  2  0
M  END
$$$$
