AND.pdb
     RDKit          3D

 22 21  0  0  1  0  0  0  0  0999 V2000
   22.6458  -13.1121  -19.5920 C   0  0  0  0  0  0  0  0  0  0  0  0
   22.8394  -12.2238  -18.3944 C   0  0  2  0  0  0  0  0  0  0  0  0
   22.6880  -13.0517  -17.2019 N   0  0  0  0  0  0  0  0  0  0  0  0
   21.8837  -11.1090  -18.3197 C   0  0  0  0  0  0  0  0  0  0  0  0
   21.8549  -10.2662  -19.2654 O   0  0  0  0  0  0  0  0  0  0  0  0
   17.2116  -12.0692  -17.6346 N   0  0  0  0  0  0  0  0  0  0  0  0
   17.9444  -10.8713  -17.6743 C   0  0  0  0  0  0  0  0  0  0  0  0
   17.8746  -10.1997  -18.7683 O   0  0  0  0  0  0  0  0  0  0  0  0
   18.7748  -10.2914  -16.6263 C   0  0  0  0  0  0  0  0  0  0  0  0
   20.1098   -9.8223  -17.0941 C   0  0  2  0  0  0  0  0  0  0  0  0
   21.0091  -10.9656  -17.2226 N   0  0  0  0  0  0  0  0  0  0  0  0
   20.7335   -8.9081  -16.0666 C   0  0  0  0  0  0  0  0  0  0  0  0
   21.1929   -9.3745  -15.0099 O   0  0  0  0  0  0  0  0  0  0  0  0
   20.8060   -7.5085  -16.2854 N   0  0  0  0  0  0  0  0  0  0  0  0
   21.4304   -6.6504  -15.3035 C   0  0  1  0  0  0  0  0  0  0  0  0
   21.7029   -5.2881  -15.9361 C   0  0  0  0  0  0  0  0  0  0  0  0
   22.2370   -4.3335  -14.9426 C   0  0  0  0  0  0  0  0  0  0  0  0
   23.0656   -4.6994  -14.0682 O   0  0  0  0  0  0  0  0  0  0  0  0
   20.5945   -6.5004  -14.0872 C   0  0  0  0  0  0  0  0  0  0  0  0
   19.3474   -6.4454  -14.2164 O   0  0  0  0  0  0  0  0  0  0  0  0
   21.8493   -2.9998  -14.9332 O   0  0  0  0  0  0  0  0  0  0  0  0
   21.1721   -6.4224  -12.8345 O   0  0  0  0  0  0  0  0  0  0  0  0
  2  1  1  6
  2  3  1  0
  4  2  1  0
  4 11  1  0
  5  4  2  0
  7  8  2  0
  7  6  1  0
  9  7  1  0
 10 11  1  0
 10  9  1  1
 10 12  1  0
 12 13  2  0
 12 14  1  0
 14 15  1  0
 15 16  1  6
 16 17  1  0
 17 21  1  0
 18 17  2  0
 19 22  1  0
 19 15  1  0
 20 19  2  0
M  END
$$$$
