DIP.pdb
     RDKit          3D

 24 24  0  0  1  0  0  0  0  0999 V2000
    9.6840  -15.4806   20.5674 N   0  0  0  0  0  0  0  0  0  0  0  0
    9.2276  -16.1960   21.7383 C   0  0  1  0  0  0  0  0  0  0  0  0
    9.8603  -17.5624   21.8499 C   0  0  0  0  0  0  0  0  0  0  0  0
    9.5304  -18.3798   20.6551 C   0  0  0  0  0  0  0  0  0  0  0  0
    8.3554  -18.7144   20.4475 O   0  0  0  0  0  0  0  0  0  0  0  0
    9.4251  -15.3915   22.9728 C   0  0  0  0  0  0  0  0  0  0  0  0
   10.4714  -14.6947   23.1170 O   0  0  0  0  0  0  0  0  0  0  0  0
   10.5334  -18.7626   19.7822 O   0  0  0  0  0  0  0  0  0  0  0  0
    5.4255  -12.5758   25.2223 C   0  0  0  0  0  0  0  0  0  0  0  0
    6.8109  -13.0217   24.7306 C   0  0  0  0  0  0  0  0  0  0  0  0
    7.2406  -14.1632   25.6023 C   0  0  2  0  0  0  0  0  0  0  0  0
    7.3419  -13.5974   27.0383 C   0  0  0  0  0  0  0  0  0  0  0  0
    8.6049  -14.7040   25.2800 C   0  0  2  0  0  0  0  0  0  0  0  0
    8.4515  -15.3970   23.9917 N   0  0  0  0  0  0  0  0  0  0  0  0
    9.1760  -15.6075   26.2909 C   0  0  0  0  0  0  0  0  0  0  0  0
    8.9430  -16.8719   26.1483 O   0  0  0  0  0  0  0  0  0  0  0  0
    9.9594  -15.2630   27.4125 N   0  0  0  0  0  0  0  0  0  0  0  0
   10.0902  -13.8828   27.8921 C   0  0  0  0  0  0  0  0  0  0  0  0
   11.4305  -13.8669   28.6157 C   0  0  0  0  0  0  0  0  0  0  0  0
   11.4948  -15.2295   29.2494 C   0  0  0  0  0  0  0  0  0  0  0  0
   10.7319  -16.0932   28.2838 C   0  0  1  0  0  0  0  0  0  0  0  0
    9.8816  -16.9933   29.1156 C   0  0  0  0  0  0  0  0  0  0  0  0
   10.5620  -17.9485   29.8752 O   0  0  0  0  0  0  0  0  0  0  0  0
    8.6459  -16.9566   29.1804 O   0  0  0  0  0  0  0  0  0  0  0  0
  2  1  1  6
  2  3  1  0
  3  4  1  0
  4  8  1  0
  4  5  2  0
  6  7  2  0
  6  2  1  0
  9 10  1  0
 10 11  1  0
 11 13  1  0
 11 12  1  1
 13 14  1  6
 14  6  1  0
 15 13  1  0
 16 15  2  0
 17 18  1  0
 17 15  1  0
 19 18  1  0
 20 19  1  0
 21 20  1  0
 21 17  1  0
 21 22  1  1
 23 22  1  0
 24 22  2  0
M  END
$$$$
