DIP.pdb
     RDKit          3D

 24 24  0  0  1  0  0  0  0  0999 V2000
    9.1698  -15.4996   20.6635 N   0  0  0  0  0  0  0  0  0  0  0  0
    8.7064  -16.1698   21.8581 C   0  0  1  0  0  0  0  0  0  0  0  0
    9.1191  -17.6219   21.8895 C   0  0  0  0  0  0  0  0  0  0  0  0
    8.5743  -18.3359   20.7071 C   0  0  0  0  0  0  0  0  0  0  0  0
    7.3503  -18.4966   20.5992 O   0  0  0  0  0  0  0  0  0  0  0  0
    9.1351  -15.4453   23.0835 C   0  0  0  0  0  0  0  0  0  0  0  0
   10.3187  -15.0090   23.1828 O   0  0  0  0  0  0  0  0  0  0  0  0
    9.4332  -18.8168   19.7348 O   0  0  0  0  0  0  0  0  0  0  0  0
    5.6050  -12.3157   25.7410 C   0  0  0  0  0  0  0  0  0  0  0  0
    6.9005  -12.8471   25.1091 C   0  0  0  0  0  0  0  0  0  0  0  0
    7.3651  -13.9935   25.9561 C   0  0  2  0  0  0  0  0  0  0  0  0
    7.7483  -13.3908   27.3282 C   0  0  0  0  0  0  0  0  0  0  0  0
    8.6060  -14.6712   25.4477 C   0  0  2  0  0  0  0  0  0  0  0  0
    8.2299  -15.2381   24.1436 N   0  0  0  0  0  0  0  0  0  0  0  0
    9.1565  -15.7135   26.3279 C   0  0  0  0  0  0  0  0  0  0  0  0
    8.5648  -16.8638   26.3185 O   0  0  0  0  0  0  0  0  0  0  0  0
   10.2667  -15.6152   27.1927 N   0  0  0  0  0  0  0  0  0  0  0  0
   10.9582  -14.3475   27.4512 C   0  0  0  0  0  0  0  0  0  0  0  0
   12.3673  -14.7678   27.8489 C   0  0  0  0  0  0  0  0  0  0  0  0
   12.1415  -16.0391   28.6205 C   0  0  0  0  0  0  0  0  0  0  0  0
   10.9199  -16.6240   27.9680 C   0  0  1  0  0  0  0  0  0  0  0  0
   10.0627  -17.1354   29.0764 C   0  0  0  0  0  0  0  0  0  0  0  0
   10.5629  -18.2339   29.7802 O   0  0  0  0  0  0  0  0  0  0  0  0
    8.9659  -16.6683   29.4104 O   0  0  0  0  0  0  0  0  0  0  0  0
  2  1  1  6
  2  3  1  0
  3  4  1  0
  4  8  1  0
  4  5  2  0
  6  7  2  0
  6  2  1  0
  9 10  1  0
 10 11  1  0
 11 13  1  0
 11 12  1  1
 13 14  1  6
 14  6  1  0
 15 13  1  0
 16 15  2  0
 17 18  1  0
 17 15  1  0
 19 18  1  0
 20 19  1  0
 21 20  1  0
 21 17  1  0
 21 22  1  1
 23 22  1  0
 24 22  2  0
M  END
$$$$
