DIP.pdb
     RDKit          3D

 24 24  0  0  1  0  0  0  0  0999 V2000
    8.4705  -14.8691   20.4044 N   0  0  0  0  0  0  0  0  0  0  0  0
    8.2532  -15.6916   21.5738 C   0  0  1  0  0  0  0  0  0  0  0  0
    8.8579  -17.0666   21.4198 C   0  0  0  0  0  0  0  0  0  0  0  0
    8.3088  -17.7365   20.2138 C   0  0  0  0  0  0  0  0  0  0  0  0
    7.1502  -17.4893   19.8502 O   0  0  0  0  0  0  0  0  0  0  0  0
    8.7295  -15.0119   22.8072 C   0  0  0  0  0  0  0  0  0  0  0  0
    9.8552  -14.4342   22.8205 O   0  0  0  0  0  0  0  0  0  0  0  0
    9.0909  -18.6306   19.5043 O   0  0  0  0  0  0  0  0  0  0  0  0
    5.3839  -12.0741   25.6402 C   0  0  0  0  0  0  0  0  0  0  0  0
    6.6483  -12.6210   24.9606 C   0  0  0  0  0  0  0  0  0  0  0  0
    7.1534  -13.7468   25.8120 C   0  0  2  0  0  0  0  0  0  0  0  0
    7.6068  -13.1106   27.1470 C   0  0  0  0  0  0  0  0  0  0  0  0
    8.3657  -14.4409   25.2588 C   0  0  2  0  0  0  0  0  0  0  0  0
    7.9341  -15.0045   23.9706 N   0  0  0  0  0  0  0  0  0  0  0  0
    8.9354  -15.4892   26.1195 C   0  0  0  0  0  0  0  0  0  0  0  0
    8.3379  -16.6366   26.1225 O   0  0  0  0  0  0  0  0  0  0  0  0
   10.0696  -15.3996   26.9535 N   0  0  0  0  0  0  0  0  0  0  0  0
   10.7598  -14.1320   27.2166 C   0  0  0  0  0  0  0  0  0  0  0  0
   12.1827  -14.5496   27.5648 C   0  0  0  0  0  0  0  0  0  0  0  0
   11.9882  -15.8373   28.3175 C   0  0  0  0  0  0  0  0  0  0  0  0
   10.7521  -16.4184   27.6894 C   0  0  1  0  0  0  0  0  0  0  0  0
    9.9312  -16.9576   28.8121 C   0  0  0  0  0  0  0  0  0  0  0  0
   10.4506  -18.0770   29.4675 O   0  0  0  0  0  0  0  0  0  0  0  0
    8.8485  -16.4964   29.1963 O   0  0  0  0  0  0  0  0  0  0  0  0
  2  1  1  6
  2  3  1  0
  3  4  1  0
  4  8  1  0
  4  5  2  0
  6  7  2  0
  6  2  1  0
  9 10  1  0
 10 11  1  0
 11 13  1  0
 11 12  1  1
 13 14  1  6
 14  6  1  0
 15 13  1  0
 16 15  2  0
 17 18  1  0
 17 15  1  0
 19 18  1  0
 20 19  1  0
 21 20  1  0
 21 17  1  0
 21 22  1  1
 23 22  1  0
 24 22  2  0
M  END
$$$$
