DIP.pdb
     RDKit          3D

 24 24  0  0  1  0  0  0  0  0999 V2000
    9.2496  -15.2860   20.5915 N   0  0  0  0  0  0  0  0  0  0  0  0
    8.9420  -16.0890   21.7540 C   0  0  1  0  0  0  0  0  0  0  0  0
    9.6398  -17.4276   21.7190 C   0  0  0  0  0  0  0  0  0  0  0  0
    9.2266  -18.1903   20.5138 C   0  0  0  0  0  0  0  0  0  0  0  0
    8.0991  -18.7026   20.4702 O   0  0  0  0  0  0  0  0  0  0  0  0
    9.2266  -15.3487   23.0115 C   0  0  0  0  0  0  0  0  0  0  0  0
   10.3054  -14.6993   23.1367 O   0  0  0  0  0  0  0  0  0  0  0  0
   10.0998  -18.3247   19.4489 O   0  0  0  0  0  0  0  0  0  0  0  0
    5.4492  -12.4546   25.5249 C   0  0  0  0  0  0  0  0  0  0  0  0
    6.7887  -12.9457   24.9553 C   0  0  0  0  0  0  0  0  0  0  0  0
    7.2022  -14.1359   25.7678 C   0  0  2  0  0  0  0  0  0  0  0  0
    7.3783  -13.6298   27.2188 C   0  0  0  0  0  0  0  0  0  0  0  0
    8.5306  -14.7177   25.3750 C   0  0  2  0  0  0  0  0  0  0  0  0
    8.3002  -15.3630   24.0735 N   0  0  0  0  0  0  0  0  0  0  0  0
    9.1047  -15.6739   26.3344 C   0  0  0  0  0  0  0  0  0  0  0  0
    8.7522  -16.9126   26.2124 O   0  0  0  0  0  0  0  0  0  0  0  0
   10.0063  -15.4060   27.3858 N   0  0  0  0  0  0  0  0  0  0  0  0
   10.2698  -14.0483   27.8751 C   0  0  0  0  0  0  0  0  0  0  0  0
   11.6678  -14.1345   28.4739 C   0  0  0  0  0  0  0  0  0  0  0  0
   11.6992  -15.5126   29.0757 C   0  0  0  0  0  0  0  0  0  0  0  0
   10.7978  -16.3035   28.1689 C   0  0  1  0  0  0  0  0  0  0  0  0
    9.9683  -17.1665   29.0591 C   0  0  0  0  0  0  0  0  0  0  0  0
   10.6481  -18.1872   29.7287 O   0  0  0  0  0  0  0  0  0  0  0  0
    8.7500  -17.0470   29.2435 O   0  0  0  0  0  0  0  0  0  0  0  0
  2  1  1  6
  2  3  1  0
  3  4  1  0
  4  8  1  0
  4  5  2  0
  6  7  2  0
  6  2  1  0
  9 10  1  0
 10 11  1  0
 11 13  1  0
 11 12  1  1
 13 14  1  6
 14  6  1  0
 15 13  1  0
 16 15  2  0
 17 18  1  0
 17 15  1  0
 19 18  1  0
 20 19  1  0
 21 20  1  0
 21 17  1  0
 21 22  1  1
 23 22  1  0
 24 22  2  0
M  END
$$$$
