DIP.pdb
     RDKit          3D

 24 24  0  0  1  0  0  0  0  0999 V2000
   12.3817  -16.7158   20.5934 N   0  0  0  0  0  0  0  0  0  0  0  0
   11.8226  -17.3896   21.7443 C   0  0  1  0  0  0  0  0  0  0  0  0
   12.7869  -18.3864   22.3412 C   0  0  0  0  0  0  0  0  0  0  0  0
   13.0006  -19.5182   21.4041 C   0  0  0  0  0  0  0  0  0  0  0  0
   12.7773  -19.3626   20.1952 O   0  0  0  0  0  0  0  0  0  0  0  0
   11.3362  -16.4150   22.7562 C   0  0  0  0  0  0  0  0  0  0  0  0
   12.0670  -15.4428   23.1052 O   0  0  0  0  0  0  0  0  0  0  0  0
   13.4466  -20.7369   21.8839 O   0  0  0  0  0  0  0  0  0  0  0  0
    6.5517  -14.5893   21.9800 C   0  0  0  0  0  0  0  0  0  0  0  0
    8.0291  -14.6872   22.3896 C   0  0  0  0  0  0  0  0  0  0  0  0
    8.0700  -15.3537   23.7320 C   0  0  2  0  0  0  0  0  0  0  0  0
    7.4069  -14.3699   24.7245 C   0  0  0  0  0  0  0  0  0  0  0  0
    9.4568  -15.5915   24.2590 C   0  0  2  0  0  0  0  0  0  0  0  0
   10.0599  -16.5641   23.3349 N   0  0  0  0  0  0  0  0  0  0  0  0
    9.5256  -16.0802   25.6449 C   0  0  0  0  0  0  0  0  0  0  0  0
    9.3008  -17.3397   25.8361 O   0  0  0  0  0  0  0  0  0  0  0  0
    9.8121  -15.3368   26.8092 N   0  0  0  0  0  0  0  0  0  0  0  0
    9.5772  -13.8917   26.9027 C   0  0  0  0  0  0  0  0  0  0  0  0
   10.5640  -13.4234   27.9645 C   0  0  0  0  0  0  0  0  0  0  0  0
   10.5876  -14.5680   28.9400 C   0  0  0  0  0  0  0  0  0  0  0  0
   10.3362  -15.7669   28.0683 C   0  0  1  0  0  0  0  0  0  0  0  0
    9.3799  -16.6315   28.8186 C   0  0  0  0  0  0  0  0  0  0  0  0
    9.8857  -17.2546   29.9624 O   0  0  0  0  0  0  0  0  0  0  0  0
    8.1983  -16.8326   28.5088 O   0  0  0  0  0  0  0  0  0  0  0  0
  2  1  1  6
  2  3  1  0
  3  4  1  0
  4  8  1  0
  4  5  2  0
  6  7  2  0
  6  2  1  0
  9 10  1  0
 10 11  1  0
 11 13  1  0
 11 12  1  1
 13 14  1  6
 14  6  1  0
 15 13  1  0
 16 15  2  0
 17 18  1  0
 17 15  1  0
 19 18  1  0
 20 19  1  0
 21 20  1  0
 21 17  1  0
 21 22  1  1
 23 22  1  0
 24 22  2  0
M  END
$$$$
