DIP.pdb
     RDKit          3D

 24 24  0  0  1  0  0  0  0  0999 V2000
    6.3387  -15.3712   20.4978 N   0  0  0  0  0  0  0  0  0  0  0  0
    6.2788  -15.9563   21.8188 C   0  0  1  0  0  0  0  0  0  0  0  0
    6.3687  -17.4630   21.7758 C   0  0  0  0  0  0  0  0  0  0  0  0
    5.2089  -18.0254   21.0387 C   0  0  0  0  0  0  0  0  0  0  0  0
    4.3552  -17.2617   20.5658 O   0  0  0  0  0  0  0  0  0  0  0  0
    7.3054  -15.3656   22.7174 C   0  0  0  0  0  0  0  0  0  0  0  0
    8.4705  -15.1304   22.2835 O   0  0  0  0  0  0  0  0  0  0  0  0
    5.0874  -19.3950   20.8841 O   0  0  0  0  0  0  0  0  0  0  0  0
    5.8975  -11.6866   26.3273 C   0  0  0  0  0  0  0  0  0  0  0  0
    6.6684  -12.4929   25.2711 C   0  0  0  0  0  0  0  0  0  0  0  0
    7.2423  -13.6915   25.9652 C   0  0  2  0  0  0  0  0  0  0  0  0
    8.2975  -13.1523   26.9595 C   0  0  0  0  0  0  0  0  0  0  0  0
    7.9813  -14.6333   25.0573 C   0  0  2  0  0  0  0  0  0  0  0  0
    6.9917  -15.0625   24.0575 N   0  0  0  0  0  0  0  0  0  0  0  0
    8.5876  -15.7977   25.7212 C   0  0  0  0  0  0  0  0  0  0  0  0
    7.8311  -16.4797   26.5188 O   0  0  0  0  0  0  0  0  0  0  0  0
    9.9100  -16.2724   25.5940 N   0  0  0  0  0  0  0  0  0  0  0  0
   10.9398  -15.5516   24.8376 C   0  0  0  0  0  0  0  0  0  0  0  0
   11.9211  -16.6385   24.4183 C   0  0  0  0  0  0  0  0  0  0  0  0
   11.9183  -17.5761   25.5945 C   0  0  0  0  0  0  0  0  0  0  0  0
   10.5194  -17.4497   26.1305 C   0  0  1  0  0  0  0  0  0  0  0  0
   10.6478  -17.3989   27.6158 C   0  0  0  0  0  0  0  0  0  0  0  0
   10.4111  -16.1559   28.2085 O   0  0  0  0  0  0  0  0  0  0  0  0
   10.9419  -18.3555   28.3445 O   0  0  0  0  0  0  0  0  0  0  0  0
  2  1  1  6
  2  3  1  0
  3  4  1  0
  4  8  1  0
  4  5  2  0
  6  7  2  0
  6  2  1  0
  9 10  1  0
 10 11  1  0
 11 13  1  0
 11 12  1  1
 13 14  1  6
 14  6  1  0
 15 13  1  0
 16 15  2  0
 17 18  1  0
 17 15  1  0
 19 18  1  0
 20 19  1  0
 21 20  1  0
 21 17  1  0
 21 22  1  1
 23 22  1  0
 24 22  2  0
M  END
$$$$
