DIP.pdb
     RDKit          3D

 24 24  0  0  1  0  0  0  0  0999 V2000
    9.7537  -15.5494   20.5899 N   0  0  0  0  0  0  0  0  0  0  0  0
    9.0964  -16.1429   21.7330 C   0  0  1  0  0  0  0  0  0  0  0  0
    9.4580  -17.5993   21.9016 C   0  0  0  0  0  0  0  0  0  0  0  0
    8.9965  -18.3818   20.7271 C   0  0  0  0  0  0  0  0  0  0  0  0
    9.8303  -18.8982   19.9695 O   0  0  0  0  0  0  0  0  0  0  0  0
    9.3559  -15.3609   22.9704 C   0  0  0  0  0  0  0  0  0  0  0  0
   10.4541  -14.7499   23.1178 O   0  0  0  0  0  0  0  0  0  0  0  0
    7.6423  -18.5301   20.4851 O   0  0  0  0  0  0  0  0  0  0  0  0
    5.4723  -12.4143   25.3309 C   0  0  0  0  0  0  0  0  0  0  0  0
    6.8282  -12.8966   24.7935 C   0  0  0  0  0  0  0  0  0  0  0  0
    7.2566  -14.0490   25.6514 C   0  0  2  0  0  0  0  0  0  0  0  0
    7.4225  -13.4856   27.0824 C   0  0  0  0  0  0  0  0  0  0  0  0
    8.5939  -14.6267   25.2832 C   0  0  2  0  0  0  0  0  0  0  0  0
    8.3839  -15.2926   23.9886 N   0  0  0  0  0  0  0  0  0  0  0  0
    9.1632  -15.5644   26.2634 C   0  0  0  0  0  0  0  0  0  0  0  0
    8.8692  -16.8159   26.1193 O   0  0  0  0  0  0  0  0  0  0  0  0
   10.0037  -15.2661   27.3564 N   0  0  0  0  0  0  0  0  0  0  0  0
   10.1225  -13.9157   27.9173 C   0  0  0  0  0  0  0  0  0  0  0  0
   11.5038  -13.9006   28.5590 C   0  0  0  0  0  0  0  0  0  0  0  0
   11.6479  -15.2981   29.0966 C   0  0  0  0  0  0  0  0  0  0  0  0
   10.8530  -16.1235   28.1235 C   0  0  1  0  0  0  0  0  0  0  0  0
   10.0831  -17.1034   28.9435 C   0  0  0  0  0  0  0  0  0  0  0  0
    8.6981  -16.9215   28.9739 O   0  0  0  0  0  0  0  0  0  0  0  0
   10.5706  -18.0439   29.5841 O   0  0  0  0  0  0  0  0  0  0  0  0
  2  1  1  6
  2  3  1  0
  3  4  1  0
  4  8  1  0
  4  5  2  0
  6  7  2  0
  6  2  1  0
  9 10  1  0
 10 11  1  0
 11 13  1  0
 11 12  1  1
 13 14  1  6
 14  6  1  0
 15 13  1  0
 16 15  2  0
 17 18  1  0
 17 15  1  0
 19 18  1  0
 20 19  1  0
 21 20  1  0
 21 17  1  0
 21 22  1  1
 23 22  1  0
 24 22  2  0
M  END
$$$$
