DIP.pdb
     RDKit          3D

 24 24  0  0  1  0  0  0  0  0999 V2000
    9.4541  -15.3683   20.5421 N   0  0  0  0  0  0  0  0  0  0  0  0
    9.0583  -16.1090   21.7193 C   0  0  1  0  0  0  0  0  0  0  0  0
    9.6628  -17.4925   21.7481 C   0  0  0  0  0  0  0  0  0  0  0  0
    9.1939  -18.2818   20.5812 C   0  0  0  0  0  0  0  0  0  0  0  0
    9.9981  -18.5983   19.6931 O   0  0  0  0  0  0  0  0  0  0  0  0
    9.3569  -15.3480   22.9610 C   0  0  0  0  0  0  0  0  0  0  0  0
   10.4531  -14.7268   23.0779 O   0  0  0  0  0  0  0  0  0  0  0  0
    7.8656  -18.6587   20.4914 O   0  0  0  0  0  0  0  0  0  0  0  0
    5.5260  -12.4804   25.4878 C   0  0  0  0  0  0  0  0  0  0  0  0
    6.9023  -12.8950   24.9458 C   0  0  0  0  0  0  0  0  0  0  0  0
    7.3397  -14.0963   25.7288 C   0  0  2  0  0  0  0  0  0  0  0  0
    7.5258  -13.6181   27.1880 C   0  0  0  0  0  0  0  0  0  0  0  0
    8.6707  -14.6531   25.3094 C   0  0  2  0  0  0  0  0  0  0  0  0
    8.4245  -15.3111   24.0172 N   0  0  0  0  0  0  0  0  0  0  0  0
    9.2859  -15.5913   26.2611 C   0  0  0  0  0  0  0  0  0  0  0  0
    9.1195  -16.8537   26.0330 O   0  0  0  0  0  0  0  0  0  0  0  0
   10.0476  -15.2825   27.4076 N   0  0  0  0  0  0  0  0  0  0  0  0
   10.1253  -13.9273   27.9643 C   0  0  0  0  0  0  0  0  0  0  0  0
   11.4585  -13.9046   28.7008 C   0  0  0  0  0  0  0  0  0  0  0  0
   11.5664  -15.2973   29.2586 C   0  0  0  0  0  0  0  0  0  0  0  0
   10.8424  -16.1321   28.2393 C   0  0  1  0  0  0  0  0  0  0  0  0
   10.0183  -17.1066   29.0115 C   0  0  0  0  0  0  0  0  0  0  0  0
   10.7263  -18.0803   29.7207 O   0  0  0  0  0  0  0  0  0  0  0  0
    8.7817  -17.1153   29.0684 O   0  0  0  0  0  0  0  0  0  0  0  0
  2  1  1  6
  2  3  1  0
  3  4  1  0
  4  8  1  0
  4  5  2  0
  6  7  2  0
  6  2  1  0
  9 10  1  0
 10 11  1  0
 11 13  1  0
 11 12  1  1
 13 14  1  6
 14  6  1  0
 15 13  1  0
 16 15  2  0
 17 18  1  0
 17 15  1  0
 19 18  1  0
 20 19  1  0
 21 20  1  0
 21 17  1  0
 21 22  1  1
 23 22  1  0
 24 22  2  0
M  END
$$$$
