DIP.pdb
     RDKit          3D

 24 24  0  0  1  0  0  0  0  0999 V2000
    9.9021  -15.5743   20.6409 N   0  0  0  0  0  0  0  0  0  0  0  0
    9.8651  -16.3948   21.8310 C   0  0  1  0  0  0  0  0  0  0  0  0
   10.9249  -17.4702   21.8111 C   0  0  0  0  0  0  0  0  0  0  0  0
   10.7209  -18.3703   20.6480 C   0  0  0  0  0  0  0  0  0  0  0  0
    9.5982  -18.4571   20.1304 O   0  0  0  0  0  0  0  0  0  0  0  0
    9.9421  -15.5638   23.0614 C   0  0  0  0  0  0  0  0  0  0  0  0
   10.9699  -14.8628   23.2919 O   0  0  0  0  0  0  0  0  0  0  0  0
   11.7818  -19.1052   20.1493 O   0  0  0  0  0  0  0  0  0  0  0  0
    5.6778  -12.8119   24.9934 C   0  0  0  0  0  0  0  0  0  0  0  0
    7.1048  -13.2180   24.5950 C   0  0  0  0  0  0  0  0  0  0  0  0
    7.5052  -14.3524   25.4897 C   0  0  2  0  0  0  0  0  0  0  0  0
    7.4754  -13.7971   26.9331 C   0  0  0  0  0  0  0  0  0  0  0  0
    8.9083  -14.8433   25.2706 C   0  0  2  0  0  0  0  0  0  0  0  0
    8.8738  -15.5490   23.9806 N   0  0  0  0  0  0  0  0  0  0  0  0
    9.4384  -15.7187   26.3275 C   0  0  0  0  0  0  0  0  0  0  0  0
    9.3062  -16.9940   26.1559 O   0  0  0  0  0  0  0  0  0  0  0  0
   10.0842  -15.3363   27.5221 N   0  0  0  0  0  0  0  0  0  0  0  0
   10.1233  -13.9465   27.9901 C   0  0  0  0  0  0  0  0  0  0  0  0
   11.3752  -13.8815   28.8555 C   0  0  0  0  0  0  0  0  0  0  0  0
   11.4073  -15.2330   29.5149 C   0  0  0  0  0  0  0  0  0  0  0  0
   10.7791  -16.1316   28.4863 C   0  0  1  0  0  0  0  0  0  0  0  0
    9.8679  -17.0450   29.2351 C   0  0  0  0  0  0  0  0  0  0  0  0
   10.4872  -17.9699   30.0798 O   0  0  0  0  0  0  0  0  0  0  0  0
    8.6320  -17.0433   29.1643 O   0  0  0  0  0  0  0  0  0  0  0  0
  2  1  1  6
  2  3  1  0
  3  4  1  0
  4  8  1  0
  4  5  2  0
  6  7  2  0
  6  2  1  0
  9 10  1  0
 10 11  1  0
 11 13  1  0
 11 12  1  1
 13 14  1  6
 14  6  1  0
 15 13  1  0
 16 15  2  0
 17 18  1  0
 17 15  1  0
 19 18  1  0
 20 19  1  0
 21 20  1  0
 21 17  1  0
 21 22  1  1
 23 22  1  0
 24 22  2  0
M  END
$$$$
