DIP.pdb
     RDKit          3D

 24 24  0  0  1  0  0  0  0  0999 V2000
    9.7209  -15.3453   20.5226 N   0  0  0  0  0  0  0  0  0  0  0  0
    9.9187  -16.2058   21.6677 C   0  0  1  0  0  0  0  0  0  0  0  0
   11.1966  -17.0034   21.5632 C   0  0  0  0  0  0  0  0  0  0  0  0
   11.1688  -17.8607   20.3513 C   0  0  0  0  0  0  0  0  0  0  0  0
   12.1960  -17.9924   19.6707 O   0  0  0  0  0  0  0  0  0  0  0  0
    9.8476  -15.4374   22.9385 C   0  0  0  0  0  0  0  0  0  0  0  0
   10.7615  -14.6144   23.2358 O   0  0  0  0  0  0  0  0  0  0  0  0
    9.9998  -18.5061   19.9888 O   0  0  0  0  0  0  0  0  0  0  0  0
    7.2330  -12.2299   24.8560 C   0  0  0  0  0  0  0  0  0  0  0  0
    6.6438  -13.5536   24.3457 C   0  0  0  0  0  0  0  0  0  0  0  0
    7.1539  -14.6382   25.2463 C   0  0  2  0  0  0  0  0  0  0  0  0
    6.9591  -14.1271   26.6932 C   0  0  0  0  0  0  0  0  0  0  0  0
    8.6242  -14.9141   25.1059 C   0  0  2  0  0  0  0  0  0  0  0  0
    8.7644  -15.6177   23.8219 N   0  0  0  0  0  0  0  0  0  0  0  0
    9.2216  -15.7001   26.1967 C   0  0  0  0  0  0  0  0  0  0  0  0
    9.1761  -16.9881   26.0866 O   0  0  0  0  0  0  0  0  0  0  0  0
    9.8489  -15.2181   27.3647 N   0  0  0  0  0  0  0  0  0  0  0  0
    9.7974  -13.8078   27.7658 C   0  0  0  0  0  0  0  0  0  0  0  0
   11.0485  -13.6172   28.6136 C   0  0  0  0  0  0  0  0  0  0  0  0
   11.1771  -14.9302   29.3361 C   0  0  0  0  0  0  0  0  0  0  0  0
   10.6034  -15.9175   28.3581 C   0  0  1  0  0  0  0  0  0  0  0  0
    9.7619  -16.8531   29.1592 C   0  0  0  0  0  0  0  0  0  0  0  0
   10.4486  -17.6909   30.0417 O   0  0  0  0  0  0  0  0  0  0  0  0
    8.5284  -16.9393   29.1003 O   0  0  0  0  0  0  0  0  0  0  0  0
  2  1  1  6
  2  3  1  0
  3  4  1  0
  4  8  1  0
  4  5  2  0
  6  7  2  0
  6  2  1  0
  9 10  1  0
 10 11  1  0
 11 13  1  0
 11 12  1  1
 13 14  1  6
 14  6  1  0
 15 13  1  0
 16 15  2  0
 17 18  1  0
 17 15  1  0
 19 18  1  0
 20 19  1  0
 21 20  1  0
 21 17  1  0
 21 22  1  1
 23 22  1  0
 24 22  2  0
M  END
$$$$
