SPP.pdb
     RDKit          3D

 21 22  0  0  1  0  0  0  0  0999 V2000
   10.1474  -17.2460   18.1076 O   0  0  0  0  0  0  0  0  0  0  0  0
   11.4555  -16.8533   18.2734 C   0  0  0  0  0  0  0  0  0  0  0  0
   11.4973  -15.3405   18.3799 C   0  0  2  0  0  0  0  0  0  0  0  0
   12.8465  -14.8906   18.3171 N   0  0  0  0  0  0  0  0  0  0  0  0
   10.8283  -14.8951   19.6082 C   0  0  0  0  0  0  0  0  0  0  0  0
   11.4510  -15.1001   20.6985 O   0  0  0  0  0  0  0  0  0  0  0  0
    9.5424  -14.2608   19.6141 N   0  0  0  0  0  0  0  0  0  0  0  0
    8.8774  -13.8382   18.4329 C   0  0  0  0  0  0  0  0  0  0  0  0
    7.7112  -13.0039   18.9223 C   0  0  0  0  0  0  0  0  0  0  0  0
    7.4444  -13.4869   20.3127 C   0  0  0  0  0  0  0  0  0  0  0  0
    8.7808  -13.9837   20.7624 C   0  0  1  0  0  0  0  0  0  0  0  0
    8.6438  -15.1343   21.6966 C   0  0  0  0  0  0  0  0  0  0  0  0
    8.6935  -16.2858   21.2365 O   0  0  0  0  0  0  0  0  0  0  0  0
    8.4634  -14.8530   23.0664 N   0  0  0  0  0  0  0  0  0  0  0  0
    8.5645  -13.5740   23.7432 C   0  0  0  0  0  0  0  0  0  0  0  0
    8.8160  -13.9462   25.2109 C   0  0  0  0  0  0  0  0  0  0  0  0
    7.8847  -15.1325   25.3478 C   0  0  0  0  0  0  0  0  0  0  0  0
    8.1306  -15.8645   24.0533 C   0  0  1  0  0  0  0  0  0  0  0  0
    6.9516  -16.6665   23.6434 C   0  0  0  0  0  0  0  0  0  0  0  0
    6.7337  -17.8553   24.3256 O   0  0  0  0  0  0  0  0  0  0  0  0
    6.1523  -16.3593   22.7457 O   0  0  0  0  0  0  0  0  0  0  0  0
  2  1  1  0
  3  2  1  0
  3  4  1  1
  5  3  1  0
  6  5  2  0
  7  5  1  0
  7  8  1  0
  9  8  1  0
 10 11  1  0
 10  9  1  0
 11  7  1  0
 11 12  1  6
 12 14  1  0
 13 12  2  0
 14 15  1  0
 14 18  1  0
 15 16  1  0
 17 16  1  0
 18 17  1  0
 18 19  1  6
 19 20  1  0
 21 19  2  0
M  END
$$$$
