SPP.pdb
     RDKit          3D

 21 22  0  0  1  0  0  0  0  0999 V2000
    8.6496  -17.0881   22.3851 O   0  0  0  0  0  0  0  0  0  0  0  0
    7.6103  -16.2539   22.0434 C   0  0  0  0  0  0  0  0  0  0  0  0
    8.1222  -14.8260   22.0225 C   0  0  2  0  0  0  0  0  0  0  0  0
    9.1227  -14.6880   21.0191 N   0  0  0  0  0  0  0  0  0  0  0  0
    8.6200  -14.4410   23.3486 C   0  0  0  0  0  0  0  0  0  0  0  0
    9.8787  -14.5066   23.5220 O   0  0  0  0  0  0  0  0  0  0  0  0
    7.7614  -14.0106   24.4132 N   0  0  0  0  0  0  0  0  0  0  0  0
    6.3822  -13.7247   24.2337 C   0  0  0  0  0  0  0  0  0  0  0  0
    5.9514  -13.0661   25.5284 C   0  0  0  0  0  0  0  0  0  0  0  0
    6.9282  -13.5486   26.5535 C   0  0  0  0  0  0  0  0  0  0  0  0
    8.1577  -13.8238   25.7486 C   0  0  1  0  0  0  0  0  0  0  0  0
    8.9351  -14.9577   26.3191 C   0  0  0  0  0  0  0  0  0  0  0  0
    8.8760  -16.0635   25.7590 O   0  0  0  0  0  0  0  0  0  0  0  0
    9.7040  -14.7135   27.4755 N   0  0  0  0  0  0  0  0  0  0  0  0
    9.8132  -13.4862   28.2409 C   0  0  0  0  0  0  0  0  0  0  0  0
   11.1394  -13.6349   28.9993 C   0  0  0  0  0  0  0  0  0  0  0  0
   11.0680  -15.1003   29.3749 C   0  0  0  0  0  0  0  0  0  0  0  0
   10.5461  -15.7165   28.1023 C   0  0  1  0  0  0  0  0  0  0  0  0
    9.8026  -16.9731   28.3652 C   0  0  0  0  0  0  0  0  0  0  0  0
   10.5551  -18.0865   28.7120 O   0  0  0  0  0  0  0  0  0  0  0  0
    8.5707  -17.1047   28.2997 O   0  0  0  0  0  0  0  0  0  0  0  0
  2  1  1  0
  3  2  1  0
  3  4  1  6
  5  3  1  0
  6  5  2  0
  7  5  1  0
  7  8  1  0
  9  8  1  0
 10 11  1  0
 10  9  1  0
 11  7  1  0
 11 12  1  1
 12 14  1  0
 13 12  2  0
 14 15  1  0
 14 18  1  0
 15 16  1  0
 17 16  1  0
 18 17  1  0
 18 19  1  1
 19 20  1  0
 21 19  2  0
M  END
$$$$
