SPP.pdb
     RDKit          3D

 21 22  0  0  1  0  0  0  0  0999 V2000
    8.7707  -16.9449   21.8120 O   0  0  0  0  0  0  0  0  0  0  0  0
    7.5857  -16.2846   22.0417 C   0  0  0  0  0  0  0  0  0  0  0  0
    7.8480  -14.7909   22.0021 C   0  0  2  0  0  0  0  0  0  0  0  0
    8.7220  -14.4843   20.9209 N   0  0  0  0  0  0  0  0  0  0  0  0
    8.3857  -14.3312   23.2881 C   0  0  0  0  0  0  0  0  0  0  0  0
    9.6524  -14.2516   23.3764 O   0  0  0  0  0  0  0  0  0  0  0  0
    7.5564  -13.9835   24.4049 N   0  0  0  0  0  0  0  0  0  0  0  0
    6.1512  -13.8060   24.3055 C   0  0  0  0  0  0  0  0  0  0  0  0
    5.7425  -13.1996   25.6324 C   0  0  0  0  0  0  0  0  0  0  0  0
    6.8096  -13.6155   26.5947 C   0  0  0  0  0  0  0  0  0  0  0  0
    8.0103  -13.7822   25.7197 C   0  0  1  0  0  0  0  0  0  0  0  0
    8.9051  -14.8575   26.2282 C   0  0  0  0  0  0  0  0  0  0  0  0
    8.9438  -15.9388   25.6203 O   0  0  0  0  0  0  0  0  0  0  0  0
    9.6677  -14.5888   27.3832 N   0  0  0  0  0  0  0  0  0  0  0  0
    9.7577  -13.3510   28.1342 C   0  0  0  0  0  0  0  0  0  0  0  0
   11.0841  -13.4718   28.8972 C   0  0  0  0  0  0  0  0  0  0  0  0
   11.0327  -14.9335   29.2900 C   0  0  0  0  0  0  0  0  0  0  0  0
   10.5226  -15.5721   28.0236 C   0  0  1  0  0  0  0  0  0  0  0  0
    9.7965  -16.8361   28.2998 C   0  0  0  0  0  0  0  0  0  0  0  0
   10.5690  -17.9631   28.5432 O   0  0  0  0  0  0  0  0  0  0  0  0
    8.5627  -16.9625   28.3299 O   0  0  0  0  0  0  0  0  0  0  0  0
  2  1  1  0
  3  2  1  0
  3  4  1  6
  5  3  1  0
  6  5  2  0
  7  5  1  0
  7  8  1  0
  9  8  1  0
 10 11  1  0
 10  9  1  0
 11  7  1  0
 11 12  1  1
 12 14  1  0
 13 12  2  0
 14 15  1  0
 14 18  1  0
 15 16  1  0
 17 16  1  0
 18 17  1  0
 18 19  1  1
 19 20  1  0
 21 19  2  0
M  END
$$$$
