SPP.pdb
     RDKit          3D

 21 22  0  0  1  0  0  0  0  0999 V2000
    8.4191  -16.8500   22.1462 O   0  0  0  0  0  0  0  0  0  0  0  0
    7.3107  -16.0418   22.0410 C   0  0  0  0  0  0  0  0  0  0  0  0
    7.7669  -14.5952   22.0141 C   0  0  2  0  0  0  0  0  0  0  0  0
    8.6986  -14.4040   20.9547 N   0  0  0  0  0  0  0  0  0  0  0  0
    8.3299  -14.2115   23.3142 C   0  0  0  0  0  0  0  0  0  0  0  0
    9.5987  -14.2222   23.4073 O   0  0  0  0  0  0  0  0  0  0  0  0
    7.5220  -13.8402   24.4390 N   0  0  0  0  0  0  0  0  0  0  0  0
    6.1254  -13.6006   24.3491 C   0  0  0  0  0  0  0  0  0  0  0  0
    5.7500  -12.9914   25.6846 C   0  0  0  0  0  0  0  0  0  0  0  0
    6.8027  -13.4638   26.6367 C   0  0  0  0  0  0  0  0  0  0  0  0
    7.9907  -13.6731   25.7535 C   0  0  1  0  0  0  0  0  0  0  0  0
    8.8402  -14.7919   26.2456 C   0  0  0  0  0  0  0  0  0  0  0  0
    8.8207  -15.8705   25.6323 O   0  0  0  0  0  0  0  0  0  0  0  0
    9.6287  -14.5653   27.3923 N   0  0  0  0  0  0  0  0  0  0  0  0
    9.7757  -13.3406   28.1556 C   0  0  0  0  0  0  0  0  0  0  0  0
   11.1074  -13.5197   28.8976 C   0  0  0  0  0  0  0  0  0  0  0  0
   11.0068  -14.9829   29.2749 C   0  0  0  0  0  0  0  0  0  0  0  0
   10.4552  -15.5873   28.0091 C   0  0  1  0  0  0  0  0  0  0  0  0
    9.6862  -16.8264   28.2819 C   0  0  0  0  0  0  0  0  0  0  0  0
   10.4182  -17.9624   28.5974 O   0  0  0  0  0  0  0  0  0  0  0  0
    8.4499  -16.9248   28.2501 O   0  0  0  0  0  0  0  0  0  0  0  0
  2  1  1  0
  3  2  1  0
  3  4  1  6
  5  3  1  0
  6  5  2  0
  7  5  1  0
  7  8  1  0
  9  8  1  0
 10 11  1  0
 10  9  1  0
 11  7  1  0
 11 12  1  1
 12 14  1  0
 13 12  2  0
 14 15  1  0
 14 18  1  0
 15 16  1  0
 17 16  1  0
 18 17  1  0
 18 19  1  1
 19 20  1  0
 21 19  2  0
M  END
$$$$
