SPP.pdb
     RDKit          3D

 21 22  0  0  1  0  0  0  0  0999 V2000
    8.9814  -18.9631   23.6089 O   0  0  0  0  0  0  0  0  0  0  0  0
    7.7510  -19.5666   23.4878 C   0  0  0  0  0  0  0  0  0  0  0  0
    6.7029  -18.6570   24.1007 C   0  0  2  0  0  0  0  0  0  0  0  0
    5.4410  -19.3161   24.1124 N   0  0  0  0  0  0  0  0  0  0  0  0
    6.6472  -17.3805   23.3783 C   0  0  0  0  0  0  0  0  0  0  0  0
    6.0260  -17.3848   22.2680 O   0  0  0  0  0  0  0  0  0  0  0  0
    7.2503  -16.1757   23.8687 N   0  0  0  0  0  0  0  0  0  0  0  0
    7.6741  -16.0089   25.2136 C   0  0  0  0  0  0  0  0  0  0  0  0
    7.9917  -14.5328   25.3394 C   0  0  0  0  0  0  0  0  0  0  0  0
    8.2962  -14.0807   23.9463 C   0  0  0  0  0  0  0  0  0  0  0  0
    7.5036  -15.0258   23.1014 C   0  0  1  0  0  0  0  0  0  0  0  0
    8.1850  -15.2943   21.8055 C   0  0  0  0  0  0  0  0  0  0  0  0
    8.7863  -16.3700   21.6591 O   0  0  0  0  0  0  0  0  0  0  0  0
    8.1107  -14.3041   20.8045 N   0  0  0  0  0  0  0  0  0  0  0  0
    7.3591  -13.0636   20.8199 C   0  0  0  0  0  0  0  0  0  0  0  0
    7.2150  -12.6949   19.3369 C   0  0  0  0  0  0  0  0  0  0  0  0
    8.5901  -13.0798   18.8324 C   0  0  0  0  0  0  0  0  0  0  0  0
    8.8188  -14.3909   19.5400 C   0  0  1  0  0  0  0  0  0  0  0  0
   10.2638  -14.6644   19.7359 C   0  0  0  0  0  0  0  0  0  0  0  0
   10.9182  -15.3408   18.7160 O   0  0  0  0  0  0  0  0  0  0  0  0
   10.9267  -14.3381   20.7325 O   0  0  0  0  0  0  0  0  0  0  0  0
  2  1  1  0
  3  2  1  0
  3  4  1  6
  5  3  1  0
  6  5  2  0
  7  5  1  0
  7  8  1  0
  9  8  1  0
 10 11  1  0
 10  9  1  0
 11  7  1  0
 11 12  1  6
 12 14  1  0
 13 12  2  0
 14 15  1  0
 14 18  1  0
 15 16  1  0
 17 16  1  0
 18 17  1  0
 18 19  1  1
 19 20  1  0
 21 19  2  0
M  END
$$$$
