SPP.pdb
     RDKit          3D

 21 22  0  0  1  0  0  0  0  0999 V2000
   11.7106  -18.5027   21.7137 O   0  0  0  0  0  0  0  0  0  0  0  0
   10.3953  -18.1020   21.6670 C   0  0  0  0  0  0  0  0  0  0  0  0
   10.3192  -16.7736   20.9383 C   0  0  2  0  0  0  0  0  0  0  0  0
   11.5912  -16.4553   20.3836 N   0  0  0  0  0  0  0  0  0  0  0  0
    9.8368  -15.7214   21.8409 C   0  0  0  0  0  0  0  0  0  0  0  0
   10.7098  -15.1663   22.5814 O   0  0  0  0  0  0  0  0  0  0  0  0
    8.4628  -15.3174   21.9099 N   0  0  0  0  0  0  0  0  0  0  0  0
    7.4942  -15.6831   20.9382 C   0  0  0  0  0  0  0  0  0  0  0  0
    6.2811  -14.8353   21.2622 C   0  0  0  0  0  0  0  0  0  0  0  0
    6.4212  -14.4948   22.7121 C   0  0  0  0  0  0  0  0  0  0  0  0
    7.9001  -14.5287   22.9280 C   0  0  1  0  0  0  0  0  0  0  0  0
    8.2354  -14.9802   24.3061 C   0  0  0  0  0  0  0  0  0  0  0  0
    8.5950  -16.1555   24.4781 O   0  0  0  0  0  0  0  0  0  0  0  0
    8.1260  -14.0411   25.3521 N   0  0  0  0  0  0  0  0  0  0  0  0
    7.7723  -12.6369   25.2672 C   0  0  0  0  0  0  0  0  0  0  0  0
    8.3348  -12.0305   26.5603 C   0  0  0  0  0  0  0  0  0  0  0  0
    8.0019  -13.1368   27.5395 C   0  0  0  0  0  0  0  0  0  0  0  0
    8.3660  -14.3659   26.7466 C   0  0  1  0  0  0  0  0  0  0  0  0
    7.5832  -15.5499   27.1786 C   0  0  0  0  0  0  0  0  0  0  0  0
    8.0775  -16.2692   28.2575 O   0  0  0  0  0  0  0  0  0  0  0  0
    6.5298  -15.9433   26.6544 O   0  0  0  0  0  0  0  0  0  0  0  0
  2  1  1  0
  3  2  1  0
  3  4  1  1
  5  3  1  0
  6  5  2  0
  7  5  1  0
  7  8  1  0
  9  8  1  0
 10 11  1  0
 10  9  1  0
 11  7  1  0
 11 12  1  1
 12 14  1  0
 13 12  2  0
 14 15  1  0
 14 18  1  0
 15 16  1  0
 17 16  1  0
 18 17  1  0
 18 19  1  1
 19 20  1  0
 21 19  2  0
M  END
$$$$
