HST.pdb
     RDKit          3D

 24 24  0  0  1  0  0  0  0  0999 V2000
   10.6759  -14.7311   19.5876 N   0  0  0  0  0  0  0  0  0  0  0  0
    9.5824  -14.4128   20.4507 C   0  0  1  0  0  0  0  0  0  0  0  0
    8.2924  -14.9882   19.9066 C   0  0  0  0  0  0  0  0  0  0  0  0
    7.9906  -14.5090   18.5440 C   0  0  0  0  0  0  0  0  0  0  0  0
    7.7465  -13.2213   18.1691 C   0  0  0  0  0  0  0  0  0  0  0  0
    7.5146  -13.2158   16.8292 N   0  0  0  0  0  0  0  0  0  0  0  0
    7.6173  -14.4953   16.3911 C   0  0  0  0  0  0  0  0  0  0  0  0
    7.9097  -15.2803   17.4521 N   0  0  0  0  0  0  0  0  0  0  0  0
    9.7475  -14.9074   21.8239 C   0  0  0  0  0  0  0  0  0  0  0  0
   10.7163  -15.7016   22.0618 O   0  0  0  0  0  0  0  0  0  0  0  0
    7.0980  -14.2693   24.9716 O   0  0  0  0  0  0  0  0  0  0  0  0
    8.4569  -14.0748   25.2773 C   0  0  0  0  0  0  0  0  0  0  0  0
    9.2792  -14.8899   24.2995 C   0  0  2  0  0  0  0  0  0  0  0  0
    8.9277  -14.5871   22.9271 N   0  0  0  0  0  0  0  0  0  0  0  0
    9.1382  -16.3379   24.5971 C   0  0  0  0  0  0  0  0  0  0  0  0
    8.0997  -16.9753   24.2685 O   0  0  0  0  0  0  0  0  0  0  0  0
   10.9372  -19.2540   23.3527 C   0  0  0  0  0  0  0  0  0  0  0  0
   11.2297  -19.1956   24.8338 C   0  0  1  0  0  0  0  0  0  0  0  0
   12.4383  -18.5030   24.9763 O   0  0  0  0  0  0  0  0  0  0  0  0
   10.1651  -18.4171   25.5800 C   0  0  2  0  0  0  0  0  0  0  0  0
   10.1918  -17.0164   25.2634 N   0  0  0  0  0  0  0  0  0  0  0  0
   10.4110  -18.5829   27.0283 C   0  0  0  0  0  0  0  0  0  0  0  0
   10.3124  -19.7939   27.6992 O   0  0  0  0  0  0  0  0  0  0  0  0
   10.7285  -17.5760   27.7020 O   0  0  0  0  0  0  0  0  0  0  0  0
  2  1  1  6
  3  2  1  0
  4  5  2  0
  4  3  1  0
  6  5  1  0
  7  8  2  0
  7  6  1  0
  8  4  1  0
  9  2  1  0
 10  9  2  0
 11 12  1  0
 13 12  1  1
 13 15  1  0
 13 14  1  0
 14  9  1  0
 15 21  1  0
 16 15  2  0
 18 19  1  0
 18 17  1  6
 20 18  1  0
 20 22  1  0
 20 21  1  6
 22 24  2  0
 22 23  1  0
M  END
$$$$
