HST.pdb
     RDKit          3D

 24 24  0  0  1  0  0  0  0  0999 V2000
   11.1480  -15.4407   14.8281 N   0  0  0  0  0  0  0  0  0  0  0  0
   10.0547  -15.8471   15.6537 C   0  0  1  0  0  0  0  0  0  0  0  0
    9.9423  -17.3563   15.6800 C   0  0  0  0  0  0  0  0  0  0  0  0
    9.6456  -17.9238   14.3506 C   0  0  0  0  0  0  0  0  0  0  0  0
    8.4572  -17.8619   13.6856 C   0  0  0  0  0  0  0  0  0  0  0  0
    8.6115  -18.5079   12.4989 N   0  0  0  0  0  0  0  0  0  0  0  0
    9.8888  -18.9607   12.4426 C   0  0  0  0  0  0  0  0  0  0  0  0
   10.5141  -18.5965   13.5844 N   0  0  0  0  0  0  0  0  0  0  0  0
   10.1569  -15.3828   17.0435 C   0  0  0  0  0  0  0  0  0  0  0  0
   11.2749  -15.5223   17.6407 O   0  0  0  0  0  0  0  0  0  0  0  0
    6.9853  -13.8632   19.2806 O   0  0  0  0  0  0  0  0  0  0  0  0
    8.2363  -13.2580   19.4964 C   0  0  0  0  0  0  0  0  0  0  0  0
    9.3121  -14.2629   19.1366 C   0  0  2  0  0  0  0  0  0  0  0  0
    9.1243  -14.7872   17.7992 N   0  0  0  0  0  0  0  0  0  0  0  0
    9.3582  -15.3464   20.1510 C   0  0  0  0  0  0  0  0  0  0  0  0
    8.6497  -16.3841   20.0326 O   0  0  0  0  0  0  0  0  0  0  0  0
   12.4056  -17.2428   21.3742 C   0  0  0  0  0  0  0  0  0  0  0  0
   11.7766  -16.5802   22.5775 C   0  0  1  0  0  0  0  0  0  0  0  0
   12.4927  -15.3984   22.8039 O   0  0  0  0  0  0  0  0  0  0  0  0
   10.3347  -16.1980   22.3109 C   0  0  2  0  0  0  0  0  0  0  0  0
   10.2155  -15.2112   21.2740 N   0  0  0  0  0  0  0  0  0  0  0  0
    9.7714  -15.6457   23.5611 C   0  0  0  0  0  0  0  0  0  0  0  0
    9.6569  -16.3622   24.7443 O   0  0  0  0  0  0  0  0  0  0  0  0
    9.3693  -14.4596   23.5654 O   0  0  0  0  0  0  0  0  0  0  0  0
  2  1  1  6
  3  2  1  0
  4  5  2  0
  4  3  1  0
  6  5  1  0
  7  8  2  0
  7  6  1  0
  8  4  1  0
  9  2  1  0
 10  9  2  0
 11 12  1  0
 13 12  1  1
 13 15  1  0
 13 14  1  0
 14  9  1  0
 15 21  1  0
 16 15  2  0
 18 19  1  0
 18 17  1  6
 20 18  1  0
 20 22  1  0
 20 21  1  6
 22 24  2  0
 22 23  1  0
M  END
$$$$
