HST.pdb
     RDKit          3D

 24 24  0  0  1  0  0  0  0  0999 V2000
   14.0865  -15.3111   13.6401 N   0  0  0  0  0  0  0  0  0  0  0  0
   14.5257  -15.6933   14.9451 C   0  0  1  0  0  0  0  0  0  0  0  0
   15.4682  -14.6540   15.5131 C   0  0  0  0  0  0  0  0  0  0  0  0
   16.7592  -14.6122   14.7996 C   0  0  0  0  0  0  0  0  0  0  0  0
   17.3293  -13.5229   14.2108 C   0  0  0  0  0  0  0  0  0  0  0  0
   18.5122  -13.9161   13.6674 N   0  0  0  0  0  0  0  0  0  0  0  0
   18.6607  -15.2395   13.9248 C   0  0  0  0  0  0  0  0  0  0  0  0
   17.5789  -15.6561   14.6202 N   0  0  0  0  0  0  0  0  0  0  0  0
   13.4321  -15.8779   15.9082 C   0  0  0  0  0  0  0  0  0  0  0  0
   12.4865  -15.0225   15.9116 O   0  0  0  0  0  0  0  0  0  0  0  0
   12.6514  -19.3569   18.1693 O   0  0  0  0  0  0  0  0  0  0  0  0
   11.6429  -18.4863   17.7189 C   0  0  0  0  0  0  0  0  0  0  0  0
   12.1941  -17.0749   17.7475 C   0  0  2  0  0  0  0  0  0  0  0  0
   13.3195  -16.9252   16.8476 N   0  0  0  0  0  0  0  0  0  0  0  0
   12.5469  -16.6929   19.1384 C   0  0  0  0  0  0  0  0  0  0  0  0
   13.7484  -16.5243   19.4858 O   0  0  0  0  0  0  0  0  0  0  0  0
    9.8775  -14.5141   21.6274 C   0  0  0  0  0  0  0  0  0  0  0  0
   10.4702  -15.7851   22.1895 C   0  0  1  0  0  0  0  0  0  0  0  0
    9.5327  -16.7997   21.9604 O   0  0  0  0  0  0  0  0  0  0  0  0
   11.7463  -16.1693   21.4684 C   0  0  2  0  0  0  0  0  0  0  0  0
   11.5126  -16.5143   20.0938 N   0  0  0  0  0  0  0  0  0  0  0  0
   12.3262  -17.3395   22.1612 C   0  0  0  0  0  0  0  0  0  0  0  0
   12.4907  -18.5865   21.5744 O   0  0  0  0  0  0  0  0  0  0  0  0
   12.6954  -17.2101   23.3509 O   0  0  0  0  0  0  0  0  0  0  0  0
  2  1  1  6
  3  2  1  0
  4  5  2  0
  4  3  1  0
  6  5  1  0
  7  8  2  0
  7  6  1  0
  8  4  1  0
  9  2  1  0
 10  9  2  0
 11 12  1  0
 13 12  1  1
 13 15  1  0
 13 14  1  0
 14  9  1  0
 15 21  1  0
 16 15  2  0
 18 19  1  0
 18 17  1  6
 20 18  1  0
 20 22  1  0
 20 21  1  6
 22 24  2  0
 22 23  1  0
M  END
$$$$
