HST.pdb
     RDKit          3D

 24 24  0  0  1  0  0  0  0  0999 V2000
    8.6564  -16.8690   19.6363 N   0  0  0  0  0  0  0  0  0  0  0  0
    8.7437  -15.7644   20.5388 C   0  0  1  0  0  0  0  0  0  0  0  0
    7.6784  -14.7364   20.2234 C   0  0  0  0  0  0  0  0  0  0  0  0
    7.8038  -14.1940   18.8568 C   0  0  0  0  0  0  0  0  0  0  0  0
    8.5325  -13.1067   18.4760 C   0  0  0  0  0  0  0  0  0  0  0  0
    8.3760  -12.9514   17.1342 N   0  0  0  0  0  0  0  0  0  0  0  0
    7.5554  -13.9405   16.7008 C   0  0  0  0  0  0  0  0  0  0  0  0
    7.2104  -14.6971   17.7666 N   0  0  0  0  0  0  0  0  0  0  0  0
    8.5974  -16.1400   21.9513 C   0  0  0  0  0  0  0  0  0  0  0  0
    7.4457  -16.5074   22.3569 O   0  0  0  0  0  0  0  0  0  0  0  0
   11.2265  -18.1812   24.1681 O   0  0  0  0  0  0  0  0  0  0  0  0
    9.8405  -18.0880   24.3879 C   0  0  0  0  0  0  0  0  0  0  0  0
    9.4441  -16.6298   24.2733 C   0  0  2  0  0  0  0  0  0  0  0  0
    9.6208  -16.1352   22.9231 N   0  0  0  0  0  0  0  0  0  0  0  0
   10.1988  -15.8167   25.2605 C   0  0  0  0  0  0  0  0  0  0  0  0
   11.3458  -15.3628   24.9940 O   0  0  0  0  0  0  0  0  0  0  0  0
    8.9238  -12.6402   27.1455 C   0  0  0  0  0  0  0  0  0  0  0  0
    9.2797  -13.7257   28.1342 C   0  0  1  0  0  0  0  0  0  0  0  0
    8.0904  -14.4022   28.4316 O   0  0  0  0  0  0  0  0  0  0  0  0
   10.2406  -14.7314   27.5330 C   0  0  2  0  0  0  0  0  0  0  0  0
    9.6179  -15.5457   26.5268 N   0  0  0  0  0  0  0  0  0  0  0  0
   10.7241  -15.6066   28.6219 C   0  0  0  0  0  0  0  0  0  0  0  0
   11.4805  -15.1622   29.6975 O   0  0  0  0  0  0  0  0  0  0  0  0
   10.4401  -16.8257   28.5827 O   0  0  0  0  0  0  0  0  0  0  0  0
  2  1  1  6
  3  2  1  0
  4  5  2  0
  4  3  1  0
  6  5  1  0
  7  8  2  0
  7  6  1  0
  8  4  1  0
  9  2  1  0
 10  9  2  0
 11 12  1  0
 13 12  1  6
 13 15  1  0
 13 14  1  0
 14  9  1  0
 15 21  1  0
 16 15  2  0
 18 19  1  0
 18 17  1  6
 20 18  1  0
 20 22  1  0
 20 21  1  6
 22 24  2  0
 22 23  1  0
M  END
$$$$
