HST.pdb
     RDKit          3D

 24 24  0  0  1  0  0  0  0  0999 V2000
    8.5065  -13.4424   19.1110 N   0  0  0  0  0  0  0  0  0  0  0  0
    9.0640  -14.5108   19.8790 C   0  0  1  0  0  0  0  0  0  0  0  0
   10.5623  -14.3426   20.0123 C   0  0  0  0  0  0  0  0  0  0  0  0
   11.2923  -14.8174   18.8210 C   0  0  0  0  0  0  0  0  0  0  0  0
   10.7479  -15.3591   17.6948 C   0  0  0  0  0  0  0  0  0  0  0  0
   11.7660  -15.6604   16.8451 N   0  0  0  0  0  0  0  0  0  0  0  0
   12.9250  -15.3032   17.4526 C   0  0  0  0  0  0  0  0  0  0  0  0
   12.6221  -14.7870   18.6647 N   0  0  0  0  0  0  0  0  0  0  0  0
    8.5051  -14.6222   21.2328 C   0  0  0  0  0  0  0  0  0  0  0  0
    8.0999  -13.5560   21.8029 O   0  0  0  0  0  0  0  0  0  0  0  0
    8.1540  -18.1710   23.6408 O   0  0  0  0  0  0  0  0  0  0  0  0
    7.1246  -17.2164   23.5574 C   0  0  0  0  0  0  0  0  0  0  0  0
    7.7580  -15.8652   23.2932 C   0  0  2  0  0  0  0  0  0  0  0  0
    8.3685  -15.8114   21.9806 N   0  0  0  0  0  0  0  0  0  0  0  0
    8.7310  -15.5391   24.3666 C   0  0  0  0  0  0  0  0  0  0  0  0
    9.9748  -15.5849   24.1581 O   0  0  0  0  0  0  0  0  0  0  0  0
    8.6878  -12.4076   26.7860 C   0  0  0  0  0  0  0  0  0  0  0  0
    8.6071  -13.6933   27.5754 C   0  0  1  0  0  0  0  0  0  0  0  0
    7.2513  -13.9106   27.8495 O   0  0  0  0  0  0  0  0  0  0  0  0
    9.1058  -14.8738   26.7667 C   0  0  2  0  0  0  0  0  0  0  0  0
    8.2517  -15.1691   25.6503 N   0  0  0  0  0  0  0  0  0  0  0  0
    9.1477  -16.0518   27.6590 C   0  0  0  0  0  0  0  0  0  0  0  0
    9.9246  -16.1296   28.8066 O   0  0  0  0  0  0  0  0  0  0  0  0
    8.4433  -17.0468   27.3724 O   0  0  0  0  0  0  0  0  0  0  0  0
  2  1  1  1
  3  2  1  0
  4  5  2  0
  4  3  1  0
  6  5  1  0
  7  8  2  0
  7  6  1  0
  8  4  1  0
  9  2  1  0
 10  9  2  0
 11 12  1  0
 13 12  1  1
 13 15  1  0
 13 14  1  0
 14  9  1  0
 15 21  1  0
 16 15  2  0
 18 19  1  0
 18 17  1  6
 20 18  1  0
 20 22  1  0
 20 21  1  6
 22 24  2  0
 22 23  1  0
M  END
$$$$
