HST.pdb
     RDKit          3D

 24 24  0  0  1  0  0  0  0  0999 V2000
   10.8231  -15.6435   20.2313 N   0  0  0  0  0  0  0  0  0  0  0  0
   10.4013  -16.6548   21.1486 C   0  0  1  0  0  0  0  0  0  0  0  0
   11.5196  -17.6438   21.3985 C   0  0  0  0  0  0  0  0  0  0  0  0
   11.8041  -18.4846   20.2197 C   0  0  0  0  0  0  0  0  0  0  0  0
   10.8884  -19.0579   19.3884 C   0  0  0  0  0  0  0  0  0  0  0  0
   11.5687  -19.7468   18.4335 N   0  0  0  0  0  0  0  0  0  0  0  0
   12.8930  -19.5928   18.6833 C   0  0  0  0  0  0  0  0  0  0  0  0
   13.0256  -18.8163   19.7819 N   0  0  0  0  0  0  0  0  0  0  0  0
    9.9694  -16.1310   22.4511 C   0  0  0  0  0  0  0  0  0  0  0  0
   10.5913  -15.1251   22.9281 O   0  0  0  0  0  0  0  0  0  0  0  0
    7.0860  -17.8995   24.8984 O   0  0  0  0  0  0  0  0  0  0  0  0
    7.1230  -16.4937   24.9074 C   0  0  0  0  0  0  0  0  0  0  0  0
    8.5192  -16.0584   24.5103 C   0  0  2  0  0  0  0  0  0  0  0  0
    8.9165  -16.6372   23.2431 N   0  0  0  0  0  0  0  0  0  0  0  0
    9.4829  -16.3865   25.5915 C   0  0  0  0  0  0  0  0  0  0  0  0
   10.3892  -17.2480   25.4208 O   0  0  0  0  0  0  0  0  0  0  0  0
   10.4226  -13.4337   28.3671 C   0  0  0  0  0  0  0  0  0  0  0  0
   10.1951  -14.8031   28.9634 C   0  0  1  0  0  0  0  0  0  0  0  0
    8.8787  -14.8186   29.4403 O   0  0  0  0  0  0  0  0  0  0  0  0
   10.3158  -15.8919   27.9164 C   0  0  2  0  0  0  0  0  0  0  0  0
    9.3816  -15.7180   26.8394 N   0  0  0  0  0  0  0  0  0  0  0  0
   10.0480  -17.1882   28.5746 C   0  0  0  0  0  0  0  0  0  0  0  0
    8.9651  -18.0028   28.2740 O   0  0  0  0  0  0  0  0  0  0  0  0
   10.8397  -17.5867   29.4594 O   0  0  0  0  0  0  0  0  0  0  0  0
  2  1  1  6
  3  2  1  0
  4  5  2  0
  4  3  1  0
  6  5  1  0
  7  8  2  0
  7  6  1  0
  8  4  1  0
  9  2  1  0
 10  9  2  0
 11 12  1  0
 13 12  1  1
 13 15  1  0
 13 14  1  0
 14  9  1  0
 15 21  1  0
 16 15  2  0
 18 19  1  0
 18 17  1  6
 20 18  1  0
 20 22  1  0
 20 21  1  6
 22 24  2  0
 22 23  1  0
M  END
$$$$
