HST.pdb
     RDKit          3D

 24 24  0  0  1  0  0  0  0  0999 V2000
   12.8902  -14.7568   16.4956 N   0  0  0  0  0  0  0  0  0  0  0  0
   11.5485  -15.2023   16.7043 C   0  0  1  0  0  0  0  0  0  0  0  0
   11.4613  -16.7068   16.5636 C   0  0  0  0  0  0  0  0  0  0  0  0
   11.7196  -17.1611   15.1836 C   0  0  0  0  0  0  0  0  0  0  0  0
   10.7948  -17.3357   14.1974 C   0  0  0  0  0  0  0  0  0  0  0  0
   11.4500  -17.7624   13.0848 N   0  0  0  0  0  0  0  0  0  0  0  0
   12.7681  -17.8468   13.3934 C   0  0  0  0  0  0  0  0  0  0  0  0
   12.9219  -17.4754   14.6841 N   0  0  0  0  0  0  0  0  0  0  0  0
   11.0031  -14.8446   18.0203 C   0  0  0  0  0  0  0  0  0  0  0  0
   11.7098  -15.0993   19.0507 O   0  0  0  0  0  0  0  0  0  0  0  0
    7.0530  -13.6667   18.8219 O   0  0  0  0  0  0  0  0  0  0  0  0
    8.0631  -12.9840   19.5229 C   0  0  0  0  0  0  0  0  0  0  0  0
    9.2800  -13.8849   19.5883 C   0  0  2  0  0  0  0  0  0  0  0  0
    9.7531  -14.2365   18.2649 N   0  0  0  0  0  0  0  0  0  0  0  0
    8.9800  -15.0892   20.4036 C   0  0  0  0  0  0  0  0  0  0  0  0
    8.3325  -16.0600   19.9230 O   0  0  0  0  0  0  0  0  0  0  0  0
   11.5961  -16.6348   23.1519 C   0  0  0  0  0  0  0  0  0  0  0  0
   10.2216  -16.3704   23.7208 C   0  0  1  0  0  0  0  0  0  0  0  0
   10.2887  -15.1323   24.3713 O   0  0  0  0  0  0  0  0  0  0  0  0
    9.1798  -16.2568   22.6263 C   0  0  2  0  0  0  0  0  0  0  0  0
    9.4308  -15.1484   21.7481 N   0  0  0  0  0  0  0  0  0  0  0  0
    7.8625  -16.0660   23.2696 C   0  0  0  0  0  0  0  0  0  0  0  0
    7.2551  -17.0068   24.0896 O   0  0  0  0  0  0  0  0  0  0  0  0
    7.2470  -14.9937   23.0700 O   0  0  0  0  0  0  0  0  0  0  0  0
  2  1  1  1
  3  2  1  0
  4  5  2  0
  4  3  1  0
  6  5  1  0
  7  8  2  0
  7  6  1  0
  8  4  1  0
  9  2  1  0
 10  9  2  0
 11 12  1  0
 13 12  1  6
 13 15  1  0
 13 14  1  0
 14  9  1  0
 15 21  1  0
 16 15  2  0
 18 19  1  0
 18 17  1  6
 20 18  1  0
 20 22  1  0
 20 21  1  6
 22 24  2  0
 22 23  1  0
M  END
$$$$
