SDD.pdb
     RDKit          3D

 23 22  0  0  1  0  0  0  0  0999 V2000
   22.3549  -13.4165  -18.1047 O   0  0  0  0  0  0  0  0  0  0  0  0
   21.9304  -13.9173  -16.8836 C   0  0  0  0  0  0  0  0  0  0  0  0
   20.4384  -14.1919  -17.0231 C   0  0  2  0  0  0  0  0  0  0  0  0
   20.2637  -15.1271  -18.0761 N   0  0  0  0  0  0  0  0  0  0  0  0
   19.6981  -12.9006  -17.2260 C   0  0  0  0  0  0  0  0  0  0  0  0
   19.3088  -12.6698  -18.3651 O   0  0  0  0  0  0  0  0  0  0  0  0
   19.4635  -12.0068  -16.1701 N   0  0  0  0  0  0  0  0  0  0  0  0
   18.8360  -10.7369  -16.1483 C   0  0  1  0  0  0  0  0  0  0  0  0
   17.3773  -10.6505  -15.8531 C   0  0  0  0  0  0  0  0  0  0  0  0
   16.7995   -9.2879  -15.9158 C   0  0  0  0  0  0  0  0  0  0  0  0
   16.8791   -8.6284  -17.0162 O   0  0  0  0  0  0  0  0  0  0  0  0
   19.6713   -9.6627  -15.5924 C   0  0  0  0  0  0  0  0  0  0  0  0
   20.2273   -9.8435  -14.4479 O   0  0  0  0  0  0  0  0  0  0  0  0
   16.1810   -8.7015  -14.8342 O   0  0  0  0  0  0  0  0  0  0  0  0
   19.9207   -8.4242  -16.2196 N   0  0  0  0  0  0  0  0  0  0  0  0
   20.8277   -7.4272  -15.5912 C   0  0  1  0  0  0  0  0  0  0  0  0
   21.1249   -6.4332  -16.6825 C   0  0  0  0  0  0  0  0  0  0  0  0
   21.9635   -5.3026  -16.2780 C   0  0  0  0  0  0  0  0  0  0  0  0
   23.0962   -5.4571  -15.7996 O   0  0  0  0  0  0  0  0  0  0  0  0
   20.1404   -6.8416  -14.4242 C   0  0  0  0  0  0  0  0  0  0  0  0
   20.8458   -6.4331  -13.2837 O   0  0  0  0  0  0  0  0  0  0  0  0
   21.5010   -4.0013  -16.4235 O   0  0  0  0  0  0  0  0  0  0  0  0
   18.9065   -6.6927  -14.4203 O   0  0  0  0  0  0  0  0  0  0  0  0
  2  1  1  0
  3  4  1  6
  3  2  1  0
  5  3  1  0
  6  5  2  0
  7  5  1  0
  8 12  1  0
  8  7  1  0
  8  9  1  1
 10  9  1  0
 11 10  2  0
 12 15  1  0
 13 12  2  0
 14 10  1  0
 15 16  1  0
 16 17  1  6
 16 20  1  0
 17 18  1  0
 18 22  1  0
 19 18  2  0
 20 23  2  0
 20 21  1  0
M  END
$$$$
