SDD.pdb
     RDKit          3D

 23 22  0  0  1  0  0  0  0  0999 V2000
   17.6936  -15.7201  -14.3611 O   0  0  0  0  0  0  0  0  0  0  0  0
   17.9750  -14.4292  -14.7812 C   0  0  0  0  0  0  0  0  0  0  0  0
   17.1210  -14.1804  -16.0181 C   0  0  2  0  0  0  0  0  0  0  0  0
   17.5784  -15.0463  -17.0451 N   0  0  0  0  0  0  0  0  0  0  0  0
   17.1647  -12.7242  -16.3844 C   0  0  0  0  0  0  0  0  0  0  0  0
   17.9247  -12.4148  -17.2949 O   0  0  0  0  0  0  0  0  0  0  0  0
   16.3784  -11.7693  -15.7221 N   0  0  0  0  0  0  0  0  0  0  0  0
   16.2410  -10.3742  -15.9260 C   0  0  1  0  0  0  0  0  0  0  0  0
   14.8756   -9.7807  -16.0041 C   0  0  0  0  0  0  0  0  0  0  0  0
   14.8341   -8.3230  -16.2643 C   0  0  0  0  0  0  0  0  0  0  0  0
   15.4036   -7.8631  -17.3208 O   0  0  0  0  0  0  0  0  0  0  0  0
   17.2586   -9.5632  -15.2425 C   0  0  0  0  0  0  0  0  0  0  0  0
   17.3064   -9.5879  -13.9584 O   0  0  0  0  0  0  0  0  0  0  0  0
   14.2075   -7.4418  -15.4115 O   0  0  0  0  0  0  0  0  0  0  0  0
   18.2075   -8.7426  -15.8874 N   0  0  0  0  0  0  0  0  0  0  0  0
   19.1968   -7.9643  -15.0957 C   0  0  1  0  0  0  0  0  0  0  0  0
   20.5392   -8.4886  -15.5320 C   0  0  0  0  0  0  0  0  0  0  0  0
   21.6922   -7.8064  -14.9400 C   0  0  0  0  0  0  0  0  0  0  0  0
   21.9175   -6.6026  -15.1297 O   0  0  0  0  0  0  0  0  0  0  0  0
   18.9974   -6.5301  -15.3799 C   0  0  0  0  0  0  0  0  0  0  0  0
   19.3333   -5.5414  -14.4448 O   0  0  0  0  0  0  0  0  0  0  0  0
   22.5809   -8.5057  -14.1340 O   0  0  0  0  0  0  0  0  0  0  0  0
   18.5223   -6.1560  -16.4658 O   0  0  0  0  0  0  0  0  0  0  0  0
  2  1  1  0
  3  4  1  6
  3  2  1  0
  5  3  1  0
  6  5  2  0
  7  5  1  0
  8 12  1  0
  8  7  1  0
  8  9  1  1
 10  9  1  0
 11 10  2  0
 12 15  1  0
 13 12  2  0
 14 10  1  0
 15 16  1  0
 16 17  1  6
 16 20  1  0
 17 18  1  0
 18 22  1  0
 19 18  2  0
 20 23  2  0
 20 21  1  0
M  END
$$$$
