SDD.pdb
     RDKit          3D

 23 22  0  0  1  0  0  0  0  0999 V2000
   14.6928  -11.7674  -15.3062 O   0  0  0  0  0  0  0  0  0  0  0  0
   15.8597  -11.1026  -15.6504 C   0  0  0  0  0  0  0  0  0  0  0  0
   16.8954  -12.1767  -15.9581 C   0  0  2  0  0  0  0  0  0  0  0  0
   16.6623  -13.2703  -15.0844 N   0  0  0  0  0  0  0  0  0  0  0  0
   18.2778  -11.5980  -15.8546 C   0  0  0  0  0  0  0  0  0  0  0  0
   18.8178  -11.6721  -14.7567 O   0  0  0  0  0  0  0  0  0  0  0  0
   18.9176  -11.0053  -16.9538 N   0  0  0  0  0  0  0  0  0  0  0  0
   20.2072  -10.4334  -17.0822 C   0  0  1  0  0  0  0  0  0  0  0  0
   21.0744  -10.8416  -18.2242 C   0  0  0  0  0  0  0  0  0  0  0  0
   22.4293  -10.2430  -18.2343 C   0  0  0  0  0  0  0  0  0  0  0  0
   23.2413  -10.5251  -17.2787 O   0  0  0  0  0  0  0  0  0  0  0  0
   20.2794   -9.0183  -16.6912 C   0  0  0  0  0  0  0  0  0  0  0  0
   19.4451   -8.1913  -17.2123 O   0  0  0  0  0  0  0  0  0  0  0  0
   22.8493   -9.3919  -19.2321 O   0  0  0  0  0  0  0  0  0  0  0  0
   21.2049   -8.4778  -15.7742 N   0  0  0  0  0  0  0  0  0  0  0  0
   21.2088   -7.0216  -15.4730 C   0  0  1  0  0  0  0  0  0  0  0  0
   21.6844   -6.9230  -14.0477 C   0  0  0  0  0  0  0  0  0  0  0  0
   21.8281   -5.5580  -13.5363 C   0  0  0  0  0  0  0  0  0  0  0  0
   20.9176   -4.7215  -13.6193 O   0  0  0  0  0  0  0  0  0  0  0  0
   22.0926   -6.3469  -16.4430 C   0  0  0  0  0  0  0  0  0  0  0  0
   22.8446   -7.0697  -17.3795 O   0  0  0  0  0  0  0  0  0  0  0  0
   23.0131   -5.1582  -12.9328 O   0  0  0  0  0  0  0  0  0  0  0  0
   22.1954   -5.1083  -16.4568 O   0  0  0  0  0  0  0  0  0  0  0  0
  2  1  1  0
  3  4  1  1
  3  2  1  0
  5  3  1  0
  6  5  2  0
  7  5  1  0
  8 12  1  0
  8  7  1  0
  8  9  1  6
 10  9  1  0
 11 10  2  0
 12 15  1  0
 13 12  2  0
 14 10  1  0
 15 16  1  0
 16 17  1  1
 16 20  1  0
 17 18  1  0
 18 22  1  0
 19 18  2  0
 20 23  2  0
 20 21  1  0
M  END
$$$$
