SDD.pdb
     RDKit          3D

 23 22  0  0  1  0  0  0  0  0999 V2000
   15.9285  -11.3335  -17.7057 O   0  0  0  0  0  0  0  0  0  0  0  0
   16.9581  -10.6382  -17.0905 C   0  0  0  0  0  0  0  0  0  0  0  0
   17.9731  -11.6797  -16.6363 C   0  0  2  0  0  0  0  0  0  0  0  0
   17.2966  -12.6189  -15.8153 N   0  0  0  0  0  0  0  0  0  0  0  0
   19.1317  -11.0031  -15.9606 C   0  0  0  0  0  0  0  0  0  0  0  0
   19.0085  -10.7817  -14.7614 O   0  0  0  0  0  0  0  0  0  0  0  0
   20.2926  -10.6442  -16.6624 N   0  0  0  0  0  0  0  0  0  0  0  0
   21.4614   -9.9638  -16.2409 C   0  0  1  0  0  0  0  0  0  0  0  0
   22.7971  -10.5341  -16.5773 C   0  0  0  0  0  0  0  0  0  0  0  0
   23.9514   -9.8584  -15.9405 C   0  0  0  0  0  0  0  0  0  0  0  0
   23.7581   -9.1726  -14.8707 O   0  0  0  0  0  0  0  0  0  0  0  0
   21.3550   -8.4986  -16.2892 C   0  0  0  0  0  0  0  0  0  0  0  0
   21.4505   -7.9106  -17.4279 O   0  0  0  0  0  0  0  0  0  0  0  0
   25.2257   -9.9378  -16.4564 O   0  0  0  0  0  0  0  0  0  0  0  0
   21.1530   -7.6641  -15.1700 N   0  0  0  0  0  0  0  0  0  0  0  0
   21.1521   -6.1846  -15.3201 C   0  0  1  0  0  0  0  0  0  0  0  0
   19.6965   -5.8012  -15.3606 C   0  0  0  0  0  0  0  0  0  0  0  0
   19.4380   -4.3632  -15.4636 C   0  0  0  0  0  0  0  0  0  0  0  0
   20.1544   -3.6092  -16.1373 O   0  0  0  0  0  0  0  0  0  0  0  0
   21.8898   -5.5999  -14.1838 C   0  0  0  0  0  0  0  0  0  0  0  0
   22.4723   -6.4032  -13.1936 O   0  0  0  0  0  0  0  0  0  0  0  0
   18.3610   -3.7964  -14.7950 O   0  0  0  0  0  0  0  0  0  0  0  0
   22.0165   -4.3686  -14.0725 O   0  0  0  0  0  0  0  0  0  0  0  0
  2  1  1  0
  3  4  1  1
  3  2  1  0
  5  3  1  0
  6  5  2  0
  7  5  1  0
  8 12  1  0
  8  7  1  0
  8  9  1  6
 10  9  1  0
 11 10  2  0
 12 15  1  0
 13 12  2  0
 14 10  1  0
 15 16  1  0
 16 17  1  1
 16 20  1  0
 17 18  1  0
 18 22  1  0
 19 18  2  0
 20 23  2  0
 20 21  1  0
M  END
$$$$
