SDD.pdb
     RDKit          3D

 23 22  0  0  1  0  0  0  0  0999 V2000
   27.6342  -11.9946  -15.8108 O   0  0  0  0  0  0  0  0  0  0  0  0
   26.8271  -10.8877  -16.0239 C   0  0  0  0  0  0  0  0  0  0  0  0
   25.6957  -11.3457  -16.9357 C   0  0  2  0  0  0  0  0  0  0  0  0
   26.2246  -11.4993  -18.2435 N   0  0  0  0  0  0  0  0  0  0  0  0
   24.5490  -10.3789  -16.8519 C   0  0  0  0  0  0  0  0  0  0  0  0
   24.5819   -9.4276  -17.6242 O   0  0  0  0  0  0  0  0  0  0  0  0
   23.4966  -10.5543  -15.9406 N   0  0  0  0  0  0  0  0  0  0  0  0
   22.3206   -9.7958  -15.7204 C   0  0  1  0  0  0  0  0  0  0  0  0
   21.1036  -10.4760  -15.1924 C   0  0  0  0  0  0  0  0  0  0  0  0
   19.9182   -9.6049  -15.0181 C   0  0  0  0  0  0  0  0  0  0  0  0
   19.9451   -8.6911  -14.1146 O   0  0  0  0  0  0  0  0  0  0  0  0
   22.5668   -8.4353  -15.2214 C   0  0  0  0  0  0  0  0  0  0  0  0
   23.3496   -8.2803  -14.2139 O   0  0  0  0  0  0  0  0  0  0  0  0
   18.7859   -9.7415  -15.7898 O   0  0  0  0  0  0  0  0  0  0  0  0
   22.0064   -7.2600  -15.7638 N   0  0  0  0  0  0  0  0  0  0  0  0
   22.3447   -5.9284  -15.1949 C   0  0  1  0  0  0  0  0  0  0  0  0
   22.4957   -5.0247  -16.3898 C   0  0  0  0  0  0  0  0  0  0  0  0
   22.7092   -3.6107  -16.0731 C   0  0  0  0  0  0  0  0  0  0  0  0
   23.5524   -3.2386  -15.2447 O   0  0  0  0  0  0  0  0  0  0  0  0
   21.2623   -5.5247  -14.2768 C   0  0  0  0  0  0  0  0  0  0  0  0
   21.4853   -4.6195  -13.2299 O   0  0  0  0  0  0  0  0  0  0  0  0
   21.9565   -2.6305  -16.7065 O   0  0  0  0  0  0  0  0  0  0  0  0
   20.1132   -5.9797  -14.4077 O   0  0  0  0  0  0  0  0  0  0  0  0
  2  1  1  0
  3  4  1  6
  3  2  1  0
  5  3  1  0
  6  5  2  0
  7  5  1  0
  8 12  1  0
  8  7  1  0
  8  9  1  1
 10  9  1  0
 11 10  2  0
 12 15  1  0
 13 12  2  0
 14 10  1  0
 15 16  1  0
 16 17  1  6
 16 20  1  0
 17 18  1  0
 18 22  1  0
 19 18  2  0
 20 23  2  0
 20 21  1  0
M  END
$$$$
