SDD.pdb
     RDKit          3D

 23 22  0  0  1  0  0  0  0  0999 V2000
   24.5272  -13.4553  -15.6449 O   0  0  0  0  0  0  0  0  0  0  0  0
   24.1268  -12.1464  -15.8655 C   0  0  0  0  0  0  0  0  0  0  0  0
   22.7762  -12.2190  -16.5667 C   0  0  2  0  0  0  0  0  0  0  0  0
   22.9931  -12.7063  -17.8817 N   0  0  0  0  0  0  0  0  0  0  0  0
   22.1023  -10.8773  -16.5175 C   0  0  0  0  0  0  0  0  0  0  0  0
   22.4549  -10.0602  -17.3604 O   0  0  0  0  0  0  0  0  0  0  0  0
   21.1221  -10.5746  -15.5601 N   0  0  0  0  0  0  0  0  0  0  0  0
   20.3799   -9.3900  -15.3312 C   0  0  1  0  0  0  0  0  0  0  0  0
   19.0555   -9.4802  -14.6528 C   0  0  0  0  0  0  0  0  0  0  0  0
   18.1582  -10.5454  -15.1574 C   0  0  0  0  0  0  0  0  0  0  0  0
   17.8301  -10.5454  -16.4001 O   0  0  0  0  0  0  0  0  0  0  0  0
   21.2027   -8.2217  -14.9869 C   0  0  0  0  0  0  0  0  0  0  0  0
   22.0297   -8.3169  -14.0077 O   0  0  0  0  0  0  0  0  0  0  0  0
   17.6610  -11.5358  -14.3400 O   0  0  0  0  0  0  0  0  0  0  0  0
   21.1624   -6.9784  -15.6520 N   0  0  0  0  0  0  0  0  0  0  0  0
   22.0659   -5.8711  -15.2411 C   0  0  1  0  0  0  0  0  0  0  0  0
   21.8247   -4.7806  -16.2509 C   0  0  0  0  0  0  0  0  0  0  0  0
   22.5594   -3.5373  -16.0065 C   0  0  0  0  0  0  0  0  0  0  0  0
   23.3918   -3.4294  -15.0948 O   0  0  0  0  0  0  0  0  0  0  0  0
   21.7309   -5.4848  -13.8570 C   0  0  0  0  0  0  0  0  0  0  0  0
   20.4090   -5.4931  -13.3906 O   0  0  0  0  0  0  0  0  0  0  0  0
   22.3374   -2.4245  -16.8070 O   0  0  0  0  0  0  0  0  0  0  0  0
   22.6192   -5.1389  -13.0595 O   0  0  0  0  0  0  0  0  0  0  0  0
  2  1  1  0
  3  4  1  6
  3  2  1  0
  5  3  1  0
  6  5  2  0
  7  5  1  0
  8 12  1  0
  8  7  1  0
  8  9  1  1
 10  9  1  0
 11 10  2  0
 12 15  1  0
 13 12  2  0
 14 10  1  0
 15 16  1  0
 16 17  1  6
 16 20  1  0
 17 18  1  0
 18 22  1  0
 19 18  2  0
 20 23  2  0
 20 21  1  0
M  END
$$$$
