SDD.pdb
     RDKit          3D

 23 22  0  0  1  0  0  0  0  0999 V2000
   24.2117  -13.3149  -16.1724 O   0  0  0  0  0  0  0  0  0  0  0  0
   23.2883  -12.2940  -16.3375 C   0  0  0  0  0  0  0  0  0  0  0  0
   21.9122  -12.9202  -16.1493 C   0  0  2  0  0  0  0  0  0  0  0  0
   21.7961  -14.0006  -17.0619 N   0  0  0  0  0  0  0  0  0  0  0  0
   20.8480  -11.8718  -16.3076 C   0  0  0  0  0  0  0  0  0  0  0  0
   19.8589  -12.1942  -16.9557 O   0  0  0  0  0  0  0  0  0  0  0  0
   20.9773  -10.5932  -15.7443 N   0  0  0  0  0  0  0  0  0  0  0  0
   20.0576   -9.5196  -15.6529 C   0  0  1  0  0  0  0  0  0  0  0  0
   18.6449   -9.8017  -15.2689 C   0  0  0  0  0  0  0  0  0  0  0  0
   17.7313   -8.6368  -15.3209 C   0  0  0  0  0  0  0  0  0  0  0  0
   17.6013   -7.9010  -14.2750 O   0  0  0  0  0  0  0  0  0  0  0  0
   20.6347   -8.2768  -15.1212 C   0  0  0  0  0  0  0  0  0  0  0  0
   21.0779   -8.2694  -13.9149 O   0  0  0  0  0  0  0  0  0  0  0  0
   17.0138   -8.3154  -16.4514 O   0  0  0  0  0  0  0  0  0  0  0  0
   20.7465   -7.0655  -15.8353 N   0  0  0  0  0  0  0  0  0  0  0  0
   21.5640   -5.9446  -15.3001 C   0  0  1  0  0  0  0  0  0  0  0  0
   21.8858   -5.0937  -16.4999 C   0  0  0  0  0  0  0  0  0  0  0  0
   22.6706   -3.8907  -16.2129 C   0  0  0  0  0  0  0  0  0  0  0  0
   22.3774   -3.1138  -15.2931 O   0  0  0  0  0  0  0  0  0  0  0  0
   20.7760   -5.2437  -14.2680 C   0  0  0  0  0  0  0  0  0  0  0  0
   21.3830   -4.6724  -13.1410 O   0  0  0  0  0  0  0  0  0  0  0  0
   23.7865   -3.5838  -16.9803 O   0  0  0  0  0  0  0  0  0  0  0  0
   19.5418   -5.1393  -14.3705 O   0  0  0  0  0  0  0  0  0  0  0  0
  2  1  1  0
  3  4  1  6
  3  2  1  0
  5  3  1  0
  6  5  2  0
  7  5  1  0
  8 12  1  0
  8  7  1  0
  8  9  1  1
 10  9  1  0
 11 10  2  0
 12 15  1  0
 13 12  2  0
 14 10  1  0
 15 16  1  0
 16 17  1  6
 16 20  1  0
 17 18  1  0
 18 22  1  0
 19 18  2  0
 20 23  2  0
 20 21  1  0
M  END
$$$$
