SDD.pdb
     RDKit          3D

 23 22  0  0  1  0  0  0  0  0999 V2000
   20.4370  -10.7730  -19.3741 O   0  0  0  0  0  0  0  0  0  0  0  0
   19.8190  -10.1972  -18.2747 C   0  0  0  0  0  0  0  0  0  0  0  0
   20.8106  -10.2912  -17.1219 C   0  0  2  0  0  0  0  0  0  0  0  0
   20.6982  -11.5870  -16.5546 N   0  0  0  0  0  0  0  0  0  0  0  0
   20.5665   -9.1755  -16.1460 C   0  0  0  0  0  0  0  0  0  0  0  0
   19.5294   -9.2387  -15.4957 O   0  0  0  0  0  0  0  0  0  0  0  0
   21.4754   -8.1186  -15.9858 N   0  0  0  0  0  0  0  0  0  0  0  0
   21.3920   -6.9275  -15.2235 C   0  0  1  0  0  0  0  0  0  0  0  0
   22.5699   -6.4940  -14.4189 C   0  0  0  0  0  0  0  0  0  0  0  0
   22.3577   -5.2864  -13.5877 C   0  0  0  0  0  0  0  0  0  0  0  0
   22.0388   -5.4307  -12.3509 O   0  0  0  0  0  0  0  0  0  0  0  0
   20.6199   -5.8546  -15.8663 C   0  0  0  0  0  0  0  0  0  0  0  0
   21.0455   -5.3694  -16.9776 O   0  0  0  0  0  0  0  0  0  0  0  0
   22.4881   -4.0128  -14.0949 O   0  0  0  0  0  0  0  0  0  0  0  0
   19.4269   -5.2994  -15.3582 N   0  0  0  0  0  0  0  0  0  0  0  0
   18.7560   -4.1747  -16.0626 C   0  0  1  0  0  0  0  0  0  0  0  0
   17.4954   -4.7712  -16.6302 C   0  0  0  0  0  0  0  0  0  0  0  0
   16.5865   -3.8117  -17.2616 C   0  0  0  0  0  0  0  0  0  0  0  0
   16.9980   -2.8262  -17.8902 O   0  0  0  0  0  0  0  0  0  0  0  0
   18.5159   -3.0916  -15.0897 C   0  0  0  0  0  0  0  0  0  0  0  0
   18.5452   -1.7424  -15.4689 O   0  0  0  0  0  0  0  0  0  0  0  0
   15.2118   -3.9857  -17.1701 O   0  0  0  0  0  0  0  0  0  0  0  0
   18.2787   -3.3479  -13.8969 O   0  0  0  0  0  0  0  0  0  0  0  0
  2  1  1  0
  3  4  1  1
  3  2  1  0
  5  3  1  0
  6  5  2  0
  7  5  1  0
  8 12  1  0
  8  7  1  0
  8  9  1  6
 10  9  1  0
 11 10  2  0
 12 15  1  0
 13 12  2  0
 14 10  1  0
 15 16  1  0
 16 17  1  1
 16 20  1  0
 17 18  1  0
 18 22  1  0
 19 18  2  0
 20 23  2  0
 20 21  1  0
M  END
$$$$
