QHH.pdb
     RDKit          3D

 30 31  0  0  1  0  0  0  0  0999 V2000
   12.9289  -27.8109   13.1356 N   0  0  0  0  0  0  0  0  0  0  0  0
   13.8139  -26.7150   13.3189 C   0  0  0  0  0  0  0  0  0  0  0  0
   15.0273  -26.9001   12.9991 O   0  0  0  0  0  0  0  0  0  0  0  0
   13.3338  -25.3975   13.8665 C   0  0  0  0  0  0  0  0  0  0  0  0
   12.0514  -25.6531   14.5792 C   0  0  0  0  0  0  0  0  0  0  0  0
   11.0612  -24.5439   14.5429 C   0  0  2  0  0  0  0  0  0  0  0  0
   10.9952  -24.0734   13.1540 N   0  0  0  0  0  0  0  0  0  0  0  0
   11.2763  -23.4555   15.4889 C   0  0  0  0  0  0  0  0  0  0  0  0
   11.6929  -22.3476   15.0638 O   0  0  0  0  0  0  0  0  0  0  0  0
   11.0511  -23.5357   16.8915 N   0  0  0  0  0  0  0  0  0  0  0  0
   11.2437  -22.4445   17.8119 C   0  0  1  0  0  0  0  0  0  0  0  0
    9.9683  -22.0438   18.5042 C   0  0  0  0  0  0  0  0  0  0  0  0
    9.0158  -21.3686   17.6084 C   0  0  0  0  0  0  0  0  0  0  0  0
    8.1263  -22.0236   16.7928 C   0  0  0  0  0  0  0  0  0  0  0  0
    7.4340  -21.0761   16.1347 N   0  0  0  0  0  0  0  0  0  0  0  0
    7.8565  -19.8641   16.5077 C   0  0  0  0  0  0  0  0  0  0  0  0
    8.8233  -20.0601   17.4088 N   0  0  0  0  0  0  0  0  0  0  0  0
   12.3125  -22.6895   18.7935 C   0  0  0  0  0  0  0  0  0  0  0  0
   12.5774  -23.8085   19.3037 O   0  0  0  0  0  0  0  0  0  0  0  0
   13.1056  -21.5791   19.1956 N   0  0  0  0  0  0  0  0  0  0  0  0
   14.2577  -21.8170   20.0842 C   0  0  1  0  0  0  0  0  0  0  0  0
   15.2738  -20.7429   19.7268 C   0  0  0  0  0  0  0  0  0  0  0  0
   16.0226  -21.0109   18.5105 C   0  0  0  0  0  0  0  0  0  0  0  0
   16.5271  -22.2172   18.1038 C   0  0  0  0  0  0  0  0  0  0  0  0
   17.1520  -22.0254   16.9201 N   0  0  0  0  0  0  0  0  0  0  0  0
   17.0410  -20.7318   16.5949 C   0  0  0  0  0  0  0  0  0  0  0  0
   16.3476  -20.1151   17.5740 N   0  0  0  0  0  0  0  0  0  0  0  0
   13.7909  -21.5293   21.4653 C   0  0  0  0  0  0  0  0  0  0  0  0
   13.0474  -20.4107   21.7970 O   0  0  0  0  0  0  0  0  0  0  0  0
   14.1094  -22.3738   22.3552 O   0  0  0  0  0  0  0  0  0  0  0  0
  2  1  1  0
  2  3  2  0
  4  5  1  0
  4  2  1  0
  6  7  1  6
  6  5  1  0
  8  6  1  0
  9  8  2  0
 10  8  1  0
 11 10  1  0
 11 12  1  1
 12 13  1  0
 13 14  2  0
 14 15  1  0
 16 15  1  0
 17 13  1  0
 17 16  2  0
 18 20  1  0
 18 11  1  0
 19 18  2  0
 21 28  1  0
 21 20  1  0
 21 22  1  6
 23 22  1  0
 23 24  2  0
 25 24  1  0
 26 25  1  0
 27 26  2  0
 27 23  1  0
 28 29  1  0
 30 28  2  0
M  END
$$$$
