QHH.pdb
     RDKit          3D

 30 31  0  0  1  0  0  0  0  0999 V2000
    9.8508  -20.4291   22.1952 N   0  0  0  0  0  0  0  0  0  0  0  0
   11.1869  -19.9491   22.2431 C   0  0  0  0  0  0  0  0  0  0  0  0
   11.8605  -20.2357   23.2790 O   0  0  0  0  0  0  0  0  0  0  0  0
   11.7742  -19.1395   21.1182 C   0  0  0  0  0  0  0  0  0  0  0  0
   10.7204  -18.9973   20.0755 C   0  0  0  0  0  0  0  0  0  0  0  0
   10.6464  -17.6691   19.4102 C   0  0  2  0  0  0  0  0  0  0  0  0
   11.8796  -17.5116   18.6295 N   0  0  0  0  0  0  0  0  0  0  0  0
   10.3879  -16.5262   20.2777 C   0  0  0  0  0  0  0  0  0  0  0  0
   11.3375  -15.7591   20.5798 O   0  0  0  0  0  0  0  0  0  0  0  0
    9.1204  -16.1902   20.8301 N   0  0  0  0  0  0  0  0  0  0  0  0
    8.8427  -14.9765   21.5544 C   0  0  1  0  0  0  0  0  0  0  0  0
    7.6092  -14.2754   21.0510 C   0  0  0  0  0  0  0  0  0  0  0  0
    7.6058  -14.0962   19.5903 C   0  0  0  0  0  0  0  0  0  0  0  0
    7.8815  -12.9090   18.9579 C   0  0  0  0  0  0  0  0  0  0  0  0
    7.7802  -13.1413   17.6366 N   0  0  0  0  0  0  0  0  0  0  0  0
    7.4538  -14.4200   17.4244 C   0  0  0  0  0  0  0  0  0  0  0  0
    7.3509  -14.9900   18.6284 N   0  0  0  0  0  0  0  0  0  0  0  0
    8.7723  -15.1686   23.0119 C   0  0  0  0  0  0  0  0  0  0  0  0
    8.4517  -14.2773   23.8398 O   0  0  0  0  0  0  0  0  0  0  0  0
    9.0900  -16.4576   23.5231 N   0  0  0  0  0  0  0  0  0  0  0  0
    9.1107  -16.6541   24.9841 C   0  0  1  0  0  0  0  0  0  0  0  0
    8.7126  -18.1057   25.2035 C   0  0  0  0  0  0  0  0  0  0  0  0
    7.4003  -18.4498   24.6825 C   0  0  0  0  0  0  0  0  0  0  0  0
    6.4037  -17.5817   24.3243 C   0  0  0  0  0  0  0  0  0  0  0  0
    5.3534  -18.3151   23.8912 N   0  0  0  0  0  0  0  0  0  0  0  0
    5.6849  -19.6090   23.9765 C   0  0  0  0  0  0  0  0  0  0  0  0
    6.9411  -19.6851   24.4623 N   0  0  0  0  0  0  0  0  0  0  0  0
   10.5296  -16.5255   25.4062 C   0  0  0  0  0  0  0  0  0  0  0  0
   11.5669  -16.2968   24.5198 O   0  0  0  0  0  0  0  0  0  0  0  0
   10.7605  -16.6368   26.6476 O   0  0  0  0  0  0  0  0  0  0  0  0
  2  1  1  0
  2  3  2  0
  4  5  1  0
  4  2  1  0
  6  7  1  1
  6  5  1  0
  8  6  1  0
  9  8  2  0
 10  8  1  0
 11 10  1  0
 11 12  1  6
 12 13  1  0
 13 14  2  0
 14 15  1  0
 16 15  1  0
 17 13  1  0
 17 16  2  0
 18 20  1  0
 18 11  1  0
 19 18  2  0
 21 28  1  0
 21 20  1  0
 21 22  1  6
 23 22  1  0
 23 24  2  0
 25 24  1  0
 26 25  1  0
 27 26  2  0
 27 23  1  0
 28 29  1  0
 30 28  2  0
M  END
$$$$
