QHH.pdb
     RDKit          3D

 30 31  0  0  1  0  0  0  0  0999 V2000
    7.8332  -12.2660   18.8089 N   0  0  0  0  0  0  0  0  0  0  0  0
    8.5383  -12.7833   17.6894 C   0  0  0  0  0  0  0  0  0  0  0  0
    8.6564  -12.0181   16.6847 O   0  0  0  0  0  0  0  0  0  0  0  0
    9.1171  -14.1728   17.6961 C   0  0  0  0  0  0  0  0  0  0  0  0
    8.7821  -14.7876   19.0104 C   0  0  0  0  0  0  0  0  0  0  0  0
    9.2341  -16.1919   19.1995 C   0  0  2  0  0  0  0  0  0  0  0  0
    8.5688  -16.9988   18.1693 N   0  0  0  0  0  0  0  0  0  0  0  0
    9.0667  -16.7494   20.5363 C   0  0  0  0  0  0  0  0  0  0  0  0
    7.9055  -16.9185   20.9886 O   0  0  0  0  0  0  0  0  0  0  0  0
   10.1300  -17.1308   21.4014 N   0  0  0  0  0  0  0  0  0  0  0  0
    9.9517  -17.7710   22.6793 C   0  0  1  0  0  0  0  0  0  0  0  0
   10.6899  -19.0796   22.7754 C   0  0  0  0  0  0  0  0  0  0  0  0
   10.0413  -20.1622   22.0184 C   0  0  0  0  0  0  0  0  0  0  0  0
    8.8705  -20.0184   21.3156 C   0  0  0  0  0  0  0  0  0  0  0  0
    8.6003  -21.2153   20.7640 N   0  0  0  0  0  0  0  0  0  0  0  0
    9.5527  -22.0929   21.0949 C   0  0  0  0  0  0  0  0  0  0  0  0
   10.4259  -21.4337   21.8617 N   0  0  0  0  0  0  0  0  0  0  0  0
   10.2843  -16.9024   23.8199 C   0  0  0  0  0  0  0  0  0  0  0  0
   11.3203  -16.1939   23.9059 O   0  0  0  0  0  0  0  0  0  0  0  0
    9.3664  -16.8599   24.9059 N   0  0  0  0  0  0  0  0  0  0  0  0
    9.7253  -16.0820   26.1057 C   0  0  1  0  0  0  0  0  0  0  0  0
    8.4024  -15.7049   26.7550 C   0  0  0  0  0  0  0  0  0  0  0  0
    7.7471  -14.5568   26.1512 C   0  0  0  0  0  0  0  0  0  0  0  0
    8.2904  -13.6780   25.2524 C   0  0  0  0  0  0  0  0  0  0  0  0
    7.3437  -12.7621   24.9470 N   0  0  0  0  0  0  0  0  0  0  0  0
    6.2365  -13.0606   25.6373 C   0  0  0  0  0  0  0  0  0  0  0  0
    6.4903  -14.1620   26.3738 N   0  0  0  0  0  0  0  0  0  0  0  0
   10.4083  -17.0241   27.0298 C   0  0  0  0  0  0  0  0  0  0  0  0
   10.9453  -16.6388   28.2453 O   0  0  0  0  0  0  0  0  0  0  0  0
   10.4825  -18.2312   26.6505 O   0  0  0  0  0  0  0  0  0  0  0  0
  2  1  1  0
  2  3  2  0
  4  5  1  0
  4  2  1  0
  6  7  1  6
  6  5  1  0
  8  6  1  0
  9  8  2  0
 10  8  1  0
 11 10  1  0
 11 12  1  6
 12 13  1  0
 13 14  2  0
 14 15  1  0
 16 15  1  0
 17 13  1  0
 17 16  2  0
 18 20  1  0
 18 11  1  0
 19 18  2  0
 21 28  1  0
 21 20  1  0
 21 22  1  1
 23 22  1  0
 23 24  2  0
 25 24  1  0
 26 25  1  0
 27 26  2  0
 27 23  1  0
 28 29  1  0
 30 28  2  0
M  END
$$$$
