QHH.pdb
     RDKit          3D

 30 31  0  0  1  0  0  0  0  0999 V2000
   12.0280  -20.5469   17.0123 N   0  0  0  0  0  0  0  0  0  0  0  0
   11.8140  -20.5322   15.6081 C   0  0  0  0  0  0  0  0  0  0  0  0
   11.5488  -21.6442   15.0585 O   0  0  0  0  0  0  0  0  0  0  0  0
   11.8981  -19.2578   14.8114 C   0  0  0  0  0  0  0  0  0  0  0  0
   12.3104  -18.1750   15.7470 C   0  0  0  0  0  0  0  0  0  0  0  0
   11.2144  -17.3030   16.2474 C   0  0  2  0  0  0  0  0  0  0  0  0
   10.7675  -16.4835   15.1144 N   0  0  0  0  0  0  0  0  0  0  0  0
   11.5146  -16.5023   17.4283 C   0  0  0  0  0  0  0  0  0  0  0  0
   12.6221  -15.9112   17.5024 O   0  0  0  0  0  0  0  0  0  0  0  0
   10.6420  -16.3241   18.5379 N   0  0  0  0  0  0  0  0  0  0  0  0
   10.9577  -15.5429   19.7062 C   0  0  1  0  0  0  0  0  0  0  0  0
    9.7409  -15.2306   20.5357 C   0  0  0  0  0  0  0  0  0  0  0  0
    8.7969  -14.3300   19.8548 C   0  0  0  0  0  0  0  0  0  0  0  0
    9.0291  -13.7502   18.6320 C   0  0  0  0  0  0  0  0  0  0  0  0
    7.9473  -13.0033   18.3458 N   0  0  0  0  0  0  0  0  0  0  0  0
    7.0566  -13.0958   19.3380 C   0  0  0  0  0  0  0  0  0  0  0  0
    7.5908  -13.9102   20.2526 N   0  0  0  0  0  0  0  0  0  0  0  0
   12.0151  -16.1382   20.5391 C   0  0  0  0  0  0  0  0  0  0  0  0
   12.1931  -17.3730   20.7009 O   0  0  0  0  0  0  0  0  0  0  0  0
   12.9022  -15.2522   21.2112 N   0  0  0  0  0  0  0  0  0  0  0  0
   14.0529  -15.8192   21.9377 C   0  0  1  0  0  0  0  0  0  0  0  0
   14.9680  -14.6401   22.2311 C   0  0  0  0  0  0  0  0  0  0  0  0
   16.1953  -14.9951   22.9237 C   0  0  0  0  0  0  0  0  0  0  0  0
   16.7822  -16.2312   22.9765 C   0  0  0  0  0  0  0  0  0  0  0  0
   17.9051  -16.1235   23.7221 N   0  0  0  0  0  0  0  0  0  0  0  0
   18.0175  -14.8521   24.1252 C   0  0  0  0  0  0  0  0  0  0  0  0
   16.9662  -14.1653   23.6325 N   0  0  0  0  0  0  0  0  0  0  0  0
   13.5316  -16.2984   23.2442 C   0  0  0  0  0  0  0  0  0  0  0  0
   14.1859  -17.2348   24.0244 O   0  0  0  0  0  0  0  0  0  0  0  0
   12.4307  -15.8012   23.6282 O   0  0  0  0  0  0  0  0  0  0  0  0
  2  1  1  0
  2  3  2  0
  4  5  1  0
  4  2  1  0
  6  7  1  6
  6  5  1  0
  8  6  1  0
  9  8  2  0
 10  8  1  0
 11 10  1  0
 11 12  1  1
 12 13  1  0
 13 14  2  0
 14 15  1  0
 16 15  1  0
 17 13  1  0
 17 16  2  0
 18 20  1  0
 18 11  1  0
 19 18  2  0
 21 28  1  0
 21 20  1  0
 21 22  1  1
 23 22  1  0
 23 24  2  0
 25 24  1  0
 26 25  1  0
 27 26  2  0
 27 23  1  0
 28 29  1  0
 30 28  2  0
M  END
$$$$
