QHH.pdb
     RDKit          3D

 30 31  0  0  1  0  0  0  0  0999 V2000
   13.9606  -21.6795   13.6814 N   0  0  0  0  0  0  0  0  0  0  0  0
   14.2315  -20.4151   13.0934 C   0  0  0  0  0  0  0  0  0  0  0  0
   15.4520  -20.1031   12.9451 O   0  0  0  0  0  0  0  0  0  0  0  0
   13.1228  -19.4904   12.6672 C   0  0  0  0  0  0  0  0  0  0  0  0
   11.8347  -20.1458   13.0261 C   0  0  0  0  0  0  0  0  0  0  0  0
   10.6407  -19.2589   13.0365 C   0  0  2  0  0  0  0  0  0  0  0  0
   11.0274  -18.0117   12.3658 N   0  0  0  0  0  0  0  0  0  0  0  0
   10.0232  -19.0230   14.3360 C   0  0  0  0  0  0  0  0  0  0  0  0
   10.4466  -18.0809   15.0536 O   0  0  0  0  0  0  0  0  0  0  0  0
    8.9530  -19.7850   14.8824 N   0  0  0  0  0  0  0  0  0  0  0  0
    8.3377  -19.5278   16.1591 C   0  0  1  0  0  0  0  0  0  0  0  0
    7.1441  -20.4100   16.4108 C   0  0  0  0  0  0  0  0  0  0  0  0
    6.3574  -19.9921   17.5823 C   0  0  0  0  0  0  0  0  0  0  0  0
    6.2125  -18.6888   17.9894 C   0  0  0  0  0  0  0  0  0  0  0  0
    5.4311  -18.7097   19.0844 N   0  0  0  0  0  0  0  0  0  0  0  0
    5.0867  -19.9687   19.3722 C   0  0  0  0  0  0  0  0  0  0  0  0
    5.6607  -20.7404   18.4448 N   0  0  0  0  0  0  0  0  0  0  0  0
    9.2808  -19.5960   17.2869 C   0  0  0  0  0  0  0  0  0  0  0  0
   10.2659  -20.3755   17.3542 O   0  0  0  0  0  0  0  0  0  0  0  0
    9.0632  -18.7151   18.3825 N   0  0  0  0  0  0  0  0  0  0  0  0
   10.0093  -18.7444   19.5129 C   0  0  1  0  0  0  0  0  0  0  0  0
    9.5898  -17.5995   20.4223 C   0  0  0  0  0  0  0  0  0  0  0  0
   10.3798  -17.4816   21.6364 C   0  0  0  0  0  0  0  0  0  0  0  0
   11.4434  -18.2616   22.0049 C   0  0  0  0  0  0  0  0  0  0  0  0
   11.8885  -17.8142   23.2008 N   0  0  0  0  0  0  0  0  0  0  0  0
   11.1226  -16.7807   23.5707 C   0  0  0  0  0  0  0  0  0  0  0  0
   10.1995  -16.5817   22.6074 N   0  0  0  0  0  0  0  0  0  0  0  0
    9.7426  -20.0053   20.2527 C   0  0  0  0  0  0  0  0  0  0  0  0
    8.4683  -20.4773   20.5122 O   0  0  0  0  0  0  0  0  0  0  0  0
   10.7583  -20.6516   20.6490 O   0  0  0  0  0  0  0  0  0  0  0  0
  2  1  1  0
  2  3  2  0
  4  5  1  0
  4  2  1  0
  6  7  1  1
  6  5  1  0
  8  6  1  0
  9  8  2  0
 10  8  1  0
 11 10  1  0
 11 12  1  1
 12 13  1  0
 13 14  2  0
 14 15  1  0
 16 15  1  0
 17 13  1  0
 17 16  2  0
 18 20  1  0
 18 11  1  0
 19 18  2  0
 21 28  1  0
 21 20  1  0
 21 22  1  1
 23 22  1  0
 23 24  2  0
 25 24  1  0
 26 25  1  0
 27 26  2  0
 27 23  1  0
 28 29  1  0
 30 28  2  0
M  END
$$$$
