QHH.pdb
     RDKit          3D

 30 31  0  0  1  0  0  0  0  0999 V2000
   13.8191  -19.4220   14.7585 N   0  0  0  0  0  0  0  0  0  0  0  0
   12.5111  -19.9406   14.5642 C   0  0  0  0  0  0  0  0  0  0  0  0
   12.2976  -21.1219   14.9741 O   0  0  0  0  0  0  0  0  0  0  0  0
   11.4308  -19.1269   13.9033 C   0  0  0  0  0  0  0  0  0  0  0  0
   11.9542  -17.7422   13.7404 C   0  0  0  0  0  0  0  0  0  0  0  0
   10.9278  -16.6672   13.6843 C   0  0  2  0  0  0  0  0  0  0  0  0
   11.2252  -15.8520   12.5003 N   0  0  0  0  0  0  0  0  0  0  0  0
   10.7708  -15.8612   14.8890 C   0  0  0  0  0  0  0  0  0  0  0  0
   11.7559  -15.2119   15.3245 O   0  0  0  0  0  0  0  0  0  0  0  0
    9.5680  -15.7392   15.6393 N   0  0  0  0  0  0  0  0  0  0  0  0
    9.4572  -15.0407   16.8942 C   0  0  1  0  0  0  0  0  0  0  0  0
    8.0341  -14.9458   17.3762 C   0  0  0  0  0  0  0  0  0  0  0  0
    7.8971  -14.1579   18.6115 C   0  0  0  0  0  0  0  0  0  0  0  0
    8.1109  -12.8038   18.6908 C   0  0  0  0  0  0  0  0  0  0  0  0
    7.8896  -12.4511   19.9701 N   0  0  0  0  0  0  0  0  0  0  0  0
    7.5485  -13.5275   20.6852 C   0  0  0  0  0  0  0  0  0  0  0  0
    7.5576  -14.5626   19.8404 N   0  0  0  0  0  0  0  0  0  0  0  0
   10.3265  -15.5894   17.9473 C   0  0  0  0  0  0  0  0  0  0  0  0
   10.6137  -16.8070   18.0806 O   0  0  0  0  0  0  0  0  0  0  0  0
   10.8841  -14.6758   18.8844 N   0  0  0  0  0  0  0  0  0  0  0  0
   11.8780  -15.1737   19.8528 C   0  0  1  0  0  0  0  0  0  0  0  0
   12.8578  -14.0277   20.0536 C   0  0  0  0  0  0  0  0  0  0  0  0
   14.1415  -14.2186   19.3995 C   0  0  0  0  0  0  0  0  0  0  0  0
   14.8515  -15.3858   19.3056 C   0  0  0  0  0  0  0  0  0  0  0  0
   15.9861  -15.1245   18.6180 N   0  0  0  0  0  0  0  0  0  0  0  0
   15.9856  -13.8268   18.2904 C   0  0  0  0  0  0  0  0  0  0  0  0
   14.8520  -13.2768   18.7723 N   0  0  0  0  0  0  0  0  0  0  0  0
   11.1572  -15.3577   21.1392 C   0  0  0  0  0  0  0  0  0  0  0  0
   11.7011  -16.0197   22.2254 O   0  0  0  0  0  0  0  0  0  0  0  0
    9.9892  -14.8698   21.2054 O   0  0  0  0  0  0  0  0  0  0  0  0
  2  1  1  0
  2  3  2  0
  4  5  1  0
  4  2  1  0
  6  7  1  6
  6  5  1  0
  8  6  1  0
  9  8  2  0
 10  8  1  0
 11 10  1  0
 11 12  1  1
 12 13  1  0
 13 14  2  0
 14 15  1  0
 16 15  1  0
 17 13  1  0
 17 16  2  0
 18 20  1  0
 18 11  1  0
 19 18  2  0
 21 28  1  0
 21 20  1  0
 21 22  1  1
 23 22  1  0
 23 24  2  0
 25 24  1  0
 26 25  1  0
 27 26  2  0
 27 23  1  0
 28 29  1  0
 30 28  2  0
M  END
$$$$
