QHH.pdb
     RDKit          3D

 30 31  0  0  1  0  0  0  0  0999 V2000
   14.1101  -19.1579   21.7944 N   0  0  0  0  0  0  0  0  0  0  0  0
   13.3005  -20.1333   21.1532 C   0  0  0  0  0  0  0  0  0  0  0  0
   13.2097  -21.2639   21.7211 O   0  0  0  0  0  0  0  0  0  0  0  0
   12.5851  -19.8384   19.8620 C   0  0  0  0  0  0  0  0  0  0  0  0
   12.7129  -18.3768   19.6067 C   0  0  0  0  0  0  0  0  0  0  0  0
   11.4580  -17.6772   19.2220 C   0  0  2  0  0  0  0  0  0  0  0  0
   11.6692  -17.1263   17.8778 N   0  0  0  0  0  0  0  0  0  0  0  0
   10.9624  -16.6778   20.1608 C   0  0  0  0  0  0  0  0  0  0  0  0
   11.7582  -15.8171   20.6163 O   0  0  0  0  0  0  0  0  0  0  0  0
    9.6196  -16.5854   20.6222 N   0  0  0  0  0  0  0  0  0  0  0  0
    9.1579  -15.6363   21.6024 C   0  0  1  0  0  0  0  0  0  0  0  0
    7.7704  -15.1324   21.3066 C   0  0  0  0  0  0  0  0  0  0  0  0
    7.6721  -14.4494   20.0067 C   0  0  0  0  0  0  0  0  0  0  0  0
    7.9324  -13.1149   19.8145 C   0  0  0  0  0  0  0  0  0  0  0  0
    7.7361  -12.8664   18.5070 N   0  0  0  0  0  0  0  0  0  0  0  0
    7.3658  -13.9886   17.8824 C   0  0  0  0  0  0  0  0  0  0  0  0
    7.3314  -14.9468   18.8127 N   0  0  0  0  0  0  0  0  0  0  0  0
    9.2457  -16.1340   22.9847 C   0  0  0  0  0  0  0  0  0  0  0  0
    9.3539  -17.3451   23.3072 O   0  0  0  0  0  0  0  0  0  0  0  0
    9.2057  -15.1749   24.0345 N   0  0  0  0  0  0  0  0  0  0  0  0
    9.6155  -15.5902   25.3885 C   0  0  1  0  0  0  0  0  0  0  0  0
    9.5710  -14.3248   26.2315 C   0  0  0  0  0  0  0  0  0  0  0  0
    9.9668  -14.5163   27.6167 C   0  0  0  0  0  0  0  0  0  0  0  0
   10.4075  -15.6775   28.1934 C   0  0  0  0  0  0  0  0  0  0  0  0
   10.6682  -15.4189   29.4948 N   0  0  0  0  0  0  0  0  0  0  0  0
   10.3974  -14.1287   29.7259 C   0  0  0  0  0  0  0  0  0  0  0  0
    9.9677  -13.5808   28.5705 N   0  0  0  0  0  0  0  0  0  0  0  0
    8.5446  -16.4867   25.8962 C   0  0  0  0  0  0  0  0  0  0  0  0
    8.7491  -17.4227   26.8942 O   0  0  0  0  0  0  0  0  0  0  0  0
    7.4017  -16.3570   25.3638 O   0  0  0  0  0  0  0  0  0  0  0  0
  2  1  1  0
  2  3  2  0
  4  5  1  0
  4  2  1  0
  6  7  1  6
  6  5  1  0
  8  6  1  0
  9  8  2  0
 10  8  1  0
 11 10  1  0
 11 12  1  6
 12 13  1  0
 13 14  2  0
 14 15  1  0
 16 15  1  0
 17 13  1  0
 17 16  2  0
 18 20  1  0
 18 11  1  0
 19 18  2  0
 21 28  1  0
 21 20  1  0
 21 22  1  1
 23 22  1  0
 23 24  2  0
 25 24  1  0
 26 25  1  0
 27 26  2  0
 27 23  1  0
 28 29  1  0
 30 28  2  0
M  END
$$$$
