QRS.pdb
     RDKit          3D

 27 26  0  0  1  0  0  0  0  0999 V2000
   21.4647  -27.2885  -15.6137 N   0  0  0  0  0  0  0  0  0  0  0  0
   21.2292  -25.8709  -15.4728 C   0  0  0  0  0  0  0  0  0  0  0  0
   21.7720  -25.1162  -16.3002 O   0  0  0  0  0  0  0  0  0  0  0  0
   20.3799  -25.4080  -14.3931 C   0  0  0  0  0  0  0  0  0  0  0  0
   19.8717  -26.4416  -13.4665 C   0  0  0  0  0  0  0  0  0  0  0  0
   20.5238  -26.4573  -12.1257 C   0  0  2  0  0  0  0  0  0  0  0  0
   21.6605  -27.3128  -12.0937 N   0  0  0  0  0  0  0  0  0  0  0  0
   19.5842  -26.8201  -11.0400 C   0  0  0  0  0  0  0  0  0  0  0  0
   19.2010  -28.0126  -11.0011 O   0  0  0  0  0  0  0  0  0  0  0  0
   18.6400  -26.6746   -3.4070 N   0  0  0  0  0  0  0  0  0  0  0  0
   17.3815  -25.9963   -3.3192 C   0  0  0  0  0  0  0  0  0  0  0  0
   16.5846  -26.2651   -2.3472 N   0  0  0  0  0  0  0  0  0  0  0  0
   17.0341  -25.0346   -4.3149 N   0  0  0  0  0  0  0  0  0  0  0  0
   17.9118  -24.7266   -5.4278 C   0  0  0  0  0  0  0  0  0  0  0  0
   17.6222  -25.6626   -6.5807 C   0  0  0  0  0  0  0  0  0  0  0  0
   18.5222  -25.3518   -7.7522 C   0  0  0  0  0  0  0  0  0  0  0  0
   18.3717  -26.2659   -8.9052 C   0  0  2  0  0  0  0  0  0  0  0  0
   19.1255  -25.9191  -10.0944 N   0  0  0  0  0  0  0  0  0  0  0  0
   16.9310  -26.2782   -9.3595 C   0  0  0  0  0  0  0  0  0  0  0  0
   16.4029  -25.3196   -9.9790 O   0  0  0  0  0  0  0  0  0  0  0  0
   15.6460  -25.8184   -2.3018 O   0  0  0  0  0  0  0  0  0  0  0  0
   14.3980  -29.2559   -8.1380 C   0  0  0  0  0  0  0  0  0  0  0  0
   14.1446  -28.8185   -9.4187 C   0  0  1  0  0  0  0  0  0  0  0  0
   14.6967  -27.4146   -9.5918 N   0  0  0  0  0  0  0  0  0  0  0  0
   16.0752  -27.3884   -9.1109 C   0  0  0  0  0  0  0  0  0  0  0  0
   13.8707  -26.3831   -8.9489 O   0  0  0  0  0  0  0  0  0  0  0  0
   14.1140  -25.9217   -7.8042 O   0  0  0  0  0  0  0  0  0  0  0  0
  1  2  1  0
  2  3  2  0
  4  5  1  0
  4  2  1  0
  5  6  1  0
  6  8  1  0
  6  7  1  6
  8  9  2  0
 11 10  1  0
 11 12  2  0
 13 14  1  0
 13 11  1  0
 14 15  1  0
 15 16  1  0
 17 16  1  1
 17 19  1  0
 18 17  1  0
 18  8  1  0
 19 20  2  0
 21 22  1  0
 23 22  1  6
 23 25  1  0
 24 19  1  0
 24 23  1  0
 25 26  2  0
 25 27  1  0
M  END
$$$$
