QRS.pdb
     RDKit          3D

 27 26  0  0  1  0  0  0  0  0999 V2000
   25.3818  -17.9426  -18.0643 N   0  0  0  0  0  0  0  0  0  0  0  0
   26.6962  -17.9935  -18.6601 C   0  0  0  0  0  0  0  0  0  0  0  0
   26.7848  -17.7279  -19.8727 O   0  0  0  0  0  0  0  0  0  0  0  0
   27.8286  -18.3410  -17.8246 C   0  0  0  0  0  0  0  0  0  0  0  0
   27.5483  -18.5431  -16.3873 C   0  0  0  0  0  0  0  0  0  0  0  0
   27.9655  -19.8689  -15.8472 C   0  0  2  0  0  0  0  0  0  0  0  0
   28.3472  -20.7708  -16.8795 N   0  0  0  0  0  0  0  0  0  0  0  0
   26.9273  -20.4868  -14.9908 C   0  0  0  0  0  0  0  0  0  0  0  0
   26.2757  -21.4340  -15.4894 O   0  0  0  0  0  0  0  0  0  0  0  0
   22.1182  -20.0757   -9.3067 N   0  0  0  0  0  0  0  0  0  0  0  0
   22.6101  -20.9684   -8.3003 C   0  0  0  0  0  0  0  0  0  0  0  0
   21.7797  -21.5518   -7.5117 N   0  0  0  0  0  0  0  0  0  0  0  0
   24.0154  -21.1925   -8.1903 N   0  0  0  0  0  0  0  0  0  0  0  0
   24.9722  -20.5194   -9.0478 C   0  0  0  0  0  0  0  0  0  0  0  0
   24.8086  -21.0017  -10.4725 C   0  0  0  0  0  0  0  0  0  0  0  0
   25.8189  -20.3354  -11.3749 C   0  0  0  0  0  0  0  0  0  0  0  0
   25.6934  -20.6862  -12.8063 C   0  0  2  0  0  0  0  0  0  0  0  0
   26.6562  -20.0703  -13.6988 N   0  0  0  0  0  0  0  0  0  0  0  0
   24.3497  -20.2308  -13.3254 C   0  0  0  0  0  0  0  0  0  0  0  0
   23.9890  -19.0260  -13.3201 O   0  0  0  0  0  0  0  0  0  0  0  0
   22.1274  -22.1742   -6.7538 O   0  0  0  0  0  0  0  0  0  0  0  0
   21.7613  -22.9382  -15.0794 C   0  0  0  0  0  0  0  0  0  0  0  0
   21.7330  -21.6423  -15.5436 C   0  0  1  0  0  0  0  0  0  0  0  0
   22.1338  -20.6961  -14.4258 N   0  0  0  0  0  0  0  0  0  0  0  0
   23.4006  -21.1487  -13.8577 C   0  0  0  0  0  0  0  0  0  0  0  0
   21.0953  -20.5397  -13.3978 O   0  0  0  0  0  0  0  0  0  0  0  0
   21.2525  -20.8953  -12.2014 O   0  0  0  0  0  0  0  0  0  0  0  0
  1  2  1  0
  2  3  2  0
  4  5  1  0
  4  2  1  0
  5  6  1  0
  6  8  1  0
  6  7  1  6
  8  9  2  0
 11 10  1  0
 11 12  2  0
 13 14  1  0
 13 11  1  0
 14 15  1  0
 15 16  1  0
 17 16  1  1
 17 19  1  0
 18 17  1  0
 18  8  1  0
 19 20  2  0
 21 22  1  0
 23 22  1  6
 23 25  1  0
 24 19  1  0
 24 23  1  0
 25 26  2  0
 25 27  1  0
M  END
$$$$
