QRS.pdb
     RDKit          3D

 27 26  0  0  1  0  0  0  0  0999 V2000
   20.8594  -24.1747  -19.1555 N   0  0  0  0  0  0  0  0  0  0  0  0
   19.7532  -23.3848  -18.6685 C   0  0  0  0  0  0  0  0  0  0  0  0
   18.6156  -23.6812  -19.0769 O   0  0  0  0  0  0  0  0  0  0  0  0
   20.0215  -22.3063  -17.7378 C   0  0  0  0  0  0  0  0  0  0  0  0
   21.4350  -22.1042  -17.3548 C   0  0  0  0  0  0  0  0  0  0  0  0
   21.9520  -23.0626  -16.3362 C   0  0  2  0  0  0  0  0  0  0  0  0
   21.3594  -22.8569  -15.0589 N   0  0  0  0  0  0  0  0  0  0  0  0
   23.4282  -23.0307  -16.2225 C   0  0  0  0  0  0  0  0  0  0  0  0
   23.9248  -22.0653  -15.5965 O   0  0  0  0  0  0  0  0  0  0  0  0
   30.1691  -24.5932  -17.2954 N   0  0  0  0  0  0  0  0  0  0  0  0
   30.6586  -25.8945  -16.9507 C   0  0  0  0  0  0  0  0  0  0  0  0
   31.9085  -26.1582  -17.0930 N   0  0  0  0  0  0  0  0  0  0  0  0
   29.7479  -26.8763  -16.4570 N   0  0  0  0  0  0  0  0  0  0  0  0
   28.3311  -26.8366  -16.7647 C   0  0  0  0  0  0  0  0  0  0  0  0
   27.8057  -25.4310  -16.5710 C   0  0  0  0  0  0  0  0  0  0  0  0
   26.3167  -25.3853  -16.8155 C   0  0  0  0  0  0  0  0  0  0  0  0
   25.6944  -24.0632  -16.5872 C   0  0  2  0  0  0  0  0  0  0  0  0
   24.2568  -23.9976  -16.7656 N   0  0  0  0  0  0  0  0  0  0  0  0
   26.2455  -23.0641  -17.5773 C   0  0  0  0  0  0  0  0  0  0  0  0
   26.0578  -23.1581  -18.8173 O   0  0  0  0  0  0  0  0  0  0  0  0
   32.2732  -27.1041  -16.8587 O   0  0  0  0  0  0  0  0  0  0  0  0
   28.3078  -19.7960  -16.2205 C   0  0  0  0  0  0  0  0  0  0  0  0
   27.6805  -19.6297  -17.4349 C   0  0  1  0  0  0  0  0  0  0  0  0
   27.5435  -20.9769  -18.1217 N   0  0  0  0  0  0  0  0  0  0  0  0
   27.0189  -21.9436  -17.1612 C   0  0  0  0  0  0  0  0  0  0  0  0
   28.7920  -21.4412  -18.7425 O   0  0  0  0  0  0  0  0  0  0  0  0
   29.4009  -22.4774  -18.3712 O   0  0  0  0  0  0  0  0  0  0  0  0
  1  2  1  0
  2  3  2  0
  4  5  1  0
  4  2  1  0
  5  6  1  0
  6  8  1  0
  6  7  1  1
  8  9  2  0
 11 10  1  0
 11 12  2  0
 13 14  1  0
 13 11  1  0
 14 15  1  0
 15 16  1  0
 17 16  1  6
 17 19  1  0
 18 17  1  0
 18  8  1  0
 19 20  2  0
 21 22  1  0
 23 22  1  6
 23 25  1  0
 24 19  1  0
 24 23  1  0
 25 26  2  0
 25 27  1  0
M  END
$$$$
