QRS.pdb
     RDKit          3D

 27 26  0  0  1  0  0  0  0  0999 V2000
   18.6866  -26.7766   -5.6884 N   0  0  0  0  0  0  0  0  0  0  0  0
   18.7620  -27.6541   -6.8326 C   0  0  0  0  0  0  0  0  0  0  0  0
   19.2794  -28.7729   -6.6619 O   0  0  0  0  0  0  0  0  0  0  0  0
   18.2333  -27.1940   -8.1015 C   0  0  0  0  0  0  0  0  0  0  0  0
   17.5740  -25.8709   -8.0986 C   0  0  0  0  0  0  0  0  0  0  0  0
   18.4484  -24.7353   -7.6871 C   0  0  2  0  0  0  0  0  0  0  0  0
   18.2709  -24.3927   -6.3174 N   0  0  0  0  0  0  0  0  0  0  0  0
   18.2641  -23.5376   -8.5384 C   0  0  0  0  0  0  0  0  0  0  0  0
   17.1630  -22.9461   -8.4486 O   0  0  0  0  0  0  0  0  0  0  0  0
   23.7669  -20.2651  -14.7487 N   0  0  0  0  0  0  0  0  0  0  0  0
   22.4858  -20.8037  -14.4016 C   0  0  0  0  0  0  0  0  0  0  0  0
   22.2343  -22.0413  -14.6401 N   0  0  0  0  0  0  0  0  0  0  0  0
   21.5102  -19.9544  -13.7983 N   0  0  0  0  0  0  0  0  0  0  0  0
   21.4519  -19.7456  -12.3641 C   0  0  0  0  0  0  0  0  0  0  0  0
   20.1214  -20.2306  -11.8313 C   0  0  0  0  0  0  0  0  0  0  0  0
   20.3236  -21.3777  -10.8709 C   0  0  0  0  0  0  0  0  0  0  0  0
   19.0779  -21.9184  -10.2849 C   0  0  2  0  0  0  0  0  0  0  0  0
   19.2326  -23.0604   -9.4047 N   0  0  0  0  0  0  0  0  0  0  0  0
   18.1689  -22.4094  -11.3872 C   0  0  0  0  0  0  0  0  0  0  0  0
   18.3779  -23.4766  -12.0189 O   0  0  0  0  0  0  0  0  0  0  0  0
   21.2777  -22.4199  -14.4840 O   0  0  0  0  0  0  0  0  0  0  0  0
   14.3163  -20.9754  -11.8874 C   0  0  0  0  0  0  0  0  0  0  0  0
   14.7047  -22.2329  -12.2920 C   0  0  1  0  0  0  0  0  0  0  0  0
   16.1220  -22.1742  -12.8336 N   0  0  0  0  0  0  0  0  0  0  0  0
   17.0082  -21.6854  -11.7810 C   0  0  0  0  0  0  0  0  0  0  0  0
   16.2403  -21.3799  -14.0644 O   0  0  0  0  0  0  0  0  0  0  0  0
   15.6402  -21.6705  -15.1310 O   0  0  0  0  0  0  0  0  0  0  0  0
  1  2  1  0
  2  3  2  0
  4  5  1  0
  4  2  1  0
  5  6  1  0
  6  8  1  0
  6  7  1  1
  8  9  2  0
 11 10  1  0
 11 12  2  0
 13 14  1  0
 13 11  1  0
 14 15  1  0
 15 16  1  0
 17 16  1  6
 17 19  1  0
 18 17  1  0
 18  8  1  0
 19 20  2  0
 21 22  1  0
 23 22  1  1
 23 25  1  0
 24 19  1  0
 24 23  1  0
 25 26  2  0
 25 27  1  0
M  END
$$$$
