QRS.pdb
     RDKit          3D

 27 26  0  0  1  0  0  0  0  0999 V2000
   17.3296  -26.4657  -15.0393 N   0  0  0  0  0  0  0  0  0  0  0  0
   17.1024  -25.6739  -13.8534 C   0  0  0  0  0  0  0  0  0  0  0  0
   17.7109  -26.0051  -12.8196 O   0  0  0  0  0  0  0  0  0  0  0  0
   16.1940  -24.5468  -13.9298 C   0  0  0  0  0  0  0  0  0  0  0  0
   16.8134  -23.2066  -14.0047 C   0  0  0  0  0  0  0  0  0  0  0  0
   17.7544  -22.8875  -12.8928 C   0  0  2  0  0  0  0  0  0  0  0  0
   17.0707  -22.6155  -11.6749 N   0  0  0  0  0  0  0  0  0  0  0  0
   18.6676  -21.7695  -13.2234 C   0  0  0  0  0  0  0  0  0  0  0  0
   18.1996  -20.6112  -13.1249 O   0  0  0  0  0  0  0  0  0  0  0  0
   25.3622  -23.4668  -14.4130 N   0  0  0  0  0  0  0  0  0  0  0  0
   25.2205  -22.7203  -15.6273 C   0  0  0  0  0  0  0  0  0  0  0  0
   25.4031  -23.3077  -16.7558 N   0  0  0  0  0  0  0  0  0  0  0  0
   24.8806  -21.3357  -15.5615 N   0  0  0  0  0  0  0  0  0  0  0  0
   24.7234  -20.6402  -14.2984 C   0  0  0  0  0  0  0  0  0  0  0  0
   23.3062  -20.1256  -14.1719 C   0  0  0  0  0  0  0  0  0  0  0  0
   22.3502  -21.2671  -13.9227 C   0  0  0  0  0  0  0  0  0  0  0  0
   20.9220  -20.8831  -13.9069 C   0  0  2  0  0  0  0  0  0  0  0  0
   19.9799  -21.9492  -13.6260 N   0  0  0  0  0  0  0  0  0  0  0  0
   20.5184  -20.3696  -15.2691 C   0  0  0  0  0  0  0  0  0  0  0  0
   20.3487  -21.1251  -16.2601 O   0  0  0  0  0  0  0  0  0  0  0  0
   25.3629  -22.7629  -17.6413 O   0  0  0  0  0  0  0  0  0  0  0  0
   18.2926  -16.8944  -16.1024 C   0  0  0  0  0  0  0  0  0  0  0  0
   19.5233  -17.0244  -16.7061 C   0  0  2  0  0  0  0  0  0  0  0  0
   19.8756  -18.4967  -16.8236 N   0  0  0  0  0  0  0  0  0  0  0  0
   20.3036  -18.9840  -15.5153 C   0  0  0  0  0  0  0  0  0  0  0  0
   20.8736  -18.7730  -17.8663 O   0  0  0  0  0  0  0  0  0  0  0  0
   22.1137  -18.6992  -17.6684 O   0  0  0  0  0  0  0  0  0  0  0  0
  1  2  1  0
  2  3  2  0
  4  5  1  0
  4  2  1  0
  5  6  1  0
  6  8  1  0
  6  7  1  1
  8  9  2  0
 11 10  1  0
 11 12  2  0
 13 14  1  0
 13 11  1  0
 14 15  1  0
 15 16  1  0
 17 16  1  6
 17 19  1  0
 18 17  1  0
 18  8  1  0
 19 20  2  0
 21 22  1  0
 23 22  1  1
 23 25  1  0
 24 19  1  0
 24 23  1  0
 25 26  2  0
 25 27  1  0
M  END
$$$$
