QRS.pdb
     RDKit          3D

 27 26  0  0  1  0  0  0  0  0999 V2000
   21.7605  -15.2162  -18.9167 N   0  0  0  0  0  0  0  0  0  0  0  0
   22.5448  -14.3745  -19.7893 C   0  0  0  0  0  0  0  0  0  0  0  0
   22.2825  -13.1580  -19.7976 O   0  0  0  0  0  0  0  0  0  0  0  0
   23.5859  -14.9817  -20.5948 C   0  0  0  0  0  0  0  0  0  0  0  0
   23.7764  -16.4388  -20.4342 C   0  0  0  0  0  0  0  0  0  0  0  0
   24.4049  -16.8510  -19.1464 C   0  0  2  0  0  0  0  0  0  0  0  0
   25.8057  -17.0632  -19.2787 N   0  0  0  0  0  0  0  0  0  0  0  0
   23.7630  -18.0486  -18.5575 C   0  0  0  0  0  0  0  0  0  0  0  0
   23.8285  -19.1083  -19.2232 O   0  0  0  0  0  0  0  0  0  0  0  0
   25.2467  -22.2642  -14.8349 N   0  0  0  0  0  0  0  0  0  0  0  0
   24.3846  -23.0660  -14.0190 C   0  0  0  0  0  0  0  0  0  0  0  0
   24.5606  -24.3383  -13.9730 N   0  0  0  0  0  0  0  0  0  0  0  0
   23.3432  -22.4368  -13.2729 N   0  0  0  0  0  0  0  0  0  0  0  0
   23.0921  -21.0105  -13.3527 C   0  0  0  0  0  0  0  0  0  0  0  0
   22.3977  -20.6866  -14.6574 C   0  0  0  0  0  0  0  0  0  0  0  0
   23.1012  -19.5524  -15.3627 C   0  0  0  0  0  0  0  0  0  0  0  0
   22.5406  -19.2074  -16.6872 C   0  0  2  0  0  0  0  0  0  0  0  0
   23.1118  -18.0430  -17.3358 N   0  0  0  0  0  0  0  0  0  0  0  0
   21.0719  -18.8820  -16.5486 C   0  0  0  0  0  0  0  0  0  0  0  0
   20.6551  -17.8304  -15.9991 O   0  0  0  0  0  0  0  0  0  0  0  0
   24.0566  -24.9106  -13.2650 O   0  0  0  0  0  0  0  0  0  0  0  0
   18.1401  -21.5917  -17.7599 C   0  0  0  0  0  0  0  0  0  0  0  0
   17.8377  -20.2524  -17.8627 C   0  0  1  0  0  0  0  0  0  0  0  0
   18.6418  -19.4725  -16.8377 N   0  0  0  0  0  0  0  0  0  0  0  0
   20.0602  -19.7563  -17.0374 C   0  0  0  0  0  0  0  0  0  0  0  0
   18.2200  -19.7278  -15.4532 O   0  0  0  0  0  0  0  0  0  0  0  0
   18.9159  -20.3770  -14.6306 O   0  0  0  0  0  0  0  0  0  0  0  0
  1  2  1  0
  2  3  2  0
  4  5  1  0
  4  2  1  0
  5  6  1  0
  6  8  1  0
  6  7  1  6
  8  9  2  0
 11 10  1  0
 11 12  2  0
 13 14  1  0
 13 11  1  0
 14 15  1  0
 15 16  1  0
 17 16  1  1
 17 19  1  0
 18 17  1  0
 18  8  1  0
 19 20  2  0
 21 22  1  0
 23 22  1  6
 23 25  1  0
 24 19  1  0
 24 23  1  0
 25 26  2  0
 25 27  1  0
M  END
$$$$
