QRS.pdb
     RDKit          3D

 27 26  0  0  1  0  0  0  0  0999 V2000
   26.1652  -15.6614  -18.6016 N   0  0  0  0  0  0  0  0  0  0  0  0
   27.2932  -15.8682  -19.4790 C   0  0  0  0  0  0  0  0  0  0  0  0
   27.9702  -14.8697  -19.7847 O   0  0  0  0  0  0  0  0  0  0  0  0
   27.5772  -17.2105  -19.9467 C   0  0  0  0  0  0  0  0  0  0  0  0
   26.6884  -18.2822  -19.4499 C   0  0  0  0  0  0  0  0  0  0  0  0
   26.7373  -18.5048  -17.9763 C   0  0  2  0  0  0  0  0  0  0  0  0
   28.0700  -18.6618  -17.5031 N   0  0  0  0  0  0  0  0  0  0  0  0
   25.9069  -19.6533  -17.5464 C   0  0  0  0  0  0  0  0  0  0  0  0
   24.8999  -19.9138  -18.2453 O   0  0  0  0  0  0  0  0  0  0  0  0
   28.4730  -26.3558  -15.7392 N   0  0  0  0  0  0  0  0  0  0  0  0
   27.6810  -26.1806  -16.9198 C   0  0  0  0  0  0  0  0  0  0  0  0
   27.0061  -27.1722  -17.3816 N   0  0  0  0  0  0  0  0  0  0  0  0
   27.6573  -24.9071  -17.5637 N   0  0  0  0  0  0  0  0  0  0  0  0
   27.4789  -23.6727  -16.8231 C   0  0  0  0  0  0  0  0  0  0  0  0
   26.3686  -23.8416  -15.8092 C   0  0  0  0  0  0  0  0  0  0  0  0
   26.0812  -22.5308  -15.1175 C   0  0  0  0  0  0  0  0  0  0  0  0
   25.3830  -21.5316  -15.9551 C   0  0  2  0  0  0  0  0  0  0  0  0
   26.1914  -20.4272  -16.4344 N   0  0  0  0  0  0  0  0  0  0  0  0
   24.2826  -20.8763  -15.1539 C   0  0  0  0  0  0  0  0  0  0  0  0
   24.4958  -20.2616  -14.0777 O   0  0  0  0  0  0  0  0  0  0  0  0
   26.5027  -27.0851  -18.2880 O   0  0  0  0  0  0  0  0  0  0  0  0
   20.2456  -21.1393  -16.3056 C   0  0  0  0  0  0  0  0  0  0  0  0
   20.6748  -20.0164  -15.6343 C   0  0  1  0  0  0  0  0  0  0  0  0
   21.8494  -20.3785  -14.7428 N   0  0  0  0  0  0  0  0  0  0  0  0
   22.9229  -20.9159  -15.5739 C   0  0  0  0  0  0  0  0  0  0  0  0
   21.4885  -21.2942  -13.6514 O   0  0  0  0  0  0  0  0  0  0  0  0
   20.6909  -20.9848  -12.7292 O   0  0  0  0  0  0  0  0  0  0  0  0
  1  2  1  0
  2  3  2  0
  4  5  1  0
  4  2  1  0
  5  6  1  0
  6  8  1  0
  6  7  1  6
  8  9  2  0
 11 10  1  0
 11 12  2  0
 13 14  1  0
 13 11  1  0
 14 15  1  0
 15 16  1  0
 17 16  1  1
 17 19  1  0
 18 17  1  0
 18  8  1  0
 19 20  2  0
 21 22  1  0
 23 22  1  6
 23 25  1  0
 24 19  1  0
 24 23  1  0
 25 26  2  0
 25 27  1  0
M  END
$$$$
