QRS.pdb
     RDKit          3D

 27 26  0  0  1  0  0  0  0  0999 V2000
   18.1649  -21.7009   -9.2524 N   0  0  0  0  0  0  0  0  0  0  0  0
   18.9419  -22.5023  -10.1683 C   0  0  0  0  0  0  0  0  0  0  0  0
   19.7228  -21.9041  -10.9305 O   0  0  0  0  0  0  0  0  0  0  0  0
   18.7777  -23.9424  -10.1484 C   0  0  0  0  0  0  0  0  0  0  0  0
   17.8844  -24.4884   -9.1047 C   0  0  0  0  0  0  0  0  0  0  0  0
   18.4184  -25.6780   -8.3815 C   0  0  2  0  0  0  0  0  0  0  0  0
   18.5920  -26.7955   -9.2451 N   0  0  0  0  0  0  0  0  0  0  0  0
   17.5840  -26.0591   -7.2189 C   0  0  0  0  0  0  0  0  0  0  0  0
   16.4762  -26.5887   -7.4694 O   0  0  0  0  0  0  0  0  0  0  0  0
   21.0253  -28.9939   -0.1495 N   0  0  0  0  0  0  0  0  0  0  0  0
   20.4657  -29.9298   -1.0783 C   0  0  0  0  0  0  0  0  0  0  0  0
   20.7706  -31.1747   -0.9831 N   0  0  0  0  0  0  0  0  0  0  0  0
   19.5801  -29.4618   -2.0951 N   0  0  0  0  0  0  0  0  0  0  0  0
   19.1538  -28.0773   -2.1678 C   0  0  0  0  0  0  0  0  0  0  0  0
   18.2751  -27.8769   -3.3832 C   0  0  0  0  0  0  0  0  0  0  0  0
   17.8440  -26.4341   -3.4910 C   0  0  0  0  0  0  0  0  0  0  0  0
   17.1333  -26.0947   -4.7429 C   0  0  2  0  0  0  0  0  0  0  0  0
   17.9688  -25.8581   -5.9043 N   0  0  0  0  0  0  0  0  0  0  0  0
   16.3662  -24.8063   -4.5588 C   0  0  0  0  0  0  0  0  0  0  0  0
   16.9258  -23.6815   -4.5009 O   0  0  0  0  0  0  0  0  0  0  0  0
   20.3563  -31.8663   -1.6409 O   0  0  0  0  0  0  0  0  0  0  0  0
   12.8535  -23.9850   -6.0288 C   0  0  0  0  0  0  0  0  0  0  0  0
   12.8066  -23.6832   -4.6862 C   0  0  2  0  0  0  0  0  0  0  0  0
   14.2204  -23.5560   -4.1471 N   0  0  0  0  0  0  0  0  0  0  0  0
   14.9478  -24.7881   -4.4384 C   0  0  0  0  0  0  0  0  0  0  0  0
   14.2679  -23.2145   -2.7185 O   0  0  0  0  0  0  0  0  0  0  0  0
   14.6144  -24.0317   -1.8271 O   0  0  0  0  0  0  0  0  0  0  0  0
  1  2  1  0
  2  3  2  0
  4  5  1  0
  4  2  1  0
  5  6  1  0
  6  8  1  0
  6  7  1  6
  8  9  2  0
 11 10  1  0
 11 12  2  0
 13 14  1  0
 13 11  1  0
 14 15  1  0
 15 16  1  0
 17 16  1  1
 17 19  1  0
 18 17  1  0
 18  8  1  0
 19 20  2  0
 21 22  1  0
 23 22  1  6
 23 25  1  0
 24 19  1  0
 24 23  1  0
 25 26  2  0
 25 27  1  0
M  END
$$$$
