QRS.pdb
     RDKit          3D

 27 26  0  0  1  0  0  0  0  0999 V2000
   26.0502  -18.7297  -18.4642 N   0  0  0  0  0  0  0  0  0  0  0  0
   27.4260  -18.6561  -18.0321 C   0  0  0  0  0  0  0  0  0  0  0  0
   28.2442  -18.1397  -18.8148 O   0  0  0  0  0  0  0  0  0  0  0  0
   27.7762  -19.1756  -16.7249 C   0  0  0  0  0  0  0  0  0  0  0  0
   26.6797  -19.7877  -15.9448 C   0  0  0  0  0  0  0  0  0  0  0  0
   27.0767  -20.3045  -14.6037 C   0  0  2  0  0  0  0  0  0  0  0  0
   28.0240  -21.3621  -14.6970 N   0  0  0  0  0  0  0  0  0  0  0  0
   25.9144  -20.7336  -13.7923 C   0  0  0  0  0  0  0  0  0  0  0  0
   25.3311  -21.7822  -14.1534 O   0  0  0  0  0  0  0  0  0  0  0  0
   20.5871  -21.0000   -7.6462 N   0  0  0  0  0  0  0  0  0  0  0  0
   20.9357  -22.1370   -8.4447 C   0  0  0  0  0  0  0  0  0  0  0  0
   20.0241  -22.9799   -8.7769 N   0  0  0  0  0  0  0  0  0  0  0  0
   22.2909  -22.3143   -8.8556 N   0  0  0  0  0  0  0  0  0  0  0  0
   23.2861  -21.2706   -8.6994 C   0  0  0  0  0  0  0  0  0  0  0  0
   23.0424  -20.1766   -9.7158 C   0  0  0  0  0  0  0  0  0  0  0  0
   24.3053  -19.8835  -10.4892 C   0  0  0  0  0  0  0  0  0  0  0  0
   24.3239  -20.4219  -11.8667 C   0  0  2  0  0  0  0  0  0  0  0  0
   25.4603  -20.0409  -12.6831 N   0  0  0  0  0  0  0  0  0  0  0  0
   23.1224  -19.9127  -12.6279 C   0  0  0  0  0  0  0  0  0  0  0  0
   22.9207  -18.6906  -12.8458 O   0  0  0  0  0  0  0  0  0  0  0  0
   20.2621  -23.8005   -9.3708 O   0  0  0  0  0  0  0  0  0  0  0  0
   19.5676  -20.7236  -15.7145 C   0  0  0  0  0  0  0  0  0  0  0  0
   20.6862  -21.1783  -15.0527 C   0  0  1  0  0  0  0  0  0  0  0  0
   20.9529  -20.2962  -13.8459 N   0  0  0  0  0  0  0  0  0  0  0  0
   22.1354  -20.7958  -13.1501 C   0  0  0  0  0  0  0  0  0  0  0  0
   19.7961  -20.1770  -12.9475 O   0  0  0  0  0  0  0  0  0  0  0  0
   19.6461  -20.8883  -11.9209 O   0  0  0  0  0  0  0  0  0  0  0  0
  1  2  1  0
  2  3  2  0
  4  5  1  0
  4  2  1  0
  5  6  1  0
  6  8  1  0
  6  7  1  6
  8  9  2  0
 11 10  1  0
 11 12  2  0
 13 14  1  0
 13 11  1  0
 14 15  1  0
 15 16  1  0
 17 16  1  1
 17 19  1  0
 18 17  1  0
 18  8  1  0
 19 20  2  0
 21 22  1  0
 23 22  1  6
 23 25  1  0
 24 19  1  0
 24 23  1  0
 25 26  2  0
 25 27  1  0
M  END
$$$$
