QVQ.pdb
     RDKit          3D

 26 25  0  0  1  0  0  0  0  0999 V2000
    7.6617  -18.9186   19.0308 N   0  0  0  0  0  0  0  0  0  0  0  0
    6.6055  -18.3927   19.7905 C   0  0  0  0  0  0  0  0  0  0  0  0
    5.6869  -19.1496   20.1697 O   0  0  0  0  0  0  0  0  0  0  0  0
    6.5873  -16.9759   20.1299 C   0  0  0  0  0  0  0  0  0  0  0  0
    7.3133  -16.6477   21.4097 C   0  0  0  0  0  0  0  0  0  0  0  0
    7.0387  -15.1805   21.6933 C   0  0  2  0  0  0  0  0  0  0  0  0
    7.1234  -14.3644   20.5092 N   0  0  0  0  0  0  0  0  0  0  0  0
    7.8685  -14.6559   22.7954 C   0  0  0  0  0  0  0  0  0  0  0  0
    9.1109  -14.6216   22.7350 O   0  0  0  0  0  0  0  0  0  0  0  0
    7.7038  -11.7844   26.8213 C   0  0  0  0  0  0  0  0  0  0  0  0
    7.0637  -12.6504   25.7648 C   0  0  2  0  0  0  0  0  0  0  0  0
    5.8078  -13.3098   26.2493 C   0  0  0  0  0  0  0  0  0  0  0  0
    8.0055  -13.6028   25.0853 C   0  0  2  0  0  0  0  0  0  0  0  0
    7.2378  -14.1735   23.9646 N   0  0  0  0  0  0  0  0  0  0  0  0
    8.4780  -14.7155   25.9065 C   0  0  0  0  0  0  0  0  0  0  0  0
    7.6863  -15.7152   26.0472 O   0  0  0  0  0  0  0  0  0  0  0  0
   14.0028  -17.6325   25.8295 N   0  0  0  0  0  0  0  0  0  0  0  0
   13.4830  -16.3527   25.4520 C   0  0  0  0  0  0  0  0  0  0  0  0
   14.0007  -15.8124   24.4240 O   0  0  0  0  0  0  0  0  0  0  0  0
   12.4010  -15.7124   26.2191 C   0  0  0  0  0  0  0  0  0  0  0  0
   11.2594  -16.5940   26.5505 C   0  0  0  0  0  0  0  0  0  0  0  0
   10.0927  -16.0269   27.2711 C   0  0  2  0  0  0  0  0  0  0  0  0
    9.7159  -14.7859   26.5510 N   0  0  0  0  0  0  0  0  0  0  0  0
   10.3461  -15.6973   28.6635 C   0  0  0  0  0  0  0  0  0  0  0  0
   10.2529  -14.5126   29.1218 O   0  0  0  0  0  0  0  0  0  0  0  0
   10.7128  -16.6495   29.6170 O   0  0  0  0  0  0  0  0  0  0  0  0
  2  1  1  0
  2  3  2  0
  4  5  1  0
  4  2  1  0
  6  7  1  6
  6  5  1  0
  8  6  1  0
  9  8  2  0
 11 10  1  1
 11 12  1  0
 11 13  1  0
 13 14  1  6
 14  8  1  0
 15 16  2  0
 15 13  1  0
 18 17  1  0
 19 18  2  0
 20 18  1  0
 22 21  1  6
 21 20  1  0
 22 23  1  0
 23 15  1  0
 24 22  1  0
 25 24  2  0
 26 24  1  0
M  END
$$$$
