QVQ.pdb
     RDKit          3D

 26 25  0  0  1  0  0  0  0  0999 V2000
    8.4206  -12.0010   18.4112 N   0  0  0  0  0  0  0  0  0  0  0  0
    8.3434  -13.3907   18.2318 C   0  0  0  0  0  0  0  0  0  0  0  0
    8.0914  -13.8494   17.0974 O   0  0  0  0  0  0  0  0  0  0  0  0
    8.5566  -14.2842   19.3628 C   0  0  0  0  0  0  0  0  0  0  0  0
    7.2810  -14.7926   19.9850 C   0  0  0  0  0  0  0  0  0  0  0  0
    7.6937  -15.8034   21.0417 C   0  0  2  0  0  0  0  0  0  0  0  0
    6.6025  -16.6499   21.4516 N   0  0  0  0  0  0  0  0  0  0  0  0
    8.3738  -15.1714   22.1891 C   0  0  0  0  0  0  0  0  0  0  0  0
    9.4662  -14.5864   22.0756 O   0  0  0  0  0  0  0  0  0  0  0  0
    6.2715  -14.6554   25.9268 C   0  0  0  0  0  0  0  0  0  0  0  0
    7.4833  -13.9181   25.4132 C   0  0  2  0  0  0  0  0  0  0  0  0
    7.1196  -12.6716   24.6641 C   0  0  0  0  0  0  0  0  0  0  0  0
    8.4722  -14.7790   24.6806 C   0  0  2  0  0  0  0  0  0  0  0  0
    7.7698  -15.2279   23.4656 N   0  0  0  0  0  0  0  0  0  0  0  0
    8.9206  -15.9721   25.3957 C   0  0  0  0  0  0  0  0  0  0  0  0
    8.1925  -17.0234   25.2922 O   0  0  0  0  0  0  0  0  0  0  0  0
   13.8850  -18.5496   24.2529 N   0  0  0  0  0  0  0  0  0  0  0  0
   13.6113  -19.3087   25.4359 C   0  0  0  0  0  0  0  0  0  0  0  0
   14.3998  -20.2750   25.6833 O   0  0  0  0  0  0  0  0  0  0  0  0
   12.4778  -18.9714   26.3136 C   0  0  0  0  0  0  0  0  0  0  0  0
   11.7118  -17.7690   25.9161 C   0  0  0  0  0  0  0  0  0  0  0  0
   10.5004  -17.3951   26.6873 C   0  0  2  0  0  0  0  0  0  0  0  0
   10.0723  -16.0680   26.1812 N   0  0  0  0  0  0  0  0  0  0  0  0
   10.7048  -17.3010   28.1229 C   0  0  0  0  0  0  0  0  0  0  0  0
   10.7006  -16.1929   28.7508 O   0  0  0  0  0  0  0  0  0  0  0  0
   10.9231  -18.4154   28.9358 O   0  0  0  0  0  0  0  0  0  0  0  0
  2  1  1  0
  2  3  2  0
  4  5  1  0
  4  2  1  0
  6  7  1  1
  6  5  1  0
  8  6  1  0
  9  8  2  0
 11 10  1  6
 11 12  1  0
 11 13  1  0
 13 14  1  6
 14  8  1  0
 15 16  2  0
 15 13  1  0
 18 17  1  0
 19 18  2  0
 20 18  1  0
 22 21  1  6
 21 20  1  0
 22 23  1  0
 23 15  1  0
 24 22  1  0
 25 24  2  0
 26 24  1  0
M  END
$$$$
