QVQ.pdb
     RDKit          3D

 26 25  0  0  1  0  0  0  0  0999 V2000
    8.3640  -20.7184   26.0530 N   0  0  0  0  0  0  0  0  0  0  0  0
    7.4825  -21.5750   25.3759 C   0  0  0  0  0  0  0  0  0  0  0  0
    7.8220  -22.7576   25.1593 O   0  0  0  0  0  0  0  0  0  0  0  0
    6.1848  -21.0827   24.9326 C   0  0  0  0  0  0  0  0  0  0  0  0
    5.8476  -19.7070   25.4488 C   0  0  0  0  0  0  0  0  0  0  0  0
    5.4525  -18.8802   24.2368 C   0  0  2  0  0  0  0  0  0  0  0  0
    5.1593  -19.6945   23.0852 N   0  0  0  0  0  0  0  0  0  0  0  0
    6.4327  -17.8183   23.9368 C   0  0  0  0  0  0  0  0  0  0  0  0
    7.1388  -17.8344   22.9123 O   0  0  0  0  0  0  0  0  0  0  0  0
    6.1398  -13.5356   24.4844 C   0  0  0  0  0  0  0  0  0  0  0  0
    6.9753  -14.4625   25.3323 C   0  0  2  0  0  0  0  0  0  0  0  0
    8.0052  -13.7288   26.1372 C   0  0  0  0  0  0  0  0  0  0  0  0
    7.5354  -15.6455   24.5956 C   0  0  2  0  0  0  0  0  0  0  0  0
    6.5812  -16.7413   24.8398 N   0  0  0  0  0  0  0  0  0  0  0  0
    8.8509  -16.1003   25.0410 C   0  0  0  0  0  0  0  0  0  0  0  0
    8.8927  -16.8117   26.1079 O   0  0  0  0  0  0  0  0  0  0  0  0
   10.3486  -20.3601   24.1660 N   0  0  0  0  0  0  0  0  0  0  0  0
   11.6166  -20.0845   23.5603 C   0  0  0  0  0  0  0  0  0  0  0  0
   12.4759  -21.0210   23.5953 O   0  0  0  0  0  0  0  0  0  0  0  0
   11.8933  -18.7836   22.9278 C   0  0  0  0  0  0  0  0  0  0  0  0
   10.9171  -17.7149   23.2365 C   0  0  0  0  0  0  0  0  0  0  0  0
   11.1405  -16.8515   24.4225 C   0  0  2  0  0  0  0  0  0  0  0  0
   10.0661  -15.8287   24.4068 N   0  0  0  0  0  0  0  0  0  0  0  0
   12.4261  -16.1744   24.4418 C   0  0  0  0  0  0  0  0  0  0  0  0
   12.6116  -15.0275   23.9199 O   0  0  0  0  0  0  0  0  0  0  0  0
   13.5665  -16.7222   25.0333 O   0  0  0  0  0  0  0  0  0  0  0  0
  2  1  1  0
  2  3  2  0
  4  5  1  0
  4  2  1  0
  6  7  1  6
  6  5  1  0
  8  6  1  0
  9  8  2  0
 11 10  1  6
 11 12  1  0
 11 13  1  0
 13 14  1  1
 14  8  1  0
 15 16  2  0
 15 13  1  0
 18 17  1  0
 19 18  2  0
 20 18  1  0
 22 21  1  6
 21 20  1  0
 22 23  1  0
 23 15  1  0
 24 22  1  0
 25 24  2  0
 26 24  1  0
M  END
$$$$
