QVQ.pdb
     RDKit          3D

 26 25  0  0  1  0  0  0  0  0999 V2000
   12.2501  -17.8598   15.5789 N   0  0  0  0  0  0  0  0  0  0  0  0
   11.2942  -18.8865   15.5417 C   0  0  0  0  0  0  0  0  0  0  0  0
   11.5797  -19.9704   14.9901 O   0  0  0  0  0  0  0  0  0  0  0  0
    9.9827  -18.6828   16.1429 C   0  0  0  0  0  0  0  0  0  0  0  0
    9.7902  -17.3083   16.7314 C   0  0  0  0  0  0  0  0  0  0  0  0
    9.0825  -17.5075   18.0611 C   0  0  2  0  0  0  0  0  0  0  0  0
    7.6480  -17.5011   17.9291 N   0  0  0  0  0  0  0  0  0  0  0  0
    9.5538  -16.5659   19.0954 C   0  0  0  0  0  0  0  0  0  0  0  0
   10.7619  -16.3987   19.3424 O   0  0  0  0  0  0  0  0  0  0  0  0
    6.6051  -14.3336   21.4752 C   0  0  0  0  0  0  0  0  0  0  0  0
    7.9364  -13.8512   20.9547 C   0  0  2  0  0  0  0  0  0  0  0  0
    7.8070  -13.0933   19.6680 C   0  0  0  0  0  0  0  0  0  0  0  0
    9.0077  -14.9032   20.9143 C   0  0  2  0  0  0  0  0  0  0  0  0
    8.6062  -15.8239   19.8363 N   0  0  0  0  0  0  0  0  0  0  0  0
    9.1610  -15.6939   22.1338 C   0  0  0  0  0  0  0  0  0  0  0  0
    8.3314  -16.6557   22.3145 O   0  0  0  0  0  0  0  0  0  0  0  0
   14.0022  -18.3451   24.4187 N   0  0  0  0  0  0  0  0  0  0  0  0
   13.1575  -18.5621   23.2829 C   0  0  0  0  0  0  0  0  0  0  0  0
   13.6301  -19.2957   22.3581 O   0  0  0  0  0  0  0  0  0  0  0  0
   11.8125  -17.9669   23.2076 C   0  0  0  0  0  0  0  0  0  0  0  0
   11.4673  -17.0524   24.3190 C   0  0  0  0  0  0  0  0  0  0  0  0
   10.1480  -16.3733   24.3140 C   0  0  2  0  0  0  0  0  0  0  0  0
   10.1316  -15.4944   23.1190 N   0  0  0  0  0  0  0  0  0  0  0  0
    9.8826  -15.5627   25.4904 C   0  0  0  0  0  0  0  0  0  0  0  0
    9.7967  -14.2926   25.4502 O   0  0  0  0  0  0  0  0  0  0  0  0
    9.6993  -16.1059   26.7640 O   0  0  0  0  0  0  0  0  0  0  0  0
  2  1  1  0
  2  3  2  0
  4  5  1  0
  4  2  1  0
  6  7  1  6
  6  5  1  0
  8  6  1  0
  9  8  2  0
 11 10  1  6
 11 12  1  0
 11 13  1  0
 13 14  1  6
 14  8  1  0
 15 16  2  0
 15 13  1  0
 18 17  1  0
 19 18  2  0
 20 18  1  0
 22 21  1  1
 21 20  1  0
 22 23  1  0
 23 15  1  0
 24 22  1  0
 25 24  2  0
 26 24  1  0
M  END
$$$$
