QVQ.pdb
     RDKit          3D

 26 25  0  0  1  0  0  0  0  0999 V2000
    7.9897  -15.2580   18.7532 N   0  0  0  0  0  0  0  0  0  0  0  0
    7.9568  -16.6555   18.8766 C   0  0  0  0  0  0  0  0  0  0  0  0
    8.4108  -17.3634   17.9528 O   0  0  0  0  0  0  0  0  0  0  0  0
    7.3966  -17.2681   20.0741 C   0  0  0  0  0  0  0  0  0  0  0  0
    6.7332  -16.2863   21.0060 C   0  0  0  0  0  0  0  0  0  0  0  0
    7.3635  -16.4999   22.3719 C   0  0  2  0  0  0  0  0  0  0  0  0
    6.4825  -17.1809   23.2858 N   0  0  0  0  0  0  0  0  0  0  0  0
    7.9056  -15.2513   22.9424 C   0  0  0  0  0  0  0  0  0  0  0  0
    8.7024  -14.5259   22.3199 O   0  0  0  0  0  0  0  0  0  0  0  0
    5.7611  -12.7059   25.1556 C   0  0  0  0  0  0  0  0  0  0  0  0
    7.0165  -13.1873   25.8399 C   0  0  2  0  0  0  0  0  0  0  0  0
    7.5240  -12.2105   26.8574 C   0  0  0  0  0  0  0  0  0  0  0  0
    8.0868  -13.6756   24.9061 C   0  0  2  0  0  0  0  0  0  0  0  0
    7.5112  -14.8579   24.2413 N   0  0  0  0  0  0  0  0  0  0  0  0
    9.3353  -14.0924   25.5411 C   0  0  0  0  0  0  0  0  0  0  0  0
    9.9522  -13.2168   26.2474 O   0  0  0  0  0  0  0  0  0  0  0  0
   10.4486  -17.2268   30.8341 N   0  0  0  0  0  0  0  0  0  0  0  0
   10.8297  -16.0188   30.1661 C   0  0  0  0  0  0  0  0  0  0  0  0
   10.6134  -14.9335   30.7923 O   0  0  0  0  0  0  0  0  0  0  0  0
   11.4453  -16.0482   28.8285 C   0  0  0  0  0  0  0  0  0  0  0  0
   10.5575  -15.6336   27.7193 C   0  0  0  0  0  0  0  0  0  0  0  0
   11.0602  -15.7047   26.3250 C   0  0  2  0  0  0  0  0  0  0  0  0
    9.9153  -15.3602   25.4468 N   0  0  0  0  0  0  0  0  0  0  0  0
   11.5701  -17.0079   25.9336 C   0  0  0  0  0  0  0  0  0  0  0  0
   10.8845  -17.8459   25.2629 O   0  0  0  0  0  0  0  0  0  0  0  0
   12.8534  -17.4526   26.2588 O   0  0  0  0  0  0  0  0  0  0  0  0
  2  1  1  0
  2  3  2  0
  4  5  1  0
  4  2  1  0
  6  7  1  1
  6  5  1  0
  8  6  1  0
  9  8  2  0
 11 10  1  6
 11 12  1  0
 11 13  1  0
 13 14  1  1
 14  8  1  0
 15 16  2  0
 15 13  1  0
 18 17  1  0
 19 18  2  0
 20 18  1  0
 22 21  1  1
 21 20  1  0
 22 23  1  0
 23 15  1  0
 24 22  1  0
 25 24  2  0
 26 24  1  0
M  END
$$$$
