QVQ.pdb
     RDKit          3D

 26 25  0  0  1  0  0  0  0  0999 V2000
    6.5798  -20.7661   25.8492 N   0  0  0  0  0  0  0  0  0  0  0  0
    6.1857  -20.8830   24.5074 C   0  0  0  0  0  0  0  0  0  0  0  0
    5.8287  -21.9967   24.0681 O   0  0  0  0  0  0  0  0  0  0  0  0
    6.1954  -19.7119   23.6406 C   0  0  0  0  0  0  0  0  0  0  0  0
    6.6605  -18.4521   24.3256 C   0  0  0  0  0  0  0  0  0  0  0  0
    6.5923  -17.3484   23.2835 C   0  0  2  0  0  0  0  0  0  0  0  0
    6.8659  -17.8281   21.9530 N   0  0  0  0  0  0  0  0  0  0  0  0
    7.4264  -16.1847   23.6418 C   0  0  0  0  0  0  0  0  0  0  0  0
    8.6068  -16.0705   23.2647 O   0  0  0  0  0  0  0  0  0  0  0  0
    7.5431  -11.8731   26.1199 C   0  0  0  0  0  0  0  0  0  0  0  0
    6.8248  -13.0709   25.5494 C   0  0  2  0  0  0  0  0  0  0  0  0
    5.6311  -13.4646   26.3662 C   0  0  0  0  0  0  0  0  0  0  0  0
    7.7177  -14.2307   25.2129 C   0  0  2  0  0  0  0  0  0  0  0  0
    6.8729  -15.1589   24.4411 N   0  0  0  0  0  0  0  0  0  0  0  0
    8.2507  -14.9684   26.3564 C   0  0  0  0  0  0  0  0  0  0  0  0
    7.8309  -16.1691   26.5242 O   0  0  0  0  0  0  0  0  0  0  0  0
   10.8772  -18.7809   26.0794 N   0  0  0  0  0  0  0  0  0  0  0  0
   11.6803  -18.3968   27.2011 C   0  0  0  0  0  0  0  0  0  0  0  0
   12.1001  -19.3383   27.9453 O   0  0  0  0  0  0  0  0  0  0  0  0
   12.0007  -16.9831   27.4615 C   0  0  0  0  0  0  0  0  0  0  0  0
   10.9744  -16.0142   27.0162 C   0  0  0  0  0  0  0  0  0  0  0  0
   10.0440  -15.4347   28.0165 C   0  0  2  0  0  0  0  0  0  0  0  0
    9.1772  -14.4809   27.2819 N   0  0  0  0  0  0  0  0  0  0  0  0
   10.6947  -14.7268   29.1060 C   0  0  0  0  0  0  0  0  0  0  0  0
   10.9241  -13.4743   29.0776 O   0  0  0  0  0  0  0  0  0  0  0  0
   11.1235  -15.3580   30.2757 O   0  0  0  0  0  0  0  0  0  0  0  0
  2  1  1  0
  2  3  2  0
  4  5  1  0
  4  2  1  0
  6  7  1  6
  6  5  1  0
  8  6  1  0
  9  8  2  0
 11 10  1  1
 11 12  1  0
 11 13  1  0
 13 14  1  6
 14  8  1  0
 15 16  2  0
 15 13  1  0
 18 17  1  0
 19 18  2  0
 20 18  1  0
 22 21  1  6
 21 20  1  0
 22 23  1  0
 23 15  1  0
 24 22  1  0
 25 24  2  0
 26 24  1  0
M  END
$$$$
