QVQ.pdb
     RDKit          3D

 26 25  0  0  1  0  0  0  0  0999 V2000
    5.5254  -19.7138   24.1500 N   0  0  0  0  0  0  0  0  0  0  0  0
    6.7371  -19.5452   23.4625 C   0  0  0  0  0  0  0  0  0  0  0  0
    7.5559  -20.4878   23.4228 O   0  0  0  0  0  0  0  0  0  0  0  0
    7.0305  -18.2793   22.8033 C   0  0  0  0  0  0  0  0  0  0  0  0
    5.9575  -17.2360   22.9847 C   0  0  0  0  0  0  0  0  0  0  0  0
    6.5297  -15.9356   22.4461 C   0  0  2  0  0  0  0  0  0  0  0  0
    7.1521  -16.0987   21.1571 N   0  0  0  0  0  0  0  0  0  0  0  0
    7.4188  -15.2679   23.4167 C   0  0  0  0  0  0  0  0  0  0  0  0
    8.6588  -15.3445   23.3458 O   0  0  0  0  0  0  0  0  0  0  0  0
    6.1915  -11.8223   25.1965 C   0  0  0  0  0  0  0  0  0  0  0  0
    6.7752  -12.8439   26.1408 C   0  0  2  0  0  0  0  0  0  0  0  0
    7.3763  -12.2164   27.3622 C   0  0  0  0  0  0  0  0  0  0  0  0
    7.6799  -13.8498   25.4885 C   0  0  2  0  0  0  0  0  0  0  0  0
    6.8500  -14.5126   24.4672 N   0  0  0  0  0  0  0  0  0  0  0  0
    8.2061  -14.8897   26.3704 C   0  0  0  0  0  0  0  0  0  0  0  0
    7.4081  -15.8413   26.6925 O   0  0  0  0  0  0  0  0  0  0  0  0
   13.0212  -18.0018   25.3060 N   0  0  0  0  0  0  0  0  0  0  0  0
   12.7722  -18.5098   26.6215 C   0  0  0  0  0  0  0  0  0  0  0  0
   13.5135  -19.4678   27.0079 O   0  0  0  0  0  0  0  0  0  0  0  0
   11.7152  -17.9377   27.4728 C   0  0  0  0  0  0  0  0  0  0  0  0
   10.9699  -16.8076   26.8745 C   0  0  0  0  0  0  0  0  0  0  0  0
    9.9263  -16.1233   27.6773 C   0  0  2  0  0  0  0  0  0  0  0  0
    9.5013  -14.9383   26.8926 N   0  0  0  0  0  0  0  0  0  0  0  0
   10.3691  -15.6781   28.9878 C   0  0  0  0  0  0  0  0  0  0  0  0
   10.5242  -14.4493   29.2849 O   0  0  0  0  0  0  0  0  0  0  0  0
   10.6620  -16.5578   30.0322 O   0  0  0  0  0  0  0  0  0  0  0  0
  2  1  1  0
  2  3  2  0
  4  5  1  0
  4  2  1  0
  6  7  1  6
  6  5  1  0
  8  6  1  0
  9  8  2  0
 11 10  1  6
 11 12  1  0
 11 13  1  0
 13 14  1  6
 14  8  1  0
 15 16  2  0
 15 13  1  0
 18 17  1  0
 19 18  2  0
 20 18  1  0
 22 21  1  6
 21 20  1  0
 22 23  1  0
 23 15  1  0
 24 22  1  0
 25 24  2  0
 26 24  1  0
M  END
$$$$
