QVQ.pdb
     RDKit          3D

 26 25  0  0  1  0  0  0  0  0999 V2000
   11.2099  -17.1153   19.9696 N   0  0  0  0  0  0  0  0  0  0  0  0
   10.0105  -17.5135   19.3595 C   0  0  0  0  0  0  0  0  0  0  0  0
   10.0118  -18.4961   18.5880 O   0  0  0  0  0  0  0  0  0  0  0  0
    8.7790  -16.7827   19.6282 C   0  0  0  0  0  0  0  0  0  0  0  0
    8.9509  -15.6331   20.5881 C   0  0  0  0  0  0  0  0  0  0  0  0
    8.3278  -16.0753   21.9014 C   0  0  2  0  0  0  0  0  0  0  0  0
    6.8888  -16.1133   21.8442 N   0  0  0  0  0  0  0  0  0  0  0  0
    8.8220  -15.2916   23.0502 C   0  0  0  0  0  0  0  0  0  0  0  0
   10.0319  -15.0608   23.2274 O   0  0  0  0  0  0  0  0  0  0  0  0
    6.7340  -12.1790   24.3680 C   0  0  0  0  0  0  0  0  0  0  0  0
    7.1511  -13.1070   25.4819 C   0  0  2  0  0  0  0  0  0  0  0  0
    7.2989  -12.3964   26.7934 C   0  0  0  0  0  0  0  0  0  0  0  0
    8.3223  -13.9880   25.1531 C   0  0  2  0  0  0  0  0  0  0  0  0
    7.8952  -14.7813   23.9873 N   0  0  0  0  0  0  0  0  0  0  0  0
    8.7197  -14.9255   26.2015 C   0  0  0  0  0  0  0  0  0  0  0  0
    7.8850  -15.8517   26.5041 O   0  0  0  0  0  0  0  0  0  0  0  0
   13.7790  -17.9326   26.3600 N   0  0  0  0  0  0  0  0  0  0  0  0
   13.2873  -18.3232   27.6470 C   0  0  0  0  0  0  0  0  0  0  0  0
   13.9549  -19.2139   28.2614 O   0  0  0  0  0  0  0  0  0  0  0  0
   12.0757  -17.7113   28.2186 C   0  0  0  0  0  0  0  0  0  0  0  0
   11.4334  -16.6808   27.3724 C   0  0  0  0  0  0  0  0  0  0  0  0
   10.2269  -15.9795   27.8767 C   0  0  2  0  0  0  0  0  0  0  0  0
    9.9285  -14.9017   26.9021 N   0  0  0  0  0  0  0  0  0  0  0  0
   10.3814  -15.3852   29.1937 C   0  0  0  0  0  0  0  0  0  0  0  0
   10.5134  -14.1315   29.3755 O   0  0  0  0  0  0  0  0  0  0  0  0
   10.3983  -16.1363   30.3710 O   0  0  0  0  0  0  0  0  0  0  0  0
  2  1  1  0
  2  3  2  0
  4  5  1  0
  4  2  1  0
  6  7  1  6
  6  5  1  0
  8  6  1  0
  9  8  2  0
 11 10  1  6
 11 12  1  0
 11 13  1  0
 13 14  1  6
 14  8  1  0
 15 16  2  0
 15 13  1  0
 18 17  1  0
 19 18  2  0
 20 18  1  0
 22 21  1  6
 21 20  1  0
 22 23  1  0
 23 15  1  0
 24 22  1  0
 25 24  2  0
 26 24  1  0
M  END
$$$$
