QVQ.pdb
     RDKit          3D

 26 25  0  0  1  0  0  0  0  0999 V2000
    5.7903  -21.0123   18.1792 N   0  0  0  0  0  0  0  0  0  0  0  0
    7.1677  -20.9244   18.4333 C   0  0  0  0  0  0  0  0  0  0  0  0
    7.8326  -21.9721   18.5777 O   0  0  0  0  0  0  0  0  0  0  0  0
    7.8094  -19.6196   18.5266 C   0  0  0  0  0  0  0  0  0  0  0  0
    6.8521  -18.4611   18.4075 C   0  0  0  0  0  0  0  0  0  0  0  0
    7.6170  -17.3431   17.7192 C   0  0  2  0  0  0  0  0  0  0  0  0
    8.4153  -17.8174   16.6178 N   0  0  0  0  0  0  0  0  0  0  0  0
    8.4007  -16.5301   18.6695 C   0  0  0  0  0  0  0  0  0  0  0  0
    9.6332  -16.6515   18.7907 O   0  0  0  0  0  0  0  0  0  0  0  0
    7.1384  -12.7182   19.4767 C   0  0  0  0  0  0  0  0  0  0  0  0
    7.5146  -13.5530   20.6758 C   0  0  2  0  0  0  0  0  0  0  0  0
    7.9354  -12.7161   21.8461 C   0  0  0  0  0  0  0  0  0  0  0  0
    8.4684  -14.6747   20.3795 C   0  0  2  0  0  0  0  0  0  0  0  0
    7.7358  -15.5774   19.4743 N   0  0  0  0  0  0  0  0  0  0  0  0
    8.8948  -15.4614   21.5350 C   0  0  0  0  0  0  0  0  0  0  0  0
    7.9764  -16.0416   22.2177 O   0  0  0  0  0  0  0  0  0  0  0  0
   10.2549  -20.4776   21.2706 N   0  0  0  0  0  0  0  0  0  0  0  0
   11.4673  -19.7394   21.4599 C   0  0  0  0  0  0  0  0  0  0  0  0
   12.5504  -20.4012   21.3853 O   0  0  0  0  0  0  0  0  0  0  0  0
   11.4452  -18.2897   21.7187 C   0  0  0  0  0  0  0  0  0  0  0  0
   10.4994  -17.8539   22.7704 C   0  0  0  0  0  0  0  0  0  0  0  0
   10.4850  -16.4293   23.1853 C   0  0  2  0  0  0  0  0  0  0  0  0
   10.2141  -15.6370   21.9607 N   0  0  0  0  0  0  0  0  0  0  0  0
   11.7271  -15.9608   23.7762 C   0  0  0  0  0  0  0  0  0  0  0  0
   12.1924  -16.4252   24.8670 O   0  0  0  0  0  0  0  0  0  0  0  0
   12.5159  -14.9628   23.1998 O   0  0  0  0  0  0  0  0  0  0  0  0
  2  1  1  0
  2  3  2  0
  4  5  1  0
  4  2  1  0
  6  7  1  6
  6  5  1  0
  8  6  1  0
  9  8  2  0
 11 10  1  6
 11 12  1  0
 11 13  1  0
 13 14  1  6
 14  8  1  0
 15 16  2  0
 15 13  1  0
 18 17  1  0
 19 18  2  0
 20 18  1  0
 22 21  1  6
 21 20  1  0
 22 23  1  0
 23 15  1  0
 24 22  1  0
 25 24  2  0
 26 24  1  0
M  END
$$$$
