QVQ.pdb
     RDKit          3D

 26 25  0  0  1  0  0  0  0  0999 V2000
    9.4044  -21.7227   18.2611 N   0  0  0  0  0  0  0  0  0  0  0  0
    8.4469  -21.3364   17.3108 C   0  0  0  0  0  0  0  0  0  0  0  0
    7.8312  -22.2138   16.6691 O   0  0  0  0  0  0  0  0  0  0  0  0
    8.1786  -19.9230   17.0800 C   0  0  0  0  0  0  0  0  0  0  0  0
    9.0052  -18.9991   17.9377 C   0  0  0  0  0  0  0  0  0  0  0  0
    8.5086  -17.5918   17.6525 C   0  0  2  0  0  0  0  0  0  0  0  0
    8.6803  -17.2151   16.2726 N   0  0  0  0  0  0  0  0  0  0  0  0
    9.0789  -16.5954   18.5800 C   0  0  0  0  0  0  0  0  0  0  0  0
   10.2861  -16.2935   18.5725 O   0  0  0  0  0  0  0  0  0  0  0  0
    7.0877  -13.2650   19.5531 C   0  0  0  0  0  0  0  0  0  0  0  0
    7.5706  -14.0509   20.7469 C   0  0  2  0  0  0  0  0  0  0  0  0
    7.7706  -13.1886   21.9566 C   0  0  0  0  0  0  0  0  0  0  0  0
    8.7372  -14.9546   20.4674 C   0  0  2  0  0  0  0  0  0  0  0  0
    8.2311  -15.9568   19.5133 N   0  0  0  0  0  0  0  0  0  0  0  0
    9.2671  -15.6756   21.6230 C   0  0  0  0  0  0  0  0  0  0  0  0
    8.5596  -16.6417   22.0835 O   0  0  0  0  0  0  0  0  0  0  0  0
   15.1528  -15.6829   23.8611 N   0  0  0  0  0  0  0  0  0  0  0  0
   14.6661  -16.3139   22.6712 C   0  0  0  0  0  0  0  0  0  0  0  0
   15.5419  -16.6726   21.8222 O   0  0  0  0  0  0  0  0  0  0  0  0
   13.2255  -16.5356   22.4599 C   0  0  0  0  0  0  0  0  0  0  0  0
   12.3515  -16.0813   23.5645 C   0  0  0  0  0  0  0  0  0  0  0  0
   10.8812  -16.2320   23.4324 C   0  0  2  0  0  0  0  0  0  0  0  0
   10.4762  -15.4052   22.2692 N   0  0  0  0  0  0  0  0  0  0  0  0
   10.1240  -15.8004   24.5952 C   0  0  0  0  0  0  0  0  0  0  0  0
    9.4955  -14.6936   24.6394 O   0  0  0  0  0  0  0  0  0  0  0  0
   10.0207  -16.5610   25.7619 O   0  0  0  0  0  0  0  0  0  0  0  0
  2  1  1  0
  2  3  2  0
  4  5  1  0
  4  2  1  0
  6  7  1  6
  6  5  1  0
  8  6  1  0
  9  8  2  0
 11 10  1  6
 11 12  1  0
 11 13  1  0
 13 14  1  6
 14  8  1  0
 15 16  2  0
 15 13  1  0
 18 17  1  0
 19 18  2  0
 20 18  1  0
 22 21  1  1
 21 20  1  0
 22 23  1  0
 23 15  1  0
 24 22  1  0
 25 24  2  0
 26 24  1  0
M  END
$$$$
