ALK.pdb
     RDKit          3D

 23 22  0  0  1  0  0  0  0  0999 V2000
    5.6166  -16.8860   21.7753 C   0  0  0  0  0  0  0  0  0  0  0  0
    6.0888  -15.4560   21.6434 C   0  0  2  0  0  0  0  0  0  0  0  0
    6.4484  -15.1100   20.3046 N   0  0  0  0  0  0  0  0  0  0  0  0
    7.1578  -15.1292   22.6075 C   0  0  0  0  0  0  0  0  0  0  0  0
    8.3568  -15.2668   22.2248 O   0  0  0  0  0  0  0  0  0  0  0  0
    7.7827  -11.3889   25.1309 C   0  0  0  0  0  0  0  0  0  0  0  0
    6.7108  -12.3876   25.6405 C   0  0  2  0  0  0  0  0  0  0  0  0
    6.1110  -11.6478   26.8436 C   0  0  0  0  0  0  0  0  0  0  0  0
    7.4697  -13.6104   26.0181 C   0  0  0  0  0  0  0  0  0  0  0  0
    8.0006  -14.4484   24.9032 C   0  0  2  0  0  0  0  0  0  0  0  0
    6.9453  -14.6782   23.9144 N   0  0  0  0  0  0  0  0  0  0  0  0
    8.6014  -15.6847   25.3760 C   0  0  0  0  0  0  0  0  0  0  0  0
    7.8583  -16.6387   25.7219 O   0  0  0  0  0  0  0  0  0  0  0  0
   10.0008  -15.9200   25.4887 N   0  0  0  0  0  0  0  0  0  0  0  0
   10.6053  -17.2387   25.5391 C   0  0  1  0  0  0  0  0  0  0  0  0
   11.6483  -17.4715   24.5095 C   0  0  0  0  0  0  0  0  0  0  0  0
   12.3604  -18.7740   24.5413 C   0  0  0  0  0  0  0  0  0  0  0  0
   13.3581  -18.9862   23.4537 C   0  0  0  0  0  0  0  0  0  0  0  0
   14.0031  -20.3590   23.6618 C   0  0  0  0  0  0  0  0  0  0  0  0
   14.8083  -20.6324   22.5094 N   0  0  0  0  0  0  0  0  0  0  0  0
   11.0293  -17.4742   26.9417 C   0  0  0  0  0  0  0  0  0  0  0  0
   10.8582  -16.5000   27.9475 O   0  0  0  0  0  0  0  0  0  0  0  0
   11.5622  -18.5497   27.3185 O   0  0  0  0  0  0  0  0  0  0  0  0
  2  1  1  6
  2  3  1  0
  4  2  1  0
  4  5  2  0
  7  6  1  1
  7  9  1  0
  8  7  1  0
 10  9  1  1
 10 12  1  0
 10 11  1  0
 11  4  1  0
 12 14  1  0
 13 12  2  0
 14 15  1  0
 15 21  1  0
 15 16  1  6
 17 16  1  0
 18 17  1  0
 19 18  1  0
 20 19  1  0
 21 23  2  0
 21 22  1  0
M  END
$$$$
