ALK.pdb
     RDKit          3D

 23 22  0  0  1  0  0  0  0  0999 V2000
    6.4356  -15.9236   20.6783 C   0  0  0  0  0  0  0  0  0  0  0  0
    6.9108  -14.5236   20.9937 C   0  0  2  0  0  0  0  0  0  0  0  0
    7.5694  -13.8979   19.8910 N   0  0  0  0  0  0  0  0  0  0  0  0
    7.7217  -14.4730   22.2261 C   0  0  0  0  0  0  0  0  0  0  0  0
    8.9737  -14.6228   22.1126 O   0  0  0  0  0  0  0  0  0  0  0  0
    7.9457  -11.3662   25.7617 C   0  0  0  0  0  0  0  0  0  0  0  0
    6.6919  -12.2744   25.6655 C   0  0  2  0  0  0  0  0  0  0  0  0
    5.8325  -11.7814   26.8372 C   0  0  0  0  0  0  0  0  0  0  0  0
    7.2027  -13.6597   25.8502 C   0  0  0  0  0  0  0  0  0  0  0  0
    8.0119  -14.2364   24.7369 C   0  0  2  0  0  0  0  0  0  0  0  0
    7.2099  -14.2716   23.5123 N   0  0  0  0  0  0  0  0  0  0  0  0
    8.5735  -15.5342   25.0738 C   0  0  0  0  0  0  0  0  0  0  0  0
    7.8092  -16.5266   25.1860 O   0  0  0  0  0  0  0  0  0  0  0  0
    9.9556  -15.7910   25.2977 N   0  0  0  0  0  0  0  0  0  0  0  0
   10.5185  -17.1142   25.4955 C   0  0  1  0  0  0  0  0  0  0  0  0
   11.8776  -17.2903   24.9266 C   0  0  0  0  0  0  0  0  0  0  0  0
   12.5723  -18.5733   25.2025 C   0  0  0  0  0  0  0  0  0  0  0  0
   13.5567  -19.0047   24.1691 C   0  0  0  0  0  0  0  0  0  0  0  0
   14.2136  -20.3011   24.6505 C   0  0  0  0  0  0  0  0  0  0  0  0
   15.2471  -20.6301   23.7150 N   0  0  0  0  0  0  0  0  0  0  0  0
   10.3834  -17.4380   26.9375 C   0  0  0  0  0  0  0  0  0  0  0  0
   10.4910  -18.7594   27.4198 O   0  0  0  0  0  0  0  0  0  0  0  0
   10.1676  -16.5608   27.8132 O   0  0  0  0  0  0  0  0  0  0  0  0
  2  1  1  6
  2  3  1  0
  4  2  1  0
  4  5  2  0
  7  6  1  1
  7  9  1  0
  8  7  1  0
 10  9  1  1
 10 12  1  0
 10 11  1  0
 11  4  1  0
 12 14  1  0
 13 12  2  0
 14 15  1  0
 15 21  1  0
 15 16  1  1
 17 16  1  0
 18 17  1  0
 19 18  1  0
 20 19  1  0
 21 23  2  0
 21 22  1  0
M  END
$$$$
