ALK.pdb
     RDKit          3D

 23 22  0  0  1  0  0  0  0  0999 V2000
    8.2538  -19.6556   17.7957 C   0  0  0  0  0  0  0  0  0  0  0  0
    8.5298  -18.2530   17.3043 C   0  0  2  0  0  0  0  0  0  0  0  0
    9.2320  -18.2273   16.0602 N   0  0  0  0  0  0  0  0  0  0  0  0
    9.1880  -17.4206   18.3305 C   0  0  0  0  0  0  0  0  0  0  0  0
   10.4529  -17.3677   18.3221 O   0  0  0  0  0  0  0  0  0  0  0  0
    8.6446  -12.9911   19.4542 C   0  0  0  0  0  0  0  0  0  0  0  0
    7.5372  -13.9776   19.9087 C   0  0  2  0  0  0  0  0  0  0  0  0
    6.5000  -13.0438   20.5465 C   0  0  0  0  0  0  0  0  0  0  0  0
    8.2009  -14.8794   20.8886 C   0  0  0  0  0  0  0  0  0  0  0  0
    9.1706  -15.8742   20.3436 C   0  0  2  0  0  0  0  0  0  0  0  0
    8.5179  -16.6845   19.3133 N   0  0  0  0  0  0  0  0  0  0  0  0
    9.7809  -16.6827   21.3862 C   0  0  0  0  0  0  0  0  0  0  0  0
    9.1172  -17.6111   21.9146 O   0  0  0  0  0  0  0  0  0  0  0  0
   11.1046  -16.5113   21.8808 N   0  0  0  0  0  0  0  0  0  0  0  0
   11.7568  -17.4249   22.8011 C   0  0  1  0  0  0  0  0  0  0  0  0
   13.1940  -17.6573   22.5141 C   0  0  0  0  0  0  0  0  0  0  0  0
   13.9031  -18.6612   23.3474 C   0  0  0  0  0  0  0  0  0  0  0  0
   15.3614  -18.8072   23.0733 C   0  0  0  0  0  0  0  0  0  0  0  0
   15.9172  -19.8776   24.0163 C   0  0  0  0  0  0  0  0  0  0  0  0
   17.3026  -20.0513   23.6972 N   0  0  0  0  0  0  0  0  0  0  0  0
   11.4478  -16.9586   24.1757 C   0  0  0  0  0  0  0  0  0  0  0  0
   11.6406  -17.7820   25.3049 O   0  0  0  0  0  0  0  0  0  0  0  0
   10.9996  -15.8083   24.4180 O   0  0  0  0  0  0  0  0  0  0  0  0
  2  1  1  1
  2  3  1  0
  4  2  1  0
  4  5  2  0
  7  6  1  1
  7  9  1  0
  8  7  1  0
 10  9  1  1
 10 12  1  0
 10 11  1  0
 11  4  1  0
 12 14  1  0
 13 12  2  0
 14 15  1  0
 15 21  1  0
 15 16  1  6
 17 16  1  0
 18 17  1  0
 19 18  1  0
 20 19  1  0
 21 23  2  0
 21 22  1  0
M  END
$$$$
