ALK.pdb
     RDKit          3D

 23 22  0  0  1  0  0  0  0  0999 V2000
    7.9953  -17.6419   21.4431 C   0  0  0  0  0  0  0  0  0  0  0  0
    8.4507  -16.2071   21.3045 C   0  0  2  0  0  0  0  0  0  0  0  0
    9.5143  -16.0493   20.3637 N   0  0  0  0  0  0  0  0  0  0  0  0
    8.7675  -15.5928   22.6089 C   0  0  0  0  0  0  0  0  0  0  0  0
    9.9380  -15.7514   23.0646 O   0  0  0  0  0  0  0  0  0  0  0  0
    5.7472  -12.1753   26.7665 C   0  0  0  0  0  0  0  0  0  0  0  0
    7.1103  -12.8772   26.5315 C   0  0  2  0  0  0  0  0  0  0  0  0
    8.1052  -11.7125   26.6223 C   0  0  0  0  0  0  0  0  0  0  0  0
    7.0127  -13.4650   25.1680 C   0  0  0  0  0  0  0  0  0  0  0  0
    8.1583  -14.3043   24.7096 C   0  0  2  0  0  0  0  0  0  0  0  0
    7.8700  -14.8473   23.3806 N   0  0  0  0  0  0  0  0  0  0  0  0
    8.5089  -15.3371   25.6706 C   0  0  0  0  0  0  0  0  0  0  0  0
    7.7455  -16.3254   25.8198 O   0  0  0  0  0  0  0  0  0  0  0  0
    9.6754  -15.3294   26.4863 N   0  0  0  0  0  0  0  0  0  0  0  0
   10.1103  -16.4504   27.2994 C   0  0  1  0  0  0  0  0  0  0  0  0
   11.1145  -17.3254   26.6451 C   0  0  0  0  0  0  0  0  0  0  0  0
   11.6469  -18.4637   27.4360 C   0  0  0  0  0  0  0  0  0  0  0  0
   12.6626  -19.3068   26.7427 C   0  0  0  0  0  0  0  0  0  0  0  0
   13.0886  -20.4220   27.7012 C   0  0  0  0  0  0  0  0  0  0  0  0
   13.9760  -21.2873   26.9835 N   0  0  0  0  0  0  0  0  0  0  0  0
   10.5036  -15.9066   28.6230 C   0  0  0  0  0  0  0  0  0  0  0  0
   10.4905  -14.5226   28.8959 O   0  0  0  0  0  0  0  0  0  0  0  0
   10.8687  -16.6404   29.5774 O   0  0  0  0  0  0  0  0  0  0  0  0
  2  1  1  1
  2  3  1  0
  4  2  1  0
  4  5  2  0
  7  6  1  6
  7  9  1  0
  8  7  1  0
 10  9  1  1
 10 12  1  0
 10 11  1  0
 11  4  1  0
 12 14  1  0
 13 12  2  0
 14 15  1  0
 15 21  1  0
 15 16  1  6
 17 16  1  0
 18 17  1  0
 19 18  1  0
 20 19  1  0
 21 23  2  0
 21 22  1  0
M  END
$$$$
