ALK.pdb
     RDKit          3D

 23 22  0  0  1  0  0  0  0  0999 V2000
   11.5528  -17.2853   19.2289 C   0  0  0  0  0  0  0  0  0  0  0  0
   10.5809  -17.7266   20.2993 C   0  0  2  0  0  0  0  0  0  0  0  0
    9.4233  -18.3735   19.7674 N   0  0  0  0  0  0  0  0  0  0  0  0
   10.2290  -16.6291   21.2216 C   0  0  0  0  0  0  0  0  0  0  0  0
   11.1348  -16.1963   21.9931 O   0  0  0  0  0  0  0  0  0  0  0  0
    8.4904  -12.8302   19.9729 C   0  0  0  0  0  0  0  0  0  0  0  0
    7.4369  -13.9428   20.2142 C   0  0  2  0  0  0  0  0  0  0  0  0
    6.1402  -13.2867   19.7217 C   0  0  0  0  0  0  0  0  0  0  0  0
    7.4564  -14.1821   21.6827 C   0  0  0  0  0  0  0  0  0  0  0  0
    8.6156  -14.9474   22.2281 C   0  0  2  0  0  0  0  0  0  0  0  0
    8.9678  -16.0302   21.3074 N   0  0  0  0  0  0  0  0  0  0  0  0
    8.3803  -15.4205   23.5823 C   0  0  0  0  0  0  0  0  0  0  0  0
    7.9838  -14.6100   24.4585 O   0  0  0  0  0  0  0  0  0  0  0  0
    8.5663  -16.7618   24.0211 N   0  0  0  0  0  0  0  0  0  0  0  0
    8.2168  -17.2434   25.3451 C   0  0  1  0  0  0  0  0  0  0  0  0
    7.5938  -18.5902   25.3595 C   0  0  0  0  0  0  0  0  0  0  0  0
    7.2505  -19.1695   26.6829 C   0  0  0  0  0  0  0  0  0  0  0  0
    6.7415  -20.5707   26.6570 C   0  0  0  0  0  0  0  0  0  0  0  0
    6.4447  -20.9951   28.0977 C   0  0  0  0  0  0  0  0  0  0  0  0
    6.0530  -22.3724   28.0660 N   0  0  0  0  0  0  0  0  0  0  0  0
    9.4191  -17.0872   26.2009 C   0  0  0  0  0  0  0  0  0  0  0  0
   10.7127  -16.9523   25.6544 O   0  0  0  0  0  0  0  0  0  0  0  0
    9.3599  -17.0639   27.4573 O   0  0  0  0  0  0  0  0  0  0  0  0
  2  1  1  6
  2  3  1  0
  4  2  1  0
  4  5  2  0
  7  6  1  1
  7  9  1  0
  8  7  1  0
 10  9  1  6
 10 12  1  0
 10 11  1  0
 11  4  1  0
 12 14  1  0
 13 12  2  0
 14 15  1  0
 15 21  1  0
 15 16  1  6
 17 16  1  0
 18 17  1  0
 19 18  1  0
 20 19  1  0
 21 23  2  0
 21 22  1  0
M  END
$$$$
