ALK.pdb
     RDKit          3D

 23 22  0  0  1  0  0  0  0  0999 V2000
    8.2300  -19.7363   18.5140 C   0  0  0  0  0  0  0  0  0  0  0  0
    8.5125  -18.4142   17.8378 C   0  0  2  0  0  0  0  0  0  0  0  0
    9.1892  -18.5617   16.5881 N   0  0  0  0  0  0  0  0  0  0  0  0
    9.2014  -17.4642   18.7334 C   0  0  0  0  0  0  0  0  0  0  0  0
   10.4669  -17.4912   18.7576 O   0  0  0  0  0  0  0  0  0  0  0  0
    8.9722  -12.7588   19.4409 C   0  0  0  0  0  0  0  0  0  0  0  0
    7.7987  -13.6984   19.8229 C   0  0  2  0  0  0  0  0  0  0  0  0
    6.7187  -12.7116   20.2861 C   0  0  0  0  0  0  0  0  0  0  0  0
    8.3281  -14.5519   20.9208 C   0  0  0  0  0  0  0  0  0  0  0  0
    9.2343  -15.6715   20.5304 C   0  0  2  0  0  0  0  0  0  0  0  0
    8.5599  -16.5348   19.5589 N   0  0  0  0  0  0  0  0  0  0  0  0
    9.7332  -16.4080   21.6800 C   0  0  0  0  0  0  0  0  0  0  0  0
    8.9928  -17.2596   22.2355 O   0  0  0  0  0  0  0  0  0  0  0  0
   11.0256  -16.2455   22.2540 N   0  0  0  0  0  0  0  0  0  0  0  0
   11.5597  -17.0827   23.3127 C   0  0  1  0  0  0  0  0  0  0  0  0
   13.0182  -17.3374   23.2118 C   0  0  0  0  0  0  0  0  0  0  0  0
   13.4463  -18.6242   22.6069 C   0  0  0  0  0  0  0  0  0  0  0  0
   13.5755  -18.6229   21.1215 C   0  0  0  0  0  0  0  0  0  0  0  0
   14.1419  -19.9791   20.6927 C   0  0  0  0  0  0  0  0  0  0  0  0
   14.2248  -19.9753   19.2628 N   0  0  0  0  0  0  0  0  0  0  0  0
   11.0999  -16.5081   24.6014 C   0  0  0  0  0  0  0  0  0  0  0  0
   11.1555  -17.2384   25.8071 O   0  0  0  0  0  0  0  0  0  0  0  0
   10.6368  -15.3424   24.6984 O   0  0  0  0  0  0  0  0  0  0  0  0
  2  1  1  1
  2  3  1  0
  4  2  1  0
  4  5  2  0
  7  6  1  1
  7  9  1  0
  8  7  1  0
 10  9  1  1
 10 12  1  0
 10 11  1  0
 11  4  1  0
 12 14  1  0
 13 12  2  0
 14 15  1  0
 15 21  1  0
 15 16  1  1
 17 16  1  0
 18 17  1  0
 19 18  1  0
 20 19  1  0
 21 23  2  0
 21 22  1  0
M  END
$$$$
