NIC.pdb
     RDKit          3D

 23 22  0  0  1  0  0  0  0  0999 V2000
   24.3345  -14.9207  -17.8867 N   0  0  0  0  0  0  0  0  0  0  0  0
   25.0321  -15.3817  -16.7608 C   0  0  0  0  0  0  0  0  0  0  0  0
   25.8597  -14.6316  -16.1669 O   0  0  0  0  0  0  0  0  0  0  0  0
   24.8055  -16.7521  -16.2571 C   0  0  0  0  0  0  0  0  0  0  0  0
   26.0373  -17.6047  -16.6127 C   0  0  2  0  0  0  0  0  0  0  0  0
   25.8638  -18.0239  -18.0125 N   0  0  0  0  0  0  0  0  0  0  0  0
   25.9336  -18.8093  -15.7726 C   0  0  0  0  0  0  0  0  0  0  0  0
   25.0240  -19.6487  -15.9673 O   0  0  0  0  0  0  0  0  0  0  0  0
   30.2012  -20.4951  -12.4104 C   0  0  0  0  0  0  0  0  0  0  0  0
   28.8931  -19.7974  -12.7361 C   0  0  0  0  0  0  0  0  0  0  0  0
   28.0810  -20.7590  -13.5608 C   0  0  2  0  0  0  0  0  0  0  0  0
   28.7925  -21.1519  -14.8389 C   0  0  0  0  0  0  0  0  0  0  0  0
   26.7014  -20.2733  -13.8745 C   0  0  2  0  0  0  0  0  0  0  0  0
   26.8351  -19.0977  -14.7086 N   0  0  0  0  0  0  0  0  0  0  0  0
   25.8732  -19.9595  -12.7253 C   0  0  0  0  0  0  0  0  0  0  0  0
   25.7952  -18.8162  -12.2012 O   0  0  0  0  0  0  0  0  0  0  0  0
   25.0897  -20.9762  -12.1303 N   0  0  0  0  0  0  0  0  0  0  0  0
   24.3676  -20.7319  -10.8762 C   0  0  1  0  0  0  0  0  0  0  0  0
   22.9148  -21.1568  -10.9774 C   0  0  0  0  0  0  0  0  0  0  0  0
   22.1158  -20.9961   -9.3555 S   0  0  0  0  0  0  0  0  0  0  0  0
   25.0609  -21.3011   -9.7146 C   0  0  0  0  0  0  0  0  0  0  0  0
   25.5811  -22.4353   -9.8058 O   0  0  0  0  0  0  0  0  0  0  0  0
   25.1674  -20.6353   -8.5086 O   0  0  0  0  0  0  0  0  0  0  0  0
  2  1  1  0
  3  2  2  0
  4  2  1  0
  4  5  1  0
  5  6  1  6
  7  5  1  0
  7  8  2  0
 10  9  1  0
 11 12  1  6
 11 10  1  0
 13 14  1  6
 13 11  1  0
 14  7  1  0
 15 13  1  0
 16 15  2  0
 17 15  1  0
 18 17  1  0
 18 19  1  6
 20 19  1  0
 21 18  1  0
 21 23  1  0
 22 21  2  0
M  END
$$$$
