NIC.pdb
     RDKit          3D

 23 22  0  0  1  0  0  0  0  0999 V2000
   20.6258  -20.7941   -9.7971 N   0  0  0  0  0  0  0  0  0  0  0  0
   21.4295  -21.1874  -10.8771 C   0  0  0  0  0  0  0  0  0  0  0  0
   21.1707  -22.2473  -11.5173 O   0  0  0  0  0  0  0  0  0  0  0  0
   22.5894  -20.3642  -11.2774 C   0  0  0  0  0  0  0  0  0  0  0  0
   23.8700  -21.1771  -11.0127 C   0  0  2  0  0  0  0  0  0  0  0  0
   24.0399  -21.2227   -9.5518 N   0  0  0  0  0  0  0  0  0  0  0  0
   24.9681  -20.3648  -11.5620 C   0  0  0  0  0  0  0  0  0  0  0  0
   25.3557  -19.3298  -10.9715 O   0  0  0  0  0  0  0  0  0  0  0  0
   29.3377  -20.5251  -11.7861 C   0  0  0  0  0  0  0  0  0  0  0  0
   28.4529  -21.5256  -12.5074 C   0  0  0  0  0  0  0  0  0  0  0  0
   27.8394  -20.8010  -13.6748 C   0  0  2  0  0  0  0  0  0  0  0  0
   28.8763  -20.0534  -14.4874 C   0  0  0  0  0  0  0  0  0  0  0  0
   26.7254  -19.8770  -13.2970 C   0  0  2  0  0  0  0  0  0  0  0  0
   25.6488  -20.6890  -12.7701 N   0  0  0  0  0  0  0  0  0  0  0  0
   26.2193  -19.0380  -14.3671 C   0  0  0  0  0  0  0  0  0  0  0  0
   25.4842  -19.4523  -15.3028 O   0  0  0  0  0  0  0  0  0  0  0  0
   26.5513  -17.6629  -14.3931 N   0  0  0  0  0  0  0  0  0  0  0  0
   25.9970  -16.7752  -15.4219 C   0  0  1  0  0  0  0  0  0  0  0  0
   25.9611  -15.3328  -14.9533 C   0  0  0  0  0  0  0  0  0  0  0  0
   25.3369  -14.2714  -16.2870 S   0  0  0  0  0  0  0  0  0  0  0  0
   26.6569  -16.9487  -16.7212 C   0  0  0  0  0  0  0  0  0  0  0  0
   27.9060  -17.0004  -16.7729 O   0  0  0  0  0  0  0  0  0  0  0  0
   25.9550  -17.0585  -17.9063 O   0  0  0  0  0  0  0  0  0  0  0  0
  2  1  1  0
  3  2  2  0
  4  2  1  0
  4  5  1  0
  5  6  1  1
  7  5  1  0
  7  8  2  0
 10  9  1  0
 11 12  1  1
 11 10  1  0
 13 14  1  6
 13 11  1  0
 14  7  1  0
 15 13  1  0
 16 15  2  0
 17 15  1  0
 18 17  1  0
 18 19  1  1
 20 19  1  0
 21 18  1  0
 21 23  1  0
 22 21  2  0
M  END
$$$$
