NIC.pdb
     RDKit          3D

 23 22  0  0  1  0  0  0  0  0999 V2000
   24.3026  -13.6378  -18.6112 N   0  0  0  0  0  0  0  0  0  0  0  0
   23.3379  -13.8789  -17.6222 C   0  0  0  0  0  0  0  0  0  0  0  0
   23.5141  -14.7896  -16.7621 O   0  0  0  0  0  0  0  0  0  0  0  0
   22.1032  -13.0686  -17.5766 C   0  0  0  0  0  0  0  0  0  0  0  0
   20.9345  -13.9944  -17.1923 C   0  0  2  0  0  0  0  0  0  0  0  0
   20.6934  -14.8650  -18.3538 N   0  0  0  0  0  0  0  0  0  0  0  0
   19.7664  -13.1096  -17.0507 C   0  0  0  0  0  0  0  0  0  0  0  0
   19.3154  -12.4826  -18.0374 O   0  0  0  0  0  0  0  0  0  0  0  0
   16.5795  -15.2140  -14.9186 C   0  0  0  0  0  0  0  0  0  0  0  0
   16.2588  -13.9421  -15.6825 C   0  0  0  0  0  0  0  0  0  0  0  0
   16.8897  -12.8074  -14.9218 C   0  0  2  0  0  0  0  0  0  0  0  0
   15.8550  -11.8462  -14.3745 C   0  0  0  0  0  0  0  0  0  0  0  0
   17.9218  -12.0554  -15.7009 C   0  0  2  0  0  0  0  0  0  0  0  0
   19.0850  -12.9094  -15.8164 N   0  0  0  0  0  0  0  0  0  0  0  0
   18.3152  -10.7749  -15.1434 C   0  0  0  0  0  0  0  0  0  0  0  0
   18.8685  -10.6329  -14.0203 O   0  0  0  0  0  0  0  0  0  0  0  0
   18.0790   -9.5902  -15.8798 N   0  0  0  0  0  0  0  0  0  0  0  0
   18.4787   -8.2821  -15.3477 C   0  0  1  0  0  0  0  0  0  0  0  0
   18.8855   -7.3298  -16.4563 C   0  0  0  0  0  0  0  0  0  0  0  0
   20.1426   -8.1133  -17.5055 S   0  0  0  0  0  0  0  0  0  0  0  0
   17.4734   -7.7205  -14.4378 C   0  0  0  0  0  0  0  0  0  0  0  0
   16.2664   -8.0026  -14.6077 O   0  0  0  0  0  0  0  0  0  0  0  0
   17.8010   -6.8832  -13.3886 O   0  0  0  0  0  0  0  0  0  0  0  0
  2  1  1  0
  3  2  2  0
  4  2  1  0
  4  5  1  0
  5  6  1  6
  7  5  1  0
  7  8  2  0
 10  9  1  0
 11 12  1  6
 11 10  1  0
 13 14  1  1
 13 11  1  0
 14  7  1  0
 15 13  1  0
 16 15  2  0
 17 15  1  0
 18 17  1  0
 18 19  1  6
 20 19  1  0
 21 18  1  0
 21 23  1  0
 22 21  2  0
M  END
$$$$
