NIC.pdb
     RDKit          3D

 23 22  0  0  1  0  0  0  0  0999 V2000
   20.0555  -23.4931   -6.5917 N   0  0  0  0  0  0  0  0  0  0  0  0
   20.0444  -23.5315   -7.9935 C   0  0  0  0  0  0  0  0  0  0  0  0
   19.3057  -24.3549   -8.6073 O   0  0  0  0  0  0  0  0  0  0  0  0
   20.8985  -22.6075   -8.7681 C   0  0  0  0  0  0  0  0  0  0  0  0
   21.6993  -21.7461   -7.7744 C   0  0  2  0  0  0  0  0  0  0  0  0
   20.7601  -20.7492   -7.2363 N   0  0  0  0  0  0  0  0  0  0  0  0
   22.6898  -21.0266   -8.5920 C   0  0  0  0  0  0  0  0  0  0  0  0
   22.3431  -20.0678   -9.3204 O   0  0  0  0  0  0  0  0  0  0  0  0
   27.5178  -19.6629   -6.6482 C   0  0  0  0  0  0  0  0  0  0  0  0
   26.1593  -19.6709   -7.3254 C   0  0  0  0  0  0  0  0  0  0  0  0
   26.2934  -20.5225   -8.5588 C   0  0  2  0  0  0  0  0  0  0  0  0
   27.4520  -20.0821   -9.4294 C   0  0  0  0  0  0  0  0  0  0  0  0
   25.0440  -20.6050   -9.3770 C   0  0  2  0  0  0  0  0  0  0  0  0
   24.0741  -21.3602   -8.6122 N   0  0  0  0  0  0  0  0  0  0  0  0
   25.1956  -21.2025  -10.6905 C   0  0  0  0  0  0  0  0  0  0  0  0
   25.5270  -22.4021  -10.8873 O   0  0  0  0  0  0  0  0  0  0  0  0
   24.9638  -20.4189  -11.8454 N   0  0  0  0  0  0  0  0  0  0  0  0
   25.1629  -20.9800  -13.1869 C   0  0  1  0  0  0  0  0  0  0  0  0
   24.2870  -20.2901  -14.2155 C   0  0  0  0  0  0  0  0  0  0  0  0
   24.6593  -20.9379  -15.8697 S   0  0  0  0  0  0  0  0  0  0  0  0
   26.5799  -21.0263  -13.5663 C   0  0  0  0  0  0  0  0  0  0  0  0
   27.3258  -20.0663  -13.2706 O   0  0  0  0  0  0  0  0  0  0  0  0
   27.1367  -22.0937  -14.2443 O   0  0  0  0  0  0  0  0  0  0  0  0
  2  1  1  0
  3  2  2  0
  4  2  1  0
  4  5  1  0
  5  6  1  6
  7  5  1  0
  7  8  2  0
 10  9  1  0
 11 12  1  6
 11 10  1  0
 13 14  1  1
 13 11  1  0
 14  7  1  0
 15 13  1  0
 16 15  2  0
 17 15  1  0
 18 17  1  0
 18 19  1  6
 20 19  1  0
 21 18  1  0
 21 23  1  0
 22 21  2  0
M  END
$$$$
