NIC.pdb
     RDKit          3D

 23 22  0  0  1  0  0  0  0  0999 V2000
   17.7291  -12.2322  -19.6547 N   0  0  0  0  0  0  0  0  0  0  0  0
   17.4736  -10.9012  -19.2943 C   0  0  0  0  0  0  0  0  0  0  0  0
   16.6991  -10.1846  -19.9920 O   0  0  0  0  0  0  0  0  0  0  0  0
   18.1093  -10.3227  -18.0924 C   0  0  0  0  0  0  0  0  0  0  0  0
   19.0576  -11.3782  -17.4949 C   0  0  2  0  0  0  0  0  0  0  0  0
   18.2045  -12.3761  -16.8302 N   0  0  0  0  0  0  0  0  0  0  0  0
   19.8152  -10.6737  -16.4475 C   0  0  0  0  0  0  0  0  0  0  0  0
   19.2769  -10.3843  -15.3536 O   0  0  0  0  0  0  0  0  0  0  0  0
   24.7979  -12.0046  -15.2175 C   0  0  0  0  0  0  0  0  0  0  0  0
   23.3379  -11.5929  -15.1628 C   0  0  0  0  0  0  0  0  0  0  0  0
   23.2843  -10.1324  -15.5212 C   0  0  2  0  0  0  0  0  0  0  0  0
   24.1526   -9.2917  -14.6083 C   0  0  0  0  0  0  0  0  0  0  0  0
   21.8990   -9.5700  -15.5667 C   0  0  2  0  0  0  0  0  0  0  0  0
   21.1759  -10.2820  -16.5992 N   0  0  0  0  0  0  0  0  0  0  0  0
   21.8118   -8.1426  -15.8118 C   0  0  0  0  0  0  0  0  0  0  0  0
   22.1699   -7.5863  -16.8841 O   0  0  0  0  0  0  0  0  0  0  0  0
   21.2966   -7.2913  -14.8060 N   0  0  0  0  0  0  0  0  0  0  0  0
   21.2489   -5.8378  -15.0033 C   0  0  1  0  0  0  0  0  0  0  0  0
   19.8529   -5.2896  -14.7750 C   0  0  0  0  0  0  0  0  0  0  0  0
   19.9043   -3.4754  -14.7502 S   0  0  0  0  0  0  0  0  0  0  0  0
   22.2826   -5.1372  -14.2323 C   0  0  0  0  0  0  0  0  0  0  0  0
   22.9697   -4.2526  -14.7898 O   0  0  0  0  0  0  0  0  0  0  0  0
   22.5368   -5.4120  -12.9023 O   0  0  0  0  0  0  0  0  0  0  0  0
  2  1  1  0
  3  2  2  0
  4  2  1  0
  4  5  1  0
  5  6  1  1
  7  5  1  0
  7  8  2  0
 10  9  1  0
 11 12  1  1
 11 10  1  0
 13 14  1  6
 13 11  1  0
 14  7  1  0
 15 13  1  0
 16 15  2  0
 17 15  1  0
 18 17  1  0
 18 19  1  1
 20 19  1  0
 21 18  1  0
 21 23  1  0
 22 21  2  0
M  END
$$$$
