NIC.pdb
     RDKit          3D

 23 22  0  0  1  0  0  0  0  0999 V2000
   14.9911  -13.6656  -10.5817 N   0  0  0  0  0  0  0  0  0  0  0  0
   15.8682  -13.3557  -11.6312 C   0  0  0  0  0  0  0  0  0  0  0  0
   16.5275  -14.2687  -12.2075 O   0  0  0  0  0  0  0  0  0  0  0  0
   16.0303  -11.9555  -12.0742 C   0  0  0  0  0  0  0  0  0  0  0  0
   15.1769  -11.0596  -11.1576 C   0  0  2  0  0  0  0  0  0  0  0  0
   13.8048  -11.1090  -11.6870 N   0  0  0  0  0  0  0  0  0  0  0  0
   15.6840   -9.6933  -11.3659 C   0  0  0  0  0  0  0  0  0  0  0  0
   15.4543   -9.0816  -12.4351 O   0  0  0  0  0  0  0  0  0  0  0  0
   14.4380   -7.5837   -8.4020 C   0  0  0  0  0  0  0  0  0  0  0  0
   15.0974   -6.4974   -9.2320 C   0  0  0  0  0  0  0  0  0  0  0  0
   16.5528   -6.8619   -9.3481 C   0  0  2  0  0  0  0  0  0  0  0  0
   17.4530   -5.6499   -9.2266 C   0  0  0  0  0  0  0  0  0  0  0  0
   16.8894   -7.6241  -10.5904 C   0  0  2  0  0  0  0  0  0  0  0  0
   16.4503   -8.9895  -10.3936 N   0  0  0  0  0  0  0  0  0  0  0  0
   18.2904   -7.6162  -10.9679 C   0  0  0  0  0  0  0  0  0  0  0  0
   19.1967   -8.2194  -10.3338 O   0  0  0  0  0  0  0  0  0  0  0  0
   18.7006   -6.8970  -12.1152 N   0  0  0  0  0  0  0  0  0  0  0  0
   20.1026   -6.9098  -12.5489 C   0  0  1  0  0  0  0  0  0  0  0  0
   20.2971   -7.7722  -13.7816 C   0  0  0  0  0  0  0  0  0  0  0  0
   22.0104   -7.6300  -14.3640 S   0  0  0  0  0  0  0  0  0  0  0  0
   20.6534   -5.5570  -12.6922 C   0  0  0  0  0  0  0  0  0  0  0  0
   19.9041   -4.6256  -13.0615 O   0  0  0  0  0  0  0  0  0  0  0  0
   21.9781   -5.2593  -12.4358 O   0  0  0  0  0  0  0  0  0  0  0  0
  2  1  1  0
  3  2  2  0
  4  2  1  0
  4  5  1  0
  5  6  1  6
  7  5  1  0
  7  8  2  0
 10  9  1  0
 11 12  1  6
 11 10  1  0
 13 14  1  1
 13 11  1  0
 14  7  1  0
 15 13  1  0
 16 15  2  0
 17 15  1  0
 18 17  1  0
 18 19  1  6
 20 19  1  0
 21 18  1  0
 21 23  1  0
 22 21  2  0
M  END
$$$$
