NIC.pdb
     RDKit          3D

 23 22  0  0  1  0  0  0  0  0999 V2000
   28.8669  -20.0145  -17.8496 N   0  0  0  0  0  0  0  0  0  0  0  0
   27.5084  -19.8955  -18.1769 C   0  0  0  0  0  0  0  0  0  0  0  0
   27.1445  -19.1845  -19.1578 O   0  0  0  0  0  0  0  0  0  0  0  0
   26.4874  -20.6020  -17.3760 C   0  0  0  0  0  0  0  0  0  0  0  0
   27.2077  -21.3935  -16.2690 C   0  0  2  0  0  0  0  0  0  0  0  0
   27.4259  -22.7483  -16.8003 N   0  0  0  0  0  0  0  0  0  0  0  0
   26.2348  -21.4995  -15.1692 C   0  0  0  0  0  0  0  0  0  0  0  0
   25.2054  -22.2034  -15.2912 O   0  0  0  0  0  0  0  0  0  0  0  0
   25.0431  -21.6727   -9.8505 C   0  0  0  0  0  0  0  0  0  0  0  0
   25.0702  -20.2821  -10.4586 C   0  0  0  0  0  0  0  0  0  0  0  0
   26.0097  -20.3394  -11.6327 C   0  0  2  0  0  0  0  0  0  0  0  0
   26.6436  -18.9937  -11.9185 C   0  0  0  0  0  0  0  0  0  0  0  0
   25.3889  -20.8851  -12.8794 C   0  0  2  0  0  0  0  0  0  0  0  0
   26.3906  -20.8281  -13.9231 N   0  0  0  0  0  0  0  0  0  0  0  0
   24.1857  -20.2085  -13.3263 C   0  0  0  0  0  0  0  0  0  0  0  0
   24.1662  -19.0425  -13.8033 O   0  0  0  0  0  0  0  0  0  0  0  0
   22.9381  -20.8697  -13.2363 N   0  0  0  0  0  0  0  0  0  0  0  0
   21.6931  -20.1765  -13.5873 C   0  0  1  0  0  0  0  0  0  0  0  0
   21.3915  -20.2884  -15.0698 C   0  0  0  0  0  0  0  0  0  0  0  0
   19.7400  -19.6168  -15.4108 S   0  0  0  0  0  0  0  0  0  0  0  0
   20.5706  -20.5814  -12.7329 C   0  0  0  0  0  0  0  0  0  0  0  0
   19.7516  -19.7183  -12.3461 O   0  0  0  0  0  0  0  0  0  0  0  0
   20.3730  -21.8881  -12.3293 O   0  0  0  0  0  0  0  0  0  0  0  0
  2  1  1  0
  3  2  2  0
  4  2  1  0
  4  5  1  0
  5  6  1  6
  7  5  1  0
  7  8  2  0
 10  9  1  0
 11 12  1  6
 11 10  1  0
 13 14  1  6
 13 11  1  0
 14  7  1  0
 15 13  1  0
 16 15  2  0
 17 15  1  0
 18 17  1  0
 18 19  1  6
 20 19  1  0
 21 18  1  0
 21 23  1  0
 22 21  2  0
M  END
$$$$
