NIC.pdb
     RDKit          3D

 23 22  0  0  1  0  0  0  0  0999 V2000
   15.9497  -11.0367  -17.6506 N   0  0  0  0  0  0  0  0  0  0  0  0
   15.8560   -9.7505  -17.0994 C   0  0  0  0  0  0  0  0  0  0  0  0
   14.9078   -8.9796  -17.4265 O   0  0  0  0  0  0  0  0  0  0  0  0
   16.8674   -9.2835  -16.1288 C   0  0  0  0  0  0  0  0  0  0  0  0
   17.9412  -10.3781  -15.9893 C   0  0  2  0  0  0  0  0  0  0  0  0
   17.3611  -11.4237  -15.1316 N   0  0  0  0  0  0  0  0  0  0  0  0
   19.0427   -9.7506  -15.2408 C   0  0  0  0  0  0  0  0  0  0  0  0
   18.9469   -9.5527  -14.0073 O   0  0  0  0  0  0  0  0  0  0  0  0
   23.8975  -11.4484  -15.1441 C   0  0  0  0  0  0  0  0  0  0  0  0
   22.5436  -10.8372  -14.8320 C   0  0  0  0  0  0  0  0  0  0  0  0
   22.5778   -9.4216  -15.3411 C   0  0  2  0  0  0  0  0  0  0  0  0
   23.7519   -8.6453  -14.7814 C   0  0  0  0  0  0  0  0  0  0  0  0
   21.3092   -8.6635  -15.1098 C   0  0  2  0  0  0  0  0  0  0  0  0
   20.2617   -9.3359  -15.8491 N   0  0  0  0  0  0  0  0  0  0  0  0
   21.3418   -7.2619  -15.4836 C   0  0  0  0  0  0  0  0  0  0  0  0
   21.6570   -6.8430  -16.6294 O   0  0  0  0  0  0  0  0  0  0  0  0
   21.0037   -6.2758  -14.5271 N   0  0  0  0  0  0  0  0  0  0  0  0
   21.0153   -4.8513  -14.8797 C   0  0  1  0  0  0  0  0  0  0  0  0
   19.8224   -4.1215  -14.2915 C   0  0  0  0  0  0  0  0  0  0  0  0
   18.2944   -5.0042  -14.7166 S   0  0  0  0  0  0  0  0  0  0  0  0
   22.2994   -4.2116  -14.5702 C   0  0  0  0  0  0  0  0  0  0  0  0
   22.5462   -3.0758  -15.0331 O   0  0  0  0  0  0  0  0  0  0  0  0
   23.2619   -4.8125  -13.7818 O   0  0  0  0  0  0  0  0  0  0  0  0
  2  1  1  0
  3  2  2  0
  4  2  1  0
  4  5  1  0
  5  6  1  1
  7  5  1  0
  7  8  2  0
 10  9  1  0
 11 12  1  1
 11 10  1  0
 13 14  1  6
 13 11  1  0
 14  7  1  0
 15 13  1  0
 16 15  2  0
 17 15  1  0
 18 17  1  0
 18 19  1  1
 20 19  1  0
 21 18  1  0
 21 23  1  0
 22 21  2  0
M  END
$$$$
