NIC.pdb
     RDKit          3D

 23 22  0  0  1  0  0  0  0  0999 V2000
   21.1654  -20.1948  -17.0377 N   0  0  0  0  0  0  0  0  0  0  0  0
   20.8702  -20.1102  -15.6693 C   0  0  0  0  0  0  0  0  0  0  0  0
   19.7824  -19.5966  -15.2779 O   0  0  0  0  0  0  0  0  0  0  0  0
   21.8306  -20.6218  -14.6698 C   0  0  0  0  0  0  0  0  0  0  0  0
   23.0708  -21.1438  -15.4181 C   0  0  2  0  0  0  0  0  0  0  0  0
   22.6881  -22.4365  -16.0078 N   0  0  0  0  0  0  0  0  0  0  0  0
   24.0727  -21.4119  -14.3732 C   0  0  0  0  0  0  0  0  0  0  0  0
   24.0011  -22.4454  -13.6683 O   0  0  0  0  0  0  0  0  0  0  0  0
   29.1733  -20.1875  -15.3501 C   0  0  0  0  0  0  0  0  0  0  0  0
   27.8722  -20.8676  -14.9645 C   0  0  0  0  0  0  0  0  0  0  0  0
   27.4777  -20.3206  -13.6193 C   0  0  2  0  0  0  0  0  0  0  0  0
   28.5614  -20.5291  -12.5818 C   0  0  0  0  0  0  0  0  0  0  0  0
   26.1750  -20.8492  -13.1085 C   0  0  2  0  0  0  0  0  0  0  0  0
   25.1640  -20.5397  -14.0974 N   0  0  0  0  0  0  0  0  0  0  0  0
   25.7583  -20.3406  -11.8151 C   0  0  0  0  0  0  0  0  0  0  0  0
   25.3638  -19.1611  -11.6131 O   0  0  0  0  0  0  0  0  0  0  0  0
   25.7828  -21.1949  -10.6876 N   0  0  0  0  0  0  0  0  0  0  0  0
   25.4002  -20.6990   -9.3604 C   0  0  1  0  0  0  0  0  0  0  0  0
   24.4424  -21.6481   -8.6653 C   0  0  0  0  0  0  0  0  0  0  0  0
   24.1621  -21.0943   -6.9596 S   0  0  0  0  0  0  0  0  0  0  0  0
   26.5654  -20.3449   -8.5413 C   0  0  0  0  0  0  0  0  0  0  0  0
   27.5935  -21.0556   -8.5973 O   0  0  0  0  0  0  0  0  0  0  0  0
   26.5809  -19.2494   -7.6994 O   0  0  0  0  0  0  0  0  0  0  0  0
  2  1  1  0
  3  2  2  0
  4  2  1  0
  4  5  1  0
  5  6  1  1
  7  5  1  0
  7  8  2  0
 10  9  1  0
 11 12  1  1
 11 10  1  0
 13 14  1  6
 13 11  1  0
 14  7  1  0
 15 13  1  0
 16 15  2  0
 17 15  1  0
 18 17  1  0
 18 19  1  1
 20 19  1  0
 21 18  1  0
 21 23  1  0
 22 21  2  0
M  END
$$$$
