YSN.pdb
     RDKit          3D

 27 27  0  0  1  0  0  0  0  0999 V2000
    5.3581  -10.3764   27.3596 O   0  0  0  0  0  0  0  0  0  0  0  0
    6.0511  -11.4805   26.8945 C   0  0  0  0  0  0  0  0  0  0  0  0
    6.1660  -12.6576   27.5989 C   0  0  0  0  0  0  0  0  0  0  0  0
    6.8664  -13.7322   27.0961 C   0  0  0  0  0  0  0  0  0  0  0  0
    7.4746  -13.6589   25.8677 C   0  0  0  0  0  0  0  0  0  0  0  0
    8.2188  -14.8159   25.3484 C   0  0  0  0  0  0  0  0  0  0  0  0
    7.2907  -15.7368   24.5470 C   0  0  2  0  0  0  0  0  0  0  0  0
    6.6461  -16.5962   25.4876 N   0  0  0  0  0  0  0  0  0  0  0  0
    8.1983  -16.5036   23.6256 C   0  0  0  0  0  0  0  0  0  0  0  0
    8.8408  -17.5184   23.9950 O   0  0  0  0  0  0  0  0  0  0  0  0
    7.3751  -12.4988   25.1469 C   0  0  0  0  0  0  0  0  0  0  0  0
    6.6701  -11.4357   25.6680 C   0  0  0  0  0  0  0  0  0  0  0  0
    8.5830  -14.9803   19.8825 O   0  0  0  0  0  0  0  0  0  0  0  0
    9.1817  -16.2207   19.9543 C   0  0  0  0  0  0  0  0  0  0  0  0
    9.2947  -16.7499   21.3625 C   0  0  2  0  0  0  0  0  0  0  0  0
    8.3706  -16.1024   22.2681 N   0  0  0  0  0  0  0  0  0  0  0  0
   10.6932  -16.6779   21.8713 C   0  0  0  0  0  0  0  0  0  0  0  0
   11.0583  -15.8222   22.7379 O   0  0  0  0  0  0  0  0  0  0  0  0
   13.7290  -20.5663   23.7104 N   0  0  0  0  0  0  0  0  0  0  0  0
   12.8050  -19.5928   23.2095 C   0  0  0  0  0  0  0  0  0  0  0  0
   11.7440  -20.0429   22.7260 O   0  0  0  0  0  0  0  0  0  0  0  0
   13.0718  -18.1590   23.2534 C   0  0  0  0  0  0  0  0  0  0  0  0
   13.0733  -17.4443   21.9302 C   0  0  2  0  0  0  0  0  0  0  0  0
   11.7026  -17.5647   21.4160 N   0  0  0  0  0  0  0  0  0  0  0  0
   13.9724  -18.0782   20.9640 C   0  0  0  0  0  0  0  0  0  0  0  0
   15.2254  -18.0194   21.1604 O   0  0  0  0  0  0  0  0  0  0  0  0
   13.5772  -18.7502   19.8345 O   0  0  0  0  0  0  0  0  0  0  0  0
  2  1  1  0
  2 12  2  0
  3  2  1  0
  4  3  2  0
  4  5  1  0
  5 11  2  0
  6  5  1  0
  7  6  1  0
  7  9  1  0
  7  8  1  1
  9 16  1  0
  9 10  2  0
 11 12  1  0
 13 14  1  0
 15 14  1  6
 15 17  1  0
 16 15  1  0
 17 18  2  0
 19 20  1  0
 20 21  2  0
 20 22  1  0
 23 22  1  1
 23 25  1  0
 24 17  1  0
 24 23  1  0
 25 26  2  0
 25 27  1  0
M  END
$$$$
