YSN.pdb
     RDKit          3D

 27 27  0  0  1  0  0  0  0  0999 V2000
    5.7565  -10.1897   26.6414 O   0  0  0  0  0  0  0  0  0  0  0  0
    6.3712  -11.3843   26.3085 C   0  0  0  0  0  0  0  0  0  0  0  0
    7.5122  -11.4640   25.5426 C   0  0  0  0  0  0  0  0  0  0  0  0
    8.0903  -12.6764   25.2359 C   0  0  0  0  0  0  0  0  0  0  0  0
    7.5400  -13.8493   25.6892 C   0  0  0  0  0  0  0  0  0  0  0  0
    8.1706  -15.1337   25.3503 C   0  0  0  0  0  0  0  0  0  0  0  0
    7.3278  -15.8906   24.3166 C   0  0  2  0  0  0  0  0  0  0  0  0
    6.3830  -16.6745   25.0457 N   0  0  0  0  0  0  0  0  0  0  0  0
    8.3058  -16.7536   23.5687 C   0  0  0  0  0  0  0  0  0  0  0  0
    8.7064  -17.8615   24.0059 O   0  0  0  0  0  0  0  0  0  0  0  0
    6.4046  -13.7972   26.4532 C   0  0  0  0  0  0  0  0  0  0  0  0
    5.8423  -12.5743   26.7485 C   0  0  0  0  0  0  0  0  0  0  0  0
   10.6110  -15.3256   20.1560 O   0  0  0  0  0  0  0  0  0  0  0  0
   10.0202  -16.5717   20.1737 C   0  0  0  0  0  0  0  0  0  0  0  0
    9.8039  -17.1116   21.5657 C   0  0  2  0  0  0  0  0  0  0  0  0
    8.8292  -16.3418   22.3077 N   0  0  0  0  0  0  0  0  0  0  0  0
   11.0841  -17.2351   22.3177 C   0  0  0  0  0  0  0  0  0  0  0  0
   11.4738  -16.3531   23.1464 O   0  0  0  0  0  0  0  0  0  0  0  0
   15.5770  -21.4160   23.3528 N   0  0  0  0  0  0  0  0  0  0  0  0
   14.9887  -20.1101   23.3846 C   0  0  0  0  0  0  0  0  0  0  0  0
   15.6630  -19.2193   23.9450 O   0  0  0  0  0  0  0  0  0  0  0  0
   13.6822  -19.8212   22.8028 C   0  0  0  0  0  0  0  0  0  0  0  0
   13.2450  -18.3827   22.8367 C   0  0  2  0  0  0  0  0  0  0  0  0
   11.9461  -18.3496   22.1517 N   0  0  0  0  0  0  0  0  0  0  0  0
   14.1630  -17.5116   22.1004 C   0  0  0  0  0  0  0  0  0  0  0  0
   14.9852  -16.7955   22.7509 O   0  0  0  0  0  0  0  0  0  0  0  0
   14.2212  -17.3938   20.7342 O   0  0  0  0  0  0  0  0  0  0  0  0
  2  1  1  0
  2 12  2  0
  3  2  1  0
  4  3  2  0
  4  5  1  0
  5 11  2  0
  6  5  1  0
  7  6  1  0
  7  9  1  0
  7  8  1  1
  9 16  1  0
  9 10  2  0
 11 12  1  0
 13 14  1  0
 15 14  1  6
 15 17  1  0
 16 15  1  0
 17 18  2  0
 19 20  1  0
 20 21  2  0
 20 22  1  0
 23 22  1  6
 23 25  1  0
 24 17  1  0
 24 23  1  0
 25 26  2  0
 25 27  1  0
M  END
$$$$
