YSN.pdb
     RDKit          3D

 27 27  0  0  1  0  0  0  0  0999 V2000
    7.4612  -21.9578   15.7320 O   0  0  0  0  0  0  0  0  0  0  0  0
    8.1632  -21.1919   16.6465 C   0  0  0  0  0  0  0  0  0  0  0  0
    7.6469  -20.7930   17.8586 C   0  0  0  0  0  0  0  0  0  0  0  0
    8.3829  -20.0302   18.7387 C   0  0  0  0  0  0  0  0  0  0  0  0
    9.6629  -19.6432   18.4292 C   0  0  0  0  0  0  0  0  0  0  0  0
   10.4323  -18.8281   19.3809 C   0  0  0  0  0  0  0  0  0  0  0  0
   10.0414  -17.3500   19.2622 C   0  0  2  0  0  0  0  0  0  0  0  0
   10.5265  -16.8929   17.9995 N   0  0  0  0  0  0  0  0  0  0  0  0
   10.7389  -16.6664   20.4055 C   0  0  0  0  0  0  0  0  0  0  0  0
   11.9447  -16.3165   20.3536 O   0  0  0  0  0  0  0  0  0  0  0  0
   10.1998  -20.0272   17.2294 C   0  0  0  0  0  0  0  0  0  0  0  0
    9.4468  -20.7899   16.3632 C   0  0  0  0  0  0  0  0  0  0  0  0
    8.9600  -16.2763   24.3778 O   0  0  0  0  0  0  0  0  0  0  0  0
    9.6704  -15.2618   23.7709 C   0  0  0  0  0  0  0  0  0  0  0  0
   10.6768  -15.7566   22.7619 C   0  0  2  0  0  0  0  0  0  0  0  0
   10.0467  -16.3817   21.6193 N   0  0  0  0  0  0  0  0  0  0  0  0
   11.6885  -16.6567   23.3834 C   0  0  0  0  0  0  0  0  0  0  0  0
   11.7202  -17.9064   23.1519 O   0  0  0  0  0  0  0  0  0  0  0  0
   16.7705  -17.6203   24.4058 N   0  0  0  0  0  0  0  0  0  0  0  0
   16.3119  -16.5684   23.5481 C   0  0  0  0  0  0  0  0  0  0  0  0
   17.1622  -16.0880   22.7680 O   0  0  0  0  0  0  0  0  0  0  0  0
   14.9387  -16.0760   23.5719 C   0  0  0  0  0  0  0  0  0  0  0  0
   13.9644  -16.8692   24.3986 C   0  0  2  0  0  0  0  0  0  0  0  0
   12.6796  -16.1683   24.2732 N   0  0  0  0  0  0  0  0  0  0  0  0
   14.3309  -16.8843   25.8161 C   0  0  0  0  0  0  0  0  0  0  0  0
   15.3851  -17.4961   26.1715 O   0  0  0  0  0  0  0  0  0  0  0  0
   13.6230  -16.2813   26.8254 O   0  0  0  0  0  0  0  0  0  0  0  0
  2  1  1  0
  2 12  2  0
  3  2  1  0
  4  3  2  0
  4  5  1  0
  5 11  2  0
  6  5  1  0
  7  6  1  0
  7  9  1  0
  7  8  1  6
  9 16  1  0
  9 10  2  0
 11 12  1  0
 13 14  1  0
 15 14  1  1
 15 17  1  0
 16 15  1  0
 17 18  2  0
 19 20  1  0
 20 21  2  0
 20 22  1  0
 23 22  1  6
 23 25  1  0
 24 17  1  0
 24 23  1  0
 25 26  2  0
 25 27  1  0
M  END
$$$$
