YSN.pdb
     RDKit          3D

 27 27  0  0  1  0  0  0  0  0999 V2000
    7.9308  -12.2102   17.1137 O   0  0  0  0  0  0  0  0  0  0  0  0
    7.9218  -12.8827   18.3233 C   0  0  0  0  0  0  0  0  0  0  0  0
    6.7780  -13.1231   19.0506 C   0  0  0  0  0  0  0  0  0  0  0  0
    6.8166  -13.7976   20.2513 C   0  0  0  0  0  0  0  0  0  0  0  0
    8.0071  -14.2530   20.7608 C   0  0  0  0  0  0  0  0  0  0  0  0
    8.0283  -14.9697   22.0445 C   0  0  0  0  0  0  0  0  0  0  0  0
    8.2001  -16.4765   21.8166 C   0  0  2  0  0  0  0  0  0  0  0  0
    6.9747  -16.9542   21.2607 N   0  0  0  0  0  0  0  0  0  0  0  0
    8.4529  -17.0538   23.1817 C   0  0  0  0  0  0  0  0  0  0  0  0
    7.6339  -16.9425   24.1283 O   0  0  0  0  0  0  0  0  0  0  0  0
    9.1595  -14.0266   20.0565 C   0  0  0  0  0  0  0  0  0  0  0  0
    9.0990  -13.3499   18.8576 C   0  0  0  0  0  0  0  0  0  0  0  0
   12.0551  -19.2813   24.0327 O   0  0  0  0  0  0  0  0  0  0  0  0
   10.8399  -19.5843   24.6103 C   0  0  0  0  0  0  0  0  0  0  0  0
    9.9250  -18.3918   24.7396 C   0  0  2  0  0  0  0  0  0  0  0  0
    9.6562  -17.7652   23.4635 N   0  0  0  0  0  0  0  0  0  0  0  0
   10.4370  -17.4050   25.7314 C   0  0  0  0  0  0  0  0  0  0  0  0
   11.1388  -16.4007   25.3914 O   0  0  0  0  0  0  0  0  0  0  0  0
   10.1980  -15.2995   31.1421 N   0  0  0  0  0  0  0  0  0  0  0  0
   10.0616  -14.9140   29.7691 C   0  0  0  0  0  0  0  0  0  0  0  0
   10.2867  -13.7115   29.5130 O   0  0  0  0  0  0  0  0  0  0  0  0
    9.6833  -15.8561   28.7212 C   0  0  0  0  0  0  0  0  0  0  0  0
   10.8088  -16.6167   28.0758 C   0  0  2  0  0  0  0  0  0  0  0  0
   10.1694  -17.5296   27.1190 N   0  0  0  0  0  0  0  0  0  0  0  0
   11.5500  -17.4279   29.0435 C   0  0  0  0  0  0  0  0  0  0  0  0
   11.3030  -18.6709   29.1203 O   0  0  0  0  0  0  0  0  0  0  0  0
   12.5152  -16.9582   29.8987 O   0  0  0  0  0  0  0  0  0  0  0  0
  2  1  1  0
  2 12  2  0
  3  2  1  0
  4  3  2  0
  4  5  1  0
  5 11  2  0
  6  5  1  0
  7  6  1  0
  7  9  1  0
  7  8  1  1
  9 16  1  0
  9 10  2  0
 11 12  1  0
 13 14  1  0
 15 14  1  6
 15 17  1  0
 16 15  1  0
 17 18  2  0
 19 20  1  0
 20 21  2  0
 20 22  1  0
 23 22  1  1
 23 25  1  0
 24 17  1  0
 24 23  1  0
 25 26  2  0
 25 27  1  0
M  END
$$$$
