YSN.pdb
     RDKit          3D

 27 27  0  0  1  0  0  0  0  0999 V2000
    3.6419  -22.0787   13.6953 O   0  0  0  0  0  0  0  0  0  0  0  0
    4.9755  -22.0727   14.0652 C   0  0  0  0  0  0  0  0  0  0  0  0
    5.8118  -20.9959   13.8755 C   0  0  0  0  0  0  0  0  0  0  0  0
    7.1342  -21.0346   14.2600 C   0  0  0  0  0  0  0  0  0  0  0  0
    7.6598  -22.1578   14.8485 C   0  0  0  0  0  0  0  0  0  0  0  0
    9.0739  -22.1807   15.2509 C   0  0  0  0  0  0  0  0  0  0  0  0
    9.9820  -22.2855   14.0197 C   0  0  2  0  0  0  0  0  0  0  0  0
    9.7781  -23.5846   13.4633 N   0  0  0  0  0  0  0  0  0  0  0  0
   11.3801  -22.1208   14.5478 C   0  0  0  0  0  0  0  0  0  0  0  0
   11.9650  -23.0137   15.2111 O   0  0  0  0  0  0  0  0  0  0  0  0
    6.8486  -23.2428   15.0484 C   0  0  0  0  0  0  0  0  0  0  0  0
    5.5288  -23.1834   14.6564 C   0  0  0  0  0  0  0  0  0  0  0  0
   13.9995  -19.6185   12.7357 O   0  0  0  0  0  0  0  0  0  0  0  0
   14.1560  -19.5747   14.1052 C   0  0  0  0  0  0  0  0  0  0  0  0
   13.4486  -20.6963   14.8245 C   0  0  2  0  0  0  0  0  0  0  0  0
   12.1140  -20.9209   14.3130 N   0  0  0  0  0  0  0  0  0  0  0  0
   13.4363  -20.4883   16.2998 C   0  0  0  0  0  0  0  0  0  0  0  0
   12.4940  -19.8737   16.8920 O   0  0  0  0  0  0  0  0  0  0  0  0
   15.0098  -24.3682   18.2145 N   0  0  0  0  0  0  0  0  0  0  0  0
   14.3744  -23.2909   18.9133 C   0  0  0  0  0  0  0  0  0  0  0  0
   13.2012  -23.4994   19.2906 O   0  0  0  0  0  0  0  0  0  0  0  0
   15.0428  -22.0209   19.1762 C   0  0  0  0  0  0  0  0  0  0  0  0
   14.3952  -20.7971   18.5891 C   0  0  2  0  0  0  0  0  0  0  0  0
   14.4804  -20.9668   17.1325 N   0  0  0  0  0  0  0  0  0  0  0  0
   15.1151  -19.5717   18.9410 C   0  0  0  0  0  0  0  0  0  0  0  0
   15.6676  -18.8971   18.0182 O   0  0  0  0  0  0  0  0  0  0  0  0
   15.2518  -19.0684   20.2105 O   0  0  0  0  0  0  0  0  0  0  0  0
  2  1  1  0
  2 12  2  0
  3  2  1  0
  4  3  2  0
  4  5  1  0
  5 11  2  0
  6  5  1  0
  7  6  1  0
  7  9  1  0
  7  8  1  1
  9 16  1  0
  9 10  2  0
 11 12  1  0
 13 14  1  0
 15 14  1  6
 15 17  1  0
 16 15  1  0
 17 18  2  0
 19 20  1  0
 20 21  2  0
 20 22  1  0
 23 22  1  1
 23 25  1  0
 24 17  1  0
 24 23  1  0
 25 26  2  0
 25 27  1  0
M  END
$$$$
