YSN.pdb
     RDKit          3D

 27 27  0  0  1  0  0  0  0  0999 V2000
    5.5957  -10.3038   27.1996 O   0  0  0  0  0  0  0  0  0  0  0  0
    6.2281  -11.4057   26.6506 C   0  0  0  0  0  0  0  0  0  0  0  0
    6.9774  -11.3554   25.4970 C   0  0  0  0  0  0  0  0  0  0  0  0
    7.5899  -12.4790   24.9865 C   0  0  0  0  0  0  0  0  0  0  0  0
    7.4692  -13.6910   25.6194 C   0  0  0  0  0  0  0  0  0  0  0  0
    8.1291  -14.8793   25.0587 C   0  0  0  0  0  0  0  0  0  0  0  0
    7.0941  -15.8303   24.4453 C   0  0  2  0  0  0  0  0  0  0  0  0
    6.6110  -16.6566   25.5048 N   0  0  0  0  0  0  0  0  0  0  0  0
    7.8524  -16.6279   23.4208 C   0  0  0  0  0  0  0  0  0  0  0  0
    8.5223  -17.6495   23.7154 O   0  0  0  0  0  0  0  0  0  0  0  0
    6.7290  -13.7678   26.7690 C   0  0  0  0  0  0  0  0  0  0  0  0
    6.1245  -12.6321   27.2628 C   0  0  0  0  0  0  0  0  0  0  0  0
    8.6749  -14.9867   19.5907 O   0  0  0  0  0  0  0  0  0  0  0  0
    8.4124  -16.3389   19.6599 C   0  0  0  0  0  0  0  0  0  0  0  0
    8.6299  -16.9211   21.0346 C   0  0  2  0  0  0  0  0  0  0  0  0
    7.8421  -16.2501   22.0458 N   0  0  0  0  0  0  0  0  0  0  0  0
   10.0734  -16.9503   21.4024 C   0  0  0  0  0  0  0  0  0  0  0  0
   10.6360  -15.9951   22.0250 O   0  0  0  0  0  0  0  0  0  0  0  0
   11.0888  -20.2074   23.8821 N   0  0  0  0  0  0  0  0  0  0  0  0
   12.1350  -19.3080   23.4959 C   0  0  0  0  0  0  0  0  0  0  0  0
   12.5832  -18.5694   24.3991 O   0  0  0  0  0  0  0  0  0  0  0  0
   12.6564  -19.2456   22.1347 C   0  0  0  0  0  0  0  0  0  0  0  0
   12.3467  -17.9924   21.3631 C   0  0  2  0  0  0  0  0  0  0  0  0
   10.9071  -18.0513   21.0776 N   0  0  0  0  0  0  0  0  0  0  0  0
   13.0565  -17.9453   20.0833 C   0  0  0  0  0  0  0  0  0  0  0  0
   14.3224  -17.8477   20.0861 O   0  0  0  0  0  0  0  0  0  0  0  0
   12.4658  -17.9995   18.8457 O   0  0  0  0  0  0  0  0  0  0  0  0
  2  1  1  0
  2 12  2  0
  3  2  1  0
  4  3  2  0
  4  5  1  0
  5 11  2  0
  6  5  1  0
  7  6  1  0
  7  9  1  0
  7  8  1  1
  9 16  1  0
  9 10  2  0
 11 12  1  0
 13 14  1  0
 15 14  1  6
 15 17  1  0
 16 15  1  0
 17 18  2  0
 19 20  1  0
 20 21  2  0
 20 22  1  0
 23 22  1  6
 23 25  1  0
 24 17  1  0
 24 23  1  0
 25 26  2  0
 25 27  1  0
M  END
$$$$
