NRA.pdb
     RDKit          3D

 25 24  0  0  1  0  0  0  0  0999 V2000
    7.5564  -12.4043   16.5324 N   0  0  0  0  0  0  0  0  0  0  0  0
    7.5105  -13.7395   16.0816 C   0  0  0  0  0  0  0  0  0  0  0  0
    7.3775  -14.0799   14.8673 O   0  0  0  0  0  0  0  0  0  0  0  0
    7.6289  -14.8431   17.0996 C   0  0  0  0  0  0  0  0  0  0  0  0
    9.0510  -15.3783   17.0627 C   0  0  2  0  0  0  0  0  0  0  0  0
    9.3199  -15.9895   15.7917 N   0  0  0  0  0  0  0  0  0  0  0  0
    9.1782  -16.3161   18.2077 C   0  0  0  0  0  0  0  0  0  0  0  0
    8.1714  -17.0051   18.4942 O   0  0  0  0  0  0  0  0  0  0  0  0
   14.6655  -19.7190   20.6075 N   0  0  0  0  0  0  0  0  0  0  0  0
   15.0550  -19.4325   19.2763 C   0  0  0  0  0  0  0  0  0  0  0  0
   16.2867  -19.1004   18.9601 N   0  0  0  0  0  0  0  0  0  0  0  0
   14.1461  -19.4775   18.1870 N   0  0  0  0  0  0  0  0  0  0  0  0
   12.7711  -19.8577   18.2903 C   0  0  0  0  0  0  0  0  0  0  0  0
   11.8513  -18.6625   18.4064 C   0  0  0  0  0  0  0  0  0  0  0  0
   11.4623  -18.4908   19.8860 C   0  0  0  0  0  0  0  0  0  0  0  0
   10.5502  -17.3399   20.0763 C   0  0  2  0  0  0  0  0  0  0  0  0
   10.3562  -16.4635   18.9709 N   0  0  0  0  0  0  0  0  0  0  0  0
   10.8523  -16.5243   21.2911 C   0  0  0  0  0  0  0  0  0  0  0  0
   11.9053  -15.8522   21.3384 O   0  0  0  0  0  0  0  0  0  0  0  0
   16.4498  -19.0002   17.9161 C   0  0  0  0  0  0  0  0  0  0  0  0
    9.0415  -15.7129   24.5597 C   0  0  1  0  0  0  0  0  0  0  0  0
   10.2333  -15.8705   23.6665 N   0  0  0  0  0  0  0  0  0  0  0  0
    9.9793  -16.4915   22.4034 C   0  0  0  0  0  0  0  0  0  0  0  0
   11.2540  -16.6844   24.4472 O   0  0  0  0  0  0  0  0  0  0  0  0
   11.5228  -17.8298   24.0518 O   0  0  0  0  0  0  0  0  0  0  0  0
  2  1  1  0
  3  2  2  0
  4  2  1  0
  5  4  1  0
  5  6  1  6
  7  5  1  0
  7  8  2  0
  9 10  1  0
 10 11  2  0
 12 13  1  0
 12 10  1  0
 14 13  1  0
 15 14  1  0
 16 15  1  6
 16 17  1  0
 17  7  1  0
 18 16  1  0
 19 18  2  0
 21 20  1  6
 21 22  1  0
 21 23  1  0
 22 18  1  0
 23 25  1  0
 24 23  2  0
M  END
$$$$
