NRA.pdb
     RDKit          3D

 25 24  0  0  1  0  0  0  0  0999 V2000
   13.7089  -23.2233   19.7983 N   0  0  0  0  0  0  0  0  0  0  0  0
   13.1315  -22.1985   19.0209 C   0  0  0  0  0  0  0  0  0  0  0  0
   12.5349  -22.3876   17.9180 O   0  0  0  0  0  0  0  0  0  0  0  0
   13.2200  -20.7819   19.5246 C   0  0  0  0  0  0  0  0  0  0  0  0
   12.3435  -19.9051   18.6453 C   0  0  2  0  0  0  0  0  0  0  0  0
   13.0303  -19.5768   17.4279 N   0  0  0  0  0  0  0  0  0  0  0  0
   11.9847  -18.7161   19.4601 C   0  0  0  0  0  0  0  0  0  0  0  0
   12.7484  -17.7251   19.3887 O   0  0  0  0  0  0  0  0  0  0  0  0
    7.6966  -12.4908   22.3605 N   0  0  0  0  0  0  0  0  0  0  0  0
    7.5932  -12.7360   20.9695 C   0  0  0  0  0  0  0  0  0  0  0  0
    7.6516  -11.7711   20.0791 N   0  0  0  0  0  0  0  0  0  0  0  0
    7.4143  -14.0382   20.4336 N   0  0  0  0  0  0  0  0  0  0  0  0
    7.3716  -15.2384   21.2105 C   0  0  0  0  0  0  0  0  0  0  0  0
    8.7523  -15.7339   21.5795 C   0  0  0  0  0  0  0  0  0  0  0  0
    9.0585  -16.9880   20.7407 C   0  0  0  0  0  0  0  0  0  0  0  0
   10.4035  -17.5277   21.0445 C   0  0  2  0  0  0  0  0  0  0  0  0
   10.8470  -18.6529   20.2929 N   0  0  0  0  0  0  0  0  0  0  0  0
   10.6326  -17.7969   22.4962 C   0  0  0  0  0  0  0  0  0  0  0  0
    9.9144  -18.6290   23.0915 O   0  0  0  0  0  0  0  0  0  0  0  0
    7.5537  -12.1054   19.0765 C   0  0  0  0  0  0  0  0  0  0  0  0
   12.9953  -16.3982   25.1695 C   0  0  1  0  0  0  0  0  0  0  0  0
   11.9694  -17.3323   24.6057 N   0  0  0  0  0  0  0  0  0  0  0  0
   11.6427  -17.1301   23.2280 C   0  0  0  0  0  0  0  0  0  0  0  0
   10.7225  -17.1728   25.4620 O   0  0  0  0  0  0  0  0  0  0  0  0
   10.7760  -17.5191   26.6528 O   0  0  0  0  0  0  0  0  0  0  0  0
  2  1  1  0
  3  2  2  0
  4  2  1  0
  5  4  1  0
  5  6  1  6
  7  5  1  0
  7  8  2  0
  9 10  1  0
 10 11  2  0
 12 13  1  0
 12 10  1  0
 14 13  1  0
 15 14  1  0
 16 15  1  1
 16 17  1  0
 17  7  1  0
 18 16  1  0
 19 18  2  0
 21 20  1  6
 21 22  1  0
 21 23  1  0
 22 18  1  0
 23 25  1  0
 24 23  2  0
M  END
$$$$
