NRA.pdb
     RDKit          3D

 25 24  0  0  1  0  0  0  0  0999 V2000
   11.6974  -18.2997   17.6853 N   0  0  0  0  0  0  0  0  0  0  0  0
   10.5179  -19.0295   17.9384 C   0  0  0  0  0  0  0  0  0  0  0  0
   10.0581  -19.9322   17.1756 O   0  0  0  0  0  0  0  0  0  0  0  0
    9.7458  -18.7284   19.1961 C   0  0  0  0  0  0  0  0  0  0  0  0
    8.2684  -18.6586   18.8461 C   0  0  2  0  0  0  0  0  0  0  0  0
    8.0127  -17.5361   17.9882 N   0  0  0  0  0  0  0  0  0  0  0  0
    7.5325  -18.5967   20.1349 C   0  0  0  0  0  0  0  0  0  0  0  0
    7.1287  -17.4701   20.5067 O   0  0  0  0  0  0  0  0  0  0  0  0
    2.6151  -24.8104   24.0806 N   0  0  0  0  0  0  0  0  0  0  0  0
    3.7093  -24.3106   24.8280 C   0  0  0  0  0  0  0  0  0  0  0  0
    4.2016  -24.9484   25.8663 N   0  0  0  0  0  0  0  0  0  0  0  0
    4.3520  -23.0841   24.5159 N   0  0  0  0  0  0  0  0  0  0  0  0
    3.8373  -22.1035   23.6108 C   0  0  0  0  0  0  0  0  0  0  0  0
    4.7166  -20.8751   23.5330 C   0  0  0  0  0  0  0  0  0  0  0  0
    5.5753  -20.9724   22.2589 C   0  0  0  0  0  0  0  0  0  0  0  0
    6.4298  -19.7750   22.0889 C   0  0  2  0  0  0  0  0  0  0  0  0
    7.2727  -19.7247   20.9423 N   0  0  0  0  0  0  0  0  0  0  0  0
    7.2391  -19.4340   23.2977 C   0  0  0  0  0  0  0  0  0  0  0  0
    8.2413  -20.1234   23.5854 O   0  0  0  0  0  0  0  0  0  0  0  0
    5.0460  -24.4743   26.3007 C   0  0  0  0  0  0  0  0  0  0  0  0
    7.0187  -16.7555   26.0323 C   0  0  1  0  0  0  0  0  0  0  0  0
    7.6102  -17.9247   25.3070 N   0  0  0  0  0  0  0  0  0  0  0  0
    6.9017  -18.3482   24.1390 C   0  0  0  0  0  0  0  0  0  0  0  0
    7.6815  -19.0652   26.3110 O   0  0  0  0  0  0  0  0  0  0  0  0
    8.4207  -18.9359   27.2996 O   0  0  0  0  0  0  0  0  0  0  0  0
  2  1  1  0
  3  2  2  0
  4  2  1  0
  5  4  1  0
  5  6  1  6
  7  5  1  0
  7  8  2  0
  9 10  1  0
 10 11  2  0
 12 13  1  0
 12 10  1  0
 14 13  1  0
 15 14  1  0
 16 15  1  1
 16 17  1  0
 17  7  1  0
 18 16  1  0
 19 18  2  0
 21 20  1  6
 21 22  1  0
 21 23  1  0
 22 18  1  0
 23 25  1  0
 24 23  2  0
M  END
$$$$
