NRA.pdb
     RDKit          3D

 25 24  0  0  1  0  0  0  0  0999 V2000
   -2.4739  -29.3626   26.4012 N   0  0  0  0  0  0  0  0  0  0  0  0
   -3.7455  -29.2964   27.0066 C   0  0  0  0  0  0  0  0  0  0  0  0
   -4.6020  -30.2311   26.9750 O   0  0  0  0  0  0  0  0  0  0  0  0
   -4.1221  -28.0389   27.7449 C   0  0  0  0  0  0  0  0  0  0  0  0
   -2.9754  -27.0490   27.6214 C   0  0  2  0  0  0  0  0  0  0  0  0
   -1.9490  -27.3547   28.5776 N   0  0  0  0  0  0  0  0  0  0  0  0
   -3.5646  -25.6971   27.7992 C   0  0  0  0  0  0  0  0  0  0  0  0
   -3.6915  -25.2812   28.9744 O   0  0  0  0  0  0  0  0  0  0  0  0
   -1.9114  -19.7975   21.9114 N   0  0  0  0  0  0  0  0  0  0  0  0
   -1.0303  -20.1884   22.9491 C   0  0  0  0  0  0  0  0  0  0  0  0
    0.2493  -19.8887   22.9352 N   0  0  0  0  0  0  0  0  0  0  0  0
   -1.4604  -20.9355   24.0767 N   0  0  0  0  0  0  0  0  0  0  0  0
   -2.8090  -21.3505   24.3110 C   0  0  0  0  0  0  0  0  0  0  0  0
   -2.9505  -22.1527   25.5856 C   0  0  0  0  0  0  0  0  0  0  0  0
   -4.3993  -22.6650   25.6788 C   0  0  0  0  0  0  0  0  0  0  0  0
   -4.5750  -23.5877   26.8235 C   0  0  2  0  0  0  0  0  0  0  0  0
   -3.9787  -24.8773   26.7276 N   0  0  0  0  0  0  0  0  0  0  0  0
   -5.9951  -23.7443   27.2607 C   0  0  0  0  0  0  0  0  0  0  0  0
   -6.7921  -24.3954   26.5512 O   0  0  0  0  0  0  0  0  0  0  0  0
    0.7902  -20.2770   23.7617 C   0  0  0  0  0  0  0  0  0  0  0  0
   -8.1893  -24.4135   29.7429 C   0  0  2  0  0  0  0  0  0  0  0  0
   -7.8198  -23.2026   28.9429 N   0  0  0  0  0  0  0  0  0  0  0  0
   -6.4735  -23.1693   28.4611 C   0  0  0  0  0  0  0  0  0  0  0  0
   -8.0797  -21.9988   29.8357 O   0  0  0  0  0  0  0  0  0  0  0  0
   -7.1075  -21.3357   30.2303 O   0  0  0  0  0  0  0  0  0  0  0  0
  2  1  1  0
  3  2  2  0
  4  2  1  0
  5  4  1  0
  5  6  1  1
  7  5  1  0
  7  8  2  0
  9 10  1  0
 10 11  2  0
 12 13  1  0
 12 10  1  0
 14 13  1  0
 15 14  1  0
 16 15  1  6
 16 17  1  0
 17  7  1  0
 18 16  1  0
 19 18  2  0
 21 20  1  6
 21 22  1  0
 21 23  1  0
 22 18  1  0
 23 25  1  0
 24 23  2  0
M  END
$$$$
