NRA.pdb
     RDKit          3D

 25 24  0  0  1  0  0  0  0  0999 V2000
    7.0382  -12.1645   18.0862 N   0  0  0  0  0  0  0  0  0  0  0  0
    7.7416  -13.2278   18.6883 C   0  0  0  0  0  0  0  0  0  0  0  0
    8.5978  -13.9478   18.0909 O   0  0  0  0  0  0  0  0  0  0  0  0
    7.4690  -13.5371   20.1369 C   0  0  0  0  0  0  0  0  0  0  0  0
    8.6142  -14.3821   20.6702 C   0  0  2  0  0  0  0  0  0  0  0  0
    8.7683  -15.5688   19.8770 N   0  0  0  0  0  0  0  0  0  0  0  0
    8.3040  -14.6608   22.0959 C   0  0  0  0  0  0  0  0  0  0  0  0
    7.7813  -13.7334   22.7569 O   0  0  0  0  0  0  0  0  0  0  0  0
   11.1298  -21.7586   25.4582 N   0  0  0  0  0  0  0  0  0  0  0  0
   11.8350  -21.1120   24.4140 C   0  0  0  0  0  0  0  0  0  0  0  0
   12.9194  -21.6236   23.8757 N   0  0  0  0  0  0  0  0  0  0  0  0
   11.4280  -19.8636   23.8749 N   0  0  0  0  0  0  0  0  0  0  0  0
   10.0763  -19.3977   23.8333 C   0  0  0  0  0  0  0  0  0  0  0  0
    9.9076  -18.0607   24.5204 C   0  0  0  0  0  0  0  0  0  0  0  0
    8.4202  -17.6683   24.4611 C   0  0  0  0  0  0  0  0  0  0  0  0
    8.2491  -16.2508   24.0686 C   0  0  2  0  0  0  0  0  0  0  0  0
    8.5653  -15.8962   22.7262 N   0  0  0  0  0  0  0  0  0  0  0  0
    8.9151  -15.2837   24.9924 C   0  0  0  0  0  0  0  0  0  0  0  0
   10.0803  -14.9006   24.7512 O   0  0  0  0  0  0  0  0  0  0  0  0
   13.3981  -20.9804   23.1804 C   0  0  0  0  0  0  0  0  0  0  0  0
    7.7123  -12.8724   27.6179 C   0  0  1  0  0  0  0  0  0  0  0  0
    8.7545  -13.7709   27.0267 N   0  0  0  0  0  0  0  0  0  0  0  0
    8.2655  -14.7862   26.1460 C   0  0  0  0  0  0  0  0  0  0  0  0
    9.4883  -14.4097   28.1961 O   0  0  0  0  0  0  0  0  0  0  0  0
   10.0514  -13.6673   29.0161 O   0  0  0  0  0  0  0  0  0  0  0  0
  2  1  1  0
  3  2  2  0
  4  2  1  0
  5  4  1  0
  5  6  1  6
  7  5  1  0
  7  8  2  0
  9 10  1  0
 10 11  2  0
 12 13  1  0
 12 10  1  0
 14 13  1  0
 15 14  1  0
 16 15  1  1
 16 17  1  0
 17  7  1  0
 18 16  1  0
 19 18  2  0
 21 20  1  6
 21 22  1  0
 21 23  1  0
 22 18  1  0
 23 25  1  0
 24 23  2  0
M  END
$$$$
