NRA.pdb
     RDKit          3D

 25 24  0  0  1  0  0  0  0  0999 V2000
   11.5215  -20.2765   18.2200 N   0  0  0  0  0  0  0  0  0  0  0  0
   11.0681  -20.7193   19.4795 C   0  0  0  0  0  0  0  0  0  0  0  0
   10.7109  -21.9094   19.7328 O   0  0  0  0  0  0  0  0  0  0  0  0
   11.0018  -19.7232   20.6072 C   0  0  0  0  0  0  0  0  0  0  0  0
   11.3619  -18.3526   20.0576 C   0  0  2  0  0  0  0  0  0  0  0  0
   12.7005  -18.3608   19.5383 N   0  0  0  0  0  0  0  0  0  0  0  0
   11.1658  -17.3878   21.1698 C   0  0  0  0  0  0  0  0  0  0  0  0
   12.1317  -17.2123   21.9487 O   0  0  0  0  0  0  0  0  0  0  0  0
    8.1519  -13.8044   17.1136 N   0  0  0  0  0  0  0  0  0  0  0  0
    8.2423  -12.9815   18.2627 C   0  0  0  0  0  0  0  0  0  0  0  0
    9.2689  -12.1909   18.4825 N   0  0  0  0  0  0  0  0  0  0  0  0
    7.2361  -12.9522   19.2635 N   0  0  0  0  0  0  0  0  0  0  0  0
    7.4298  -13.3513   20.6233 C   0  0  0  0  0  0  0  0  0  0  0  0
    8.5564  -14.3492   20.7747 C   0  0  0  0  0  0  0  0  0  0  0  0
    8.6457  -14.7600   22.2557 C   0  0  0  0  0  0  0  0  0  0  0  0
    9.6808  -15.7972   22.4688 C   0  0  2  0  0  0  0  0  0  0  0  0
    9.9669  -16.6747   21.3844 N   0  0  0  0  0  0  0  0  0  0  0  0
    9.4760  -16.6099   23.7056 C   0  0  0  0  0  0  0  0  0  0  0  0
    8.3274  -17.0024   24.0043 O   0  0  0  0  0  0  0  0  0  0  0  0
    9.2722  -11.7497   19.4478 C   0  0  0  0  0  0  0  0  0  0  0  0
   10.1056  -19.2408   25.3889 C   0  0  2  0  0  0  0  0  0  0  0  0
   10.4942  -17.8261   25.6898 N   0  0  0  0  0  0  0  0  0  0  0  0
   10.5497  -16.9488   24.5616 C   0  0  0  0  0  0  0  0  0  0  0  0
   11.8554  -17.8862   26.3660 O   0  0  0  0  0  0  0  0  0  0  0  0
   11.9624  -18.5316   27.4208 O   0  0  0  0  0  0  0  0  0  0  0  0
  2  1  1  0
  3  2  2  0
  4  2  1  0
  5  4  1  0
  5  6  1  1
  7  5  1  0
  7  8  2  0
  9 10  1  0
 10 11  2  0
 12 13  1  0
 12 10  1  0
 14 13  1  0
 15 14  1  0
 16 15  1  6
 16 17  1  0
 17  7  1  0
 18 16  1  0
 19 18  2  0
 21 20  1  1
 21 22  1  0
 21 23  1  0
 22 18  1  0
 23 25  1  0
 24 23  2  0
M  END
$$$$
