ERA.pdb
     RDKit          3D

 26 25  0  0  1  0  0  0  0  0999 V2000
   12.9557  -17.9000   14.4754 N   0  0  0  0  0  0  0  0  0  0  0  0
   13.0269  -19.0505   15.3224 C   0  0  1  0  0  0  0  0  0  0  0  0
   14.4034  -19.5102   15.6053 C   0  0  0  0  0  0  0  0  0  0  0  0
   15.3456  -18.4594   16.0893 C   0  0  0  0  0  0  0  0  0  0  0  0
   16.7158  -18.8700   16.3780 C   0  0  0  0  0  0  0  0  0  0  0  0
   17.5484  -19.3720   15.5877 O   0  0  0  0  0  0  0  0  0  0  0  0
   12.2036  -18.8876   16.5583 C   0  0  0  0  0  0  0  0  0  0  0  0
   11.7490  -17.7662   16.9115 O   0  0  0  0  0  0  0  0  0  0  0  0
   17.1695  -18.6869   17.6943 O   0  0  0  0  0  0  0  0  0  0  0  0
   10.5090  -24.2578   20.8582 N   0  0  0  0  0  0  0  0  0  0  0  0
    9.4674  -23.9106   21.7410 C   0  0  0  0  0  0  0  0  0  0  0  0
    9.3191  -24.4685   22.8895 N   0  0  0  0  0  0  0  0  0  0  0  0
    8.5367  -22.9015   21.3509 N   0  0  0  0  0  0  0  0  0  0  0  0
    8.5661  -22.3859   19.9979 C   0  0  0  0  0  0  0  0  0  0  0  0
    9.2917  -21.0607   19.9228 C   0  0  0  0  0  0  0  0  0  0  0  0
   10.4781  -21.1937   19.0272 C   0  0  0  0  0  0  0  0  0  0  0  0
   11.0177  -19.8767   18.5485 C   0  0  2  0  0  0  0  0  0  0  0  0
   11.8859  -19.9840   17.4053 N   0  0  0  0  0  0  0  0  0  0  0  0
   11.7897  -19.2614   19.6571 C   0  0  0  0  0  0  0  0  0  0  0  0
   13.0286  -19.4878   19.7519 O   0  0  0  0  0  0  0  0  0  0  0  0
    8.4840  -24.1929   23.4796 C   0  0  0  0  0  0  0  0  0  0  0  0
   10.9132  -16.8001   22.3651 C   0  0  1  0  0  0  0  0  0  0  0  0
   11.9227  -17.6816   21.6347 N   0  0  0  0  0  0  0  0  0  0  0  0
   11.1893  -18.4175   20.6298 C   0  0  0  0  0  0  0  0  0  0  0  0
   12.6600  -18.5453   22.5560 O   0  0  0  0  0  0  0  0  0  0  0  0
   13.5675  -18.0618   23.2709 O   0  0  0  0  0  0  0  0  0  0  0  0
  2  1  1  1
  3  2  1  0
  4  3  1  0
  5  4  1  0
  5  6  2  0
  7  2  1  0
  7  8  2  0
  9  5  1  0
 10 11  1  0
 11 12  2  0
 13 11  1  0
 13 14  1  0
 14 15  1  0
 17 16  1  1
 16 15  1  0
 17 18  1  0
 18  7  1  0
 19 17  1  0
 20 19  2  0
 22 21  1  6
 22 23  1  0
 23 19  1  0
 24 26  1  0
 24 22  1  0
 25 24  2  0
M  END
$$$$
