ERA.pdb
     RDKit          3D

 26 25  0  0  1  0  0  0  0  0999 V2000
    7.7085  -13.2710   19.4079 N   0  0  0  0  0  0  0  0  0  0  0  0
    8.5847  -14.1623   20.1034 C   0  0  1  0  0  0  0  0  0  0  0  0
   10.0148  -13.7974   20.0151 C   0  0  0  0  0  0  0  0  0  0  0  0
   10.7141  -14.2330   18.7711 C   0  0  0  0  0  0  0  0  0  0  0  0
   12.1216  -13.8735   18.6331 C   0  0  0  0  0  0  0  0  0  0  0  0
   12.6832  -12.8173   19.0053 O   0  0  0  0  0  0  0  0  0  0  0  0
    8.1340  -14.4092   21.5061 C   0  0  0  0  0  0  0  0  0  0  0  0
    7.5086  -13.5369   22.1670 O   0  0  0  0  0  0  0  0  0  0  0  0
   12.9589  -14.8135   18.0106 O   0  0  0  0  0  0  0  0  0  0  0  0
    7.0596  -21.7799   26.3414 N   0  0  0  0  0  0  0  0  0  0  0  0
    6.7318  -20.7519   27.2472 C   0  0  0  0  0  0  0  0  0  0  0  0
    6.3483  -20.9870   28.4514 N   0  0  0  0  0  0  0  0  0  0  0  0
    6.8265  -19.3943   26.8175 N   0  0  0  0  0  0  0  0  0  0  0  0
    7.3640  -19.0949   25.5066 C   0  0  0  0  0  0  0  0  0  0  0  0
    7.5507  -17.6069   25.3081 C   0  0  0  0  0  0  0  0  0  0  0  0
    8.0174  -17.3459   23.9147 C   0  0  0  0  0  0  0  0  0  0  0  0
    7.9921  -15.8929   23.5370 C   0  0  2  0  0  0  0  0  0  0  0  0
    8.3833  -15.6383   22.1752 N   0  0  0  0  0  0  0  0  0  0  0  0
    8.9293  -15.1654   24.4292 C   0  0  0  0  0  0  0  0  0  0  0  0
    9.6357  -14.2303   23.9583 O   0  0  0  0  0  0  0  0  0  0  0  0
    6.1441  -20.1635   29.0852 C   0  0  0  0  0  0  0  0  0  0  0  0
    8.6744  -13.3767   26.8720 C   0  0  1  0  0  0  0  0  0  0  0  0
    9.6152  -14.5762   26.7971 N   0  0  0  0  0  0  0  0  0  0  0  0
    9.0693  -15.4781   25.8081 C   0  0  0  0  0  0  0  0  0  0  0  0
    9.8049  -15.2033   28.1044 O   0  0  0  0  0  0  0  0  0  0  0  0
    9.2642  -16.3058   28.3502 O   0  0  0  0  0  0  0  0  0  0  0  0
  2  1  1  1
  3  2  1  0
  4  3  1  0
  5  4  1  0
  5  6  2  0
  7  2  1  0
  7  8  2  0
  9  5  1  0
 10 11  1  0
 11 12  2  0
 13 11  1  0
 13 14  1  0
 14 15  1  0
 17 16  1  1
 16 15  1  0
 17 18  1  0
 18  7  1  0
 19 17  1  0
 20 19  2  0
 22 21  1  6
 22 23  1  0
 23 19  1  0
 24 26  1  0
 24 22  1  0
 25 24  2  0
M  END
$$$$
