ERA.pdb
     RDKit          3D

 26 25  0  0  1  0  0  0  0  0999 V2000
   13.6429  -17.0914   16.7275 N   0  0  0  0  0  0  0  0  0  0  0  0
   13.1512  -17.8810   17.8142 C   0  0  1  0  0  0  0  0  0  0  0  0
   14.0496  -18.9843   18.2163 C   0  0  0  0  0  0  0  0  0  0  0  0
   15.4062  -18.5721   18.6812 C   0  0  0  0  0  0  0  0  0  0  0  0
   16.3425  -19.6326   19.0390 C   0  0  0  0  0  0  0  0  0  0  0  0
   17.0486  -20.3240   18.2689 O   0  0  0  0  0  0  0  0  0  0  0  0
   12.7160  -17.0369   18.9674 C   0  0  0  0  0  0  0  0  0  0  0  0
   13.4436  -16.1177   19.4307 O   0  0  0  0  0  0  0  0  0  0  0  0
   16.4790  -19.9245   20.4058 O   0  0  0  0  0  0  0  0  0  0  0  0
    7.2727  -13.5023   17.1309 N   0  0  0  0  0  0  0  0  0  0  0  0
    7.6790  -13.3880   18.4750 C   0  0  0  0  0  0  0  0  0  0  0  0
    8.2700  -12.3422   18.9326 N   0  0  0  0  0  0  0  0  0  0  0  0
    7.4284  -14.4722   19.3686 N   0  0  0  0  0  0  0  0  0  0  0  0
    7.6791  -14.3042   20.7849 C   0  0  0  0  0  0  0  0  0  0  0  0
    9.0949  -14.6928   21.1496 C   0  0  0  0  0  0  0  0  0  0  0  0
    9.5734  -15.7574   20.2196 C   0  0  0  0  0  0  0  0  0  0  0  0
   10.9247  -16.3041   20.5799 C   0  0  2  0  0  0  0  0  0  0  0  0
   11.4602  -17.2206   19.6075 N   0  0  0  0  0  0  0  0  0  0  0  0
   10.8043  -17.0230   21.8731 C   0  0  0  0  0  0  0  0  0  0  0  0
   10.4018  -18.2201   21.8833 O   0  0  0  0  0  0  0  0  0  0  0  0
    8.6337  -12.3634   19.9271 C   0  0  0  0  0  0  0  0  0  0  0  0
   11.3567  -16.0411   25.4642 C   0  0  1  0  0  0  0  0  0  0  0  0
   11.0372  -17.0837   24.3963 N   0  0  0  0  0  0  0  0  0  0  0  0
   11.1260  -16.4165   23.1171 C   0  0  0  0  0  0  0  0  0  0  0  0
    9.7399  -17.7186   24.6246 O   0  0  0  0  0  0  0  0  0  0  0  0
    9.6061  -18.5430   25.5578 O   0  0  0  0  0  0  0  0  0  0  0  0
  2  1  1  6
  3  2  1  0
  4  3  1  0
  5  4  1  0
  5  6  2  0
  7  2  1  0
  7  8  2  0
  9  5  1  0
 10 11  1  0
 11 12  2  0
 13 11  1  0
 13 14  1  0
 14 15  1  0
 17 16  1  6
 16 15  1  0
 17 18  1  0
 18  7  1  0
 19 17  1  0
 20 19  2  0
 22 21  1  6
 22 23  1  0
 23 19  1  0
 24 26  1  0
 24 22  1  0
 25 24  2  0
M  END
$$$$
