ERA.pdb
     RDKit          3D

 26 25  0  0  1  0  0  0  0  0999 V2000
   12.0912  -14.7851   19.3992 N   0  0  0  0  0  0  0  0  0  0  0  0
   12.4918  -15.5647   20.5295 C   0  0  1  0  0  0  0  0  0  0  0  0
   13.8360  -15.2332   21.0485 C   0  0  0  0  0  0  0  0  0  0  0  0
   14.2894  -13.8317   20.8109 C   0  0  0  0  0  0  0  0  0  0  0  0
   15.6530  -13.6417   20.3273 C   0  0  0  0  0  0  0  0  0  0  0  0
   16.7216  -13.9364   20.9111 O   0  0  0  0  0  0  0  0  0  0  0  0
   11.4459  -15.5828   21.5961 C   0  0  0  0  0  0  0  0  0  0  0  0
   10.4377  -14.8275   21.5517 O   0  0  0  0  0  0  0  0  0  0  0  0
   15.8011  -13.0604   19.0576 O   0  0  0  0  0  0  0  0  0  0  0  0
   10.8868  -21.8881   21.5390 N   0  0  0  0  0  0  0  0  0  0  0  0
    9.5256  -21.7898   21.1899 C   0  0  0  0  0  0  0  0  0  0  0  0
    9.0135  -22.4455   20.2100 N   0  0  0  0  0  0  0  0  0  0  0  0
    8.6765  -20.9300   21.9491 N   0  0  0  0  0  0  0  0  0  0  0  0
    9.2189  -20.2053   23.0795 C   0  0  0  0  0  0  0  0  0  0  0  0
    9.5523  -18.7753   22.7159 C   0  0  0  0  0  0  0  0  0  0  0  0
   10.1068  -18.0747   23.9113 C   0  0  0  0  0  0  0  0  0  0  0  0
   10.4493  -16.6351   23.6565 C   0  0  2  0  0  0  0  0  0  0  0  0
   11.5264  -16.4498   22.7196 N   0  0  0  0  0  0  0  0  0  0  0  0
   10.8492  -16.0183   24.9461 C   0  0  0  0  0  0  0  0  0  0  0  0
   11.9974  -16.2526   25.4172 O   0  0  0  0  0  0  0  0  0  0  0  0
    7.9881  -22.3010   19.9879 C   0  0  0  0  0  0  0  0  0  0  0  0
    9.2564  -13.5622   27.2981 C   0  0  1  0  0  0  0  0  0  0  0  0
   10.2755  -14.6609   27.0083 N   0  0  0  0  0  0  0  0  0  0  0  0
    9.9866  -15.1642   25.6845 C   0  0  0  0  0  0  0  0  0  0  0  0
   10.2618  -15.7022   28.0348 O   0  0  0  0  0  0  0  0  0  0  0  0
    9.7015  -16.7979   27.8025 O   0  0  0  0  0  0  0  0  0  0  0  0
  2  1  1  6
  3  2  1  0
  4  3  1  0
  5  4  1  0
  5  6  2  0
  7  2  1  0
  7  8  2  0
  9  5  1  0
 10 11  1  0
 11 12  2  0
 13 11  1  0
 13 14  1  0
 14 15  1  0
 17 16  1  1
 16 15  1  0
 17 18  1  0
 18  7  1  0
 19 17  1  0
 20 19  2  0
 22 21  1  6
 22 23  1  0
 23 19  1  0
 24 26  1  0
 24 22  1  0
 25 24  2  0
M  END
$$$$
