ERA.pdb
     RDKit          3D

 26 25  0  0  1  0  0  0  0  0999 V2000
    8.6656  -12.6193   18.3923 N   0  0  0  0  0  0  0  0  0  0  0  0
    8.6877  -13.9968   18.7770 C   0  0  1  0  0  0  0  0  0  0  0  0
   10.0083  -14.6455   18.6308 C   0  0  0  0  0  0  0  0  0  0  0  0
   11.1444  -13.9499   19.3029 C   0  0  0  0  0  0  0  0  0  0  0  0
   12.4653  -14.5594   19.1878 C   0  0  0  0  0  0  0  0  0  0  0  0
   12.7755  -15.6069   18.5746 O   0  0  0  0  0  0  0  0  0  0  0  0
    8.0817  -14.2112   20.1256 C   0  0  0  0  0  0  0  0  0  0  0  0
    8.0301  -13.2909   20.9854 O   0  0  0  0  0  0  0  0  0  0  0  0
   13.5251  -13.9051   19.8364 O   0  0  0  0  0  0  0  0  0  0  0  0
    6.2893  -19.5753   25.4040 N   0  0  0  0  0  0  0  0  0  0  0  0
    7.1090  -20.2225   24.4585 C   0  0  0  0  0  0  0  0  0  0  0  0
    8.2896  -20.6455   24.7407 N   0  0  0  0  0  0  0  0  0  0  0  0
    6.6158  -20.4188   23.1338 N   0  0  0  0  0  0  0  0  0  0  0  0
    5.9666  -19.3242   22.4428 C   0  0  0  0  0  0  0  0  0  0  0  0
    6.8139  -18.0712   22.4648 C   0  0  0  0  0  0  0  0  0  0  0  0
    6.0640  -16.9526   21.8218 C   0  0  0  0  0  0  0  0  0  0  0  0
    6.8392  -15.6680   21.7626 C   0  0  2  0  0  0  0  0  0  0  0  0
    7.5296  -15.4614   20.5164 N   0  0  0  0  0  0  0  0  0  0  0  0
    7.8485  -15.6849   22.8510 C   0  0  0  0  0  0  0  0  0  0  0  0
    9.0141  -16.1079   22.6109 O   0  0  0  0  0  0  0  0  0  0  0  0
    8.8538  -21.1127   23.9758 C   0  0  0  0  0  0  0  0  0  0  0  0
    8.1836  -13.8708   26.0228 C   0  0  1  0  0  0  0  0  0  0  0  0
    8.5393  -15.1217   25.2238 N   0  0  0  0  0  0  0  0  0  0  0  0
    7.5582  -15.2404   24.1690 C   0  0  0  0  0  0  0  0  0  0  0  0
    8.6155  -16.3089   26.0742 O   0  0  0  0  0  0  0  0  0  0  0  0
    7.7312  -17.1918   25.9911 O   0  0  0  0  0  0  0  0  0  0  0  0
  2  1  1  1
  3  2  1  0
  4  3  1  0
  5  4  1  0
  5  6  2  0
  7  2  1  0
  7  8  2  0
  9  5  1  0
 10 11  1  0
 11 12  2  0
 13 11  1  0
 13 14  1  0
 14 15  1  0
 17 16  1  6
 16 15  1  0
 17 18  1  0
 18  7  1  0
 19 17  1  0
 20 19  2  0
 22 21  1  6
 22 23  1  0
 23 19  1  0
 24 26  1  0
 24 22  1  0
 25 24  2  0
M  END
$$$$
