ERA.pdb
     RDKit          3D

 26 25  0  0  1  0  0  0  0  0999 V2000
   12.5961  -18.8448   15.7136 N   0  0  0  0  0  0  0  0  0  0  0  0
   12.0597  -19.7478   16.6847 C   0  0  1  0  0  0  0  0  0  0  0  0
   13.0067  -20.7932   17.1279 C   0  0  0  0  0  0  0  0  0  0  0  0
   14.2863  -20.2959   17.7122 C   0  0  0  0  0  0  0  0  0  0  0  0
   15.2751  -21.2940   18.1068 C   0  0  0  0  0  0  0  0  0  0  0  0
   16.4025  -21.0967   18.6161 O   0  0  0  0  0  0  0  0  0  0  0  0
   11.4157  -19.0270   17.8238 C   0  0  0  0  0  0  0  0  0  0  0  0
   11.9037  -17.9675   18.3015 O   0  0  0  0  0  0  0  0  0  0  0  0
   14.9365  -22.6406   17.8967 O   0  0  0  0  0  0  0  0  0  0  0  0
    6.1344  -18.2313   15.7213 N   0  0  0  0  0  0  0  0  0  0  0  0
    5.1482  -19.0908   16.2440 C   0  0  0  0  0  0  0  0  0  0  0  0
    4.3936  -19.8141   15.4958 N   0  0  0  0  0  0  0  0  0  0  0  0
    4.9744  -19.1658   17.6586 N   0  0  0  0  0  0  0  0  0  0  0  0
    5.8892  -18.4583   18.5301 C   0  0  0  0  0  0  0  0  0  0  0  0
    7.3286  -18.8208   18.2385 C   0  0  0  0  0  0  0  0  0  0  0  0
    8.0475  -19.0730   19.5218 C   0  0  0  0  0  0  0  0  0  0  0  0
    9.5155  -18.7639   19.4565 C   0  0  2  0  0  0  0  0  0  0  0  0
   10.2191  -19.4925   18.4335 N   0  0  0  0  0  0  0  0  0  0  0  0
   10.1208  -19.1095   20.7672 C   0  0  0  0  0  0  0  0  0  0  0  0
   10.3435  -20.3204   21.0487 O   0  0  0  0  0  0  0  0  0  0  0  0
    3.7271  -20.4942   15.9594 C   0  0  0  0  0  0  0  0  0  0  0  0
   11.2459  -17.0830   23.7344 C   0  0  1  0  0  0  0  0  0  0  0  0
   11.0600  -18.4175   23.0174 N   0  0  0  0  0  0  0  0  0  0  0  0
   10.4658  -18.1256   21.7325 C   0  0  0  0  0  0  0  0  0  0  0  0
   10.2744  -19.3596   23.8133 O   0  0  0  0  0  0  0  0  0  0  0  0
    9.0393  -19.4522   23.6282 O   0  0  0  0  0  0  0  0  0  0  0  0
  2  1  1  6
  3  2  1  0
  4  3  1  0
  5  4  1  0
  5  6  2  0
  7  2  1  0
  7  8  2  0
  9  5  1  0
 10 11  1  0
 11 12  2  0
 13 11  1  0
 13 14  1  0
 14 15  1  0
 17 16  1  1
 16 15  1  0
 17 18  1  0
 18  7  1  0
 19 17  1  0
 20 19  2  0
 22 21  1  6
 22 23  1  0
 23 19  1  0
 24 26  1  0
 24 22  1  0
 25 24  2  0
M  END
$$$$
