SPS.pdb
     RDKit          3D

 20 20  0  0  1  0  0  0  0  0999 V2000
    8.3045  -17.3129   16.7210 O   0  0  0  0  0  0  0  0  0  0  0  0
    7.6285  -16.1801   16.2674 C   0  0  0  0  0  0  0  0  0  0  0  0
    8.6423  -15.0693   16.1191 C   0  0  2  0  0  0  0  0  0  0  0  0
    9.4700  -15.3036   14.9814 N   0  0  0  0  0  0  0  0  0  0  0  0
    9.3860  -14.8195   17.3717 C   0  0  0  0  0  0  0  0  0  0  0  0
   10.5796  -15.2048   17.4203 O   0  0  0  0  0  0  0  0  0  0  0  0
    8.8405  -14.1792   18.5082 N   0  0  0  0  0  0  0  0  0  0  0  0
    7.4690  -13.7157   18.5796 C   0  0  0  0  0  0  0  0  0  0  0  0
    7.3294  -13.0336   19.9230 C   0  0  0  0  0  0  0  0  0  0  0  0
    8.7187  -12.7593   20.3970 C   0  0  0  0  0  0  0  0  0  0  0  0
    9.5179  -13.8863   19.7409 C   0  0  1  0  0  0  0  0  0  0  0  0
    9.4826  -15.0341   20.6888 C   0  0  0  0  0  0  0  0  0  0  0  0
    8.4317  -15.7145   20.7739 O   0  0  0  0  0  0  0  0  0  0  0  0
   12.8803  -17.0510   21.2561 O   0  0  0  0  0  0  0  0  0  0  0  0
   11.6134  -17.6141   21.3985 C   0  0  0  0  0  0  0  0  0  0  0  0
   10.7428  -16.6279   22.1804 C   0  0  2  0  0  0  0  0  0  0  0  0
   10.5967  -15.3837   21.4983 N   0  0  0  0  0  0  0  0  0  0  0  0
   11.2362  -16.4788   23.5698 C   0  0  0  0  0  0  0  0  0  0  0  0
   11.5975  -15.3381   23.9438 O   0  0  0  0  0  0  0  0  0  0  0  0
   11.3235  -17.5159   24.4785 O   0  0  0  0  0  0  0  0  0  0  0  0
  2  1  1  0
  3  2  1  0
  3  4  1  6
  5  7  1  0
  5  3  1  0
  6  5  2  0
  7  8  1  0
  9  8  1  0
 10 11  1  0
 10  9  1  0
 11  7  1  0
 11 12  1  1
 12 17  1  0
 13 12  2  0
 16 15  1  6
 15 14  1  0
 16 18  1  0
 17 16  1  0
 18 20  1  0
 19 18  2  0
M  END
$$$$
