SPS.pdb
     RDKit          3D

 20 20  0  0  1  0  0  0  0  0999 V2000
    6.2524  -17.6252   16.8445 O   0  0  0  0  0  0  0  0  0  0  0  0
    7.5494  -17.6790   17.3553 C   0  0  0  0  0  0  0  0  0  0  0  0
    8.2892  -16.4584   16.8586 C   0  0  2  0  0  0  0  0  0  0  0  0
    9.0019  -16.7650   15.6617 N   0  0  0  0  0  0  0  0  0  0  0  0
    9.1136  -15.8352   17.9152 C   0  0  0  0  0  0  0  0  0  0  0  0
   10.3323  -16.1340   17.9472 O   0  0  0  0  0  0  0  0  0  0  0  0
    8.6183  -14.9315   18.8832 N   0  0  0  0  0  0  0  0  0  0  0  0
    7.2753  -14.3873   18.8513 C   0  0  0  0  0  0  0  0  0  0  0  0
    7.1902  -13.4202   20.0119 C   0  0  0  0  0  0  0  0  0  0  0  0
    8.5983  -13.1271   20.4137 C   0  0  0  0  0  0  0  0  0  0  0  0
    9.3263  -14.4137   20.0212 C   0  0  1  0  0  0  0  0  0  0  0  0
    9.2400  -15.3216   21.1983 C   0  0  0  0  0  0  0  0  0  0  0  0
    8.1283  -15.8231   21.4936 O   0  0  0  0  0  0  0  0  0  0  0  0
   12.5598  -17.3790   22.2919 O   0  0  0  0  0  0  0  0  0  0  0  0
   11.2730  -17.8554   22.5358 C   0  0  0  0  0  0  0  0  0  0  0  0
   10.4069  -16.6734   22.9771 C   0  0  2  0  0  0  0  0  0  0  0  0
   10.3721  -15.6383   21.9964 N   0  0  0  0  0  0  0  0  0  0  0  0
   10.8158  -16.1946   24.3186 C   0  0  0  0  0  0  0  0  0  0  0  0
   11.1959  -15.0047   24.4251 O   0  0  0  0  0  0  0  0  0  0  0  0
   10.8048  -16.9753   25.4585 O   0  0  0  0  0  0  0  0  0  0  0  0
  2  1  1  0
  3  2  1  0
  3  4  1  6
  5  7  1  0
  5  3  1  0
  6  5  2  0
  7  8  1  0
  9  8  1  0
 10 11  1  0
 10  9  1  0
 11  7  1  0
 11 12  1  1
 12 17  1  0
 13 12  2  0
 16 15  1  6
 15 14  1  0
 16 18  1  0
 17 16  1  0
 18 20  1  0
 19 18  2  0
M  END
$$$$
