SPS.pdb
     RDKit          3D

 20 20  0  0  1  0  0  0  0  0999 V2000
    6.6210  -18.5347   19.9225 O   0  0  0  0  0  0  0  0  0  0  0  0
    5.9802  -17.5115   19.2236 C   0  0  0  0  0  0  0  0  0  0  0  0
    7.0047  -16.8578   18.3253 C   0  0  2  0  0  0  0  0  0  0  0  0
    7.4426  -17.7753   17.3249 N   0  0  0  0  0  0  0  0  0  0  0  0
    8.0986  -16.2252   19.0919 C   0  0  0  0  0  0  0  0  0  0  0  0
    9.2210  -16.7864   19.0651 O   0  0  0  0  0  0  0  0  0  0  0  0
    7.9597  -15.0377   19.8466 N   0  0  0  0  0  0  0  0  0  0  0  0
    6.7415  -14.2529   19.8796 C   0  0  0  0  0  0  0  0  0  0  0  0
    7.0481  -13.0440   20.7364 C   0  0  0  0  0  0  0  0  0  0  0  0
    8.5368  -12.9597   20.8199 C   0  0  0  0  0  0  0  0  0  0  0  0
    8.9569  -14.4235   20.6788 C   0  0  1  0  0  0  0  0  0  0  0  0
    8.9693  -14.9922   22.0550 C   0  0  0  0  0  0  0  0  0  0  0  0
    7.8793  -15.1296   22.6611 O   0  0  0  0  0  0  0  0  0  0  0  0
   10.8840  -18.1405   22.6760 O   0  0  0  0  0  0  0  0  0  0  0  0
    9.9161  -17.6677   23.5604 C   0  0  0  0  0  0  0  0  0  0  0  0
   10.2329  -16.2027   23.8691 C   0  0  2  0  0  0  0  0  0  0  0  0
   10.1717  -15.3834   22.7030 N   0  0  0  0  0  0  0  0  0  0  0  0
   11.5171  -16.0856   24.5994 C   0  0  0  0  0  0  0  0  0  0  0  0
   11.6307  -16.6994   25.6866 O   0  0  0  0  0  0  0  0  0  0  0  0
   12.5962  -15.3437   24.1589 O   0  0  0  0  0  0  0  0  0  0  0  0
  2  1  1  0
  3  2  1  0
  3  4  1  6
  5  7  1  0
  5  3  1  0
  6  5  2  0
  7  8  1  0
  9  8  1  0
 10 11  1  0
 10  9  1  0
 11  7  1  0
 11 12  1  1
 12 17  1  0
 13 12  2  0
 16 15  1  6
 15 14  1  0
 16 18  1  0
 17 16  1  0
 18 20  1  0
 19 18  2  0
M  END
$$$$
