YAI.pdb
     RDKit          3D

 26 26  0  0  1  0  0  0  0  0999 V2000
   19.8162  -18.1307  -15.6156 O   0  0  0  0  0  0  0  0  0  0  0  0
   19.8011  -16.7482  -15.7652 C   0  0  0  0  0  0  0  0  0  0  0  0
   20.2074  -16.1678  -16.9592 C   0  0  0  0  0  0  0  0  0  0  0  0
   20.2023  -14.8018  -17.1340 C   0  0  0  0  0  0  0  0  0  0  0  0
   19.7858  -14.0071  -16.1020 C   0  0  0  0  0  0  0  0  0  0  0  0
   19.7459  -12.5535  -16.1932 C   0  0  0  0  0  0  0  0  0  0  0  0
   18.5198  -11.9921  -16.8391 C   0  0  2  0  0  0  0  0  0  0  0  0
   18.4659  -12.2363  -18.2662 N   0  0  0  0  0  0  0  0  0  0  0  0
   18.5643  -10.5166  -16.6574 C   0  0  0  0  0  0  0  0  0  0  0  0
   19.4244   -9.8875  -17.3257 O   0  0  0  0  0  0  0  0  0  0  0  0
   19.3748  -14.5796  -14.8961 C   0  0  0  0  0  0  0  0  0  0  0  0
   19.3815  -15.9473  -14.7255 C   0  0  0  0  0  0  0  0  0  0  0  0
   16.6339   -7.7297  -15.0088 C   0  0  0  0  0  0  0  0  0  0  0  0
   17.8128   -8.3631  -15.7164 C   0  0  2  0  0  0  0  0  0  0  0  0
   17.7196   -9.7825  -15.7984 N   0  0  0  0  0  0  0  0  0  0  0  0
   19.0906   -7.9137  -15.0736 C   0  0  0  0  0  0  0  0  0  0  0  0
   19.5941   -8.5956  -14.1503 O   0  0  0  0  0  0  0  0  0  0  0  0
   24.2786   -5.9477  -16.9835 C   0  0  0  0  0  0  0  0  0  0  0  0
   23.3917   -5.8638  -15.7507 C   0  0  0  0  0  0  0  0  0  0  0  0
   22.0342   -6.3893  -16.1552 C   0  0  2  0  0  0  0  0  0  0  0  0
   21.5297   -5.5333  -17.2817 C   0  0  0  0  0  0  0  0  0  0  0  0
   21.0413   -6.3216  -15.0154 C   0  0  2  0  0  0  0  0  0  0  0  0
   19.7295   -6.7256  -15.5039 N   0  0  0  0  0  0  0  0  0  0  0  0
   20.9564   -4.9063  -14.5949 C   0  0  0  0  0  0  0  0  0  0  0  0
   20.0553   -4.1728  -15.0646 O   0  0  0  0  0  0  0  0  0  0  0  0
   21.8405   -4.3375  -13.6893 O   0  0  0  0  0  0  0  0  0  0  0  0
  1  2  1  0
  2 12  2  0
  3  4  2  0
  3  2  1  0
  4  5  1  0
  5  6  1  0
  5 11  2  0
  6  7  1  0
  7  9  1  0
  7  8  1  6
  9 10  2  0
  9 15  1  0
 12 11  1  0
 14 13  1  1
 14 16  1  0
 15 14  1  0
 16 17  2  0
 18 19  1  0
 19 20  1  0
 20 22  1  0
 20 21  1  6
 22 24  1  0
 23 16  1  0
 22 23  1  6
 24 25  2  0
 24 26  1  0
M  END
$$$$
