YAI.pdb
     RDKit          3D

 26 26  0  0  1  0  0  0  0  0999 V2000
   19.4964  -22.9765  -14.1727 O   0  0  0  0  0  0  0  0  0  0  0  0
   20.7550  -22.8609  -13.5927 C   0  0  0  0  0  0  0  0  0  0  0  0
   20.9948  -21.8951  -12.6245 C   0  0  0  0  0  0  0  0  0  0  0  0
   22.2316  -21.7590  -12.0342 C   0  0  0  0  0  0  0  0  0  0  0  0
   23.2403  -22.5992  -12.4169 C   0  0  0  0  0  0  0  0  0  0  0  0
   24.5805  -22.5312  -11.8495 C   0  0  0  0  0  0  0  0  0  0  0  0
   25.3808  -21.3350  -12.2549 C   0  0  2  0  0  0  0  0  0  0  0  0
   26.3378  -21.6198  -13.3049 N   0  0  0  0  0  0  0  0  0  0  0  0
   26.1637  -20.9067  -11.0651 C   0  0  0  0  0  0  0  0  0  0  0  0
   27.2295  -21.5323  -10.8309 O   0  0  0  0  0  0  0  0  0  0  0  0
   23.0110  -23.5748  -13.3899 C   0  0  0  0  0  0  0  0  0  0  0  0
   21.7716  -23.7074  -13.9781 C   0  0  0  0  0  0  0  0  0  0  0  0
   26.3888  -17.8705   -8.8848 C   0  0  0  0  0  0  0  0  0  0  0  0
   26.7524  -19.2778   -9.3078 C   0  0  2  0  0  0  0  0  0  0  0  0
   25.7989  -19.8606  -10.1918 N   0  0  0  0  0  0  0  0  0  0  0  0
   26.9945  -20.1249   -8.0946 C   0  0  0  0  0  0  0  0  0  0  0  0
   26.3112  -21.1600   -7.9140 O   0  0  0  0  0  0  0  0  0  0  0  0
   31.3372  -20.6900   -3.7720 C   0  0  0  0  0  0  0  0  0  0  0  0
   29.9016  -21.0156   -4.1546 C   0  0  0  0  0  0  0  0  0  0  0  0
   29.6047  -20.2485   -5.4219 C   0  0  2  0  0  0  0  0  0  0  0  0
   29.7615  -18.7858   -5.1182 C   0  0  0  0  0  0  0  0  0  0  0  0
   28.1934  -20.4916   -5.9101 C   0  0  2  0  0  0  0  0  0  0  0  0
   27.9891  -19.7617   -7.1544 N   0  0  0  0  0  0  0  0  0  0  0  0
   27.2778  -19.9285   -4.8945 C   0  0  0  0  0  0  0  0  0  0  0  0
   26.9544  -20.6193   -3.9001 O   0  0  0  0  0  0  0  0  0  0  0  0
   26.7478  -18.6496   -4.9876 O   0  0  0  0  0  0  0  0  0  0  0  0
  1  2  1  0
  2 12  2  0
  3  4  2  0
  3  2  1  0
  4  5  1  0
  5  6  1  0
  5 11  2  0
  6  7  1  0
  7  9  1  0
  7  8  1  6
  9 10  2  0
  9 15  1  0
 12 11  1  0
 14 13  1  1
 14 16  1  0
 15 14  1  0
 16 17  2  0
 18 19  1  0
 19 20  1  0
 20 22  1  0
 20 21  1  1
 22 24  1  0
 23 16  1  0
 22 23  1  6
 24 25  2  0
 24 26  1  0
M  END
$$$$
