YAI.pdb
     RDKit          3D

 26 26  0  0  1  0  0  0  0  0999 V2000
   28.8059  -19.1666   -3.9220 O   0  0  0  0  0  0  0  0  0  0  0  0
   28.2765  -19.5927   -5.1353 C   0  0  0  0  0  0  0  0  0  0  0  0
   28.9881  -19.4105   -6.3134 C   0  0  0  0  0  0  0  0  0  0  0  0
   28.4872  -19.8230   -7.5281 C   0  0  0  0  0  0  0  0  0  0  0  0
   27.2599  -20.4248   -7.5646 C   0  0  0  0  0  0  0  0  0  0  0  0
   26.6486  -20.8938   -8.8012 C   0  0  0  0  0  0  0  0  0  0  0  0
   25.8753  -19.8615   -9.5575 C   0  0  2  0  0  0  0  0  0  0  0  0
   24.4528  -19.9031   -9.2849 N   0  0  0  0  0  0  0  0  0  0  0  0
   26.0439  -20.1596  -11.0048 C   0  0  0  0  0  0  0  0  0  0  0  0
   25.0323  -20.5864  -11.6187 O   0  0  0  0  0  0  0  0  0  0  0  0
   26.5346  -20.6135   -6.3859 C   0  0  0  0  0  0  0  0  0  0  0  0
   27.0398  -20.1991   -5.1722 C   0  0  0  0  0  0  0  0  0  0  0  0
   28.5664  -19.4528  -13.7208 C   0  0  0  0  0  0  0  0  0  0  0  0
   27.2346  -19.8898  -13.1490 C   0  0  2  0  0  0  0  0  0  0  0  0
   27.2442  -19.9990  -11.7283 N   0  0  0  0  0  0  0  0  0  0  0  0
   26.7896  -21.1581  -13.8134 C   0  0  0  0  0  0  0  0  0  0  0  0
   27.3575  -22.2391  -13.5307 O   0  0  0  0  0  0  0  0  0  0  0  0
   22.3393  -24.5658  -14.2476 C   0  0  0  0  0  0  0  0  0  0  0  0
   23.4408  -24.1040  -15.1894 C   0  0  0  0  0  0  0  0  0  0  0  0
   24.0528  -22.8692  -14.5704 C   0  0  2  0  0  0  0  0  0  0  0  0
   22.9925  -21.8061  -14.5271 C   0  0  0  0  0  0  0  0  0  0  0  0
   25.2214  -22.3528  -15.3809 C   0  0  2  0  0  0  0  0  0  0  0  0
   25.7335  -21.1401  -14.7563 N   0  0  0  0  0  0  0  0  0  0  0  0
   24.7000  -21.9933  -16.7173 C   0  0  0  0  0  0  0  0  0  0  0  0
   24.3129  -20.8218  -16.9374 O   0  0  0  0  0  0  0  0  0  0  0  0
   24.6157  -22.9041  -17.7606 O   0  0  0  0  0  0  0  0  0  0  0  0
  1  2  1  0
  2 12  2  0
  3  4  2  0
  3  2  1  0
  4  5  1  0
  5  6  1  0
  5 11  2  0
  6  7  1  0
  7  9  1  0
  7  8  1  1
  9 10  2  0
  9 15  1  0
 12 11  1  0
 14 13  1  6
 14 16  1  0
 15 14  1  0
 16 17  2  0
 18 19  1  0
 19 20  1  0
 20 22  1  0
 20 21  1  6
 22 24  1  0
 23 16  1  0
 22 23  1  1
 24 25  2  0
 24 26  1  0
M  END
$$$$
