YAI.pdb
     RDKit          3D

 26 26  0  0  1  0  0  0  0  0999 V2000
   28.4412  -14.8087  -19.3018 O   0  0  0  0  0  0  0  0  0  0  0  0
   27.9251  -15.4529  -18.1826 C   0  0  0  0  0  0  0  0  0  0  0  0
   28.3384  -16.7388  -17.8610 C   0  0  0  0  0  0  0  0  0  0  0  0
   27.8433  -17.3994  -16.7587 C   0  0  0  0  0  0  0  0  0  0  0  0
   26.9240  -16.7663  -15.9689 C   0  0  0  0  0  0  0  0  0  0  0  0
   26.3444  -17.3843  -14.7836 C   0  0  0  0  0  0  0  0  0  0  0  0
   25.2899  -18.4092  -15.0543 C   0  0  2  0  0  0  0  0  0  0  0  0
   24.0489  -17.8358  -15.5342 N   0  0  0  0  0  0  0  0  0  0  0  0
   24.9829  -19.0755  -13.7605 C   0  0  0  0  0  0  0  0  0  0  0  0
   24.3328  -18.4062  -12.9169 O   0  0  0  0  0  0  0  0  0  0  0  0
   26.5006  -15.4726  -16.2824 C   0  0  0  0  0  0  0  0  0  0  0  0
   26.9988  -14.8151  -17.3867 C   0  0  0  0  0  0  0  0  0  0  0  0
   24.5874  -22.4510  -12.3398 C   0  0  0  0  0  0  0  0  0  0  0  0
   24.9322  -20.9838  -12.1973 C   0  0  2  0  0  0  0  0  0  0  0  0
   25.3651  -20.3895  -13.4178 N   0  0  0  0  0  0  0  0  0  0  0  0
   25.9290  -20.8027  -11.0921 C   0  0  0  0  0  0  0  0  0  0  0  0
   27.1547  -20.8759  -11.3437 O   0  0  0  0  0  0  0  0  0  0  0  0
   26.3969  -16.9092   -7.6982 C   0  0  0  0  0  0  0  0  0  0  0  0
   26.8359  -18.1325   -8.4883 C   0  0  0  0  0  0  0  0  0  0  0  0
   26.2193  -19.3331   -7.8091 C   0  0  2  0  0  0  0  0  0  0  0  0
   26.9112  -19.5166   -6.4886 C   0  0  0  0  0  0  0  0  0  0  0  0
   26.3955  -20.5945   -8.6258 C   0  0  2  0  0  0  0  0  0  0  0  0
   25.4931  -20.5500   -9.7688 N   0  0  0  0  0  0  0  0  0  0  0  0
   25.9907  -21.7291   -7.7680 C   0  0  0  0  0  0  0  0  0  0  0  0
   24.7914  -22.0922   -7.7450 O   0  0  0  0  0  0  0  0  0  0  0  0
   26.8879  -22.4261   -6.9715 O   0  0  0  0  0  0  0  0  0  0  0  0
  1  2  1  0
  2 12  2  0
  3  4  2  0
  3  2  1  0
  4  5  1  0
  5  6  1  0
  5 11  2  0
  6  7  1  0
  7  9  1  0
  7  8  1  1
  9 10  2  0
  9 15  1  0
 12 11  1  0
 14 13  1  6
 14 16  1  0
 15 14  1  0
 16 17  2  0
 18 19  1  0
 19 20  1  0
 20 22  1  0
 20 21  1  1
 22 24  1  0
 23 16  1  0
 22 23  1  6
 24 25  2  0
 24 26  1  0
M  END
$$$$
