YAI.pdb
     RDKit          3D

 26 26  0  0  1  0  0  0  0  0999 V2000
   17.7649   -7.2002  -14.5530 O   0  0  0  0  0  0  0  0  0  0  0  0
   17.5879   -8.5340  -14.9045 C   0  0  0  0  0  0  0  0  0  0  0  0
   18.6655   -9.4095  -14.8984 C   0  0  0  0  0  0  0  0  0  0  0  0
   18.5180  -10.7349  -15.2421 C   0  0  0  0  0  0  0  0  0  0  0  0
   17.2780  -11.1898  -15.5960 C   0  0  0  0  0  0  0  0  0  0  0  0
   17.0247  -12.5737  -15.9747 C   0  0  0  0  0  0  0  0  0  0  0  0
   17.6487  -13.0026  -17.2641 C   0  0  2  0  0  0  0  0  0  0  0  0
   17.0869  -12.3319  -18.4190 N   0  0  0  0  0  0  0  0  0  0  0  0
   17.3632  -14.4529  -17.4289 C   0  0  0  0  0  0  0  0  0  0  0  0
   16.2150  -14.7631  -17.8382 O   0  0  0  0  0  0  0  0  0  0  0  0
   16.1864  -10.3183  -15.6059 C   0  0  0  0  0  0  0  0  0  0  0  0
   16.3385   -8.9925  -15.2612 C   0  0  0  0  0  0  0  0  0  0  0  0
   19.0966  -17.7438  -17.6886 C   0  0  0  0  0  0  0  0  0  0  0  0
   17.9164  -16.8564  -17.3551 C   0  0  2  0  0  0  0  0  0  0  0  0
   18.2790  -15.4921  -17.1615 N   0  0  0  0  0  0  0  0  0  0  0  0
   17.1751  -17.4197  -16.1799 C   0  0  0  0  0  0  0  0  0  0  0  0
   17.3934  -16.9648  -15.0325 O   0  0  0  0  0  0  0  0  0  0  0  0
   11.6863  -19.6698  -15.1828 C   0  0  0  0  0  0  0  0  0  0  0  0
   13.1117  -19.7124  -14.6537 C   0  0  0  0  0  0  0  0  0  0  0  0
   13.9834  -19.0570  -15.6992 C   0  0  2  0  0  0  0  0  0  0  0  0
   13.8979  -19.8846  -16.9499 C   0  0  0  0  0  0  0  0  0  0  0  0
   15.4308  -18.9886  -15.2637 C   0  0  2  0  0  0  0  0  0  0  0  0
   16.2320  -18.4603  -16.3600 N   0  0  0  0  0  0  0  0  0  0  0  0
   15.8731  -20.3751  -15.0013 C   0  0  0  0  0  0  0  0  0  0  0  0
   16.4960  -21.0055  -15.8874 O   0  0  0  0  0  0  0  0  0  0  0  0
   15.6290  -21.0269  -13.8009 O   0  0  0  0  0  0  0  0  0  0  0  0
  1  2  1  0
  2 12  2  0
  3  4  2  0
  3  2  1  0
  4  5  1  0
  5  6  1  0
  5 11  2  0
  6  7  1  0
  7  9  1  0
  7  8  1  6
  9 10  2  0
  9 15  1  0
 12 11  1  0
 14 13  1  1
 14 16  1  0
 15 14  1  0
 16 17  2  0
 18 19  1  0
 19 20  1  0
 20 22  1  0
 20 21  1  6
 22 24  1  0
 23 16  1  0
 22 23  1  6
 24 25  2  0
 24 26  1  0
M  END
$$$$
