YAI.pdb
     RDKit          3D

 26 26  0  0  1  0  0  0  0  0999 V2000
   21.4881  -18.3456  -14.5237 O   0  0  0  0  0  0  0  0  0  0  0  0
   21.3252  -17.0187  -14.9064 C   0  0  0  0  0  0  0  0  0  0  0  0
   22.1132  -16.4777  -15.9135 C   0  0  0  0  0  0  0  0  0  0  0  0
   21.9726  -15.1669  -16.3119 C   0  0  0  0  0  0  0  0  0  0  0  0
   21.0326  -14.3882  -15.6955 C   0  0  0  0  0  0  0  0  0  0  0  0
   20.8114  -12.9920  -16.0484 C   0  0  0  0  0  0  0  0  0  0  0  0
   19.7327  -12.7561  -17.0567 C   0  0  2  0  0  0  0  0  0  0  0  0
   20.0849  -13.2156  -18.3849 N   0  0  0  0  0  0  0  0  0  0  0  0
   19.5331  -11.2853  -17.1501 C   0  0  0  0  0  0  0  0  0  0  0  0
   20.5013  -10.6066  -17.5794 O   0  0  0  0  0  0  0  0  0  0  0  0
   20.2340  -14.9213  -14.6811 C   0  0  0  0  0  0  0  0  0  0  0  0
   20.3782  -16.2338  -14.2855 C   0  0  0  0  0  0  0  0  0  0  0  0
   16.8361   -8.6990  -17.0967 C   0  0  0  0  0  0  0  0  0  0  0  0
   18.2554   -9.1889  -16.9038 C   0  0  2  0  0  0  0  0  0  0  0  0
   18.3484  -10.6066  -16.7953 N   0  0  0  0  0  0  0  0  0  0  0  0
   18.8789   -8.4874  -15.7346 C   0  0  0  0  0  0  0  0  0  0  0  0
   19.0564   -9.1088  -14.6606 O   0  0  0  0  0  0  0  0  0  0  0  0
   23.1726   -4.4968  -14.6929 C   0  0  0  0  0  0  0  0  0  0  0  0
   21.8731   -5.0251  -14.1048 C   0  0  0  0  0  0  0  0  0  0  0  0
   21.2195   -5.8639  -15.1780 C   0  0  2  0  0  0  0  0  0  0  0  0
   21.0073   -4.9861  -16.3783 C   0  0  0  0  0  0  0  0  0  0  0  0
   19.8784   -6.4042  -14.7320 C   0  0  2  0  0  0  0  0  0  0  0  0
   19.2673   -7.1297  -15.8379 N   0  0  0  0  0  0  0  0  0  0  0  0
   19.0214   -5.2402  -14.4199 C   0  0  0  0  0  0  0  0  0  0  0  0
   18.2585   -4.7780  -15.3003 O   0  0  0  0  0  0  0  0  0  0  0  0
   19.0183   -4.6211  -13.1782 O   0  0  0  0  0  0  0  0  0  0  0  0
  1  2  1  0
  2 12  2  0
  3  4  2  0
  3  2  1  0
  4  5  1  0
  5  6  1  0
  5 11  2  0
  6  7  1  0
  7  9  1  0
  7  8  1  6
  9 10  2  0
  9 15  1  0
 12 11  1  0
 14 13  1  1
 14 16  1  0
 15 14  1  0
 16 17  2  0
 18 19  1  0
 19 20  1  0
 20 22  1  0
 20 21  1  6
 22 24  1  0
 23 16  1  0
 22 23  1  6
 24 25  2  0
 24 26  1  0
M  END
$$$$
