YAI.pdb
     RDKit          3D

 26 26  0  0  1  0  0  0  0  0999 V2000
   29.8820  -15.3183  -17.5412 O   0  0  0  0  0  0  0  0  0  0  0  0
   29.1016  -16.2306  -16.8393 C   0  0  0  0  0  0  0  0  0  0  0  0
   29.1308  -17.5787  -17.1701 C   0  0  0  0  0  0  0  0  0  0  0  0
   28.3683  -18.5031  -16.4915 C   0  0  0  0  0  0  0  0  0  0  0  0
   27.5671  -18.0738  -15.4699 C   0  0  0  0  0  0  0  0  0  0  0  0
   26.7257  -18.9766  -14.6955 C   0  0  0  0  0  0  0  0  0  0  0  0
   27.4220  -20.1833  -14.1527 C   0  0  2  0  0  0  0  0  0  0  0  0
   27.7738  -21.1461  -15.1767 N   0  0  0  0  0  0  0  0  0  0  0  0
   26.4708  -20.8627  -13.2332 C   0  0  0  0  0  0  0  0  0  0  0  0
   25.6359  -21.6451  -13.7559 O   0  0  0  0  0  0  0  0  0  0  0  0
   27.5294  -16.7201  -15.1280 C   0  0  0  0  0  0  0  0  0  0  0  0
   28.2943  -15.7982  -15.8100 C   0  0  0  0  0  0  0  0  0  0  0  0
   25.4633  -20.8382   -9.5877 C   0  0  0  0  0  0  0  0  0  0  0  0
   25.3087  -21.1037  -11.0700 C   0  0  2  0  0  0  0  0  0  0  0  0
   26.4398  -20.6932  -11.8331 N   0  0  0  0  0  0  0  0  0  0  0  0
   24.0350  -20.4869  -11.5651 C   0  0  0  0  0  0  0  0  0  0  0  0
   24.0109  -19.2707  -11.8672 O   0  0  0  0  0  0  0  0  0  0  0  0
   20.7576  -23.4907  -14.7031 C   0  0  0  0  0  0  0  0  0  0  0  0
   21.1794  -22.9251  -13.3557 C   0  0  0  0  0  0  0  0  0  0  0  0
   21.2978  -21.4290  -13.5300 C   0  0  2  0  0  0  0  0  0  0  0  0
   22.4167  -21.1687  -14.4978 C   0  0  0  0  0  0  0  0  0  0  0  0
   21.6168  -20.7332  -12.2249 C   0  0  2  0  0  0  0  0  0  0  0  0
   22.8623  -21.2701  -11.6926 N   0  0  0  0  0  0  0  0  0  0  0  0
   20.5327  -21.0678  -11.2763 C   0  0  0  0  0  0  0  0  0  0  0  0
   20.7379  -21.9112  -10.3724 O   0  0  0  0  0  0  0  0  0  0  0  0
   19.2752  -20.4844  -11.3368 O   0  0  0  0  0  0  0  0  0  0  0  0
  1  2  1  0
  2 12  2  0
  3  4  2  0
  3  2  1  0
  4  5  1  0
  5  6  1  0
  5 11  2  0
  6  7  1  0
  7  9  1  0
  7  8  1  6
  9 10  2  0
  9 15  1  0
 12 11  1  0
 14 13  1  1
 14 16  1  0
 15 14  1  0
 16 17  2  0
 18 19  1  0
 19 20  1  0
 20 22  1  0
 20 21  1  6
 22 24  1  0
 23 16  1  0
 22 23  1  1
 24 25  2  0
 24 26  1  0
M  END
$$$$
