YAI.pdb
     RDKit          3D

 26 26  0  0  1  0  0  0  0  0999 V2000
   21.0195  -16.0659  -19.4538 O   0  0  0  0  0  0  0  0  0  0  0  0
   21.2953  -16.6198  -18.2085 C   0  0  0  0  0  0  0  0  0  0  0  0
   20.6011  -16.1958  -17.0833 C   0  0  0  0  0  0  0  0  0  0  0  0
   20.8543  -16.7275  -15.8384 C   0  0  0  0  0  0  0  0  0  0  0  0
   21.8133  -17.6948  -15.7178 C   0  0  0  0  0  0  0  0  0  0  0  0
   22.1507  -18.3155  -14.4436 C   0  0  0  0  0  0  0  0  0  0  0  0
   21.5984  -19.6903  -14.2420 C   0  0  2  0  0  0  0  0  0  0  0  0
   20.2624  -19.6902  -13.6814 N   0  0  0  0  0  0  0  0  0  0  0  0
   22.4770  -20.3765  -13.2575 C   0  0  0  0  0  0  0  0  0  0  0  0
   22.2992  -20.0953  -12.0444 O   0  0  0  0  0  0  0  0  0  0  0  0
   22.5182  -18.1294  -16.8426 C   0  0  0  0  0  0  0  0  0  0  0  0
   22.2615  -17.5945  -18.0868 C   0  0  0  0  0  0  0  0  0  0  0  0
   24.7380  -23.3187  -12.9494 C   0  0  0  0  0  0  0  0  0  0  0  0
   24.2642  -21.9322  -12.5691 C   0  0  2  0  0  0  0  0  0  0  0  0
   23.4834  -21.3091  -13.5852 N   0  0  0  0  0  0  0  0  0  0  0  0
   25.4354  -21.0918  -12.1569 C   0  0  0  0  0  0  0  0  0  0  0  0
   25.8614  -20.2001  -12.9280 O   0  0  0  0  0  0  0  0  0  0  0  0
   26.8450  -20.4721   -6.7430 C   0  0  0  0  0  0  0  0  0  0  0  0
   26.5197  -20.1296   -8.1888 C   0  0  0  0  0  0  0  0  0  0  0  0
   27.5391  -20.8441   -9.0449 C   0  0  2  0  0  0  0  0  0  0  0  0
   28.8933  -20.2947   -8.6977 C   0  0  0  0  0  0  0  0  0  0  0  0
   27.2914  -20.6206  -10.5207 C   0  0  2  0  0  0  0  0  0  0  0  0
   26.0609  -21.3003  -10.9039 N   0  0  0  0  0  0  0  0  0  0  0  0
   28.4101  -21.2544  -11.2513 C   0  0  0  0  0  0  0  0  0  0  0  0
   29.4242  -20.5775  -11.5410 O   0  0  0  0  0  0  0  0  0  0  0  0
   28.3944  -22.5862  -11.6404 O   0  0  0  0  0  0  0  0  0  0  0  0
  1  2  1  0
  2 12  2  0
  3  4  2  0
  3  2  1  0
  4  5  1  0
  5  6  1  0
  5 11  2  0
  6  7  1  0
  7  9  1  0
  7  8  1  1
  9 10  2  0
  9 15  1  0
 12 11  1  0
 14 13  1  6
 14 16  1  0
 15 14  1  0
 16 17  2  0
 18 19  1  0
 19 20  1  0
 20 22  1  0
 20 21  1  1
 22 24  1  0
 23 16  1  0
 22 23  1  6
 24 25  2  0
 24 26  1  0
M  END
$$$$
