TYH.pdb
     RDKit          3D

 30 31  0  0  1  0  0  0  0  0999 V2000
    6.6743  -15.0887   17.5407 C   0  0  0  0  0  0  0  0  0  0  0  0
    7.3255  -15.1541   18.8883 C   0  0  1  0  0  0  0  0  0  0  0  0
    8.5809  -15.7540   18.8004 O   0  0  0  0  0  0  0  0  0  0  0  0
    7.4589  -13.8007   19.5406 C   0  0  2  0  0  0  0  0  0  0  0  0
    8.0950  -12.8911   18.6157 N   0  0  0  0  0  0  0  0  0  0  0  0
    8.1180  -13.8476   20.8477 C   0  0  0  0  0  0  0  0  0  0  0  0
    9.3697  -13.6939   20.8773 O   0  0  0  0  0  0  0  0  0  0  0  0
    9.4562  -14.2063   29.5723 O   0  0  0  0  0  0  0  0  0  0  0  0
    8.8709  -14.1641   28.3151 C   0  0  0  0  0  0  0  0  0  0  0  0
    8.2200  -15.2596   27.7712 C   0  0  0  0  0  0  0  0  0  0  0  0
    7.6543  -15.1609   26.5128 C   0  0  0  0  0  0  0  0  0  0  0  0
    7.7169  -14.0006   25.7763 C   0  0  0  0  0  0  0  0  0  0  0  0
    7.0986  -13.9384   24.4344 C   0  0  0  0  0  0  0  0  0  0  0  0
    8.1338  -14.2475   23.3451 C   0  0  2  0  0  0  0  0  0  0  0  0
    7.4779  -14.0506   22.0875 N   0  0  0  0  0  0  0  0  0  0  0  0
    8.6538  -15.5721   23.5875 C   0  0  0  0  0  0  0  0  0  0  0  0
    7.9216  -16.5792   23.5514 O   0  0  0  0  0  0  0  0  0  0  0  0
    8.3612  -12.9218   26.3187 C   0  0  0  0  0  0  0  0  0  0  0  0
    8.9319  -13.0127   27.5819 C   0  0  0  0  0  0  0  0  0  0  0  0
   10.0249  -15.7472   23.8741 N   0  0  0  0  0  0  0  0  0  0  0  0
   10.6067  -17.0715   24.1440 C   0  0  1  0  0  0  0  0  0  0  0  0
   11.9330  -17.2194   23.4850 C   0  0  0  0  0  0  0  0  0  0  0  0
   11.7708  -17.2701   22.0165 C   0  0  0  0  0  0  0  0  0  0  0  0
   10.5412  -17.2421   21.3461 C   0  0  0  0  0  0  0  0  0  0  0  0
   10.7912  -17.3055   20.0285 N   0  0  0  0  0  0  0  0  0  0  0  0
   12.1181  -17.3727   19.8222 C   0  0  0  0  0  0  0  0  0  0  0  0
   12.6809  -17.3498   21.0277 N   0  0  0  0  0  0  0  0  0  0  0  0
   10.6692  -17.3340   25.5804 C   0  0  0  0  0  0  0  0  0  0  0  0
   11.1235  -18.4097   26.0093 O   0  0  0  0  0  0  0  0  0  0  0  0
   10.2147  -16.3702   26.5107 O   0  0  0  0  0  0  0  0  0  0  0  0
  2  3  1  0
  2  1  1  6
  4  2  1  0
  4  5  1  6
  6  4  1  0
  6  7  2  0
  9  8  1  0
 10  9  2  0
 11 10  1  0
 12 11  2  0
 12 18  1  0
 14 13  1  1
 13 12  1  0
 14 15  1  0
 15  6  1  0
 16 14  1  0
 17 16  2  0
 18 19  2  0
 19  9  1  0
 20 16  1  0
 21 22  1  1
 21 20  1  0
 23 22  1  0
 24 23  2  0
 25 24  1  0
 26 25  1  0
 26 27  2  0
 27 23  1  0
 28 30  1  0
 28 21  1  0
 29 28  2  0
M  END
$$$$
