TYH.pdb
     RDKit          3D

 30 31  0  0  1  0  0  0  0  0999 V2000
    8.4342  -13.1194   19.0890 C   0  0  0  0  0  0  0  0  0  0  0  0
    8.2543  -14.1080   17.9778 C   0  0  1  0  0  0  0  0  0  0  0  0
    7.3635  -13.6194   17.0231 O   0  0  0  0  0  0  0  0  0  0  0  0
    9.5540  -14.4808   17.3095 C   0  0  2  0  0  0  0  0  0  0  0  0
    9.2684  -15.1793   16.0774 N   0  0  0  0  0  0  0  0  0  0  0  0
   10.4703  -15.2123   18.1873 C   0  0  0  0  0  0  0  0  0  0  0  0
   10.4114  -16.4723   18.1745 O   0  0  0  0  0  0  0  0  0  0  0  0
   17.8342  -14.4588   17.3694 O   0  0  0  0  0  0  0  0  0  0  0  0
   16.6865  -14.4144   18.1478 C   0  0  0  0  0  0  0  0  0  0  0  0
   15.5802  -13.6649   17.7822 C   0  0  0  0  0  0  0  0  0  0  0  0
   14.4623  -13.6574   18.5970 C   0  0  0  0  0  0  0  0  0  0  0  0
   14.4118  -14.3761   19.7690 C   0  0  0  0  0  0  0  0  0  0  0  0
   13.1964  -14.3398   20.6107 C   0  0  0  0  0  0  0  0  0  0  0  0
   12.1414  -15.3206   20.0827 C   0  0  2  0  0  0  0  0  0  0  0  0
   11.4209  -14.6340   19.0533 N   0  0  0  0  0  0  0  0  0  0  0  0
   11.3585  -15.7797   21.2052 C   0  0  0  0  0  0  0  0  0  0  0  0
   10.1172  -15.6763   21.2233 O   0  0  0  0  0  0  0  0  0  0  0  0
   15.5077  -15.1146   20.1248 C   0  0  0  0  0  0  0  0  0  0  0  0
   16.6343  -15.1275   19.3123 C   0  0  0  0  0  0  0  0  0  0  0  0
   12.0011  -16.3631   22.3186 N   0  0  0  0  0  0  0  0  0  0  0  0
   11.4789  -17.5676   22.9831 C   0  0  1  0  0  0  0  0  0  0  0  0
   11.1577  -18.6306   21.9920 C   0  0  0  0  0  0  0  0  0  0  0  0
    9.7466  -18.5213   21.5651 C   0  0  0  0  0  0  0  0  0  0  0  0
    8.8727  -17.4951   21.9466 C   0  0  0  0  0  0  0  0  0  0  0  0
    7.6851  -17.7314   21.3666 N   0  0  0  0  0  0  0  0  0  0  0  0
    7.7551  -18.8565   20.6338 C   0  0  0  0  0  0  0  0  0  0  0  0
    8.9990  -19.3091   20.7697 N   0  0  0  0  0  0  0  0  0  0  0  0
   12.3978  -18.0351   24.0190 C   0  0  0  0  0  0  0  0  0  0  0  0
   12.0854  -18.9813   24.7638 O   0  0  0  0  0  0  0  0  0  0  0  0
   13.6599  -17.4212   24.1948 O   0  0  0  0  0  0  0  0  0  0  0  0
  2  3  1  0
  2  1  1  1
  4  2  1  0
  4  5  1  6
  6  4  1  0
  6  7  2  0
  9  8  1  0
 10  9  2  0
 11 10  1  0
 12 11  2  0
 12 18  1  0
 14 13  1  1
 13 12  1  0
 14 15  1  0
 15  6  1  0
 16 14  1  0
 17 16  2  0
 18 19  2  0
 19  9  1  0
 20 16  1  0
 21 22  1  6
 21 20  1  0
 23 22  1  0
 24 23  2  0
 25 24  1  0
 26 25  1  0
 26 27  2  0
 27 23  1  0
 28 30  1  0
 28 21  1  0
 29 28  2  0
M  END
$$$$
