TYH.pdb
     RDKit          3D

 30 31  0  0  1  0  0  0  0  0999 V2000
    8.7256  -19.1474   18.2082 C   0  0  0  0  0  0  0  0  0  0  0  0
    8.9251  -18.3889   19.4845 C   0  0  1  0  0  0  0  0  0  0  0  0
    9.9548  -18.9524   20.2367 O   0  0  0  0  0  0  0  0  0  0  0  0
    9.2103  -16.9253   19.2576 C   0  0  2  0  0  0  0  0  0  0  0  0
   10.3428  -16.7967   18.3698 N   0  0  0  0  0  0  0  0  0  0  0  0
    9.3621  -16.1632   20.4991 C   0  0  0  0  0  0  0  0  0  0  0  0
   10.4989  -16.1563   21.0458 O   0  0  0  0  0  0  0  0  0  0  0  0
    6.9927  -11.7223   27.8016 O   0  0  0  0  0  0  0  0  0  0  0  0
    7.0072  -12.4032   26.5928 C   0  0  0  0  0  0  0  0  0  0  0  0
    7.6005  -11.8729   25.4587 C   0  0  0  0  0  0  0  0  0  0  0  0
    7.5853  -12.5963   24.2797 C   0  0  0  0  0  0  0  0  0  0  0  0
    6.9952  -13.8361   24.1948 C   0  0  0  0  0  0  0  0  0  0  0  0
    7.0014  -14.5754   22.9140 C   0  0  0  0  0  0  0  0  0  0  0  0
    8.4387  -14.8443   22.4497 C   0  0  2  0  0  0  0  0  0  0  0  0
    8.3465  -15.4298   21.1462 N   0  0  0  0  0  0  0  0  0  0  0  0
    9.0906  -15.6447   23.4587 C   0  0  0  0  0  0  0  0  0  0  0  0
    9.9025  -15.1494   24.2632 O   0  0  0  0  0  0  0  0  0  0  0  0
    6.4107  -14.3547   25.3184 C   0  0  0  0  0  0  0  0  0  0  0  0
    6.4217  -13.6348   26.5063 C   0  0  0  0  0  0  0  0  0  0  0  0
    8.8115  -17.0256   23.5492 N   0  0  0  0  0  0  0  0  0  0  0  0
    9.3368  -17.8620   24.6397 C   0  0  1  0  0  0  0  0  0  0  0  0
    8.3417  -18.8874   25.0566 C   0  0  0  0  0  0  0  0  0  0  0  0
    8.2568  -18.9469   26.5312 C   0  0  0  0  0  0  0  0  0  0  0  0
    9.0428  -18.1893   27.4089 C   0  0  0  0  0  0  0  0  0  0  0  0
    8.6846  -18.5115   28.6621 N   0  0  0  0  0  0  0  0  0  0  0  0
    7.7094  -19.4366   28.6304 C   0  0  0  0  0  0  0  0  0  0  0  0
    7.4723  -19.6794   27.3438 N   0  0  0  0  0  0  0  0  0  0  0  0
   10.6223  -18.4536   24.2744 C   0  0  0  0  0  0  0  0  0  0  0  0
   11.2934  -19.0803   25.1137 O   0  0  0  0  0  0  0  0  0  0  0  0
   11.1284  -18.3251   22.9599 O   0  0  0  0  0  0  0  0  0  0  0  0
  2  3  1  0
  2  1  1  6
  4  2  1  0
  4  5  1  6
  6  4  1  0
  6  7  2  0
  9  8  1  0
 10  9  2  0
 11 10  1  0
 12 11  2  0
 12 18  1  0
 14 13  1  1
 13 12  1  0
 14 15  1  0
 15  6  1  0
 16 14  1  0
 17 16  2  0
 18 19  2  0
 19  9  1  0
 20 16  1  0
 21 22  1  6
 21 20  1  0
 23 22  1  0
 24 23  2  0
 25 24  1  0
 26 25  1  0
 26 27  2  0
 27 23  1  0
 28 30  1  0
 28 21  1  0
 29 28  2  0
M  END
$$$$
