TYH.pdb
     RDKit          3D

 30 31  0  0  1  0  0  0  0  0999 V2000
    7.3244  -19.9195   22.6248 C   0  0  0  0  0  0  0  0  0  0  0  0
    7.8558  -19.9760   21.2252 C   0  0  1  0  0  0  0  0  0  0  0  0
    7.1303  -20.8874   20.4592 O   0  0  0  0  0  0  0  0  0  0  0  0
    7.8535  -18.6309   20.5431 C   0  0  2  0  0  0  0  0  0  0  0  0
    8.2880  -18.7942   19.1749 N   0  0  0  0  0  0  0  0  0  0  0  0
    8.6106  -17.6091   21.2699 C   0  0  0  0  0  0  0  0  0  0  0  0
    9.8682  -17.7072   21.2764 O   0  0  0  0  0  0  0  0  0  0  0  0
    7.7359  -12.4026   17.4097 O   0  0  0  0  0  0  0  0  0  0  0  0
    7.8352  -12.8540   18.7179 C   0  0  0  0  0  0  0  0  0  0  0  0
    9.0350  -12.8393   19.4104 C   0  0  0  0  0  0  0  0  0  0  0  0
    9.0757  -13.3019   20.7134 C   0  0  0  0  0  0  0  0  0  0  0  0
    7.9543  -13.7806   21.3506 C   0  0  0  0  0  0  0  0  0  0  0  0
    8.0425  -14.2659   22.7448 C   0  0  0  0  0  0  0  0  0  0  0  0
    8.7839  -15.6076   22.8064 C   0  0  2  0  0  0  0  0  0  0  0  0
    8.0595  -16.5159   21.9694 N   0  0  0  0  0  0  0  0  0  0  0  0
    8.9063  -15.9857   24.1941 C   0  0  0  0  0  0  0  0  0  0  0  0
    7.9057  -16.1720   24.9123 O   0  0  0  0  0  0  0  0  0  0  0  0
    6.7720  -13.7927   20.6614 C   0  0  0  0  0  0  0  0  0  0  0  0
    6.7226  -13.3299   19.3526 C   0  0  0  0  0  0  0  0  0  0  0  0
   10.1858  -16.1527   24.7667 N   0  0  0  0  0  0  0  0  0  0  0  0
   10.4217  -17.0453   25.9124 C   0  0  1  0  0  0  0  0  0  0  0  0
    9.8406  -18.3941   25.6705 C   0  0  0  0  0  0  0  0  0  0  0  0
   10.0918  -19.2741   26.8314 C   0  0  0  0  0  0  0  0  0  0  0  0
   10.3010  -18.8282   28.1428 C   0  0  0  0  0  0  0  0  0  0  0  0
   10.4944  -19.9080   28.9169 N   0  0  0  0  0  0  0  0  0  0  0  0
   10.4196  -21.0216   28.1673 C   0  0  0  0  0  0  0  0  0  0  0  0
   10.1780  -20.6144   26.9238 N   0  0  0  0  0  0  0  0  0  0  0  0
   11.8434  -17.1060   26.2460 C   0  0  0  0  0  0  0  0  0  0  0  0
   12.7084  -16.9254   25.3704 O   0  0  0  0  0  0  0  0  0  0  0  0
   12.2633  -17.3713   27.5704 O   0  0  0  0  0  0  0  0  0  0  0  0
  2  3  1  0
  2  1  1  1
  4  2  1  0
  4  5  1  6
  6  4  1  0
  6  7  2  0
  9  8  1  0
 10  9  2  0
 11 10  1  0
 12 11  2  0
 12 18  1  0
 14 13  1  1
 13 12  1  0
 14 15  1  0
 15  6  1  0
 16 14  1  0
 17 16  2  0
 18 19  2  0
 19  9  1  0
 20 16  1  0
 21 22  1  6
 21 20  1  0
 23 22  1  0
 24 23  2  0
 25 24  1  0
 26 25  1  0
 26 27  2  0
 27 23  1  0
 28 30  1  0
 28 21  1  0
 29 28  2  0
M  END
$$$$
