TYH.pdb
     RDKit          3D

 30 31  0  0  1  0  0  0  0  0999 V2000
    6.8367  -16.6067   18.8854 C   0  0  0  0  0  0  0  0  0  0  0  0
    7.5658  -16.5791   20.1938 C   0  0  1  0  0  0  0  0  0  0  0  0
    8.8177  -17.1807   20.0730 O   0  0  0  0  0  0  0  0  0  0  0  0
    7.7286  -15.1843   20.7443 C   0  0  2  0  0  0  0  0  0  0  0  0
    8.4196  -14.3700   19.7713 N   0  0  0  0  0  0  0  0  0  0  0  0
    8.3514  -15.1514   22.0696 C   0  0  0  0  0  0  0  0  0  0  0  0
    9.5677  -14.8237   22.1361 O   0  0  0  0  0  0  0  0  0  0  0  0
    6.0747   -9.9142   26.6875 O   0  0  0  0  0  0  0  0  0  0  0  0
    6.3351  -11.2540   26.4382 C   0  0  0  0  0  0  0  0  0  0  0  0
    5.5474  -12.2651   26.9641 C   0  0  0  0  0  0  0  0  0  0  0  0
    5.8537  -13.5843   26.6825 C   0  0  0  0  0  0  0  0  0  0  0  0
    6.9243  -13.9292   25.8903 C   0  0  0  0  0  0  0  0  0  0  0  0
    7.2162  -15.3525   25.6146 C   0  0  0  0  0  0  0  0  0  0  0  0
    8.3381  -15.4851   24.5766 C   0  0  2  0  0  0  0  0  0  0  0  0
    7.7121  -15.4546   23.2892 N   0  0  0  0  0  0  0  0  0  0  0  0
    9.0927  -16.6762   24.8858 C   0  0  0  0  0  0  0  0  0  0  0  0
    8.6516  -17.8138   24.6347 O   0  0  0  0  0  0  0  0  0  0  0  0
    7.6988  -12.9261   25.3736 C   0  0  0  0  0  0  0  0  0  0  0  0
    7.3980  -11.5988   25.6516 C   0  0  0  0  0  0  0  0  0  0  0  0
   10.3646  -16.5658   25.4882 N   0  0  0  0  0  0  0  0  0  0  0  0
   11.1318  -17.7441   25.9219 C   0  0  1  0  0  0  0  0  0  0  0  0
   12.5914  -17.5406   25.7135 C   0  0  0  0  0  0  0  0  0  0  0  0
   12.8924  -17.4425   24.2695 C   0  0  0  0  0  0  0  0  0  0  0  0
   12.0507  -17.8933   23.2445 C   0  0  0  0  0  0  0  0  0  0  0  0
   12.6562  -17.6360   22.0741 N   0  0  0  0  0  0  0  0  0  0  0  0
   13.8420  -17.0436   22.2985 C   0  0  0  0  0  0  0  0  0  0  0  0
   13.9589  -16.9396   23.6199 N   0  0  0  0  0  0  0  0  0  0  0  0
   10.8132  -18.0977   27.3038 C   0  0  0  0  0  0  0  0  0  0  0  0
   10.0208  -17.4068   27.9687 O   0  0  0  0  0  0  0  0  0  0  0  0
   11.3996  -19.2322   27.9119 O   0  0  0  0  0  0  0  0  0  0  0  0
  2  3  1  0
  2  1  1  6
  4  2  1  0
  4  5  1  6
  6  4  1  0
  6  7  2  0
  9  8  1  0
 10  9  2  0
 11 10  1  0
 12 11  2  0
 12 18  1  0
 14 13  1  1
 13 12  1  0
 14 15  1  0
 15  6  1  0
 16 14  1  0
 17 16  2  0
 18 19  2  0
 19  9  1  0
 20 16  1  0
 21 22  1  1
 21 20  1  0
 23 22  1  0
 24 23  2  0
 25 24  1  0
 26 25  1  0
 26 27  2  0
 27 23  1  0
 28 30  1  0
 28 21  1  0
 29 28  2  0
M  END
$$$$
