TYH.pdb
     RDKit          3D

 30 31  0  0  1  0  0  0  0  0999 V2000
    7.4333  -16.0440   19.1600 C   0  0  0  0  0  0  0  0  0  0  0  0
    8.0222  -14.7021   18.8492 C   0  0  1  0  0  0  0  0  0  0  0  0
    7.6105  -14.2625   17.5919 O   0  0  0  0  0  0  0  0  0  0  0  0
    7.6810  -13.6589   19.8838 C   0  0  2  0  0  0  0  0  0  0  0  0
    8.0143  -12.3523   19.3651 N   0  0  0  0  0  0  0  0  0  0  0  0
    8.2737  -13.9261   21.1963 C   0  0  0  0  0  0  0  0  0  0  0  0
    9.5133  -13.7333   21.3284 O   0  0  0  0  0  0  0  0  0  0  0  0
    6.4364  -10.5145   27.5712 O   0  0  0  0  0  0  0  0  0  0  0  0
    6.6061  -11.6768   26.8327 C   0  0  0  0  0  0  0  0  0  0  0  0
    7.5751  -12.6141   27.1514 C   0  0  0  0  0  0  0  0  0  0  0  0
    7.6996  -13.7555   26.3798 C   0  0  0  0  0  0  0  0  0  0  0  0
    6.8856  -13.9931   25.2964 C   0  0  0  0  0  0  0  0  0  0  0  0
    7.0530  -15.2268   24.4982 C   0  0  0  0  0  0  0  0  0  0  0  0
    8.1673  -15.0530   23.4580 C   0  0  2  0  0  0  0  0  0  0  0  0
    7.5813  -14.3829   22.3365 N   0  0  0  0  0  0  0  0  0  0  0  0
    8.7358  -16.3531   23.1927 C   0  0  0  0  0  0  0  0  0  0  0  0
    8.2842  -17.0948   22.2996 O   0  0  0  0  0  0  0  0  0  0  0  0
    5.9302  -13.0636   24.9864 C   0  0  0  0  0  0  0  0  0  0  0  0
    5.7987  -11.9148   25.7562 C   0  0  0  0  0  0  0  0  0  0  0  0
    9.8319  -16.8100   23.9561 N   0  0  0  0  0  0  0  0  0  0  0  0
   10.8939  -17.6491   23.3791 C   0  0  1  0  0  0  0  0  0  0  0  0
   11.4724  -17.0200   22.1606 C   0  0  0  0  0  0  0  0  0  0  0  0
   12.4944  -17.9062   21.5644 C   0  0  0  0  0  0  0  0  0  0  0  0
   12.6062  -19.2799   21.8147 C   0  0  0  0  0  0  0  0  0  0  0  0
   13.6449  -19.7433   21.1012 N   0  0  0  0  0  0  0  0  0  0  0  0
   14.2029  -18.7359   20.4075 C   0  0  0  0  0  0  0  0  0  0  0  0
   13.4957  -17.6480   20.7024 N   0  0  0  0  0  0  0  0  0  0  0  0
   11.9137  -17.9644   24.3774 C   0  0  0  0  0  0  0  0  0  0  0  0
   12.8662  -18.7135   24.0962 O   0  0  0  0  0  0  0  0  0  0  0  0
   11.8377  -17.4241   25.6824 O   0  0  0  0  0  0  0  0  0  0  0  0
  2  3  1  0
  2  1  1  1
  4  2  1  0
  4  5  1  6
  6  4  1  0
  6  7  2  0
  9  8  1  0
 10  9  2  0
 11 10  1  0
 12 11  2  0
 12 18  1  0
 14 13  1  1
 13 12  1  0
 14 15  1  0
 15  6  1  0
 16 14  1  0
 17 16  2  0
 18 19  2  0
 19  9  1  0
 20 16  1  0
 21 22  1  6
 21 20  1  0
 23 22  1  0
 24 23  2  0
 25 24  1  0
 26 25  1  0
 26 27  2  0
 27 23  1  0
 28 30  1  0
 28 21  1  0
 29 28  2  0
M  END
$$$$
