TYH.pdb
     RDKit          3D

 30 31  0  0  1  0  0  0  0  0999 V2000
    6.8924  -16.3184   19.0542 C   0  0  0  0  0  0  0  0  0  0  0  0
    7.7177  -15.2064   18.4830 C   0  0  1  0  0  0  0  0  0  0  0  0
    7.4029  -14.9984   17.1409 O   0  0  0  0  0  0  0  0  0  0  0  0
    7.5633  -13.9126   19.2426 C   0  0  2  0  0  0  0  0  0  0  0  0
    8.1190  -12.8345   18.4575 N   0  0  0  0  0  0  0  0  0  0  0  0
    8.1004  -13.9700   20.6040 C   0  0  0  0  0  0  0  0  0  0  0  0
    9.3532  -14.0356   20.7362 O   0  0  0  0  0  0  0  0  0  0  0  0
    8.5738  -13.9114   29.4379 O   0  0  0  0  0  0  0  0  0  0  0  0
    8.1190  -13.8684   28.1278 C   0  0  0  0  0  0  0  0  0  0  0  0
    7.3110  -14.8614   27.5983 C   0  0  0  0  0  0  0  0  0  0  0  0
    6.8867  -14.7670   26.2851 C   0  0  0  0  0  0  0  0  0  0  0  0
    7.2436  -13.7103   25.4797 C   0  0  0  0  0  0  0  0  0  0  0  0
    6.7678  -13.6488   24.0808 C   0  0  0  0  0  0  0  0  0  0  0  0
    7.8555  -14.1379   23.1157 C   0  0  2  0  0  0  0  0  0  0  0  0
    7.3406  -13.9587   21.7917 N   0  0  0  0  0  0  0  0  0  0  0  0
    8.2017  -15.4904   23.4829 C   0  0  0  0  0  0  0  0  0  0  0  0
    7.3897  -16.4279   23.3674 O   0  0  0  0  0  0  0  0  0  0  0  0
    8.0419  -12.7324   26.0083 C   0  0  0  0  0  0  0  0  0  0  0  0
    8.4722  -12.8197   27.3262 C   0  0  0  0  0  0  0  0  0  0  0  0
    9.4893  -15.7740   23.9873 N   0  0  0  0  0  0  0  0  0  0  0  0
    9.9132  -17.1403   24.3314 C   0  0  1  0  0  0  0  0  0  0  0  0
   11.1497  -17.5200   23.5950 C   0  0  0  0  0  0  0  0  0  0  0  0
   10.8704  -17.6237   22.1470 C   0  0  0  0  0  0  0  0  0  0  0  0
    9.8362  -18.3826   21.5843 C   0  0  0  0  0  0  0  0  0  0  0  0
    9.8961  -18.2323   20.2514 N   0  0  0  0  0  0  0  0  0  0  0  0
   10.9160  -17.4161   19.9333 C   0  0  0  0  0  0  0  0  0  0  0  0
   11.4823  -17.0662   21.0854 N   0  0  0  0  0  0  0  0  0  0  0  0
   10.0596  -17.2956   25.7773 C   0  0  0  0  0  0  0  0  0  0  0  0
   10.3995  -18.3876   26.2666 O   0  0  0  0  0  0  0  0  0  0  0  0
    9.8176  -16.2076   26.6482 O   0  0  0  0  0  0  0  0  0  0  0  0
  2  3  1  0
  2  1  1  1
  4  2  1  0
  4  5  1  6
  6  4  1  0
  6  7  2  0
  9  8  1  0
 10  9  2  0
 11 10  1  0
 12 11  2  0
 12 18  1  0
 14 13  1  1
 13 12  1  0
 14 15  1  0
 15  6  1  0
 16 14  1  0
 17 16  2  0
 18 19  2  0
 19  9  1  0
 20 16  1  0
 21 22  1  6
 21 20  1  0
 23 22  1  0
 24 23  2  0
 25 24  1  0
 26 25  1  0
 26 27  2  0
 27 23  1  0
 28 30  1  0
 28 21  1  0
 29 28  2  0
M  END
$$$$
