KPK.pdb
     RDKit          3D

 26 26  0  0  1  0  0  0  0  0999 V2000
    5.9328  -15.1879   22.6905 N   0  0  0  0  0  0  0  0  0  0  0  0
    7.2938  -15.5634   22.3165 C   0  0  1  0  0  0  0  0  0  0  0  0
    7.5147  -14.9794   20.9475 C   0  0  0  0  0  0  0  0  0  0  0  0
    7.3194  -13.5110   20.8236 C   0  0  0  0  0  0  0  0  0  0  0  0
    7.5723  -13.0883   19.3822 C   0  0  0  0  0  0  0  0  0  0  0  0
    8.9648  -12.6191   19.1271 C   0  0  0  0  0  0  0  0  0  0  0  0
    9.0285  -12.1877   17.7197 N   0  0  0  0  0  0  0  0  0  0  0  0
    8.2132  -15.0673   23.3467 C   0  0  0  0  0  0  0  0  0  0  0  0
    9.4656  -15.2477   23.0744 O   0  0  0  0  0  0  0  0  0  0  0  0
    7.8641  -14.4361   24.5592 N   0  0  0  0  0  0  0  0  0  0  0  0
    6.4776  -14.1454   24.9164 C   0  0  0  0  0  0  0  0  0  0  0  0
    6.5352  -13.0448   25.9294 C   0  0  0  0  0  0  0  0  0  0  0  0
    7.9714  -12.8008   26.2243 C   0  0  0  0  0  0  0  0  0  0  0  0
    8.6905  -14.0045   25.6225 C   0  0  1  0  0  0  0  0  0  0  0  0
    8.8333  -15.0075   26.7244 C   0  0  0  0  0  0  0  0  0  0  0  0
    7.7753  -15.4724   27.2197 O   0  0  0  0  0  0  0  0  0  0  0  0
   10.1254  -15.3917   27.1633 N   0  0  0  0  0  0  0  0  0  0  0  0
   10.3941  -16.7871   27.5635 C   0  0  1  0  0  0  0  0  0  0  0  0
   11.4914  -17.3508   26.7015 C   0  0  0  0  0  0  0  0  0  0  0  0
   11.0650  -18.2817   25.6371 C   0  0  0  0  0  0  0  0  0  0  0  0
   12.1055  -18.7631   24.6888 C   0  0  0  0  0  0  0  0  0  0  0  0
   11.6220  -19.6574   23.5894 C   0  0  0  0  0  0  0  0  0  0  0  0
   12.7008  -20.0539   22.7124 N   0  0  0  0  0  0  0  0  0  0  0  0
   10.6806  -16.8310   29.0112 C   0  0  0  0  0  0  0  0  0  0  0  0
   10.5503  -18.0232   29.7506 O   0  0  0  0  0  0  0  0  0  0  0  0
   11.0504  -15.8281   29.6623 O   0  0  0  0  0  0  0  0  0  0  0  0
  2  3  1  0
  2  1  1  1
  4  3  1  0
  4  5  1  0
  6  5  1  0
  6  7  1  0
  8  2  1  0
  9  8  2  0
 10 14  1  0
 10  8  1  0
 11 12  1  0
 11 10  1  0
 12 13  1  0
 13 14  1  0
 14 15  1  1
 16 15  2  0
 17 15  1  0
 18 17  1  0
 18 24  1  0
 18 19  1  6
 20 19  1  0
 21 20  1  0
 22 21  1  0
 22 23  1  0
 24 25  1  0
 26 24  2  0
M  END
$$$$
