KPK.pdb
     RDKit          3D

 26 26  0  0  1  0  0  0  0  0999 V2000
    9.6446  -15.9501   15.5517 N   0  0  0  0  0  0  0  0  0  0  0  0
    8.6306  -15.4702   16.4871 C   0  0  1  0  0  0  0  0  0  0  0  0
    7.6263  -16.5844   16.6045 C   0  0  0  0  0  0  0  0  0  0  0  0
    8.1599  -17.9031   17.0357 C   0  0  0  0  0  0  0  0  0  0  0  0
    7.0301  -18.9248   17.0485 C   0  0  0  0  0  0  0  0  0  0  0  0
    7.4613  -20.2953   17.4485 C   0  0  0  0  0  0  0  0  0  0  0  0
    6.2819  -21.1719   17.3414 N   0  0  0  0  0  0  0  0  0  0  0  0
    9.2922  -15.1104   17.7463 C   0  0  0  0  0  0  0  0  0  0  0  0
   10.5053  -15.5482   17.8547 O   0  0  0  0  0  0  0  0  0  0  0  0
    8.7424  -14.3586   18.8061 N   0  0  0  0  0  0  0  0  0  0  0  0
    7.4190  -13.7453   18.7231 C   0  0  0  0  0  0  0  0  0  0  0  0
    7.4139  -12.6384   19.7307 C   0  0  0  0  0  0  0  0  0  0  0  0
    8.7058  -12.7110   20.4621 C   0  0  0  0  0  0  0  0  0  0  0  0
    9.2783  -14.0737   20.0833 C   0  0  1  0  0  0  0  0  0  0  0  0
    8.8414  -15.0284   21.1503 C   0  0  0  0  0  0  0  0  0  0  0  0
    7.7719  -15.6598   20.9545 O   0  0  0  0  0  0  0  0  0  0  0  0
    9.6286  -15.1863   22.3187 N   0  0  0  0  0  0  0  0  0  0  0  0
    9.9744  -16.5349   22.8099 C   0  0  1  0  0  0  0  0  0  0  0  0
   10.5849  -17.3326   21.6893 C   0  0  0  0  0  0  0  0  0  0  0  0
   10.9905  -18.7129   22.0234 C   0  0  0  0  0  0  0  0  0  0  0  0
   11.5395  -19.5521   20.9243 C   0  0  0  0  0  0  0  0  0  0  0  0
   11.8196  -20.9812   21.2729 C   0  0  0  0  0  0  0  0  0  0  0  0
   12.4969  -21.6688   20.1965 N   0  0  0  0  0  0  0  0  0  0  0  0
   10.8359  -16.4116   24.0026 C   0  0  0  0  0  0  0  0  0  0  0  0
   12.0803  -15.7533   23.9457 O   0  0  0  0  0  0  0  0  0  0  0  0
   10.5206  -16.8771   25.1207 O   0  0  0  0  0  0  0  0  0  0  0  0
  2  3  1  0
  2  1  1  6
  4  3  1  0
  4  5  1  0
  6  5  1  0
  6  7  1  0
  8  2  1  0
  9  8  2  0
 10 14  1  0
 10  8  1  0
 11 12  1  0
 11 10  1  0
 12 13  1  0
 13 14  1  0
 14 15  1  1
 16 15  2  0
 17 15  1  0
 18 17  1  0
 18 24  1  0
 18 19  1  6
 20 19  1  0
 21 20  1  0
 22 21  1  0
 22 23  1  0
 24 25  1  0
 26 24  2  0
M  END
$$$$
