KPK.pdb
     RDKit          3D

 26 26  0  0  1  0  0  0  0  0999 V2000
    7.5971  -17.8337   17.2862 N   0  0  0  0  0  0  0  0  0  0  0  0
    7.0330  -16.8453   18.2017 C   0  0  1  0  0  0  0  0  0  0  0  0
    6.0517  -17.5983   19.0584 C   0  0  0  0  0  0  0  0  0  0  0  0
    6.4307  -18.9901   19.4177 C   0  0  0  0  0  0  0  0  0  0  0  0
    5.4363  -19.5373   20.4337 C   0  0  0  0  0  0  0  0  0  0  0  0
    5.6715  -20.9640   20.7991 C   0  0  0  0  0  0  0  0  0  0  0  0
    4.6303  -21.3425   21.7705 N   0  0  0  0  0  0  0  0  0  0  0  0
    8.1323  -16.2165   18.9426 C   0  0  0  0  0  0  0  0  0  0  0  0
    9.2693  -16.8237   18.8257 O   0  0  0  0  0  0  0  0  0  0  0  0
    8.0599  -15.0541   19.7389 N   0  0  0  0  0  0  0  0  0  0  0  0
    6.8215  -14.2965   19.9026 C   0  0  0  0  0  0  0  0  0  0  0  0
    7.2333  -12.9187   20.3185 C   0  0  0  0  0  0  0  0  0  0  0  0
    8.7082  -12.9427   20.5004 C   0  0  0  0  0  0  0  0  0  0  0  0
    9.0633  -14.4266   20.5129 C   0  0  1  0  0  0  0  0  0  0  0  0
    9.0727  -14.8480   21.9492 C   0  0  0  0  0  0  0  0  0  0  0  0
    7.9586  -14.9962   22.5126 O   0  0  0  0  0  0  0  0  0  0  0  0
   10.3076  -15.0616   22.6119 N   0  0  0  0  0  0  0  0  0  0  0  0
   10.4556  -16.1686   23.5775 C   0  0  1  0  0  0  0  0  0  0  0  0
   10.4439  -17.4797   22.8389 C   0  0  0  0  0  0  0  0  0  0  0  0
   10.6625  -18.6875   23.6604 C   0  0  0  0  0  0  0  0  0  0  0  0
   10.5948  -20.0060   22.9741 C   0  0  0  0  0  0  0  0  0  0  0  0
   10.6462  -21.2082   23.8653 C   0  0  0  0  0  0  0  0  0  0  0  0
   10.7041  -22.4346   23.1019 N   0  0  0  0  0  0  0  0  0  0  0  0
   11.6669  -15.9448   24.3915 C   0  0  0  0  0  0  0  0  0  0  0  0
   12.8035  -15.3058   23.8578 O   0  0  0  0  0  0  0  0  0  0  0  0
   11.7591  -16.3033   25.5871 O   0  0  0  0  0  0  0  0  0  0  0  0
  2  3  1  0
  2  1  1  6
  4  3  1  0
  4  5  1  0
  6  5  1  0
  6  7  1  0
  8  2  1  0
  9  8  2  0
 10 14  1  0
 10  8  1  0
 11 12  1  0
 11 10  1  0
 12 13  1  0
 13 14  1  0
 14 15  1  1
 16 15  2  0
 17 15  1  0
 18 17  1  0
 18 24  1  0
 18 19  1  6
 20 19  1  0
 21 20  1  0
 22 21  1  0
 22 23  1  0
 24 25  1  0
 26 24  2  0
M  END
$$$$
