KPK.pdb
     RDKit          3D

 26 26  0  0  1  0  0  0  0  0999 V2000
    7.3944  -18.0107   17.4707 N   0  0  0  0  0  0  0  0  0  0  0  0
    6.8983  -17.2174   18.5923 C   0  0  1  0  0  0  0  0  0  0  0  0
    6.2339  -18.1974   19.5207 C   0  0  0  0  0  0  0  0  0  0  0  0
    4.7872  -17.9748   19.7802 C   0  0  0  0  0  0  0  0  0  0  0  0
    4.2827  -19.0268   20.7596 C   0  0  0  0  0  0  0  0  0  0  0  0
    2.8385  -18.8860   21.1044 C   0  0  0  0  0  0  0  0  0  0  0  0
    2.5097  -19.9642   22.0532 N   0  0  0  0  0  0  0  0  0  0  0  0
    8.0267  -16.4879   19.1815 C   0  0  0  0  0  0  0  0  0  0  0  0
    9.1637  -17.0992   19.0873 O   0  0  0  0  0  0  0  0  0  0  0  0
    7.9813  -15.2286   19.8161 N   0  0  0  0  0  0  0  0  0  0  0  0
    6.7553  -14.4379   19.8935 C   0  0  0  0  0  0  0  0  0  0  0  0
    7.1909  -13.0231   20.1157 C   0  0  0  0  0  0  0  0  0  0  0  0
    8.6679  -13.0442   20.2794 C   0  0  0  0  0  0  0  0  0  0  0  0
    9.0043  -14.5181   20.4856 C   0  0  1  0  0  0  0  0  0  0  0  0
    9.0303  -14.7440   21.9651 C   0  0  0  0  0  0  0  0  0  0  0  0
    7.9234  -14.7899   22.5596 O   0  0  0  0  0  0  0  0  0  0  0  0
   10.2720  -14.8955   22.6323 N   0  0  0  0  0  0  0  0  0  0  0  0
   10.5176  -16.0669   23.4964 C   0  0  1  0  0  0  0  0  0  0  0  0
   10.3446  -17.3262   22.6907 C   0  0  0  0  0  0  0  0  0  0  0  0
   10.6407  -18.5907   23.3942 C   0  0  0  0  0  0  0  0  0  0  0  0
   10.5523  -19.8506   22.6078 C   0  0  0  0  0  0  0  0  0  0  0  0
   10.7522  -21.1172   23.3812 C   0  0  0  0  0  0  0  0  0  0  0  0
   10.7007  -22.2791   22.5224 N   0  0  0  0  0  0  0  0  0  0  0  0
   11.8442  -15.9333   24.1307 C   0  0  0  0  0  0  0  0  0  0  0  0
   12.9510  -15.4278   23.4204 O   0  0  0  0  0  0  0  0  0  0  0  0
   12.0657  -16.2560   25.3194 O   0  0  0  0  0  0  0  0  0  0  0  0
  2  3  1  0
  2  1  1  6
  4  3  1  0
  4  5  1  0
  6  5  1  0
  6  7  1  0
  8  2  1  0
  9  8  2  0
 10 14  1  0
 10  8  1  0
 11 12  1  0
 11 10  1  0
 12 13  1  0
 13 14  1  0
 14 15  1  1
 16 15  2  0
 17 15  1  0
 18 17  1  0
 18 24  1  0
 18 19  1  6
 20 19  1  0
 21 20  1  0
 22 21  1  0
 22 23  1  0
 24 25  1  0
 26 24  2  0
M  END
$$$$
