DPF.pdb
     RDKit          3D

 27 28  0  0  1  0  0  0  0  0999 V2000
   10.2067  -17.7650   18.6871 N   0  0  0  0  0  0  0  0  0  0  0  0
    8.9777  -17.5002   19.4485 C   0  0  1  0  0  0  0  0  0  0  0  0
    8.5304  -18.8924   19.9559 C   0  0  0  0  0  0  0  0  0  0  0  0
    8.1366  -19.6503   18.7519 C   0  0  0  0  0  0  0  0  0  0  0  0
    8.8017  -20.6473   18.3975 O   0  0  0  0  0  0  0  0  0  0  0  0
    9.2699  -16.5939   20.5574 C   0  0  0  0  0  0  0  0  0  0  0  0
   10.2599  -16.8807   21.3044 O   0  0  0  0  0  0  0  0  0  0  0  0
    7.0351  -19.2535   18.0262 O   0  0  0  0  0  0  0  0  0  0  0  0
    8.4796  -15.4455   20.7835 N   0  0  0  0  0  0  0  0  0  0  0  0
    7.5136  -14.8872   19.8711 C   0  0  0  0  0  0  0  0  0  0  0  0
    6.4005  -14.4907   20.8571 C   0  0  0  0  0  0  0  0  0  0  0  0
    7.2568  -13.6852   21.8292 C   0  0  0  0  0  0  0  0  0  0  0  0
    8.4777  -14.6093   21.9443 C   0  0  1  0  0  0  0  0  0  0  0  0
    8.3863  -15.3920   23.2265 C   0  0  0  0  0  0  0  0  0  0  0  0
    7.5108  -16.2744   23.4139 O   0  0  0  0  0  0  0  0  0  0  0  0
    9.2983  -15.1516   24.2717 N   0  0  0  0  0  0  0  0  0  0  0  0
    8.9806  -15.5232   25.6688 C   0  0  1  0  0  0  0  0  0  0  0  0
    7.4881  -15.4337   25.8902 C   0  0  0  0  0  0  0  0  0  0  0  0
    7.1258  -14.0647   26.2886 C   0  0  0  0  0  0  0  0  0  0  0  0
    8.1564  -13.2110   26.6696 C   0  0  0  0  0  0  0  0  0  0  0  0
    7.9073  -11.9222   27.0316 C   0  0  0  0  0  0  0  0  0  0  0  0
    6.6149  -11.4046   27.0365 C   0  0  0  0  0  0  0  0  0  0  0  0
    5.5860  -12.2374   26.6618 C   0  0  0  0  0  0  0  0  0  0  0  0
    5.8511  -13.5471   26.2945 C   0  0  0  0  0  0  0  0  0  0  0  0
    9.4242  -16.9054   25.8479 C   0  0  0  0  0  0  0  0  0  0  0  0
    9.8063  -17.6084   24.8839 O   0  0  0  0  0  0  0  0  0  0  0  0
    9.4344  -17.4824   27.1005 O   0  0  0  0  0  0  0  0  0  0  0  0
  2  1  1  6
  2  3  1  0
  4  5  2  0
  4  3  1  0
  6  2  1  0
  6  7  2  0
  8  4  1  0
  9  6  1  0
 10  9  1  0
 11 10  1  0
 12 13  1  0
 12 11  1  0
 13  9  1  0
 13 14  1  1
 15 14  2  0
 16 14  1  0
 17 25  1  0
 17 16  1  0
 17 18  1  6
 19 18  1  0
 20 19  2  0
 21 20  1  0
 22 23  1  0
 22 21  2  0
 23 24  2  0
 24 19  1  0
 25 27  1  0
 26 25  2  0
M  END
$$$$
