DPF.pdb
     RDKit          3D

 27 28  0  0  1  0  0  0  0  0999 V2000
   11.2011  -14.5466   18.5523 N   0  0  0  0  0  0  0  0  0  0  0  0
   10.2995  -15.6100   19.0178 C   0  0  1  0  0  0  0  0  0  0  0  0
   11.2270  -16.8265   19.2540 C   0  0  0  0  0  0  0  0  0  0  0  0
   11.6460  -17.2776   17.9123 C   0  0  0  0  0  0  0  0  0  0  0  0
   11.0201  -16.8927   16.9014 O   0  0  0  0  0  0  0  0  0  0  0  0
    9.6393  -15.1915   20.2529 C   0  0  0  0  0  0  0  0  0  0  0  0
   10.3807  -14.8051   21.2127 O   0  0  0  0  0  0  0  0  0  0  0  0
   12.7277  -18.1206   17.7831 O   0  0  0  0  0  0  0  0  0  0  0  0
    8.2320  -15.2169   20.3678 N   0  0  0  0  0  0  0  0  0  0  0  0
    7.2980  -15.4747   19.3008 C   0  0  0  0  0  0  0  0  0  0  0  0
    6.2671  -16.3450   20.0413 C   0  0  0  0  0  0  0  0  0  0  0  0
    6.0143  -15.4136   21.2226 C   0  0  0  0  0  0  0  0  0  0  0  0
    7.4543  -14.9909   21.5473 C   0  0  1  0  0  0  0  0  0  0  0  0
    7.9466  -15.7804   22.7303 C   0  0  0  0  0  0  0  0  0  0  0  0
    8.4831  -16.9105   22.6074 O   0  0  0  0  0  0  0  0  0  0  0  0
    7.8166  -15.2628   24.0330 N   0  0  0  0  0  0  0  0  0  0  0  0
    8.3993  -15.9634   25.1995 C   0  0  1  0  0  0  0  0  0  0  0  0
    8.7924  -14.9532   26.2529 C   0  0  0  0  0  0  0  0  0  0  0  0
    7.7113  -13.9712   26.4280 C   0  0  0  0  0  0  0  0  0  0  0  0
    7.9157  -12.6914   25.9215 C   0  0  0  0  0  0  0  0  0  0  0  0
    6.9560  -11.7308   26.0235 C   0  0  0  0  0  0  0  0  0  0  0  0
    5.7328  -11.9866   26.6372 C   0  0  0  0  0  0  0  0  0  0  0  0
    5.5169  -13.2477   27.1425 C   0  0  0  0  0  0  0  0  0  0  0  0
    6.5002  -14.2180   27.0325 C   0  0  0  0  0  0  0  0  0  0  0  0
    7.3567  -16.8444   25.7251 C   0  0  0  0  0  0  0  0  0  0  0  0
    7.5705  -17.6276   26.6792 O   0  0  0  0  0  0  0  0  0  0  0  0
    6.0909  -16.8381   25.1776 O   0  0  0  0  0  0  0  0  0  0  0  0
  2  1  1  1
  2  3  1  0
  4  5  2  0
  4  3  1  0
  6  2  1  0
  6  7  2  0
  8  4  1  0
  9  6  1  0
 10  9  1  0
 11 10  1  0
 12 13  1  0
 12 11  1  0
 13  9  1  0
 13 14  1  1
 15 14  2  0
 16 14  1  0
 17 25  1  0
 17 16  1  0
 17 18  1  1
 19 18  1  0
 20 19  2  0
 21 20  1  0
 22 23  1  0
 22 21  2  0
 23 24  2  0
 24 19  1  0
 25 27  1  0
 26 25  2  0
M  END
$$$$
