DPF.pdb
     RDKit          3D

 27 28  0  0  1  0  0  0  0  0999 V2000
    8.1239  -17.6306   19.1027 N   0  0  0  0  0  0  0  0  0  0  0  0
    9.0414  -18.0142   20.1850 C   0  0  1  0  0  0  0  0  0  0  0  0
   10.3274  -18.4734   19.4564 C   0  0  0  0  0  0  0  0  0  0  0  0
    9.9885  -19.7606   18.8181 C   0  0  0  0  0  0  0  0  0  0  0  0
    9.7777  -20.7702   19.5239 O   0  0  0  0  0  0  0  0  0  0  0  0
    9.2962  -16.8618   21.0473 C   0  0  0  0  0  0  0  0  0  0  0  0
   10.0931  -17.0261   22.0262 O   0  0  0  0  0  0  0  0  0  0  0  0
    9.9051  -19.8402   17.4454 O   0  0  0  0  0  0  0  0  0  0  0  0
    8.6785  -15.6169   20.7960 N   0  0  0  0  0  0  0  0  0  0  0  0
    7.8679  -15.2877   19.6506 C   0  0  0  0  0  0  0  0  0  0  0  0
    6.7695  -14.4454   20.3233 C   0  0  0  0  0  0  0  0  0  0  0  0
    7.6770  -13.4694   21.0656 C   0  0  0  0  0  0  0  0  0  0  0  0
    8.7325  -14.4422   21.6109 C   0  0  1  0  0  0  0  0  0  0  0  0
    8.4428  -14.7245   23.0605 C   0  0  0  0  0  0  0  0  0  0  0  0
    7.3875  -14.3365   23.6226 O   0  0  0  0  0  0  0  0  0  0  0  0
    9.3656  -15.4459   23.8415 N   0  0  0  0  0  0  0  0  0  0  0  0
    9.3161  -15.4070   25.3204 C   0  0  1  0  0  0  0  0  0  0  0  0
    7.8787  -15.4847   25.7815 C   0  0  0  0  0  0  0  0  0  0  0  0
    7.4059  -14.1450   26.1631 C   0  0  0  0  0  0  0  0  0  0  0  0
    8.3500  -13.2407   26.6399 C   0  0  0  0  0  0  0  0  0  0  0  0
    7.9974  -11.9740   26.9939 C   0  0  0  0  0  0  0  0  0  0  0  0
    6.6815  -11.5303   26.8949 C   0  0  0  0  0  0  0  0  0  0  0  0
    5.7375  -12.4138   26.4249 C   0  0  0  0  0  0  0  0  0  0  0  0
    6.1075  -13.7003   26.0666 C   0  0  0  0  0  0  0  0  0  0  0  0
   10.0514  -16.5780   25.7970 C   0  0  0  0  0  0  0  0  0  0  0  0
   10.4625  -17.4656   25.0143 O   0  0  0  0  0  0  0  0  0  0  0  0
   10.3168  -16.7411   27.1406 O   0  0  0  0  0  0  0  0  0  0  0  0
  2  1  1  6
  2  3  1  0
  4  5  2  0
  4  3  1  0
  6  2  1  0
  6  7  2  0
  8  4  1  0
  9  6  1  0
 10  9  1  0
 11 10  1  0
 12 13  1  0
 12 11  1  0
 13  9  1  0
 13 14  1  1
 15 14  2  0
 16 14  1  0
 17 25  1  0
 17 16  1  0
 17 18  1  6
 19 18  1  0
 20 19  2  0
 21 20  1  0
 22 23  1  0
 22 21  2  0
 23 24  2  0
 24 19  1  0
 25 27  1  0
 26 25  2  0
M  END
$$$$
