DPF.pdb
     RDKit          3D

 27 28  0  0  1  0  0  0  0  0999 V2000
    9.7922  -16.8344   18.7827 N   0  0  0  0  0  0  0  0  0  0  0  0
   10.6606  -17.5544   19.7249 C   0  0  1  0  0  0  0  0  0  0  0  0
   12.0605  -17.5168   19.0656 C   0  0  0  0  0  0  0  0  0  0  0  0
   12.0044  -18.4825   17.9505 C   0  0  0  0  0  0  0  0  0  0  0  0
   11.5108  -19.6162   18.1317 O   0  0  0  0  0  0  0  0  0  0  0  0
   10.6585  -16.8723   21.0177 C   0  0  0  0  0  0  0  0  0  0  0  0
   11.7580  -16.8232   21.6571 O   0  0  0  0  0  0  0  0  0  0  0  0
   12.4964  -18.1261   16.7142 O   0  0  0  0  0  0  0  0  0  0  0  0
    9.4773  -16.2918   21.5297 N   0  0  0  0  0  0  0  0  0  0  0  0
    8.2498  -16.0844   20.8034 C   0  0  0  0  0  0  0  0  0  0  0  0
    7.2221  -16.4495   21.8891 C   0  0  0  0  0  0  0  0  0  0  0  0
    7.7514  -15.5414   22.9947 C   0  0  0  0  0  0  0  0  0  0  0  0
    9.2595  -15.7931   22.8529 C   0  0  1  0  0  0  0  0  0  0  0  0
    9.7023  -16.7579   23.9198 C   0  0  0  0  0  0  0  0  0  0  0  0
    9.5640  -18.0016   23.8000 O   0  0  0  0  0  0  0  0  0  0  0  0
   10.2957  -16.2828   25.1047 N   0  0  0  0  0  0  0  0  0  0  0  0
   10.9403  -17.2068   26.0648 C   0  0  1  0  0  0  0  0  0  0  0  0
   11.8859  -16.4337   26.9552 C   0  0  0  0  0  0  0  0  0  0  0  0
   11.1347  -15.4308   27.7260 C   0  0  0  0  0  0  0  0  0  0  0  0
   10.9919  -15.6444   29.0935 C   0  0  0  0  0  0  0  0  0  0  0  0
   10.3295  -14.7528   29.8813 C   0  0  0  0  0  0  0  0  0  0  0  0
    9.7679  -13.5930   29.3542 C   0  0  0  0  0  0  0  0  0  0  0  0
    9.9015  -13.3689   28.0035 C   0  0  0  0  0  0  0  0  0  0  0  0
   10.5785  -14.2825   27.2113 C   0  0  0  0  0  0  0  0  0  0  0  0
    9.8689  -17.7904   26.8714 C   0  0  0  0  0  0  0  0  0  0  0  0
    8.6891  -17.3740   26.8064 O   0  0  0  0  0  0  0  0  0  0  0  0
   10.1303  -18.8302   27.7389 O   0  0  0  0  0  0  0  0  0  0  0  0
  2  1  1  6
  2  3  1  0
  4  5  2  0
  4  3  1  0
  6  2  1  0
  6  7  2  0
  8  4  1  0
  9  6  1  0
 10  9  1  0
 11 10  1  0
 12 13  1  0
 12 11  1  0
 13  9  1  0
 13 14  1  1
 15 14  2  0
 16 14  1  0
 17 25  1  0
 17 16  1  0
 17 18  1  1
 19 18  1  0
 20 19  2  0
 21 20  1  0
 22 23  1  0
 22 21  2  0
 23 24  2  0
 24 19  1  0
 25 27  1  0
 26 25  2  0
M  END
$$$$
