DPF.pdb
     RDKit          3D

 27 28  0  0  1  0  0  0  0  0999 V2000
   11.6456  -16.6271   18.9216 N   0  0  0  0  0  0  0  0  0  0  0  0
   10.4452  -17.2155   19.5325 C   0  0  1  0  0  0  0  0  0  0  0  0
   10.9113  -18.6003   20.0435 C   0  0  0  0  0  0  0  0  0  0  0  0
   11.1668  -19.4083   18.8348 C   0  0  0  0  0  0  0  0  0  0  0  0
   10.2422  -19.6242   18.0221 O   0  0  0  0  0  0  0  0  0  0  0  0
    9.9834  -16.3670   20.6294 C   0  0  0  0  0  0  0  0  0  0  0  0
   10.8362  -16.0365   21.5147 O   0  0  0  0  0  0  0  0  0  0  0  0
   12.4262  -19.9188   18.6093 O   0  0  0  0  0  0  0  0  0  0  0  0
    8.6408  -15.9341   20.6960 N   0  0  0  0  0  0  0  0  0  0  0  0
    7.6535  -16.0672   19.6543 C   0  0  0  0  0  0  0  0  0  0  0  0
    6.4163  -16.4345   20.4926 C   0  0  0  0  0  0  0  0  0  0  0  0
    6.4885  -15.2834   21.4910 C   0  0  0  0  0  0  0  0  0  0  0  0
    7.9942  -15.2800   21.7920 C   0  0  1  0  0  0  0  0  0  0  0  0
    8.2371  -15.9693   23.1076 C   0  0  0  0  0  0  0  0  0  0  0  0
    8.4775  -17.2006   23.1866 O   0  0  0  0  0  0  0  0  0  0  0  0
    8.2009  -15.2375   24.3098 N   0  0  0  0  0  0  0  0  0  0  0  0
    8.6223  -15.8455   25.5919 C   0  0  1  0  0  0  0  0  0  0  0  0
    8.9127  -14.7557   26.5983 C   0  0  0  0  0  0  0  0  0  0  0  0
    7.8490  -13.7406   26.5526 C   0  0  0  0  0  0  0  0  0  0  0  0
    8.0626  -12.6195   25.7565 C   0  0  0  0  0  0  0  0  0  0  0  0
    7.1187  -11.6447   25.6432 C   0  0  0  0  0  0  0  0  0  0  0  0
    5.9031  -11.7270   26.3170 C   0  0  0  0  0  0  0  0  0  0  0  0
    5.6783  -12.8300   27.1076 C   0  0  0  0  0  0  0  0  0  0  0  0
    6.6455  -13.8166   27.2151 C   0  0  0  0  0  0  0  0  0  0  0  0
    7.5025  -16.6625   26.0584 C   0  0  0  0  0  0  0  0  0  0  0  0
    6.3572  -16.5625   25.5607 O   0  0  0  0  0  0  0  0  0  0  0  0
    7.6777  -17.5791   27.0740 O   0  0  0  0  0  0  0  0  0  0  0  0
  2  1  1  1
  2  3  1  0
  4  5  2  0
  4  3  1  0
  6  2  1  0
  6  7  2  0
  8  4  1  0
  9  6  1  0
 10  9  1  0
 11 10  1  0
 12 13  1  0
 12 11  1  0
 13  9  1  0
 13 14  1  1
 15 14  2  0
 16 14  1  0
 17 25  1  0
 17 16  1  0
 17 18  1  1
 19 18  1  0
 20 19  2  0
 21 20  1  0
 22 23  1  0
 22 21  2  0
 23 24  2  0
 24 19  1  0
 25 27  1  0
 26 25  2  0
M  END
$$$$
