DNA.pdb
     RDKit          3D

 22 21  0  0  1  0  0  0  0  0999 V2000
   14.7297  -11.8656  -12.9842 N   0  0  0  0  0  0  0  0  0  0  0  0
   15.9158  -11.1277  -13.3622 C   0  0  1  0  0  0  0  0  0  0  0  0
   16.1861  -11.2697  -14.8432 C   0  0  0  0  0  0  0  0  0  0  0  0
   16.6073  -12.6443  -15.2000 C   0  0  0  0  0  0  0  0  0  0  0  0
   17.4316  -13.3039  -14.5532 O   0  0  0  0  0  0  0  0  0  0  0  0
   15.6910   -9.6964  -13.0611 C   0  0  0  0  0  0  0  0  0  0  0  0
   14.6032   -9.1678  -13.3846 O   0  0  0  0  0  0  0  0  0  0  0  0
   16.0438  -13.2256  -16.3260 O   0  0  0  0  0  0  0  0  0  0  0  0
   14.8016   -7.8677   -9.8718 N   0  0  0  0  0  0  0  0  0  0  0  0
   16.1584   -7.6019   -9.5856 C   0  0  0  0  0  0  0  0  0  0  0  0
   16.5212   -7.5377   -8.3889 O   0  0  0  0  0  0  0  0  0  0  0  0
   17.1349   -7.4046  -10.6586 C   0  0  0  0  0  0  0  0  0  0  0  0
   16.5137   -7.5946  -12.0364 C   0  0  2  0  0  0  0  0  0  0  0  0
   16.7214   -8.9738  -12.4131 N   0  0  0  0  0  0  0  0  0  0  0  0
   17.0390   -6.6918  -13.0647 C   0  0  0  0  0  0  0  0  0  0  0  0
   18.2354   -6.8018  -13.4266 O   0  0  0  0  0  0  0  0  0  0  0  0
   15.6581   -4.0604  -15.4209 C   0  0  0  0  0  0  0  0  0  0  0  0
   16.7673   -4.8698  -14.7804 C   0  0  2  0  0  0  0  0  0  0  0  0
   16.2640   -5.6800  -13.6898 N   0  0  0  0  0  0  0  0  0  0  0  0
   17.8312   -3.9449  -14.3444 C   0  0  0  0  0  0  0  0  0  0  0  0
   18.7563   -3.4296  -15.2301 O   0  0  0  0  0  0  0  0  0  0  0  0
   17.9042   -3.6129  -13.1413 O   0  0  0  0  0  0  0  0  0  0  0  0
  2  1  1  6
  3  4  1  0
  3  2  1  0
  4  5  2  0
  6  7  2  0
  6  2  1  0
  8  4  1  0
  9 10  1  0
 10 12  1  0
 11 10  2  0
 13 12  1  1
 13 14  1  0
 13 15  1  0
 14  6  1  0
 15 19  1  0
 16 15  2  0
 18 17  1  1
 19 18  1  0
 20 18  1  0
 20 21  1  0
 22 20  2  0
M  END
$$$$
