DNA.pdb
     RDKit          3D

 22 21  0  0  1  0  0  0  0  0999 V2000
   16.3821  -10.4252   -9.9455 N   0  0  0  0  0  0  0  0  0  0  0  0
   15.6590   -9.5001  -10.7914 C   0  0  1  0  0  0  0  0  0  0  0  0
   14.5971   -8.7689  -10.0012 C   0  0  0  0  0  0  0  0  0  0  0  0
   13.4358   -9.6374   -9.6986 C   0  0  0  0  0  0  0  0  0  0  0  0
   13.3601  -10.8288  -10.0272 O   0  0  0  0  0  0  0  0  0  0  0  0
   16.6177   -8.5053  -11.3218 C   0  0  0  0  0  0  0  0  0  0  0  0
   17.2650   -7.7936  -10.5206 O   0  0  0  0  0  0  0  0  0  0  0  0
   12.3707   -9.0812   -9.0063 O   0  0  0  0  0  0  0  0  0  0  0  0
   20.6505   -8.6257  -12.5691 N   0  0  0  0  0  0  0  0  0  0  0  0
   19.5989   -9.2122  -13.3062 C   0  0  0  0  0  0  0  0  0  0  0  0
   19.4388  -10.4526  -13.2465 O   0  0  0  0  0  0  0  0  0  0  0  0
   18.7029   -8.3968  -14.1287 C   0  0  0  0  0  0  0  0  0  0  0  0
   17.7825   -7.5291  -13.2800 C   0  0  2  0  0  0  0  0  0  0  0  0
   16.7686   -8.3957  -12.7250 N   0  0  0  0  0  0  0  0  0  0  0  0
   17.1694   -6.4120  -14.0043 C   0  0  0  0  0  0  0  0  0  0  0  0
   16.2767   -6.6462  -14.8544 O   0  0  0  0  0  0  0  0  0  0  0  0
   16.6029   -2.7893  -13.7958 C   0  0  0  0  0  0  0  0  0  0  0  0
   17.0288   -3.9784  -14.6326 C   0  0  2  0  0  0  0  0  0  0  0  0
   17.5293   -5.0539  -13.8009 N   0  0  0  0  0  0  0  0  0  0  0  0
   18.0276   -3.5240  -15.6193 C   0  0  0  0  0  0  0  0  0  0  0  0
   17.6891   -2.6931  -16.6685 O   0  0  0  0  0  0  0  0  0  0  0  0
   19.2159   -3.8965  -15.5094 O   0  0  0  0  0  0  0  0  0  0  0  0
  2  1  1  1
  3  4  1  0
  3  2  1  0
  4  5  2  0
  6  7  2  0
  6  2  1  0
  8  4  1  0
  9 10  1  0
 10 12  1  0
 11 10  2  0
 13 12  1  6
 13 14  1  0
 13 15  1  0
 14  6  1  0
 15 19  1  0
 16 15  2  0
 18 17  1  1
 19 18  1  0
 20 18  1  0
 20 21  1  0
 22 20  2  0
M  END
$$$$
