DNA.pdb
     RDKit          3D

 22 21  0  0  1  0  0  0  0  0999 V2000
   15.9248  -12.9203  -14.2078 N   0  0  0  0  0  0  0  0  0  0  0  0
   15.5829  -11.6609  -14.8333 C   0  0  1  0  0  0  0  0  0  0  0  0
   14.2168  -11.1930  -14.3846 C   0  0  0  0  0  0  0  0  0  0  0  0
   13.1280  -11.9603  -15.0329 C   0  0  0  0  0  0  0  0  0  0  0  0
   13.2915  -12.6951  -16.0159 O   0  0  0  0  0  0  0  0  0  0  0  0
   16.5831  -10.6498  -14.4245 C   0  0  0  0  0  0  0  0  0  0  0  0
   16.6103  -10.2644  -13.2337 O   0  0  0  0  0  0  0  0  0  0  0  0
   11.8501  -11.8476  -14.5062 O   0  0  0  0  0  0  0  0  0  0  0  0
   20.8776   -7.8814  -14.4159 N   0  0  0  0  0  0  0  0  0  0  0  0
   21.0267   -9.1747  -14.9623 C   0  0  0  0  0  0  0  0  0  0  0  0
   22.1813   -9.6286  -15.1318 O   0  0  0  0  0  0  0  0  0  0  0  0
   19.8613   -9.9825  -15.3273 C   0  0  0  0  0  0  0  0  0  0  0  0
   18.5526   -9.2667  -15.0183 C   0  0  2  0  0  0  0  0  0  0  0  0
   17.4787  -10.1536  -15.4020 N   0  0  0  0  0  0  0  0  0  0  0  0
   18.4081   -7.9639  -15.6742 C   0  0  0  0  0  0  0  0  0  0  0  0
   18.4658   -7.8958  -16.9258 O   0  0  0  0  0  0  0  0  0  0  0  0
   16.9008   -4.6792  -15.0419 C   0  0  0  0  0  0  0  0  0  0  0  0
   18.0466   -5.4729  -15.6358 C   0  0  2  0  0  0  0  0  0  0  0  0
   18.2030   -6.7493  -14.9684 N   0  0  0  0  0  0  0  0  0  0  0  0
   19.2712   -4.6525  -15.5665 C   0  0  0  0  0  0  0  0  0  0  0  0
   19.4258   -3.5093  -16.3247 O   0  0  0  0  0  0  0  0  0  0  0  0
   20.1995   -4.9946  -14.8022 O   0  0  0  0  0  0  0  0  0  0  0  0
  2  1  1  1
  3  4  1  0
  3  2  1  0
  4  5  2  0
  6  7  2  0
  6  2  1  0
  8  4  1  0
  9 10  1  0
 10 12  1  0
 11 10  2  0
 13 12  1  6
 13 14  1  0
 13 15  1  0
 14  6  1  0
 15 19  1  0
 16 15  2  0
 18 17  1  1
 19 18  1  0
 20 18  1  0
 20 21  1  0
 22 20  2  0
M  END
$$$$
