DNA.pdb
     RDKit          3D

 22 21  0  0  1  0  0  0  0  0999 V2000
   17.5429  -10.3288  -14.7583 N   0  0  0  0  0  0  0  0  0  0  0  0
   18.5476   -9.7885  -15.6486 C   0  0  1  0  0  0  0  0  0  0  0  0
   18.0571   -9.7975  -17.0789 C   0  0  0  0  0  0  0  0  0  0  0  0
   17.8759  -11.1747  -17.5937 C   0  0  0  0  0  0  0  0  0  0  0  0
   18.7550  -12.0459  -17.5596 O   0  0  0  0  0  0  0  0  0  0  0  0
   18.8171   -8.3880  -15.2535 C   0  0  0  0  0  0  0  0  0  0  0  0
   17.8540   -7.6257  -15.0117 O   0  0  0  0  0  0  0  0  0  0  0  0
   16.6480  -11.5061  -18.1464 O   0  0  0  0  0  0  0  0  0  0  0  0
   21.4007   -4.1209  -13.9706 N   0  0  0  0  0  0  0  0  0  0  0  0
   21.9706   -5.2650  -13.3708 C   0  0  0  0  0  0  0  0  0  0  0  0
   22.8269   -5.1108  -12.4703 O   0  0  0  0  0  0  0  0  0  0  0  0
   21.5758   -6.6134  -13.7830 C   0  0  0  0  0  0  0  0  0  0  0  0
   20.4674   -6.5882  -14.8276 C   0  0  2  0  0  0  0  0  0  0  0  0
   20.1634   -7.9603  -15.1623 N   0  0  0  0  0  0  0  0  0  0  0  0
   20.7920   -5.8205  -16.0333 C   0  0  0  0  0  0  0  0  0  0  0  0
   21.7483   -6.1883  -16.7576 O   0  0  0  0  0  0  0  0  0  0  0  0
   19.2149   -3.1291  -18.1408 C   0  0  0  0  0  0  0  0  0  0  0  0
   20.4041   -3.9271  -17.6462 C   0  0  2  0  0  0  0  0  0  0  0  0
   20.0785   -4.6631  -16.4415 N   0  0  0  0  0  0  0  0  0  0  0  0
   21.5384   -3.0043  -17.4477 C   0  0  0  0  0  0  0  0  0  0  0  0
   22.5246   -2.8468  -18.4008 O   0  0  0  0  0  0  0  0  0  0  0  0
   21.6163   -2.3423  -16.3900 O   0  0  0  0  0  0  0  0  0  0  0  0
  2  1  1  1
  3  4  1  0
  3  2  1  0
  4  5  2  0
  6  7  2  0
  6  2  1  0
  8  4  1  0
  9 10  1  0
 10 12  1  0
 11 10  2  0
 13 12  1  1
 13 14  1  0
 13 15  1  0
 14  6  1  0
 15 19  1  0
 16 15  2  0
 18 17  1  1
 19 18  1  0
 20 18  1  0
 20 21  1  0
 22 20  2  0
M  END
$$$$
