DNA.pdb
     RDKit          3D

 22 21  0  0  1  0  0  0  0  0999 V2000
   17.2826  -13.0466  -16.0664 N   0  0  0  0  0  0  0  0  0  0  0  0
   17.2331  -11.6110  -15.8913 C   0  0  1  0  0  0  0  0  0  0  0  0
   16.5725  -11.2535  -14.5788 C   0  0  0  0  0  0  0  0  0  0  0  0
   15.1529  -11.6749  -14.5405 C   0  0  0  0  0  0  0  0  0  0  0  0
   14.3890  -11.6177  -15.5132 O   0  0  0  0  0  0  0  0  0  0  0  0
   18.6197  -11.0944  -15.8749 C   0  0  0  0  0  0  0  0  0  0  0  0
   19.5705  -11.8923  -16.0381 O   0  0  0  0  0  0  0  0  0  0  0  0
   14.6512  -12.1621  -13.3429 O   0  0  0  0  0  0  0  0  0  0  0  0
   23.0278   -9.6200  -17.4920 N   0  0  0  0  0  0  0  0  0  0  0  0
   21.8680   -8.8208  -17.5897 C   0  0  0  0  0  0  0  0  0  0  0  0
   21.9879   -7.6231  -17.9347 O   0  0  0  0  0  0  0  0  0  0  0  0
   20.5424   -9.3696  -17.2974 C   0  0  0  0  0  0  0  0  0  0  0  0
   20.1340   -9.1321  -15.8493 C   0  0  2  0  0  0  0  0  0  0  0  0
   18.8204   -9.7075  -15.6750 N   0  0  0  0  0  0  0  0  0  0  0  0
   20.1406   -7.7235  -15.4439 C   0  0  0  0  0  0  0  0  0  0  0  0
   19.2890   -6.9400  -15.9291 O   0  0  0  0  0  0  0  0  0  0  0  0
   21.9771   -5.5531  -12.9309 C   0  0  0  0  0  0  0  0  0  0  0  0
   21.0133   -5.8007  -14.0733 C   0  0  2  0  0  0  0  0  0  0  0  0
   21.0687   -7.1784  -14.5183 N   0  0  0  0  0  0  0  0  0  0  0  0
   21.3193   -4.8500  -15.1597 C   0  0  0  0  0  0  0  0  0  0  0  0
   21.7704   -5.2747  -16.3934 O   0  0  0  0  0  0  0  0  0  0  0  0
   21.1684   -3.6242  -14.9664 O   0  0  0  0  0  0  0  0  0  0  0  0
  2  1  1  1
  3  4  1  0
  3  2  1  0
  4  5  2  0
  6  7  2  0
  6  2  1  0
  8  4  1  0
  9 10  1  0
 10 12  1  0
 11 10  2  0
 13 12  1  6
 13 14  1  0
 13 15  1  0
 14  6  1  0
 15 19  1  0
 16 15  2  0
 18 17  1  1
 19 18  1  0
 20 18  1  0
 20 21  1  0
 22 20  2  0
M  END
$$$$
