DNA.pdb
     RDKit          3D

 22 21  0  0  1  0  0  0  0  0999 V2000
   20.3180  -11.6782  -15.3663 N   0  0  0  0  0  0  0  0  0  0  0  0
   19.6050  -10.5391  -15.9031 C   0  0  1  0  0  0  0  0  0  0  0  0
   18.1545  -10.5650  -15.4765 C   0  0  0  0  0  0  0  0  0  0  0  0
   17.4443  -11.7550  -16.0000 C   0  0  0  0  0  0  0  0  0  0  0  0
   16.6229  -12.4119  -15.3469 O   0  0  0  0  0  0  0  0  0  0  0  0
   20.2282   -9.3060  -15.3732 C   0  0  0  0  0  0  0  0  0  0  0  0
   20.1105   -9.0368  -14.1562 O   0  0  0  0  0  0  0  0  0  0  0  0
   17.7171  -12.1557  -17.2993 O   0  0  0  0  0  0  0  0  0  0  0  0
   23.2765   -5.1189  -15.2611 N   0  0  0  0  0  0  0  0  0  0  0  0
   23.8935   -6.2961  -15.7375 C   0  0  0  0  0  0  0  0  0  0  0  0
   25.1434   -6.3400  -15.7980 O   0  0  0  0  0  0  0  0  0  0  0  0
   23.0988   -7.4528  -16.1551 C   0  0  0  0  0  0  0  0  0  0  0  0
   21.6312   -7.3026  -15.7760 C   0  0  2  0  0  0  0  0  0  0  0  0
   20.9401   -8.4719  -16.2682 N   0  0  0  0  0  0  0  0  0  0  0  0
   21.0007   -6.0784  -16.2782 C   0  0  0  0  0  0  0  0  0  0  0  0
   21.0029   -5.8468  -17.5114 O   0  0  0  0  0  0  0  0  0  0  0  0
   18.3068   -3.8506  -15.7600 C   0  0  0  0  0  0  0  0  0  0  0  0
   19.8097   -3.8851  -15.9491 C   0  0  2  0  0  0  0  0  0  0  0  0
   20.3750   -5.1183  -15.4404 N   0  0  0  0  0  0  0  0  0  0  0  0
   20.3916   -2.6943  -15.3003 C   0  0  0  0  0  0  0  0  0  0  0  0
   20.0985   -1.4152  -15.7288 O   0  0  0  0  0  0  0  0  0  0  0  0
   21.1726   -2.8385  -14.3348 O   0  0  0  0  0  0  0  0  0  0  0  0
  2  1  1  1
  3  4  1  0
  3  2  1  0
  4  5  2  0
  6  7  2  0
  6  2  1  0
  8  4  1  0
  9 10  1  0
 10 12  1  0
 11 10  2  0
 13 12  1  6
 13 14  1  0
 13 15  1  0
 14  6  1  0
 15 19  1  0
 16 15  2  0
 18 17  1  1
 19 18  1  0
 20 18  1  0
 20 21  1  0
 22 20  2  0
M  END
$$$$
