DNA.pdb
     RDKit          3D

 22 21  0  0  1  0  0  0  0  0999 V2000
   21.4035  -22.0892  -16.3866 N   0  0  0  0  0  0  0  0  0  0  0  0
   19.9972  -22.3744  -16.2000 C   0  0  1  0  0  0  0  0  0  0  0  0
   19.2860  -22.4587  -17.5319 C   0  0  0  0  0  0  0  0  0  0  0  0
   19.0034  -21.1179  -18.0946 C   0  0  0  0  0  0  0  0  0  0  0  0
   19.3444  -20.0567  -17.5555 O   0  0  0  0  0  0  0  0  0  0  0  0
   19.8723  -23.6816  -15.5176 C   0  0  0  0  0  0  0  0  0  0  0  0
   18.7446  -24.2177  -15.4268 O   0  0  0  0  0  0  0  0  0  0  0  0
   18.3157  -21.0489  -19.2969 O   0  0  0  0  0  0  0  0  0  0  0  0
   23.6907  -26.1083  -16.7843 N   0  0  0  0  0  0  0  0  0  0  0  0
   22.5247  -26.5422  -16.1169 C   0  0  0  0  0  0  0  0  0  0  0  0
   21.6548  -27.1663  -16.7662 O   0  0  0  0  0  0  0  0  0  0  0  0
   22.3235  -26.2757  -14.6913 C   0  0  0  0  0  0  0  0  0  0  0  0
   20.9818  -25.6075  -14.4203 C   0  0  2  0  0  0  0  0  0  0  0  0
   21.0410  -24.2814  -14.9905 N   0  0  0  0  0  0  0  0  0  0  0  0
   20.6137  -25.5461  -13.0029 C   0  0  0  0  0  0  0  0  0  0  0  0
   20.8330  -24.4938  -12.3556 O   0  0  0  0  0  0  0  0  0  0  0  0
   18.5585  -25.4283  -10.7389 C   0  0  0  0  0  0  0  0  0  0  0  0
   19.5923  -26.5212  -10.9188 C   0  0  2  0  0  0  0  0  0  0  0  0
   20.0128  -26.6242  -12.3015 N   0  0  0  0  0  0  0  0  0  0  0  0
   19.0300  -27.7872  -10.4102 C   0  0  0  0  0  0  0  0  0  0  0  0
   18.7221  -27.9632   -9.0760 O   0  0  0  0  0  0  0  0  0  0  0  0
   18.8230  -28.7318  -11.2025 O   0  0  0  0  0  0  0  0  0  0  0  0
  2  1  1  6
  3  4  1  0
  3  2  1  0
  4  5  2  0
  6  7  2  0
  6  2  1  0
  8  4  1  0
  9 10  1  0
 10 12  1  0
 11 10  2  0
 13 12  1  1
 13 14  1  0
 13 15  1  0
 14  6  1  0
 15 19  1  0
 16 15  2  0
 18 17  1  6
 19 18  1  0
 20 18  1  0
 20 21  1  0
 22 20  2  0
M  END
$$$$
