DNA.pdb
     RDKit          3D

 22 21  0  0  1  0  0  0  0  0999 V2000
   15.0268   -9.8803  -14.7746 N   0  0  0  0  0  0  0  0  0  0  0  0
   16.2869  -10.1003  -14.0979 C   0  0  1  0  0  0  0  0  0  0  0  0
   17.2713  -10.7959  -15.0109 C   0  0  0  0  0  0  0  0  0  0  0  0
   16.9643  -12.2372  -15.1612 C   0  0  0  0  0  0  0  0  0  0  0  0
   16.2507  -12.8767  -14.3770 O   0  0  0  0  0  0  0  0  0  0  0  0
   16.8483   -8.7851  -13.7171 C   0  0  0  0  0  0  0  0  0  0  0  0
   16.7039   -7.8122  -14.4916 O   0  0  0  0  0  0  0  0  0  0  0  0
   17.5094  -12.9088  -16.2451 O   0  0  0  0  0  0  0  0  0  0  0  0
   18.9684   -5.0513  -10.9051 N   0  0  0  0  0  0  0  0  0  0  0  0
   18.5242   -6.0725  -10.0372 C   0  0  0  0  0  0  0  0  0  0  0  0
   18.5821   -5.8813   -8.8011 O   0  0  0  0  0  0  0  0  0  0  0  0
   18.0013   -7.3367  -10.5591 C   0  0  0  0  0  0  0  0  0  0  0  0
   18.0997   -7.4106  -12.0773 C   0  0  2  0  0  0  0  0  0  0  0  0
   17.5313   -8.6755  -12.4822 N   0  0  0  0  0  0  0  0  0  0  0  0
   19.4605   -7.2625  -12.6015 C   0  0  0  0  0  0  0  0  0  0  0  0
   20.1689   -8.2842  -12.7708 O   0  0  0  0  0  0  0  0  0  0  0  0
   21.2992   -6.6087  -14.9470 C   0  0  0  0  0  0  0  0  0  0  0  0
   21.3165   -5.8939  -13.6112 C   0  0  2  0  0  0  0  0  0  0  0  0
   20.0397   -6.0104  -12.9364 N   0  0  0  0  0  0  0  0  0  0  0  0
   21.7029   -4.4877  -13.8366 C   0  0  0  0  0  0  0  0  0  0  0  0
   22.9852   -4.1353  -14.2073 O   0  0  0  0  0  0  0  0  0  0  0  0
   20.8518   -3.5838  -13.6905 O   0  0  0  0  0  0  0  0  0  0  0  0
  2  1  1  6
  3  4  1  0
  3  2  1  0
  4  5  2  0
  6  7  2  0
  6  2  1  0
  8  4  1  0
  9 10  1  0
 10 12  1  0
 11 10  2  0
 13 12  1  1
 13 14  1  0
 13 15  1  0
 14  6  1  0
 15 19  1  0
 16 15  2  0
 18 17  1  6
 19 18  1  0
 20 18  1  0
 20 21  1  0
 22 20  2  0
M  END
$$$$
