DNA.pdb
     RDKit          3D

 22 21  0  0  1  0  0  0  0  0999 V2000
   20.2253  -22.9098   -9.3938 N   0  0  0  0  0  0  0  0  0  0  0  0
   19.8273  -23.0188  -10.7809 C   0  0  1  0  0  0  0  0  0  0  0  0
   18.3230  -23.1143  -10.9010 C   0  0  0  0  0  0  0  0  0  0  0  0
   17.7832  -24.2895  -10.1787 C   0  0  0  0  0  0  0  0  0  0  0  0
   16.7998  -24.2467   -9.4276 O   0  0  0  0  0  0  0  0  0  0  0  0
   20.2789  -21.8028  -11.4932 C   0  0  0  0  0  0  0  0  0  0  0  0
   19.8002  -20.6922  -11.1693 O   0  0  0  0  0  0  0  0  0  0  0  0
   18.4185  -25.5095  -10.3551 O   0  0  0  0  0  0  0  0  0  0  0  0
   23.1566  -18.7734  -14.5240 N   0  0  0  0  0  0  0  0  0  0  0  0
   23.8707  -19.9513  -14.2144 C   0  0  0  0  0  0  0  0  0  0  0  0
   25.0902  -20.0083  -14.4927 O   0  0  0  0  0  0  0  0  0  0  0  0
   23.2106  -21.0929  -13.5779 C   0  0  0  0  0  0  0  0  0  0  0  0
   21.7766  -20.7712  -13.1776 C   0  0  2  0  0  0  0  0  0  0  0  0
   21.2427  -21.9419  -12.5205 N   0  0  0  0  0  0  0  0  0  0  0  0
   20.9158  -20.3649  -14.2922 C   0  0  0  0  0  0  0  0  0  0  0  0
   20.6195  -21.2031  -15.1776 O   0  0  0  0  0  0  0  0  0  0  0  0
   18.3833  -17.7505  -14.9596 C   0  0  0  0  0  0  0  0  0  0  0  0
   19.4406  -18.7044  -15.4770 C   0  0  2  0  0  0  0  0  0  0  0  0
   20.3854  -19.0560  -14.4365 N   0  0  0  0  0  0  0  0  0  0  0  0
   20.0993  -18.0865  -16.6441 C   0  0  0  0  0  0  0  0  0  0  0  0
   21.4591  -17.8505  -16.6724 O   0  0  0  0  0  0  0  0  0  0  0  0
   19.4145  -17.7650  -17.6394 O   0  0  0  0  0  0  0  0  0  0  0  0
  2  1  1  1
  3  4  1  0
  3  2  1  0
  4  5  2  0
  6  7  2  0
  6  2  1  0
  8  4  1  0
  9 10  1  0
 10 12  1  0
 11 10  2  0
 13 12  1  6
 13 14  1  0
 13 15  1  0
 14  6  1  0
 15 19  1  0
 16 15  2  0
 18 17  1  1
 19 18  1  0
 20 18  1  0
 20 21  1  0
 22 20  2  0
M  END
$$$$
