QEP.pdb
     RDKit          3D

 26 26  0  0  1  0  0  0  0  0999 V2000
   17.6011  -14.8700  -13.0674 N   0  0  0  0  0  0  0  0  0  0  0  0
   17.0028  -15.2671  -14.2802 C   0  0  0  0  0  0  0  0  0  0  0  0
   15.8952  -15.8517  -14.2455 O   0  0  0  0  0  0  0  0  0  0  0  0
   17.6784  -14.9935  -15.5641 C   0  0  0  0  0  0  0  0  0  0  0  0
   16.8652  -14.2296  -16.5529 C   0  0  0  0  0  0  0  0  0  0  0  0
   17.5994  -13.8241  -17.7868 C   0  0  2  0  0  0  0  0  0  0  0  0
   18.5212  -14.9121  -18.1384 N   0  0  0  0  0  0  0  0  0  0  0  0
   18.4072  -12.5963  -17.5257 C   0  0  0  0  0  0  0  0  0  0  0  0
   19.6279  -12.7247  -17.2090 O   0  0  0  0  0  0  0  0  0  0  0  0
   17.8090  -11.3038  -17.6326 N   0  0  0  0  0  0  0  0  0  0  0  0
   18.5645  -10.0915  -17.4721 C   0  0  1  0  0  0  0  0  0  0  0  0
   17.6381   -8.9832  -17.9476 C   0  0  0  0  0  0  0  0  0  0  0  0
   18.2908   -7.6653  -17.9754 C   0  0  0  0  0  0  0  0  0  0  0  0
   17.4343   -6.5303  -17.5565 C   0  0  0  0  0  0  0  0  0  0  0  0
   17.8614   -5.3646  -17.4911 O   0  0  0  0  0  0  0  0  0  0  0  0
   19.1012   -9.7721  -16.1772 C   0  0  0  0  0  0  0  0  0  0  0  0
   18.3316   -9.8416  -15.1474 O   0  0  0  0  0  0  0  0  0  0  0  0
   16.0849   -6.7372  -17.2125 O   0  0  0  0  0  0  0  0  0  0  0  0
   20.4566   -9.3626  -15.8640 N   0  0  0  0  0  0  0  0  0  0  0  0
   21.5109   -9.3541  -16.8148 C   0  0  0  0  0  0  0  0  0  0  0  0
   22.7047   -8.7272  -16.1551 C   0  0  0  0  0  0  0  0  0  0  0  0
   22.2244   -8.2426  -14.8256 C   0  0  0  0  0  0  0  0  0  0  0  0
   20.9126   -8.9264  -14.5813 C   0  0  1  0  0  0  0  0  0  0  0  0
   20.0209   -7.9305  -13.9210 C   0  0  0  0  0  0  0  0  0  0  0  0
   20.0490   -7.6047  -12.5826 O   0  0  0  0  0  0  0  0  0  0  0  0
   19.1804   -7.3505  -14.6536 O   0  0  0  0  0  0  0  0  0  0  0  0
  2  1  1  0
  2  4  1  0
  3  2  2  0
  5  4  1  0
  6  5  1  0
  6  7  1  1
  8  9  2  0
  8  6  1  0
 10  8  1  0
 11 10  1  0
 11 12  1  1
 13 14  1  0
 13 12  1  0
 14 15  2  0
 16 11  1  0
 16 17  2  0
 18 14  1  0
 19 16  1  0
 20 21  1  0
 20 19  1  0
 22 21  1  0
 22 23  1  0
 23 19  1  0
 23 24  1  6
 25 24  1  0
 26 24  2  0
M  END
$$$$
