QEP.pdb
     RDKit          3D

 26 26  0  0  1  0  0  0  0  0999 V2000
   27.0070  -25.6309  -16.3230 N   0  0  0  0  0  0  0  0  0  0  0  0
   28.2393  -25.8555  -16.9690 C   0  0  0  0  0  0  0  0  0  0  0  0
   28.4195  -26.9409  -17.5681 O   0  0  0  0  0  0  0  0  0  0  0  0
   29.2930  -24.8218  -16.9344 C   0  0  0  0  0  0  0  0  0  0  0  0
   28.9279  -23.5751  -16.2029 C   0  0  0  0  0  0  0  0  0  0  0  0
   28.0447  -22.6412  -16.9604 C   0  0  2  0  0  0  0  0  0  0  0  0
   28.8865  -21.8931  -17.9032 N   0  0  0  0  0  0  0  0  0  0  0  0
   27.4085  -21.6639  -16.0285 C   0  0  0  0  0  0  0  0  0  0  0  0
   28.1531  -20.9383  -15.3035 O   0  0  0  0  0  0  0  0  0  0  0  0
   25.9861  -21.5541  -15.9606 N   0  0  0  0  0  0  0  0  0  0  0  0
   25.3264  -20.6793  -15.0300 C   0  0  1  0  0  0  0  0  0  0  0  0
   24.3667  -19.8559  -15.8747 C   0  0  0  0  0  0  0  0  0  0  0  0
   23.6087  -18.8734  -15.0849 C   0  0  0  0  0  0  0  0  0  0  0  0
   22.5521  -18.1482  -15.8298 C   0  0  0  0  0  0  0  0  0  0  0  0
   21.8074  -18.7155  -16.6478 O   0  0  0  0  0  0  0  0  0  0  0  0
   24.6367  -21.2516  -13.9059 C   0  0  0  0  0  0  0  0  0  0  0  0
   23.6384  -22.0363  -14.1187 O   0  0  0  0  0  0  0  0  0  0  0  0
   22.3524  -16.7685  -15.6330 O   0  0  0  0  0  0  0  0  0  0  0  0
   24.9301  -21.0517  -12.4999 N   0  0  0  0  0  0  0  0  0  0  0  0
   26.1053  -20.4089  -12.0296 C   0  0  0  0  0  0  0  0  0  0  0  0
   25.9694  -20.2581  -10.5422 C   0  0  0  0  0  0  0  0  0  0  0  0
   24.5849  -20.7150  -10.2141 C   0  0  0  0  0  0  0  0  0  0  0  0
   24.0994  -21.4705  -11.4146 C   0  0  1  0  0  0  0  0  0  0  0  0
   22.6565  -21.1350  -11.5836 C   0  0  0  0  0  0  0  0  0  0  0  0
   21.6388  -21.5718  -10.7640 O   0  0  0  0  0  0  0  0  0  0  0  0
   22.3577  -20.3959  -12.5553 O   0  0  0  0  0  0  0  0  0  0  0  0
  2  1  1  0
  2  4  1  0
  3  2  2  0
  5  4  1  0
  6  5  1  0
  6  7  1  6
  8  9  2  0
  8  6  1  0
 10  8  1  0
 11 10  1  0
 11 12  1  6
 13 14  1  0
 13 12  1  0
 14 15  2  0
 16 11  1  0
 16 17  2  0
 18 14  1  0
 19 16  1  0
 20 21  1  0
 20 19  1  0
 22 21  1  0
 22 23  1  0
 23 19  1  0
 23 24  1  6
 25 24  1  0
 26 24  2  0
M  END
$$$$
