QEP.pdb
     RDKit          3D

 26 26  0  0  1  0  0  0  0  0999 V2000
   16.2286  -13.0488  -14.3871 N   0  0  0  0  0  0  0  0  0  0  0  0
   17.4117  -13.6606  -14.8481 C   0  0  0  0  0  0  0  0  0  0  0  0
   17.7076  -14.8018  -14.4242 O   0  0  0  0  0  0  0  0  0  0  0  0
   18.2802  -12.9594  -15.8146 C   0  0  0  0  0  0  0  0  0  0  0  0
   17.8944  -11.5476  -16.0985 C   0  0  0  0  0  0  0  0  0  0  0  0
   18.8736  -10.7861  -16.9275 C   0  0  2  0  0  0  0  0  0  0  0  0
   20.2145  -11.3052  -16.6279 N   0  0  0  0  0  0  0  0  0  0  0  0
   18.8427   -9.3391  -16.5621 C   0  0  0  0  0  0  0  0  0  0  0  0
   17.7434   -8.7130  -16.6413 O   0  0  0  0  0  0  0  0  0  0  0  0
   20.0338   -8.6789  -16.1319 N   0  0  0  0  0  0  0  0  0  0  0  0
   20.0771   -7.2667  -15.8673 C   0  0  1  0  0  0  0  0  0  0  0  0
   21.0837   -7.1072  -14.7386 C   0  0  0  0  0  0  0  0  0  0  0  0
   21.0354   -5.7767  -14.1133 C   0  0  0  0  0  0  0  0  0  0  0  0
   21.9420   -5.5928  -12.9551 C   0  0  0  0  0  0  0  0  0  0  0  0
   22.8784   -4.7750  -12.9679 O   0  0  0  0  0  0  0  0  0  0  0  0
   20.3878   -6.3660  -16.9439 C   0  0  0  0  0  0  0  0  0  0  0  0
   21.5091   -6.4955  -17.5630 O   0  0  0  0  0  0  0  0  0  0  0  0
   21.7709   -6.3507  -11.7811 O   0  0  0  0  0  0  0  0  0  0  0  0
   19.5674   -5.2811  -17.4468 N   0  0  0  0  0  0  0  0  0  0  0  0
   18.2717   -4.9840  -16.9485 C   0  0  0  0  0  0  0  0  0  0  0  0
   17.8185   -3.7133  -17.6068 C   0  0  0  0  0  0  0  0  0  0  0  0
   18.9914   -3.2244  -18.3932 C   0  0  0  0  0  0  0  0  0  0  0  0
   19.9372   -4.3831  -18.4958 C   0  0  1  0  0  0  0  0  0  0  0  0
   21.3159   -3.8299  -18.3702 C   0  0  0  0  0  0  0  0  0  0  0  0
   21.9278   -3.0068  -19.2903 O   0  0  0  0  0  0  0  0  0  0  0  0
   21.9615   -4.1483  -17.3399 O   0  0  0  0  0  0  0  0  0  0  0  0
  2  1  1  0
  2  4  1  0
  3  2  2  0
  5  4  1  0
  6  5  1  0
  6  7  1  1
  8  9  2  0
  8  6  1  0
 10  8  1  0
 11 10  1  0
 11 12  1  1
 13 14  1  0
 13 12  1  0
 14 15  2  0
 16 11  1  0
 16 17  2  0
 18 14  1  0
 19 16  1  0
 20 21  1  0
 20 19  1  0
 22 21  1  0
 22 23  1  0
 23 19  1  0
 23 24  1  1
 25 24  1  0
 26 24  2  0
M  END
$$$$
