QEP.pdb
     RDKit          3D

 26 26  0  0  1  0  0  0  0  0999 V2000
   12.0413   -9.1658   -8.4643 N   0  0  0  0  0  0  0  0  0  0  0  0
   11.9929  -10.4766   -8.9798 C   0  0  0  0  0  0  0  0  0  0  0  0
   10.8919  -11.0734   -9.0133 O   0  0  0  0  0  0  0  0  0  0  0  0
   13.2251  -11.1259   -9.4700 C   0  0  0  0  0  0  0  0  0  0  0  0
   14.4570  -10.2917   -9.3737 C   0  0  0  0  0  0  0  0  0  0  0  0
   14.7275   -9.4354  -10.5651 C   0  0  2  0  0  0  0  0  0  0  0  0
   14.8474  -10.3172  -11.7335 N   0  0  0  0  0  0  0  0  0  0  0  0
   16.0209   -8.7098  -10.3953 C   0  0  0  0  0  0  0  0  0  0  0  0
   16.3862   -8.3787   -9.2275 O   0  0  0  0  0  0  0  0  0  0  0  0
   16.8268   -8.3978  -11.5324 N   0  0  0  0  0  0  0  0  0  0  0  0
   17.7366   -7.2851  -11.5476 C   0  0  1  0  0  0  0  0  0  0  0  0
   18.8236   -7.6775  -12.5360 C   0  0  0  0  0  0  0  0  0  0  0  0
   19.9780   -6.7663  -12.5077 C   0  0  0  0  0  0  0  0  0  0  0  0
   21.0461   -7.0737  -13.4885 C   0  0  0  0  0  0  0  0  0  0  0  0
   21.7269   -8.1121  -13.4257 O   0  0  0  0  0  0  0  0  0  0  0  0
   17.2298   -5.9758  -11.8569 C   0  0  0  0  0  0  0  0  0  0  0  0
   16.9980   -5.6698  -13.0858 O   0  0  0  0  0  0  0  0  0  0  0  0
   21.3310   -6.1851  -14.5426 O   0  0  0  0  0  0  0  0  0  0  0  0
   16.9326   -4.9054  -10.9248 N   0  0  0  0  0  0  0  0  0  0  0  0
   17.1324   -5.0104   -9.5232 C   0  0  0  0  0  0  0  0  0  0  0  0
   16.8594   -3.6592   -8.9288 C   0  0  0  0  0  0  0  0  0  0  0  0
   16.6403   -2.7435  -10.0892 C   0  0  0  0  0  0  0  0  0  0  0  0
   16.4022   -3.6257  -11.2778 C   0  0  1  0  0  0  0  0  0  0  0  0
   17.0802   -2.9813  -12.4388 C   0  0  0  0  0  0  0  0  0  0  0  0
   18.1778   -3.4893  -13.0990 O   0  0  0  0  0  0  0  0  0  0  0  0
   16.6047   -1.8879  -12.8361 O   0  0  0  0  0  0  0  0  0  0  0  0
  2  1  1  0
  2  4  1  0
  3  2  2  0
  5  4  1  0
  6  5  1  0
  6  7  1  6
  8  9  2  0
  8  6  1  0
 10  8  1  0
 11 10  1  0
 11 12  1  6
 13 14  1  0
 13 12  1  0
 14 15  2  0
 16 11  1  0
 16 17  2  0
 18 14  1  0
 19 16  1  0
 20 21  1  0
 20 19  1  0
 22 21  1  0
 22 23  1  0
 23 19  1  0
 23 24  1  6
 25 24  1  0
 26 24  2  0
M  END
$$$$
