QEP.pdb
     RDKit          3D

 26 26  0  0  1  0  0  0  0  0999 V2000
   20.5409  -14.2658  -16.6357 N   0  0  0  0  0  0  0  0  0  0  0  0
   21.6921  -14.9777  -17.0288 C   0  0  0  0  0  0  0  0  0  0  0  0
   21.8035  -16.1800  -16.6948 O   0  0  0  0  0  0  0  0  0  0  0  0
   22.7427  -14.3080  -17.8212 C   0  0  0  0  0  0  0  0  0  0  0  0
   22.4473  -12.8942  -18.1906 C   0  0  0  0  0  0  0  0  0  0  0  0
   23.2646  -11.8752  -17.4696 C   0  0  2  0  0  0  0  0  0  0  0  0
   23.4641  -12.3514  -16.0946 N   0  0  0  0  0  0  0  0  0  0  0  0
   22.5326  -10.5757  -17.4101 C   0  0  0  0  0  0  0  0  0  0  0  0
   22.3231   -9.9433  -18.4885 O   0  0  0  0  0  0  0  0  0  0  0  0
   22.0796  -10.0604  -16.1575 N   0  0  0  0  0  0  0  0  0  0  0  0
   21.3357   -8.8347  -16.0543 C   0  0  1  0  0  0  0  0  0  0  0  0
   20.0423   -9.2160  -15.3513 C   0  0  0  0  0  0  0  0  0  0  0  0
   19.1408  -10.0072  -16.2026 C   0  0  0  0  0  0  0  0  0  0  0  0
   17.8660  -10.4117  -15.5634 C   0  0  0  0  0  0  0  0  0  0  0  0
   17.5904  -10.1186  -14.3870 O   0  0  0  0  0  0  0  0  0  0  0  0
   21.9426   -7.7049  -15.4046 C   0  0  0  0  0  0  0  0  0  0  0  0
   22.4794   -7.8648  -14.2454 O   0  0  0  0  0  0  0  0  0  0  0  0
   16.9074  -11.1542  -16.2787 O   0  0  0  0  0  0  0  0  0  0  0  0
   22.0330   -6.3470  -15.9054 N   0  0  0  0  0  0  0  0  0  0  0  0
   21.6954   -5.9790  -17.2344 C   0  0  0  0  0  0  0  0  0  0  0  0
   21.7708   -4.4821  -17.3182 C   0  0  0  0  0  0  0  0  0  0  0  0
   22.0230   -4.0110  -15.9227 C   0  0  0  0  0  0  0  0  0  0  0  0
   22.4715   -5.2152  -15.1503 C   0  0  1  0  0  0  0  0  0  0  0  0
   21.8624   -5.1116  -13.7934 C   0  0  0  0  0  0  0  0  0  0  0  0
   22.3220   -4.3031  -12.7768 O   0  0  0  0  0  0  0  0  0  0  0  0
   20.8514   -5.8244  -13.5713 O   0  0  0  0  0  0  0  0  0  0  0  0
  2  1  1  0
  2  4  1  0
  3  2  2  0
  5  4  1  0
  6  5  1  0
  6  7  1  1
  8  9  2  0
  8  6  1  0
 10  8  1  0
 11 10  1  0
 11 12  1  1
 13 14  1  0
 13 12  1  0
 14 15  2  0
 16 11  1  0
 16 17  2  0
 18 14  1  0
 19 16  1  0
 20 21  1  0
 20 19  1  0
 22 21  1  0
 22 23  1  0
 23 19  1  0
 23 24  1  1
 25 24  1  0
 26 24  2  0
M  END
$$$$
