SET.pdb
     RDKit          3D

 23 22  0  0  1  0  0  0  0  0999 V2000
   16.8331  -11.6427  -16.7840 O   0  0  0  0  0  0  0  0  0  0  0  0
   17.8611  -10.9639  -16.1206 C   0  0  0  0  0  0  0  0  0  0  0  0
   17.8721   -9.5201  -16.5622 C   0  0  2  0  0  0  0  0  0  0  0  0
   18.0500   -9.5036  -17.9990 N   0  0  0  0  0  0  0  0  0  0  0  0
   18.9296   -8.7309  -15.9263 C   0  0  0  0  0  0  0  0  0  0  0  0
   18.9616   -8.6180  -14.6757 O   0  0  0  0  0  0  0  0  0  0  0  0
   19.9429   -8.0733  -16.6774 N   0  0  0  0  0  0  0  0  0  0  0  0
   20.9574   -7.2406  -16.0728 C   0  0  1  0  0  0  0  0  0  0  0  0
   22.3354   -7.8060  -16.3472 C   0  0  0  0  0  0  0  0  0  0  0  0
   22.6370   -9.0178  -15.5344 C   0  0  0  0  0  0  0  0  0  0  0  0
   23.9582   -9.5564  -15.9170 C   0  0  0  0  0  0  0  0  0  0  0  0
   24.7451   -9.9361  -15.0216 O   0  0  0  0  0  0  0  0  0  0  0  0
   20.8713   -5.8356  -16.5368 C   0  0  0  0  0  0  0  0  0  0  0  0
   20.8124   -5.5319  -17.7553 O   0  0  0  0  0  0  0  0  0  0  0  0
   24.3840   -9.6675  -17.2329 O   0  0  0  0  0  0  0  0  0  0  0  0
   18.6885   -3.6302  -17.2667 C   0  0  0  0  0  0  0  0  0  0  0  0
   19.3900   -2.8049  -16.2035 C   0  0  1  0  0  0  0  0  0  0  0  0
   18.6088   -2.9790  -15.0360 O   0  0  0  0  0  0  0  0  0  0  0  0
   20.7641   -3.3642  -16.0379 C   0  0  2  0  0  0  0  0  0  0  0  0
   20.8482   -4.7213  -15.6493 N   0  0  0  0  0  0  0  0  0  0  0  0
   21.4953   -2.5214  -15.0779 C   0  0  0  0  0  0  0  0  0  0  0  0
   21.7735   -1.1989  -15.3398 O   0  0  0  0  0  0  0  0  0  0  0  0
   21.8752   -3.0100  -13.9992 O   0  0  0  0  0  0  0  0  0  0  0  0
  2  3  1  0
  2  1  1  0
  3  5  1  0
  3  4  1  6
  5  6  2  0
  7  8  1  0
  7  5  1  0
  8 13  1  0
  8  9  1  6
 10  9  1  0
 11 10  1  0
 12 11  2  0
 13 20  1  0
 13 14  2  0
 15 11  1  0
 17 18  1  0
 17 16  1  6
 19 17  1  0
 19 20  1  1
 21 22  1  0
 21 19  1  0
 23 21  2  0
M  END
$$$$
