SET.pdb
     RDKit          3D

 23 22  0  0  1  0  0  0  0  0999 V2000
   26.8858  -12.3862  -15.9420 O   0  0  0  0  0  0  0  0  0  0  0  0
   26.0728  -11.3702  -16.4563 C   0  0  0  0  0  0  0  0  0  0  0  0
   24.6594  -11.8835  -16.5935 C   0  0  2  0  0  0  0  0  0  0  0  0
   24.6417  -12.8277  -17.6910 N   0  0  0  0  0  0  0  0  0  0  0  0
   23.6822  -10.8211  -16.8425 C   0  0  0  0  0  0  0  0  0  0  0  0
   23.4536  -10.4427  -18.0182 O   0  0  0  0  0  0  0  0  0  0  0  0
   22.9658  -10.1859  -15.7904 N   0  0  0  0  0  0  0  0  0  0  0  0
   21.9806   -9.1537  -16.0186 C   0  0  1  0  0  0  0  0  0  0  0  0
   20.6384   -9.5729  -15.4559 C   0  0  0  0  0  0  0  0  0  0  0  0
   19.5833   -8.5371  -15.6411 C   0  0  0  0  0  0  0  0  0  0  0  0
   18.2898   -9.0519  -15.1473 C   0  0  0  0  0  0  0  0  0  0  0  0
   17.4916   -8.2648  -14.5919 O   0  0  0  0  0  0  0  0  0  0  0  0
   22.3987   -7.8515  -15.4475 C   0  0  0  0  0  0  0  0  0  0  0  0
   23.0223   -7.7630  -14.3596 O   0  0  0  0  0  0  0  0  0  0  0  0
   17.9024  -10.3790  -15.2655 O   0  0  0  0  0  0  0  0  0  0  0  0
   22.8015   -2.9341  -15.7732 C   0  0  0  0  0  0  0  0  0  0  0  0
   22.2351   -4.1629  -16.4607 C   0  0  1  0  0  0  0  0  0  0  0  0
   22.9520   -4.2598  -17.6775 O   0  0  0  0  0  0  0  0  0  0  0  0
   22.4954   -5.3328  -15.5708 C   0  0  2  0  0  0  0  0  0  0  0  0
   22.1314   -6.6018  -16.0776 N   0  0  0  0  0  0  0  0  0  0  0  0
   21.8226   -5.0951  -14.2835 C   0  0  0  0  0  0  0  0  0  0  0  0
   20.6559   -5.7428  -13.9451 O   0  0  0  0  0  0  0  0  0  0  0  0
   22.3151   -4.2891  -13.4746 O   0  0  0  0  0  0  0  0  0  0  0  0
  2  3  1  0
  2  1  1  0
  3  5  1  0
  3  4  1  6
  5  6  2  0
  7  8  1  0
  7  5  1  0
  8 13  1  0
  8  9  1  1
 10  9  1  0
 11 10  1  0
 12 11  2  0
 13 20  1  0
 13 14  2  0
 15 11  1  0
 17 18  1  0
 17 16  1  1
 19 17  1  0
 19 20  1  6
 21 22  1  0
 21 19  1  0
 23 21  2  0
M  END
$$$$
