SET.pdb
     RDKit          3D

 23 22  0  0  1  0  0  0  0  0999 V2000
   11.6664  -12.7278  -12.3241 O   0  0  0  0  0  0  0  0  0  0  0  0
   12.5236  -11.7886  -11.7404 C   0  0  0  0  0  0  0  0  0  0  0  0
   13.9556  -12.2023  -11.9814 C   0  0  2  0  0  0  0  0  0  0  0  0
   14.1581  -13.4780  -11.3274 N   0  0  0  0  0  0  0  0  0  0  0  0
   14.9288  -11.2307  -11.4771 C   0  0  0  0  0  0  0  0  0  0  0  0
   15.3074  -11.2859  -10.2807 O   0  0  0  0  0  0  0  0  0  0  0  0
   15.4756  -10.2064  -12.2989 N   0  0  0  0  0  0  0  0  0  0  0  0
   16.4411   -9.2434  -11.8207 C   0  0  1  0  0  0  0  0  0  0  0  0
   17.4719   -8.9544  -12.8921 C   0  0  0  0  0  0  0  0  0  0  0  0
   18.1820  -10.1785  -13.3584 C   0  0  0  0  0  0  0  0  0  0  0  0
   19.2831   -9.7984  -14.2668 C   0  0  0  0  0  0  0  0  0  0  0  0
   19.9902   -8.8052  -13.9866 O   0  0  0  0  0  0  0  0  0  0  0  0
   15.7959   -7.9878  -11.3695 C   0  0  0  0  0  0  0  0  0  0  0  0
   14.7407   -7.5479  -11.8923 O   0  0  0  0  0  0  0  0  0  0  0  0
   19.5835  -10.4901  -15.4315 O   0  0  0  0  0  0  0  0  0  0  0  0
   14.4945   -6.9460   -7.9002 C   0  0  0  0  0  0  0  0  0  0  0  0
   15.5634   -5.9487   -8.3082 C   0  0  1  0  0  0  0  0  0  0  0  0
   16.7389   -6.3900   -7.6543 O   0  0  0  0  0  0  0  0  0  0  0  0
   15.6972   -6.0195   -9.7933 C   0  0  2  0  0  0  0  0  0  0  0  0
   16.3125   -7.1809  -10.3149 N   0  0  0  0  0  0  0  0  0  0  0  0
   16.4184   -4.8210  -10.2516 C   0  0  0  0  0  0  0  0  0  0  0  0
   15.9093   -3.5550  -10.0695 O   0  0  0  0  0  0  0  0  0  0  0  0
   17.5176   -4.9474  -10.8194 O   0  0  0  0  0  0  0  0  0  0  0  0
  2  3  1  0
  2  1  1  0
  3  5  1  0
  3  4  1  1
  5  6  2  0
  7  8  1  0
  7  5  1  0
  8 13  1  0
  8  9  1  6
 10  9  1  0
 11 10  1  0
 12 11  2  0
 13 20  1  0
 13 14  2  0
 15 11  1  0
 17 18  1  0
 17 16  1  1
 19 17  1  0
 19 20  1  1
 21 22  1  0
 21 19  1  0
 23 21  2  0
M  END
$$$$
