SET.pdb
     RDKit          3D

 23 22  0  0  1  0  0  0  0  0999 V2000
   14.4044   -7.8646  -15.1019 O   0  0  0  0  0  0  0  0  0  0  0  0
   15.7487   -7.6722  -14.7648 C   0  0  0  0  0  0  0  0  0  0  0  0
   16.3219   -8.9669  -14.2404 C   0  0  2  0  0  0  0  0  0  0  0  0
   15.7591   -9.1936  -12.9259 N   0  0  0  0  0  0  0  0  0  0  0  0
   17.7842   -8.9569  -14.1548 C   0  0  0  0  0  0  0  0  0  0  0  0
   18.3461   -8.9395  -13.0315 O   0  0  0  0  0  0  0  0  0  0  0  0
   18.6131   -8.9661  -15.3107 N   0  0  0  0  0  0  0  0  0  0  0  0
   20.0563   -8.9315  -15.2462 C   0  0  1  0  0  0  0  0  0  0  0  0
   20.6522   -9.8765  -16.2687 C   0  0  0  0  0  0  0  0  0  0  0  0
   20.4806  -11.3104  -15.9019 C   0  0  0  0  0  0  0  0  0  0  0  0
   21.0831  -12.1656  -16.9448 C   0  0  0  0  0  0  0  0  0  0  0  0
   20.3365  -12.8484  -17.6807 O   0  0  0  0  0  0  0  0  0  0  0  0
   20.5874   -7.5608  -15.4352 C   0  0  0  0  0  0  0  0  0  0  0  0
   20.8873   -7.1056  -16.5680 O   0  0  0  0  0  0  0  0  0  0  0  0
   22.4509  -12.2570  -17.1593 O   0  0  0  0  0  0  0  0  0  0  0  0
   19.4056   -4.4167  -15.6726 C   0  0  0  0  0  0  0  0  0  0  0  0
   20.3056   -4.2333  -14.4643 C   0  0  1  0  0  0  0  0  0  0  0  0
   19.4390   -4.3306  -13.3492 O   0  0  0  0  0  0  0  0  0  0  0  0
   21.3093   -5.3382  -14.4827 C   0  0  2  0  0  0  0  0  0  0  0  0
   20.8009   -6.6519  -14.3589 N   0  0  0  0  0  0  0  0  0  0  0  0
   22.3002   -5.0822  -13.4248 C   0  0  0  0  0  0  0  0  0  0  0  0
   22.4914   -5.9614  -12.3829 O   0  0  0  0  0  0  0  0  0  0  0  0
   22.9869   -4.0462  -13.4664 O   0  0  0  0  0  0  0  0  0  0  0  0
  2  3  1  0
  2  1  1  0
  3  5  1  0
  3  4  1  1
  5  6  2  0
  7  8  1  0
  7  5  1  0
  8 13  1  0
  8  9  1  6
 10  9  1  0
 11 10  1  0
 12 11  2  0
 13 20  1  0
 13 14  2  0
 15 11  1  0
 17 18  1  0
 17 16  1  6
 19 17  1  0
 19 20  1  1
 21 22  1  0
 21 19  1  0
 23 21  2  0
M  END
$$$$
