SET.pdb
     RDKit          3D

 23 22  0  0  1  0  0  0  0  0999 V2000
   15.9720   -7.9452  -15.9151 O   0  0  0  0  0  0  0  0  0  0  0  0
   16.2529   -9.1066  -16.6430 C   0  0  0  0  0  0  0  0  0  0  0  0
   17.0291  -10.0656  -15.7726 C   0  0  2  0  0  0  0  0  0  0  0  0
   16.1620  -10.4692  -14.6856 N   0  0  0  0  0  0  0  0  0  0  0  0
   18.2599   -9.4850  -15.2308 C   0  0  0  0  0  0  0  0  0  0  0  0
   18.3782   -9.3099  -13.9926 O   0  0  0  0  0  0  0  0  0  0  0  0
   19.3496   -9.1029  -16.0616 N   0  0  0  0  0  0  0  0  0  0  0  0
   20.6111   -8.6298  -15.5392 C   0  0  1  0  0  0  0  0  0  0  0  0
   21.7605   -9.3855  -16.1729 C   0  0  0  0  0  0  0  0  0  0  0  0
   23.0906   -8.9590  -15.6541 C   0  0  0  0  0  0  0  0  0  0  0  0
   24.1578   -9.7100  -16.3462 C   0  0  0  0  0  0  0  0  0  0  0  0
   24.5701  -10.7819  -15.8501 O   0  0  0  0  0  0  0  0  0  0  0  0
   20.7799   -7.1702  -15.7338 C   0  0  0  0  0  0  0  0  0  0  0  0
   20.9079   -6.6536  -16.8726 O   0  0  0  0  0  0  0  0  0  0  0  0
   24.7390   -9.2889  -17.5337 O   0  0  0  0  0  0  0  0  0  0  0  0
   18.6654   -4.2963  -15.2210 C   0  0  0  0  0  0  0  0  0  0  0  0
   19.8551   -3.9828  -14.3323 C   0  0  1  0  0  0  0  0  0  0  0  0
   19.4299   -4.3214  -13.0252 O   0  0  0  0  0  0  0  0  0  0  0  0
   20.9894   -4.8414  -14.7845 C   0  0  2  0  0  0  0  0  0  0  0  0
   20.8109   -6.2383  -14.6564 N   0  0  0  0  0  0  0  0  0  0  0  0
   22.2034   -4.4229  -14.0651 C   0  0  0  0  0  0  0  0  0  0  0  0
   22.6913   -3.1387  -14.1529 O   0  0  0  0  0  0  0  0  0  0  0  0
   22.8101   -5.2458  -13.3569 O   0  0  0  0  0  0  0  0  0  0  0  0
  2  3  1  0
  2  1  1  0
  3  5  1  0
  3  4  1  1
  5  6  2  0
  7  8  1  0
  7  5  1  0
  8 13  1  0
  8  9  1  6
 10  9  1  0
 11 10  1  0
 12 11  2  0
 13 20  1  0
 13 14  2  0
 15 11  1  0
 17 18  1  0
 17 16  1  6
 19 17  1  0
 19 20  1  1
 21 22  1  0
 21 19  1  0
 23 21  2  0
M  END
$$$$
