SET.pdb
     RDKit          3D

 23 22  0  0  1  0  0  0  0  0999 V2000
   14.7013  -10.2399  -16.6357 O   0  0  0  0  0  0  0  0  0  0  0  0
   15.5908   -9.5954  -15.7690 C   0  0  0  0  0  0  0  0  0  0  0  0
   16.9661  -10.1983  -15.9265 C   0  0  2  0  0  0  0  0  0  0  0  0
   16.9380  -11.5147  -15.3243 N   0  0  0  0  0  0  0  0  0  0  0  0
   18.0219   -9.3953  -15.3052 C   0  0  0  0  0  0  0  0  0  0  0  0
   18.2019   -9.4495  -14.0632 O   0  0  0  0  0  0  0  0  0  0  0  0
   18.8700   -8.5394  -16.0613 N   0  0  0  0  0  0  0  0  0  0  0  0
   19.9062   -7.7284  -15.4640 C   0  0  1  0  0  0  0  0  0  0  0  0
   21.2727   -8.2144  -15.9003 C   0  0  0  0  0  0  0  0  0  0  0  0
   21.6476   -9.5186  -15.2847 C   0  0  0  0  0  0  0  0  0  0  0  0
   22.9602   -9.9539  -15.8041 C   0  0  0  0  0  0  0  0  0  0  0  0
   24.0020   -9.5768  -15.2232 O   0  0  0  0  0  0  0  0  0  0  0  0
   19.7401   -6.2910  -15.7850 C   0  0  0  0  0  0  0  0  0  0  0  0
   19.6075   -5.8759  -16.9641 O   0  0  0  0  0  0  0  0  0  0  0  0
   23.1071  -10.7699  -16.9166 O   0  0  0  0  0  0  0  0  0  0  0  0
   18.4398   -1.7519  -14.7422 C   0  0  0  0  0  0  0  0  0  0  0  0
   18.5048   -3.1852  -14.2473 C   0  0  1  0  0  0  0  0  0  0  0  0
   17.2161   -3.7141  -14.4989 O   0  0  0  0  0  0  0  0  0  0  0  0
   19.5552   -3.8859  -15.0438 C   0  0  2  0  0  0  0  0  0  0  0  0
   19.7169   -5.2682  -14.7933 N   0  0  0  0  0  0  0  0  0  0  0  0
   20.8344   -3.1865  -14.8413 C   0  0  0  0  0  0  0  0  0  0  0  0
   21.0603   -1.9274  -15.3499 O   0  0  0  0  0  0  0  0  0  0  0  0
   21.7402   -3.7414  -14.1946 O   0  0  0  0  0  0  0  0  0  0  0  0
  2  3  1  0
  2  1  1  0
  3  5  1  0
  3  4  1  1
  5  6  2  0
  7  8  1  0
  7  5  1  0
  8 13  1  0
  8  9  1  6
 10  9  1  0
 11 10  1  0
 12 11  2  0
 13 20  1  0
 13 14  2  0
 15 11  1  0
 17 18  1  0
 17 16  1  6
 19 17  1  0
 19 20  1  1
 21 22  1  0
 21 19  1  0
 23 21  2  0
M  END
$$$$
