SET.pdb
     RDKit          3D

 23 22  0  0  1  0  0  0  0  0999 V2000
   15.5501  -12.9906  -10.2410 O   0  0  0  0  0  0  0  0  0  0  0  0
   15.7874  -11.7924  -10.9236 C   0  0  0  0  0  0  0  0  0  0  0  0
   15.1302  -10.6553  -10.1788 C   0  0  2  0  0  0  0  0  0  0  0  0
   13.7021  -10.8936  -10.1887 N   0  0  0  0  0  0  0  0  0  0  0  0
   15.4142   -9.3428  -10.7638 C   0  0  0  0  0  0  0  0  0  0  0  0
   14.5041   -8.7094  -11.3540 O   0  0  0  0  0  0  0  0  0  0  0  0
   16.7012   -8.7412  -10.6917 N   0  0  0  0  0  0  0  0  0  0  0  0
   17.0023   -7.4519  -11.2707 C   0  0  1  0  0  0  0  0  0  0  0  0
   16.1747   -6.3705  -10.6078 C   0  0  0  0  0  0  0  0  0  0  0  0
   16.3491   -6.3320   -9.1286 C   0  0  0  0  0  0  0  0  0  0  0  0
   15.7012   -5.1217   -8.5833 C   0  0  0  0  0  0  0  0  0  0  0  0
   14.4531   -5.0782   -8.5094 O   0  0  0  0  0  0  0  0  0  0  0  0
   18.4458   -7.1276  -11.1827 C   0  0  0  0  0  0  0  0  0  0  0  0
   19.0932   -7.2252  -10.1096 O   0  0  0  0  0  0  0  0  0  0  0  0
   16.4078   -4.0124   -8.1411 O   0  0  0  0  0  0  0  0  0  0  0  0
   21.1653   -8.9303  -12.2954 C   0  0  0  0  0  0  0  0  0  0  0  0
   21.3621   -7.6349  -13.0614 C   0  0  1  0  0  0  0  0  0  0  0  0
   20.8001   -7.8798  -14.3374 O   0  0  0  0  0  0  0  0  0  0  0  0
   20.6231   -6.5652  -12.3278 C   0  0  2  0  0  0  0  0  0  0  0  0
   19.2142   -6.6820  -12.2968 N   0  0  0  0  0  0  0  0  0  0  0  0
   21.0060   -5.2630  -12.8973 C   0  0  0  0  0  0  0  0  0  0  0  0
   22.3077   -4.8159  -12.8729 O   0  0  0  0  0  0  0  0  0  0  0  0
   20.1358   -4.5417  -13.4162 O   0  0  0  0  0  0  0  0  0  0  0  0
  2  3  1  0
  2  1  1  0
  3  5  1  0
  3  4  1  6
  5  6  2  0
  7  8  1  0
  7  5  1  0
  8 13  1  0
  8  9  1  1
 10  9  1  0
 11 10  1  0
 12 11  2  0
 13 20  1  0
 13 14  2  0
 15 11  1  0
 17 18  1  0
 17 16  1  1
 19 17  1  0
 19 20  1  6
 21 22  1  0
 21 19  1  0
 23 21  2  0
M  END
$$$$
