SET.pdb
     RDKit          3D

 23 22  0  0  1  0  0  0  0  0999 V2000
   26.2055  -13.2543  -16.3545 O   0  0  0  0  0  0  0  0  0  0  0  0
   25.5264  -12.0457  -16.5434 C   0  0  0  0  0  0  0  0  0  0  0  0
   24.1275  -12.3308  -17.0348 C   0  0  2  0  0  0  0  0  0  0  0  0
   24.2275  -12.7592  -18.4142 N   0  0  0  0  0  0  0  0  0  0  0  0
   23.2369  -11.1715  -16.9429 C   0  0  0  0  0  0  0  0  0  0  0  0
   23.1993  -10.3342  -17.8784 O   0  0  0  0  0  0  0  0  0  0  0  0
   22.3955  -10.9471  -15.8180 N   0  0  0  0  0  0  0  0  0  0  0  0
   21.4771   -9.8349  -15.7300 C   0  0  1  0  0  0  0  0  0  0  0  0
   20.2222  -10.2454  -14.9880 C   0  0  0  0  0  0  0  0  0  0  0  0
   19.3715  -11.1893  -15.7662 C   0  0  0  0  0  0  0  0  0  0  0  0
   18.2086  -11.5970  -14.9516 C   0  0  0  0  0  0  0  0  0  0  0  0
   17.8344  -12.7905  -14.9762 O   0  0  0  0  0  0  0  0  0  0  0  0
   22.0972   -8.6528  -15.0859 C   0  0  0  0  0  0  0  0  0  0  0  0
   22.9031   -8.7547  -14.1266 O   0  0  0  0  0  0  0  0  0  0  0  0
   17.4956  -10.7189  -14.1479 O   0  0  0  0  0  0  0  0  0  0  0  0
   24.1341   -5.8161  -16.6274 C   0  0  0  0  0  0  0  0  0  0  0  0
   22.9709   -5.1585  -15.9076 C   0  0  1  0  0  0  0  0  0  0  0  0
   22.0394   -4.8525  -16.9286 O   0  0  0  0  0  0  0  0  0  0  0  0
   22.4233   -6.1547  -14.9400 C   0  0  2  0  0  0  0  0  0  0  0  0
   21.8346   -7.3138  -15.4961 N   0  0  0  0  0  0  0  0  0  0  0  0
   21.4557   -5.4702  -14.0673 C   0  0  0  0  0  0  0  0  0  0  0  0
   21.8272   -4.4232  -13.2543 O   0  0  0  0  0  0  0  0  0  0  0  0
   20.2689   -5.8418  -14.0586 O   0  0  0  0  0  0  0  0  0  0  0  0
  2  3  1  0
  2  1  1  0
  3  5  1  0
  3  4  1  6
  5  6  2  0
  7  8  1  0
  7  5  1  0
  8 13  1  0
  8  9  1  1
 10  9  1  0
 11 10  1  0
 12 11  2  0
 13 20  1  0
 13 14  2  0
 15 11  1  0
 17 18  1  0
 17 16  1  6
 19 17  1  0
 19 20  1  6
 21 22  1  0
 21 19  1  0
 23 21  2  0
M  END
$$$$
