WYQ.pdb
     RDKit          3D

 36 38  0  0  1  0  0  0  0  0999 V2000
    5.6579  -17.1598   24.1234 N   0  0  0  0  0  0  0  0  0  0  0  0
    6.8141  -16.3278   23.8545 C   0  0  1  0  0  0  0  0  0  0  0  0
    7.4942  -15.9803   25.1539 C   0  0  0  0  0  0  0  0  0  0  0  0
    6.6846  -14.9274   25.8088 C   0  0  0  0  0  0  0  0  0  0  0  0
    5.3756  -15.0183   26.2140 C   0  0  0  0  0  0  0  0  0  0  0  0
    5.0053  -13.8327   26.7696 N   0  0  0  0  0  0  0  0  0  0  0  0
    6.0318  -12.9776   26.7373 C   0  0  0  0  0  0  0  0  0  0  0  0
    6.2017  -11.6854   27.1506 C   0  0  0  0  0  0  0  0  0  0  0  0
    7.4201  -11.0203   26.9845 C   0  0  0  0  0  0  0  0  0  0  0  0
    8.4718  -11.6783   26.3928 C   0  0  0  0  0  0  0  0  0  0  0  0
    8.2822  -12.9771   25.9837 C   0  0  0  0  0  0  0  0  0  0  0  0
    7.0816  -13.6427   26.1436 C   0  0  0  0  0  0  0  0  0  0  0  0
    7.7737  -16.9961   22.9534 C   0  0  0  0  0  0  0  0  0  0  0  0
    7.4274  -17.8291   22.1002 O   0  0  0  0  0  0  0  0  0  0  0  0
    7.3598  -13.7854   16.5637 O   0  0  0  0  0  0  0  0  0  0  0  0
    7.7476  -13.9740   17.9019 C   0  0  0  0  0  0  0  0  0  0  0  0
    7.0684  -14.8275   18.7233 C   0  0  0  0  0  0  0  0  0  0  0  0
    7.4580  -15.0039   20.0327 C   0  0  0  0  0  0  0  0  0  0  0  0
    8.5528  -14.3261   20.5749 C   0  0  0  0  0  0  0  0  0  0  0  0
    8.9536  -14.5284   21.9860 C   0  0  0  0  0  0  0  0  0  0  0  0
    9.7989  -15.7710   22.1331 C   0  0  2  0  0  0  0  0  0  0  0  0
    9.1583  -16.6484   23.0929 N   0  0  0  0  0  0  0  0  0  0  0  0
   11.1622  -15.4501   22.6345 C   0  0  0  0  0  0  0  0  0  0  0  0
   11.3202  -14.6628   23.6146 O   0  0  0  0  0  0  0  0  0  0  0  0
    9.2189  -13.4684   19.7137 C   0  0  0  0  0  0  0  0  0  0  0  0
    8.8329  -13.2880   18.4014 C   0  0  0  0  0  0  0  0  0  0  0  0
   10.6798  -20.4860   23.2821 N   0  0  0  0  0  0  0  0  0  0  0  0
   11.0091  -19.7188   24.4284 C   0  0  0  0  0  0  0  0  0  0  0  0
   10.5994  -20.0878   25.5474 O   0  0  0  0  0  0  0  0  0  0  0  0
   11.8330  -18.5003   24.2322 C   0  0  0  0  0  0  0  0  0  0  0  0
   12.3117  -18.2966   22.8274 C   0  0  0  0  0  0  0  0  0  0  0  0
   13.1265  -17.0607   22.6962 C   0  0  2  0  0  0  0  0  0  0  0  0
   12.3394  -15.9831   22.0716 N   0  0  0  0  0  0  0  0  0  0  0  0
   14.2586  -17.3143   21.7797 C   0  0  0  0  0  0  0  0  0  0  0  0
   14.1542  -17.3680   20.4032 O   0  0  0  0  0  0  0  0  0  0  0  0
   15.4082  -17.4976   22.3057 O   0  0  0  0  0  0  0  0  0  0  0  0
  2  1  1  1
  3  2  1  0
  3  4  1  0
  4 12  1  0
  4  5  2  0
  5  6  1  0
  7  6  1  0
  7  8  2  0
  9  8  1  0
 10  9  2  0
 11 12  2  0
 11 10  1  0
 12  7  1  0
 13 14  2  0
 13  2  1  0
 15 16  1  0
 16 17  2  0
 17 18  1  0
 19 18  2  0
 19 20  1  0
 21 20  1  1
 21 22  1  0
 22 13  1  0
 23 21  1  0
 24 23  2  0
 25 19  1  0
 26 16  1  0
 26 25  2  0
 28 29  2  0
 28 27  1  0
 30 28  1  0
 32 31  1  6
 31 30  1  0
 32 33  1  0
 33 23  1  0
 34 35  1  0
 34 32  1  0
 36 34  2  0
M  END
$$$$
