WYQ.pdb
     RDKit          3D

 36 38  0  0  1  0  0  0  0  0999 V2000
    7.0097  -17.9906   26.0493 N   0  0  0  0  0  0  0  0  0  0  0  0
    7.4458  -16.7175   25.5104 C   0  0  1  0  0  0  0  0  0  0  0  0
    8.8144  -16.3880   26.0491 C   0  0  0  0  0  0  0  0  0  0  0  0
    8.6505  -15.2928   27.0323 C   0  0  0  0  0  0  0  0  0  0  0  0
    9.0288  -15.2988   28.3525 C   0  0  0  0  0  0  0  0  0  0  0  0
    8.7009  -14.1008   28.9079 N   0  0  0  0  0  0  0  0  0  0  0  0
    8.1228  -13.3196   27.9905 C   0  0  0  0  0  0  0  0  0  0  0  0
    7.6138  -12.0508   28.0116 C   0  0  0  0  0  0  0  0  0  0  0  0
    7.0531  -11.4705   26.8700 C   0  0  0  0  0  0  0  0  0  0  0  0
    7.0116  -12.1897   25.6995 C   0  0  0  0  0  0  0  0  0  0  0  0
    7.5282  -13.4638   25.6975 C   0  0  0  0  0  0  0  0  0  0  0  0
    8.0844  -14.0459   26.8208 C   0  0  0  0  0  0  0  0  0  0  0  0
    7.4812  -16.7293   24.0346 C   0  0  0  0  0  0  0  0  0  0  0  0
    7.4054  -17.7742   23.3681 O   0  0  0  0  0  0  0  0  0  0  0  0
    8.1122  -13.3085   15.9023 O   0  0  0  0  0  0  0  0  0  0  0  0
    7.9361  -13.4702   17.2877 C   0  0  0  0  0  0  0  0  0  0  0  0
    7.0215  -14.3520   17.7881 C   0  0  0  0  0  0  0  0  0  0  0  0
    6.8581  -14.5016   19.1476 C   0  0  0  0  0  0  0  0  0  0  0  0
    7.6113  -13.7670   20.0669 C   0  0  0  0  0  0  0  0  0  0  0  0
    7.4183  -13.9414   21.5248 C   0  0  0  0  0  0  0  0  0  0  0  0
    7.5948  -15.3873   21.9223 C   0  0  2  0  0  0  0  0  0  0  0  0
    7.6095  -15.4647   23.3699 N   0  0  0  0  0  0  0  0  0  0  0  0
    8.8781  -15.9425   21.4144 C   0  0  0  0  0  0  0  0  0  0  0  0
    9.0603  -16.1131   20.1722 O   0  0  0  0  0  0  0  0  0  0  0  0
    8.5297  -12.8819   19.5248 C   0  0  0  0  0  0  0  0  0  0  0  0
    8.6974  -12.7281   18.1640 C   0  0  0  0  0  0  0  0  0  0  0  0
   13.5431  -14.7091   18.3347 N   0  0  0  0  0  0  0  0  0  0  0  0
   13.8626  -14.6781   19.7160 C   0  0  0  0  0  0  0  0  0  0  0  0
   14.6123  -13.7796   20.1483 O   0  0  0  0  0  0  0  0  0  0  0  0
   13.2817  -15.7317   20.5845 C   0  0  0  0  0  0  0  0  0  0  0  0
   11.8626  -15.4826   20.9946 C   0  0  0  0  0  0  0  0  0  0  0  0
   11.3008  -16.6262   21.7595 C   0  0  2  0  0  0  0  0  0  0  0  0
    9.9499  -16.3074   22.2539 N   0  0  0  0  0  0  0  0  0  0  0  0
   12.1242  -16.8623   22.9646 C   0  0  0  0  0  0  0  0  0  0  0  0
   12.4002  -15.9067   23.9234 O   0  0  0  0  0  0  0  0  0  0  0  0
   12.6119  -18.0326   23.1207 O   0  0  0  0  0  0  0  0  0  0  0  0
  2  1  1  1
  3  2  1  0
  3  4  1  0
  4 12  1  0
  4  5  2  0
  5  6  1  0
  7  6  1  0
  7  8  2  0
  9  8  1  0
 10  9  2  0
 11 12  2  0
 11 10  1  0
 12  7  1  0
 13 14  2  0
 13  2  1  0
 15 16  1  0
 16 17  2  0
 17 18  1  0
 19 18  2  0
 19 20  1  0
 21 20  1  1
 21 22  1  0
 22 13  1  0
 23 21  1  0
 24 23  2  0
 25 19  1  0
 26 16  1  0
 26 25  2  0
 28 29  2  0
 28 27  1  0
 30 28  1  0
 32 31  1  1
 31 30  1  0
 32 33  1  0
 33 23  1  0
 34 35  1  0
 34 32  1  0
 36 34  2  0
M  END
$$$$
