WYQ.pdb
     RDKit          3D

 36 38  0  0  1  0  0  0  0  0999 V2000
    6.1710  -18.0682   24.6688 N   0  0  0  0  0  0  0  0  0  0  0  0
    6.9603  -16.8780   24.4205 C   0  0  1  0  0  0  0  0  0  0  0  0
    7.5572  -16.3933   25.7169 C   0  0  0  0  0  0  0  0  0  0  0  0
    6.8618  -15.1378   26.0816 C   0  0  0  0  0  0  0  0  0  0  0  0
    5.5321  -14.9842   26.3884 C   0  0  0  0  0  0  0  0  0  0  0  0
    5.2946  -13.6735   26.6658 N   0  0  0  0  0  0  0  0  0  0  0  0
    6.4272  -12.9737   26.5486 C   0  0  0  0  0  0  0  0  0  0  0  0
    6.7464  -11.6541   26.7100 C   0  0  0  0  0  0  0  0  0  0  0  0
    8.0507  -11.1898   26.5155 C   0  0  0  0  0  0  0  0  0  0  0  0
    9.0353  -12.0780   26.1540 C   0  0  0  0  0  0  0  0  0  0  0  0
    8.6954  -13.4008   25.9964 C   0  0  0  0  0  0  0  0  0  0  0  0
    7.4091  -13.8691   26.1864 C   0  0  0  0  0  0  0  0  0  0  0  0
    8.0352  -17.1268   23.4397 C   0  0  0  0  0  0  0  0  0  0  0  0
    8.2299  -18.2388   22.9225 O   0  0  0  0  0  0  0  0  0  0  0  0
    6.4750  -13.4433   16.8044 O   0  0  0  0  0  0  0  0  0  0  0  0
    7.2671  -13.7087   17.9352 C   0  0  0  0  0  0  0  0  0  0  0  0
    7.4683  -12.7617   18.8982 C   0  0  0  0  0  0  0  0  0  0  0  0
    8.2465  -13.0337   20.0017 C   0  0  0  0  0  0  0  0  0  0  0  0
    8.8589  -14.2761   20.1850 C   0  0  0  0  0  0  0  0  0  0  0  0
    9.6937  -14.5472   21.3778 C   0  0  0  0  0  0  0  0  0  0  0  0
    9.5609  -15.9872   21.8121 C   0  0  2  0  0  0  0  0  0  0  0  0
    8.8747  -16.0179   23.0888 N   0  0  0  0  0  0  0  0  0  0  0  0
   10.8902  -16.6327   21.9835 C   0  0  0  0  0  0  0  0  0  0  0  0
   11.5709  -16.9852   20.9747 O   0  0  0  0  0  0  0  0  0  0  0  0
    8.6337  -15.2132   19.1891 C   0  0  0  0  0  0  0  0  0  0  0  0
    7.8552  -14.9460   18.0818 C   0  0  0  0  0  0  0  0  0  0  0  0
   16.6884  -15.0504   23.5321 N   0  0  0  0  0  0  0  0  0  0  0  0
   16.3144  -16.1198   22.6792 C   0  0  0  0  0  0  0  0  0  0  0  0
   16.8945  -16.2570   21.5833 O   0  0  0  0  0  0  0  0  0  0  0  0
   15.2370  -17.0294   23.1414 C   0  0  0  0  0  0  0  0  0  0  0  0
   13.8497  -16.5206   22.8952 C   0  0  0  0  0  0  0  0  0  0  0  0
   12.8189  -17.4539   23.4195 C   0  0  2  0  0  0  0  0  0  0  0  0
   11.4691  -16.8902   23.2426 N   0  0  0  0  0  0  0  0  0  0  0  0
   12.9990  -17.6149   24.8781 C   0  0  0  0  0  0  0  0  0  0  0  0
   12.0445  -17.2959   25.8244 O   0  0  0  0  0  0  0  0  0  0  0  0
   14.1184  -18.0793   25.2823 O   0  0  0  0  0  0  0  0  0  0  0  0
  2  1  1  1
  3  2  1  0
  3  4  1  0
  4 12  1  0
  4  5  2  0
  5  6  1  0
  7  6  1  0
  7  8  2  0
  9  8  1  0
 10  9  2  0
 11 12  2  0
 11 10  1  0
 12  7  1  0
 13 14  2  0
 13  2  1  0
 15 16  1  0
 16 17  2  0
 17 18  1  0
 19 18  2  0
 19 20  1  0
 21 20  1  1
 21 22  1  0
 22 13  1  0
 23 21  1  0
 24 23  2  0
 25 19  1  0
 26 16  1  0
 26 25  2  0
 28 29  2  0
 28 27  1  0
 30 28  1  0
 32 31  1  1
 31 30  1  0
 32 33  1  0
 33 23  1  0
 34 35  1  0
 34 32  1  0
 36 34  2  0
M  END
$$$$
