WYQ.pdb
     RDKit          3D

 36 38  0  0  1  0  0  0  0  0999 V2000
    7.4040  -19.1969   26.5081 N   0  0  0  0  0  0  0  0  0  0  0  0
    8.0371  -17.9545   26.1124 C   0  0  1  0  0  0  0  0  0  0  0  0
    9.5193  -18.0427   26.3720 C   0  0  0  0  0  0  0  0  0  0  0  0
    9.8020  -17.2528   27.5923 C   0  0  0  0  0  0  0  0  0  0  0  0
   10.1299  -17.7348   28.8357 C   0  0  0  0  0  0  0  0  0  0  0  0
   10.3096  -16.6831   29.6802 N   0  0  0  0  0  0  0  0  0  0  0  0
   10.1088  -15.5363   29.0239 C   0  0  0  0  0  0  0  0  0  0  0  0
   10.1579  -14.2181   29.3834 C   0  0  0  0  0  0  0  0  0  0  0  0
    9.8942  -13.2002   28.4620 C   0  0  0  0  0  0  0  0  0  0  0  0
    9.5783  -13.5300   27.1657 C   0  0  0  0  0  0  0  0  0  0  0  0
    9.5338  -14.8607   26.8228 C   0  0  0  0  0  0  0  0  0  0  0  0
    9.7929  -15.8737   27.7265 C   0  0  0  0  0  0  0  0  0  0  0  0
    7.7985  -17.6458   24.6886 C   0  0  0  0  0  0  0  0  0  0  0  0
    7.4392  -18.5032   23.8654 O   0  0  0  0  0  0  0  0  0  0  0  0
    7.1757  -12.6871   17.4011 O   0  0  0  0  0  0  0  0  0  0  0  0
    7.2308  -13.1330   18.7332 C   0  0  0  0  0  0  0  0  0  0  0  0
    6.4137  -14.1311   19.1812 C   0  0  0  0  0  0  0  0  0  0  0  0
    6.4770  -14.5594   20.4889 C   0  0  0  0  0  0  0  0  0  0  0  0
    7.3692  -13.9994   21.4067 C   0  0  0  0  0  0  0  0  0  0  0  0
    7.4195  -14.4729   22.8089 C   0  0  0  0  0  0  0  0  0  0  0  0
    7.8471  -15.9196   22.8738 C   0  0  2  0  0  0  0  0  0  0  0  0
    7.9985  -16.2893   24.2674 N   0  0  0  0  0  0  0  0  0  0  0  0
    9.1509  -16.1369   22.1913 C   0  0  0  0  0  0  0  0  0  0  0  0
    9.2094  -16.2392   20.9298 O   0  0  0  0  0  0  0  0  0  0  0  0
    8.1830  -12.9894   20.9186 C   0  0  0  0  0  0  0  0  0  0  0  0
    8.1238  -12.5566   19.6098 C   0  0  0  0  0  0  0  0  0  0  0  0
   14.8434  -15.6421   25.0058 N   0  0  0  0  0  0  0  0  0  0  0  0
   13.8939  -16.6555   25.2928 C   0  0  0  0  0  0  0  0  0  0  0  0
   14.0194  -17.3316   26.3336 O   0  0  0  0  0  0  0  0  0  0  0  0
   12.7878  -16.8615   24.3252 C   0  0  0  0  0  0  0  0  0  0  0  0
   12.7626  -15.8777   23.1958 C   0  0  0  0  0  0  0  0  0  0  0  0
   11.6911  -16.1916   22.2149 C   0  0  2  0  0  0  0  0  0  0  0  0
   10.3768  -16.2412   22.8791 N   0  0  0  0  0  0  0  0  0  0  0  0
   11.9131  -17.5446   21.6619 C   0  0  0  0  0  0  0  0  0  0  0  0
   12.6035  -17.8096   20.4950 O   0  0  0  0  0  0  0  0  0  0  0  0
   11.4275  -18.5305   22.3132 O   0  0  0  0  0  0  0  0  0  0  0  0
  2  1  1  6
  3  2  1  0
  3  4  1  0
  4 12  1  0
  4  5  2  0
  5  6  1  0
  7  6  1  0
  7  8  2  0
  9  8  1  0
 10  9  2  0
 11 12  2  0
 11 10  1  0
 12  7  1  0
 13 14  2  0
 13  2  1  0
 15 16  1  0
 16 17  2  0
 17 18  1  0
 19 18  2  0
 19 20  1  0
 21 20  1  1
 21 22  1  0
 22 13  1  0
 23 21  1  0
 24 23  2  0
 25 19  1  0
 26 16  1  0
 26 25  2  0
 28 29  2  0
 28 27  1  0
 30 28  1  0
 32 31  1  1
 31 30  1  0
 32 33  1  0
 33 23  1  0
 34 35  1  0
 34 32  1  0
 36 34  2  0
M  END
$$$$
