WYQ.pdb
     RDKit          3D

 36 38  0  0  1  0  0  0  0  0999 V2000
    6.7914  -18.3526   26.2308 N   0  0  0  0  0  0  0  0  0  0  0  0
    7.2750  -17.0678   25.7653 C   0  0  1  0  0  0  0  0  0  0  0  0
    8.6708  -16.8392   26.2863 C   0  0  0  0  0  0  0  0  0  0  0  0
    8.6064  -15.7097   27.2418 C   0  0  0  0  0  0  0  0  0  0  0  0
    8.9582  -15.7240   28.5692 C   0  0  0  0  0  0  0  0  0  0  0  0
    8.7494  -14.4851   29.0915 N   0  0  0  0  0  0  0  0  0  0  0  0
    8.2741  -13.6693   28.1456 C   0  0  0  0  0  0  0  0  0  0  0  0
    7.9025  -12.3537   28.1285 C   0  0  0  0  0  0  0  0  0  0  0  0
    7.4271  -11.7448   26.9633 C   0  0  0  0  0  0  0  0  0  0  0  0
    7.3306  -12.4834   25.8082 C   0  0  0  0  0  0  0  0  0  0  0  0
    7.7089  -13.8047   25.8446 C   0  0  0  0  0  0  0  0  0  0  0  0
    8.1799  -14.4153   26.9916 C   0  0  0  0  0  0  0  0  0  0  0  0
    7.2734  -16.9818   24.2915 C   0  0  0  0  0  0  0  0  0  0  0  0
    7.1604  -17.9785   23.5596 O   0  0  0  0  0  0  0  0  0  0  0  0
    8.3835  -13.1072   16.4041 O   0  0  0  0  0  0  0  0  0  0  0  0
    8.1603  -13.3333   17.7736 C   0  0  0  0  0  0  0  0  0  0  0  0
    8.9001  -12.6950   18.7274 C   0  0  0  0  0  0  0  0  0  0  0  0
    8.6720  -12.9248   20.0663 C   0  0  0  0  0  0  0  0  0  0  0  0
    7.6852  -13.8111   20.5055 C   0  0  0  0  0  0  0  0  0  0  0  0
    7.4578  -14.0456   21.9499 C   0  0  0  0  0  0  0  0  0  0  0  0
    7.5137  -15.5199   22.2715 C   0  0  2  0  0  0  0  0  0  0  0  0
    7.4101  -15.6783   23.7088 N   0  0  0  0  0  0  0  0  0  0  0  0
    8.7964  -16.1291   21.8283 C   0  0  0  0  0  0  0  0  0  0  0  0
    8.8096  -17.0231   20.9306 O   0  0  0  0  0  0  0  0  0  0  0  0
    6.9537  -14.4412   19.5113 C   0  0  0  0  0  0  0  0  0  0  0  0
    7.1779  -14.2147   18.1689 C   0  0  0  0  0  0  0  0  0  0  0  0
   14.4420  -14.1433   20.1379 N   0  0  0  0  0  0  0  0  0  0  0  0
   13.4140  -14.5755   19.2619 C   0  0  0  0  0  0  0  0  0  0  0  0
   13.5864  -14.4882   18.0294 O   0  0  0  0  0  0  0  0  0  0  0  0
   12.1705  -15.1138   19.8666 C   0  0  0  0  0  0  0  0  0  0  0  0
   12.1976  -15.2023   21.3617 C   0  0  0  0  0  0  0  0  0  0  0  0
   11.3314  -16.3000   21.8650 C   0  0  2  0  0  0  0  0  0  0  0  0
   10.0504  -15.7661   22.3599 N   0  0  0  0  0  0  0  0  0  0  0  0
   11.9773  -16.9395   23.0310 C   0  0  0  0  0  0  0  0  0  0  0  0
   13.1712  -17.6328   22.9817 O   0  0  0  0  0  0  0  0  0  0  0  0
   11.3823  -16.8413   24.1572 O   0  0  0  0  0  0  0  0  0  0  0  0
  2  1  1  6
  3  2  1  0
  3  4  1  0
  4 12  1  0
  4  5  2  0
  5  6  1  0
  7  6  1  0
  7  8  2  0
  9  8  1  0
 10  9  2  0
 11 12  2  0
 11 10  1  0
 12  7  1  0
 13 14  2  0
 13  2  1  0
 15 16  1  0
 16 17  2  0
 17 18  1  0
 19 18  2  0
 19 20  1  0
 21 20  1  1
 21 22  1  0
 22 13  1  0
 23 21  1  0
 24 23  2  0
 25 19  1  0
 26 16  1  0
 26 25  2  0
 28 29  2  0
 28 27  1  0
 30 28  1  0
 32 31  1  1
 31 30  1  0
 32 33  1  0
 33 23  1  0
 34 35  1  0
 34 32  1  0
 36 34  2  0
M  END
$$$$
