WYQ.pdb
     RDKit          3D

 36 38  0  0  1  0  0  0  0  0999 V2000
   11.5251  -16.4017   20.2917 N   0  0  0  0  0  0  0  0  0  0  0  0
   10.5173  -15.9741   21.2418 C   0  0  1  0  0  0  0  0  0  0  0  0
    9.2115  -16.6589   20.9291 C   0  0  0  0  0  0  0  0  0  0  0  0
    8.4394  -15.7558   20.0451 C   0  0  0  0  0  0  0  0  0  0  0  0
    7.9770  -16.0273   18.7809 C   0  0  0  0  0  0  0  0  0  0  0  0
    7.3158  -14.9346   18.3118 N   0  0  0  0  0  0  0  0  0  0  0  0
    7.3351  -13.9648   19.2311 C   0  0  0  0  0  0  0  0  0  0  0  0
    6.8348  -12.6932   19.2773 C   0  0  0  0  0  0  0  0  0  0  0  0
    7.0112  -11.8800   20.4007 C   0  0  0  0  0  0  0  0  0  0  0  0
    7.7028  -12.3677   21.4837 C   0  0  0  0  0  0  0  0  0  0  0  0
    8.1986  -13.6485   21.4189 C   0  0  0  0  0  0  0  0  0  0  0  0
    8.0292  -14.4597   20.3129 C   0  0  0  0  0  0  0  0  0  0  0  0
   10.9138  -16.2694   22.6328 C   0  0  0  0  0  0  0  0  0  0  0  0
   11.8953  -16.9747   22.9173 O   0  0  0  0  0  0  0  0  0  0  0  0
   10.7858  -15.6104   31.4507 O   0  0  0  0  0  0  0  0  0  0  0  0
   10.4817  -15.4688   30.0854 C   0  0  0  0  0  0  0  0  0  0  0  0
    9.6784  -16.3655   29.4411 C   0  0  0  0  0  0  0  0  0  0  0  0
    9.3877  -16.2160   28.1030 C   0  0  0  0  0  0  0  0  0  0  0  0
    9.8950  -15.1530   27.3516 C   0  0  0  0  0  0  0  0  0  0  0  0
    9.5720  -15.0120   25.9133 C   0  0  0  0  0  0  0  0  0  0  0  0
   10.5030  -15.8476   25.0678 C   0  0  2  0  0  0  0  0  0  0  0  0
   10.1120  -15.7040   23.6792 N   0  0  0  0  0  0  0  0  0  0  0  0
   10.4234  -17.2892   25.4261 C   0  0  0  0  0  0  0  0  0  0  0  0
    9.3739  -17.9567   25.1849 O   0  0  0  0  0  0  0  0  0  0  0  0
   10.7062  -14.2622   28.0367 C   0  0  0  0  0  0  0  0  0  0  0  0
   11.0006  -14.4072   29.3769 C   0  0  0  0  0  0  0  0  0  0  0  0
   14.3852  -21.5055   24.1951 N   0  0  0  0  0  0  0  0  0  0  0  0
   13.5231  -20.6448   23.4692 C   0  0  0  0  0  0  0  0  0  0  0  0
   13.6947  -20.5037   22.2416 O   0  0  0  0  0  0  0  0  0  0  0  0
   12.4495  -19.9473   24.2193 C   0  0  0  0  0  0  0  0  0  0  0  0
   12.4698  -20.1895   25.6975 C   0  0  0  0  0  0  0  0  0  0  0  0
   11.4070  -19.4215   26.3968 C   0  0  2  0  0  0  0  0  0  0  0  0
   11.4782  -17.9934   26.0412 N   0  0  0  0  0  0  0  0  0  0  0  0
   11.6359  -19.4840   27.8561 C   0  0  0  0  0  0  0  0  0  0  0  0
   11.9487  -18.3950   28.6465 O   0  0  0  0  0  0  0  0  0  0  0  0
   11.5378  -20.6281   28.4159 O   0  0  0  0  0  0  0  0  0  0  0  0
  2  1  1  6
  3  2  1  0
  3  4  1  0
  4 12  1  0
  4  5  2  0
  5  6  1  0
  7  6  1  0
  7  8  2  0
  9  8  1  0
 10  9  2  0
 11 12  2  0
 11 10  1  0
 12  7  1  0
 13 14  2  0
 13  2  1  0
 15 16  1  0
 16 17  2  0
 17 18  1  0
 19 18  2  0
 19 20  1  0
 21 20  1  1
 21 22  1  0
 22 13  1  0
 23 21  1  0
 24 23  2  0
 25 19  1  0
 26 16  1  0
 26 25  2  0
 28 29  2  0
 28 27  1  0
 30 28  1  0
 32 31  1  6
 31 30  1  0
 32 33  1  0
 33 23  1  0
 34 35  1  0
 34 32  1  0
 36 34  2  0
M  END
$$$$
