WYQ.pdb
     RDKit          3D

 36 38  0  0  1  0  0  0  0  0999 V2000
    6.2573  -17.4750   23.8149 N   0  0  0  0  0  0  0  0  0  0  0  0
    7.1815  -16.3583   23.8077 C   0  0  1  0  0  0  0  0  0  0  0  0
    7.6286  -16.0689   25.2177 C   0  0  0  0  0  0  0  0  0  0  0  0
    6.6928  -15.0694   25.7818 C   0  0  0  0  0  0  0  0  0  0  0  0
    5.4644  -15.3085   26.3473 C   0  0  0  0  0  0  0  0  0  0  0  0
    4.9247  -14.1232   26.7409 N   0  0  0  0  0  0  0  0  0  0  0  0
    5.7635  -13.1247   26.4487 C   0  0  0  0  0  0  0  0  0  0  0  0
    5.7196  -11.7691   26.6220 C   0  0  0  0  0  0  0  0  0  0  0  0
    6.7709  -10.9461   26.2073 C   0  0  0  0  0  0  0  0  0  0  0  0
    7.8738  -11.5101   25.6120 C   0  0  0  0  0  0  0  0  0  0  0  0
    7.9000  -12.8747   25.4462 C   0  0  0  0  0  0  0  0  0  0  0  0
    6.8658  -13.6964   25.8527 C   0  0  0  0  0  0  0  0  0  0  0  0
    8.3581  -16.6250   22.9570 C   0  0  0  0  0  0  0  0  0  0  0  0
    8.7918  -17.7696   22.7482 O   0  0  0  0  0  0  0  0  0  0  0  0
    6.4863  -13.6508   16.6144 O   0  0  0  0  0  0  0  0  0  0  0  0
    7.4466  -13.8361   17.6243 C   0  0  0  0  0  0  0  0  0  0  0  0
    8.3572  -14.8515   17.5593 C   0  0  0  0  0  0  0  0  0  0  0  0
    9.2933  -15.0229   18.5552 C   0  0  0  0  0  0  0  0  0  0  0  0
    9.3540  -14.1760   19.6648 C   0  0  0  0  0  0  0  0  0  0  0  0
   10.3671  -14.3791   20.7257 C   0  0  0  0  0  0  0  0  0  0  0  0
   10.1275  -15.6779   21.4577 C   0  0  2  0  0  0  0  0  0  0  0  0
    9.0077  -15.4941   22.3599 N   0  0  0  0  0  0  0  0  0  0  0  0
   11.3119  -16.0796   22.2631 C   0  0  0  0  0  0  0  0  0  0  0  0
   11.7243  -15.3488   23.2124 O   0  0  0  0  0  0  0  0  0  0  0  0
    8.4156  -13.1567   19.6986 C   0  0  0  0  0  0  0  0  0  0  0  0
    7.4759  -12.9806   18.7039 C   0  0  0  0  0  0  0  0  0  0  0  0
   14.3316  -22.1956   23.3539 N   0  0  0  0  0  0  0  0  0  0  0  0
   13.7381  -21.3160   24.2946 C   0  0  0  0  0  0  0  0  0  0  0  0
   13.1228  -21.7914   25.2702 O   0  0  0  0  0  0  0  0  0  0  0  0
   13.8809  -19.8571   24.0637 C   0  0  0  0  0  0  0  0  0  0  0  0
   12.8476  -19.2711   23.1510 C   0  0  0  0  0  0  0  0  0  0  0  0
   13.0338  -17.8072   22.9751 C   0  0  2  0  0  0  0  0  0  0  0  0
   12.0377  -17.2659   22.0339 N   0  0  0  0  0  0  0  0  0  0  0  0
   14.3519  -17.5510   22.3564 C   0  0  0  0  0  0  0  0  0  0  0  0
   15.5516  -17.5529   23.0414 O   0  0  0  0  0  0  0  0  0  0  0  0
   14.3732  -17.3097   21.1021 O   0  0  0  0  0  0  0  0  0  0  0  0
  2  1  1  1
  3  2  1  0
  3  4  1  0
  4 12  1  0
  4  5  2  0
  5  6  1  0
  7  6  1  0
  7  8  2  0
  9  8  1  0
 10  9  2  0
 11 12  2  0
 11 10  1  0
 12  7  1  0
 13 14  2  0
 13  2  1  0
 15 16  1  0
 16 17  2  0
 17 18  1  0
 19 18  2  0
 19 20  1  0
 21 20  1  1
 21 22  1  0
 22 13  1  0
 23 21  1  0
 24 23  2  0
 25 19  1  0
 26 16  1  0
 26 25  2  0
 28 29  2  0
 28 27  1  0
 30 28  1  0
 32 31  1  6
 31 30  1  0
 32 33  1  0
 33 23  1  0
 34 35  1  0
 34 32  1  0
 36 34  2  0
M  END
$$$$
