WYQ.pdb
     RDKit          3D

 36 38  0  0  1  0  0  0  0  0999 V2000
    6.1857  -18.3479   23.6876 N   0  0  0  0  0  0  0  0  0  0  0  0
    6.9445  -17.1288   23.8857 C   0  0  1  0  0  0  0  0  0  0  0  0
    7.2758  -16.9770   25.3482 C   0  0  0  0  0  0  0  0  0  0  0  0
    6.6444  -15.7220   25.8166 C   0  0  0  0  0  0  0  0  0  0  0  0
    5.3090  -15.5007   26.0482 C   0  0  0  0  0  0  0  0  0  0  0  0
    5.1437  -14.2171   26.4683 N   0  0  0  0  0  0  0  0  0  0  0  0
    6.3285  -13.6005   26.5161 C   0  0  0  0  0  0  0  0  0  0  0  0
    6.7264  -12.3385   26.8605 C   0  0  0  0  0  0  0  0  0  0  0  0
    8.0712  -11.9594   26.8145 C   0  0  0  0  0  0  0  0  0  0  0  0
    9.0159  -12.8741   26.4144 C   0  0  0  0  0  0  0  0  0  0  0  0
    8.5969  -14.1380   26.0719 C   0  0  0  0  0  0  0  0  0  0  0  0
    7.2699  -14.5220   26.1142 C   0  0  0  0  0  0  0  0  0  0  0  0
    8.1880  -17.1207   23.0901 C   0  0  0  0  0  0  0  0  0  0  0  0
    8.6163  -18.1264   22.5009 O   0  0  0  0  0  0  0  0  0  0  0  0
    6.7381  -13.8582   17.1316 O   0  0  0  0  0  0  0  0  0  0  0  0
    7.5856  -13.9855   18.2461 C   0  0  0  0  0  0  0  0  0  0  0  0
    7.3854  -13.2471   19.3771 C   0  0  0  0  0  0  0  0  0  0  0  0
    8.2226  -13.3807   20.4627 C   0  0  0  0  0  0  0  0  0  0  0  0
    9.3026  -14.2671   20.4574 C   0  0  0  0  0  0  0  0  0  0  0  0
   10.1921  -14.3938   21.6346 C   0  0  0  0  0  0  0  0  0  0  0  0
   10.1192  -15.7848   22.2176 C   0  0  2  0  0  0  0  0  0  0  0  0
    8.9110  -15.8843   23.0126 N   0  0  0  0  0  0  0  0  0  0  0  0
   11.2815  -16.0702   23.1011 C   0  0  0  0  0  0  0  0  0  0  0  0
   12.4661  -15.9292   22.6743 O   0  0  0  0  0  0  0  0  0  0  0  0
    9.4763  -15.0003   19.2942 C   0  0  0  0  0  0  0  0  0  0  0  0
    8.6407  -14.8704   18.2040 C   0  0  0  0  0  0  0  0  0  0  0  0
   11.5539  -15.1188   29.3778 N   0  0  0  0  0  0  0  0  0  0  0  0
   10.5654  -15.4026   28.4014 C   0  0  0  0  0  0  0  0  0  0  0  0
    9.3754  -15.5236   28.7557 O   0  0  0  0  0  0  0  0  0  0  0  0
   11.0060  -15.5444   26.9915 C   0  0  0  0  0  0  0  0  0  0  0  0
   11.9075  -16.7139   26.7396 C   0  0  0  0  0  0  0  0  0  0  0  0
   12.2976  -16.8114   25.3089 C   0  0  2  0  0  0  0  0  0  0  0  0
   11.1512  -16.5050   24.4355 N   0  0  0  0  0  0  0  0  0  0  0  0
   12.6780  -18.2059   24.9980 C   0  0  0  0  0  0  0  0  0  0  0  0
   11.9727  -19.0392   24.1514 O   0  0  0  0  0  0  0  0  0  0  0  0
   13.7314  -18.6641   25.5568 O   0  0  0  0  0  0  0  0  0  0  0  0
  2  1  1  1
  3  2  1  0
  3  4  1  0
  4 12  1  0
  4  5  2  0
  5  6  1  0
  7  6  1  0
  7  8  2  0
  9  8  1  0
 10  9  2  0
 11 12  2  0
 11 10  1  0
 12  7  1  0
 13 14  2  0
 13  2  1  0
 15 16  1  0
 16 17  2  0
 17 18  1  0
 19 18  2  0
 19 20  1  0
 21 20  1  1
 21 22  1  0
 22 13  1  0
 23 21  1  0
 24 23  2  0
 25 19  1  0
 26 16  1  0
 26 25  2  0
 28 29  2  0
 28 27  1  0
 30 28  1  0
 32 31  1  1
 31 30  1  0
 32 33  1  0
 33 23  1  0
 34 35  1  0
 34 32  1  0
 36 34  2  0
M  END
$$$$
