WYQ.pdb
     RDKit          3D

 36 38  0  0  1  0  0  0  0  0999 V2000
    6.4046  -19.1656   25.4772 N   0  0  0  0  0  0  0  0  0  0  0  0
    6.8255  -17.7853   25.3393 C   0  0  1  0  0  0  0  0  0  0  0  0
    7.8841  -17.4794   26.3677 C   0  0  0  0  0  0  0  0  0  0  0  0
    7.3945  -16.3431   27.1815 C   0  0  0  0  0  0  0  0  0  0  0  0
    6.7320  -16.4069   28.3827 C   0  0  0  0  0  0  0  0  0  0  0  0
    6.4571  -15.1412   28.7995 N   0  0  0  0  0  0  0  0  0  0  0  0
    6.9201  -14.2604   27.9074 C   0  0  0  0  0  0  0  0  0  0  0  0
    6.9135  -12.8952   27.8329 C   0  0  0  0  0  0  0  0  0  0  0  0
    7.4881  -12.2207   26.7515 C   0  0  0  0  0  0  0  0  0  0  0  0
    8.0732  -12.9442   25.7399 C   0  0  0  0  0  0  0  0  0  0  0  0
    8.0702  -14.3159   25.8323 C   0  0  0  0  0  0  0  0  0  0  0  0
    7.5047  -14.9915   26.8971 C   0  0  0  0  0  0  0  0  0  0  0  0
    7.3480  -17.5031   23.9877 C   0  0  0  0  0  0  0  0  0  0  0  0
    7.9083  -18.3638   23.2898 O   0  0  0  0  0  0  0  0  0  0  0  0
    8.5421  -12.9755   16.4905 O   0  0  0  0  0  0  0  0  0  0  0  0
    8.1620  -13.3495   17.7913 C   0  0  0  0  0  0  0  0  0  0  0  0
    8.4506  -12.5617   18.8686 C   0  0  0  0  0  0  0  0  0  0  0  0
    8.0729  -12.9390   20.1383 C   0  0  0  0  0  0  0  0  0  0  0  0
    7.3851  -14.1309   20.3804 C   0  0  0  0  0  0  0  0  0  0  0  0
    6.9901  -14.5191   21.7538 C   0  0  0  0  0  0  0  0  0  0  0  0
    7.6390  -15.8229   22.1527 C   0  0  2  0  0  0  0  0  0  0  0  0
    7.1872  -16.1690   23.4860 N   0  0  0  0  0  0  0  0  0  0  0  0
    9.1221  -15.7113   22.1790 C   0  0  0  0  0  0  0  0  0  0  0  0
    9.7855  -15.6743   21.1002 O   0  0  0  0  0  0  0  0  0  0  0  0
    7.1086  -14.9057   19.2650 C   0  0  0  0  0  0  0  0  0  0  0  0
    7.4847  -14.5326   17.9911 C   0  0  0  0  0  0  0  0  0  0  0  0
   12.3554  -14.4973   27.4358 N   0  0  0  0  0  0  0  0  0  0  0  0
   11.7130  -15.7359   27.1826 C   0  0  0  0  0  0  0  0  0  0  0  0
   11.4459  -16.4910   28.1391 O   0  0  0  0  0  0  0  0  0  0  0  0
   11.3903  -16.0729   25.7740 C   0  0  0  0  0  0  0  0  0  0  0  0
   11.7484  -15.0062   24.7850 C   0  0  0  0  0  0  0  0  0  0  0  0
   11.3188  -15.3642   23.4081 C   0  0  2  0  0  0  0  0  0  0  0  0
    9.8721  -15.6412   23.3704 N   0  0  0  0  0  0  0  0  0  0  0  0
   11.9794  -16.6221   22.9994 C   0  0  0  0  0  0  0  0  0  0  0  0
   12.3591  -17.6253   23.8699 O   0  0  0  0  0  0  0  0  0  0  0  0
   12.2135  -16.7829   21.7538 O   0  0  0  0  0  0  0  0  0  0  0  0
  2  1  1  6
  3  2  1  0
  3  4  1  0
  4 12  1  0
  4  5  2  0
  5  6  1  0
  7  6  1  0
  7  8  2  0
  9  8  1  0
 10  9  2  0
 11 12  2  0
 11 10  1  0
 12  7  1  0
 13 14  2  0
 13  2  1  0
 15 16  1  0
 16 17  2  0
 17 18  1  0
 19 18  2  0
 19 20  1  0
 21 20  1  1
 21 22  1  0
 22 13  1  0
 23 21  1  0
 24 23  2  0
 25 19  1  0
 26 16  1  0
 26 25  2  0
 28 29  2  0
 28 27  1  0
 30 28  1  0
 32 31  1  1
 31 30  1  0
 32 33  1  0
 33 23  1  0
 34 35  1  0
 34 32  1  0
 36 34  2  0
M  END
$$$$
