WYQ.pdb
     RDKit          3D

 36 38  0  0  1  0  0  0  0  0999 V2000
    5.8136  -18.3147   23.7477 N   0  0  0  0  0  0  0  0  0  0  0  0
    6.4848  -17.0585   24.0171 C   0  0  1  0  0  0  0  0  0  0  0  0
    6.6277  -16.8761   25.5064 C   0  0  0  0  0  0  0  0  0  0  0  0
    6.1417  -15.5162   25.8339 C   0  0  0  0  0  0  0  0  0  0  0  0
    4.8359  -15.1035   25.9364 C   0  0  0  0  0  0  0  0  0  0  0  0
    4.8178  -13.7804   26.2533 N   0  0  0  0  0  0  0  0  0  0  0  0
    6.0692  -13.3233   26.3594 C   0  0  0  0  0  0  0  0  0  0  0  0
    6.6100  -12.1017   26.6503 C   0  0  0  0  0  0  0  0  0  0  0  0
    7.9939  -11.9078   26.6928 C   0  0  0  0  0  0  0  0  0  0  0  0
    8.8310  -12.9674   26.4366 C   0  0  0  0  0  0  0  0  0  0  0  0
    8.2689  -14.1880   26.1460 C   0  0  0  0  0  0  0  0  0  0  0  0
    6.9024  -14.3893   26.1018 C   0  0  0  0  0  0  0  0  0  0  0  0
    7.8143  -16.9984   23.3782 C   0  0  0  0  0  0  0  0  0  0  0  0
    8.4898  -18.0112   23.1342 O   0  0  0  0  0  0  0  0  0  0  0  0
    7.0010  -13.4763   16.8580 O   0  0  0  0  0  0  0  0  0  0  0  0
    7.6611  -13.6359   18.0890 C   0  0  0  0  0  0  0  0  0  0  0  0
    7.2908  -12.9185   19.1903 C   0  0  0  0  0  0  0  0  0  0  0  0
    7.9453  -13.0837   20.3910 C   0  0  0  0  0  0  0  0  0  0  0  0
    9.0055  -13.9819   20.5365 C   0  0  0  0  0  0  0  0  0  0  0  0
    9.6972  -14.1427   21.8360 C   0  0  0  0  0  0  0  0  0  0  0  0
    9.5827  -15.5632   22.3350 C   0  0  2  0  0  0  0  0  0  0  0  0
    8.3214  -15.7009   23.0362 N   0  0  0  0  0  0  0  0  0  0  0  0
   10.6796  -15.9016   23.2812 C   0  0  0  0  0  0  0  0  0  0  0  0
   11.0252  -15.0854   24.1866 O   0  0  0  0  0  0  0  0  0  0  0  0
    9.3547  -14.6931   19.3993 C   0  0  0  0  0  0  0  0  0  0  0  0
    8.7026  -14.5316   18.1942 C   0  0  0  0  0  0  0  0  0  0  0  0
    9.2812  -20.0318   26.6059 N   0  0  0  0  0  0  0  0  0  0  0  0
   10.6615  -19.7177   26.5221 C   0  0  0  0  0  0  0  0  0  0  0  0
   11.4924  -20.4709   27.0685 O   0  0  0  0  0  0  0  0  0  0  0  0
   11.0486  -18.4921   25.7805 C   0  0  0  0  0  0  0  0  0  0  0  0
   12.2633  -18.6486   24.9180 C   0  0  0  0  0  0  0  0  0  0  0  0
   12.5327  -17.4257   24.1177 C   0  0  2  0  0  0  0  0  0  0  0  0
   11.3909  -17.1177   23.2387 N   0  0  0  0  0  0  0  0  0  0  0  0
   13.6786  -17.6715   23.2164 C   0  0  0  0  0  0  0  0  0  0  0  0
   13.5898  -17.7450   21.8397 O   0  0  0  0  0  0  0  0  0  0  0  0
   14.8256  -17.8280   23.7566 O   0  0  0  0  0  0  0  0  0  0  0  0
  2  1  1  1
  3  2  1  0
  3  4  1  0
  4 12  1  0
  4  5  2  0
  5  6  1  0
  7  6  1  0
  7  8  2  0
  9  8  1  0
 10  9  2  0
 11 12  2  0
 11 10  1  0
 12  7  1  0
 13 14  2  0
 13  2  1  0
 15 16  1  0
 16 17  2  0
 17 18  1  0
 19 18  2  0
 19 20  1  0
 21 20  1  1
 21 22  1  0
 22 13  1  0
 23 21  1  0
 24 23  2  0
 25 19  1  0
 26 16  1  0
 26 25  2  0
 28 29  2  0
 28 27  1  0
 30 28  1  0
 32 31  1  6
 31 30  1  0
 32 33  1  0
 33 23  1  0
 34 35  1  0
 34 32  1  0
 36 34  2  0
M  END
$$$$
