FMY.pdb
     RDKit          3D

 32 33  0  0  1  0  0  0  0  0999 V2000
   27.2107  -17.8243  -17.2869 N   0  0  0  0  0  0  0  0  0  0  0  0
   27.0218  -17.6558  -15.8611 C   0  0  1  0  0  0  0  0  0  0  0  0
   25.5948  -17.1951  -15.6605 C   0  0  0  0  0  0  0  0  0  0  0  0
   25.5131  -15.8089  -16.1905 C   0  0  0  0  0  0  0  0  0  0  0  0
   24.8369  -15.4770  -17.3454 C   0  0  0  0  0  0  0  0  0  0  0  0
   24.7826  -14.1703  -17.8093 C   0  0  0  0  0  0  0  0  0  0  0  0
   25.4137  -13.1677  -17.1119 C   0  0  0  0  0  0  0  0  0  0  0  0
   26.0853  -13.4786  -15.9702 C   0  0  0  0  0  0  0  0  0  0  0  0
   26.1386  -14.7847  -15.5082 C   0  0  0  0  0  0  0  0  0  0  0  0
   27.3053  -18.9331  -15.1942 C   0  0  0  0  0  0  0  0  0  0  0  0
   26.8645  -19.9947  -15.6939 O   0  0  0  0  0  0  0  0  0  0  0  0
   32.1583  -21.7793  -11.2980 C   0  0  0  0  0  0  0  0  0  0  0  0
   30.6380  -21.6412  -10.3571 S   0  0  0  0  0  0  0  0  0  0  0  0
   29.1653  -21.5518  -11.4127 C   0  0  0  0  0  0  0  0  0  0  0  0
   29.2289  -20.2832  -12.2239 C   0  0  0  0  0  0  0  0  0  0  0  0
   28.0165  -20.2116  -13.1285 C   0  0  2  0  0  0  0  0  0  0  0  0
   28.0609  -19.0536  -13.9959 N   0  0  0  0  0  0  0  0  0  0  0  0
   26.7612  -20.2030  -12.3410 C   0  0  0  0  0  0  0  0  0  0  0  0
   26.7121  -19.5692  -11.2541 O   0  0  0  0  0  0  0  0  0  0  0  0
   27.2210  -20.1617   -6.1505 O   0  0  0  0  0  0  0  0  0  0  0  0
   26.4664  -20.1693   -7.3083 C   0  0  0  0  0  0  0  0  0  0  0  0
   25.6889  -21.2350   -7.6624 C   0  0  0  0  0  0  0  0  0  0  0  0
   24.9462  -21.2118   -8.8263 C   0  0  0  0  0  0  0  0  0  0  0  0
   24.9585  -20.1249   -9.6690 C   0  0  0  0  0  0  0  0  0  0  0  0
   24.1879  -20.0480  -10.9230 C   0  0  0  0  0  0  0  0  0  0  0  0
   24.5040  -21.2104  -11.7948 C   0  0  2  0  0  0  0  0  0  0  0  0
   25.5875  -20.8788  -12.7452 N   0  0  0  0  0  0  0  0  0  0  0  0
   23.3603  -21.7993  -12.5106 C   0  0  0  0  0  0  0  0  0  0  0  0
   23.3265  -21.9229  -13.7525 O   0  0  0  0  0  0  0  0  0  0  0  0
   25.7505  -19.0567   -9.2946 C   0  0  0  0  0  0  0  0  0  0  0  0
   26.4970  -19.0665   -8.1354 C   0  0  0  0  0  0  0  0  0  0  0  0
   22.2658  -22.2406  -11.7919 O   0  0  0  0  0  0  0  0  0  0  0  0
  2  1  1  6
  2 10  1  0
  2  3  1  0
  4  3  1  0
  4  9  1  0
  5  4  2  0
  6  5  1  0
  6  7  2  0
  7  8  1  0
  8  9  2  0
 10 11  2  0
 13 12  1  0
 14 13  1  0
 14 15  1  0
 16 15  1  1
 17 16  1  0
 17 10  1  0
 18 19  2  0
 18 16  1  0
 20 21  1  0
 21 31  2  0
 21 22  1  0
 22 23  2  0
 23 24  1  0
 24 25  1  0
 26 25  1  6
 26 27  1  0
 27 18  1  0
 28 26  1  0
 28 32  1  0
 29 28  2  0
 30 24  2  0
 31 30  1  0
M  END
$$$$
