FMY.pdb
     RDKit          3D

 32 33  0  0  1  0  0  0  0  0999 V2000
   26.7638  -21.4698  -16.8942 N   0  0  0  0  0  0  0  0  0  0  0  0
   27.0952  -20.5569  -15.8200 C   0  0  1  0  0  0  0  0  0  0  0  0
   26.5243  -19.2085  -16.2003 C   0  0  0  0  0  0  0  0  0  0  0  0
   27.6245  -18.4425  -16.8422 C   0  0  0  0  0  0  0  0  0  0  0  0
   27.8837  -18.4774  -18.1959 C   0  0  0  0  0  0  0  0  0  0  0  0
   28.9209  -17.7476  -18.7593 C   0  0  0  0  0  0  0  0  0  0  0  0
   29.7209  -16.9640  -17.9620 C   0  0  0  0  0  0  0  0  0  0  0  0
   29.4782  -16.9186  -16.6240 C   0  0  0  0  0  0  0  0  0  0  0  0
   28.4415  -17.6484  -16.0628 C   0  0  0  0  0  0  0  0  0  0  0  0
   26.5330  -21.0790  -14.5679 C   0  0  0  0  0  0  0  0  0  0  0  0
   25.4872  -21.7688  -14.6081 O   0  0  0  0  0  0  0  0  0  0  0  0
   27.4021  -19.3256   -7.6232 C   0  0  0  0  0  0  0  0  0  0  0  0
   27.7118  -21.0050   -8.1705 S   0  0  0  0  0  0  0  0  0  0  0  0
   26.6976  -21.4755   -9.5991 C   0  0  0  0  0  0  0  0  0  0  0  0
   27.3982  -21.0292  -10.8567 C   0  0  0  0  0  0  0  0  0  0  0  0
   26.4972  -21.2903  -12.0457 C   0  0  2  0  0  0  0  0  0  0  0  0
   27.1033  -20.8529  -13.2853 N   0  0  0  0  0  0  0  0  0  0  0  0
   25.1788  -20.6364  -11.8716 C   0  0  0  0  0  0  0  0  0  0  0  0
   25.1121  -19.3819  -11.7869 O   0  0  0  0  0  0  0  0  0  0  0  0
   21.4597  -21.3514  -17.8513 O   0  0  0  0  0  0  0  0  0  0  0  0
   21.7695  -20.9039  -16.5811 C   0  0  0  0  0  0  0  0  0  0  0  0
   23.0575  -20.6920  -16.1787 C   0  0  0  0  0  0  0  0  0  0  0  0
   23.3341  -20.2444  -14.9021 C   0  0  0  0  0  0  0  0  0  0  0  0
   22.3338  -19.9957  -13.9915 C   0  0  0  0  0  0  0  0  0  0  0  0
   22.5726  -19.5196  -12.6173 C   0  0  0  0  0  0  0  0  0  0  0  0
   22.6549  -20.6707  -11.6796 C   0  0  2  0  0  0  0  0  0  0  0  0
   23.9626  -21.3521  -11.7931 N   0  0  0  0  0  0  0  0  0  0  0  0
   21.5597  -21.6497  -11.7755 C   0  0  0  0  0  0  0  0  0  0  0  0
   20.3663  -21.3583  -11.5529 O   0  0  0  0  0  0  0  0  0  0  0  0
   21.0377  -20.2155  -14.4162 C   0  0  0  0  0  0  0  0  0  0  0  0
   20.7471  -20.6623  -15.6878 C   0  0  0  0  0  0  0  0  0  0  0  0
   21.8468  -22.9551  -12.1262 O   0  0  0  0  0  0  0  0  0  0  0  0
  2  1  1  6
  2 10  1  0
  2  3  1  0
  4  3  1  0
  4  9  1  0
  5  4  2  0
  6  5  1  0
  6  7  2  0
  7  8  1  0
  8  9  2  0
 10 11  2  0
 13 12  1  0
 14 13  1  0
 14 15  1  0
 16 15  1  1
 17 16  1  0
 17 10  1  0
 18 19  2  0
 18 16  1  0
 20 21  1  0
 21 31  2  0
 21 22  1  0
 22 23  2  0
 23 24  1  0
 24 25  1  0
 26 25  1  6
 26 27  1  0
 27 18  1  0
 28 26  1  0
 28 32  1  0
 29 28  2  0
 30 24  2  0
 31 30  1  0
M  END
$$$$
