FMY.pdb
     RDKit          3D

 32 33  0  0  1  0  0  0  0  0999 V2000
   27.9602  -21.1910  -15.0778 N   0  0  0  0  0  0  0  0  0  0  0  0
   27.1669  -20.2149  -14.3601 C   0  0  1  0  0  0  0  0  0  0  0  0
   26.3665  -19.4556  -15.3953 C   0  0  0  0  0  0  0  0  0  0  0  0
   27.3084  -18.5214  -16.0653 C   0  0  0  0  0  0  0  0  0  0  0  0
   28.0117  -18.8425  -17.2069 C   0  0  0  0  0  0  0  0  0  0  0  0
   28.8830  -17.9429  -17.8046 C   0  0  0  0  0  0  0  0  0  0  0  0
   29.0619  -16.6944  -17.2578 C   0  0  0  0  0  0  0  0  0  0  0  0
   28.3752  -16.3618  -16.1312 C   0  0  0  0  0  0  0  0  0  0  0  0
   27.5051  -17.2619  -15.5355 C   0  0  0  0  0  0  0  0  0  0  0  0
   26.3183  -20.9189  -13.3903 C   0  0  0  0  0  0  0  0  0  0  0  0
   25.9122  -22.0740  -13.6584 O   0  0  0  0  0  0  0  0  0  0  0  0
   26.7652  -19.0032   -7.3895 C   0  0  0  0  0  0  0  0  0  0  0  0
   27.0296  -20.7403   -7.7475 S   0  0  0  0  0  0  0  0  0  0  0  0
   26.6632  -21.1647   -9.4728 C   0  0  0  0  0  0  0  0  0  0  0  0
   25.2673  -20.6991   -9.7987 C   0  0  0  0  0  0  0  0  0  0  0  0
   24.9681  -21.0070  -11.2510 C   0  0  2  0  0  0  0  0  0  0  0  0
   25.9160  -20.3715  -12.1413 N   0  0  0  0  0  0  0  0  0  0  0  0
   23.5890  -20.6010  -11.6108 C   0  0  0  0  0  0  0  0  0  0  0  0
   23.2768  -19.3812  -11.6028 O   0  0  0  0  0  0  0  0  0  0  0  0
   23.0849  -22.1880  -18.3195 O   0  0  0  0  0  0  0  0  0  0  0  0
   22.6857  -21.6372  -17.1165 C   0  0  0  0  0  0  0  0  0  0  0  0
   23.5028  -20.8261  -16.3815 C   0  0  0  0  0  0  0  0  0  0  0  0
   23.0743  -20.2911  -15.1828 C   0  0  0  0  0  0  0  0  0  0  0  0
   21.8189  -20.5502  -14.6843 C   0  0  0  0  0  0  0  0  0  0  0  0
   21.3118  -20.0079  -13.4111 C   0  0  0  0  0  0  0  0  0  0  0  0
   21.2290  -21.0842  -12.3885 C   0  0  2  0  0  0  0  0  0  0  0  0
   22.5787  -21.5214  -11.9710 N   0  0  0  0  0  0  0  0  0  0  0  0
   20.4063  -22.2487  -12.7548 C   0  0  0  0  0  0  0  0  0  0  0  0
   19.1723  -22.1805  -12.9313 O   0  0  0  0  0  0  0  0  0  0  0  0
   21.0067  -21.3723  -15.4412 C   0  0  0  0  0  0  0  0  0  0  0  0
   21.4217  -21.9133  -16.6397 C   0  0  0  0  0  0  0  0  0  0  0  0
   21.0102  -23.4813  -12.9148 O   0  0  0  0  0  0  0  0  0  0  0  0
  2  1  1  6
  2 10  1  0
  2  3  1  0
  4  3  1  0
  4  9  1  0
  5  4  2  0
  6  5  1  0
  6  7  2  0
  7  8  1  0
  8  9  2  0
 10 11  2  0
 13 12  1  0
 14 13  1  0
 14 15  1  0
 16 15  1  1
 17 16  1  0
 17 10  1  0
 18 19  2  0
 18 16  1  0
 20 21  1  0
 21 31  2  0
 21 22  1  0
 22 23  2  0
 23 24  1  0
 24 25  1  0
 26 25  1  6
 26 27  1  0
 27 18  1  0
 28 26  1  0
 28 32  1  0
 29 28  2  0
 30 24  2  0
 31 30  1  0
M  END
$$$$
