FMY.pdb
     RDKit          3D

 32 33  0  0  1  0  0  0  0  0999 V2000
   17.9570  -14.5963    7.7856 N   0  0  0  0  0  0  0  0  0  0  0  0
   17.5101  -15.6142    6.8574 C   0  0  1  0  0  0  0  0  0  0  0  0
   18.5610  -15.7090    5.7733 C   0  0  0  0  0  0  0  0  0  0  0  0
   18.5513  -14.4097    5.0516 C   0  0  0  0  0  0  0  0  0  0  0  0
   19.4479  -13.3938    5.3066 C   0  0  0  0  0  0  0  0  0  0  0  0
   19.4077  -12.1934    4.6115 C   0  0  0  0  0  0  0  0  0  0  0  0
   18.4559  -11.9947    3.6397 C   0  0  0  0  0  0  0  0  0  0  0  0
   17.5636  -12.9875    3.3760 C   0  0  0  0  0  0  0  0  0  0  0  0
   17.6053  -14.1861    4.0715 C   0  0  0  0  0  0  0  0  0  0  0  0
   17.3341  -16.8748    7.5897 C   0  0  0  0  0  0  0  0  0  0  0  0
   18.3322  -17.4209    8.1154 O   0  0  0  0  0  0  0  0  0  0  0  0
   12.5875  -17.7998   12.6057 C   0  0  0  0  0  0  0  0  0  0  0  0
   12.7587  -18.4604   10.9475 S   0  0  0  0  0  0  0  0  0  0  0  0
   14.4184  -18.2084   10.2597 C   0  0  0  0  0  0  0  0  0  0  0  0
   14.5307  -18.9843    8.9725 C   0  0  0  0  0  0  0  0  0  0  0  0
   15.9260  -18.8119    8.4096 C   0  0  2  0  0  0  0  0  0  0  0  0
   16.0845  -17.5341    7.7482 N   0  0  0  0  0  0  0  0  0  0  0  0
   16.2642  -19.9091    7.4727 C   0  0  0  0  0  0  0  0  0  0  0  0
   16.0770  -19.7532    6.2373 O   0  0  0  0  0  0  0  0  0  0  0  0
   19.0075  -26.1624    2.3691 O   0  0  0  0  0  0  0  0  0  0  0  0
   18.7066  -25.0922    3.1902 C   0  0  0  0  0  0  0  0  0  0  0  0
   17.6355  -24.2768    2.9587 C   0  0  0  0  0  0  0  0  0  0  0  0
   17.3616  -23.2151    3.7981 C   0  0  0  0  0  0  0  0  0  0  0  0
   18.1484  -22.9375    4.8915 C   0  0  0  0  0  0  0  0  0  0  0  0
   17.9033  -21.8175    5.8177 C   0  0  0  0  0  0  0  0  0  0  0  0
   17.0409  -22.2600    6.9452 C   0  0  2  0  0  0  0  0  0  0  0  0
   16.7968  -21.1496    7.8912 N   0  0  0  0  0  0  0  0  0  0  0  0
   17.5036  -23.4549    7.6701 C   0  0  0  0  0  0  0  0  0  0  0  0
   17.6875  -24.5578    7.1147 O   0  0  0  0  0  0  0  0  0  0  0  0
   19.2270  -23.7727    5.1096 C   0  0  0  0  0  0  0  0  0  0  0  0
   19.5121  -24.8362    4.2797 C   0  0  0  0  0  0  0  0  0  0  0  0
   17.7505  -23.3707    9.0270 O   0  0  0  0  0  0  0  0  0  0  0  0
  2  1  1  1
  2 10  1  0
  2  3  1  0
  4  3  1  0
  4  9  1  0
  5  4  2  0
  6  5  1  0
  6  7  2  0
  7  8  1  0
  8  9  2  0
 10 11  2  0
 13 12  1  0
 14 13  1  0
 14 15  1  0
 16 15  1  6
 17 16  1  0
 17 10  1  0
 18 19  2  0
 18 16  1  0
 20 21  1  0
 21 31  2  0
 21 22  1  0
 22 23  2  0
 23 24  1  0
 24 25  1  0
 26 25  1  6
 26 27  1  0
 27 18  1  0
 28 26  1  0
 28 32  1  0
 29 28  2  0
 30 24  2  0
 31 30  1  0
M  END
$$$$
