FMY.pdb
     RDKit          3D

 32 33  0  0  1  0  0  0  0  0999 V2000
   18.3787  -15.0513  -18.1154 N   0  0  0  0  0  0  0  0  0  0  0  0
   17.5182  -16.0356  -18.7383 C   0  0  1  0  0  0  0  0  0  0  0  0
   17.9545  -16.1463  -20.1826 C   0  0  0  0  0  0  0  0  0  0  0  0
   16.9443  -15.4172  -20.9931 C   0  0  0  0  0  0  0  0  0  0  0  0
   17.2625  -14.3918  -21.8582 C   0  0  0  0  0  0  0  0  0  0  0  0
   16.2908  -13.7339  -22.5989 C   0  0  0  0  0  0  0  0  0  0  0  0
   14.9713  -14.1011  -22.4798 C   0  0  0  0  0  0  0  0  0  0  0  0
   14.6407  -15.1112  -21.6303 C   0  0  0  0  0  0  0  0  0  0  0  0
   15.6129  -15.7673  -20.8909 C   0  0  0  0  0  0  0  0  0  0  0  0
   17.6461  -17.3028  -18.0075 C   0  0  0  0  0  0  0  0  0  0  0  0
   17.1748  -18.3493  -18.5113 O   0  0  0  0  0  0  0  0  0  0  0  0
   22.1599  -17.0582  -15.2391 C   0  0  0  0  0  0  0  0  0  0  0  0
   22.0427  -18.5925  -16.1600 S   0  0  0  0  0  0  0  0  0  0  0  0
   20.6197  -19.6021  -15.6629 C   0  0  0  0  0  0  0  0  0  0  0  0
   19.5653  -18.6966  -15.0799 C   0  0  0  0  0  0  0  0  0  0  0  0
   18.3659  -18.6725  -16.0042 C   0  0  2  0  0  0  0  0  0  0  0  0
   18.2807  -17.4299  -16.7416 N   0  0  0  0  0  0  0  0  0  0  0  0
   17.1081  -18.9004  -15.2545 C   0  0  0  0  0  0  0  0  0  0  0  0
   16.7454  -18.0705  -14.3797 O   0  0  0  0  0  0  0  0  0  0  0  0
    9.4104  -21.5458  -12.1296 O   0  0  0  0  0  0  0  0  0  0  0  0
   10.4947  -21.2358  -12.9283 C   0  0  0  0  0  0  0  0  0  0  0  0
   11.1808  -22.1895  -13.6250 C   0  0  0  0  0  0  0  0  0  0  0  0
   12.2606  -21.8475  -14.4147 C   0  0  0  0  0  0  0  0  0  0  0  0
   12.6860  -20.5447  -14.5313 C   0  0  0  0  0  0  0  0  0  0  0  0
   13.8321  -20.1247  -15.3573 C   0  0  0  0  0  0  0  0  0  0  0  0
   15.1024  -20.3015  -14.6048 C   0  0  2  0  0  0  0  0  0  0  0  0
   16.2707  -20.0191  -15.4665 N   0  0  0  0  0  0  0  0  0  0  0  0
   15.2679  -21.5998  -13.9308 C   0  0  0  0  0  0  0  0  0  0  0  0
   15.9702  -22.5218  -14.3949 O   0  0  0  0  0  0  0  0  0  0  0  0
   11.9801  -19.5941  -13.8196 C   0  0  0  0  0  0  0  0  0  0  0  0
   10.9002  -19.9216  -13.0274 C   0  0  0  0  0  0  0  0  0  0  0  0
   14.6243  -21.8261  -12.7292 O   0  0  0  0  0  0  0  0  0  0  0  0
  2  1  1  1
  2 10  1  0
  2  3  1  0
  4  3  1  0
  4  9  1  0
  5  4  2  0
  6  5  1  0
  6  7  2  0
  7  8  1  0
  8  9  2  0
 10 11  2  0
 13 12  1  0
 14 13  1  0
 14 15  1  0
 16 15  1  1
 17 16  1  0
 17 10  1  0
 18 19  2  0
 18 16  1  0
 20 21  1  0
 21 31  2  0
 21 22  1  0
 22 23  2  0
 23 24  1  0
 24 25  1  0
 26 25  1  6
 26 27  1  0
 27 18  1  0
 28 26  1  0
 28 32  1  0
 29 28  2  0
 30 24  2  0
 31 30  1  0
M  END
$$$$
