FMY.pdb
     RDKit          3D

 32 33  0  0  1  0  0  0  0  0999 V2000
   29.5451   -9.5446  -19.8828 N   0  0  0  0  0  0  0  0  0  0  0  0
   29.3306   -9.3703  -18.4613 C   0  0  1  0  0  0  0  0  0  0  0  0
   29.5060   -7.8961  -18.1702 C   0  0  0  0  0  0  0  0  0  0  0  0
   30.9438   -7.5850  -18.3822 C   0  0  0  0  0  0  0  0  0  0  0  0
   31.4083   -6.8252  -19.4348 C   0  0  0  0  0  0  0  0  0  0  0  0
   32.7594   -6.5556  -19.6000 C   0  0  0  0  0  0  0  0  0  0  0  0
   33.6731   -7.0510  -18.7001 C   0  0  0  0  0  0  0  0  0  0  0  0
   33.2309   -7.8027  -17.6557 C   0  0  0  0  0  0  0  0  0  0  0  0
   31.8805   -8.0711  -17.4923 C   0  0  0  0  0  0  0  0  0  0  0  0
   27.9880   -9.8601  -18.1240 C   0  0  0  0  0  0  0  0  0  0  0  0
   27.0751   -9.7795  -18.9791 O   0  0  0  0  0  0  0  0  0  0  0  0
   25.5357  -15.1643  -14.7695 C   0  0  0  0  0  0  0  0  0  0  0  0
   27.1362  -14.8093  -15.4962 S   0  0  0  0  0  0  0  0  0  0  0  0
   27.1373  -13.2854  -16.4805 C   0  0  0  0  0  0  0  0  0  0  0  0
   26.4166  -12.2108  -15.7077 C   0  0  0  0  0  0  0  0  0  0  0  0
   26.3313  -10.9607  -16.5582 C   0  0  2  0  0  0  0  0  0  0  0  0
   27.6424  -10.4317  -16.8690 N   0  0  0  0  0  0  0  0  0  0  0  0
   25.5118   -9.9183  -15.8965 C   0  0  0  0  0  0  0  0  0  0  0  0
   26.0618   -9.0927  -15.1210 O   0  0  0  0  0  0  0  0  0  0  0  0
   21.0235   -2.7504  -14.8460 O   0  0  0  0  0  0  0  0  0  0  0  0
   21.7785   -3.8829  -15.0850 C   0  0  0  0  0  0  0  0  0  0  0  0
   22.1826   -4.7132  -14.0785 C   0  0  0  0  0  0  0  0  0  0  0  0
   22.9366   -5.8376  -14.3501 C   0  0  0  0  0  0  0  0  0  0  0  0
   23.3083   -6.1651  -15.6332 C   0  0  0  0  0  0  0  0  0  0  0  0
   24.1132   -7.3503  -15.9789 C   0  0  0  0  0  0  0  0  0  0  0  0
   23.3689   -8.5940  -15.6468 C   0  0  2  0  0  0  0  0  0  0  0  0
   24.1171   -9.7912  -16.0873 N   0  0  0  0  0  0  0  0  0  0  0  0
   21.9801   -8.6537  -16.1316 C   0  0  0  0  0  0  0  0  0  0  0  0
   21.6496   -9.2557  -17.1742 O   0  0  0  0  0  0  0  0  0  0  0  0
   22.8905   -5.3140  -16.6380 C   0  0  0  0  0  0  0  0  0  0  0  0
   22.1374   -4.1879  -16.3810 C   0  0  0  0  0  0  0  0  0  0  0  0
   20.9840   -8.0206  -15.4130 O   0  0  0  0  0  0  0  0  0  0  0  0
  2  1  1  6
  2 10  1  0
  2  3  1  0
  4  3  1  0
  4  9  1  0
  5  4  2  0
  6  5  1  0
  6  7  2  0
  7  8  1  0
  8  9  2  0
 10 11  2  0
 13 12  1  0
 14 13  1  0
 14 15  1  0
 16 15  1  1
 17 16  1  0
 17 10  1  0
 18 19  2  0
 18 16  1  0
 20 21  1  0
 21 31  2  0
 21 22  1  0
 22 23  2  0
 23 24  1  0
 24 25  1  0
 26 25  1  6
 26 27  1  0
 27 18  1  0
 28 26  1  0
 28 32  1  0
 29 28  2  0
 30 24  2  0
 31 30  1  0
M  END
$$$$
