FMY.pdb
     RDKit          3D

 32 33  0  0  1  0  0  0  0  0999 V2000
   19.4539  -12.3619  -19.6741 N   0  0  0  0  0  0  0  0  0  0  0  0
   19.2186  -11.6855  -18.4154 C   0  0  1  0  0  0  0  0  0  0  0  0
   20.0931  -12.3643  -17.3842 C   0  0  0  0  0  0  0  0  0  0  0  0
   19.5084  -13.7096  -17.1446 C   0  0  0  0  0  0  0  0  0  0  0  0
   18.4944  -13.9459  -16.2407 C   0  0  0  0  0  0  0  0  0  0  0  0
   17.9735  -15.2170  -16.0442 C   0  0  0  0  0  0  0  0  0  0  0  0
   18.4694  -16.2802  -16.7608 C   0  0  0  0  0  0  0  0  0  0  0  0
   19.4702  -16.0638  -17.6568 C   0  0  0  0  0  0  0  0  0  0  0  0
   19.9895  -14.7931  -17.8518 C   0  0  0  0  0  0  0  0  0  0  0  0
   19.5355  -10.2611  -18.5798 C   0  0  0  0  0  0  0  0  0  0  0  0
   19.6557   -9.7909  -19.7354 O   0  0  0  0  0  0  0  0  0  0  0  0
   17.4485   -3.3495  -19.4413 C   0  0  0  0  0  0  0  0  0  0  0  0
   17.3306   -5.1246  -19.2159 S   0  0  0  0  0  0  0  0  0  0  0  0
   18.8146   -5.8347  -18.4512 C   0  0  0  0  0  0  0  0  0  0  0  0
   18.6397   -7.3285  -18.3534 C   0  0  0  0  0  0  0  0  0  0  0  0
   19.8451   -7.9245  -17.6568 C   0  0  2  0  0  0  0  0  0  0  0  0
   19.7195   -9.3577  -17.4975 N   0  0  0  0  0  0  0  0  0  0  0  0
   20.0688   -7.2889  -16.3369 C   0  0  0  0  0  0  0  0  0  0  0  0
   19.2467   -7.4855  -15.4037 O   0  0  0  0  0  0  0  0  0  0  0  0
   26.8713   -5.3019  -17.9522 O   0  0  0  0  0  0  0  0  0  0  0  0
   25.8773   -5.6669  -17.0641 C   0  0  0  0  0  0  0  0  0  0  0  0
   25.2896   -6.8994  -17.0969 C   0  0  0  0  0  0  0  0  0  0  0  0
   24.2986   -7.2337  -16.1953 C   0  0  0  0  0  0  0  0  0  0  0  0
   23.8664   -6.3477  -15.2361 C   0  0  0  0  0  0  0  0  0  0  0  0
   22.8121   -6.6512  -14.2519 C   0  0  0  0  0  0  0  0  0  0  0  0
   21.5211   -6.0476  -14.6763 C   0  0  2  0  0  0  0  0  0  0  0  0
   21.1750   -6.4555  -16.0550 N   0  0  0  0  0  0  0  0  0  0  0  0
   21.4261   -4.5850  -14.5382 C   0  0  0  0  0  0  0  0  0  0  0  0
   21.2057   -3.8242  -15.5032 O   0  0  0  0  0  0  0  0  0  0  0  0
   24.4721   -5.1063  -15.2182 C   0  0  0  0  0  0  0  0  0  0  0  0
   25.4627   -4.7593  -16.1123 C   0  0  0  0  0  0  0  0  0  0  0  0
   21.5854   -4.0105  -13.2916 O   0  0  0  0  0  0  0  0  0  0  0  0
  2  1  1  6
  2 10  1  0
  2  3  1  0
  4  3  1  0
  4  9  1  0
  5  4  2  0
  6  5  1  0
  6  7  2  0
  7  8  1  0
  8  9  2  0
 10 11  2  0
 13 12  1  0
 14 13  1  0
 14 15  1  0
 16 15  1  1
 17 16  1  0
 17 10  1  0
 18 19  2  0
 18 16  1  0
 20 21  1  0
 21 31  2  0
 21 22  1  0
 22 23  2  0
 23 24  1  0
 24 25  1  0
 26 25  1  6
 26 27  1  0
 27 18  1  0
 28 26  1  0
 28 32  1  0
 29 28  2  0
 30 24  2  0
 31 30  1  0
M  END
$$$$
