KSW.pdb
     RDKit          3D

 30 31  0  0  1  0  0  0  0  0999 V2000
   11.0720  -19.6576   18.5596 N   0  0  0  0  0  0  0  0  0  0  0  0
   11.5553  -18.4413   19.0739 C   0  0  1  0  0  0  0  0  0  0  0  0
   11.7557  -17.3994   18.0363 C   0  0  0  0  0  0  0  0  0  0  0  0
   11.8401  -17.7318   16.6301 C   0  0  0  0  0  0  0  0  0  0  0  0
   11.9448  -16.8314   15.5068 C   0  0  0  0  0  0  0  0  0  0  0  0
   11.8536  -17.2178   14.1023 C   0  0  0  0  0  0  0  0  0  0  0  0
   11.8974  -16.0769   13.1818 N   0  0  0  0  0  0  0  0  0  0  0  0
   10.7423  -17.9287   20.2312 C   0  0  0  0  0  0  0  0  0  0  0  0
   10.9908  -16.7765   20.6692 O   0  0  0  0  0  0  0  0  0  0  0  0
    8.2616  -20.2734   22.8599 O   0  0  0  0  0  0  0  0  0  0  0  0
    7.8047  -19.1131   22.2392 C   0  0  0  0  0  0  0  0  0  0  0  0
    8.9277  -18.1657   21.9626 C   0  0  2  0  0  0  0  0  0  0  0  0
    9.7162  -18.6564   20.8607 N   0  0  0  0  0  0  0  0  0  0  0  0
    9.7252  -17.8366   23.1533 C   0  0  0  0  0  0  0  0  0  0  0  0
   10.8745  -18.2896   23.2905 O   0  0  0  0  0  0  0  0  0  0  0  0
    9.1819  -16.9976   24.1524 N   0  0  0  0  0  0  0  0  0  0  0  0
    9.9255  -16.6150   25.3522 C   0  0  1  0  0  0  0  0  0  0  0  0
    9.6692  -15.1393   25.5499 C   0  0  0  0  0  0  0  0  0  0  0  0
    8.2640  -14.7796   25.7696 C   0  0  0  0  0  0  0  0  0  0  0  0
    7.1969  -15.6868   25.8606 C   0  0  0  0  0  0  0  0  0  0  0  0
    6.0567  -15.0245   26.1096 N   0  0  0  0  0  0  0  0  0  0  0  0
    6.3284  -13.7116   26.1862 C   0  0  0  0  0  0  0  0  0  0  0  0
    5.5061  -12.6302   26.4117 C   0  0  0  0  0  0  0  0  0  0  0  0
    5.9879  -11.3406   26.4394 C   0  0  0  0  0  0  0  0  0  0  0  0
    7.3554  -11.1596   26.2285 C   0  0  0  0  0  0  0  0  0  0  0  0
    8.1498  -12.2548   26.0068 C   0  0  0  0  0  0  0  0  0  0  0  0
    7.7033  -13.5533   25.9741 C   0  0  0  0  0  0  0  0  0  0  0  0
    9.5694  -17.3960   26.5374 C   0  0  0  0  0  0  0  0  0  0  0  0
   10.3938  -17.3467   27.6729 O   0  0  0  0  0  0  0  0  0  0  0  0
    8.5254  -18.0962   26.5063 O   0  0  0  0  0  0  0  0  0  0  0  0
  2  1  1  6
  2  3  1  0
  2  8  1  0
  4  5  1  0
  4  3  1  0
  6  5  1  0
  7  6  1  0
  8  9  2  0
 10 11  1  0
 12 11  1  1
 12 14  1  0
 13 12  1  0
 13  8  1  0
 14 15  2  0
 16 17  1  0
 16 14  1  0
 17 28  1  0
 17 18  1  1
 19 27  1  0
 19 18  1  0
 20 19  2  0
 21 20  1  0
 21 22  1  0
 22 27  2  0
 23 22  1  0
 23 24  2  0
 24 25  1  0
 25 26  2  0
 27 26  1  0
 28 30  2  0
 28 29  1  0
M  END
$$$$
