KSW.pdb
     RDKit          3D

 30 31  0  0  1  0  0  0  0  0999 V2000
   10.1832  -14.2011   18.8893 N   0  0  0  0  0  0  0  0  0  0  0  0
    9.1385  -13.7902   19.7362 C   0  0  1  0  0  0  0  0  0  0  0  0
    7.8974  -13.4256   19.0089 C   0  0  0  0  0  0  0  0  0  0  0  0
    7.4878  -14.1198   17.8066 C   0  0  0  0  0  0  0  0  0  0  0  0
    8.0534  -14.0174   16.4826 C   0  0  0  0  0  0  0  0  0  0  0  0
    7.5901  -14.7474   15.3067 C   0  0  0  0  0  0  0  0  0  0  0  0
    8.2908  -14.3696   14.0749 N   0  0  0  0  0  0  0  0  0  0  0  0
    8.8679  -14.7644   20.8501 C   0  0  0  0  0  0  0  0  0  0  0  0
    7.8980  -14.5369   21.6174 O   0  0  0  0  0  0  0  0  0  0  0  0
   11.3776  -18.0813   21.6813 O   0  0  0  0  0  0  0  0  0  0  0  0
   10.0011  -18.1576   21.8807 C   0  0  0  0  0  0  0  0  0  0  0  0
    9.4227  -16.8168   22.2016 C   0  0  2  0  0  0  0  0  0  0  0  0
    9.6320  -15.9203   21.0929 N   0  0  0  0  0  0  0  0  0  0  0  0
    9.8792  -16.2733   23.4893 C   0  0  0  0  0  0  0  0  0  0  0  0
   10.7337  -15.3715   23.5286 O   0  0  0  0  0  0  0  0  0  0  0  0
    9.3427  -16.7793   24.6949 N   0  0  0  0  0  0  0  0  0  0  0  0
    9.8440  -16.3823   26.0101 C   0  0  1  0  0  0  0  0  0  0  0  0
    8.6256  -16.2040   26.8854 C   0  0  0  0  0  0  0  0  0  0  0  0
    7.5898  -15.3247   26.3320 C   0  0  0  0  0  0  0  0  0  0  0  0
    6.4441  -15.7513   25.6426 C   0  0  0  0  0  0  0  0  0  0  0  0
    5.6887  -14.6914   25.3160 N   0  0  0  0  0  0  0  0  0  0  0  0
    6.2918  -13.5778   25.7625 C   0  0  0  0  0  0  0  0  0  0  0  0
    5.9267  -12.2532   25.6703 C   0  0  0  0  0  0  0  0  0  0  0  0
    6.7045  -11.2440   26.1920 C   0  0  0  0  0  0  0  0  0  0  0  0
    7.8925  -11.6093   26.8265 C   0  0  0  0  0  0  0  0  0  0  0  0
    8.2303  -12.9357   26.9036 C   0  0  0  0  0  0  0  0  0  0  0  0
    7.4782  -13.9670   26.3962 C   0  0  0  0  0  0  0  0  0  0  0  0
   10.7974  -17.3315   26.5859 C   0  0  0  0  0  0  0  0  0  0  0  0
   11.0961  -18.5177   25.8966 O   0  0  0  0  0  0  0  0  0  0  0  0
   11.3280  -17.0564   27.6923 O   0  0  0  0  0  0  0  0  0  0  0  0
  2  1  1  6
  2  3  1  0
  2  8  1  0
  4  5  1  0
  4  3  1  0
  6  5  1  0
  7  6  1  0
  8  9  2  0
 10 11  1  0
 12 11  1  6
 12 14  1  0
 13 12  1  0
 13  8  1  0
 14 15  2  0
 16 17  1  0
 16 14  1  0
 17 28  1  0
 17 18  1  1
 19 27  1  0
 19 18  1  0
 20 19  2  0
 21 20  1  0
 21 22  1  0
 22 27  2  0
 23 22  1  0
 23 24  2  0
 24 25  1  0
 25 26  2  0
 27 26  1  0
 28 30  2  0
 28 29  1  0
M  END
$$$$
