KSW.pdb
     RDKit          3D

 30 31  0  0  1  0  0  0  0  0999 V2000
    9.4967  -15.0349   18.4274 N   0  0  0  0  0  0  0  0  0  0  0  0
    9.0525  -14.3525   19.5739 C   0  0  1  0  0  0  0  0  0  0  0  0
    7.7802  -13.6171   19.3675 C   0  0  0  0  0  0  0  0  0  0  0  0
    7.2813  -13.3157   18.0426 C   0  0  0  0  0  0  0  0  0  0  0  0
    7.7659  -13.8081   16.7752 C   0  0  0  0  0  0  0  0  0  0  0  0
    7.2013  -13.4812   15.4696 C   0  0  0  0  0  0  0  0  0  0  0  0
    8.1062  -12.6937   14.6259 N   0  0  0  0  0  0  0  0  0  0  0  0
    8.9998  -15.2290   20.7954 C   0  0  0  0  0  0  0  0  0  0  0  0
    8.4152  -14.7898   21.8184 O   0  0  0  0  0  0  0  0  0  0  0  0
   11.4725  -18.5967   21.4423 O   0  0  0  0  0  0  0  0  0  0  0  0
   10.1112  -18.6920   21.7221 C   0  0  0  0  0  0  0  0  0  0  0  0
    9.5265  -17.3538   22.0421 C   0  0  2  0  0  0  0  0  0  0  0  0
    9.5644  -16.5152   20.8708 N   0  0  0  0  0  0  0  0  0  0  0  0
   10.1168  -16.7246   23.2329 C   0  0  0  0  0  0  0  0  0  0  0  0
   10.9893  -15.8468   23.1182 O   0  0  0  0  0  0  0  0  0  0  0  0
    9.6895  -17.1198   24.5207 N   0  0  0  0  0  0  0  0  0  0  0  0
   10.2189  -16.5225   25.7460 C   0  0  1  0  0  0  0  0  0  0  0  0
    9.8737  -15.0533   25.6778 C   0  0  0  0  0  0  0  0  0  0  0  0
    8.4372  -14.7559   25.6543 C   0  0  0  0  0  0  0  0  0  0  0  0
    7.4154  -15.6959   25.4485 C   0  0  0  0  0  0  0  0  0  0  0  0
    6.2193  -15.0936   25.5342 N   0  0  0  0  0  0  0  0  0  0  0  0
    6.4105  -13.7890   25.7884 C   0  0  0  0  0  0  0  0  0  0  0  0
    5.5113  -12.7591   25.9533 C   0  0  0  0  0  0  0  0  0  0  0  0
    5.9188  -11.4669   26.1983 C   0  0  0  0  0  0  0  0  0  0  0  0
    7.2917  -11.2286   26.2754 C   0  0  0  0  0  0  0  0  0  0  0  0
    8.1634  -12.2732   26.1074 C   0  0  0  0  0  0  0  0  0  0  0  0
    7.7918  -13.5729   25.8635 C   0  0  0  0  0  0  0  0  0  0  0  0
    9.7140  -17.1471   26.9693 C   0  0  0  0  0  0  0  0  0  0  0  0
    8.7654  -18.1784   26.8799 O   0  0  0  0  0  0  0  0  0  0  0  0
   10.1475  -16.7396   28.0771 O   0  0  0  0  0  0  0  0  0  0  0  0
  2  1  1  6
  2  3  1  0
  2  8  1  0
  4  5  1  0
  4  3  1  0
  6  5  1  0
  7  6  1  0
  8  9  2  0
 10 11  1  0
 12 11  1  6
 12 14  1  0
 13 12  1  0
 13  8  1  0
 14 15  2  0
 16 17  1  0
 16 14  1  0
 17 28  1  0
 17 18  1  1
 19 27  1  0
 19 18  1  0
 20 19  2  0
 21 20  1  0
 21 22  1  0
 22 27  2  0
 23 22  1  0
 23 24  2  0
 24 25  1  0
 25 26  2  0
 27 26  1  0
 28 30  2  0
 28 29  1  0
M  END
$$$$
