KSW.pdb
     RDKit          3D

 30 31  0  0  1  0  0  0  0  0999 V2000
   10.0793  -14.9921   18.6021 N   0  0  0  0  0  0  0  0  0  0  0  0
    9.0931  -14.4825   19.4653 C   0  0  1  0  0  0  0  0  0  0  0  0
    7.8408  -14.0967   18.7690 C   0  0  0  0  0  0  0  0  0  0  0  0
    7.8480  -13.5981   17.4101 C   0  0  0  0  0  0  0  0  0  0  0  0
    8.0521  -14.3414   16.1898 C   0  0  0  0  0  0  0  0  0  0  0  0
    7.9522  -13.7947   14.8402 C   0  0  0  0  0  0  0  0  0  0  0  0
    8.0683  -14.8127   13.7909 N   0  0  0  0  0  0  0  0  0  0  0  0
    8.8243  -15.3784   20.6436 C   0  0  0  0  0  0  0  0  0  0  0  0
    7.9491  -15.0235   21.4738 O   0  0  0  0  0  0  0  0  0  0  0  0
   11.3493  -18.6443   21.6912 O   0  0  0  0  0  0  0  0  0  0  0  0
    9.9730  -18.7170   21.8929 C   0  0  0  0  0  0  0  0  0  0  0  0
    9.3806  -17.3595   22.0970 C   0  0  2  0  0  0  0  0  0  0  0  0
    9.4906  -16.5944   20.8808 N   0  0  0  0  0  0  0  0  0  0  0  0
    9.9070  -16.6607   23.2788 C   0  0  0  0  0  0  0  0  0  0  0  0
   10.7035  -15.7149   23.1524 O   0  0  0  0  0  0  0  0  0  0  0  0
    9.5050  -17.0664   24.5715 N   0  0  0  0  0  0  0  0  0  0  0  0
   10.1177  -16.5397   25.7905 C   0  0  1  0  0  0  0  0  0  0  0  0
    9.7816  -15.0672   25.8246 C   0  0  0  0  0  0  0  0  0  0  0  0
    8.3628  -14.7614   26.0388 C   0  0  0  0  0  0  0  0  0  0  0  0
    7.3122  -15.6900   25.9761 C   0  0  0  0  0  0  0  0  0  0  0  0
    6.1511  -15.0836   26.2672 N   0  0  0  0  0  0  0  0  0  0  0  0
    6.3930  -13.7871   26.5197 C   0  0  0  0  0  0  0  0  0  0  0  0
    5.5417  -12.7569   26.8520 C   0  0  0  0  0  0  0  0  0  0  0  0
    5.9956  -11.4738   27.0605 C   0  0  0  0  0  0  0  0  0  0  0  0
    7.3653  -11.2451   26.9225 C   0  0  0  0  0  0  0  0  0  0  0  0
    8.1889  -12.2898   26.5913 C   0  0  0  0  0  0  0  0  0  0  0  0
    7.7706  -13.5807   26.3779 C   0  0  0  0  0  0  0  0  0  0  0  0
    9.6874  -17.2277   27.0082 C   0  0  0  0  0  0  0  0  0  0  0  0
    8.7232  -18.2450   26.9254 O   0  0  0  0  0  0  0  0  0  0  0  0
   10.1976  -16.8859   28.1056 O   0  0  0  0  0  0  0  0  0  0  0  0
  2  1  1  6
  2  3  1  0
  2  8  1  0
  4  5  1  0
  4  3  1  0
  6  5  1  0
  7  6  1  0
  8  9  2  0
 10 11  1  0
 12 11  1  6
 12 14  1  0
 13 12  1  0
 13  8  1  0
 14 15  2  0
 16 17  1  0
 16 14  1  0
 17 28  1  0
 17 18  1  1
 19 27  1  0
 19 18  1  0
 20 19  2  0
 21 20  1  0
 21 22  1  0
 22 27  2  0
 23 22  1  0
 23 24  2  0
 24 25  1  0
 25 26  2  0
 27 26  1  0
 28 30  2  0
 28 29  1  0
M  END
$$$$
