KSW.pdb
     RDKit          3D

 30 31  0  0  1  0  0  0  0  0999 V2000
    7.0441  -16.3660   20.0073 N   0  0  0  0  0  0  0  0  0  0  0  0
    8.1086  -15.6915   20.6314 C   0  0  1  0  0  0  0  0  0  0  0  0
    7.8507  -14.2449   20.8387 C   0  0  0  0  0  0  0  0  0  0  0  0
    7.8773  -13.3020   19.7408 C   0  0  0  0  0  0  0  0  0  0  0  0
    7.4482  -13.5091   18.3783 C   0  0  0  0  0  0  0  0  0  0  0  0
    7.5099  -12.5142   17.3122 C   0  0  0  0  0  0  0  0  0  0  0  0
    8.6603  -12.6899   16.4196 N   0  0  0  0  0  0  0  0  0  0  0  0
    8.5691  -16.3640   21.8959 C   0  0  0  0  0  0  0  0  0  0  0  0
    7.7076  -16.6484   22.7666 O   0  0  0  0  0  0  0  0  0  0  0  0
   12.5977  -17.3842   22.5597 O   0  0  0  0  0  0  0  0  0  0  0  0
   11.5717  -18.2251   22.9845 C   0  0  0  0  0  0  0  0  0  0  0  0
   10.3383  -17.4508   23.3226 C   0  0  2  0  0  0  0  0  0  0  0  0
    9.9074  -16.6981   22.1717 N   0  0  0  0  0  0  0  0  0  0  0  0
   10.4713  -16.6362   24.5395 C   0  0  0  0  0  0  0  0  0  0  0  0
   10.9408  -15.4867   24.4836 O   0  0  0  0  0  0  0  0  0  0  0  0
   10.0622  -17.1632   25.7854 N   0  0  0  0  0  0  0  0  0  0  0  0
   10.2849  -16.4633   27.0500 C   0  0  1  0  0  0  0  0  0  0  0  0
    8.9241  -16.3103   27.6882 C   0  0  0  0  0  0  0  0  0  0  0  0
    7.9389  -15.5857   26.8779 C   0  0  0  0  0  0  0  0  0  0  0  0
    6.8792  -16.1727   26.1690 C   0  0  0  0  0  0  0  0  0  0  0  0
    6.1460  -15.2188   25.5746 N   0  0  0  0  0  0  0  0  0  0  0  0
    6.6810  -14.0213   25.8625 C   0  0  0  0  0  0  0  0  0  0  0  0
    6.3069  -12.7504   25.4867 C   0  0  0  0  0  0  0  0  0  0  0  0
    7.0093  -11.6352   25.8852 C   0  0  0  0  0  0  0  0  0  0  0  0
    8.1292  -11.8347   26.6936 C   0  0  0  0  0  0  0  0  0  0  0  0
    8.4778  -13.1112   27.0521 C   0  0  0  0  0  0  0  0  0  0  0  0
    7.7997  -14.2444   26.6743 C   0  0  0  0  0  0  0  0  0  0  0  0
   11.2322  -17.1400   27.9366 C   0  0  0  0  0  0  0  0  0  0  0  0
   11.6583  -16.5015   29.1123 O   0  0  0  0  0  0  0  0  0  0  0  0
   11.6426  -18.2853   27.6184 O   0  0  0  0  0  0  0  0  0  0  0  0
  2  1  1  1
  2  3  1  0
  2  8  1  0
  4  5  1  0
  4  3  1  0
  6  5  1  0
  7  6  1  0
  8  9  2  0
 10 11  1  0
 12 11  1  6
 12 14  1  0
 13 12  1  0
 13  8  1  0
 14 15  2  0
 16 17  1  0
 16 14  1  0
 17 28  1  0
 17 18  1  1
 19 27  1  0
 19 18  1  0
 20 19  2  0
 21 20  1  0
 21 22  1  0
 22 27  2  0
 23 22  1  0
 23 24  2  0
 24 25  1  0
 25 26  2  0
 27 26  1  0
 28 30  2  0
 28 29  1  0
M  END
$$$$
