KSW.pdb
     RDKit          3D

 30 31  0  0  1  0  0  0  0  0999 V2000
    7.0030  -16.5218   19.9767 N   0  0  0  0  0  0  0  0  0  0  0  0
    7.9788  -15.7387   20.6186 C   0  0  1  0  0  0  0  0  0  0  0  0
    7.5885  -14.3149   20.7689 C   0  0  0  0  0  0  0  0  0  0  0  0
    7.7663  -13.3595   19.6961 C   0  0  0  0  0  0  0  0  0  0  0  0
    7.9420  -13.6239   18.2881 C   0  0  0  0  0  0  0  0  0  0  0  0
    8.2046  -12.6165   17.2651 C   0  0  0  0  0  0  0  0  0  0  0  0
    8.3841  -13.1830   15.9243 N   0  0  0  0  0  0  0  0  0  0  0  0
    8.4438  -16.3313   21.9208 C   0  0  0  0  0  0  0  0  0  0  0  0
    7.5812  -16.5928   22.7975 O   0  0  0  0  0  0  0  0  0  0  0  0
   12.5202  -17.0997   22.7921 O   0  0  0  0  0  0  0  0  0  0  0  0
   11.5172  -17.9960   23.1541 C   0  0  0  0  0  0  0  0  0  0  0  0
   10.2267  -17.2897   23.4207 C   0  0  2  0  0  0  0  0  0  0  0  0
    9.7876  -16.6142   22.2259 N   0  0  0  0  0  0  0  0  0  0  0  0
   10.2674  -16.4191   24.6050 C   0  0  0  0  0  0  0  0  0  0  0  0
   10.6347  -15.2356   24.5083 O   0  0  0  0  0  0  0  0  0  0  0  0
    9.8858  -16.9307   25.8659 N   0  0  0  0  0  0  0  0  0  0  0  0
   10.1922  -16.2459   27.1213 C   0  0  1  0  0  0  0  0  0  0  0  0
    8.8606  -15.9332   27.7626 C   0  0  0  0  0  0  0  0  0  0  0  0
    7.9050  -15.2356   26.8952 C   0  0  0  0  0  0  0  0  0  0  0  0
    6.9329  -15.8538   26.0933 C   0  0  0  0  0  0  0  0  0  0  0  0
    6.2004  -14.9209   25.4658 N   0  0  0  0  0  0  0  0  0  0  0  0
    6.6515  -13.7071   25.8213 C   0  0  0  0  0  0  0  0  0  0  0  0
    6.2441  -12.4461   25.4466 C   0  0  0  0  0  0  0  0  0  0  0  0
    6.8576  -11.3094   25.9235 C   0  0  0  0  0  0  0  0  0  0  0  0
    7.9212  -11.4762   26.8113 C   0  0  0  0  0  0  0  0  0  0  0  0
    8.3048  -12.7435   27.1667 C   0  0  0  0  0  0  0  0  0  0  0  0
    7.7149  -13.8976   26.7119 C   0  0  0  0  0  0  0  0  0  0  0  0
   11.0617  -17.0150   28.0123 C   0  0  0  0  0  0  0  0  0  0  0  0
   11.4951  -18.2928   27.6243 O   0  0  0  0  0  0  0  0  0  0  0  0
   11.4001  -16.5057   29.1112 O   0  0  0  0  0  0  0  0  0  0  0  0
  2  1  1  1
  2  3  1  0
  2  8  1  0
  4  5  1  0
  4  3  1  0
  6  5  1  0
  7  6  1  0
  8  9  2  0
 10 11  1  0
 12 11  1  6
 12 14  1  0
 13 12  1  0
 13  8  1  0
 14 15  2  0
 16 17  1  0
 16 14  1  0
 17 28  1  0
 17 18  1  1
 19 27  1  0
 19 18  1  0
 20 19  2  0
 21 20  1  0
 21 22  1  0
 22 27  2  0
 23 22  1  0
 23 24  2  0
 24 25  1  0
 25 26  2  0
 27 26  1  0
 28 30  2  0
 28 29  1  0
M  END
$$$$
