WPG.pdb
     RDKit          3D

 26 28  0  0  1  0  0  0  0  0999 V2000
    6.5921  -17.5289   23.6232 N   0  0  0  0  0  0  0  0  0  0  0  0
    7.0722  -16.2173   23.1931 C   0  0  1  0  0  0  0  0  0  0  0  0
    7.8766  -15.5532   24.2854 C   0  0  0  0  0  0  0  0  0  0  0  0
    7.0939  -14.7552   25.2320 C   0  0  0  0  0  0  0  0  0  0  0  0
    5.9412  -15.1755   25.8483 C   0  0  0  0  0  0  0  0  0  0  0  0
    5.4996  -14.1744   26.6143 N   0  0  0  0  0  0  0  0  0  0  0  0
    6.3224  -13.1104   26.5236 C   0  0  0  0  0  0  0  0  0  0  0  0
    6.3149  -11.8649   27.1054 C   0  0  0  0  0  0  0  0  0  0  0  0
    7.3196  -10.9731   26.8186 C   0  0  0  0  0  0  0  0  0  0  0  0
    8.3493  -11.2907   25.9548 C   0  0  0  0  0  0  0  0  0  0  0  0
    8.3468  -12.5432   25.3763 C   0  0  0  0  0  0  0  0  0  0  0  0
    7.3309  -13.4684   25.6542 C   0  0  0  0  0  0  0  0  0  0  0  0
    7.7896  -16.3154   21.9146 C   0  0  0  0  0  0  0  0  0  0  0  0
    8.2493  -17.4306   21.5655 O   0  0  0  0  0  0  0  0  0  0  0  0
    8.0015  -15.2188   21.0258 N   0  0  0  0  0  0  0  0  0  0  0  0
    7.4528  -13.9046   21.2801 C   0  0  0  0  0  0  0  0  0  0  0  0
    7.2996  -13.3082   19.8598 C   0  0  0  0  0  0  0  0  0  0  0  0
    8.5871  -13.8323   19.2117 C   0  0  0  0  0  0  0  0  0  0  0  0
    8.7201  -15.1927   19.8024 C   0  0  1  0  0  0  0  0  0  0  0  0
   10.1637  -15.5610   19.9702 C   0  0  0  0  0  0  0  0  0  0  0  0
   10.6933  -15.3089   21.0753 O   0  0  0  0  0  0  0  0  0  0  0  0
   10.9405  -16.1668   18.9632 N   0  0  0  0  0  0  0  0  0  0  0  0
   12.3249  -16.6013   19.1877 C   0  0  0  0  0  0  0  0  0  0  0  0
   12.8352  -17.1611   17.9044 C   0  0  0  0  0  0  0  0  0  0  0  0
   12.0677  -18.0005   17.1097 O   0  0  0  0  0  0  0  0  0  0  0  0
   13.9925  -16.8968   17.4802 O   0  0  0  0  0  0  0  0  0  0  0  0
  2  1  1  1
  2  3  1  0
  4  3  1  0
  5  4  2  0
  6  5  1  0
  7  6  1  0
  7 12  2  0
  8  9  2  0
  8  7  1  0
  9 10  1  0
 10 11  2  0
 12 11  1  0
 12  4  1  0
 13 15  1  0
 13  2  1  0
 14 13  2  0
 15 19  1  0
 16 15  1  0
 17 16  1  0
 17 18  1  0
 18 19  1  0
 19 20  1  1
 20 21  2  0
 20 22  1  0
 22 23  1  0
 23 24  1  0
 24 25  1  0
 26 24  2  0
M  END
$$$$
