WPG.pdb
     RDKit          3D

 26 28  0  0  1  0  0  0  0  0999 V2000
    6.3875  -17.2509   23.1954 N   0  0  0  0  0  0  0  0  0  0  0  0
    7.0537  -15.9893   22.8783 C   0  0  1  0  0  0  0  0  0  0  0  0
    7.8488  -15.4880   24.0605 C   0  0  0  0  0  0  0  0  0  0  0  0
    7.0653  -14.7877   25.0809 C   0  0  0  0  0  0  0  0  0  0  0  0
    5.9912  -15.3211   25.7496 C   0  0  0  0  0  0  0  0  0  0  0  0
    5.5193  -14.3847   26.5766 N   0  0  0  0  0  0  0  0  0  0  0  0
    6.2462  -13.2538   26.4756 C   0  0  0  0  0  0  0  0  0  0  0  0
    6.1748  -12.0322   27.1018 C   0  0  0  0  0  0  0  0  0  0  0  0
    7.0842  -11.0516   26.7879 C   0  0  0  0  0  0  0  0  0  0  0  0
    8.0799  -11.2556   25.8529 C   0  0  0  0  0  0  0  0  0  0  0  0
    8.1422  -12.4852   25.2303 C   0  0  0  0  0  0  0  0  0  0  0  0
    7.2237  -13.4995   25.5347 C   0  0  0  0  0  0  0  0  0  0  0  0
    7.8473  -16.1108   21.6478 C   0  0  0  0  0  0  0  0  0  0  0  0
    8.2476  -17.2487   21.2987 O   0  0  0  0  0  0  0  0  0  0  0  0
    8.1980  -15.0127   20.8060 N   0  0  0  0  0  0  0  0  0  0  0  0
    7.8006  -13.6546   21.1069 C   0  0  0  0  0  0  0  0  0  0  0  0
    7.7393  -12.9901   19.7100 C   0  0  0  0  0  0  0  0  0  0  0  0
    8.9676  -13.6345   19.0555 C   0  0  0  0  0  0  0  0  0  0  0  0
    8.9337  -15.0229   19.5926 C   0  0  1  0  0  0  0  0  0  0  0  0
   10.3224  -15.5622   19.7612 C   0  0  0  0  0  0  0  0  0  0  0  0
   10.9488  -15.2173   20.7879 O   0  0  0  0  0  0  0  0  0  0  0  0
   10.9466  -16.4233   18.8377 N   0  0  0  0  0  0  0  0  0  0  0  0
   12.3078  -16.1925   18.3379 C   0  0  0  0  0  0  0  0  0  0  0  0
   13.2458  -16.9368   19.2251 C   0  0  0  0  0  0  0  0  0  0  0  0
   14.2751  -17.7179   18.7194 O   0  0  0  0  0  0  0  0  0  0  0  0
   13.1467  -16.8908   20.4809 O   0  0  0  0  0  0  0  0  0  0  0  0
  2  1  1  1
  2  3  1  0
  4  3  1  0
  5  4  2  0
  6  5  1  0
  7  6  1  0
  7 12  2  0
  8  9  2  0
  8  7  1  0
  9 10  1  0
 10 11  2  0
 12 11  1  0
 12  4  1  0
 13 15  1  0
 13  2  1  0
 14 13  2  0
 15 19  1  0
 16 15  1  0
 17 16  1  0
 17 18  1  0
 18 19  1  0
 19 20  1  1
 20 21  2  0
 20 22  1  0
 22 23  1  0
 23 24  1  0
 24 25  1  0
 26 24  2  0
M  END
$$$$
