WPG.pdb
     RDKit          3D

 26 28  0  0  1  0  0  0  0  0999 V2000
    6.9214  -17.6786   23.6857 N   0  0  0  0  0  0  0  0  0  0  0  0
    7.2211  -16.3169   23.2478 C   0  0  1  0  0  0  0  0  0  0  0  0
    7.9529  -15.5530   24.3259 C   0  0  0  0  0  0  0  0  0  0  0  0
    7.0914  -14.8463   25.2767 C   0  0  0  0  0  0  0  0  0  0  0  0
    5.9756  -15.3804   25.8725 C   0  0  0  0  0  0  0  0  0  0  0  0
    5.4372  -14.4373   26.6499 N   0  0  0  0  0  0  0  0  0  0  0  0
    6.1607  -13.3015   26.5866 C   0  0  0  0  0  0  0  0  0  0  0  0
    6.0341  -12.0724   27.1891 C   0  0  0  0  0  0  0  0  0  0  0  0
    6.9563  -11.0881   26.9289 C   0  0  0  0  0  0  0  0  0  0  0  0
    8.0192  -11.2955   26.0719 C   0  0  0  0  0  0  0  0  0  0  0  0
    8.1364  -12.5326   25.4725 C   0  0  0  0  0  0  0  0  0  0  0  0
    7.2062  -13.5509   25.7230 C   0  0  0  0  0  0  0  0  0  0  0  0
    7.9220  -16.3241   21.9566 C   0  0  0  0  0  0  0  0  0  0  0  0
    8.4556  -17.3918   21.5665 O   0  0  0  0  0  0  0  0  0  0  0  0
    8.0386  -15.1889   21.0992 N   0  0  0  0  0  0  0  0  0  0  0  0
    7.4599  -13.9067   21.4365 C   0  0  0  0  0  0  0  0  0  0  0  0
    7.1974  -13.2658   20.0520 C   0  0  0  0  0  0  0  0  0  0  0  0
    8.4601  -13.7166   19.3072 C   0  0  0  0  0  0  0  0  0  0  0  0
    8.6784  -15.0914   19.8362 C   0  0  1  0  0  0  0  0  0  0  0  0
   10.1420  -15.4100   19.9016 C   0  0  0  0  0  0  0  0  0  0  0  0
   10.8134  -14.8337   20.7860 O   0  0  0  0  0  0  0  0  0  0  0  0
   10.7879  -16.3108   19.0324 N   0  0  0  0  0  0  0  0  0  0  0  0
   12.2218  -16.6113   19.1295 C   0  0  0  0  0  0  0  0  0  0  0  0
   12.5820  -17.4703   17.9662 C   0  0  0  0  0  0  0  0  0  0  0  0
   13.3423  -16.9956   16.9071 O   0  0  0  0  0  0  0  0  0  0  0  0
   12.2107  -18.6726   17.8906 O   0  0  0  0  0  0  0  0  0  0  0  0
  2  1  1  1
  2  3  1  0
  4  3  1  0
  5  4  2  0
  6  5  1  0
  7  6  1  0
  7 12  2  0
  8  9  2  0
  8  7  1  0
  9 10  1  0
 10 11  2  0
 12 11  1  0
 12  4  1  0
 13 15  1  0
 13  2  1  0
 14 13  2  0
 15 19  1  0
 16 15  1  0
 17 16  1  0
 17 18  1  0
 18 19  1  0
 19 20  1  1
 20 21  2  0
 20 22  1  0
 22 23  1  0
 23 24  1  0
 24 25  1  0
 26 24  2  0
M  END
$$$$
