WPG.pdb
     RDKit          3D

 26 28  0  0  1  0  0  0  0  0999 V2000
    6.6611  -18.0913   24.4326 N   0  0  0  0  0  0  0  0  0  0  0  0
    7.0977  -16.7726   23.9786 C   0  0  1  0  0  0  0  0  0  0  0  0
    7.8507  -16.0491   25.0698 C   0  0  0  0  0  0  0  0  0  0  0  0
    7.0821  -15.0201   25.7741 C   0  0  0  0  0  0  0  0  0  0  0  0
    5.8449  -15.2121   26.3378 C   0  0  0  0  0  0  0  0  0  0  0  0
    5.4507  -14.0490   26.8627 N   0  0  0  0  0  0  0  0  0  0  0  0
    6.3861  -13.0987   26.6644 C   0  0  0  0  0  0  0  0  0  0  0  0
    6.4630  -11.7701   27.0085 C   0  0  0  0  0  0  0  0  0  0  0  0
    7.5765  -11.0415   26.6675 C   0  0  0  0  0  0  0  0  0  0  0  0
    8.6339  -11.6069   25.9824 C   0  0  0  0  0  0  0  0  0  0  0  0
    8.5461  -12.9410   25.6418 C   0  0  0  0  0  0  0  0  0  0  0  0
    7.4188  -13.7029   25.9789 C   0  0  0  0  0  0  0  0  0  0  0  0
    7.8463  -16.8738   22.7184 C   0  0  0  0  0  0  0  0  0  0  0  0
    8.4601  -17.9399   22.4660 O   0  0  0  0  0  0  0  0  0  0  0  0
    7.9242  -15.8336   21.7442 N   0  0  0  0  0  0  0  0  0  0  0  0
    7.1515  -14.6156   21.8551 C   0  0  0  0  0  0  0  0  0  0  0  0
    6.9836  -14.1721   20.3814 C   0  0  0  0  0  0  0  0  0  0  0  0
    8.3752  -14.5206   19.8392 C   0  0  0  0  0  0  0  0  0  0  0  0
    8.6978  -15.7856   20.5554 C   0  0  1  0  0  0  0  0  0  0  0  0
   10.1704  -15.8879   20.8176 C   0  0  0  0  0  0  0  0  0  0  0  0
   10.6315  -15.2085   21.7615 O   0  0  0  0  0  0  0  0  0  0  0  0
   11.0460  -16.6972   20.0675 N   0  0  0  0  0  0  0  0  0  0  0  0
   12.4799  -16.7981   20.3670 C   0  0  0  0  0  0  0  0  0  0  0  0
   13.0728  -17.7734   19.4088 C   0  0  0  0  0  0  0  0  0  0  0  0
   12.7949  -19.1312   19.4729 O   0  0  0  0  0  0  0  0  0  0  0  0
   13.8573  -17.4079   18.4922 O   0  0  0  0  0  0  0  0  0  0  0  0
  2  1  1  1
  2  3  1  0
  4  3  1  0
  5  4  2  0
  6  5  1  0
  7  6  1  0
  7 12  2  0
  8  9  2  0
  8  7  1  0
  9 10  1  0
 10 11  2  0
 12 11  1  0
 12  4  1  0
 13 15  1  0
 13  2  1  0
 14 13  2  0
 15 19  1  0
 16 15  1  0
 17 16  1  0
 17 18  1  0
 18 19  1  0
 19 20  1  1
 20 21  2  0
 20 22  1  0
 22 23  1  0
 23 24  1  0
 24 25  1  0
 26 24  2  0
M  END
$$$$
