WPG.pdb
     RDKit          3D

 26 28  0  0  1  0  0  0  0  0999 V2000
    6.3360  -18.5967   24.9238 N   0  0  0  0  0  0  0  0  0  0  0  0
    6.7955  -17.2436   24.6176 C   0  0  1  0  0  0  0  0  0  0  0  0
    7.4214  -16.5995   25.8320 C   0  0  0  0  0  0  0  0  0  0  0  0
    6.8370  -15.3138   26.2206 C   0  0  0  0  0  0  0  0  0  0  0  0
    5.4918  -15.0407   26.2541 C   0  0  0  0  0  0  0  0  0  0  0  0
    5.3431  -13.7670   26.6273 N   0  0  0  0  0  0  0  0  0  0  0  0
    6.5440  -13.1929   26.8409 C   0  0  0  0  0  0  0  0  0  0  0  0
    6.9258  -11.9327   27.2356 C   0  0  0  0  0  0  0  0  0  0  0  0
    8.2601  -11.6388   27.3787 C   0  0  0  0  0  0  0  0  0  0  0  0
    9.2420  -12.5791   27.1363 C   0  0  0  0  0  0  0  0  0  0  0  0
    8.8476  -13.8405   26.7403 C   0  0  0  0  0  0  0  0  0  0  0  0
    7.4917  -14.1617   26.5871 C   0  0  0  0  0  0  0  0  0  0  0  0
    7.6706  -17.2420   23.4374 C   0  0  0  0  0  0  0  0  0  0  0  0
    8.3809  -18.2528   23.2123 O   0  0  0  0  0  0  0  0  0  0  0  0
    7.7701  -16.1596   22.5122 N   0  0  0  0  0  0  0  0  0  0  0  0
    6.9129  -14.9970   22.5925 C   0  0  0  0  0  0  0  0  0  0  0  0
    6.8529  -14.5042   21.1262 C   0  0  0  0  0  0  0  0  0  0  0  0
    8.3083  -14.7439   20.7060 C   0  0  0  0  0  0  0  0  0  0  0  0
    8.6452  -16.0152   21.4044 C   0  0  1  0  0  0  0  0  0  0  0  0
   10.0909  -16.0376   21.8009 C   0  0  0  0  0  0  0  0  0  0  0  0
   10.4091  -15.4132   22.8373 O   0  0  0  0  0  0  0  0  0  0  0  0
   11.0918  -16.7151   21.0775 N   0  0  0  0  0  0  0  0  0  0  0  0
   12.4904  -16.7651   21.5217 C   0  0  0  0  0  0  0  0  0  0  0  0
   13.2858  -17.4034   20.4351 C   0  0  0  0  0  0  0  0  0  0  0  0
   14.0631  -16.6613   19.5575 O   0  0  0  0  0  0  0  0  0  0  0  0
   13.2888  -18.6522   20.2626 O   0  0  0  0  0  0  0  0  0  0  0  0
  2  1  1  1
  2  3  1  0
  4  3  1  0
  5  4  2  0
  6  5  1  0
  7  6  1  0
  7 12  2  0
  8  9  2  0
  8  7  1  0
  9 10  1  0
 10 11  2  0
 12 11  1  0
 12  4  1  0
 13 15  1  0
 13  2  1  0
 14 13  2  0
 15 19  1  0
 16 15  1  0
 17 16  1  0
 17 18  1  0
 18 19  1  0
 19 20  1  1
 20 21  2  0
 20 22  1  0
 22 23  1  0
 23 24  1  0
 24 25  1  0
 26 24  2  0
M  END
$$$$
