WPG.pdb
     RDKit          3D

 26 28  0  0  1  0  0  0  0  0999 V2000
    6.6843  -17.5316   23.3340 N   0  0  0  0  0  0  0  0  0  0  0  0
    7.1486  -16.1864   23.0013 C   0  0  1  0  0  0  0  0  0  0  0  0
    7.9613  -15.6019   24.1323 C   0  0  0  0  0  0  0  0  0  0  0  0
    7.1807  -14.9191   25.1666 C   0  0  0  0  0  0  0  0  0  0  0  0
    6.1441  -15.4829   25.8685 C   0  0  0  0  0  0  0  0  0  0  0  0
    5.6613  -14.5551   26.6991 N   0  0  0  0  0  0  0  0  0  0  0  0
    6.3450  -13.4006   26.5682 C   0  0  0  0  0  0  0  0  0  0  0  0
    6.2470  -12.1759   27.1847 C   0  0  0  0  0  0  0  0  0  0  0  0
    7.1127  -11.1674   26.8376 C   0  0  0  0  0  0  0  0  0  0  0  0
    8.0900  -11.3459   25.8783 C   0  0  0  0  0  0  0  0  0  0  0  0
    8.1792  -12.5789   25.2658 C   0  0  0  0  0  0  0  0  0  0  0  0
    7.3055  -13.6216   25.6040 C   0  0  0  0  0  0  0  0  0  0  0  0
    7.8506  -16.1788   21.7107 C   0  0  0  0  0  0  0  0  0  0  0  0
    8.4119  -17.2333   21.3237 O   0  0  0  0  0  0  0  0  0  0  0  0
    7.9386  -15.0432   20.8505 N   0  0  0  0  0  0  0  0  0  0  0  0
    7.2905  -13.7883   21.1635 C   0  0  0  0  0  0  0  0  0  0  0  0
    7.0387  -13.1666   19.7683 C   0  0  0  0  0  0  0  0  0  0  0  0
    8.3425  -13.5604   19.0631 C   0  0  0  0  0  0  0  0  0  0  0  0
    8.6098  -14.9210   19.6061 C   0  0  1  0  0  0  0  0  0  0  0  0
   10.0842  -15.1698   19.7158 C   0  0  0  0  0  0  0  0  0  0  0  0
   10.6588  -14.7543   20.7465 O   0  0  0  0  0  0  0  0  0  0  0  0
   10.8419  -15.8369   18.7335 N   0  0  0  0  0  0  0  0  0  0  0  0
   12.3077  -15.9087   18.7804 C   0  0  0  0  0  0  0  0  0  0  0  0
   12.6751  -17.1953   19.4365 C   0  0  0  0  0  0  0  0  0  0  0  0
   12.5904  -17.3727   20.8100 O   0  0  0  0  0  0  0  0  0  0  0  0
   13.0816  -18.1857   18.7708 O   0  0  0  0  0  0  0  0  0  0  0  0
  2  1  1  1
  2  3  1  0
  4  3  1  0
  5  4  2  0
  6  5  1  0
  7  6  1  0
  7 12  2  0
  8  9  2  0
  8  7  1  0
  9 10  1  0
 10 11  2  0
 12 11  1  0
 12  4  1  0
 13 15  1  0
 13  2  1  0
 14 13  2  0
 15 19  1  0
 16 15  1  0
 17 16  1  0
 17 18  1  0
 18 19  1  0
 19 20  1  1
 20 21  2  0
 20 22  1  0
 22 23  1  0
 23 24  1  0
 24 25  1  0
 26 24  2  0
M  END
$$$$
