WPG.pdb
     RDKit          3D

 26 28  0  0  1  0  0  0  0  0999 V2000
    7.1334  -18.3458   25.6088 N   0  0  0  0  0  0  0  0  0  0  0  0
    6.7158  -17.4161   24.5613 C   0  0  1  0  0  0  0  0  0  0  0  0
    6.1230  -16.1620   25.1589 C   0  0  0  0  0  0  0  0  0  0  0  0
    7.0422  -15.3765   25.9857 C   0  0  0  0  0  0  0  0  0  0  0  0
    8.1843  -15.8647   26.5711 C   0  0  0  0  0  0  0  0  0  0  0  0
    8.7445  -14.8702   27.2646 N   0  0  0  0  0  0  0  0  0  0  0  0
    8.0108  -13.7445   27.1551 C   0  0  0  0  0  0  0  0  0  0  0  0
    8.1574  -12.4748   27.6608 C   0  0  0  0  0  0  0  0  0  0  0  0
    7.2268  -11.5101   27.3602 C   0  0  0  0  0  0  0  0  0  0  0  0
    6.1358  -11.7774   26.5567 C   0  0  0  0  0  0  0  0  0  0  0  0
    5.9982  -13.0551   26.0548 C   0  0  0  0  0  0  0  0  0  0  0  0
    6.9355  -14.0550   26.3497 C   0  0  0  0  0  0  0  0  0  0  0  0
    7.8163  -17.1545   23.6237 C   0  0  0  0  0  0  0  0  0  0  0  0
    8.8149  -17.9157   23.6391 O   0  0  0  0  0  0  0  0  0  0  0  0
    7.8306  -16.0839   22.6799 N   0  0  0  0  0  0  0  0  0  0  0  0
    6.8349  -15.0345   22.6911 C   0  0  0  0  0  0  0  0  0  0  0  0
    6.7910  -14.5775   21.2127 C   0  0  0  0  0  0  0  0  0  0  0  0
    8.2846  -14.6433   20.8702 C   0  0  0  0  0  0  0  0  0  0  0  0
    8.7375  -15.8516   21.6134 C   0  0  1  0  0  0  0  0  0  0  0  0
   10.1527  -15.6892   22.0809 C   0  0  0  0  0  0  0  0  0  0  0  0
   10.3259  -15.2062   23.2219 O   0  0  0  0  0  0  0  0  0  0  0  0
   11.2781  -16.0474   21.3131 N   0  0  0  0  0  0  0  0  0  0  0  0
   12.6401  -15.6258   21.6638 C   0  0  0  0  0  0  0  0  0  0  0  0
   13.2264  -16.6793   22.5396 C   0  0  0  0  0  0  0  0  0  0  0  0
   13.9581  -17.7408   22.0266 O   0  0  0  0  0  0  0  0  0  0  0  0
   13.0840  -16.6545   23.7919 O   0  0  0  0  0  0  0  0  0  0  0  0
  2  1  1  1
  2  3  1  0
  4  3  1  0
  5  4  2  0
  6  5  1  0
  7  6  1  0
  7 12  2  0
  8  9  2  0
  8  7  1  0
  9 10  1  0
 10 11  2  0
 12 11  1  0
 12  4  1  0
 13 15  1  0
 13  2  1  0
 14 13  2  0
 15 19  1  0
 16 15  1  0
 17 16  1  0
 17 18  1  0
 18 19  1  0
 19 20  1  1
 20 21  2  0
 20 22  1  0
 22 23  1  0
 23 24  1  0
 24 25  1  0
 26 24  2  0
M  END
$$$$
