WPG.pdb
     RDKit          3D

 26 28  0  0  1  0  0  0  0  0999 V2000
    6.5686  -16.9729   25.1062 N   0  0  0  0  0  0  0  0  0  0  0  0
    7.1389  -15.8878   24.3105 C   0  0  1  0  0  0  0  0  0  0  0  0
    8.3836  -15.3365   24.9647 C   0  0  0  0  0  0  0  0  0  0  0  0
    8.1480  -14.5462   26.1752 C   0  0  0  0  0  0  0  0  0  0  0  0
    8.5835  -14.8863   27.4322 C   0  0  0  0  0  0  0  0  0  0  0  0
    8.1589  -13.9453   28.2796 N   0  0  0  0  0  0  0  0  0  0  0  0
    7.4597  -12.9977   27.6234 C   0  0  0  0  0  0  0  0  0  0  0  0
    6.8324  -11.8436   28.0287 C   0  0  0  0  0  0  0  0  0  0  0  0
    6.1918  -11.0557   27.1036 C   0  0  0  0  0  0  0  0  0  0  0  0
    6.1572  -11.3889   25.7638 C   0  0  0  0  0  0  0  0  0  0  0  0
    6.7897  -12.5494   25.3681 C   0  0  0  0  0  0  0  0  0  0  0  0
    7.4485  -13.3687   26.2955 C   0  0  0  0  0  0  0  0  0  0  0  0
    7.3472  -16.3119   22.9193 C   0  0  0  0  0  0  0  0  0  0  0  0
    7.2116  -17.5270   22.6329 O   0  0  0  0  0  0  0  0  0  0  0  0
    7.6942  -15.4285   21.8532 N   0  0  0  0  0  0  0  0  0  0  0  0
    7.7801  -13.9962   22.0374 C   0  0  0  0  0  0  0  0  0  0  0  0
    7.4648  -13.4421   20.6267 C   0  0  0  0  0  0  0  0  0  0  0  0
    8.2156  -14.4656   19.7658 C   0  0  0  0  0  0  0  0  0  0  0  0
    7.9876  -15.7407   20.5003 C   0  0  1  0  0  0  0  0  0  0  0  0
    9.1678  -16.6544   20.3591 C   0  0  0  0  0  0  0  0  0  0  0  0
    9.4259  -17.0815   19.2118 O   0  0  0  0  0  0  0  0  0  0  0  0
    9.9869  -17.0492   21.4349 N   0  0  0  0  0  0  0  0  0  0  0  0
   11.1461  -17.9335   21.2619 C   0  0  0  0  0  0  0  0  0  0  0  0
   12.3374  -17.0722   21.0168 C   0  0  0  0  0  0  0  0  0  0  0  0
   12.8573  -16.2378   21.9959 O   0  0  0  0  0  0  0  0  0  0  0  0
   12.9297  -17.0621   19.9041 O   0  0  0  0  0  0  0  0  0  0  0  0
  2  1  1  1
  2  3  1  0
  4  3  1  0
  5  4  2  0
  6  5  1  0
  7  6  1  0
  7 12  2  0
  8  9  2  0
  8  7  1  0
  9 10  1  0
 10 11  2  0
 12 11  1  0
 12  4  1  0
 13 15  1  0
 13  2  1  0
 14 13  2  0
 15 19  1  0
 16 15  1  0
 17 16  1  0
 17 18  1  0
 18 19  1  0
 19 20  1  1
 20 21  2  0
 20 22  1  0
 22 23  1  0
 23 24  1  0
 24 25  1  0
 26 24  2  0
M  END
$$$$
