WPG.pdb
     RDKit          3D

 26 28  0  0  1  0  0  0  0  0999 V2000
    7.0279  -18.4573   24.8775 N   0  0  0  0  0  0  0  0  0  0  0  0
    7.2670  -17.0970   24.3998 C   0  0  1  0  0  0  0  0  0  0  0  0
    7.8614  -16.2392   25.4916 C   0  0  0  0  0  0  0  0  0  0  0  0
    7.0042  -15.1453   25.9545 C   0  0  0  0  0  0  0  0  0  0  0  0
    5.6563  -15.2512   26.1936 C   0  0  0  0  0  0  0  0  0  0  0  0
    5.2137  -14.0498   26.5738 N   0  0  0  0  0  0  0  0  0  0  0  0
    6.2240  -13.1575   26.5938 C   0  0  0  0  0  0  0  0  0  0  0  0
    6.2918  -11.8222   26.9133 C   0  0  0  0  0  0  0  0  0  0  0  0
    7.4966  -11.1659   26.8454 C   0  0  0  0  0  0  0  0  0  0  0  0
    8.6558  -11.8113   26.4622 C   0  0  0  0  0  0  0  0  0  0  0  0
    8.5763  -13.1513   26.1434 C   0  0  0  0  0  0  0  0  0  0  0  0
    7.3571  -13.8403   26.2050 C   0  0  0  0  0  0  0  0  0  0  0  0
    8.0629  -17.1078   23.1648 C   0  0  0  0  0  0  0  0  0  0  0  0
    8.8005  -18.0971   22.9318 O   0  0  0  0  0  0  0  0  0  0  0  0
    8.0552  -16.0610   22.1946 N   0  0  0  0  0  0  0  0  0  0  0  0
    7.2150  -14.8913   22.3309 C   0  0  0  0  0  0  0  0  0  0  0  0
    6.9847  -14.4527   20.8642 C   0  0  0  0  0  0  0  0  0  0  0  0
    8.3807  -14.7162   20.2862 C   0  0  0  0  0  0  0  0  0  0  0  0
    8.7950  -15.9628   20.9875 C   0  0  1  0  0  0  0  0  0  0  0  0
   10.2771  -15.9789   21.2130 C   0  0  0  0  0  0  0  0  0  0  0  0
   10.7027  -15.4329   22.2552 O   0  0  0  0  0  0  0  0  0  0  0  0
   11.1988  -16.5682   20.3257 N   0  0  0  0  0  0  0  0  0  0  0  0
   12.6494  -16.3811   20.4546 C   0  0  0  0  0  0  0  0  0  0  0  0
   13.1486  -17.3885   21.4328 C   0  0  0  0  0  0  0  0  0  0  0  0
   13.8659  -18.5080   21.0364 O   0  0  0  0  0  0  0  0  0  0  0  0
   12.9410  -17.2693   22.6705 O   0  0  0  0  0  0  0  0  0  0  0  0
  2  1  1  1
  2  3  1  0
  4  3  1  0
  5  4  2  0
  6  5  1  0
  7  6  1  0
  7 12  2  0
  8  9  2  0
  8  7  1  0
  9 10  1  0
 10 11  2  0
 12 11  1  0
 12  4  1  0
 13 15  1  0
 13  2  1  0
 14 13  2  0
 15 19  1  0
 16 15  1  0
 17 16  1  0
 17 18  1  0
 18 19  1  0
 19 20  1  1
 20 21  2  0
 20 22  1  0
 22 23  1  0
 23 24  1  0
 24 25  1  0
 26 24  2  0
M  END
$$$$
