WPG.pdb
     RDKit          3D

 26 28  0  0  1  0  0  0  0  0999 V2000
   11.4194  -16.4673   23.0667 N   0  0  0  0  0  0  0  0  0  0  0  0
   10.0819  -15.8786   23.0527 C   0  0  1  0  0  0  0  0  0  0  0  0
    9.2516  -16.4541   21.9299 C   0  0  0  0  0  0  0  0  0  0  0  0
    9.2112  -15.6422   20.7114 C   0  0  0  0  0  0  0  0  0  0  0  0
   10.0745  -15.7728   19.6518 C   0  0  0  0  0  0  0  0  0  0  0  0
    9.7481  -14.8498   18.7433 N   0  0  0  0  0  0  0  0  0  0  0  0
    8.6995  -14.1170   19.1685 C   0  0  0  0  0  0  0  0  0  0  0  0
    7.9958  -13.0744   18.6141 C   0  0  0  0  0  0  0  0  0  0  0  0
    6.9417  -12.5226   19.3008 C   0  0  0  0  0  0  0  0  0  0  0  0
    6.5613  -12.9868   20.5446 C   0  0  0  0  0  0  0  0  0  0  0  0
    7.2746  -14.0333   21.0918 C   0  0  0  0  0  0  0  0  0  0  0  0
    8.3542  -14.6105   20.4088 C   0  0  0  0  0  0  0  0  0  0  0  0
    9.4445  -15.9947   24.3714 C   0  0  0  0  0  0  0  0  0  0  0  0
    9.8569  -16.8766   25.1645 O   0  0  0  0  0  0  0  0  0  0  0  0
    8.3769  -15.1624   24.8241 N   0  0  0  0  0  0  0  0  0  0  0  0
    7.8603  -14.0714   24.0269 C   0  0  0  0  0  0  0  0  0  0  0  0
    7.3123  -13.0893   25.0907 C   0  0  0  0  0  0  0  0  0  0  0  0
    6.6980  -14.0864   26.0810 C   0  0  0  0  0  0  0  0  0  0  0  0
    7.6686  -15.2154   26.0527 C   0  0  1  0  0  0  0  0  0  0  0  0
    6.9684  -16.5244   26.2622 C   0  0  0  0  0  0  0  0  0  0  0  0
    6.3734  -17.0181   25.2787 O   0  0  0  0  0  0  0  0  0  0  0  0
    6.9476  -17.2148   27.4898 N   0  0  0  0  0  0  0  0  0  0  0  0
    6.3949  -18.5683   27.6255 C   0  0  0  0  0  0  0  0  0  0  0  0
    7.5199  -19.4815   27.9740 C   0  0  0  0  0  0  0  0  0  0  0  0
    7.3130  -20.8138   28.3016 O   0  0  0  0  0  0  0  0  0  0  0  0
    8.7160  -19.0837   27.9874 O   0  0  0  0  0  0  0  0  0  0  0  0
  2  1  1  1
  2  3  1  0
  4  3  1  0
  5  4  2  0
  6  5  1  0
  7  6  1  0
  7 12  2  0
  8  9  2  0
  8  7  1  0
  9 10  1  0
 10 11  2  0
 12 11  1  0
 12  4  1  0
 13 15  1  0
 13  2  1  0
 14 13  2  0
 15 19  1  0
 16 15  1  0
 17 16  1  0
 17 18  1  0
 18 19  1  0
 19 20  1  6
 20 21  2  0
 20 22  1  0
 22 23  1  0
 23 24  1  0
 24 25  1  0
 26 24  2  0
M  END
$$$$
