QTC.pdb
     RDKit          3D

 23 22  0  0  1  0  0  0  0  0999 V2000
   15.5633  -13.8580   21.7699 N   0  0  0  0  0  0  0  0  0  0  0  0
   15.8427  -14.7983   20.7205 C   0  0  0  0  0  0  0  0  0  0  0  0
   16.7372  -15.6562   20.8126 O   0  0  0  0  0  0  0  0  0  0  0  0
   14.9917  -14.6830   19.5089 C   0  0  0  0  0  0  0  0  0  0  0  0
   13.5742  -14.4330   19.9574 C   0  0  0  0  0  0  0  0  0  0  0  0
   12.7868  -15.7498   19.9419 C   0  0  2  0  0  0  0  0  0  0  0  0
   12.4040  -16.0732   18.5828 N   0  0  0  0  0  0  0  0  0  0  0  0
   11.5861  -15.6714   20.7736 C   0  0  0  0  0  0  0  0  0  0  0  0
   10.6123  -14.9355   20.4032 O   0  0  0  0  0  0  0  0  0  0  0  0
    9.2418  -18.1841   21.3797 C   0  0  0  0  0  0  0  0  0  0  0  0
    9.6302  -17.7199   22.7444 C   0  0  1  0  0  0  0  0  0  0  0  0
   10.7309  -18.4817   23.2149 O   0  0  0  0  0  0  0  0  0  0  0  0
   10.1427  -16.2764   22.7761 C   0  0  2  0  0  0  0  0  0  0  0  0
   11.3865  -16.3509   21.9882 N   0  0  0  0  0  0  0  0  0  0  0  0
   10.4102  -15.7799   24.1270 C   0  0  0  0  0  0  0  0  0  0  0  0
   11.6305  -15.7182   24.5098 O   0  0  0  0  0  0  0  0  0  0  0  0
    9.4687  -15.3503   25.0803 N   0  0  0  0  0  0  0  0  0  0  0  0
    9.8276  -14.9297   26.4244 C   0  0  1  0  0  0  0  0  0  0  0  0
    8.7741  -13.8917   26.8310 C   0  0  0  0  0  0  0  0  0  0  0  0
    9.1035  -13.3187   28.5108 S   0  0  0  0  0  0  0  0  0  0  0  0
    9.7990  -16.0878   27.3309 C   0  0  0  0  0  0  0  0  0  0  0  0
    9.0360  -17.0436   27.1011 O   0  0  0  0  0  0  0  0  0  0  0  0
   10.6174  -16.1167   28.4365 O   0  0  0  0  0  0  0  0  0  0  0  0
  2  1  1  0
  2  4  1  0
  3  2  2  0
  5  4  1  0
  6  7  1  6
  6  5  1  0
  8  6  1  0
  9  8  2  0
 11 10  1  6
 11 13  1  0
 12 11  1  0
 13 14  1  6
 13 15  1  0
 14  8  1  0
 15 17  1  0
 16 15  2  0
 17 18  1  0
 18 19  1  1
 18 21  1  0
 20 19  1  0
 21 22  2  0
 21 23  1  0
M  END
$$$$
