QTC.pdb
     RDKit          3D

 23 22  0  0  1  0  0  0  0  0999 V2000
    7.9677  -15.5173   13.1987 N   0  0  0  0  0  0  0  0  0  0  0  0
    7.6988  -16.8593   13.6348 C   0  0  0  0  0  0  0  0  0  0  0  0
    7.5364  -17.8005   12.8396 O   0  0  0  0  0  0  0  0  0  0  0  0
    7.6258  -17.0564   15.1049 C   0  0  0  0  0  0  0  0  0  0  0  0
    7.8175  -15.7146   15.7649 C   0  0  0  0  0  0  0  0  0  0  0  0
    9.1404  -15.7045   16.5421 C   0  0  2  0  0  0  0  0  0  0  0  0
    9.4732  -17.0521   16.9560 N   0  0  0  0  0  0  0  0  0  0  0  0
    9.0674  -14.8435   17.7223 C   0  0  0  0  0  0  0  0  0  0  0  0
    8.6385  -13.6482   17.6023 O   0  0  0  0  0  0  0  0  0  0  0  0
    7.7330  -13.0100   18.8128 C   0  0  0  0  0  0  0  0  0  0  0  0
    8.0472  -13.6596   20.1197 C   0  0  1  0  0  0  0  0  0  0  0  0
    7.1772  -14.7607   20.3295 O   0  0  0  0  0  0  0  0  0  0  0  0
    9.4462  -14.2823   20.1720 C   0  0  2  0  0  0  0  0  0  0  0  0
    9.4359  -15.2122   19.0280 N   0  0  0  0  0  0  0  0  0  0  0  0
    9.7233  -14.9947   21.4205 C   0  0  0  0  0  0  0  0  0  0  0  0
    9.4479  -16.2442   21.4688 O   0  0  0  0  0  0  0  0  0  0  0  0
   10.2697  -14.4631   22.6031 N   0  0  0  0  0  0  0  0  0  0  0  0
   10.1771  -15.1248   23.8938 C   0  0  1  0  0  0  0  0  0  0  0  0
    8.6842  -15.3983   24.1153 C   0  0  0  0  0  0  0  0  0  0  0  0
    8.4500  -16.2475   25.6909 S   0  0  0  0  0  0  0  0  0  0  0  0
   10.9410  -16.3816   23.8629 C   0  0  0  0  0  0  0  0  0  0  0  0
   11.7888  -16.6203   24.7420 O   0  0  0  0  0  0  0  0  0  0  0  0
   10.7192  -17.2972   22.8604 O   0  0  0  0  0  0  0  0  0  0  0  0
  2  1  1  0
  2  4  1  0
  3  2  2  0
  5  4  1  0
  6  7  1  1
  6  5  1  0
  8  6  1  0
  9  8  2  0
 11 10  1  6
 11 13  1  0
 12 11  1  0
 13 14  1  6
 13 15  1  0
 14  8  1  0
 15 17  1  0
 16 15  2  0
 17 18  1  0
 18 19  1  6
 18 21  1  0
 20 19  1  0
 21 22  2  0
 21 23  1  0
M  END
$$$$
