QTC.pdb
     RDKit          3D

 23 22  0  0  1  0  0  0  0  0999 V2000
   13.6906  -18.6434   16.1910 N   0  0  0  0  0  0  0  0  0  0  0  0
   13.0562  -17.5050   15.5868 C   0  0  0  0  0  0  0  0  0  0  0  0
   13.6966  -16.5198   15.1822 O   0  0  0  0  0  0  0  0  0  0  0  0
   11.5772  -17.5765   15.4737 C   0  0  0  0  0  0  0  0  0  0  0  0
   10.9959  -17.4106   16.8548 C   0  0  0  0  0  0  0  0  0  0  0  0
    9.8315  -16.4124   16.8096 C   0  0  2  0  0  0  0  0  0  0  0  0
    9.9344  -15.5967   15.6170 N   0  0  0  0  0  0  0  0  0  0  0  0
    9.8184  -15.5436   17.9864 C   0  0  0  0  0  0  0  0  0  0  0  0
   10.7387  -14.6730   18.1348 O   0  0  0  0  0  0  0  0  0  0  0  0
    7.6587  -12.9025   18.8988 C   0  0  0  0  0  0  0  0  0  0  0  0
    7.6148  -13.8602   20.0431 C   0  0  1  0  0  0  0  0  0  0  0  0
    6.6044  -14.8306   19.8179 O   0  0  0  0  0  0  0  0  0  0  0  0
    8.8936  -14.6905   20.1946 C   0  0  2  0  0  0  0  0  0  0  0  0
    8.8573  -15.5702   19.0122 N   0  0  0  0  0  0  0  0  0  0  0  0
    8.9379  -15.4770   21.4285 C   0  0  0  0  0  0  0  0  0  0  0  0
    8.7794  -16.7441   21.3350 O   0  0  0  0  0  0  0  0  0  0  0  0
    9.1393  -15.0010   22.7372 N   0  0  0  0  0  0  0  0  0  0  0  0
    8.9922  -15.8313   23.9208 C   0  0  1  0  0  0  0  0  0  0  0  0
    9.4470  -14.9610   25.0991 C   0  0  0  0  0  0  0  0  0  0  0  0
   10.5118  -15.9264   26.1912 S   0  0  0  0  0  0  0  0  0  0  0  0
    7.5844  -16.2289   24.0760 C   0  0  0  0  0  0  0  0  0  0  0  0
    6.6765  -15.5020   23.6337 O   0  0  0  0  0  0  0  0  0  0  0  0
    7.2683  -17.4074   24.7117 O   0  0  0  0  0  0  0  0  0  0  0  0
  2  1  1  0
  2  4  1  0
  3  2  2  0
  5  4  1  0
  6  7  1  6
  6  5  1  0
  8  6  1  0
  9  8  2  0
 11 10  1  6
 11 13  1  0
 12 11  1  0
 13 14  1  6
 13 15  1  0
 14  8  1  0
 15 17  1  0
 16 15  2  0
 17 18  1  0
 18 19  1  1
 18 21  1  0
 20 19  1  0
 21 22  2  0
 21 23  1  0
M  END
$$$$
