QTC.pdb
     RDKit          3D

 23 22  0  0  1  0  0  0  0  0999 V2000
    7.7186  -12.1496   19.6096 N   0  0  0  0  0  0  0  0  0  0  0  0
    8.3302  -13.2415   18.9044 C   0  0  0  0  0  0  0  0  0  0  0  0
    8.9445  -13.0862   17.8353 O   0  0  0  0  0  0  0  0  0  0  0  0
    8.1832  -14.5781   19.5347 C   0  0  0  0  0  0  0  0  0  0  0  0
    9.5479  -15.2155   19.5988 C   0  0  0  0  0  0  0  0  0  0  0  0
    9.4296  -16.6354   20.1680 C   0  0  2  0  0  0  0  0  0  0  0  0
    8.5424  -17.4221   19.3360 N   0  0  0  0  0  0  0  0  0  0  0  0
    8.9210  -16.6274   21.5395 C   0  0  0  0  0  0  0  0  0  0  0  0
    7.6849  -16.3935   21.7496 O   0  0  0  0  0  0  0  0  0  0  0  0
    8.4428  -19.3793   23.3321 C   0  0  0  0  0  0  0  0  0  0  0  0
    9.2510  -18.5498   24.2740 C   0  0  1  0  0  0  0  0  0  0  0  0
   10.6328  -18.7946   24.0641 O   0  0  0  0  0  0  0  0  0  0  0  0
    9.1057  -17.0426   24.0400 C   0  0  2  0  0  0  0  0  0  0  0  0
    9.6849  -16.8604   22.6966 N   0  0  0  0  0  0  0  0  0  0  0  0
    9.8132  -16.2262   25.0279 C   0  0  0  0  0  0  0  0  0  0  0  0
   11.0380  -15.9347   24.7948 O   0  0  0  0  0  0  0  0  0  0  0  0
    9.3006  -15.7081   26.2315 N   0  0  0  0  0  0  0  0  0  0  0  0
   10.1252  -15.0614   27.2383 C   0  0  1  0  0  0  0  0  0  0  0  0
    9.1751  -14.1638   28.0409 C   0  0  0  0  0  0  0  0  0  0  0  0
   10.0716  -13.4017   29.4098 S   0  0  0  0  0  0  0  0  0  0  0  0
   10.7407  -16.0791   28.1040 C   0  0  0  0  0  0  0  0  0  0  0  0
   10.1448  -17.1466   28.3360 O   0  0  0  0  0  0  0  0  0  0  0  0
   11.9785  -15.8523   28.6599 O   0  0  0  0  0  0  0  0  0  0  0  0
  2  1  1  0
  2  4  1  0
  3  2  2  0
  5  4  1  0
  6  7  1  6
  6  5  1  0
  8  6  1  0
  9  8  2  0
 11 10  1  6
 11 13  1  0
 12 11  1  0
 13 14  1  6
 13 15  1  0
 14  8  1  0
 15 17  1  0
 16 15  2  0
 17 18  1  0
 18 19  1  1
 18 21  1  0
 20 19  1  0
 21 22  2  0
 21 23  1  0
M  END
$$$$
