CTA.pdb
     RDKit          3D

 19 18  0  0  1  0  0  0  0  0999 V2000
    8.7736  -14.5874   15.0008 N   0  0  0  0  0  0  0  0  0  0  0  0
    8.6152  -15.5498   16.0733 C   0  0  1  0  0  0  0  0  0  0  0  0
    9.2978  -16.8642   15.7746 C   0  0  0  0  0  0  0  0  0  0  0  0
    8.3944  -17.8101   14.5188 S   0  0  0  0  0  0  0  0  0  0  0  0
    9.2505  -15.0066   17.3122 C   0  0  0  0  0  0  0  0  0  0  0  0
   10.3191  -14.3497   17.2353 O   0  0  0  0  0  0  0  0  0  0  0  0
    7.4058  -12.8331   19.7176 C   0  0  0  0  0  0  0  0  0  0  0  0
    7.9959  -13.9715   20.4841 C   0  0  1  0  0  0  0  0  0  0  0  0
    7.0110  -14.9723   20.5239 O   0  0  0  0  0  0  0  0  0  0  0  0
    9.1992  -14.6151   19.8129 C   0  0  2  0  0  0  0  0  0  0  0  0
    8.6527  -15.2281   18.5815 N   0  0  0  0  0  0  0  0  0  0  0  0
    9.8117  -15.6640   20.6498 C   0  0  0  0  0  0  0  0  0  0  0  0
    9.3652  -16.8513   20.5741 O   0  0  0  0  0  0  0  0  0  0  0  0
   12.8812  -16.2598   22.6429 C   0  0  0  0  0  0  0  0  0  0  0  0
   11.4001  -16.5332   22.3941 C   0  0  2  0  0  0  0  0  0  0  0  0
   10.8776  -15.4678   21.5502 N   0  0  0  0  0  0  0  0  0  0  0  0
   10.6716  -16.6132   23.6682 C   0  0  0  0  0  0  0  0  0  0  0  0
    9.8859  -15.6752   23.9589 O   0  0  0  0  0  0  0  0  0  0  0  0
   10.7854  -17.6501   24.5792 O   0  0  0  0  0  0  0  0  0  0  0  0
  2  1  1  6
  3  2  1  0
  4  3  1  0
  5  2  1  0
  6  5  2  0
  8  7  1  6
  8 10  1  0
  9  8  1  0
 10 12  1  0
 10 11  1  6
 11  5  1  0
 12 13  2  0
 15 14  1  1
 16 15  1  0
 16 12  1  0
 17 19  1  0
 17 15  1  0
 18 17  2  0
M  END
$$$$
