CTA.pdb
     RDKit          3D

 19 18  0  0  1  0  0  0  0  0999 V2000
    8.8966  -15.6822   15.4877 N   0  0  0  0  0  0  0  0  0  0  0  0
    8.3736  -16.2801   16.7003 C   0  0  1  0  0  0  0  0  0  0  0  0
    8.6005  -17.7729   16.7520 C   0  0  0  0  0  0  0  0  0  0  0  0
    7.3702  -18.6654   15.7631 S   0  0  0  0  0  0  0  0  0  0  0  0
    9.0853  -15.6954   17.8771 C   0  0  0  0  0  0  0  0  0  0  0  0
   10.3189  -15.4643   17.8153 O   0  0  0  0  0  0  0  0  0  0  0  0
    7.3718  -12.8601   19.9962 C   0  0  0  0  0  0  0  0  0  0  0  0
    7.9403  -13.9233   20.8781 C   0  0  1  0  0  0  0  0  0  0  0  0
    6.8936  -14.8245   21.1339 O   0  0  0  0  0  0  0  0  0  0  0  0
    9.0364  -14.7514   20.2258 C   0  0  2  0  0  0  0  0  0  0  0  0
    8.3744  -15.3977   19.0703 N   0  0  0  0  0  0  0  0  0  0  0  0
    9.5649  -15.7906   21.1293 C   0  0  0  0  0  0  0  0  0  0  0  0
    8.9953  -16.9260   21.1621 O   0  0  0  0  0  0  0  0  0  0  0  0
   12.7291  -16.5677   22.8523 C   0  0  0  0  0  0  0  0  0  0  0  0
   11.2136  -16.7353   22.7756 C   0  0  2  0  0  0  0  0  0  0  0  0
   10.6755  -15.6387   21.9831 N   0  0  0  0  0  0  0  0  0  0  0  0
   10.6305  -16.7578   24.1246 C   0  0  0  0  0  0  0  0  0  0  0  0
    9.9278  -15.7774   24.4804 O   0  0  0  0  0  0  0  0  0  0  0  0
   10.7973  -17.7836   25.0400 O   0  0  0  0  0  0  0  0  0  0  0  0
  2  1  1  6
  3  2  1  0
  4  3  1  0
  5  2  1  0
  6  5  2  0
  8  7  1  6
  8 10  1  0
  9  8  1  0
 10 12  1  0
 10 11  1  6
 11  5  1  0
 12 13  2  0
 15 14  1  1
 16 15  1  0
 16 12  1  0
 17 19  1  0
 17 15  1  0
 18 17  2  0
M  END
$$$$
