CTA.pdb
     RDKit          3D

 19 18  0  0  1  0  0  0  0  0999 V2000
    8.0483  -14.8996   15.4746 N   0  0  0  0  0  0  0  0  0  0  0  0
    8.5137  -14.3462   16.7309 C   0  0  1  0  0  0  0  0  0  0  0  0
    7.7494  -13.1068   17.1340 C   0  0  0  0  0  0  0  0  0  0  0  0
    8.2315  -12.5388   18.7872 S   0  0  0  0  0  0  0  0  0  0  0  0
    8.3024  -15.3537   17.8144 C   0  0  0  0  0  0  0  0  0  0  0  0
    7.1807  -15.9030   17.9528 O   0  0  0  0  0  0  0  0  0  0  0  0
    9.4754  -18.5254   18.2584 C   0  0  0  0  0  0  0  0  0  0  0  0
    9.9289  -17.8509   19.5117 C   0  0  1  0  0  0  0  0  0  0  0  0
   11.2468  -17.4258   19.2757 O   0  0  0  0  0  0  0  0  0  0  0  0
    9.1524  -16.5889   19.8543 C   0  0  2  0  0  0  0  0  0  0  0  0
    9.3648  -15.6965   18.6927 N   0  0  0  0  0  0  0  0  0  0  0  0
    9.6614  -15.9327   21.0733 C   0  0  0  0  0  0  0  0  0  0  0  0
   10.7031  -15.2093   20.9942 O   0  0  0  0  0  0  0  0  0  0  0  0
    8.5938  -15.1098   24.5317 C   0  0  0  0  0  0  0  0  0  0  0  0
    9.7016  -15.4650   23.5432 C   0  0  2  0  0  0  0  0  0  0  0  0
    9.0832  -16.0342   22.3542 N   0  0  0  0  0  0  0  0  0  0  0  0
   10.6530  -16.4043   24.1539 C   0  0  0  0  0  0  0  0  0  0  0  0
   10.5573  -17.6214   23.8520 O   0  0  0  0  0  0  0  0  0  0  0  0
   11.6538  -16.0485   25.0428 O   0  0  0  0  0  0  0  0  0  0  0  0
  2  1  1  6
  3  2  1  0
  4  3  1  0
  5  2  1  0
  6  5  2  0
  8  7  1  6
  8 10  1  0
  9  8  1  0
 10 12  1  0
 10 11  1  6
 11  5  1  0
 12 13  2  0
 15 14  1  1
 16 15  1  0
 16 12  1  0
 17 19  1  0
 17 15  1  0
 18 17  2  0
M  END
$$$$
