CTA.pdb
     RDKit          3D

 19 18  0  0  1  0  0  0  0  0999 V2000
    7.7684  -15.9264   15.5951 N   0  0  0  0  0  0  0  0  0  0  0  0
    8.5562  -15.3018   16.6394 C   0  0  1  0  0  0  0  0  0  0  0  0
    8.1400  -13.8729   16.8998 C   0  0  0  0  0  0  0  0  0  0  0  0
    8.3797  -12.8345   15.4328 S   0  0  0  0  0  0  0  0  0  0  0  0
    8.3510  -16.0497   17.9169 C   0  0  0  0  0  0  0  0  0  0  0  0
    7.1889  -16.3433   18.2944 O   0  0  0  0  0  0  0  0  0  0  0  0
    8.9314  -19.2308   18.4108 C   0  0  0  0  0  0  0  0  0  0  0  0
    9.7337  -18.6448   19.5263 C   0  0  1  0  0  0  0  0  0  0  0  0
   11.0425  -18.5007   19.0369 O   0  0  0  0  0  0  0  0  0  0  0  0
    9.2993  -17.2463   19.9364 C   0  0  2  0  0  0  0  0  0  0  0  0
    9.4647  -16.4328   18.7110 N   0  0  0  0  0  0  0  0  0  0  0  0
   10.1449  -16.6901   21.0093 C   0  0  0  0  0  0  0  0  0  0  0  0
   11.3083  -16.2683   20.7205 O   0  0  0  0  0  0  0  0  0  0  0  0
    9.7910  -15.5634   24.5560 C   0  0  0  0  0  0  0  0  0  0  0  0
   10.6509  -16.0087   23.3759 C   0  0  2  0  0  0  0  0  0  0  0  0
    9.7725  -16.5777   22.3636 N   0  0  0  0  0  0  0  0  0  0  0  0
   11.6621  -16.9808   23.8152 C   0  0  0  0  0  0  0  0  0  0  0  0
   12.5982  -16.5689   24.5471 O   0  0  0  0  0  0  0  0  0  0  0  0
   11.6623  -18.3251   23.4822 O   0  0  0  0  0  0  0  0  0  0  0  0
  2  1  1  6
  3  2  1  0
  4  3  1  0
  5  2  1  0
  6  5  2  0
  8  7  1  6
  8 10  1  0
  9  8  1  0
 10 12  1  0
 10 11  1  6
 11  5  1  0
 12 13  2  0
 15 14  1  1
 16 15  1  0
 16 12  1  0
 17 19  1  0
 17 15  1  0
 18 17  2  0
M  END
$$$$
