CTA.pdb
     RDKit          3D

 19 18  0  0  1  0  0  0  0  0999 V2000
    7.2305  -15.3365   19.7648 N   0  0  0  0  0  0  0  0  0  0  0  0
    8.0558  -14.5922   20.6955 C   0  0  1  0  0  0  0  0  0  0  0  0
    7.9983  -13.1020   20.4536 C   0  0  0  0  0  0  0  0  0  0  0  0
    8.8381  -12.6475   18.9121 S   0  0  0  0  0  0  0  0  0  0  0  0
    7.5527  -14.8227   22.0838 C   0  0  0  0  0  0  0  0  0  0  0  0
    6.3384  -14.6410   22.3513 O   0  0  0  0  0  0  0  0  0  0  0  0
    6.5257  -17.3927   23.4315 C   0  0  0  0  0  0  0  0  0  0  0  0
    7.6159  -17.0605   24.3973 C   0  0  1  0  0  0  0  0  0  0  0  0
    8.7759  -17.6874   23.9130 O   0  0  0  0  0  0  0  0  0  0  0  0
    7.9554  -15.5797   24.4659 C   0  0  2  0  0  0  0  0  0  0  0  0
    8.4409  -15.2476   23.1076 N   0  0  0  0  0  0  0  0  0  0  0  0
    9.0189  -15.2947   25.4475 C   0  0  0  0  0  0  0  0  0  0  0  0
   10.2322  -15.4521   25.1042 O   0  0  0  0  0  0  0  0  0  0  0  0
    9.3784  -13.5786   28.7420 C   0  0  0  0  0  0  0  0  0  0  0  0
    9.9051  -14.5337   27.6738 C   0  0  2  0  0  0  0  0  0  0  0  0
    8.8098  -14.8496   26.7680 N   0  0  0  0  0  0  0  0  0  0  0  0
   10.4530  -15.7477   28.2955 C   0  0  0  0  0  0  0  0  0  0  0  0
    9.7854  -16.8096   28.2060 O   0  0  0  0  0  0  0  0  0  0  0  0
   11.6570  -15.8113   28.9771 O   0  0  0  0  0  0  0  0  0  0  0  0
  2  1  1  6
  3  2  1  0
  4  3  1  0
  5  2  1  0
  6  5  2  0
  8  7  1  6
  8 10  1  0
  9  8  1  0
 10 12  1  0
 10 11  1  6
 11  5  1  0
 12 13  2  0
 15 14  1  1
 16 15  1  0
 16 12  1  0
 17 19  1  0
 17 15  1  0
 18 17  2  0
M  END
$$$$
