CTA.pdb
     RDKit          3D

 19 18  0  0  1  0  0  0  0  0999 V2000
   14.8816  -14.0936   16.9024 N   0  0  0  0  0  0  0  0  0  0  0  0
   13.9113  -15.1192   17.2316 C   0  0  1  0  0  0  0  0  0  0  0  0
   14.5604  -16.4426   17.5631 C   0  0  0  0  0  0  0  0  0  0  0  0
   15.2098  -17.2534   16.0770 S   0  0  0  0  0  0  0  0  0  0  0  0
   13.1499  -14.6967   18.4462 C   0  0  0  0  0  0  0  0  0  0  0  0
   13.7245  -14.0444   19.3537 O   0  0  0  0  0  0  0  0  0  0  0  0
    9.4169  -13.3296   18.1625 C   0  0  0  0  0  0  0  0  0  0  0  0
    9.5651  -14.4097   19.1838 C   0  0  1  0  0  0  0  0  0  0  0  0
    9.2968  -15.6185   18.5206 O   0  0  0  0  0  0  0  0  0  0  0  0
   10.9751  -14.5550   19.7345 C   0  0  2  0  0  0  0  0  0  0  0  0
   11.7756  -15.0285   18.5830 N   0  0  0  0  0  0  0  0  0  0  0  0
   11.0509  -15.5478   20.8227 C   0  0  0  0  0  0  0  0  0  0  0  0
   11.3471  -16.7506   20.5396 O   0  0  0  0  0  0  0  0  0  0  0  0
   10.6353  -15.6518   24.5664 C   0  0  0  0  0  0  0  0  0  0  0  0
   10.8789  -16.3121   23.2117 C   0  0  2  0  0  0  0  0  0  0  0  0
   10.8208  -15.2796   22.1868 N   0  0  0  0  0  0  0  0  0  0  0  0
    9.8836  -17.3657   22.9676 C   0  0  0  0  0  0  0  0  0  0  0  0
    9.9579  -18.4181   23.6522 O   0  0  0  0  0  0  0  0  0  0  0  0
    8.8631  -17.2872   22.0346 O   0  0  0  0  0  0  0  0  0  0  0  0
  2  1  1  1
  3  2  1  0
  4  3  1  0
  5  2  1  0
  6  5  2  0
  8  7  1  6
  8 10  1  0
  9  8  1  0
 10 12  1  0
 10 11  1  6
 11  5  1  0
 12 13  2  0
 15 14  1  1
 16 15  1  0
 16 12  1  0
 17 19  1  0
 17 15  1  0
 18 17  2  0
M  END
$$$$
