CTA.pdb
     RDKit          3D

 19 18  0  0  1  0  0  0  0  0999 V2000
    8.4780  -16.5259   15.9860 N   0  0  0  0  0  0  0  0  0  0  0  0
    7.7819  -16.7413   17.2392 C   0  0  1  0  0  0  0  0  0  0  0  0
    7.5398  -18.2058   17.5205 C   0  0  0  0  0  0  0  0  0  0  0  0
    6.7998  -19.0420   16.0918 S   0  0  0  0  0  0  0  0  0  0  0  0
    8.6239  -16.2212   18.3590 C   0  0  0  0  0  0  0  0  0  0  0  0
    9.8682  -16.1193   18.2159 O   0  0  0  0  0  0  0  0  0  0  0  0
    7.4025  -13.1336   20.5314 C   0  0  0  0  0  0  0  0  0  0  0  0
    7.8448  -14.2855   21.3734 C   0  0  1  0  0  0  0  0  0  0  0  0
    6.6963  -15.0546   21.6234 O   0  0  0  0  0  0  0  0  0  0  0  0
    8.8175  -15.2257   20.6787 C   0  0  2  0  0  0  0  0  0  0  0  0
    8.0254  -15.8395   19.5894 N   0  0  0  0  0  0  0  0  0  0  0  0
    9.3116  -16.2843   21.5791 C   0  0  0  0  0  0  0  0  0  0  0  0
    8.6634  -17.3741   21.6624 O   0  0  0  0  0  0  0  0  0  0  0  0
   12.1405  -17.9093   22.7210 C   0  0  0  0  0  0  0  0  0  0  0  0
   10.8786  -17.2615   23.2852 C   0  0  2  0  0  0  0  0  0  0  0  0
   10.4695  -16.1990   22.3775 N   0  0  0  0  0  0  0  0  0  0  0  0
   11.1280  -16.7437   24.6380 C   0  0  0  0  0  0  0  0  0  0  0  0
   11.1173  -15.4972   24.8043 O   0  0  0  0  0  0  0  0  0  0  0  0
   11.3757  -17.5296   25.7512 O   0  0  0  0  0  0  0  0  0  0  0  0
  2  1  1  6
  3  2  1  0
  4  3  1  0
  5  2  1  0
  6  5  2  0
  8  7  1  6
  8 10  1  0
  9  8  1  0
 10 12  1  0
 10 11  1  6
 11  5  1  0
 12 13  2  0
 15 14  1  6
 16 15  1  0
 16 12  1  0
 17 19  1  0
 17 15  1  0
 18 17  2  0
M  END
$$$$
