CTA.pdb
     RDKit          3D

 19 18  0  0  1  0  0  0  0  0999 V2000
    9.4957  -15.1747   15.3778 N   0  0  0  0  0  0  0  0  0  0  0  0
    8.9637  -15.9041   16.5119 C   0  0  1  0  0  0  0  0  0  0  0  0
    9.4115  -17.3469   16.5317 C   0  0  0  0  0  0  0  0  0  0  0  0
   11.2171  -17.4822   16.4343 S   0  0  0  0  0  0  0  0  0  0  0  0
    9.4683  -15.2793   17.7723 C   0  0  0  0  0  0  0  0  0  0  0  0
   10.5685  -14.6720   17.7769 O   0  0  0  0  0  0  0  0  0  0  0  0
    7.4675  -12.9278   19.9316 C   0  0  0  0  0  0  0  0  0  0  0  0
    7.9671  -14.0416   20.7926 C   0  0  1  0  0  0  0  0  0  0  0  0
    6.9458  -15.0055   20.8220 O   0  0  0  0  0  0  0  0  0  0  0  0
    9.1853  -14.7604   20.2340 C   0  0  2  0  0  0  0  0  0  0  0  0
    8.7103  -15.3672   18.9703 N   0  0  0  0  0  0  0  0  0  0  0  0
    9.6688  -15.8239   21.1345 C   0  0  0  0  0  0  0  0  0  0  0  0
    9.0865  -16.9533   21.1222 O   0  0  0  0  0  0  0  0  0  0  0  0
   12.5334  -16.5088   23.4456 C   0  0  0  0  0  0  0  0  0  0  0  0
   11.0952  -16.7425   22.9899 C   0  0  2  0  0  0  0  0  0  0  0  0
   10.7482  -15.7022   22.0320 N   0  0  0  0  0  0  0  0  0  0  0  0
   10.1836  -16.7346   24.1428 C   0  0  0  0  0  0  0  0  0  0  0  0
   10.3146  -17.6406   25.0052 O   0  0  0  0  0  0  0  0  0  0  0  0
    9.1844  -15.7990   24.3531 O   0  0  0  0  0  0  0  0  0  0  0  0
  2  1  1  6
  3  2  1  0
  4  3  1  0
  5  2  1  0
  6  5  2  0
  8  7  1  6
  8 10  1  0
  9  8  1  0
 10 12  1  0
 10 11  1  6
 11  5  1  0
 12 13  2  0
 15 14  1  1
 16 15  1  0
 16 12  1  0
 17 19  1  0
 17 15  1  0
 18 17  2  0
M  END
$$$$
