CTA.pdb
     RDKit          3D

 19 18  0  0  1  0  0  0  0  0999 V2000
    7.7373  -13.2867   19.3135 N   0  0  0  0  0  0  0  0  0  0  0  0
    7.1567  -14.1363   20.3345 C   0  0  1  0  0  0  0  0  0  0  0  0
    7.0868  -15.5844   19.9091 C   0  0  0  0  0  0  0  0  0  0  0  0
    8.7296  -16.2368   19.5049 S   0  0  0  0  0  0  0  0  0  0  0  0
    8.0171  -14.0872   21.5554 C   0  0  0  0  0  0  0  0  0  0  0  0
    9.1925  -13.6491   21.4797 O   0  0  0  0  0  0  0  0  0  0  0  0
    6.8033  -12.6077   24.8880 C   0  0  0  0  0  0  0  0  0  0  0  0
    7.3401  -13.9843   25.1080 C   0  0  1  0  0  0  0  0  0  0  0  0
    6.2431  -14.8558   25.0067 O   0  0  0  0  0  0  0  0  0  0  0  0
    8.3226  -14.4458   24.0429 C   0  0  2  0  0  0  0  0  0  0  0  0
    7.5140  -14.5341   22.8063 N   0  0  0  0  0  0  0  0  0  0  0  0
    8.8956  -15.7704   24.3469 C   0  0  0  0  0  0  0  0  0  0  0  0
    8.2660  -16.8123   23.9825 O   0  0  0  0  0  0  0  0  0  0  0  0
   12.1269  -17.3282   25.0213 C   0  0  0  0  0  0  0  0  0  0  0  0
   10.6247  -17.3312   25.2932 C   0  0  2  0  0  0  0  0  0  0  0  0
   10.1120  -15.9958   25.0217 N   0  0  0  0  0  0  0  0  0  0  0  0
   10.3547  -17.7371   26.6798 C   0  0  0  0  0  0  0  0  0  0  0  0
    9.8514  -16.8858   27.4567 O   0  0  0  0  0  0  0  0  0  0  0  0
   10.6140  -18.9944   27.1994 O   0  0  0  0  0  0  0  0  0  0  0  0
  2  1  1  6
  3  2  1  0
  4  3  1  0
  5  2  1  0
  6  5  2  0
  8  7  1  6
  8 10  1  0
  9  8  1  0
 10 12  1  0
 10 11  1  6
 11  5  1  0
 12 13  2  0
 15 14  1  1
 16 15  1  0
 16 12  1  0
 17 19  1  0
 17 15  1  0
 18 17  2  0
M  END
$$$$
