VLQ.pdb
     RDKit          3D

 25 24  0  0  1  0  0  0  0  0999 V2000
   21.7164  -20.5082  -16.1429 C   0  0  0  0  0  0  0  0  0  0  0  0
   20.6178  -20.7208  -15.1298 C   0  0  1  0  0  0  0  0  0  0  0  0
   19.4531  -21.4702  -15.6903 C   0  0  0  0  0  0  0  0  0  0  0  0
   21.1962  -21.3541  -13.8969 C   0  0  2  0  0  0  0  0  0  0  0  0
   20.2032  -21.5651  -12.8855 N   0  0  0  0  0  0  0  0  0  0  0  0
   22.3312  -20.5167  -13.4033 C   0  0  0  0  0  0  0  0  0  0  0  0
   22.1057  -19.4354  -12.8263 O   0  0  0  0  0  0  0  0  0  0  0  0
   26.4604  -22.5356  -10.5684 C   0  0  0  0  0  0  0  0  0  0  0  0
   25.3487  -21.5512  -11.0453 C   0  0  1  0  0  0  0  0  0  0  0  0
   25.2975  -20.4978   -9.9400 C   0  0  0  0  0  0  0  0  0  0  0  0
   25.7282  -21.0376  -12.3785 C   0  0  0  0  0  0  0  0  0  0  0  0
   24.8078  -20.0844  -13.0147 C   0  0  2  0  0  0  0  0  0  0  0  0
   23.6655  -20.9273  -13.5781 N   0  0  0  0  0  0  0  0  0  0  0  0
   25.2896  -19.3731  -14.1867 C   0  0  0  0  0  0  0  0  0  0  0  0
   25.4092  -20.0457  -15.2839 O   0  0  0  0  0  0  0  0  0  0  0  0
   27.3351  -13.4030  -15.2014 N   0  0  0  0  0  0  0  0  0  0  0  0
   27.1127  -13.8861  -16.5144 C   0  0  0  0  0  0  0  0  0  0  0  0
   27.1262  -13.1613  -17.5141 O   0  0  0  0  0  0  0  0  0  0  0  0
   26.8446  -15.3703  -16.6989 C   0  0  0  0  0  0  0  0  0  0  0  0
   26.4753  -15.9881  -15.3856 C   0  0  0  0  0  0  0  0  0  0  0  0
   26.1657  -17.4529  -15.5652 C   0  0  2  0  0  0  0  0  0  0  0  0
   25.6469  -18.0122  -14.3254 N   0  0  0  0  0  0  0  0  0  0  0  0
   27.2697  -18.1546  -16.1732 C   0  0  0  0  0  0  0  0  0  0  0  0
   27.4211  -18.4876  -17.5114 O   0  0  0  0  0  0  0  0  0  0  0  0
   28.2432  -18.5352  -15.4286 O   0  0  0  0  0  0  0  0  0  0  0  0
  2  1  1  6
  2  3  1  0
  4  2  1  0
  4  5  1  1
  6  4  1  0
  6  7  2  0
  9 11  1  0
  9  8  1  1
 10  9  1  0
 12 11  1  6
 12 13  1  0
 13  6  1  0
 14 12  1  0
 15 14  2  0
 17 16  1  0
 17 18  2  0
 19 20  1  0
 19 17  1  0
 21 20  1  1
 21 23  1  0
 21 22  1  0
 22 14  1  0
 23 24  1  0
 25 23  2  0
M  END
$$$$
