VLQ.pdb
     RDKit          3D

 25 24  0  0  1  0  0  0  0  0999 V2000
   23.9609  -23.5188  -17.9574 C   0  0  0  0  0  0  0  0  0  0  0  0
   24.6718  -24.7959  -17.5803 C   0  0  1  0  0  0  0  0  0  0  0  0
   25.1140  -25.5832  -18.7706 C   0  0  0  0  0  0  0  0  0  0  0  0
   25.7885  -24.4789  -16.6273 C   0  0  2  0  0  0  0  0  0  0  0  0
   26.4977  -25.6559  -16.2210 N   0  0  0  0  0  0  0  0  0  0  0  0
   25.2368  -23.7251  -15.4609 C   0  0  0  0  0  0  0  0  0  0  0  0
   24.5941  -24.3237  -14.5769 O   0  0  0  0  0  0  0  0  0  0  0  0
   28.3613  -19.8594  -13.1555 C   0  0  0  0  0  0  0  0  0  0  0  0
   27.4444  -21.0988  -13.3922 C   0  0  1  0  0  0  0  0  0  0  0  0
   27.4520  -21.8190  -12.0450 C   0  0  0  0  0  0  0  0  0  0  0  0
   26.1189  -20.6146  -13.8327 C   0  0  0  0  0  0  0  0  0  0  0  0
   25.0710  -21.6254  -14.0344 C   0  0  2  0  0  0  0  0  0  0  0  0
   25.4295  -22.3369  -15.3374 N   0  0  0  0  0  0  0  0  0  0  0  0
   23.7232  -21.1465  -14.2908 C   0  0  0  0  0  0  0  0  0  0  0  0
   23.5399  -20.4195  -15.3437 O   0  0  0  0  0  0  0  0  0  0  0  0
   18.4600  -23.8852  -14.5307 N   0  0  0  0  0  0  0  0  0  0  0  0
   18.9307  -23.7216  -13.2046 C   0  0  0  0  0  0  0  0  0  0  0  0
   18.6094  -24.4681  -12.2750 O   0  0  0  0  0  0  0  0  0  0  0  0
   19.8778  -22.5693  -12.9146 C   0  0  0  0  0  0  0  0  0  0  0  0
   20.2486  -21.8811  -14.1919 C   0  0  0  0  0  0  0  0  0  0  0  0
   21.2545  -20.7899  -13.9253 C   0  0  2  0  0  0  0  0  0  0  0  0
   22.5373  -21.3693  -13.5539 N   0  0  0  0  0  0  0  0  0  0  0  0
   20.7216  -19.7873  -13.0356 C   0  0  0  0  0  0  0  0  0  0  0  0
   19.6482  -18.9399  -13.2687 O   0  0  0  0  0  0  0  0  0  0  0  0
   21.2740  -19.6245  -11.8888 O   0  0  0  0  0  0  0  0  0  0  0  0
  2  1  1  6
  2  3  1  0
  4  2  1  0
  4  5  1  1
  6  4  1  0
  6  7  2  0
  9 11  1  0
  9  8  1  1
 10  9  1  0
 12 11  1  6
 12 13  1  0
 13  6  1  0
 14 12  1  0
 15 14  2  0
 17 16  1  0
 17 18  2  0
 19 20  1  0
 19 17  1  0
 21 20  1  1
 21 23  1  0
 21 22  1  0
 22 14  1  0
 23 24  1  0
 25 23  2  0
M  END
$$$$
