VLQ.pdb
     RDKit          3D

 25 24  0  0  1  0  0  0  0  0999 V2000
   22.1185  -22.6226  -13.3308 C   0  0  0  0  0  0  0  0  0  0  0  0
   21.0512  -21.6828  -12.8246 C   0  0  1  0  0  0  0  0  0  0  0  0
   19.6807  -22.2731  -12.8976 C   0  0  0  0  0  0  0  0  0  0  0  0
   21.4221  -21.2060  -11.4496 C   0  0  2  0  0  0  0  0  0  0  0  0
   20.4258  -20.3378  -10.8956 N   0  0  0  0  0  0  0  0  0  0  0  0
   22.7665  -20.5556  -11.5035 C   0  0  0  0  0  0  0  0  0  0  0  0
   22.8997  -19.4389  -12.0403 O   0  0  0  0  0  0  0  0  0  0  0  0
   26.6683  -21.0014   -7.4928 C   0  0  0  0  0  0  0  0  0  0  0  0
   25.6822  -20.4159   -8.5499 C   0  0  1  0  0  0  0  0  0  0  0  0
   25.8894  -18.9061   -8.4429 C   0  0  0  0  0  0  0  0  0  0  0  0
   26.0174  -20.9993   -9.8662 C   0  0  0  0  0  0  0  0  0  0  0  0
   25.2650  -20.5046  -11.0280 C   0  0  2  0  0  0  0  0  0  0  0  0
   23.8992  -21.1843  -10.9547 N   0  0  0  0  0  0  0  0  0  0  0  0
   25.7439  -20.8883  -12.3451 C   0  0  0  0  0  0  0  0  0  0  0  0
   25.7527  -22.1486  -12.6316 O   0  0  0  0  0  0  0  0  0  0  0  0
   25.1731  -18.2096  -17.8756 N   0  0  0  0  0  0  0  0  0  0  0  0
   25.3855  -19.5774  -18.1772 C   0  0  0  0  0  0  0  0  0  0  0  0
   25.2323  -20.0538  -19.3061 O   0  0  0  0  0  0  0  0  0  0  0  0
   25.8237  -20.5019  -17.0538 C   0  0  0  0  0  0  0  0  0  0  0  0
   26.0528  -19.7106  -15.8031 C   0  0  0  0  0  0  0  0  0  0  0  0
   26.5770  -20.6041  -14.7074 C   0  0  2  0  0  0  0  0  0  0  0  0
   26.2038  -20.0727  -13.4045 N   0  0  0  0  0  0  0  0  0  0  0  0
   27.9736  -20.9102  -14.8995 C   0  0  0  0  0  0  0  0  0  0  0  0
   28.5127  -21.9614  -15.6268 O   0  0  0  0  0  0  0  0  0  0  0  0
   28.8518  -20.1521  -14.3510 O   0  0  0  0  0  0  0  0  0  0  0  0
  2  1  1  1
  2  3  1  0
  4  2  1  0
  4  5  1  6
  6  4  1  0
  6  7  2  0
  9 11  1  0
  9  8  1  1
 10  9  1  0
 12 11  1  1
 12 13  1  0
 13  6  1  0
 14 12  1  0
 15 14  2  0
 17 16  1  0
 17 18  2  0
 19 20  1  0
 19 17  1  0
 21 20  1  6
 21 23  1  0
 21 22  1  0
 22 14  1  0
 23 24  1  0
 25 23  2  0
M  END
$$$$
