VLQ.pdb
     RDKit          3D

 25 24  0  0  1  0  0  0  0  0999 V2000
   19.5028  -11.0918  -18.6307 C   0  0  0  0  0  0  0  0  0  0  0  0
   19.4629  -12.4545  -17.9825 C   0  0  1  0  0  0  0  0  0  0  0  0
   18.7037  -13.4558  -18.7908 C   0  0  0  0  0  0  0  0  0  0  0  0
   20.8629  -12.8898  -17.6570 C   0  0  2  0  0  0  0  0  0  0  0  0
   20.8995  -14.2121  -17.1061 N   0  0  0  0  0  0  0  0  0  0  0  0
   21.4882  -11.8843  -16.7453 C   0  0  0  0  0  0  0  0  0  0  0  0
   21.1336  -11.8159  -15.5527 O   0  0  0  0  0  0  0  0  0  0  0  0
   26.8432  -10.5523  -16.4649 C   0  0  0  0  0  0  0  0  0  0  0  0
   25.4029  -10.7754  -15.9095 C   0  0  1  0  0  0  0  0  0  0  0  0
   25.5477  -10.5183  -14.4106 C   0  0  0  0  0  0  0  0  0  0  0  0
   24.4884   -9.8526  -16.6147 C   0  0  0  0  0  0  0  0  0  0  0  0
   23.0602   -9.9396  -16.2782 C   0  0  2  0  0  0  0  0  0  0  0  0
   22.4809  -11.0021  -17.2099 N   0  0  0  0  0  0  0  0  0  0  0  0
   22.2357   -8.7778  -16.5646 C   0  0  0  0  0  0  0  0  0  0  0  0
   21.7608   -8.6653  -17.7615 O   0  0  0  0  0  0  0  0  0  0  0  0
   16.2294   -5.9272  -17.3492 N   0  0  0  0  0  0  0  0  0  0  0  0
   17.3642   -6.7695  -17.4469 C   0  0  0  0  0  0  0  0  0  0  0  0
   17.3013   -7.9534  -17.7923 O   0  0  0  0  0  0  0  0  0  0  0  0
   18.7253   -6.1844  -17.1092 C   0  0  0  0  0  0  0  0  0  0  0  0
   19.6210   -7.2568  -16.5703 C   0  0  0  0  0  0  0  0  0  0  0  0
   20.9333   -6.6655  -16.1210 C   0  0  2  0  0  0  0  0  0  0  0  0
   21.8453   -7.7224  -15.7086 N   0  0  0  0  0  0  0  0  0  0  0  0
   20.7327   -5.5886  -15.1824 C   0  0  0  0  0  0  0  0  0  0  0  0
   20.3511   -4.2852  -15.4655 O   0  0  0  0  0  0  0  0  0  0  0  0
   20.9199   -5.8166  -13.9335 O   0  0  0  0  0  0  0  0  0  0  0  0
  2  1  1  6
  2  3  1  0
  4  2  1  0
  4  5  1  1
  6  4  1  0
  6  7  2  0
  9 11  1  0
  9  8  1  6
 10  9  1  0
 12 11  1  6
 12 13  1  0
 13  6  1  0
 14 12  1  0
 15 14  2  0
 17 16  1  0
 17 18  2  0
 19 20  1  0
 19 17  1  0
 21 20  1  1
 21 23  1  0
 21 22  1  0
 22 14  1  0
 23 24  1  0
 25 23  2  0
M  END
$$$$
