VLQ.pdb
     RDKit          3D

 25 24  0  0  1  0  0  0  0  0999 V2000
   18.4250  -10.6324  -20.1389 C   0  0  0  0  0  0  0  0  0  0  0  0
   17.6084  -11.8259  -19.7061 C   0  0  1  0  0  0  0  0  0  0  0  0
   16.9413  -12.5147  -20.8518 C   0  0  0  0  0  0  0  0  0  0  0  0
   18.4664  -12.7401  -18.8791 C   0  0  2  0  0  0  0  0  0  0  0  0
   17.7619  -13.9225  -18.4805 N   0  0  0  0  0  0  0  0  0  0  0  0
   19.0000  -11.9824  -17.7068 C   0  0  0  0  0  0  0  0  0  0  0  0
   18.3042  -11.8445  -16.6822 O   0  0  0  0  0  0  0  0  0  0  0  0
   22.4997  -11.0197  -13.9116 C   0  0  0  0  0  0  0  0  0  0  0  0
   23.0813  -10.6556  -15.3122 C   0  0  1  0  0  0  0  0  0  0  0  0
   24.5130  -11.1861  -15.2602 C   0  0  0  0  0  0  0  0  0  0  0  0
   22.2235  -11.2766  -16.3435 C   0  0  0  0  0  0  0  0  0  0  0  0
   20.8591  -10.7485  -16.4851 C   0  0  2  0  0  0  0  0  0  0  0  0
   20.2868  -11.4142  -17.7349 N   0  0  0  0  0  0  0  0  0  0  0  0
   20.7194   -9.3332  -16.7830 C   0  0  0  0  0  0  0  0  0  0  0  0
   21.1797   -8.9151  -17.9162 O   0  0  0  0  0  0  0  0  0  0  0  0
   16.3205   -5.4224  -17.1458 N   0  0  0  0  0  0  0  0  0  0  0  0
   16.9237   -6.1524  -18.1993 C   0  0  0  0  0  0  0  0  0  0  0  0
   16.3701   -6.3596  -19.2835 O   0  0  0  0  0  0  0  0  0  0  0  0
   18.3216   -6.7068  -17.9818 C   0  0  0  0  0  0  0  0  0  0  0  0
   18.7973   -6.3626  -16.6041 C   0  0  0  0  0  0  0  0  0  0  0  0
   20.1875   -6.9020  -16.3806 C   0  0  2  0  0  0  0  0  0  0  0  0
   20.1268   -8.3085  -16.0099 N   0  0  0  0  0  0  0  0  0  0  0  0
   20.9537   -6.0420  -15.5122 C   0  0  0  0  0  0  0  0  0  0  0  0
   21.5226   -6.3706  -14.2904 O   0  0  0  0  0  0  0  0  0  0  0  0
   21.1541   -4.8259  -15.8696 O   0  0  0  0  0  0  0  0  0  0  0  0
  2  1  1  6
  2  3  1  0
  4  2  1  0
  4  5  1  1
  6  4  1  0
  6  7  2  0
  9 11  1  0
  9  8  1  1
 10  9  1  0
 12 11  1  6
 12 13  1  0
 13  6  1  0
 14 12  1  0
 15 14  2  0
 17 16  1  0
 17 18  2  0
 19 20  1  0
 19 17  1  0
 21 20  1  1
 21 23  1  0
 21 22  1  0
 22 14  1  0
 23 24  1  0
 25 23  2  0
M  END
$$$$
