VLQ.pdb
     RDKit          3D

 25 24  0  0  1  0  0  0  0  0999 V2000
   19.1715  -23.0854  -14.0646 C   0  0  0  0  0  0  0  0  0  0  0  0
   20.2827  -22.1210  -14.4017 C   0  0  1  0  0  0  0  0  0  0  0  0
   19.8743  -21.1013  -15.4144 C   0  0  0  0  0  0  0  0  0  0  0  0
   20.8193  -21.5202  -13.1342 C   0  0  2  0  0  0  0  0  0  0  0  0
   19.8101  -20.8064  -12.4093 N   0  0  0  0  0  0  0  0  0  0  0  0
   21.9932  -20.6554  -13.4615 C   0  0  0  0  0  0  0  0  0  0  0  0
   21.8426  -19.4276  -13.6121 O   0  0  0  0  0  0  0  0  0  0  0  0
   27.2826  -19.1811  -13.3702 C   0  0  0  0  0  0  0  0  0  0  0  0
   26.9723  -20.6380  -13.8327 C   0  0  1  0  0  0  0  0  0  0  0  0
   28.1399  -21.4519  -13.2774 C   0  0  0  0  0  0  0  0  0  0  0  0
   25.6434  -21.0158  -13.3068 C   0  0  0  0  0  0  0  0  0  0  0  0
   24.4819  -20.2904  -13.8412 C   0  0  2  0  0  0  0  0  0  0  0  0
   23.2809  -21.2038  -13.6050 N   0  0  0  0  0  0  0  0  0  0  0  0
   24.4378  -20.0672  -15.2764 C   0  0  0  0  0  0  0  0  0  0  0  0
   24.2269  -21.0941  -16.0324 O   0  0  0  0  0  0  0  0  0  0  0  0
   23.0393  -15.0605  -18.7654 N   0  0  0  0  0  0  0  0  0  0  0  0
   23.3029  -16.0146  -19.7787 C   0  0  0  0  0  0  0  0  0  0  0  0
   23.1704  -15.7775  -20.9833 O   0  0  0  0  0  0  0  0  0  0  0  0
   23.7719  -17.3979  -19.3598 C   0  0  0  0  0  0  0  0  0  0  0  0
   23.9103  -17.4590  -17.8698 C   0  0  0  0  0  0  0  0  0  0  0  0
   24.4753  -18.7929  -17.4513 C   0  0  2  0  0  0  0  0  0  0  0  0
   24.5794  -18.8613  -16.0009 N   0  0  0  0  0  0  0  0  0  0  0  0
   25.6671  -19.1180  -18.1961 C   0  0  0  0  0  0  0  0  0  0  0  0
   25.7597  -19.9057  -19.3344 O   0  0  0  0  0  0  0  0  0  0  0  0
   26.7920  -18.6491  -17.7945 O   0  0  0  0  0  0  0  0  0  0  0  0
  2  1  1  1
  2  3  1  0
  4  2  1  0
  4  5  1  6
  6  4  1  0
  6  7  2  0
  9 11  1  0
  9  8  1  1
 10  9  1  0
 12 11  1  6
 12 13  1  0
 13  6  1  0
 14 12  1  0
 15 14  2  0
 17 16  1  0
 17 18  2  0
 19 20  1  0
 19 17  1  0
 21 20  1  1
 21 23  1  0
 21 22  1  0
 22 14  1  0
 23 24  1  0
 25 23  2  0
M  END
$$$$
