VLQ.pdb
     RDKit          3D

 25 24  0  0  1  0  0  0  0  0999 V2000
   16.6133  -11.4264  -11.6180 C   0  0  0  0  0  0  0  0  0  0  0  0
   15.3233  -11.9674  -12.1855 C   0  0  1  0  0  0  0  0  0  0  0  0
   14.7332  -13.0523  -11.3447 C   0  0  0  0  0  0  0  0  0  0  0  0
   14.3773  -10.8288  -12.4390 C   0  0  2  0  0  0  0  0  0  0  0  0
   13.0928  -11.2861  -12.8797 N   0  0  0  0  0  0  0  0  0  0  0  0
   15.0008   -9.8824  -13.4131 C   0  0  0  0  0  0  0  0  0  0  0  0
   15.0614  -10.1791  -14.6218 O   0  0  0  0  0  0  0  0  0  0  0  0
   13.5246   -4.7563  -14.1866 C   0  0  0  0  0  0  0  0  0  0  0  0
   14.1519   -6.1114  -14.6371 C   0  0  1  0  0  0  0  0  0  0  0  0
   14.4989   -5.8803  -16.1068 C   0  0  0  0  0  0  0  0  0  0  0  0
   15.3078   -6.3984  -13.7615 C   0  0  0  0  0  0  0  0  0  0  0  0
   16.0467   -7.6433  -14.0161 C   0  0  2  0  0  0  0  0  0  0  0  0
   15.5276   -8.6483  -12.9899 N   0  0  0  0  0  0  0  0  0  0  0  0
   17.4771   -7.6338  -13.7606 C   0  0  0  0  0  0  0  0  0  0  0  0
   17.8622   -7.4792  -12.5364 O   0  0  0  0  0  0  0  0  0  0  0  0
   22.1693  -10.9199  -15.9348 N   0  0  0  0  0  0  0  0  0  0  0  0
   22.8136  -10.1911  -14.9050 C   0  0  0  0  0  0  0  0  0  0  0  0
   23.9604  -10.4356  -14.5176 O   0  0  0  0  0  0  0  0  0  0  0  0
   22.0535   -9.0524  -14.2459 C   0  0  0  0  0  0  0  0  0  0  0  0
   20.6678   -8.9723  -14.8083 C   0  0  0  0  0  0  0  0  0  0  0  0
   19.9460   -7.7711  -14.2518 C   0  0  2  0  0  0  0  0  0  0  0  0
   18.5509   -7.7865  -14.6676 N   0  0  0  0  0  0  0  0  0  0  0  0
   20.6770   -6.5532  -14.5033 C   0  0  0  0  0  0  0  0  0  0  0  0
   21.6077   -5.9436  -13.6746 O   0  0  0  0  0  0  0  0  0  0  0  0
   20.4727   -5.9281  -15.6052 O   0  0  0  0  0  0  0  0  0  0  0  0
  2  1  1  1
  2  3  1  0
  4  2  1  0
  4  5  1  6
  6  4  1  0
  6  7  2  0
  9 11  1  0
  9  8  1  1
 10  9  1  0
 12 11  1  1
 12 13  1  0
 13  6  1  0
 14 12  1  0
 15 14  2  0
 17 16  1  0
 17 18  2  0
 19 20  1  0
 19 17  1  0
 21 20  1  6
 21 23  1  0
 21 22  1  0
 22 14  1  0
 23 24  1  0
 25 23  2  0
M  END
$$$$
