VLQ.pdb
     RDKit          3D

 25 24  0  0  1  0  0  0  0  0999 V2000
   17.7697   -8.5713  -18.4592 C   0  0  0  0  0  0  0  0  0  0  0  0
   16.6097   -9.4589  -18.0781 C   0  0  1  0  0  0  0  0  0  0  0  0
   15.6462   -9.6634  -19.2015 C   0  0  0  0  0  0  0  0  0  0  0  0
   17.1357  -10.7427  -17.5032 C   0  0  2  0  0  0  0  0  0  0  0  0
   16.0799  -11.6087  -17.0687 N   0  0  0  0  0  0  0  0  0  0  0  0
   18.0939  -10.4284  -16.4003 C   0  0  0  0  0  0  0  0  0  0  0  0
   17.6679  -10.1400  -15.2653 O   0  0  0  0  0  0  0  0  0  0  0  0
   23.4882  -12.4540  -14.8253 C   0  0  0  0  0  0  0  0  0  0  0  0
   22.5655  -11.2230  -14.5688 C   0  0  1  0  0  0  0  0  0  0  0  0
   23.5109  -10.0290  -14.6890 C   0  0  0  0  0  0  0  0  0  0  0  0
   21.4701  -11.2529  -15.5610 C   0  0  0  0  0  0  0  0  0  0  0  0
   20.4462  -10.2032  -15.4585 C   0  0  2  0  0  0  0  0  0  0  0  0
   19.4837  -10.4513  -16.6181 N   0  0  0  0  0  0  0  0  0  0  0  0
   20.8721   -8.8322  -15.6829 C   0  0  0  0  0  0  0  0  0  0  0  0
   21.4506   -8.5650  -16.8075 O   0  0  0  0  0  0  0  0  0  0  0  0
   18.0948   -4.3371  -16.9040 N   0  0  0  0  0  0  0  0  0  0  0  0
   18.1806   -4.2633  -15.4919 C   0  0  0  0  0  0  0  0  0  0  0  0
   17.3436   -3.6854  -14.7918 O   0  0  0  0  0  0  0  0  0  0  0  0
   19.3625   -4.9293  -14.8074 C   0  0  0  0  0  0  0  0  0  0  0  0
   20.2719   -5.5318  -15.8334 C   0  0  0  0  0  0  0  0  0  0  0  0
   21.3070   -6.4031  -15.1678 C   0  0  2  0  0  0  0  0  0  0  0  0
   20.7364   -7.7025  -14.8437 N   0  0  0  0  0  0  0  0  0  0  0  0
   21.9696   -5.7069  -14.0921 C   0  0  0  0  0  0  0  0  0  0  0  0
   22.7988   -4.5991  -14.1909 O   0  0  0  0  0  0  0  0  0  0  0  0
   21.8033   -6.1273  -12.8911 O   0  0  0  0  0  0  0  0  0  0  0  0
  2  1  1  6
  2  3  1  0
  4  2  1  0
  4  5  1  1
  6  4  1  0
  6  7  2  0
  9 11  1  0
  9  8  1  6
 10  9  1  0
 12 11  1  6
 12 13  1  0
 13  6  1  0
 14 12  1  0
 15 14  2  0
 17 16  1  0
 17 18  2  0
 19 20  1  0
 19 17  1  0
 21 20  1  1
 21 23  1  0
 21 22  1  0
 22 14  1  0
 23 24  1  0
 25 23  2  0
M  END
$$$$
