VLQ.pdb
     RDKit          3D

 25 24  0  0  1  0  0  0  0  0999 V2000
   23.2145  -16.5171  -19.3514 C   0  0  0  0  0  0  0  0  0  0  0  0
   21.9444  -16.4871  -18.5361 C   0  0  1  0  0  0  0  0  0  0  0  0
   20.7384  -16.1684  -19.3583 C   0  0  0  0  0  0  0  0  0  0  0  0
   21.8189  -17.7708  -17.7667 C   0  0  2  0  0  0  0  0  0  0  0  0
   21.7545  -18.9111  -18.6320 N   0  0  0  0  0  0  0  0  0  0  0  0
   20.6326  -17.6847  -16.8620 C   0  0  0  0  0  0  0  0  0  0  0  0
   19.5435  -18.1804  -17.2101 O   0  0  0  0  0  0  0  0  0  0  0  0
   20.3118  -18.6592  -11.4403 C   0  0  0  0  0  0  0  0  0  0  0  0
   19.8342  -18.5911  -12.9235 C   0  0  1  0  0  0  0  0  0  0  0  0
   18.4251  -19.1794  -12.8788 C   0  0  0  0  0  0  0  0  0  0  0  0
   19.9079  -17.1830  -13.3676 C   0  0  0  0  0  0  0  0  0  0  0  0
   19.4732  -16.8915  -14.7411 C   0  0  2  0  0  0  0  0  0  0  0  0
   20.7194  -17.0483  -15.6102 N   0  0  0  0  0  0  0  0  0  0  0  0
   19.0485  -15.5326  -15.0318 C   0  0  0  0  0  0  0  0  0  0  0  0
   19.9379  -14.7169  -15.4946 O   0  0  0  0  0  0  0  0  0  0  0  0
   19.6345  -11.8795  -17.0609 N   0  0  0  0  0  0  0  0  0  0  0  0
   18.4303  -11.5139  -17.7112 C   0  0  0  0  0  0  0  0  0  0  0  0
   18.2698  -10.4296  -18.2798 O   0  0  0  0  0  0  0  0  0  0  0  0
   17.2805  -12.5073  -17.7073 C   0  0  0  0  0  0  0  0  0  0  0  0
   17.7026  -13.7721  -17.0255 C   0  0  0  0  0  0  0  0  0  0  0  0
   17.3997  -13.6973  -15.5502 C   0  0  2  0  0  0  0  0  0  0  0  0
   17.7694  -14.9451  -14.8979 N   0  0  0  0  0  0  0  0  0  0  0  0
   16.0596  -13.2204  -15.3105 C   0  0  0  0  0  0  0  0  0  0  0  0
   15.6674  -11.9213  -15.0224 O   0  0  0  0  0  0  0  0  0  0  0  0
   15.0895  -14.0591  -15.3564 O   0  0  0  0  0  0  0  0  0  0  0  0
  2  1  1  6
  2  3  1  0
  4  2  1  0
  4  5  1  6
  6  4  1  0
  6  7  2  0
  9 11  1  0
  9  8  1  1
 10  9  1  0
 12 11  1  1
 12 13  1  0
 13  6  1  0
 14 12  1  0
 15 14  2  0
 17 16  1  0
 17 18  2  0
 19 20  1  0
 19 17  1  0
 21 20  1  6
 21 23  1  0
 21 22  1  0
 22 14  1  0
 23 24  1  0
 25 23  2  0
M  END
$$$$
