HLG.pdb
     RDKit          3D

 23 23  0  0  1  0  0  0  0  0999 V2000
    7.3657  -15.7144   21.1863 N   0  0  0  0  0  0  0  0  0  0  0  0
    8.5687  -14.9259   21.3438 C   0  0  1  0  0  0  0  0  0  0  0  0
    8.4282  -13.6814   20.5198 C   0  0  0  0  0  0  0  0  0  0  0  0
    8.2371  -14.0995   19.1053 C   0  0  0  0  0  0  0  0  0  0  0  0
    8.2203  -15.3847   18.6072 C   0  0  0  0  0  0  0  0  0  0  0  0
    8.0202  -15.3520   17.2664 N   0  0  0  0  0  0  0  0  0  0  0  0
    7.9116  -14.0564   16.9216 C   0  0  0  0  0  0  0  0  0  0  0  0
    8.0433  -13.2986   18.0374 N   0  0  0  0  0  0  0  0  0  0  0  0
    8.8479  -14.6363   22.7767 C   0  0  0  0  0  0  0  0  0  0  0  0
    9.9084  -14.0682   23.1419 O   0  0  0  0  0  0  0  0  0  0  0  0
    7.8320  -11.6061   26.1238 C   0  0  0  0  0  0  0  0  0  0  0  0
    6.7795  -12.5250   25.6060 C   0  0  2  0  0  0  0  0  0  0  0  0
    5.4641  -12.1381   26.3040 C   0  0  0  0  0  0  0  0  0  0  0  0
    6.9735  -13.9704   25.8664 C   0  0  0  0  0  0  0  0  0  0  0  0
    8.0852  -14.6643   25.1779 C   0  0  2  0  0  0  0  0  0  0  0  0
    7.9224  -14.9907   23.8076 N   0  0  0  0  0  0  0  0  0  0  0  0
    8.5128  -15.8383   25.9628 C   0  0  0  0  0  0  0  0  0  0  0  0
    8.5280  -15.8836   27.2108 O   0  0  0  0  0  0  0  0  0  0  0  0
    8.9384  -17.0024   25.2655 N   0  0  0  0  0  0  0  0  0  0  0  0
    9.2691  -18.2230   25.9752 C   0  0  0  0  0  0  0  0  0  0  0  0
   10.7093  -18.3027   26.2754 C   0  0  0  0  0  0  0  0  0  0  0  0
   11.1804  -19.4286   26.9350 O   0  0  0  0  0  0  0  0  0  0  0  0
   11.4511  -17.3532   25.9244 O   0  0  0  0  0  0  0  0  0  0  0  0
  2  3  1  0
  2  9  1  0
  2  1  1  1
  4  5  2  0
  4  3  1  0
  6  5  1  0
  7  8  2  0
  7  6  1  0
  8  4  1  0
  9 10  2  0
 12 11  1  1
 12 13  1  0
 14 12  1  0
 15 14  1  1
 15 17  1  0
 16 15  1  0
 16  9  1  0
 17 18  2  0
 19 17  1  0
 19 20  1  0
 21 20  1  0
 21 22  1  0
 23 21  2  0
M  END
$$$$
