HLG.pdb
     RDKit          3D

 23 23  0  0  1  0  0  0  0  0999 V2000
    7.9146  -15.9893   21.6520 N   0  0  0  0  0  0  0  0  0  0  0  0
    9.2813  -15.7178   22.0423 C   0  0  1  0  0  0  0  0  0  0  0  0
    9.8520  -14.7093   21.0912 C   0  0  0  0  0  0  0  0  0  0  0  0
    8.7615  -14.2963   20.1681 C   0  0  0  0  0  0  0  0  0  0  0  0
    7.4426  -14.0523   20.4866 C   0  0  0  0  0  0  0  0  0  0  0  0
    6.7612  -13.6978   19.3690 N   0  0  0  0  0  0  0  0  0  0  0  0
    7.6433  -13.7180   18.3538 C   0  0  0  0  0  0  0  0  0  0  0  0
    8.8552  -14.0809   18.8399 N   0  0  0  0  0  0  0  0  0  0  0  0
    9.3668  -15.2797   23.4620 C   0  0  0  0  0  0  0  0  0  0  0  0
   10.4401  -14.8525   23.9585 O   0  0  0  0  0  0  0  0  0  0  0  0
    7.9363  -11.8682   26.3764 C   0  0  0  0  0  0  0  0  0  0  0  0
    6.9192  -12.8393   25.8836 C   0  0  2  0  0  0  0  0  0  0  0  0
    5.5659  -12.4104   26.4769 C   0  0  0  0  0  0  0  0  0  0  0  0
    7.1093  -14.2555   26.2744 C   0  0  0  0  0  0  0  0  0  0  0  0
    8.2626  -14.9907   25.7082 C   0  0  2  0  0  0  0  0  0  0  0  0
    8.2314  -15.3236   24.3302 N   0  0  0  0  0  0  0  0  0  0  0  0
    8.5681  -16.1711   26.5393 C   0  0  0  0  0  0  0  0  0  0  0  0
    8.6269  -16.1579   27.7868 O   0  0  0  0  0  0  0  0  0  0  0  0
    8.8139  -17.4126   25.8907 N   0  0  0  0  0  0  0  0  0  0  0  0
    9.0225  -18.6287   26.6526 C   0  0  0  0  0  0  0  0  0  0  0  0
   10.4535  -18.8713   26.9058 C   0  0  0  0  0  0  0  0  0  0  0  0
   11.0160  -20.0428   26.4199 O   0  0  0  0  0  0  0  0  0  0  0  0
   11.1055  -18.0129   27.5484 O   0  0  0  0  0  0  0  0  0  0  0  0
  2  3  1  0
  2  9  1  0
  2  1  1  6
  4  5  2  0
  4  3  1  0
  6  5  1  0
  7  8  2  0
  7  6  1  0
  8  4  1  0
  9 10  2  0
 12 11  1  1
 12 13  1  0
 14 12  1  0
 15 14  1  1
 15 17  1  0
 16 15  1  0
 16  9  1  0
 17 18  2  0
 19 17  1  0
 19 20  1  0
 21 20  1  0
 21 22  1  0
 23 21  2  0
M  END
$$$$
