HLG.pdb
     RDKit          3D

 23 23  0  0  1  0  0  0  0  0999 V2000
   11.0820  -17.9083   17.0175 N   0  0  0  0  0  0  0  0  0  0  0  0
   10.0688  -17.8270   18.0474 C   0  0  1  0  0  0  0  0  0  0  0  0
    9.9747  -19.1621   18.7228 C   0  0  0  0  0  0  0  0  0  0  0  0
    9.1436  -20.0435   17.8601 C   0  0  0  0  0  0  0  0  0  0  0  0
    8.5564  -19.7227   16.6549 C   0  0  0  0  0  0  0  0  0  0  0  0
    7.8796  -20.7962   16.1769 N   0  0  0  0  0  0  0  0  0  0  0  0
    8.0387  -21.7861   17.0734 C   0  0  0  0  0  0  0  0  0  0  0  0
    8.8051  -21.3282   18.0931 N   0  0  0  0  0  0  0  0  0  0  0  0
   10.3482  -16.7199   19.0019 C   0  0  0  0  0  0  0  0  0  0  0  0
   11.4914  -16.2060   19.1020 O   0  0  0  0  0  0  0  0  0  0  0  0
    8.7265  -12.3690   19.2489 C   0  0  0  0  0  0  0  0  0  0  0  0
    7.8519  -13.4319   19.8195 C   0  0  2  0  0  0  0  0  0  0  0  0
    6.5700  -12.7396   20.3141 C   0  0  0  0  0  0  0  0  0  0  0  0
    8.3882  -14.1812   20.9794 C   0  0  0  0  0  0  0  0  0  0  0  0
    9.5193  -15.1090   20.7530 C   0  0  2  0  0  0  0  0  0  0  0  0
    9.3289  -16.1871   19.8517 N   0  0  0  0  0  0  0  0  0  0  0  0
   10.0566  -15.5772   22.0450 C   0  0  0  0  0  0  0  0  0  0  0  0
   10.3154  -14.8307   23.0122 O   0  0  0  0  0  0  0  0  0  0  0  0
   10.3008  -16.9680   22.2145 N   0  0  0  0  0  0  0  0  0  0  0  0
   10.7166  -17.5060   23.4954 C   0  0  0  0  0  0  0  0  0  0  0  0
   12.1797  -17.4488   23.6585 C   0  0  0  0  0  0  0  0  0  0  0  0
   12.9396  -16.9737   22.5994 O   0  0  0  0  0  0  0  0  0  0  0  0
   12.6801  -17.8303   24.7443 O   0  0  0  0  0  0  0  0  0  0  0  0
  2  3  1  0
  2  9  1  0
  2  1  1  6
  4  5  2  0
  4  3  1  0
  6  5  1  0
  7  8  2  0
  7  6  1  0
  8  4  1  0
  9 10  2  0
 12 11  1  1
 12 13  1  0
 14 12  1  0
 15 14  1  1
 15 17  1  0
 16 15  1  0
 16  9  1  0
 17 18  2  0
 19 17  1  0
 19 20  1  0
 21 20  1  0
 21 22  1  0
 23 21  2  0
M  END
$$$$
