HLG.pdb
     RDKit          3D

 23 23  0  0  1  0  0  0  0  0999 V2000
   14.1005  -14.5295   17.2883 N   0  0  0  0  0  0  0  0  0  0  0  0
   12.8770  -15.2535   17.5579 C   0  0  1  0  0  0  0  0  0  0  0  0
   13.1690  -16.7214   17.4723 C   0  0  0  0  0  0  0  0  0  0  0  0
   12.6637  -17.2033   16.1591 C   0  0  0  0  0  0  0  0  0  0  0  0
   12.0540  -16.4585   15.1723 C   0  0  0  0  0  0  0  0  0  0  0  0
   11.7377  -17.2600   14.1252 N   0  0  0  0  0  0  0  0  0  0  0  0
   12.1446  -18.5004   14.4490 C   0  0  0  0  0  0  0  0  0  0  0  0
   12.7056  -18.4643   15.6821 N   0  0  0  0  0  0  0  0  0  0  0  0
   12.2879  -14.8615   18.8672 C   0  0  0  0  0  0  0  0  0  0  0  0
   13.0055  -14.4875   19.8295 O   0  0  0  0  0  0  0  0  0  0  0  0
    6.8929  -12.5830   20.0010 C   0  0  0  0  0  0  0  0  0  0  0  0
    8.3496  -12.8134   20.2134 C   0  0  2  0  0  0  0  0  0  0  0  0
    9.0817  -12.1901   19.0122 C   0  0  0  0  0  0  0  0  0  0  0  0
    8.7958  -14.2245   20.2797 C   0  0  0  0  0  0  0  0  0  0  0  0
   10.2501  -14.4999   20.3041 C   0  0  2  0  0  0  0  0  0  0  0  0
   10.8763  -14.8915   19.0936 N   0  0  0  0  0  0  0  0  0  0  0  0
   10.5704  -15.4333   21.4011 C   0  0  0  0  0  0  0  0  0  0  0  0
   10.2363  -15.2613   22.5923 O   0  0  0  0  0  0  0  0  0  0  0  0
   11.3076  -16.6108   21.0970 N   0  0  0  0  0  0  0  0  0  0  0  0
   11.5354  -17.6333   22.0997 C   0  0  0  0  0  0  0  0  0  0  0  0
   12.7118  -17.3249   22.9314 C   0  0  0  0  0  0  0  0  0  0  0  0
   13.0371  -18.2002   23.9574 O   0  0  0  0  0  0  0  0  0  0  0  0
   13.3713  -16.2871   22.6807 O   0  0  0  0  0  0  0  0  0  0  0  0
  2  3  1  0
  2  9  1  0
  2  1  1  1
  4  5  2  0
  4  3  1  0
  6  5  1  0
  7  8  2  0
  7  6  1  0
  8  4  1  0
  9 10  2  0
 12 11  1  6
 12 13  1  0
 14 12  1  0
 15 14  1  6
 15 17  1  0
 16 15  1  0
 16  9  1  0
 17 18  2  0
 19 17  1  0
 19 20  1  0
 21 20  1  0
 21 22  1  0
 23 21  2  0
M  END
$$$$
