HLG.pdb
     RDKit          3D

 23 23  0  0  1  0  0  0  0  0999 V2000
   10.7875  -17.7196   17.0857 N   0  0  0  0  0  0  0  0  0  0  0  0
   10.4501  -18.0120   18.4622 C   0  0  1  0  0  0  0  0  0  0  0  0
   11.3227  -19.1365   18.9329 C   0  0  0  0  0  0  0  0  0  0  0  0
   10.8850  -20.3698   18.2264 C   0  0  0  0  0  0  0  0  0  0  0  0
   10.0119  -21.3326   18.6859 C   0  0  0  0  0  0  0  0  0  0  0  0
    9.8679  -22.3025   17.7492 N   0  0  0  0  0  0  0  0  0  0  0  0
   10.6439  -21.9543   16.7073 C   0  0  0  0  0  0  0  0  0  0  0  0
   11.2597  -20.7826   16.9981 N   0  0  0  0  0  0  0  0  0  0  0  0
   10.5618  -16.8015   19.3206 C   0  0  0  0  0  0  0  0  0  0  0  0
   11.5763  -16.0595   19.2884 O   0  0  0  0  0  0  0  0  0  0  0  0
    8.3423  -12.7983   19.2196 C   0  0  0  0  0  0  0  0  0  0  0  0
    7.6036  -13.9197   19.8655 C   0  0  2  0  0  0  0  0  0  0  0  0
    6.2311  -13.3674   20.2881 C   0  0  0  0  0  0  0  0  0  0  0  0
    8.2089  -14.4964   21.0883 C   0  0  0  0  0  0  0  0  0  0  0  0
    9.4979  -15.2132   20.9620 C   0  0  2  0  0  0  0  0  0  0  0  0
    9.5196  -16.4239   20.2240 N   0  0  0  0  0  0  0  0  0  0  0  0
   10.1153  -15.3832   22.2913 C   0  0  0  0  0  0  0  0  0  0  0  0
   10.0149  -14.5597   23.2250 O   0  0  0  0  0  0  0  0  0  0  0  0
   10.8779  -16.5575   22.5404 N   0  0  0  0  0  0  0  0  0  0  0  0
   11.4686  -16.8065   23.8411 C   0  0  0  0  0  0  0  0  0  0  0  0
   12.2394  -18.0620   23.8554 C   0  0  0  0  0  0  0  0  0  0  0  0
   11.8139  -19.0833   24.6924 O   0  0  0  0  0  0  0  0  0  0  0  0
   13.2468  -18.1589   23.1131 O   0  0  0  0  0  0  0  0  0  0  0  0
  2  3  1  0
  2  9  1  0
  2  1  1  6
  4  5  2  0
  4  3  1  0
  6  5  1  0
  7  8  2  0
  7  6  1  0
  8  4  1  0
  9 10  2  0
 12 11  1  1
 12 13  1  0
 14 12  1  0
 15 14  1  1
 15 17  1  0
 16 15  1  0
 16  9  1  0
 17 18  2  0
 19 17  1  0
 19 20  1  0
 21 20  1  0
 21 22  1  0
 23 21  2  0
M  END
$$$$
