HLG.pdb
     RDKit          3D

 23 23  0  0  1  0  0  0  0  0999 V2000
   10.2540  -15.2820   21.2749 N   0  0  0  0  0  0  0  0  0  0  0  0
    8.9650  -15.3763   21.9258 C   0  0  1  0  0  0  0  0  0  0  0  0
    8.3317  -16.6766   21.5316 C   0  0  0  0  0  0  0  0  0  0  0  0
    8.0114  -16.5981   20.0814 C   0  0  0  0  0  0  0  0  0  0  0  0
    8.3629  -15.5987   19.1994 C   0  0  0  0  0  0  0  0  0  0  0  0
    7.8843  -15.8905   17.9646 N   0  0  0  0  0  0  0  0  0  0  0  0
    7.2359  -17.0645   18.0671 C   0  0  0  0  0  0  0  0  0  0  0  0
    7.3139  -17.4920   19.3507 N   0  0  0  0  0  0  0  0  0  0  0  0
    9.0857  -15.2210   23.4009 C   0  0  0  0  0  0  0  0  0  0  0  0
   10.1925  -15.3255   23.9883 O   0  0  0  0  0  0  0  0  0  0  0  0
    7.7883  -11.6283   26.3037 C   0  0  0  0  0  0  0  0  0  0  0  0
    6.7287  -12.5854   25.8776 C   0  0  2  0  0  0  0  0  0  0  0  0
    5.4171  -12.1243   26.5365 C   0  0  0  0  0  0  0  0  0  0  0  0
    6.9133  -14.0004   26.2753 C   0  0  0  0  0  0  0  0  0  0  0  0
    7.9962  -14.7754   25.6287 C   0  0  2  0  0  0  0  0  0  0  0  0
    7.9476  -14.9454   24.2217 N   0  0  0  0  0  0  0  0  0  0  0  0
    8.1775  -16.0662   26.3199 C   0  0  0  0  0  0  0  0  0  0  0  0
    8.2655  -16.1953   27.5591 O   0  0  0  0  0  0  0  0  0  0  0  0
    8.2591  -17.2502   25.5363 N   0  0  0  0  0  0  0  0  0  0  0  0
    8.2285  -18.5620   26.1536 C   0  0  0  0  0  0  0  0  0  0  0  0
    9.5382  -18.9243   26.7229 C   0  0  0  0  0  0  0  0  0  0  0  0
   10.1162  -18.0593   27.6408 O   0  0  0  0  0  0  0  0  0  0  0  0
   10.0781  -19.9966   26.3572 O   0  0  0  0  0  0  0  0  0  0  0  0
  2  3  1  0
  2  9  1  0
  2  1  1  6
  4  5  2  0
  4  3  1  0
  6  5  1  0
  7  8  2  0
  7  6  1  0
  8  4  1  0
  9 10  2  0
 12 11  1  1
 12 13  1  0
 14 12  1  0
 15 14  1  1
 15 17  1  0
 16 15  1  0
 16  9  1  0
 17 18  2  0
 19 17  1  0
 19 20  1  0
 21 20  1  0
 21 22  1  0
 23 21  2  0
M  END
$$$$
