HLG.pdb
     RDKit          3D

 23 23  0  0  1  0  0  0  0  0999 V2000
   10.7048  -15.1723   21.8072 N   0  0  0  0  0  0  0  0  0  0  0  0
    9.3454  -14.8145   22.1507 C   0  0  1  0  0  0  0  0  0  0  0  0
    8.4162  -15.5795   21.2571 C   0  0  0  0  0  0  0  0  0  0  0  0
    8.2027  -14.7661   20.0304 C   0  0  0  0  0  0  0  0  0  0  0  0
    8.7773  -13.5520   19.7205 C   0  0  0  0  0  0  0  0  0  0  0  0
    8.3300  -13.1306   18.5117 N   0  0  0  0  0  0  0  0  0  0  0  0
    7.4801  -14.0715   18.0627 C   0  0  0  0  0  0  0  0  0  0  0  0
    7.4041  -15.0621   18.9844 N   0  0  0  0  0  0  0  0  0  0  0  0
    9.0693  -15.0426   23.5952 C   0  0  0  0  0  0  0  0  0  0  0  0
    9.9245  -15.5602   24.3580 O   0  0  0  0  0  0  0  0  0  0  0  0
    7.9572  -12.0760   27.1390 C   0  0  0  0  0  0  0  0  0  0  0  0
    6.8429  -12.4579   26.2264 C   0  0  2  0  0  0  0  0  0  0  0  0
    5.5767  -11.7558   26.7471 C   0  0  0  0  0  0  0  0  0  0  0  0
    6.5117  -13.8997   26.1502 C   0  0  0  0  0  0  0  0  0  0  0  0
    7.5124  -14.8194   25.5635 C   0  0  2  0  0  0  0  0  0  0  0  0
    7.8172  -14.6839   24.1853 N   0  0  0  0  0  0  0  0  0  0  0  0
    7.1789  -16.2155   25.9052 C   0  0  0  0  0  0  0  0  0  0  0  0
    6.8027  -16.5935   27.0347 O   0  0  0  0  0  0  0  0  0  0  0  0
    7.2883  -17.2071   24.8917 N   0  0  0  0  0  0  0  0  0  0  0  0
    6.8310  -18.5645   25.1177 C   0  0  0  0  0  0  0  0  0  0  0  0
    7.7798  -19.5536   24.5771 C   0  0  0  0  0  0  0  0  0  0  0  0
    7.4585  -20.8987   24.6871 O   0  0  0  0  0  0  0  0  0  0  0  0
    8.8373  -19.1430   24.0405 O   0  0  0  0  0  0  0  0  0  0  0  0
  2  3  1  0
  2  9  1  0
  2  1  1  6
  4  5  2  0
  4  3  1  0
  6  5  1  0
  7  8  2  0
  7  6  1  0
  8  4  1  0
  9 10  2  0
 12 11  1  1
 12 13  1  0
 14 12  1  0
 15 14  1  6
 15 17  1  0
 16 15  1  0
 16  9  1  0
 17 18  2  0
 19 17  1  0
 19 20  1  0
 21 20  1  0
 21 22  1  0
 23 21  2  0
M  END
$$$$
