CCL.pdb
     RDKit          3D

 21 20  0  0  1  0  0  0  0  0999 V2000
   28.7178  -20.4971  -15.1999 N   0  0  0  0  0  0  0  0  0  0  0  0
   27.8655  -19.7649  -14.2977 C   0  0  1  0  0  0  0  0  0  0  0  0
   27.1519  -18.6337  -14.9776 C   0  0  0  0  0  0  0  0  0  0  0  0
   28.3986  -17.4006  -15.4488 S   0  0  0  0  0  0  0  0  0  0  0  0
   26.9395  -20.7255  -13.6432 C   0  0  0  0  0  0  0  0  0  0  0  0
   26.4492  -21.7153  -14.2762 O   0  0  0  0  0  0  0  0  0  0  0  0
   26.5373  -20.6130  -12.2807 N   0  0  0  0  0  0  0  0  0  0  0  0
   25.3438  -21.2092  -11.7682 C   0  0  1  0  0  0  0  0  0  0  0  0
   25.2605  -21.1070  -10.2401 C   0  0  0  0  0  0  0  0  0  0  0  0
   25.7267  -19.4200   -9.7930 S   0  0  0  0  0  0  0  0  0  0  0  0
   24.1082  -20.6415  -12.3290 C   0  0  0  0  0  0  0  0  0  0  0  0
   24.1403  -19.5531  -12.9581 O   0  0  0  0  0  0  0  0  0  0  0  0
   23.4721  -21.3116  -16.1228 C   0  0  0  0  0  0  0  0  0  0  0  0
   22.4596  -20.4551  -15.4019 C   0  0  1  0  0  0  0  0  0  0  0  0
   21.4631  -19.9951  -16.4773 C   0  0  0  0  0  0  0  0  0  0  0  0
   21.7056  -21.2570  -14.4257 C   0  0  0  0  0  0  0  0  0  0  0  0
   21.7048  -20.8503  -13.0058 C   0  0  2  0  0  0  0  0  0  0  0  0
   22.8191  -21.2637  -12.2054 N   0  0  0  0  0  0  0  0  0  0  0  0
   20.4662  -21.3921  -12.3967 C   0  0  0  0  0  0  0  0  0  0  0  0
   20.5314  -22.3583  -11.6127 O   0  0  0  0  0  0  0  0  0  0  0  0
   19.2528  -20.8240  -12.7015 O   0  0  0  0  0  0  0  0  0  0  0  0
  2  1  1  6
  3  2  1  0
  4  3  1  0
  5  2  1  0
  6  5  2  0
  7  5  1  0
  8 11  1  0
  8  7  1  0
  8  9  1  1
 10  9  1  0
 11 12  2  0
 14 13  1  6
 14 15  1  0
 17 16  1  6
 16 14  1  0
 18 17  1  0
 18 11  1  0
 19 21  1  0
 19 17  1  0
 20 19  2  0
M  END
$$$$
