CCL.pdb
     RDKit          3D

 21 20  0  0  1  0  0  0  0  0999 V2000
   17.2667  -15.0719  -16.9154 N   0  0  0  0  0  0  0  0  0  0  0  0
   17.7153  -14.3837  -15.7315 C   0  0  1  0  0  0  0  0  0  0  0  0
   18.9368  -15.0155  -15.1318 C   0  0  0  0  0  0  0  0  0  0  0  0
   18.3979  -16.4745  -14.1948 S   0  0  0  0  0  0  0  0  0  0  0  0
   17.9095  -12.9491  -16.0677 C   0  0  0  0  0  0  0  0  0  0  0  0
   18.4717  -12.5888  -17.1517 O   0  0  0  0  0  0  0  0  0  0  0  0
   17.4884  -11.8866  -15.2166 N   0  0  0  0  0  0  0  0  0  0  0  0
   17.6824  -10.5073  -15.5368 C   0  0  1  0  0  0  0  0  0  0  0  0
   16.4095   -9.6810  -15.3142 C   0  0  0  0  0  0  0  0  0  0  0  0
   15.2425  -10.1400  -16.6144 S   0  0  0  0  0  0  0  0  0  0  0  0
   18.7741   -9.8707  -14.7843 C   0  0  0  0  0  0  0  0  0  0  0  0
   18.7094   -9.7779  -13.5319 O   0  0  0  0  0  0  0  0  0  0  0  0
   24.2479  -10.1412  -16.2468 C   0  0  0  0  0  0  0  0  0  0  0  0
   22.9089  -10.2603  -15.5603 C   0  0  1  0  0  0  0  0  0  0  0  0
   23.1785  -11.0201  -14.2522 C   0  0  0  0  0  0  0  0  0  0  0  0
   22.3964   -8.9310  -15.1927 C   0  0  0  0  0  0  0  0  0  0  0  0
   21.0402   -8.8147  -14.6194 C   0  0  2  0  0  0  0  0  0  0  0  0
   19.9530   -9.3269  -15.3996 N   0  0  0  0  0  0  0  0  0  0  0  0
   20.7949   -7.3743  -14.3663 C   0  0  0  0  0  0  0  0  0  0  0  0
   19.9689   -6.7537  -15.0627 O   0  0  0  0  0  0  0  0  0  0  0  0
   21.4814   -6.7327  -13.3638 O   0  0  0  0  0  0  0  0  0  0  0  0
  2  1  1  6
  3  2  1  0
  4  3  1  0
  5  2  1  0
  6  5  2  0
  7  5  1  0
  8 11  1  0
  8  7  1  0
  8  9  1  1
 10  9  1  0
 11 12  2  0
 14 13  1  1
 14 15  1  0
 17 16  1  6
 16 14  1  0
 18 17  1  0
 18 11  1  0
 19 21  1  0
 19 17  1  0
 20 19  2  0
M  END
$$$$
