CCL.pdb
     RDKit          3D

 21 20  0  0  1  0  0  0  0  0999 V2000
   19.1566  -13.1828  -16.0544 N   0  0  0  0  0  0  0  0  0  0  0  0
   18.9590  -12.1502  -17.0398 C   0  0  1  0  0  0  0  0  0  0  0  0
   17.6607  -12.3041  -17.7760 C   0  0  0  0  0  0  0  0  0  0  0  0
   17.7351  -13.8639  -18.7025 S   0  0  0  0  0  0  0  0  0  0  0  0
   19.0936  -10.8303  -16.3701 C   0  0  0  0  0  0  0  0  0  0  0  0
   18.1144  -10.2878  -15.7636 O   0  0  0  0  0  0  0  0  0  0  0  0
   20.3081  -10.0850  -16.3566 N   0  0  0  0  0  0  0  0  0  0  0  0
   20.4365   -8.8150  -15.7138 C   0  0  1  0  0  0  0  0  0  0  0  0
   21.8512   -8.5884  -15.1662 C   0  0  0  0  0  0  0  0  0  0  0  0
   21.9340   -9.3981  -13.5535 S   0  0  0  0  0  0  0  0  0  0  0  0
   20.0965   -7.6746  -16.5783 C   0  0  0  0  0  0  0  0  0  0  0  0
   20.5738   -7.5958  -17.7390 O   0  0  0  0  0  0  0  0  0  0  0  0
   15.5208   -6.2180  -18.6394 C   0  0  0  0  0  0  0  0  0  0  0  0
   17.0148   -6.3688  -18.4859 C   0  0  1  0  0  0  0  0  0  0  0  0
   17.6105   -6.0283  -19.8607 C   0  0  0  0  0  0  0  0  0  0  0  0
   17.5385   -5.3814  -17.5290 C   0  0  0  0  0  0  0  0  0  0  0  0
   18.9304   -5.5081  -17.0518 C   0  0  2  0  0  0  0  0  0  0  0  0
   19.2260   -6.6042  -16.1775 N   0  0  0  0  0  0  0  0  0  0  0  0
   19.2680   -4.2466  -16.3491 C   0  0  0  0  0  0  0  0  0  0  0  0
   19.4752   -4.2569  -15.1205 O   0  0  0  0  0  0  0  0  0  0  0  0
   19.3501   -3.0730  -17.0589 O   0  0  0  0  0  0  0  0  0  0  0  0
  2  1  1  1
  3  2  1  0
  4  3  1  0
  5  2  1  0
  6  5  2  0
  7  5  1  0
  8 11  1  0
  8  7  1  0
  8  9  1  6
 10  9  1  0
 11 12  2  0
 14 13  1  6
 14 15  1  0
 17 16  1  1
 16 14  1  0
 18 17  1  0
 18 11  1  0
 19 21  1  0
 19 17  1  0
 20 19  2  0
M  END
$$$$
