CCL.pdb
     RDKit          3D

 21 20  0  0  1  0  0  0  0  0999 V2000
   25.5710  -20.8401   -7.9891 N   0  0  0  0  0  0  0  0  0  0  0  0
   24.9638  -20.9493   -9.2914 C   0  0  1  0  0  0  0  0  0  0  0  0
   23.5574  -20.4271   -9.3115 C   0  0  0  0  0  0  0  0  0  0  0  0
   22.5439  -21.5368   -8.2924 S   0  0  0  0  0  0  0  0  0  0  0  0
   25.8470  -20.2760  -10.2790 C   0  0  0  0  0  0  0  0  0  0  0  0
   26.3785  -19.1450  -10.0356 O   0  0  0  0  0  0  0  0  0  0  0  0
   26.1603  -20.8362  -11.5513 N   0  0  0  0  0  0  0  0  0  0  0  0
   27.0373  -20.2048  -12.4867 C   0  0  1  0  0  0  0  0  0  0  0  0
   28.0000  -21.2056  -13.1379 C   0  0  0  0  0  0  0  0  0  0  0  0
   29.2842  -21.5770  -11.9230 S   0  0  0  0  0  0  0  0  0  0  0  0
   26.3392  -19.4819  -13.5608 C   0  0  0  0  0  0  0  0  0  0  0  0
   25.2917  -19.9585  -14.0675 O   0  0  0  0  0  0  0  0  0  0  0  0
   24.1174  -15.1365  -15.9689 C   0  0  0  0  0  0  0  0  0  0  0  0
   25.5915  -15.2970  -16.2516 C   0  0  1  0  0  0  0  0  0  0  0  0
   26.1760  -13.8761  -16.2302 C   0  0  0  0  0  0  0  0  0  0  0  0
   26.2458  -16.0521  -15.1716 C   0  0  0  0  0  0  0  0  0  0  0  0
   26.0197  -17.5082  -15.0707 C   0  0  2  0  0  0  0  0  0  0  0  0
   26.7843  -18.2236  -14.0926 N   0  0  0  0  0  0  0  0  0  0  0  0
   26.3082  -18.0887  -16.4044 C   0  0  0  0  0  0  0  0  0  0  0  0
   27.4725  -18.4219  -16.6975 O   0  0  0  0  0  0  0  0  0  0  0  0
   25.2880  -18.2555  -17.3095 O   0  0  0  0  0  0  0  0  0  0  0  0
  2  1  1  1
  3  2  1  0
  4  3  1  0
  5  2  1  0
  6  5  2  0
  7  5  1  0
  8 11  1  0
  8  7  1  0
  8  9  1  6
 10  9  1  0
 11 12  2  0
 14 13  1  1
 14 15  1  0
 17 16  1  6
 16 14  1  0
 18 17  1  0
 18 11  1  0
 19 21  1  0
 19 17  1  0
 20 19  2  0
M  END
$$$$
