CCL.pdb
     RDKit          3D

 21 20  0  0  1  0  0  0  0  0999 V2000
   21.5796  -13.6171  -17.5866 N   0  0  0  0  0  0  0  0  0  0  0  0
   22.1456  -12.3130  -17.8224 C   0  0  1  0  0  0  0  0  0  0  0  0
   21.8831  -11.8197  -19.2148 C   0  0  0  0  0  0  0  0  0  0  0  0
   22.7089  -12.9554  -20.3659 S   0  0  0  0  0  0  0  0  0  0  0  0
   21.6435  -11.3869  -16.7741 C   0  0  0  0  0  0  0  0  0  0  0  0
   20.4217  -11.3848  -16.4163 O   0  0  0  0  0  0  0  0  0  0  0  0
   22.4777  -10.4472  -16.1018 N   0  0  0  0  0  0  0  0  0  0  0  0
   21.9920   -9.5486  -15.1023 C   0  0  1  0  0  0  0  0  0  0  0  0
   23.0368   -9.2832  -14.0112 C   0  0  0  0  0  0  0  0  0  0  0  0
   23.2925  -10.8387  -13.1291 S   0  0  0  0  0  0  0  0  0  0  0  0
   21.5516   -8.2500  -15.6345 C   0  0  0  0  0  0  0  0  0  0  0  0
   22.1909   -7.6982  -16.5661 O   0  0  0  0  0  0  0  0  0  0  0  0
   18.5221   -7.5803  -19.3136 C   0  0  0  0  0  0  0  0  0  0  0  0
   19.5330   -6.9936  -18.3585 C   0  0  1  0  0  0  0  0  0  0  0  0
   19.8538   -5.5925  -18.9015 C   0  0  0  0  0  0  0  0  0  0  0  0
   18.9408   -6.8167  -17.0233 C   0  0  0  0  0  0  0  0  0  0  0  0
   19.8159   -6.4609  -15.8879 C   0  0  2  0  0  0  0  0  0  0  0  0
   20.4009   -7.5400  -15.1486 N   0  0  0  0  0  0  0  0  0  0  0  0
   19.0082   -5.6395  -14.9543 C   0  0  0  0  0  0  0  0  0  0  0  0
   18.5350   -6.1558  -13.9238 O   0  0  0  0  0  0  0  0  0  0  0  0
   18.7866   -4.3123  -15.2324 O   0  0  0  0  0  0  0  0  0  0  0  0
  2  1  1  6
  3  2  1  0
  4  3  1  0
  5  2  1  0
  6  5  2  0
  7  5  1  0
  8 11  1  0
  8  7  1  0
  8  9  1  1
 10  9  1  0
 11 12  2  0
 14 13  1  6
 14 15  1  0
 17 16  1  6
 16 14  1  0
 18 17  1  0
 18 11  1  0
 19 21  1  0
 19 17  1  0
 20 19  2  0
M  END
$$$$
