CCL.pdb
     RDKit          3D

 21 20  0  0  1  0  0  0  0  0999 V2000
   26.5964  -19.1625  -16.2604 N   0  0  0  0  0  0  0  0  0  0  0  0
   25.4224  -18.5800  -16.8596 C   0  0  1  0  0  0  0  0  0  0  0  0
   24.3758  -19.6062  -17.1802 C   0  0  0  0  0  0  0  0  0  0  0  0
   22.9156  -18.7261  -17.8049 S   0  0  0  0  0  0  0  0  0  0  0  0
   24.9243  -17.5027  -15.9653 C   0  0  0  0  0  0  0  0  0  0  0  0
   24.4631  -17.7585  -14.8065 O   0  0  0  0  0  0  0  0  0  0  0  0
   24.9252  -16.1254  -16.3311 N   0  0  0  0  0  0  0  0  0  0  0  0
   24.3659  -15.0996  -15.5080 C   0  0  1  0  0  0  0  0  0  0  0  0
   25.4494  -14.2399  -14.8451 C   0  0  0  0  0  0  0  0  0  0  0  0
   26.5517  -13.6675  -16.1568 S   0  0  0  0  0  0  0  0  0  0  0  0
   23.4468  -14.2002  -16.2221 C   0  0  0  0  0  0  0  0  0  0  0  0
   23.7098  -13.8264  -17.3935 O   0  0  0  0  0  0  0  0  0  0  0  0
   18.8252  -12.3456  -18.2785 C   0  0  0  0  0  0  0  0  0  0  0  0
   19.0079  -11.9815  -16.8251 C   0  0  1  0  0  0  0  0  0  0  0  0
   17.6255  -12.1530  -16.1766 C   0  0  0  0  0  0  0  0  0  0  0  0
   19.9181  -12.9304  -16.1649 C   0  0  0  0  0  0  0  0  0  0  0  0
   21.3735  -12.8024  -16.3809 C   0  0  2  0  0  0  0  0  0  0  0  0
   22.2246  -13.6993  -15.6568 N   0  0  0  0  0  0  0  0  0  0  0  0
   21.7478  -11.4129  -16.0232 C   0  0  0  0  0  0  0  0  0  0  0  0
   22.1854  -11.1618  -14.8839 O   0  0  0  0  0  0  0  0  0  0  0  0
   21.6093  -10.4099  -16.9520 O   0  0  0  0  0  0  0  0  0  0  0  0
  2  1  1  1
  3  2  1  0
  4  3  1  0
  5  2  1  0
  6  5  2  0
  7  5  1  0
  8 11  1  0
  8  7  1  0
  8  9  1  6
 10  9  1  0
 11 12  2  0
 14 13  1  6
 14 15  1  0
 17 16  1  1
 16 14  1  0
 18 17  1  0
 18 11  1  0
 19 21  1  0
 19 17  1  0
 20 19  2  0
M  END
$$$$
