CCL.pdb
     RDKit          3D

 21 20  0  0  1  0  0  0  0  0999 V2000
   21.4917  -20.3216  -13.9588 N   0  0  0  0  0  0  0  0  0  0  0  0
   21.6291  -19.7994  -12.6228 C   0  0  1  0  0  0  0  0  0  0  0  0
   20.3073  -19.6528  -11.9281 C   0  0  0  0  0  0  0  0  0  0  0  0
   20.6204  -18.9112  -10.3006 S   0  0  0  0  0  0  0  0  0  0  0  0
   22.5838  -20.6611  -11.8779 C   0  0  0  0  0  0  0  0  0  0  0  0
   22.2188  -21.7630  -11.3550 O   0  0  0  0  0  0  0  0  0  0  0  0
   23.9565  -20.3245  -11.6959 N   0  0  0  0  0  0  0  0  0  0  0  0
   24.9038  -21.2108  -11.0961 C   0  0  1  0  0  0  0  0  0  0  0  0
   25.4821  -22.2058  -12.1099 C   0  0  0  0  0  0  0  0  0  0  0  0
   26.4100  -21.2468  -13.3275 S   0  0  0  0  0  0  0  0  0  0  0  0
   26.0281  -20.5242  -10.4420 C   0  0  0  0  0  0  0  0  0  0  0  0
   26.3543  -19.3632  -10.7981 O   0  0  0  0  0  0  0  0  0  0  0  0
   28.0114  -20.4889   -5.0885 C   0  0  0  0  0  0  0  0  0  0  0  0
   27.5382  -20.0769   -6.4614 C   0  0  1  0  0  0  0  0  0  0  0  0
   27.7600  -18.5584   -6.5393 C   0  0  0  0  0  0  0  0  0  0  0  0
   28.3758  -20.6921   -7.5030 C   0  0  0  0  0  0  0  0  0  0  0  0
   28.0206  -20.4953   -8.9230 C   0  0  2  0  0  0  0  0  0  0  0  0
   26.8099  -21.1060   -9.3861 N   0  0  0  0  0  0  0  0  0  0  0  0
   29.1470  -21.0201   -9.7320 C   0  0  0  0  0  0  0  0  0  0  0  0
   28.9975  -22.0588  -10.4038 O   0  0  0  0  0  0  0  0  0  0  0  0
   30.3501  -20.3564   -9.7354 O   0  0  0  0  0  0  0  0  0  0  0  0
  2  1  1  6
  3  2  1  0
  4  3  1  0
  5  2  1  0
  6  5  2  0
  7  5  1  0
  8 11  1  0
  8  7  1  0
  8  9  1  6
 10  9  1  0
 11 12  2  0
 14 13  1  1
 14 15  1  0
 17 16  1  1
 16 14  1  0
 18 17  1  0
 18 11  1  0
 19 21  1  0
 19 17  1  0
 20 19  2  0
M  END
$$$$
