CCL.pdb
     RDKit          3D

 21 20  0  0  1  0  0  0  0  0999 V2000
   29.0357  -20.4986  -17.7039 N   0  0  0  0  0  0  0  0  0  0  0  0
   28.1595  -21.3817  -16.9767 C   0  0  1  0  0  0  0  0  0  0  0  0
   28.8794  -22.1450  -15.9043 C   0  0  0  0  0  0  0  0  0  0  0  0
   29.3090  -23.7738  -16.5823 S   0  0  0  0  0  0  0  0  0  0  0  0
   27.0177  -20.5857  -16.4556 C   0  0  0  0  0  0  0  0  0  0  0  0
   27.1998  -19.5124  -15.7955 O   0  0  0  0  0  0  0  0  0  0  0  0
   25.6561  -20.9574  -16.6523 N   0  0  0  0  0  0  0  0  0  0  0  0
   24.5656  -20.2900  -16.0138 C   0  0  1  0  0  0  0  0  0  0  0  0
   23.4517  -19.9307  -17.0051 C   0  0  0  0  0  0  0  0  0  0  0  0
   22.1079  -19.1910  -16.0511 S   0  0  0  0  0  0  0  0  0  0  0  0
   23.9630  -21.0563  -14.9123 C   0  0  0  0  0  0  0  0  0  0  0  0
   23.5126  -22.2122  -15.1178 O   0  0  0  0  0  0  0  0  0  0  0  0
   25.4455  -20.8608   -9.3742 C   0  0  0  0  0  0  0  0  0  0  0  0
   24.6542  -20.4173  -10.5807 C   0  0  1  0  0  0  0  0  0  0  0  0
   25.6576  -19.6963  -11.4941 C   0  0  0  0  0  0  0  0  0  0  0  0
   24.1492  -21.5821  -11.3244 C   0  0  0  0  0  0  0  0  0  0  0  0
   23.3028  -21.3654  -12.5152 C   0  0  2  0  0  0  0  0  0  0  0  0
   23.8476  -20.5611  -13.5685 N   0  0  0  0  0  0  0  0  0  0  0  0
   22.0453  -20.7333  -12.0483 C   0  0  0  0  0  0  0  0  0  0  0  0
   21.3334  -21.3149  -11.2072 O   0  0  0  0  0  0  0  0  0  0  0  0
   21.6729  -19.5084  -12.5473 O   0  0  0  0  0  0  0  0  0  0  0  0
  2  1  1  1
  3  2  1  0
  4  3  1  0
  5  2  1  0
  6  5  2  0
  7  5  1  0
  8 11  1  0
  8  7  1  0
  8  9  1  6
 10  9  1  0
 11 12  2  0
 14 13  1  1
 14 15  1  0
 17 16  1  1
 16 14  1  0
 18 17  1  0
 18 11  1  0
 19 21  1  0
 19 17  1  0
 20 19  2  0
M  END
$$$$
