CCL.pdb
     RDKit          3D

 21 20  0  0  1  0  0  0  0  0999 V2000
   24.2807  -21.5680   -8.1807 N   0  0  0  0  0  0  0  0  0  0  0  0
   24.9152  -20.4913   -8.8981 C   0  0  1  0  0  0  0  0  0  0  0  0
   26.3267  -20.2577   -8.4463 C   0  0  0  0  0  0  0  0  0  0  0  0
   26.6598  -18.4778   -8.5803 S   0  0  0  0  0  0  0  0  0  0  0  0
   24.8107  -20.7715  -10.3539 C   0  0  0  0  0  0  0  0  0  0  0  0
   25.1870  -21.8831  -10.8474 O   0  0  0  0  0  0  0  0  0  0  0  0
   24.2901  -19.8329  -11.2913 N   0  0  0  0  0  0  0  0  0  0  0  0
   24.0739  -20.1450  -12.6691 C   0  0  1  0  0  0  0  0  0  0  0  0
   22.6002  -20.4500  -12.9651 C   0  0  0  0  0  0  0  0  0  0  0  0
   22.4166  -22.2471  -12.9587 S   0  0  0  0  0  0  0  0  0  0  0  0
   24.5132  -19.0885  -13.5935 C   0  0  0  0  0  0  0  0  0  0  0  0
   24.1642  -17.8956  -13.4030 O   0  0  0  0  0  0  0  0  0  0  0  0
   29.2214  -17.2459  -16.9573 C   0  0  0  0  0  0  0  0  0  0  0  0
   27.7182  -17.1796  -16.8380 C   0  0  1  0  0  0  0  0  0  0  0  0
   27.1744  -17.5344  -18.2306 C   0  0  0  0  0  0  0  0  0  0  0  0
   27.2278  -18.2067  -15.9057 C   0  0  0  0  0  0  0  0  0  0  0  0
   25.7867  -18.2615  -15.5864 C   0  0  2  0  0  0  0  0  0  0  0  0
   25.3432  -19.3301  -14.7410 N   0  0  0  0  0  0  0  0  0  0  0  0
   25.0570  -18.3516  -16.8741 C   0  0  0  0  0  0  0  0  0  0  0  0
   24.8643  -19.4639  -17.4017 O   0  0  0  0  0  0  0  0  0  0  0  0
   24.5974  -17.2061  -17.4778 O   0  0  0  0  0  0  0  0  0  0  0  0
  2  1  1  1
  3  2  1  0
  4  3  1  0
  5  2  1  0
  6  5  2  0
  7  5  1  0
  8 11  1  0
  8  7  1  0
  8  9  1  1
 10  9  1  0
 11 12  2  0
 14 13  1  6
 14 15  1  0
 17 16  1  6
 16 14  1  0
 18 17  1  0
 18 11  1  0
 19 21  1  0
 19 17  1  0
 20 19  2  0
M  END
$$$$
