EFN.pdb
     RDKit          3D

 29 29  0  0  1  0  0  0  0  0999 V2000
   23.6083  -11.5166  -18.8345 N   0  0  0  0  0  0  0  0  0  0  0  0
   23.0189  -10.2554  -19.2088 C   0  0  1  0  0  0  0  0  0  0  0  0
   21.9640  -10.4066  -20.2627 C   0  0  0  0  0  0  0  0  0  0  0  0
   22.4630  -10.9763  -21.5531 C   0  0  0  0  0  0  0  0  0  0  0  0
   22.6042  -12.4389  -21.4054 C   0  0  0  0  0  0  0  0  0  0  0  0
   21.5837  -13.1903  -21.4670 O   0  0  0  0  0  0  0  0  0  0  0  0
   22.5702   -9.5513  -17.9887 C   0  0  0  0  0  0  0  0  0  0  0  0
   21.9070  -10.1586  -17.1115 O   0  0  0  0  0  0  0  0  0  0  0  0
   23.8418  -13.0033  -21.1999 O   0  0  0  0  0  0  0  0  0  0  0  0
   22.8717   -8.1988  -17.7772 N   0  0  0  0  0  0  0  0  0  0  0  0
   22.5341   -7.4112  -16.6131 C   0  0  1  0  0  0  0  0  0  0  0  0
   23.8505   -7.0252  -15.9731 C   0  0  0  0  0  0  0  0  0  0  0  0
   24.6289   -8.1444  -15.4485 C   0  0  0  0  0  0  0  0  0  0  0  0
   24.2171   -8.9377  -14.4033 C   0  0  0  0  0  0  0  0  0  0  0  0
   25.0256   -9.9672  -13.9950 C   0  0  0  0  0  0  0  0  0  0  0  0
   26.2393  -10.2425  -14.5915 C   0  0  0  0  0  0  0  0  0  0  0  0
   26.6735   -9.4532  -15.6488 C   0  0  0  0  0  0  0  0  0  0  0  0
   25.8565   -8.4274  -16.0469 C   0  0  0  0  0  0  0  0  0  0  0  0
   21.9357   -6.1326  -17.0888 C   0  0  0  0  0  0  0  0  0  0  0  0
   22.3595   -5.4759  -18.0560 O   0  0  0  0  0  0  0  0  0  0  0  0
   18.9141   -2.2870  -17.6580 N   0  0  0  0  0  0  0  0  0  0  0  0
   18.2574   -3.5079  -18.0485 C   0  0  0  0  0  0  0  0  0  0  0  0
   17.2201   -3.3799  -18.7443 O   0  0  0  0  0  0  0  0  0  0  0  0
   18.8331   -4.8082  -17.6192 C   0  0  0  0  0  0  0  0  0  0  0  0
   20.0486   -4.4805  -16.7894 C   0  0  2  0  0  0  0  0  0  0  0  0
   20.7988   -5.6231  -16.3859 N   0  0  0  0  0  0  0  0  0  0  0  0
   19.5308   -3.8106  -15.5757 C   0  0  0  0  0  0  0  0  0  0  0  0
   19.2789   -4.4618  -14.5467 O   0  0  0  0  0  0  0  0  0  0  0  0
   19.3260   -2.4515  -15.5865 O   0  0  0  0  0  0  0  0  0  0  0  0
  2  1  1  1
  2  7  1  0
  2  3  1  0
  3  4  1  0
  4  5  1  0
  5  6  2  0
  5  9  1  0
  7  8  2  0
  7 10  1  0
 10 11  1  0
 11 12  1  6
 12 13  1  0
 13 14  2  0
 13 18  1  0
 14 15  1  0
 15 16  2  0
 17 16  1  0
 18 17  2  0
 19 26  1  0
 19 11  1  0
 20 19  2  0
 21 22  1  0
 22 23  2  0
 22 24  1  0
 25 24  1  6
 25 26  1  0
 25 27  1  0
 27 29  1  0
 28 27  2  0
M  END
$$$$
