EFN.pdb
     RDKit          3D

 29 29  0  0  1  0  0  0  0  0999 V2000
   20.1952  -22.9459  -14.1712 N   0  0  0  0  0  0  0  0  0  0  0  0
   19.7978  -21.5710  -13.9977 C   0  0  1  0  0  0  0  0  0  0  0  0
   18.7804  -21.4019  -12.9103 C   0  0  0  0  0  0  0  0  0  0  0  0
   18.3810  -22.6783  -12.2396 C   0  0  0  0  0  0  0  0  0  0  0  0
   19.1946  -22.8503  -11.0192 C   0  0  0  0  0  0  0  0  0  0  0  0
   19.3286  -21.8920  -10.1985 O   0  0  0  0  0  0  0  0  0  0  0  0
   21.0071  -20.7351  -13.8415 C   0  0  0  0  0  0  0  0  0  0  0  0
   20.9042  -19.5041  -13.6128 O   0  0  0  0  0  0  0  0  0  0  0  0
   19.8157  -24.0496  -10.7577 O   0  0  0  0  0  0  0  0  0  0  0  0
   22.2913  -21.2882  -13.9409 N   0  0  0  0  0  0  0  0  0  0  0  0
   23.5318  -20.5651  -14.1073 C   0  0  1  0  0  0  0  0  0  0  0  0
   24.5795  -21.3515  -13.3487 C   0  0  0  0  0  0  0  0  0  0  0  0
   25.9446  -20.8519  -13.4924 C   0  0  0  0  0  0  0  0  0  0  0  0
   26.3800  -19.6578  -12.9672 C   0  0  0  0  0  0  0  0  0  0  0  0
   27.6867  -19.2881  -13.1573 C   0  0  0  0  0  0  0  0  0  0  0  0
   28.5869  -20.0671  -13.8556 C   0  0  0  0  0  0  0  0  0  0  0  0
   28.1672  -21.2767  -14.3940 C   0  0  0  0  0  0  0  0  0  0  0  0
   26.8589  -21.6344  -14.1972 C   0  0  0  0  0  0  0  0  0  0  0  0
   23.9249  -20.6634  -15.5409 C   0  0  0  0  0  0  0  0  0  0  0  0
   23.7080  -21.6527  -16.2624 O   0  0  0  0  0  0  0  0  0  0  0  0
   25.4105  -19.4533  -20.0846 N   0  0  0  0  0  0  0  0  0  0  0  0
   24.6483  -18.3229  -19.6201 C   0  0  0  0  0  0  0  0  0  0  0  0
   24.2828  -17.5037  -20.4986 O   0  0  0  0  0  0  0  0  0  0  0  0
   24.3467  -18.2002  -18.1709 C   0  0  0  0  0  0  0  0  0  0  0  0
   24.9125  -19.4338  -17.5140 C   0  0  2  0  0  0  0  0  0  0  0  0
   24.5992  -19.5468  -16.1283 N   0  0  0  0  0  0  0  0  0  0  0  0
   26.3813  -19.3174  -17.6516 C   0  0  0  0  0  0  0  0  0  0  0  0
   26.9792  -18.2986  -17.2630 O   0  0  0  0  0  0  0  0  0  0  0  0
   27.0933  -20.3489  -18.2160 O   0  0  0  0  0  0  0  0  0  0  0  0
  2  1  1  1
  2  7  1  0
  2  3  1  0
  3  4  1  0
  4  5  1  0
  5  6  2  0
  5  9  1  0
  7  8  2  0
  7 10  1  0
 10 11  1  0
 11 12  1  1
 12 13  1  0
 13 14  2  0
 13 18  1  0
 14 15  1  0
 15 16  2  0
 17 16  1  0
 18 17  2  0
 19 26  1  0
 19 11  1  0
 20 19  2  0
 21 22  1  0
 22 23  2  0
 22 24  1  0
 25 24  1  1
 25 26  1  0
 25 27  1  0
 27 29  1  0
 28 27  2  0
M  END
$$$$
