EFN.pdb
     RDKit          3D

 29 29  0  0  1  0  0  0  0  0999 V2000
   17.2432  -11.9024  -15.7331 N   0  0  0  0  0  0  0  0  0  0  0  0
   18.3651  -11.3728  -16.4673 C   0  0  1  0  0  0  0  0  0  0  0  0
   18.2128  -11.5443  -17.9484 C   0  0  0  0  0  0  0  0  0  0  0  0
   18.1124  -12.9691  -18.3941 C   0  0  0  0  0  0  0  0  0  0  0  0
   19.4434  -13.5987  -18.2812 C   0  0  0  0  0  0  0  0  0  0  0  0
   20.4050  -13.1979  -19.0053 O   0  0  0  0  0  0  0  0  0  0  0  0
   18.6125   -9.9814  -16.0333 C   0  0  0  0  0  0  0  0  0  0  0  0
   17.6534   -9.1873  -15.8660 O   0  0  0  0  0  0  0  0  0  0  0  0
   19.6564  -14.6254  -17.3907 O   0  0  0  0  0  0  0  0  0  0  0  0
   19.9125   -9.5138  -15.7960 N   0  0  0  0  0  0  0  0  0  0  0  0
   20.2965   -8.1580  -15.4740 C   0  0  1  0  0  0  0  0  0  0  0  0
   21.6952   -8.2441  -14.9014 C   0  0  0  0  0  0  0  0  0  0  0  0
   22.3493   -6.9562  -14.6840 C   0  0  0  0  0  0  0  0  0  0  0  0
   23.3327   -6.4514  -15.5021 C   0  0  0  0  0  0  0  0  0  0  0  0
   23.8751   -5.2269  -15.2076 C   0  0  0  0  0  0  0  0  0  0  0  0
   23.4735   -4.4765  -14.1211 C   0  0  0  0  0  0  0  0  0  0  0  0
   22.4814   -4.9684  -13.2824 C   0  0  0  0  0  0  0  0  0  0  0  0
   21.9480   -6.1934  -13.5876 C   0  0  0  0  0  0  0  0  0  0  0  0
   20.4390   -7.4108  -16.7550 C   0  0  0  0  0  0  0  0  0  0  0  0
   20.5337   -7.9460  -17.8734 O   0  0  0  0  0  0  0  0  0  0  0  0
   19.8158   -3.9781  -20.1203 N   0  0  0  0  0  0  0  0  0  0  0  0
   18.6560   -4.6647  -19.6124 C   0  0  0  0  0  0  0  0  0  0  0  0
   17.6597   -4.7063  -20.3753 O   0  0  0  0  0  0  0  0  0  0  0  0
   18.7088   -5.2679  -18.2561 C   0  0  0  0  0  0  0  0  0  0  0  0
   20.1332   -5.1239  -17.7831 C   0  0  2  0  0  0  0  0  0  0  0  0
   20.4716   -5.9819  -16.6965 N   0  0  0  0  0  0  0  0  0  0  0  0
   20.2590   -3.7219  -17.3264 C   0  0  0  0  0  0  0  0  0  0  0  0
   21.1577   -2.9855  -17.7696 O   0  0  0  0  0  0  0  0  0  0  0  0
   19.3710   -3.2280  -16.4008 O   0  0  0  0  0  0  0  0  0  0  0  0
  2  1  1  1
  2  7  1  0
  2  3  1  0
  3  4  1  0
  4  5  1  0
  5  6  2  0
  5  9  1  0
  7  8  2  0
  7 10  1  0
 10 11  1  0
 11 12  1  6
 12 13  1  0
 13 14  2  0
 13 18  1  0
 14 15  1  0
 15 16  2  0
 17 16  1  0
 18 17  2  0
 19 26  1  0
 19 11  1  0
 20 19  2  0
 21 22  1  0
 22 23  2  0
 22 24  1  0
 25 24  1  1
 25 26  1  0
 25 27  1  0
 27 29  1  0
 28 27  2  0
M  END
$$$$
