EFN.pdb
     RDKit          3D

 29 29  0  0  1  0  0  0  0  0999 V2000
   24.9459  -12.9119  -18.5209 N   0  0  0  0  0  0  0  0  0  0  0  0
   24.6299  -11.5691  -18.9395 C   0  0  1  0  0  0  0  0  0  0  0  0
   23.7104  -11.5395  -20.1227 C   0  0  0  0  0  0  0  0  0  0  0  0
   24.2695  -12.1863  -21.3506 C   0  0  0  0  0  0  0  0  0  0  0  0
   23.3287  -11.9775  -22.4696 C   0  0  0  0  0  0  0  0  0  0  0  0
   23.3045  -10.8698  -23.0877 O   0  0  0  0  0  0  0  0  0  0  0  0
   24.1512  -10.7995  -17.7715 C   0  0  0  0  0  0  0  0  0  0  0  0
   23.5072  -11.3688  -16.8553 O   0  0  0  0  0  0  0  0  0  0  0  0
   22.4690  -12.9800  -22.8549 O   0  0  0  0  0  0  0  0  0  0  0  0
   24.4024   -9.4255  -17.6534 N   0  0  0  0  0  0  0  0  0  0  0  0
   23.9354   -8.5501  -16.6022 C   0  0  1  0  0  0  0  0  0  0  0  0
   25.1271   -8.3054  -15.7013 C   0  0  0  0  0  0  0  0  0  0  0  0
   26.2487   -9.2186  -15.9065 C   0  0  0  0  0  0  0  0  0  0  0  0
   26.4656  -10.3444  -15.1471 C   0  0  0  0  0  0  0  0  0  0  0  0
   27.5488  -11.1359  -15.4310 C   0  0  0  0  0  0  0  0  0  0  0  0
   28.4333  -10.8497  -16.4510 C   0  0  0  0  0  0  0  0  0  0  0  0
   28.2319   -9.7173  -17.2298 C   0  0  0  0  0  0  0  0  0  0  0  0
   27.1462   -8.9345  -16.9356 C   0  0  0  0  0  0  0  0  0  0  0  0
   23.6263   -7.2286  -17.2167 C   0  0  0  0  0  0  0  0  0  0  0  0
   24.4825   -6.4395  -17.6531 O   0  0  0  0  0  0  0  0  0  0  0  0
   22.3755   -2.7536  -15.0311 N   0  0  0  0  0  0  0  0  0  0  0  0
   21.5871   -3.9581  -15.0798 C   0  0  0  0  0  0  0  0  0  0  0  0
   20.3676   -3.8323  -14.8089 O   0  0  0  0  0  0  0  0  0  0  0  0
   22.2459   -5.2395  -15.4406 C   0  0  0  0  0  0  0  0  0  0  0  0
   21.7294   -5.6117  -16.8074 C   0  0  2  0  0  0  0  0  0  0  0  0
   22.2532   -6.8383  -17.3097 N   0  0  0  0  0  0  0  0  0  0  0  0
   22.1617   -4.5179  -17.7055 C   0  0  0  0  0  0  0  0  0  0  0  0
   23.3303   -4.4639  -18.1275 O   0  0  0  0  0  0  0  0  0  0  0  0
   21.2599   -3.5497  -18.0778 O   0  0  0  0  0  0  0  0  0  0  0  0
  2  1  1  1
  2  7  1  0
  2  3  1  0
  3  4  1  0
  4  5  1  0
  5  6  2  0
  5  9  1  0
  7  8  2  0
  7 10  1  0
 10 11  1  0
 11 12  1  1
 12 13  1  0
 13 14  2  0
 13 18  1  0
 14 15  1  0
 15 16  2  0
 17 16  1  0
 18 17  2  0
 19 26  1  0
 19 11  1  0
 20 19  2  0
 21 22  1  0
 22 23  2  0
 22 24  1  0
 25 24  1  1
 25 26  1  0
 25 27  1  0
 27 29  1  0
 28 27  2  0
M  END
$$$$
