EFN.pdb
     RDKit          3D

 29 29  0  0  1  0  0  0  0  0999 V2000
   28.4024  -21.2536  -15.5050 N   0  0  0  0  0  0  0  0  0  0  0  0
   28.1296  -20.3678  -14.4008 C   0  0  1  0  0  0  0  0  0  0  0  0
   27.7735  -18.9836  -14.8517 C   0  0  0  0  0  0  0  0  0  0  0  0
   27.1810  -18.9185  -16.2241 C   0  0  0  0  0  0  0  0  0  0  0  0
   28.0359  -18.0639  -17.0723 C   0  0  0  0  0  0  0  0  0  0  0  0
   28.7063  -18.5710  -18.0225 O   0  0  0  0  0  0  0  0  0  0  0  0
   27.1315  -20.9987  -13.5112 C   0  0  0  0  0  0  0  0  0  0  0  0
   26.7089  -22.1574  -13.7501 O   0  0  0  0  0  0  0  0  0  0  0  0
   28.1153  -16.7098  -16.8429 O   0  0  0  0  0  0  0  0  0  0  0  0
   26.6348  -20.3285  -12.3846 N   0  0  0  0  0  0  0  0  0  0  0  0
   25.6241  -20.8098  -11.4701 C   0  0  1  0  0  0  0  0  0  0  0  0
   25.7680  -19.9793  -10.2127 C   0  0  0  0  0  0  0  0  0  0  0  0
   26.8167  -20.4262   -9.2993 C   0  0  0  0  0  0  0  0  0  0  0  0
   27.8131  -21.3058   -9.6524 C   0  0  0  0  0  0  0  0  0  0  0  0
   28.7520  -21.6535   -8.7154 C   0  0  0  0  0  0  0  0  0  0  0  0
   28.7396  -21.1555   -7.4284 C   0  0  0  0  0  0  0  0  0  0  0  0
   27.7417  -20.2657   -7.0517 C   0  0  0  0  0  0  0  0  0  0  0  0
   26.8093  -19.9266   -7.9972 C   0  0  0  0  0  0  0  0  0  0  0  0
   24.2935  -20.4471  -12.0335 C   0  0  0  0  0  0  0  0  0  0  0  0
   24.0580  -19.3990  -12.6597 O   0  0  0  0  0  0  0  0  0  0  0  0
   20.7312  -20.8649  -14.8144 N   0  0  0  0  0  0  0  0  0  0  0  0
   20.9303  -22.2565  -14.5013 C   0  0  0  0  0  0  0  0  0  0  0  0
   20.4856  -23.0808  -15.3375 O   0  0  0  0  0  0  0  0  0  0  0  0
   21.6332  -22.6218  -13.2447 C   0  0  0  0  0  0  0  0  0  0  0  0
   21.9844  -21.3238  -12.5626 C   0  0  2  0  0  0  0  0  0  0  0  0
   23.2123  -21.3636  -11.8402 N   0  0  0  0  0  0  0  0  0  0  0  0
   20.8869  -21.0713  -11.6026 C   0  0  0  0  0  0  0  0  0  0  0  0
   20.0724  -20.1512  -11.7933 O   0  0  0  0  0  0  0  0  0  0  0  0
   20.7667  -21.8642  -10.4863 O   0  0  0  0  0  0  0  0  0  0  0  0
  2  1  1  6
  2  7  1  0
  2  3  1  0
  3  4  1  0
  4  5  1  0
  5  6  2  0
  5  9  1  0
  7  8  2  0
  7 10  1  0
 10 11  1  0
 11 12  1  1
 12 13  1  0
 13 14  2  0
 13 18  1  0
 14 15  1  0
 15 16  2  0
 17 16  1  0
 18 17  2  0
 19 26  1  0
 19 11  1  0
 20 19  2  0
 21 22  1  0
 22 23  2  0
 22 24  1  0
 25 24  1  1
 25 26  1  0
 25 27  1  0
 27 29  1  0
 28 27  2  0
M  END
$$$$
