EFN.pdb
     RDKit          3D

 29 29  0  0  1  0  0  0  0  0999 V2000
   19.2536   -9.7597  -17.8762 N   0  0  0  0  0  0  0  0  0  0  0  0
   18.5163   -9.9347  -16.6498 C   0  0  1  0  0  0  0  0  0  0  0  0
   18.4549  -11.3685  -16.2181 C   0  0  0  0  0  0  0  0  0  0  0  0
   17.7668  -12.2733  -17.1910 C   0  0  0  0  0  0  0  0  0  0  0  0
   17.6436  -13.6159  -16.5883 C   0  0  0  0  0  0  0  0  0  0  0  0
   16.4991  -14.1272  -16.3920 O   0  0  0  0  0  0  0  0  0  0  0  0
   19.0517   -9.0092  -15.6287 C   0  0  0  0  0  0  0  0  0  0  0  0
   18.5602   -8.9843  -14.4728 O   0  0  0  0  0  0  0  0  0  0  0  0
   18.7663  -14.3272  -16.2333 O   0  0  0  0  0  0  0  0  0  0  0  0
   20.1149   -8.1429  -15.9183 N   0  0  0  0  0  0  0  0  0  0  0  0
   20.8184   -7.2967  -14.9810 C   0  0  1  0  0  0  0  0  0  0  0  0
   22.2911   -7.5844  -15.1814 C   0  0  0  0  0  0  0  0  0  0  0  0
   22.7101   -8.9311  -14.8009 C   0  0  0  0  0  0  0  0  0  0  0  0
   23.2471   -9.8411  -15.6811 C   0  0  0  0  0  0  0  0  0  0  0  0
   23.6124  -11.0776  -15.2143 C   0  0  0  0  0  0  0  0  0  0  0  0
   23.4639  -11.4485  -13.8932 C   0  0  0  0  0  0  0  0  0  0  0  0
   22.9236  -10.5440  -12.9881 C   0  0  0  0  0  0  0  0  0  0  0  0
   22.5623   -9.3119  -13.4674 C   0  0  0  0  0  0  0  0  0  0  0  0
   20.6289   -5.8842  -15.4150 C   0  0  0  0  0  0  0  0  0  0  0  0
   20.7123   -5.4942  -16.5928 O   0  0  0  0  0  0  0  0  0  0  0  0
   19.7420   -1.0360  -15.3940 N   0  0  0  0  0  0  0  0  0  0  0  0
   18.9503   -1.4777  -14.2748 C   0  0  0  0  0  0  0  0  0  0  0  0
   18.1981   -0.6170  -13.7554 O   0  0  0  0  0  0  0  0  0  0  0  0
   19.0661   -2.8864  -13.8181 C   0  0  0  0  0  0  0  0  0  0  0  0
   20.1361   -3.5217  -14.6695 C   0  0  2  0  0  0  0  0  0  0  0  0
   20.3334   -4.9092  -14.4108 N   0  0  0  0  0  0  0  0  0  0  0  0
   21.3861   -2.8032  -14.3361 C   0  0  0  0  0  0  0  0  0  0  0  0
   21.5481   -1.6167  -14.6713 O   0  0  0  0  0  0  0  0  0  0  0  0
   22.3802   -3.4559  -13.6468 O   0  0  0  0  0  0  0  0  0  0  0  0
  2  1  1  6
  2  7  1  0
  2  3  1  0
  3  4  1  0
  4  5  1  0
  5  6  2  0
  5  9  1  0
  7  8  2  0
  7 10  1  0
 10 11  1  0
 11 12  1  6
 12 13  1  0
 13 14  2  0
 13 18  1  0
 14 15  1  0
 15 16  2  0
 17 16  1  0
 18 17  2  0
 19 26  1  0
 19 11  1  0
 20 19  2  0
 21 22  1  0
 22 23  2  0
 22 24  1  0
 25 24  1  1
 25 26  1  0
 25 27  1  0
 27 29  1  0
 28 27  2  0
M  END
$$$$
