YDP.pdb
     RDKit          3D

 28 29  0  0  1  0  0  0  0  0999 V2000
    8.8523  -12.6863   16.2375 O   0  0  0  0  0  0  0  0  0  0  0  0
    8.3659  -13.1098   17.4557 C   0  0  0  0  0  0  0  0  0  0  0  0
    7.2285  -13.9107   17.5072 C   0  0  0  0  0  0  0  0  0  0  0  0
    6.7461  -14.3311   18.7200 C   0  0  0  0  0  0  0  0  0  0  0  0
    7.4176  -13.9383   19.8711 C   0  0  0  0  0  0  0  0  0  0  0  0
    6.8991  -14.3907   21.1817 C   0  0  0  0  0  0  0  0  0  0  0  0
    7.2026  -15.8531   21.4137 C   0  0  2  0  0  0  0  0  0  0  0  0
    6.3397  -16.6360   20.5765 N   0  0  0  0  0  0  0  0  0  0  0  0
    6.9739  -16.1265   22.8612 C   0  0  0  0  0  0  0  0  0  0  0  0
    5.8190  -16.0432   23.3445 O   0  0  0  0  0  0  0  0  0  0  0  0
    8.5373  -13.1502   19.8258 C   0  0  0  0  0  0  0  0  0  0  0  0
    9.0083  -12.7376   18.6099 C   0  0  0  0  0  0  0  0  0  0  0  0
    8.0473  -16.4789   23.6950 N   0  0  0  0  0  0  0  0  0  0  0  0
    7.9104  -16.6859   25.1369 C   0  0  1  0  0  0  0  0  0  0  0  0
    7.6994  -18.1558   25.4116 C   0  0  0  0  0  0  0  0  0  0  0  0
    7.7261  -18.5119   26.8335 C   0  0  0  0  0  0  0  0  0  0  0  0
    6.7931  -18.0128   27.5434 O   0  0  0  0  0  0  0  0  0  0  0  0
    9.0910  -16.1129   25.7958 C   0  0  0  0  0  0  0  0  0  0  0  0
   10.2193  -16.4372   25.2509 O   0  0  0  0  0  0  0  0  0  0  0  0
    8.6248  -19.3082   27.4822 O   0  0  0  0  0  0  0  0  0  0  0  0
    9.1444  -15.2772   26.9132 N   0  0  0  0  0  0  0  0  0  0  0  0
    8.0049  -14.6876   27.5682 C   0  0  0  0  0  0  0  0  0  0  0  0
    8.5493  -13.3184   27.9720 C   0  0  0  0  0  0  0  0  0  0  0  0
   10.0416  -13.3598   27.7162 C   0  0  0  0  0  0  0  0  0  0  0  0
   10.2809  -14.8598   27.6607 C   0  0  1  0  0  0  0  0  0  0  0  0
   10.3388  -15.4504   29.0188 C   0  0  0  0  0  0  0  0  0  0  0  0
    9.4113  -16.3540   29.4331 O   0  0  0  0  0  0  0  0  0  0  0  0
   11.2609  -15.1038   29.7854 O   0  0  0  0  0  0  0  0  0  0  0  0
  1  2  1  0
  2  3  2  0
  3  4  1  0
  5  4  2  0
  5  6  1  0
  7  6  1  0
  7  8  1  6
  9  7  1  0
  9 13  1  0
 10  9  2  0
 11  5  1  0
 12  2  1  0
 12 11  2  0
 14 13  1  0
 14 18  1  0
 14 15  1  6
 15 16  1  0
 16 17  2  0
 16 20  1  0
 18 19  2  0
 21 18  1  0
 21 22  1  0
 22 23  1  0
 24 23  1  0
 25 24  1  0
 25 21  1  0
 25 26  1  1
 27 26  1  0
 28 26  2  0
M  END
$$$$
