YDP.pdb
     RDKit          3D

 28 29  0  0  1  0  0  0  0  0999 V2000
    5.2196  -11.3382   28.7549 O   0  0  0  0  0  0  0  0  0  0  0  0
    5.9959  -11.9307   27.7823 C   0  0  0  0  0  0  0  0  0  0  0  0
    5.3970  -12.7129   26.7988 C   0  0  0  0  0  0  0  0  0  0  0  0
    6.1709  -13.3016   25.8320 C   0  0  0  0  0  0  0  0  0  0  0  0
    7.5442  -13.0947   25.8671 C   0  0  0  0  0  0  0  0  0  0  0  0
    8.3821  -13.7289   24.8246 C   0  0  0  0  0  0  0  0  0  0  0  0
    8.5183  -15.2152   25.0631 C   0  0  2  0  0  0  0  0  0  0  0  0
    9.0437  -15.4189   26.3825 N   0  0  0  0  0  0  0  0  0  0  0  0
    9.4299  -15.7487   24.0110 C   0  0  0  0  0  0  0  0  0  0  0  0
   10.6498  -15.9108   24.2558 O   0  0  0  0  0  0  0  0  0  0  0  0
    8.1385  -12.3258   26.8329 C   0  0  0  0  0  0  0  0  0  0  0  0
    7.3555  -11.7442   27.7915 C   0  0  0  0  0  0  0  0  0  0  0  0
    8.9321  -16.0738   22.7390 N   0  0  0  0  0  0  0  0  0  0  0  0
    9.7537  -16.0654   21.5283 C   0  0  1  0  0  0  0  0  0  0  0  0
   10.5165  -17.3654   21.4347 C   0  0  0  0  0  0  0  0  0  0  0  0
   11.9213  -17.2117   21.0442 C   0  0  0  0  0  0  0  0  0  0  0  0
   12.6452  -18.2523   21.1732 O   0  0  0  0  0  0  0  0  0  0  0  0
    8.8765  -15.7972   20.3817 C   0  0  0  0  0  0  0  0  0  0  0  0
    7.8152  -16.5364   20.3341 O   0  0  0  0  0  0  0  0  0  0  0  0
   12.5410  -16.0951   20.5630 O   0  0  0  0  0  0  0  0  0  0  0  0
    9.0425  -14.8611   19.3590 N   0  0  0  0  0  0  0  0  0  0  0  0
   10.1782  -13.9885   19.2041 C   0  0  0  0  0  0  0  0  0  0  0  0
    9.5235  -12.7125   18.6774 C   0  0  0  0  0  0  0  0  0  0  0  0
    8.0889  -13.0722   18.3507 C   0  0  0  0  0  0  0  0  0  0  0  0
    8.1880  -14.5858   18.2550 C   0  0  1  0  0  0  0  0  0  0  0  0
    8.7557  -15.0110   16.9537 C   0  0  0  0  0  0  0  0  0  0  0  0
   10.0015  -15.5494   16.8719 O   0  0  0  0  0  0  0  0  0  0  0  0
    8.0672  -14.8672   15.9225 O   0  0  0  0  0  0  0  0  0  0  0  0
  1  2  1  0
  2  3  2  0
  3  4  1  0
  5  4  2  0
  5  6  1  0
  7  6  1  0
  7  8  1  1
  9  7  1  0
  9 13  1  0
 10  9  2  0
 11  5  1  0
 12  2  1  0
 12 11  2  0
 14 13  1  0
 14 18  1  0
 14 15  1  6
 15 16  1  0
 16 17  2  0
 16 20  1  0
 18 19  2  0
 21 18  1  0
 21 22  1  0
 22 23  1  0
 24 23  1  0
 25 24  1  0
 25 21  1  0
 25 26  1  6
 27 26  1  0
 28 26  2  0
M  END
$$$$
