YDP.pdb
     RDKit          3D

 28 29  0  0  1  0  0  0  0  0999 V2000
   11.4925  -14.8795   30.0650 O   0  0  0  0  0  0  0  0  0  0  0  0
   10.4059  -15.0026   29.2259 C   0  0  0  0  0  0  0  0  0  0  0  0
    9.7599  -16.2296   29.1044 C   0  0  0  0  0  0  0  0  0  0  0  0
    8.6791  -16.3503   28.2691 C   0  0  0  0  0  0  0  0  0  0  0  0
    8.2600  -15.2293   27.5635 C   0  0  0  0  0  0  0  0  0  0  0  0
    7.0935  -15.3567   26.6612 C   0  0  0  0  0  0  0  0  0  0  0  0
    7.2871  -16.4852   25.6745 C   0  0  2  0  0  0  0  0  0  0  0  0
    7.6680  -17.6635   26.3989 N   0  0  0  0  0  0  0  0  0  0  0  0
    8.3430  -16.0548   24.7142 C   0  0  0  0  0  0  0  0  0  0  0  0
    9.5042  -15.8089   25.1212 O   0  0  0  0  0  0  0  0  0  0  0  0
    8.8924  -14.0195   27.6796 C   0  0  0  0  0  0  0  0  0  0  0  0
    9.9692  -13.9124   28.5159 C   0  0  0  0  0  0  0  0  0  0  0  0
    8.0478  -15.9209   23.3480 N   0  0  0  0  0  0  0  0  0  0  0  0
    9.0349  -15.5107   22.3490 C   0  0  1  0  0  0  0  0  0  0  0  0
   10.2739  -16.3619   22.4938 C   0  0  0  0  0  0  0  0  0  0  0  0
   11.3020  -16.1049   21.4807 C   0  0  0  0  0  0  0  0  0  0  0  0
   11.2490  -16.8430   20.4434 O   0  0  0  0  0  0  0  0  0  0  0  0
    8.4042  -15.5844   21.0250 C   0  0  0  0  0  0  0  0  0  0  0  0
    7.6875  -16.6445   20.8308 O   0  0  0  0  0  0  0  0  0  0  0  0
   12.3016  -15.1764   21.5165 O   0  0  0  0  0  0  0  0  0  0  0  0
    8.4794  -14.6695   19.9728 N   0  0  0  0  0  0  0  0  0  0  0  0
    9.2751  -13.4686   19.9679 C   0  0  0  0  0  0  0  0  0  0  0  0
    8.3756  -12.4999   19.2019 C   0  0  0  0  0  0  0  0  0  0  0  0
    7.2454  -13.3294   18.6285 C   0  0  0  0  0  0  0  0  0  0  0  0
    7.8488  -14.7226   18.6984 C   0  0  1  0  0  0  0  0  0  0  0  0
    8.7971  -14.9595   17.5842 C   0  0  0  0  0  0  0  0  0  0  0  0
   10.1334  -15.0693   17.8091 O   0  0  0  0  0  0  0  0  0  0  0  0
    8.3475  -15.0585   16.4240 O   0  0  0  0  0  0  0  0  0  0  0  0
  1  2  1  0
  2  3  2  0
  3  4  1  0
  5  4  2  0
  5  6  1  0
  7  6  1  0
  7  8  1  1
  9  7  1  0
  9 13  1  0
 10  9  2  0
 11  5  1  0
 12  2  1  0
 12 11  2  0
 14 13  1  0
 14 18  1  0
 14 15  1  6
 15 16  1  0
 16 17  2  0
 16 20  1  0
 18 19  2  0
 21 18  1  0
 21 22  1  0
 22 23  1  0
 24 23  1  0
 25 24  1  0
 25 21  1  0
 25 26  1  6
 27 26  1  0
 28 26  2  0
M  END
$$$$
