YDP.pdb
     RDKit          3D

 28 29  0  0  1  0  0  0  0  0999 V2000
    8.7105  -12.3232   16.1559 O   0  0  0  0  0  0  0  0  0  0  0  0
    8.3615  -12.8215   17.3928 C   0  0  0  0  0  0  0  0  0  0  0  0
    9.3531  -13.1398   18.3165 C   0  0  0  0  0  0  0  0  0  0  0  0
    9.0041  -13.6354   19.5465 C   0  0  0  0  0  0  0  0  0  0  0  0
    7.6553  -13.8053   19.8327 C   0  0  0  0  0  0  0  0  0  0  0  0
    7.2757  -14.3401   21.1597 C   0  0  0  0  0  0  0  0  0  0  0  0
    7.6324  -15.8038   21.2809 C   0  0  2  0  0  0  0  0  0  0  0  0
    6.8758  -16.5392   20.3088 N   0  0  0  0  0  0  0  0  0  0  0  0
    7.3074  -16.2228   22.6742 C   0  0  0  0  0  0  0  0  0  0  0  0
    6.1948  -16.7414   22.9342 O   0  0  0  0  0  0  0  0  0  0  0  0
    6.6757  -13.4936   18.9271 C   0  0  0  0  0  0  0  0  0  0  0  0
    7.0369  -13.0001   17.7039 C   0  0  0  0  0  0  0  0  0  0  0  0
    8.2422  -16.0410   23.7061 N   0  0  0  0  0  0  0  0  0  0  0  0
    7.9975  -16.4421   25.0917 C   0  0  1  0  0  0  0  0  0  0  0  0
    7.5808  -17.8933   25.1244 C   0  0  0  0  0  0  0  0  0  0  0  0
    7.5302  -18.4744   26.4695 C   0  0  0  0  0  0  0  0  0  0  0  0
    7.0592  -17.7165   27.3790 O   0  0  0  0  0  0  0  0  0  0  0  0
    9.2035  -16.1434   25.8745 C   0  0  0  0  0  0  0  0  0  0  0  0
   10.2769  -16.7289   25.4499 O   0  0  0  0  0  0  0  0  0  0  0  0
    7.9248  -19.7210   26.8602 O   0  0  0  0  0  0  0  0  0  0  0  0
    9.3321  -15.3211   26.9956 N   0  0  0  0  0  0  0  0  0  0  0  0
    8.2525  -14.6225   27.6450 C   0  0  0  0  0  0  0  0  0  0  0  0
    8.9282  -13.3161   28.0583 C   0  0  0  0  0  0  0  0  0  0  0  0
   10.4108  -13.5061   27.8130 C   0  0  0  0  0  0  0  0  0  0  0  0
   10.4990  -15.0222   27.7530 C   0  0  1  0  0  0  0  0  0  0  0  0
   10.4873  -15.6203   29.1090 C   0  0  0  0  0  0  0  0  0  0  0  0
    9.4940  -16.4635   29.4974 O   0  0  0  0  0  0  0  0  0  0  0  0
   11.4119  -15.3370   29.8982 O   0  0  0  0  0  0  0  0  0  0  0  0
  1  2  1  0
  2  3  2  0
  3  4  1  0
  5  4  2  0
  5  6  1  0
  7  6  1  0
  7  8  1  6
  9  7  1  0
  9 13  1  0
 10  9  2  0
 11  5  1  0
 12  2  1  0
 12 11  2  0
 14 13  1  0
 14 18  1  0
 14 15  1  6
 15 16  1  0
 16 17  2  0
 16 20  1  0
 18 19  2  0
 21 18  1  0
 21 22  1  0
 22 23  1  0
 24 23  1  0
 25 24  1  0
 25 21  1  0
 25 26  1  1
 27 26  1  0
 28 26  2  0
M  END
$$$$
