YDP.pdb
     RDKit          3D

 28 29  0  0  1  0  0  0  0  0999 V2000
    8.8540  -12.5639   16.0496 O   0  0  0  0  0  0  0  0  0  0  0  0
    8.3347  -13.0178   17.2431 C   0  0  0  0  0  0  0  0  0  0  0  0
    8.9492  -12.6702   18.4428 C   0  0  0  0  0  0  0  0  0  0  0  0
    8.4312  -13.1227   19.6291 C   0  0  0  0  0  0  0  0  0  0  0  0
    7.2962  -13.9230   19.5930 C   0  0  0  0  0  0  0  0  0  0  0  0
    6.7349  -14.4127   20.8720 C   0  0  0  0  0  0  0  0  0  0  0  0
    7.2145  -15.8130   21.1782 C   0  0  2  0  0  0  0  0  0  0  0  0
    6.5270  -16.7292   20.3145 N   0  0  0  0  0  0  0  0  0  0  0  0
    6.9212  -16.0748   22.6162 C   0  0  0  0  0  0  0  0  0  0  0  0
    5.7371  -16.0636   23.0311 O   0  0  0  0  0  0  0  0  0  0  0  0
    6.6878  -14.2678   18.4148 C   0  0  0  0  0  0  0  0  0  0  0  0
    7.2142  -13.8101   17.2386 C   0  0  0  0  0  0  0  0  0  0  0  0
    7.9659  -16.3358   23.5174 N   0  0  0  0  0  0  0  0  0  0  0  0
    7.7516  -16.6072   24.9391 C   0  0  1  0  0  0  0  0  0  0  0  0
    7.7270  -18.1004   25.1633 C   0  0  0  0  0  0  0  0  0  0  0  0
    7.6778  -18.4961   26.5742 C   0  0  0  0  0  0  0  0  0  0  0  0
    8.2968  -19.5709   26.8660 O   0  0  0  0  0  0  0  0  0  0  0  0
    8.7885  -15.9001   25.7014 C   0  0  0  0  0  0  0  0  0  0  0  0
    9.9876  -16.0426   25.2354 O   0  0  0  0  0  0  0  0  0  0  0  0
    7.0525  -17.8551   27.6040 O   0  0  0  0  0  0  0  0  0  0  0  0
    8.6425  -15.1080   26.8421 N   0  0  0  0  0  0  0  0  0  0  0  0
    7.3899  -14.7755   27.4710 C   0  0  0  0  0  0  0  0  0  0  0  0
    7.6414  -13.3404   27.9310 C   0  0  0  0  0  0  0  0  0  0  0  0
    9.1197  -13.0800   27.7284 C   0  0  0  0  0  0  0  0  0  0  0  0
    9.6514  -14.5013   27.6412 C   0  0  1  0  0  0  0  0  0  0  0  0
    9.7835  -15.1142   28.9842 C   0  0  0  0  0  0  0  0  0  0  0  0
   10.7754  -14.7384   29.8346 O   0  0  0  0  0  0  0  0  0  0  0  0
    8.9625  -15.9894   29.3280 O   0  0  0  0  0  0  0  0  0  0  0  0
  1  2  1  0
  2  3  2  0
  3  4  1  0
  5  4  2  0
  5  6  1  0
  7  6  1  0
  7  8  1  6
  9  7  1  0
  9 13  1  0
 10  9  2  0
 11  5  1  0
 12  2  1  0
 12 11  2  0
 14 13  1  0
 14 18  1  0
 14 15  1  6
 15 16  1  0
 16 17  2  0
 16 20  1  0
 18 19  2  0
 21 18  1  0
 21 22  1  0
 22 23  1  0
 24 23  1  0
 25 24  1  0
 25 21  1  0
 25 26  1  1
 27 26  1  0
 28 26  2  0
M  END
$$$$
