YDP.pdb
     RDKit          3D

 28 29  0  0  1  0  0  0  0  0999 V2000
   10.6139  -16.4250   31.8911 O   0  0  0  0  0  0  0  0  0  0  0  0
   10.5177  -15.9447   30.6027 C   0  0  0  0  0  0  0  0  0  0  0  0
   10.9155  -16.7432   29.5341 C   0  0  0  0  0  0  0  0  0  0  0  0
   10.8190  -16.2637   28.2530 C   0  0  0  0  0  0  0  0  0  0  0  0
   10.3211  -14.9808   28.0626 C   0  0  0  0  0  0  0  0  0  0  0  0
   10.2157  -14.4607   26.6808 C   0  0  0  0  0  0  0  0  0  0  0  0
    9.1979  -15.2400   25.8801 C   0  0  2  0  0  0  0  0  0  0  0  0
    9.3909  -16.6385   26.1357 N   0  0  0  0  0  0  0  0  0  0  0  0
    9.4125  -14.9004   24.4445 C   0  0  0  0  0  0  0  0  0  0  0  0
    9.2773  -13.7173   24.0487 O   0  0  0  0  0  0  0  0  0  0  0  0
    9.9282  -14.1911   29.1110 C   0  0  0  0  0  0  0  0  0  0  0  0
   10.0295  -14.6810   30.3837 C   0  0  0  0  0  0  0  0  0  0  0  0
    9.7673  -15.8997   23.5242 N   0  0  0  0  0  0  0  0  0  0  0  0
    9.9594  -15.6455   22.0962 C   0  0  1  0  0  0  0  0  0  0  0  0
   10.9730  -16.6216   21.5481 C   0  0  0  0  0  0  0  0  0  0  0  0
   12.3374  -16.4129   22.0424 C   0  0  0  0  0  0  0  0  0  0  0  0
   12.9280  -15.3723   21.6048 O   0  0  0  0  0  0  0  0  0  0  0  0
    8.6473  -15.7068   21.4398 C   0  0  0  0  0  0  0  0  0  0  0  0
    7.7900  -16.4791   22.0261 O   0  0  0  0  0  0  0  0  0  0  0  0
   13.0446  -17.1951   22.9088 O   0  0  0  0  0  0  0  0  0  0  0  0
    8.2194  -15.0465   20.2863 N   0  0  0  0  0  0  0  0  0  0  0  0
    8.9911  -14.0844   19.5419 C   0  0  0  0  0  0  0  0  0  0  0  0
    7.9150  -13.0942   19.0996 C   0  0  0  0  0  0  0  0  0  0  0  0
    6.5832  -13.7319   19.4371 C   0  0  0  0  0  0  0  0  0  0  0  0
    6.9918  -15.1888   19.5810 C   0  0  1  0  0  0  0  0  0  0  0  0
    7.1469  -15.8416   18.2594 C   0  0  0  0  0  0  0  0  0  0  0  0
    8.3762  -16.1488   17.7666 O   0  0  0  0  0  0  0  0  0  0  0  0
    6.1227  -16.1090   17.5979 O   0  0  0  0  0  0  0  0  0  0  0  0
  1  2  1  0
  2  3  2  0
  3  4  1  0
  5  4  2  0
  5  6  1  0
  7  6  1  0
  7  8  1  6
  9  7  1  0
  9 13  1  0
 10  9  2  0
 11  5  1  0
 12  2  1  0
 12 11  2  0
 14 13  1  0
 14 18  1  0
 14 15  1  6
 15 16  1  0
 16 17  2  0
 16 20  1  0
 18 19  2  0
 21 18  1  0
 21 22  1  0
 22 23  1  0
 24 23  1  0
 25 24  1  0
 25 21  1  0
 25 26  1  6
 27 26  1  0
 28 26  2  0
M  END
$$$$
