LTN.pdb
     RDKit          3D

 24 23  0  0  1  0  0  0  0  0999 V2000
   17.4525  -20.0806  -13.2573 C   0  0  0  0  0  0  0  0  0  0  0  0
   18.4182  -19.8222  -12.1153 C   0  0  2  0  0  0  0  0  0  0  0  0
   17.6240  -19.4938  -10.8934 C   0  0  0  0  0  0  0  0  0  0  0  0
   19.3339  -18.6616  -12.4853 C   0  0  0  0  0  0  0  0  0  0  0  0
   20.1214  -19.0470  -13.7219 C   0  0  2  0  0  0  0  0  0  0  0  0
   20.9573  -20.1775  -13.4242 N   0  0  0  0  0  0  0  0  0  0  0  0
   20.8676  -17.9003  -14.2686 C   0  0  0  0  0  0  0  0  0  0  0  0
   21.8681  -17.4878  -13.6297 O   0  0  0  0  0  0  0  0  0  0  0  0
   22.9490  -17.5399  -17.1443 C   0  0  0  0  0  0  0  0  0  0  0  0
   21.9711  -16.3901  -17.2719 C   0  0  1  0  0  0  0  0  0  0  0  0
   20.9725  -16.7852  -18.1634 O   0  0  0  0  0  0  0  0  0  0  0  0
   21.3016  -16.0783  -15.9569 C   0  0  2  0  0  0  0  0  0  0  0  0
   20.5357  -17.2203  -15.4766 N   0  0  0  0  0  0  0  0  0  0  0  0
   20.4271  -14.9139  -16.0006 C   0  0  0  0  0  0  0  0  0  0  0  0
   19.1933  -15.0266  -15.7670 O   0  0  0  0  0  0  0  0  0  0  0  0
   17.3957  -10.9925  -15.3304 N   0  0  0  0  0  0  0  0  0  0  0  0
   18.6659  -11.0736  -14.7004 C   0  0  0  0  0  0  0  0  0  0  0  0
   19.0783  -10.1017  -14.0181 O   0  0  0  0  0  0  0  0  0  0  0  0
   19.5349  -12.2680  -14.8140 C   0  0  0  0  0  0  0  0  0  0  0  0
   19.9723  -12.4620  -16.2609 C   0  0  2  0  0  0  0  0  0  0  0  0
   20.8711  -13.5896  -16.3014 N   0  0  0  0  0  0  0  0  0  0  0  0
   20.5986  -11.2244  -16.7715 C   0  0  0  0  0  0  0  0  0  0  0  0
   21.8506  -11.1189  -16.8262 O   0  0  0  0  0  0  0  0  0  0  0  0
   19.8436  -10.1465  -17.2036 O   0  0  0  0  0  0  0  0  0  0  0  0
  2  1  1  6
  2  3  1  0
  4  2  1  0
  4  5  1  0
  5  6  1  1
  5  7  1  0
  7  8  2  0
 10  9  1  1
 11 10  1  0
 12 10  1  0
 13  7  1  0
 12 13  1  6
 14 12  1  0
 14 15  2  0
 16 17  1  0
 17 18  2  0
 17 19  1  0
 20 19  1  1
 20 21  1  0
 21 14  1  0
 22 20  1  0
 22 24  1  0
 23 22  2  0
M  END
$$$$
