LTN.pdb
     RDKit          3D

 24 23  0  0  1  0  0  0  0  0999 V2000
   27.0990  -20.3347   -4.6689 C   0  0  0  0  0  0  0  0  0  0  0  0
   28.1835  -19.9699   -5.6660 C   0  0  2  0  0  0  0  0  0  0  0  0
   29.0638  -18.9347   -5.0452 C   0  0  0  0  0  0  0  0  0  0  0  0
   27.5368  -19.4296   -6.9357 C   0  0  0  0  0  0  0  0  0  0  0  0
   26.8507  -20.5769   -7.6503 C   0  0  2  0  0  0  0  0  0  0  0  0
   27.7819  -21.6575   -7.8252 N   0  0  0  0  0  0  0  0  0  0  0  0
   26.2287  -20.1359   -8.9110 C   0  0  0  0  0  0  0  0  0  0  0  0
   25.6028  -19.0461   -8.9113 O   0  0  0  0  0  0  0  0  0  0  0  0
   28.1361  -19.4184  -11.9226 C   0  0  0  0  0  0  0  0  0  0  0  0
   26.9693  -20.2553  -12.4050 C   0  0  1  0  0  0  0  0  0  0  0  0
   27.4246  -21.5667  -12.5499 O   0  0  0  0  0  0  0  0  0  0  0  0
   25.8456  -20.2785  -11.3993 C   0  0  2  0  0  0  0  0  0  0  0  0
   26.2851  -20.8593  -10.1379 N   0  0  0  0  0  0  0  0  0  0  0  0
   24.6598  -20.9920  -11.8545 C   0  0  0  0  0  0  0  0  0  0  0  0
   24.2127  -21.9765  -11.2061 O   0  0  0  0  0  0  0  0  0  0  0  0
   20.0271  -22.2134  -13.3551 N   0  0  0  0  0  0  0  0  0  0  0  0
   20.3742  -21.3890  -12.2521 C   0  0  0  0  0  0  0  0  0  0  0  0
   19.5128  -21.1463  -11.3692 O   0  0  0  0  0  0  0  0  0  0  0  0
   21.7230  -20.7967  -12.0956 C   0  0  0  0  0  0  0  0  0  0  0  0
   22.6045  -21.1811  -13.2779 C   0  0  2  0  0  0  0  0  0  0  0  0
   23.9246  -20.6542  -13.0321 N   0  0  0  0  0  0  0  0  0  0  0  0
   22.0189  -20.6688  -14.5346 C   0  0  0  0  0  0  0  0  0  0  0  0
   21.9278  -19.4310  -14.7376 O   0  0  0  0  0  0  0  0  0  0  0  0
   21.5533  -21.5181  -15.5247 O   0  0  0  0  0  0  0  0  0  0  0  0
  2  1  1  1
  2  3  1  0
  4  2  1  0
  4  5  1  0
  5  6  1  6
  5  7  1  0
  7  8  2  0
 10  9  1  1
 11 10  1  0
 12 10  1  0
 13  7  1  0
 12 13  1  1
 14 12  1  0
 14 15  2  0
 16 17  1  0
 17 18  2  0
 17 19  1  0
 20 19  1  1
 20 21  1  0
 21 14  1  0
 22 20  1  0
 22 24  1  0
 23 22  2  0
M  END
$$$$
