LTN.pdb
     RDKit          3D

 24 23  0  0  1  0  0  0  0  0999 V2000
   27.2774  -18.4334   -6.3154 C   0  0  0  0  0  0  0  0  0  0  0  0
   27.5107  -19.9327   -6.3467 C   0  0  2  0  0  0  0  0  0  0  0  0
   28.9054  -20.2011   -5.8836 C   0  0  0  0  0  0  0  0  0  0  0  0
   27.3129  -20.4418   -7.7695 C   0  0  0  0  0  0  0  0  0  0  0  0
   25.8549  -20.2641   -8.1442 C   0  0  2  0  0  0  0  0  0  0  0  0
   25.0260  -20.9045   -7.1603 N   0  0  0  0  0  0  0  0  0  0  0  0
   25.5882  -20.7253   -9.5179 C   0  0  0  0  0  0  0  0  0  0  0  0
   25.7770  -21.9397   -9.7805 O   0  0  0  0  0  0  0  0  0  0  0  0
   22.9055  -21.8188  -11.0667 C   0  0  0  0  0  0  0  0  0  0  0  0
   23.3324  -20.7161  -12.0134 C   0  0  1  0  0  0  0  0  0  0  0  0
   22.6442  -19.5584  -11.6472 O   0  0  0  0  0  0  0  0  0  0  0  0
   24.8063  -20.4188  -11.8956 C   0  0  2  0  0  0  0  0  0  0  0  0
   25.1289  -19.8896  -10.5774 N   0  0  0  0  0  0  0  0  0  0  0  0
   25.3053  -19.4947  -12.9053 C   0  0  0  0  0  0  0  0  0  0  0  0
   25.5287  -18.2875  -12.6185 O   0  0  0  0  0  0  0  0  0  0  0  0
   28.8417  -18.6076  -17.7243 N   0  0  0  0  0  0  0  0  0  0  0  0
   27.7435  -18.3462  -16.8627 C   0  0  0  0  0  0  0  0  0  0  0  0
   27.1025  -17.2723  -16.9902 O   0  0  0  0  0  0  0  0  0  0  0  0
   27.3162  -19.2955  -15.8088 C   0  0  0  0  0  0  0  0  0  0  0  0
   25.9635  -18.8780  -15.2446 C   0  0  2  0  0  0  0  0  0  0  0  0
   25.5757  -19.8585  -14.2602 N   0  0  0  0  0  0  0  0  0  0  0  0
   24.9748  -18.7552  -16.3365 C   0  0  0  0  0  0  0  0  0  0  0  0
   24.8606  -17.6778  -16.9751 O   0  0  0  0  0  0  0  0  0  0  0  0
   24.1463  -19.8056  -16.6952 O   0  0  0  0  0  0  0  0  0  0  0  0
  2  1  1  6
  2  3  1  0
  4  2  1  0
  4  5  1  0
  5  6  1  1
  5  7  1  0
  7  8  2  0
 10  9  1  1
 11 10  1  0
 12 10  1  0
 13  7  1  0
 12 13  1  1
 14 12  1  0
 14 15  2  0
 16 17  1  0
 17 18  2  0
 17 19  1  0
 20 19  1  6
 20 21  1  0
 21 14  1  0
 22 20  1  0
 22 24  1  0
 23 22  2  0
M  END
$$$$
