LTN.pdb
     RDKit          3D

 24 23  0  0  1  0  0  0  0  0999 V2000
   26.4635  -20.7040   -6.3904 C   0  0  0  0  0  0  0  0  0  0  0  0
   27.6440  -20.4960   -7.3212 C   0  0  2  0  0  0  0  0  0  0  0  0
   28.5601  -19.4919   -6.7013 C   0  0  0  0  0  0  0  0  0  0  0  0
   27.1383  -19.9971   -8.6695 C   0  0  0  0  0  0  0  0  0  0  0  0
   27.3180  -21.1044   -9.6890 C   0  0  2  0  0  0  0  0  0  0  0  0
   28.7077  -21.4617   -9.7680 N   0  0  0  0  0  0  0  0  0  0  0  0
   26.7363  -20.7405  -10.9928 C   0  0  0  0  0  0  0  0  0  0  0  0
   27.3243  -19.8671  -11.6788 O   0  0  0  0  0  0  0  0  0  0  0  0
   24.8437  -21.7662  -15.2331 C   0  0  0  0  0  0  0  0  0  0  0  0
   25.3227  -22.1047  -13.8365 C   0  0  1  0  0  0  0  0  0  0  0  0
   26.7039  -22.2949  -13.9008 O   0  0  0  0  0  0  0  0  0  0  0  0
   25.0695  -20.9745  -12.8704 C   0  0  2  0  0  0  0  0  0  0  0  0
   25.5480  -21.3102  -11.5364 N   0  0  0  0  0  0  0  0  0  0  0  0
   23.6708  -20.5773  -12.7792 C   0  0  0  0  0  0  0  0  0  0  0  0
   23.2278  -20.0155  -11.7411 O   0  0  0  0  0  0  0  0  0  0  0  0
   18.9228  -18.9466  -13.7086 N   0  0  0  0  0  0  0  0  0  0  0  0
   20.0982  -18.1593  -13.5852 C   0  0  0  0  0  0  0  0  0  0  0  0
   19.9940  -16.9138  -13.4497 O   0  0  0  0  0  0  0  0  0  0  0  0
   21.4567  -18.7495  -13.6092 C   0  0  0  0  0  0  0  0  0  0  0  0
   21.3669  -20.2669  -13.7183 C   0  0  2  0  0  0  0  0  0  0  0  0
   22.7109  -20.7812  -13.8177 N   0  0  0  0  0  0  0  0  0  0  0  0
   20.5329  -20.6433  -14.8791 C   0  0  0  0  0  0  0  0  0  0  0  0
   19.3363  -20.9950  -14.7174 O   0  0  0  0  0  0  0  0  0  0  0  0
   21.0277  -20.6246  -16.1727 O   0  0  0  0  0  0  0  0  0  0  0  0
  2  1  1  1
  2  3  1  0
  4  2  1  0
  4  5  1  0
  5  6  1  6
  5  7  1  0
  7  8  2  0
 10  9  1  6
 11 10  1  0
 12 10  1  0
 13  7  1  0
 12 13  1  1
 14 12  1  0
 14 15  2  0
 16 17  1  0
 17 18  2  0
 17 19  1  0
 20 19  1  6
 20 21  1  0
 21 14  1  0
 22 20  1  0
 22 24  1  0
 23 22  2  0
M  END
$$$$
