LTN.pdb
     RDKit          3D

 24 23  0  0  1  0  0  0  0  0999 V2000
   27.3522  -18.2845   -6.2531 C   0  0  0  0  0  0  0  0  0  0  0  0
   27.4476  -19.7808   -6.0181 C   0  0  2  0  0  0  0  0  0  0  0  0
   28.8032  -20.0849   -5.4689 C   0  0  0  0  0  0  0  0  0  0  0  0
   27.2295  -20.5110   -7.3379 C   0  0  0  0  0  0  0  0  0  0  0  0
   25.8791  -20.1046   -7.8937 C   0  0  2  0  0  0  0  0  0  0  0  0
   24.8915  -21.0755   -7.5101 N   0  0  0  0  0  0  0  0  0  0  0  0
   25.9375  -19.8783   -9.3484 C   0  0  0  0  0  0  0  0  0  0  0  0
   26.9728  -19.3465   -9.8224 O   0  0  0  0  0  0  0  0  0  0  0  0
   26.0669  -22.5125  -11.6979 C   0  0  0  0  0  0  0  0  0  0  0  0
   26.2763  -21.0662  -12.0966 C   0  0  1  0  0  0  0  0  0  0  0  0
   26.3773  -21.0245  -13.4880 O   0  0  0  0  0  0  0  0  0  0  0  0
   25.1024  -20.2039  -11.7053 C   0  0  2  0  0  0  0  0  0  0  0  0
   24.8993  -20.2206  -10.2631 N   0  0  0  0  0  0  0  0  0  0  0  0
   23.8536  -20.5745  -12.3577 C   0  0  0  0  0  0  0  0  0  0  0  0
   22.9874  -21.2584  -11.7481 O   0  0  0  0  0  0  0  0  0  0  0  0
   20.9315  -23.0618  -16.2279 N   0  0  0  0  0  0  0  0  0  0  0  0
   20.9350  -22.6002  -14.8849 C   0  0  0  0  0  0  0  0  0  0  0  0
   19.8590  -22.5881  -14.2348 O   0  0  0  0  0  0  0  0  0  0  0  0
   22.1660  -22.1276  -14.2098 C   0  0  0  0  0  0  0  0  0  0  0  0
   22.2583  -20.6086  -14.2916 C   0  0  2  0  0  0  0  0  0  0  0  0
   23.5107  -20.2112  -13.6963 N   0  0  0  0  0  0  0  0  0  0  0  0
   21.0949  -19.9931  -13.6189 C   0  0  0  0  0  0  0  0  0  0  0  0
   20.9812  -20.0443  -12.3675 O   0  0  0  0  0  0  0  0  0  0  0  0
   20.0976  -19.3449  -14.3287 O   0  0  0  0  0  0  0  0  0  0  0  0
  2  1  1  6
  2  3  1  0
  4  2  1  0
  4  5  1  0
  5  6  1  6
  5  7  1  0
  7  8  2  0
 10  9  1  6
 11 10  1  0
 12 10  1  0
 13  7  1  0
 12 13  1  1
 14 12  1  0
 14 15  2  0
 16 17  1  0
 17 18  2  0
 17 19  1  0
 20 19  1  1
 20 21  1  0
 21 14  1  0
 22 20  1  0
 22 24  1  0
 23 22  2  0
M  END
$$$$
