LTN.pdb
     RDKit          3D

 24 23  0  0  1  0  0  0  0  0999 V2000
   24.7551  -15.4411  -14.7991 C   0  0  0  0  0  0  0  0  0  0  0  0
   25.5065  -15.1271  -16.0799 C   0  0  2  0  0  0  0  0  0  0  0  0
   26.9700  -15.2591  -15.8106 C   0  0  0  0  0  0  0  0  0  0  0  0
   25.1706  -13.7085  -16.5239 C   0  0  0  0  0  0  0  0  0  0  0  0
   23.6746  -13.6181  -16.7504 C   0  0  2  0  0  0  0  0  0  0  0  0
   23.2662  -14.6459  -17.6681 N   0  0  0  0  0  0  0  0  0  0  0  0
   23.2712  -12.2661  -17.1748 C   0  0  0  0  0  0  0  0  0  0  0  0
   23.9922  -11.6710  -18.0147 O   0  0  0  0  0  0  0  0  0  0  0  0
   20.6210  -11.4476  -19.2679 C   0  0  0  0  0  0  0  0  0  0  0  0
   20.3984  -10.5285  -18.0846 C   0  0  1  0  0  0  0  0  0  0  0  0
   19.4718  -11.1450  -17.2424 O   0  0  0  0  0  0  0  0  0  0  0  0
   21.6638  -10.3266  -17.2890 C   0  0  2  0  0  0  0  0  0  0  0  0
   22.1160  -11.5795  -16.6996 N   0  0  0  0  0  0  0  0  0  0  0  0
   21.5454   -9.3293  -16.2336 C   0  0  0  0  0  0  0  0  0  0  0  0
   21.6718   -9.6559  -15.0225 O   0  0  0  0  0  0  0  0  0  0  0  0
   21.0529   -4.9695  -13.4919 N   0  0  0  0  0  0  0  0  0  0  0  0
   22.3042   -5.2935  -14.0800 C   0  0  0  0  0  0  0  0  0  0  0  0
   23.3428   -4.7090  -13.6799 O   0  0  0  0  0  0  0  0  0  0  0  0
   22.4394   -6.3023  -15.1565 C   0  0  0  0  0  0  0  0  0  0  0  0
   21.1097   -7.0131  -15.3785 C   0  0  2  0  0  0  0  0  0  0  0  0
   21.2847   -7.9439  -16.4664 N   0  0  0  0  0  0  0  0  0  0  0  0
   20.0452   -6.0241  -15.6495 C   0  0  0  0  0  0  0  0  0  0  0  0
   19.7026   -5.7638  -16.8312 O   0  0  0  0  0  0  0  0  0  0  0  0
   19.3919   -5.3537  -14.6287 O   0  0  0  0  0  0  0  0  0  0  0  0
  2  1  1  1
  2  3  1  0
  4  2  1  0
  4  5  1  0
  5  6  1  6
  5  7  1  0
  7  8  2  0
 10  9  1  6
 11 10  1  0
 12 10  1  0
 13  7  1  0
 12 13  1  1
 14 12  1  0
 14 15  2  0
 16 17  1  0
 17 18  2  0
 17 19  1  0
 20 19  1  6
 20 21  1  0
 21 14  1  0
 22 20  1  0
 22 24  1  0
 23 22  2  0
M  END
$$$$
