RIK.pdb
     RDKit          3D

 29 28  0  0  1  0  0  0  0  0999 V2000
   20.7914  -22.8477  -19.5368 N   0  0  0  0  0  0  0  0  0  0  0  0
   20.1522  -21.8669  -20.3720 C   0  0  0  0  0  0  0  0  0  0  0  0
   19.8826  -22.1306  -21.5970 N   0  0  0  0  0  0  0  0  0  0  0  0
   19.8225  -20.6015  -19.8266 N   0  0  0  0  0  0  0  0  0  0  0  0
   20.0803  -20.3304  -18.4140 C   0  0  0  0  0  0  0  0  0  0  0  0
   21.4836  -19.8108  -18.3141 C   0  0  0  0  0  0  0  0  0  0  0  0
   21.9479  -19.4858  -16.9469 C   0  0  0  0  0  0  0  0  0  0  0  0
   20.9536  -18.8263  -16.0336 C   0  0  2  0  0  0  0  0  0  0  0  0
   20.5953  -17.4936  -16.4480 N   0  0  0  0  0  0  0  0  0  0  0  0
   21.6265  -18.7644  -14.6857 C   0  0  0  0  0  0  0  0  0  0  0  0
   22.2257  -17.7113  -14.3652 O   0  0  0  0  0  0  0  0  0  0  0  0
   19.4567  -21.4499  -22.2428 C   0  0  0  0  0  0  0  0  0  0  0  0
   19.0404  -20.2557  -10.3314 C   0  0  0  0  0  0  0  0  0  0  0  0
   19.9711  -19.5640  -11.3504 C   0  0  2  0  0  0  0  0  0  0  0  0
   21.2644  -20.2926  -11.4440 C   0  0  0  0  0  0  0  0  0  0  0  0
   21.8714  -20.2999  -10.0331 C   0  0  2  0  0  0  0  0  0  0  0  0
   22.2478  -19.7860  -12.4534 N   0  0  0  0  0  0  0  0  0  0  0  0
   21.5956  -19.8529  -13.7911 C   0  0  0  0  0  0  0  0  0  0  0  0
   23.5162  -20.5464  -12.5272 O   0  0  0  0  0  0  0  0  0  0  0  0
   24.3236  -20.5102  -11.5254 N   0  0  0  0  0  0  0  0  0  0  0  0
   23.9351  -21.3339  -13.6209 C   0  0  1  0  0  0  0  0  0  0  0  0
   25.2861  -22.0186  -13.6108 C   0  0  0  0  0  0  0  0  0  0  0  0
   25.1207  -23.1197  -14.5583 C   0  0  0  0  0  0  0  0  0  0  0  0
   24.0540  -24.1010  -14.5670 C   0  0  0  0  0  0  0  0  0  0  0  0
   24.2441  -25.2736  -15.4626 C   0  0  0  0  0  0  0  0  0  0  0  0
   22.9083  -26.0373  -15.5789 N   0  0  0  0  0  0  0  0  0  0  0  0
   23.0818  -27.1352  -16.4847 C   0  0  0  0  0  0  0  0  0  0  0  0
   26.3128  -21.0091  -13.7446 O   0  0  0  0  0  0  0  0  0  0  0  0
   26.2493  -19.9199  -14.3822 O   0  0  0  0  0  0  0  0  0  0  0  0
  1  2  1  0
  2  3  2  0
  4  5  1  0
  4  2  1  0
  6  5  1  0
  7  6  1  0
  8  7  1  0
  8  9  1  6
 10  8  1  0
 10 17  1  0
 11 10  2  0
 12 13  1  0
 13 14  1  0
 14 16  1  0
 14 15  1  6
 16 17  1  1
 18 16  1  0
 19 18  2  0
 20 18  1  0
 21 20  1  0
 21 27  1  0
 21 22  1  6
 23 22  1  0
 24 23  1  0
 25 24  1  0
 26 25  1  0
 27 29  1  0
 28 27  2  0
M  END
$$$$
