RIK.pdb
     RDKit          3D

 29 28  0  0  1  0  0  0  0  0999 V2000
   28.7596  -18.0781  -19.4395 N   0  0  0  0  0  0  0  0  0  0  0  0
   27.4193  -18.5991  -19.4253 C   0  0  0  0  0  0  0  0  0  0  0  0
   26.9550  -19.2303  -20.4396 N   0  0  0  0  0  0  0  0  0  0  0  0
   26.6134  -18.4068  -18.2760 N   0  0  0  0  0  0  0  0  0  0  0  0
   27.1431  -17.6650  -17.1337 C   0  0  0  0  0  0  0  0  0  0  0  0
   27.8783  -18.6483  -16.2725 C   0  0  0  0  0  0  0  0  0  0  0  0
   27.0362  -19.4464  -15.3537 C   0  0  0  0  0  0  0  0  0  0  0  0
   27.7495  -20.4054  -14.4431 C   0  0  2  0  0  0  0  0  0  0  0  0
   28.4776  -21.4284  -15.1499 N   0  0  0  0  0  0  0  0  0  0  0  0
   26.6686  -21.0483  -13.6114 C   0  0  0  0  0  0  0  0  0  0  0  0
   26.1189  -22.0872  -14.0463 O   0  0  0  0  0  0  0  0  0  0  0  0
   25.9952  -19.6028  -20.4847 C   0  0  0  0  0  0  0  0  0  0  0  0
   26.7427  -20.5885   -8.1266 C   0  0  0  0  0  0  0  0  0  0  0  0
   26.5216  -21.2779   -9.4900 C   0  0  2  0  0  0  0  0  0  0  0  0
   25.3216  -20.7137  -10.1639 C   0  0  0  0  0  0  0  0  0  0  0  0
   24.1062  -21.1217   -9.3179 C   0  0  2  0  0  0  0  0  0  0  0  0
   25.1266  -21.0793  -11.6029 N   0  0  0  0  0  0  0  0  0  0  0  0
   26.2694  -20.5111  -12.3712 C   0  0  0  0  0  0  0  0  0  0  0  0
   23.8740  -20.5766  -12.2118 O   0  0  0  0  0  0  0  0  0  0  0  0
   23.7209  -19.3077  -12.3643 N   0  0  0  0  0  0  0  0  0  0  0  0
   22.8024  -21.3791  -12.6583 C   0  0  1  0  0  0  0  0  0  0  0  0
   21.5860  -20.7552  -13.3104 C   0  0  0  0  0  0  0  0  0  0  0  0
   21.4250  -21.5231  -14.5440 C   0  0  0  0  0  0  0  0  0  0  0  0
   20.3704  -21.3709  -15.5267 C   0  0  0  0  0  0  0  0  0  0  0  0
   20.4150  -22.2965  -16.6904 C   0  0  0  0  0  0  0  0  0  0  0  0
   19.1847  -22.0369  -17.5849 N   0  0  0  0  0  0  0  0  0  0  0  0
   19.2709  -22.8773  -18.7435 C   0  0  0  0  0  0  0  0  0  0  0  0
   20.5443  -20.6326  -12.3149 O   0  0  0  0  0  0  0  0  0  0  0  0
   20.4300  -21.2722  -11.2310 O   0  0  0  0  0  0  0  0  0  0  0  0
  1  2  1  0
  2  3  2  0
  4  5  1  0
  4  2  1  0
  6  5  1  0
  7  6  1  0
  8  7  1  0
  8  9  1  6
 10  8  1  0
 10 17  1  0
 11 10  2  0
 12 13  1  0
 13 14  1  0
 14 16  1  0
 14 15  1  6
 16 17  1  6
 18 16  1  0
 19 18  2  0
 20 18  1  0
 21 20  1  0
 21 27  1  0
 21 22  1  1
 23 22  1  0
 24 23  1  0
 25 24  1  0
 26 25  1  0
 27 29  1  0
 28 27  2  0
M  END
$$$$
