RIK.pdb
     RDKit          3D

 29 28  0  0  1  0  0  0  0  0999 V2000
   26.9814  -15.5581  -18.4380 N   0  0  0  0  0  0  0  0  0  0  0  0
   28.0400  -16.2620  -17.7658 C   0  0  0  0  0  0  0  0  0  0  0  0
   29.2601  -15.8971  -17.9115 N   0  0  0  0  0  0  0  0  0  0  0  0
   27.7211  -17.3671  -16.9385 N   0  0  0  0  0  0  0  0  0  0  0  0
   26.4275  -18.0317  -17.0817 C   0  0  0  0  0  0  0  0  0  0  0  0
   26.2607  -18.9319  -15.8939 C   0  0  0  0  0  0  0  0  0  0  0  0
   27.3445  -18.8683  -14.8880 C   0  0  0  0  0  0  0  0  0  0  0  0
   27.9091  -20.1790  -14.4179 C   0  0  2  0  0  0  0  0  0  0  0  0
   28.2716  -21.0633  -15.4963 N   0  0  0  0  0  0  0  0  0  0  0  0
   26.8156  -20.8160  -13.5982 C   0  0  0  0  0  0  0  0  0  0  0  0
   26.2623  -21.8496  -14.0412 O   0  0  0  0  0  0  0  0  0  0  0  0
   30.0557  -16.3984  -17.4901 C   0  0  0  0  0  0  0  0  0  0  0  0
   26.9214  -19.8932   -8.2006 C   0  0  0  0  0  0  0  0  0  0  0  0
   26.6885  -20.8200   -9.4130 C   0  0  2  0  0  0  0  0  0  0  0  0
   25.4618  -20.4094  -10.1472 C   0  0  0  0  0  0  0  0  0  0  0  0
   24.2654  -20.8418   -9.2866 C   0  0  2  0  0  0  0  0  0  0  0  0
   25.3243  -20.9055  -11.5534 N   0  0  0  0  0  0  0  0  0  0  0  0
   26.4085  -20.2790  -12.3604 C   0  0  0  0  0  0  0  0  0  0  0  0
   24.0324  -20.5901  -12.2044 O   0  0  0  0  0  0  0  0  0  0  0  0
   23.9646  -19.5784  -12.9972 N   0  0  0  0  0  0  0  0  0  0  0  0
   22.8339  -21.3167  -12.0378 C   0  0  1  0  0  0  0  0  0  0  0  0
   21.8087  -21.3867  -13.1505 C   0  0  0  0  0  0  0  0  0  0  0  0
   22.0447  -22.6973  -13.7537 C   0  0  0  0  0  0  0  0  0  0  0  0
   21.9599  -23.0296  -15.1621 C   0  0  0  0  0  0  0  0  0  0  0  0
   22.6321  -24.2878  -15.5842 C   0  0  0  0  0  0  0  0  0  0  0  0
   21.5610  -25.3728  -15.8224 N   0  0  0  0  0  0  0  0  0  0  0  0
   22.2112  -26.5771  -16.2500 C   0  0  0  0  0  0  0  0  0  0  0  0
   20.5265  -20.9813  -12.6187 O   0  0  0  0  0  0  0  0  0  0  0  0
   20.1176  -21.0761  -11.4267 O   0  0  0  0  0  0  0  0  0  0  0  0
  1  2  1  0
  2  3  2  0
  4  5  1  0
  4  2  1  0
  6  5  1  0
  7  6  1  0
  8  7  1  0
  8  9  1  6
 10  8  1  0
 10 17  1  0
 11 10  2  0
 12 13  1  0
 13 14  1  0
 14 16  1  0
 14 15  1  6
 16 17  1  6
 18 16  1  0
 19 18  2  0
 20 18  1  0
 21 20  1  0
 21 27  1  0
 21 22  1  6
 23 22  1  0
 24 23  1  0
 25 24  1  0
 26 25  1  0
 27 29  1  0
 28 27  2  0
M  END
$$$$
