RIK.pdb
     RDKit          3D

 29 28  0  0  1  0  0  0  0  0999 V2000
   26.5378  -25.2958  -17.1560 N   0  0  0  0  0  0  0  0  0  0  0  0
   26.0154  -24.6380  -18.3232 C   0  0  0  0  0  0  0  0  0  0  0  0
   24.9044  -25.0139  -18.8404 N   0  0  0  0  0  0  0  0  0  0  0  0
   26.7428  -23.5673  -18.8991 N   0  0  0  0  0  0  0  0  0  0  0  0
   27.9039  -23.0199  -18.2006 C   0  0  0  0  0  0  0  0  0  0  0  0
   27.5258  -21.6489  -17.7246 C   0  0  0  0  0  0  0  0  0  0  0  0
   26.6736  -21.6058  -16.5154 C   0  0  0  0  0  0  0  0  0  0  0  0
   27.3764  -21.6788  -15.1894 C   0  0  2  0  0  0  0  0  0  0  0  0
   28.3406  -22.7469  -15.1131 N   0  0  0  0  0  0  0  0  0  0  0  0
   26.2895  -21.9158  -14.1716 C   0  0  0  0  0  0  0  0  0  0  0  0
   25.7997  -23.0656  -14.0778 O   0  0  0  0  0  0  0  0  0  0  0  0
   24.4701  -24.5483  -19.6506 C   0  0  0  0  0  0  0  0  0  0  0  0
   26.7970  -19.9927   -9.2288 C   0  0  0  0  0  0  0  0  0  0  0  0
   26.3727  -20.9486  -10.3643 C   0  0  2  0  0  0  0  0  0  0  0  0
   25.1696  -20.4193  -11.0605 C   0  0  0  0  0  0  0  0  0  0  0  0
   24.0301  -20.4114  -10.0306 C   0  0  2  0  0  0  0  0  0  0  0  0
   24.7584  -21.1225  -12.3171 N   0  0  0  0  0  0  0  0  0  0  0  0
   25.8195  -20.8836  -13.3351 C   0  0  0  0  0  0  0  0  0  0  0  0
   23.4686  -20.6754  -12.8907 O   0  0  0  0  0  0  0  0  0  0  0  0
   23.3657  -19.4690  -13.3274 N   0  0  0  0  0  0  0  0  0  0  0  0
   22.3085  -21.4699  -13.0122 C   0  0  1  0  0  0  0  0  0  0  0  0
   21.0186  -20.8819  -13.5453 C   0  0  0  0  0  0  0  0  0  0  0  0
   20.2786  -22.0498  -14.0205 C   0  0  0  0  0  0  0  0  0  0  0  0
   18.9108  -22.0715  -14.4997 C   0  0  0  0  0  0  0  0  0  0  0  0
   18.3826  -23.3951  -14.9264 C   0  0  0  0  0  0  0  0  0  0  0  0
   16.9899  -23.1982  -15.5609 N   0  0  0  0  0  0  0  0  0  0  0  0
   16.4662  -24.4805  -15.9318 C   0  0  0  0  0  0  0  0  0  0  0  0
   20.4935  -19.9608  -12.5619 O   0  0  0  0  0  0  0  0  0  0  0  0
   20.5555  -20.0540  -11.3031 O   0  0  0  0  0  0  0  0  0  0  0  0
  1  2  1  0
  2  3  2  0
  4  5  1  0
  4  2  1  0
  6  5  1  0
  7  6  1  0
  8  7  1  0
  8  9  1  6
 10  8  1  0
 10 17  1  0
 11 10  2  0
 12 13  1  0
 13 14  1  0
 14 16  1  0
 14 15  1  6
 16 17  1  1
 18 16  1  0
 19 18  2  0
 20 18  1  0
 21 20  1  0
 21 27  1  0
 21 22  1  1
 23 22  1  0
 24 23  1  0
 25 24  1  0
 26 25  1  0
 27 29  1  0
 28 27  2  0
M  END
$$$$
