RIK.pdb
     RDKit          3D

 29 28  0  0  1  0  0  0  0  0999 V2000
   30.7048  -24.0556  -18.6068 N   0  0  0  0  0  0  0  0  0  0  0  0
   30.6771  -22.7721  -19.2548 C   0  0  0  0  0  0  0  0  0  0  0  0
   30.8786  -22.6750  -20.5169 N   0  0  0  0  0  0  0  0  0  0  0  0
   30.4248  -21.6113  -18.4826 N   0  0  0  0  0  0  0  0  0  0  0  0
   30.1715  -21.7343  -17.0486 C   0  0  0  0  0  0  0  0  0  0  0  0
   28.7266  -22.1016  -16.8863 C   0  0  0  0  0  0  0  0  0  0  0  0
   28.2180  -22.0921  -15.4964 C   0  0  0  0  0  0  0  0  0  0  0  0
   27.4428  -20.8785  -15.0679 C   0  0  2  0  0  0  0  0  0  0  0  0
   28.2787  -19.8097  -14.5831 N   0  0  0  0  0  0  0  0  0  0  0  0
   26.5422  -21.3502  -13.9544 C   0  0  0  0  0  0  0  0  0  0  0  0
   27.0585  -21.9484  -12.9816 O   0  0  0  0  0  0  0  0  0  0  0  0
   30.7547  -21.7989  -21.0449 C   0  0  0  0  0  0  0  0  0  0  0  0
   26.5279  -20.8217   -9.7694 C   0  0  0  0  0  0  0  0  0  0  0  0
   26.0720  -21.5506  -11.0516 C   0  0  2  0  0  0  0  0  0  0  0  0
   24.8511  -20.9054  -11.6044 C   0  0  0  0  0  0  0  0  0  0  0  0
   23.8173  -20.8687  -10.4689 C   0  0  2  0  0  0  0  0  0  0  0  0
   24.2726  -21.5158  -12.8434 N   0  0  0  0  0  0  0  0  0  0  0  0
   25.1498  -21.1347  -13.9855 C   0  0  0  0  0  0  0  0  0  0  0  0
   22.8928  -21.0866  -13.1665 O   0  0  0  0  0  0  0  0  0  0  0  0
   22.6482  -19.8311  -13.3098 N   0  0  0  0  0  0  0  0  0  0  0  0
   21.7886  -21.9478  -13.3422 C   0  0  1  0  0  0  0  0  0  0  0  0
   20.4248  -21.3962  -13.7027 C   0  0  0  0  0  0  0  0  0  0  0  0
   19.7729  -22.5110  -14.3878 C   0  0  0  0  0  0  0  0  0  0  0  0
   18.4007  -22.5577  -14.8527 C   0  0  0  0  0  0  0  0  0  0  0  0
   17.9609  -23.8317  -15.4823 C   0  0  0  0  0  0  0  0  0  0  0  0
   16.5112  -23.6681  -15.9852 N   0  0  0  0  0  0  0  0  0  0  0  0
   16.0726  -24.9143  -16.5424 C   0  0  0  0  0  0  0  0  0  0  0  0
   19.8670  -20.7525  -12.5340 O   0  0  0  0  0  0  0  0  0  0  0  0
   20.1332  -20.9851  -11.3208 O   0  0  0  0  0  0  0  0  0  0  0  0
  1  2  1  0
  2  3  2  0
  4  5  1  0
  4  2  1  0
  6  5  1  0
  7  6  1  0
  8  7  1  0
  8  9  1  1
 10  8  1  0
 10 17  1  0
 11 10  2  0
 12 13  1  0
 13 14  1  0
 14 16  1  0
 14 15  1  6
 16 17  1  6
 18 16  1  0
 19 18  2  0
 20 18  1  0
 21 20  1  0
 21 27  1  0
 21 22  1  1
 23 22  1  0
 24 23  1  0
 25 24  1  0
 26 25  1  0
 27 29  1  0
 28 27  2  0
M  END
$$$$
