RIK.pdb
     RDKit          3D

 29 28  0  0  1  0  0  0  0  0999 V2000
   17.5321  -18.5910  -16.8111 N   0  0  0  0  0  0  0  0  0  0  0  0
   18.2405  -19.6173  -17.5273 C   0  0  0  0  0  0  0  0  0  0  0  0
   18.2164  -19.6527  -18.8084 N   0  0  0  0  0  0  0  0  0  0  0  0
   18.9674  -20.5930  -16.8014 N   0  0  0  0  0  0  0  0  0  0  0  0
   19.0054  -20.5328  -15.3418 C   0  0  0  0  0  0  0  0  0  0  0  0
   20.4069  -20.1679  -14.9522 C   0  0  0  0  0  0  0  0  0  0  0  0
   21.1765  -21.2312  -14.2683 C   0  0  0  0  0  0  0  0  0  0  0  0
   21.3322  -21.1026  -12.7794 C   0  0  2  0  0  0  0  0  0  0  0  0
   20.2775  -20.3413  -12.1595 N   0  0  0  0  0  0  0  0  0  0  0  0
   22.6461  -20.3923  -12.5733 C   0  0  0  0  0  0  0  0  0  0  0  0
   22.6333  -19.1510  -12.4011 O   0  0  0  0  0  0  0  0  0  0  0  0
   18.6951  -20.3762  -19.3644 C   0  0  0  0  0  0  0  0  0  0  0  0
   25.7348  -21.3200   -8.6049 C   0  0  0  0  0  0  0  0  0  0  0  0
   25.0709  -20.5919   -9.7933 C   0  0  2  0  0  0  0  0  0  0  0  0
   25.7504  -20.9564  -11.0653 C   0  0  0  0  0  0  0  0  0  0  0  0
   27.2250  -20.5557  -10.9098 C   0  0  2  0  0  0  0  0  0  0  0  0
   25.1661  -20.3920  -12.3233 N   0  0  0  0  0  0  0  0  0  0  0  0
   23.8721  -21.0873  -12.5707 C   0  0  0  0  0  0  0  0  0  0  0  0
   26.0075  -20.5533  -13.5309 O   0  0  0  0  0  0  0  0  0  0  0  0
   26.3341  -21.7395  -13.9090 N   0  0  0  0  0  0  0  0  0  0  0  0
   26.4963  -19.5003  -14.3335 C   0  0  1  0  0  0  0  0  0  0  0  0
   27.4358  -19.7778  -15.4887 C   0  0  0  0  0  0  0  0  0  0  0  0
   28.0208  -18.4697  -15.7783 C   0  0  0  0  0  0  0  0  0  0  0  0
   28.7139  -18.0809  -16.9905 C   0  0  0  0  0  0  0  0  0  0  0  0
   27.8687  -17.5400  -18.0887 C   0  0  0  0  0  0  0  0  0  0  0  0
   28.7506  -17.3120  -19.3342 N   0  0  0  0  0  0  0  0  0  0  0  0
   27.9102  -16.9277  -20.4307 C   0  0  0  0  0  0  0  0  0  0  0  0
   28.2284  -20.9433  -15.1652 O   0  0  0  0  0  0  0  0  0  0  0  0
   28.8245  -21.1975  -14.0803 O   0  0  0  0  0  0  0  0  0  0  0  0
  1  2  1  0
  2  3  2  0
  4  5  1  0
  4  2  1  0
  6  5  1  0
  7  6  1  0
  8  7  1  0
  8  9  1  6
 10  8  1  0
 10 17  1  0
 11 10  2  0
 12 13  1  0
 13 14  1  0
 14 16  1  0
 14 15  1  6
 16 17  1  6
 18 16  1  0
 19 18  2  0
 20 18  1  0
 21 20  1  0
 21 27  1  0
 21 22  1  1
 23 22  1  0
 24 23  1  0
 25 24  1  0
 26 25  1  0
 27 29  1  0
 28 27  2  0
M  END
$$$$
