PQQ.pdb
     RDKit          3D

 26 26  0  0  1  0  0  0  0  0999 V2000
   19.5425  -12.7676  -15.4767 N   0  0  0  0  0  0  0  0  0  0  0  0
   19.3959  -14.0565  -16.1753 C   0  0  0  0  0  0  0  0  0  0  0  0
   18.1202  -13.8874  -16.9981 C   0  0  0  0  0  0  0  0  0  0  0  0
   17.9016  -12.4011  -17.0467 C   0  0  0  0  0  0  0  0  0  0  0  0
   19.2210  -11.8539  -16.5591 C   0  0  1  0  0  0  0  0  0  0  0  0
   19.1137  -10.4542  -16.0900 C   0  0  0  0  0  0  0  0  0  0  0  0
   19.0725   -9.5423  -16.9561 O   0  0  0  0  0  0  0  0  0  0  0  0
   16.5894   -9.1399  -10.4876 N   0  0  0  0  0  0  0  0  0  0  0  0
   15.8314   -9.0505  -11.6856 C   0  0  0  0  0  0  0  0  0  0  0  0
   14.5845   -9.1004  -11.6218 O   0  0  0  0  0  0  0  0  0  0  0  0
   16.5168   -8.8978  -12.9534 C   0  0  0  0  0  0  0  0  0  0  0  0
   17.9790   -9.0272  -13.0051 C   0  0  0  0  0  0  0  0  0  0  0  0
   18.7443   -8.7546  -14.2283 C   0  0  2  0  0  0  0  0  0  0  0  0
   19.0593  -10.1460  -14.7315 N   0  0  0  0  0  0  0  0  0  0  0  0
   20.0155   -8.0793  -14.2167 C   0  0  0  0  0  0  0  0  0  0  0  0
   21.0303   -8.6392  -13.6915 O   0  0  0  0  0  0  0  0  0  0  0  0
   25.2335   -4.2832  -17.5755 N   0  0  0  0  0  0  0  0  0  0  0  0
   24.0675   -5.1135  -17.3294 C   0  0  0  0  0  0  0  0  0  0  0  0
   23.9614   -6.0622  -18.1640 O   0  0  0  0  0  0  0  0  0  0  0  0
   23.1523   -4.8415  -16.2509 C   0  0  0  0  0  0  0  0  0  0  0  0
   21.9226   -5.5688  -16.0110 C   0  0  0  0  0  0  0  0  0  0  0  0
   21.7023   -6.2594  -14.7141 C   0  0  2  0  0  0  0  0  0  0  0  0
   20.2929   -6.7899  -14.7647 N   0  0  0  0  0  0  0  0  0  0  0  0
   21.6281   -5.3086  -13.5927 C   0  0  0  0  0  0  0  0  0  0  0  0
   22.7416   -5.0677  -12.7804 O   0  0  0  0  0  0  0  0  0  0  0  0
   20.6103   -4.6790  -13.2960 O   0  0  0  0  0  0  0  0  0  0  0  0
  2  1  1  0
  3  4  1  0
  3  2  1  0
  4  5  1  0
  5  1  1  0
  5  6  1  1
  7  6  2  0
  8  9  1  0
  9 10  2  0
  9 11  1  0
 11 12  1  0
 13 12  1  1
 13 15  1  0
 13 14  1  0
 14  6  1  0
 15 23  1  0
 16 15  2  0
 18 17  1  0
 19 18  2  0
 20 18  1  0
 21 20  1  0
 22 21  1  6
 23 22  1  0
 24 25  1  0
 24 22  1  0
 26 24  2  0
M  END
$$$$
