PQQ.pdb
     RDKit          3D

 26 26  0  0  1  0  0  0  0  0999 V2000
   20.5456  -25.3254  -13.7018 N   0  0  0  0  0  0  0  0  0  0  0  0
   20.7767  -25.0850  -15.1369 C   0  0  0  0  0  0  0  0  0  0  0  0
   20.8241  -26.4863  -15.7429 C   0  0  0  0  0  0  0  0  0  0  0  0
   20.1840  -27.3641  -14.7042 C   0  0  0  0  0  0  0  0  0  0  0  0
   19.5342  -26.3651  -13.7780 C   0  0  1  0  0  0  0  0  0  0  0  0
   19.2298  -26.9414  -12.4490 C   0  0  0  0  0  0  0  0  0  0  0  0
   18.0219  -27.1198  -12.1450 O   0  0  0  0  0  0  0  0  0  0  0  0
   23.6888  -30.1767   -9.6115 N   0  0  0  0  0  0  0  0  0  0  0  0
   22.4912  -30.9330   -9.7199 C   0  0  0  0  0  0  0  0  0  0  0  0
   22.5473  -32.1778   -9.6270 O   0  0  0  0  0  0  0  0  0  0  0  0
   21.2316  -30.2476   -9.9295 C   0  0  0  0  0  0  0  0  0  0  0  0
   21.2195  -28.7865  -10.0793 C   0  0  0  0  0  0  0  0  0  0  0  0
   19.9748  -28.0312  -10.2700 C   0  0  2  0  0  0  0  0  0  0  0  0
   20.2444  -27.2793  -11.5546 N   0  0  0  0  0  0  0  0  0  0  0  0
   19.5288  -27.0202   -9.3475 C   0  0  0  0  0  0  0  0  0  0  0  0
   20.0875  -25.8771   -9.3353 O   0  0  0  0  0  0  0  0  0  0  0  0
   15.9387  -22.8582   -9.1355 N   0  0  0  0  0  0  0  0  0  0  0  0
   15.7571  -23.1683   -7.7282 C   0  0  0  0  0  0  0  0  0  0  0  0
   15.2091  -22.2205   -7.0885 O   0  0  0  0  0  0  0  0  0  0  0  0
   16.1816  -24.4236   -7.1635 C   0  0  0  0  0  0  0  0  0  0  0  0
   16.8284  -25.4847   -7.9080 C   0  0  0  0  0  0  0  0  0  0  0  0
   18.1585  -25.9932   -7.4842 C   0  0  2  0  0  0  0  0  0  0  0  0
   18.4680  -27.1490   -8.3999 N   0  0  0  0  0  0  0  0  0  0  0  0
   18.0990  -26.6548   -6.1705 C   0  0  0  0  0  0  0  0  0  0  0  0
   18.4993  -25.9841   -5.0096 O   0  0  0  0  0  0  0  0  0  0  0  0
   17.7080  -27.8124   -6.0048 O   0  0  0  0  0  0  0  0  0  0  0  0
  2  1  1  0
  3  4  1  0
  3  2  1  0
  4  5  1  0
  5  1  1  0
  5  6  1  1
  7  6  2  0
  8  9  1  0
  9 10  2  0
  9 11  1  0
 11 12  1  0
 13 12  1  1
 13 15  1  0
 13 14  1  0
 14  6  1  0
 15 23  1  0
 16 15  2  0
 18 17  1  0
 19 18  2  0
 20 18  1  0
 21 20  1  0
 22 21  1  6
 23 22  1  0
 24 25  1  0
 24 22  1  0
 26 24  2  0
M  END
$$$$
