PQQ.pdb
     RDKit          3D

 26 26  0  0  1  0  0  0  0  0999 V2000
   28.7023  -20.6620  -13.6711 N   0  0  0  0  0  0  0  0  0  0  0  0
   29.8478  -21.2351  -12.9431 C   0  0  0  0  0  0  0  0  0  0  0  0
   29.9076  -20.4230  -11.6509 C   0  0  0  0  0  0  0  0  0  0  0  0
   28.5540  -19.7769  -11.5530 C   0  0  0  0  0  0  0  0  0  0  0  0
   27.7491  -20.5317  -12.5828 C   0  0  1  0  0  0  0  0  0  0  0  0
   26.5316  -19.7987  -12.9967 C   0  0  0  0  0  0  0  0  0  0  0  0
   25.7057  -19.4739  -12.1046 O   0  0  0  0  0  0  0  0  0  0  0  0
   27.4735  -18.5302  -18.0750 N   0  0  0  0  0  0  0  0  0  0  0  0
   28.0720  -17.8501  -16.9808 C   0  0  0  0  0  0  0  0  0  0  0  0
   29.2959  -17.6008  -17.0154 O   0  0  0  0  0  0  0  0  0  0  0  0
   27.2527  -17.4550  -15.8526 C   0  0  0  0  0  0  0  0  0  0  0  0
   25.8204  -17.7804  -15.8497 C   0  0  0  0  0  0  0  0  0  0  0  0
   25.1926  -18.5327  -14.7561 C   0  0  2  0  0  0  0  0  0  0  0  0
   26.2985  -19.4738  -14.3322 N   0  0  0  0  0  0  0  0  0  0  0  0
   24.0499  -19.3855  -14.9536 C   0  0  0  0  0  0  0  0  0  0  0  0
   24.2042  -20.5629  -15.4107 O   0  0  0  0  0  0  0  0  0  0  0  0
   19.6324  -22.8151  -12.2501 N   0  0  0  0  0  0  0  0  0  0  0  0
   19.2061  -21.4284  -12.3204 C   0  0  0  0  0  0  0  0  0  0  0  0
   18.0734  -21.2402  -11.7825 O   0  0  0  0  0  0  0  0  0  0  0  0
   20.0101  -20.4152  -12.9544 C   0  0  0  0  0  0  0  0  0  0  0  0
   21.3064  -20.6501  -13.5571 C   0  0  0  0  0  0  0  0  0  0  0  0
   21.6205  -20.0924  -14.8978 C   0  0  2  0  0  0  0  0  0  0  0  0
   22.6894  -19.0548  -14.6717 N   0  0  0  0  0  0  0  0  0  0  0  0
   20.5139  -19.2776  -15.4253 C   0  0  0  0  0  0  0  0  0  0  0  0
   19.4166  -19.8768  -16.0537 O   0  0  0  0  0  0  0  0  0  0  0  0
   20.4774  -18.0470  -15.3568 O   0  0  0  0  0  0  0  0  0  0  0  0
  2  1  1  0
  3  4  1  0
  3  2  1  0
  4  5  1  0
  5  1  1  0
  5  6  1  6
  7  6  2  0
  8  9  1  0
  9 10  2  0
  9 11  1  0
 11 12  1  0
 13 12  1  6
 13 15  1  0
 13 14  1  0
 14  6  1  0
 15 23  1  0
 16 15  2  0
 18 17  1  0
 19 18  2  0
 20 18  1  0
 21 20  1  0
 22 21  1  1
 23 22  1  0
 24 25  1  0
 24 22  1  0
 26 24  2  0
M  END
$$$$
