PQQ.pdb
     RDKit          3D

 26 26  0  0  1  0  0  0  0  0999 V2000
   25.1641  -12.2953  -15.6848 N   0  0  0  0  0  0  0  0  0  0  0  0
   26.3279  -13.1482  -15.9828 C   0  0  0  0  0  0  0  0  0  0  0  0
   26.2796  -13.3218  -17.4996 C   0  0  0  0  0  0  0  0  0  0  0  0
   25.3804  -12.2145  -17.9736 C   0  0  0  0  0  0  0  0  0  0  0  0
   25.2791  -11.3243  -16.7589 C   0  0  1  0  0  0  0  0  0  0  0  0
   24.1086  -10.4202  -16.8169 C   0  0  0  0  0  0  0  0  0  0  0  0
   24.1060   -9.5122  -17.6880 O   0  0  0  0  0  0  0  0  0  0  0  0
   18.7406  -12.6860  -15.1504 N   0  0  0  0  0  0  0  0  0  0  0  0
   18.3452  -11.3234  -15.2191 C   0  0  0  0  0  0  0  0  0  0  0  0
   17.1484  -11.0263  -15.0171 O   0  0  0  0  0  0  0  0  0  0  0  0
   19.3355  -10.3076  -15.5154 C   0  0  0  0  0  0  0  0  0  0  0  0
   20.7224  -10.7074  -15.7877 C   0  0  0  0  0  0  0  0  0  0  0  0
   21.7823   -9.7244  -16.0453 C   0  0  2  0  0  0  0  0  0  0  0  0
   23.0367  -10.5629  -15.9370 N   0  0  0  0  0  0  0  0  0  0  0  0
   22.0260   -8.5985  -15.1821 C   0  0  0  0  0  0  0  0  0  0  0  0
   22.8758   -8.6898  -14.2395 O   0  0  0  0  0  0  0  0  0  0  0  0
   25.7613   -4.5901  -16.1621 N   0  0  0  0  0  0  0  0  0  0  0  0
   24.4421   -4.2691  -16.6783 C   0  0  0  0  0  0  0  0  0  0  0  0
   24.4873   -3.4845  -17.6733 O   0  0  0  0  0  0  0  0  0  0  0  0
   23.2416   -4.7976  -16.0831 C   0  0  0  0  0  0  0  0  0  0  0  0
   23.2136   -5.7804  -15.0192 C   0  0  0  0  0  0  0  0  0  0  0  0
   21.9208   -6.1900  -14.4123 C   0  0  2  0  0  0  0  0  0  0  0  0
   21.4028   -7.3163  -15.2687 N   0  0  0  0  0  0  0  0  0  0  0  0
   20.8799   -5.1655  -14.5970 C   0  0  0  0  0  0  0  0  0  0  0  0
   20.8506   -4.0186  -13.7959 O   0  0  0  0  0  0  0  0  0  0  0  0
   19.9852   -5.2439  -15.4419 O   0  0  0  0  0  0  0  0  0  0  0  0
  2  1  1  0
  3  4  1  0
  3  2  1  0
  4  5  1  0
  5  1  1  0
  5  6  1  6
  7  6  2  0
  8  9  1  0
  9 10  2  0
  9 11  1  0
 11 12  1  0
 13 12  1  1
 13 15  1  0
 13 14  1  0
 14  6  1  0
 15 23  1  0
 16 15  2  0
 18 17  1  0
 19 18  2  0
 20 18  1  0
 21 20  1  0
 22 21  1  6
 23 22  1  0
 24 25  1  0
 24 22  1  0
 26 24  2  0
M  END
$$$$
