PQQ.pdb
     RDKit          3D

 26 26  0  0  1  0  0  0  0  0999 V2000
   28.7704  -21.3422  -13.8327 N   0  0  0  0  0  0  0  0  0  0  0  0
   30.0786  -21.7601  -13.2992 C   0  0  0  0  0  0  0  0  0  0  0  0
   30.4707  -20.6266  -12.3534 C   0  0  0  0  0  0  0  0  0  0  0  0
   29.1831  -19.8968  -12.0914 C   0  0  0  0  0  0  0  0  0  0  0  0
   28.1431  -20.8567  -12.6159 C   0  0  1  0  0  0  0  0  0  0  0  0
   26.8475  -20.1940  -12.8861 C   0  0  0  0  0  0  0  0  0  0  0  0
   26.2942  -19.5715  -11.9429 O   0  0  0  0  0  0  0  0  0  0  0  0
   25.6184  -15.9625  -15.8364 N   0  0  0  0  0  0  0  0  0  0  0  0
   24.6535  -16.6104  -16.6532 C   0  0  0  0  0  0  0  0  0  0  0  0
   23.8655  -15.9166  -17.3307 O   0  0  0  0  0  0  0  0  0  0  0  0
   24.6064  -18.0584  -16.6890 C   0  0  0  0  0  0  0  0  0  0  0  0
   25.5107  -18.8329  -15.8288 C   0  0  0  0  0  0  0  0  0  0  0  0
   25.0845  -19.3695  -14.5302 C   0  0  2  0  0  0  0  0  0  0  0  0
   26.2507  -20.2525  -14.1447 N   0  0  0  0  0  0  0  0  0  0  0  0
   23.9281  -20.2133  -14.3784 C   0  0  0  0  0  0  0  0  0  0  0  0
   23.9961  -21.4481  -14.6777 O   0  0  0  0  0  0  0  0  0  0  0  0
   17.9645  -21.5194  -11.8887 N   0  0  0  0  0  0  0  0  0  0  0  0
   19.1727  -21.7406  -11.1135 C   0  0  0  0  0  0  0  0  0  0  0  0
   18.9526  -22.3846  -10.0436 O   0  0  0  0  0  0  0  0  0  0  0  0
   20.4563  -21.2509  -11.5465 C   0  0  0  0  0  0  0  0  0  0  0  0
   20.6654  -20.3912  -12.6936 C   0  0  0  0  0  0  0  0  0  0  0  0
   21.5411  -20.8324  -13.8099 C   0  0  2  0  0  0  0  0  0  0  0  0
   22.6459  -19.8114  -13.8943 N   0  0  0  0  0  0  0  0  0  0  0  0
   20.8831  -20.6756  -15.1173 C   0  0  0  0  0  0  0  0  0  0  0  0
   20.0702  -21.6883  -15.6385 O   0  0  0  0  0  0  0  0  0  0  0  0
   21.0003  -19.6736  -15.8263 O   0  0  0  0  0  0  0  0  0  0  0  0
  2  1  1  0
  3  4  1  0
  3  2  1  0
  4  5  1  0
  5  1  1  0
  5  6  1  6
  7  6  2  0
  8  9  1  0
  9 10  2  0
  9 11  1  0
 11 12  1  0
 13 12  1  6
 13 15  1  0
 13 14  1  0
 14  6  1  0
 15 23  1  0
 16 15  2  0
 18 17  1  0
 19 18  2  0
 20 18  1  0
 21 20  1  0
 22 21  1  1
 23 22  1  0
 24 25  1  0
 24 22  1  0
 26 24  2  0
M  END
$$$$
