PQQ.pdb
     RDKit          3D

 26 26  0  0  1  0  0  0  0  0999 V2000
   16.0633  -12.4745  -13.1206 N   0  0  0  0  0  0  0  0  0  0  0  0
   16.2061  -13.4652  -14.2017 C   0  0  0  0  0  0  0  0  0  0  0  0
   15.0413  -13.1575  -15.1406 C   0  0  0  0  0  0  0  0  0  0  0  0
   14.6112  -11.7687  -14.7593 C   0  0  0  0  0  0  0  0  0  0  0  0
   15.7566  -11.2887  -13.9015 C   0  0  1  0  0  0  0  0  0  0  0  0
   15.3792  -10.1425  -13.0445 C   0  0  0  0  0  0  0  0  0  0  0  0
   15.2129   -9.0231  -13.5946 O   0  0  0  0  0  0  0  0  0  0  0  0
   12.0503  -11.4058   -8.1847 N   0  0  0  0  0  0  0  0  0  0  0  0
   11.4842  -10.7586   -9.3154 C   0  0  0  0  0  0  0  0  0  0  0  0
   10.2537  -10.8465   -9.5139 O   0  0  0  0  0  0  0  0  0  0  0  0
   12.3413  -10.0067  -10.2101 C   0  0  0  0  0  0  0  0  0  0  0  0
   13.7692   -9.8666   -9.8958 C   0  0  0  0  0  0  0  0  0  0  0  0
   14.7009   -9.1680  -10.7903 C   0  0  2  0  0  0  0  0  0  0  0  0
   15.2108  -10.2893  -11.6684 N   0  0  0  0  0  0  0  0  0  0  0  0
   15.8912   -8.5122  -10.3159 C   0  0  0  0  0  0  0  0  0  0  0  0
   16.8548   -9.1994   -9.8487 O   0  0  0  0  0  0  0  0  0  0  0  0
   20.6247   -7.6781  -12.8539 N   0  0  0  0  0  0  0  0  0  0  0  0
   20.8366   -6.7425  -11.7634 C   0  0  0  0  0  0  0  0  0  0  0  0
   22.0095   -6.2608  -11.7573 O   0  0  0  0  0  0  0  0  0  0  0  0
   19.8016   -6.4371  -10.8093 C   0  0  0  0  0  0  0  0  0  0  0  0
   18.4689   -7.0048  -10.8301 C   0  0  0  0  0  0  0  0  0  0  0  0
   17.4646   -6.5943   -9.8151 C   0  0  2  0  0  0  0  0  0  0  0  0
   16.1393   -7.1056  -10.3175 N   0  0  0  0  0  0  0  0  0  0  0  0
   17.2478   -5.1383   -9.8165 C   0  0  0  0  0  0  0  0  0  0  0  0
   18.0052   -4.2984   -8.9926 O   0  0  0  0  0  0  0  0  0  0  0  0
   16.4071   -4.5725  -10.5191 O   0  0  0  0  0  0  0  0  0  0  0  0
  2  1  1  0
  3  4  1  0
  3  2  1  0
  4  5  1  0
  5  1  1  0
  5  6  1  1
  7  6  2  0
  8  9  1  0
  9 10  2  0
  9 11  1  0
 11 12  1  0
 13 12  1  1
 13 15  1  0
 13 14  1  0
 14  6  1  0
 15 23  1  0
 16 15  2  0
 18 17  1  0
 19 18  2  0
 20 18  1  0
 21 20  1  0
 22 21  1  6
 23 22  1  0
 24 25  1  0
 24 22  1  0
 26 24  2  0
M  END
$$$$
