PQQ.pdb
     RDKit          3D

 26 26  0  0  1  0  0  0  0  0999 V2000
   18.3841  -25.9833   -7.7639 N   0  0  0  0  0  0  0  0  0  0  0  0
   18.9203  -25.5759   -9.0743 C   0  0  0  0  0  0  0  0  0  0  0  0
   18.0103  -24.4271   -9.5045 C   0  0  0  0  0  0  0  0  0  0  0  0
   17.3323  -23.9925   -8.2354 C   0  0  0  0  0  0  0  0  0  0  0  0
   18.1500  -24.6792   -7.1686 C   0  0  1  0  0  0  0  0  0  0  0  0
   17.4285  -24.7791   -5.8802 C   0  0  0  0  0  0  0  0  0  0  0  0
   17.2154  -23.7178   -5.2386 O   0  0  0  0  0  0  0  0  0  0  0  0
   12.8463  -28.3044   -6.4783 N   0  0  0  0  0  0  0  0  0  0  0  0
   12.6061  -27.9820   -5.1159 C   0  0  0  0  0  0  0  0  0  0  0  0
   11.5293  -28.3334   -4.5882 O   0  0  0  0  0  0  0  0  0  0  0  0
   13.6137  -27.2593   -4.3658 C   0  0  0  0  0  0  0  0  0  0  0  0
   14.8674  -26.8720   -5.0259 C   0  0  0  0  0  0  0  0  0  0  0  0
   15.9179  -26.1203   -4.3276 C   0  0  2  0  0  0  0  0  0  0  0  0
   16.9942  -26.0076   -5.3846 N   0  0  0  0  0  0  0  0  0  0  0  0
   16.6024  -26.6323   -3.1695 C   0  0  0  0  0  0  0  0  0  0  0  0
   17.7623  -27.1419   -3.2877 O   0  0  0  0  0  0  0  0  0  0  0  0
   15.6386  -25.3316    3.1784 N   0  0  0  0  0  0  0  0  0  0  0  0
   16.6578  -26.3614    3.0765 C   0  0  0  0  0  0  0  0  0  0  0  0
   17.1518  -26.6694    4.2029 O   0  0  0  0  0  0  0  0  0  0  0  0
   17.0416  -26.9310    1.8104 C   0  0  0  0  0  0  0  0  0  0  0  0
   16.4709  -26.5574    0.5324 C   0  0  0  0  0  0  0  0  0  0  0  0
   16.9952  -27.1522   -0.7241 C   0  0  2  0  0  0  0  0  0  0  0  0
   16.1140  -26.6262   -1.8273 N   0  0  0  0  0  0  0  0  0  0  0  0
   16.7372  -28.5998   -0.7943 C   0  0  0  0  0  0  0  0  0  0  0  0
   17.6927  -29.5220   -0.3534 O   0  0  0  0  0  0  0  0  0  0  0  0
   15.6948  -29.0881   -1.2363 O   0  0  0  0  0  0  0  0  0  0  0  0
  2  1  1  0
  3  4  1  0
  3  2  1  0
  4  5  1  0
  5  1  1  0
  5  6  1  1
  7  6  2  0
  8  9  1  0
  9 10  2  0
  9 11  1  0
 11 12  1  0
 13 12  1  6
 13 15  1  0
 13 14  1  0
 14  6  1  0
 15 23  1  0
 16 15  2  0
 18 17  1  0
 19 18  2  0
 20 18  1  0
 21 20  1  0
 22 21  1  1
 23 22  1  0
 24 25  1  0
 24 22  1  0
 26 24  2  0
M  END
$$$$
