PQQ.pdb
     RDKit          3D

 26 26  0  0  1  0  0  0  0  0999 V2000
   23.3692  -18.0503  -16.3826 N   0  0  0  0  0  0  0  0  0  0  0  0
   23.5887  -17.5065  -17.7342 C   0  0  0  0  0  0  0  0  0  0  0  0
   24.2596  -18.6526  -18.4887 C   0  0  0  0  0  0  0  0  0  0  0  0
   23.9642  -19.8699  -17.6581 C   0  0  0  0  0  0  0  0  0  0  0  0
   22.8896  -19.3796  -16.7184 C   0  0  1  0  0  0  0  0  0  0  0  0
   22.7512  -20.2383  -15.5208 C   0  0  0  0  0  0  0  0  0  0  0  0
   22.2322  -21.3754  -15.6659 O   0  0  0  0  0  0  0  0  0  0  0  0
   25.9148  -22.0222  -10.7475 N   0  0  0  0  0  0  0  0  0  0  0  0
   25.0473  -21.1445  -10.0441 C   0  0  0  0  0  0  0  0  0  0  0  0
   24.9971  -21.2087   -8.7972 O   0  0  0  0  0  0  0  0  0  0  0  0
   24.2446  -20.1910  -10.7837 C   0  0  0  0  0  0  0  0  0  0  0  0
   24.2672  -20.2120  -12.2522 C   0  0  0  0  0  0  0  0  0  0  0  0
   23.1303  -20.6989  -13.0439 C   0  0  2  0  0  0  0  0  0  0  0  0
   23.1802  -19.8086  -14.2658 N   0  0  0  0  0  0  0  0  0  0  0  0
   21.7682  -20.6080  -12.5872 C   0  0  0  0  0  0  0  0  0  0  0  0
   21.1707  -19.4846  -12.5831 O   0  0  0  0  0  0  0  0  0  0  0  0
   16.9759  -22.9284  -15.1918 N   0  0  0  0  0  0  0  0  0  0  0  0
   17.4198  -23.7589  -14.0860 C   0  0  0  0  0  0  0  0  0  0  0  0
   17.0248  -24.9592  -14.1906 O   0  0  0  0  0  0  0  0  0  0  0  0
   18.2095  -23.2291  -13.0041 C   0  0  0  0  0  0  0  0  0  0  0  0
   18.7244  -21.8762  -12.9460 C   0  0  0  0  0  0  0  0  0  0  0  0
   19.5165  -21.4266  -11.7722 C   0  0  2  0  0  0  0  0  0  0  0  0
   20.9580  -21.6890  -12.1237 N   0  0  0  0  0  0  0  0  0  0  0  0
   19.3226  -22.3089  -10.6099 C   0  0  0  0  0  0  0  0  0  0  0  0
   18.2145  -22.1563   -9.7692 O   0  0  0  0  0  0  0  0  0  0  0  0
   20.1002  -23.2147  -10.3014 O   0  0  0  0  0  0  0  0  0  0  0  0
  2  1  1  0
  3  4  1  0
  3  2  1  0
  4  5  1  0
  5  1  1  0
  5  6  1  1
  7  6  2  0
  8  9  1  0
  9 10  2  0
  9 11  1  0
 11 12  1  0
 13 12  1  1
 13 15  1  0
 13 14  1  0
 14  6  1  0
 15 23  1  0
 16 15  2  0
 18 17  1  0
 19 18  2  0
 20 18  1  0
 21 20  1  0
 22 21  1  6
 23 22  1  0
 24 25  1  0
 24 22  1  0
 26 24  2  0
M  END
$$$$
