PQQ.pdb
     RDKit          3D

 26 26  0  0  1  0  0  0  0  0999 V2000
   23.8981  -21.1343  -15.5194 N   0  0  0  0  0  0  0  0  0  0  0  0
   25.1249  -20.6164  -16.1497 C   0  0  0  0  0  0  0  0  0  0  0  0
   24.8579  -19.1203  -16.3029 C   0  0  0  0  0  0  0  0  0  0  0  0
   23.7177  -18.8464  -15.3625 C   0  0  0  0  0  0  0  0  0  0  0  0
   23.6676  -20.1010  -14.5250 C   0  0  1  0  0  0  0  0  0  0  0  0
   22.3669  -20.2713  -13.8393 C   0  0  0  0  0  0  0  0  0  0  0  0
   22.0162  -19.3915  -13.0109 O   0  0  0  0  0  0  0  0  0  0  0  0
   20.5918  -19.0849  -16.5368 N   0  0  0  0  0  0  0  0  0  0  0  0
   19.5179  -18.6309  -15.7253 C   0  0  0  0  0  0  0  0  0  0  0  0
   19.1271  -17.4495  -15.8384 O   0  0  0  0  0  0  0  0  0  0  0  0
   18.8950  -19.5457  -14.7897 C   0  0  0  0  0  0  0  0  0  0  0  0
   19.3537  -20.9397  -14.7271 C   0  0  0  0  0  0  0  0  0  0  0  0
   20.1259  -21.4574  -13.5906 C   0  0  2  0  0  0  0  0  0  0  0  0
   21.5486  -21.3700  -14.0974 N   0  0  0  0  0  0  0  0  0  0  0  0
   19.9963  -22.8091  -13.1126 C   0  0  0  0  0  0  0  0  0  0  0  0
   20.7320  -23.7289  -13.5937 O   0  0  0  0  0  0  0  0  0  0  0  0
   19.4435  -24.0994   -7.0948 N   0  0  0  0  0  0  0  0  0  0  0  0
   18.3226  -23.6834   -7.9195 C   0  0  0  0  0  0  0  0  0  0  0  0
   17.4336  -23.0682   -7.2569 O   0  0  0  0  0  0  0  0  0  0  0  0
   18.2650  -23.9730   -9.3294 C   0  0  0  0  0  0  0  0  0  0  0  0
   19.3525  -24.5430  -10.0981 C   0  0  0  0  0  0  0  0  0  0  0  0
   19.2395  -24.6704  -11.5740 C   0  0  2  0  0  0  0  0  0  0  0  0
   19.0995  -23.2649  -12.0988 N   0  0  0  0  0  0  0  0  0  0  0  0
   17.9577  -25.2727  -11.9754 C   0  0  0  0  0  0  0  0  0  0  0  0
   17.7686  -26.6583  -11.9269 O   0  0  0  0  0  0  0  0  0  0  0  0
   16.9903  -24.6203  -12.3741 O   0  0  0  0  0  0  0  0  0  0  0  0
  2  1  1  0
  3  4  1  0
  3  2  1  0
  4  5  1  0
  5  1  1  0
  5  6  1  6
  7  6  2  0
  8  9  1  0
  9 10  2  0
  9 11  1  0
 11 12  1  0
 13 12  1  6
 13 15  1  0
 13 14  1  0
 14  6  1  0
 15 23  1  0
 16 15  2  0
 18 17  1  0
 19 18  2  0
 20 18  1  0
 21 20  1  0
 22 21  1  1
 23 22  1  0
 24 25  1  0
 24 22  1  0
 26 24  2  0
M  END
$$$$
