PQQ.pdb
     RDKit          3D

 26 26  0  0  1  0  0  0  0  0999 V2000
   28.0725  -19.8749  -17.3975 N   0  0  0  0  0  0  0  0  0  0  0  0
   28.6960  -18.8615  -18.2663 C   0  0  0  0  0  0  0  0  0  0  0  0
   27.7383  -17.6738  -18.1941 C   0  0  0  0  0  0  0  0  0  0  0  0
   26.9074  -17.9381  -16.9697 C   0  0  0  0  0  0  0  0  0  0  0  0
   27.6736  -19.0394  -16.2783 C   0  0  1  0  0  0  0  0  0  0  0  0
   26.8425  -19.7794  -15.3023 C   0  0  0  0  0  0  0  0  0  0  0  0
   26.2084  -20.7868  -15.7101 O   0  0  0  0  0  0  0  0  0  0  0  0
   26.2899  -22.4021  -10.7474 N   0  0  0  0  0  0  0  0  0  0  0  0
   25.5940  -21.3840  -10.0425 C   0  0  0  0  0  0  0  0  0  0  0  0
   24.8163  -21.7061   -9.1190 O   0  0  0  0  0  0  0  0  0  0  0  0
   25.8037  -19.9961  -10.4031 C   0  0  0  0  0  0  0  0  0  0  0  0
   26.4402  -19.6705  -11.6862 C   0  0  0  0  0  0  0  0  0  0  0  0
   25.8535  -20.0682  -12.9722 C   0  0  2  0  0  0  0  0  0  0  0  0
   26.7589  -19.3795  -13.9694 N   0  0  0  0  0  0  0  0  0  0  0  0
   24.5235  -19.6890  -13.3713 C   0  0  0  0  0  0  0  0  0  0  0  0
   24.2901  -18.5020  -13.7655 O   0  0  0  0  0  0  0  0  0  0  0  0
   21.2488  -21.6489  -17.9879 N   0  0  0  0  0  0  0  0  0  0  0  0
   20.7830  -20.3498  -17.5354 C   0  0  0  0  0  0  0  0  0  0  0  0
   20.1331  -19.7281  -18.4292 O   0  0  0  0  0  0  0  0  0  0  0  0
   21.0648  -19.8581  -16.2111 C   0  0  0  0  0  0  0  0  0  0  0  0
   21.8300  -20.5754  -15.2118 C   0  0  0  0  0  0  0  0  0  0  0  0
   22.0594  -19.9757  -13.8720 C   0  0  2  0  0  0  0  0  0  0  0  0
   23.3730  -20.5351  -13.3903 N   0  0  0  0  0  0  0  0  0  0  0  0
   21.1198  -20.5016  -12.8682 C   0  0  0  0  0  0  0  0  0  0  0  0
   19.8909  -19.8740  -12.6361 O   0  0  0  0  0  0  0  0  0  0  0  0
   21.3429  -21.4995  -12.1790 O   0  0  0  0  0  0  0  0  0  0  0  0
  2  1  1  0
  3  4  1  0
  3  2  1  0
  4  5  1  0
  5  1  1  0
  5  6  1  1
  7  6  2  0
  8  9  1  0
  9 10  2  0
  9 11  1  0
 11 12  1  0
 13 12  1  1
 13 15  1  0
 13 14  1  0
 14  6  1  0
 15 23  1  0
 16 15  2  0
 18 17  1  0
 19 18  2  0
 20 18  1  0
 21 20  1  0
 22 21  1  6
 23 22  1  0
 24 25  1  0
 24 22  1  0
 26 24  2  0
M  END
$$$$
