SIV.pdb
     RDKit          3D

 22 21  0  0  1  0  0  0  0  0999 V2000
   19.9212  -11.9696  -21.6824 O   0  0  0  0  0  0  0  0  0  0  0  0
   19.7214  -11.4266  -20.4153 C   0  0  0  0  0  0  0  0  0  0  0  0
   20.3608  -12.3096  -19.3648 C   0  0  2  0  0  0  0  0  0  0  0  0
   19.6521  -13.5577  -19.3147 N   0  0  0  0  0  0  0  0  0  0  0  0
   20.4180  -11.6505  -18.0455 C   0  0  0  0  0  0  0  0  0  0  0  0
   19.4877  -11.8613  -17.2185 O   0  0  0  0  0  0  0  0  0  0  0  0
   24.6070  -12.0744  -15.2526 C   0  0  0  0  0  0  0  0  0  0  0  0
   23.1934  -11.8009  -15.7108 C   0  0  0  0  0  0  0  0  0  0  0  0
   22.9370  -10.3071  -15.8471 C   0  0  2  0  0  0  0  0  0  0  0  0
   23.1292   -9.5964  -14.5535 C   0  0  0  0  0  0  0  0  0  0  0  0
   21.4990  -10.1669  -16.3346 C   0  0  2  0  0  0  0  0  0  0  0  0
   21.4707  -10.8011  -17.6863 N   0  0  0  0  0  0  0  0  0  0  0  0
   21.1935   -8.7327  -16.4797 C   0  0  0  0  0  0  0  0  0  0  0  0
   21.9469   -8.0469  -17.2535 O   0  0  0  0  0  0  0  0  0  0  0  0
   18.6831   -6.8133  -18.1052 C   0  0  0  0  0  0  0  0  0  0  0  0
   18.6800   -6.3076  -16.6971 C   0  0  1  0  0  0  0  0  0  0  0  0
   17.5508   -6.8339  -15.8676 C   0  0  0  0  0  0  0  0  0  0  0  0
   20.0042   -6.6311  -15.9945 C   0  0  2  0  0  0  0  0  0  0  0  0
   20.1389   -8.0709  -15.8388 N   0  0  0  0  0  0  0  0  0  0  0  0
   20.0770   -5.9991  -14.6793 C   0  0  0  0  0  0  0  0  0  0  0  0
   19.9673   -6.7207  -13.4794 O   0  0  0  0  0  0  0  0  0  0  0  0
   20.2425   -4.7716  -14.5612 O   0  0  0  0  0  0  0  0  0  0  0  0
  1  2  1  0
  3  2  1  0
  3  4  1  1
  5  3  1  0
  6  5  2  0
  7  8  1  0
  8  9  1  0
  9 11  1  0
  9 10  1  1
 11 12  1  6
 12  5  1  0
 13 11  1  0
 13 19  1  0
 14 13  2  0
 16 15  1  6
 17 16  1  0
 18 20  1  0
 18 16  1  0
 18 19  1  1
 20 22  2  0
 20 21  1  0
M  END
$$$$
