SIV.pdb
     RDKit          3D

 22 21  0  0  1  0  0  0  0  0999 V2000
   22.9557  -14.9042  -20.9278 O   0  0  0  0  0  0  0  0  0  0  0  0
   22.8510  -14.2116  -19.7237 C   0  0  0  0  0  0  0  0  0  0  0  0
   23.9890  -14.5963  -18.8023 C   0  0  2  0  0  0  0  0  0  0  0  0
   23.8656  -15.9878  -18.4694 N   0  0  0  0  0  0  0  0  0  0  0  0
   24.0437  -13.7410  -17.6007 C   0  0  0  0  0  0  0  0  0  0  0  0
   23.4067  -14.0967  -16.5704 O   0  0  0  0  0  0  0  0  0  0  0  0
   28.4928  -12.6345  -15.7925 C   0  0  0  0  0  0  0  0  0  0  0  0
   26.9925  -12.7833  -15.8923 C   0  0  0  0  0  0  0  0  0  0  0  0
   26.3169  -11.4354  -16.0986 C   0  0  2  0  0  0  0  0  0  0  0  0
   26.5048  -10.5412  -14.9237 C   0  0  0  0  0  0  0  0  0  0  0  0
   24.8382  -11.7328  -16.3230 C   0  0  2  0  0  0  0  0  0  0  0  0
   24.7791  -12.5506  -17.5711 N   0  0  0  0  0  0  0  0  0  0  0  0
   24.1371  -10.4586  -16.5601 C   0  0  0  0  0  0  0  0  0  0  0  0
   24.4275   -9.8182  -17.6288 O   0  0  0  0  0  0  0  0  0  0  0  0
   21.2239   -9.9531  -17.9385 C   0  0  0  0  0  0  0  0  0  0  0  0
   21.0714   -9.1435  -16.6896 C   0  0  1  0  0  0  0  0  0  0  0  0
   20.3028   -9.8373  -15.6088 C   0  0  0  0  0  0  0  0  0  0  0  0
   22.4390   -8.7257  -16.1357 C   0  0  2  0  0  0  0  0  0  0  0  0
   23.1760   -9.9038  -15.7062 N   0  0  0  0  0  0  0  0  0  0  0  0
   22.2983   -7.8114  -15.0050 C   0  0  0  0  0  0  0  0  0  0  0  0
   22.0057   -6.4465  -15.1597 O   0  0  0  0  0  0  0  0  0  0  0  0
   22.4339   -8.2079  -13.8333 O   0  0  0  0  0  0  0  0  0  0  0  0
  1  2  1  0
  3  2  1  0
  3  4  1  1
  5  3  1  0
  6  5  2  0
  7  8  1  0
  8  9  1  0
  9 11  1  0
  9 10  1  1
 11 12  1  6
 12  5  1  0
 13 11  1  0
 13 19  1  0
 14 13  2  0
 16 15  1  6
 17 16  1  0
 18 20  1  0
 18 16  1  0
 18 19  1  1
 20 22  2  0
 20 21  1  0
M  END
$$$$
