SIV.pdb
     RDKit          3D

 22 21  0  0  1  0  0  0  0  0999 V2000
   28.0940  -17.2417  -16.7972 O   0  0  0  0  0  0  0  0  0  0  0  0
   27.4741  -18.2743  -16.0974 C   0  0  0  0  0  0  0  0  0  0  0  0
   28.4046  -19.4641  -15.9944 C   0  0  2  0  0  0  0  0  0  0  0  0
   28.4085  -20.1596  -17.2509 N   0  0  0  0  0  0  0  0  0  0  0  0
   28.0488  -20.3514  -14.8700 C   0  0  0  0  0  0  0  0  0  0  0  0
   27.2140  -21.2780  -15.0660 O   0  0  0  0  0  0  0  0  0  0  0  0
   31.6571  -21.4643  -11.0482 C   0  0  0  0  0  0  0  0  0  0  0  0
   30.4698  -21.6156  -11.9703 C   0  0  0  0  0  0  0  0  0  0  0  0
   29.2359  -20.9338  -11.3973 C   0  0  2  0  0  0  0  0  0  0  0  0
   28.7989  -21.5686  -10.1240 C   0  0  0  0  0  0  0  0  0  0  0  0
   28.1522  -21.0538  -12.4632 C   0  0  2  0  0  0  0  0  0  0  0  0
   28.6085  -20.1955  -13.5968 N   0  0  0  0  0  0  0  0  0  0  0  0
   26.9013  -20.4943  -11.9215 C   0  0  0  0  0  0  0  0  0  0  0  0
   26.8638  -19.2327  -11.7127 O   0  0  0  0  0  0  0  0  0  0  0  0
   22.0886  -20.4349  -11.2750 C   0  0  0  0  0  0  0  0  0  0  0  0
   23.3225  -21.0814  -11.8211 C   0  0  1  0  0  0  0  0  0  0  0  0
   23.4949  -20.9058  -13.2974 C   0  0  0  0  0  0  0  0  0  0  0  0
   24.5767  -20.5592  -11.1097 C   0  0  2  0  0  0  0  0  0  0  0  0
   25.7537  -21.2403  -11.6256 N   0  0  0  0  0  0  0  0  0  0  0  0
   24.4965  -20.7703   -9.6663 C   0  0  0  0  0  0  0  0  0  0  0  0
   24.0107  -19.7961   -8.7790 O   0  0  0  0  0  0  0  0  0  0  0  0
   24.8616  -21.8415   -9.1493 O   0  0  0  0  0  0  0  0  0  0  0  0
  1  2  1  0
  3  2  1  0
  3  4  1  6
  5  3  1  0
  6  5  2  0
  7  8  1  0
  8  9  1  0
  9 11  1  0
  9 10  1  1
 11 12  1  6
 12  5  1  0
 13 11  1  0
 13 19  1  0
 14 13  2  0
 16 15  1  1
 17 16  1  0
 18 20  1  0
 18 16  1  0
 18 19  1  6
 20 22  2  0
 20 21  1  0
M  END
$$$$
