SIV.pdb
     RDKit          3D

 22 21  0  0  1  0  0  0  0  0999 V2000
   18.9188   -9.3878  -21.0764 O   0  0  0  0  0  0  0  0  0  0  0  0
   19.0471   -9.0717  -19.7258 C   0  0  0  0  0  0  0  0  0  0  0  0
   19.5145  -10.2851  -18.9503 C   0  0  2  0  0  0  0  0  0  0  0  0
   18.4581  -11.2578  -18.9309 N   0  0  0  0  0  0  0  0  0  0  0  0
   19.9701   -9.9335  -17.5912 C   0  0  0  0  0  0  0  0  0  0  0  0
   19.1066   -9.7266  -16.6938 O   0  0  0  0  0  0  0  0  0  0  0  0
   24.0110  -12.5172  -15.6790 C   0  0  0  0  0  0  0  0  0  0  0  0
   22.7534  -11.6842  -15.7656 C   0  0  0  0  0  0  0  0  0  0  0  0
   23.0665  -10.1992  -15.6537 C   0  0  2  0  0  0  0  0  0  0  0  0
   23.6384   -9.8570  -14.3229 C   0  0  0  0  0  0  0  0  0  0  0  0
   21.7468   -9.4698  -15.8809 C   0  0  2  0  0  0  0  0  0  0  0  0
   21.3279   -9.8233  -17.2700 N   0  0  0  0  0  0  0  0  0  0  0  0
   21.9990   -8.0194  -15.8187 C   0  0  0  0  0  0  0  0  0  0  0  0
   22.8713   -7.5396  -16.6223 O   0  0  0  0  0  0  0  0  0  0  0  0
   20.6322   -3.4508  -15.2310 C   0  0  0  0  0  0  0  0  0  0  0  0
   20.4095   -4.9208  -15.3986 C   0  0  1  0  0  0  0  0  0  0  0  0
   19.9864   -5.3152  -16.7790 C   0  0  0  0  0  0  0  0  0  0  0  0
   21.6665   -5.7133  -15.0197 C   0  0  2  0  0  0  0  0  0  0  0  0
   21.3511   -7.1315  -14.9511 N   0  0  0  0  0  0  0  0  0  0  0  0
   22.2007   -5.2795  -13.7310 C   0  0  0  0  0  0  0  0  0  0  0  0
   23.1084   -4.2158  -13.6009 O   0  0  0  0  0  0  0  0  0  0  0  0
   21.8697   -5.8431  -12.6722 O   0  0  0  0  0  0  0  0  0  0  0  0
  1  2  1  0
  3  2  1  0
  3  4  1  1
  5  3  1  0
  6  5  2  0
  7  8  1  0
  8  9  1  0
  9 11  1  0
  9 10  1  1
 11 12  1  6
 12  5  1  0
 13 11  1  0
 13 19  1  0
 14 13  2  0
 16 15  1  6
 17 16  1  0
 18 20  1  0
 18 16  1  0
 18 19  1  1
 20 22  2  0
 20 21  1  0
M  END
$$$$
