SIV.pdb
     RDKit          3D

 22 21  0  0  1  0  0  0  0  0999 V2000
   18.9678  -10.1839  -20.8273 O   0  0  0  0  0  0  0  0  0  0  0  0
   19.2060   -9.9078  -19.4828 C   0  0  0  0  0  0  0  0  0  0  0  0
   19.7551  -11.1364  -18.7893 C   0  0  2  0  0  0  0  0  0  0  0  0
   18.7360  -12.1480  -18.7630 N   0  0  0  0  0  0  0  0  0  0  0  0
   20.2675  -10.8297  -17.4397 C   0  0  0  0  0  0  0  0  0  0  0  0
   19.5399  -11.0837  -16.4397 O   0  0  0  0  0  0  0  0  0  0  0  0
   24.2878  -12.8911  -15.5464 C   0  0  0  0  0  0  0  0  0  0  0  0
   23.0216  -12.0797  -15.6929 C   0  0  0  0  0  0  0  0  0  0  0  0
   23.3158  -10.5870  -15.6578 C   0  0  2  0  0  0  0  0  0  0  0  0
   23.9341  -10.1792  -14.3668 C   0  0  0  0  0  0  0  0  0  0  0  0
   21.9771   -9.8866  -15.8634 C   0  0  2  0  0  0  0  0  0  0  0  0
   21.5329  -10.2670  -17.2375 N   0  0  0  0  0  0  0  0  0  0  0  0
   22.2019   -8.4308  -15.8262 C   0  0  0  0  0  0  0  0  0  0  0  0
   23.0587   -7.9475  -16.6442 O   0  0  0  0  0  0  0  0  0  0  0  0
   20.6470   -5.5338  -17.0422 C   0  0  0  0  0  0  0  0  0  0  0  0
   20.7741   -5.3012  -15.5697 C   0  0  1  0  0  0  0  0  0  0  0  0
   19.5208   -5.5841  -14.8020 C   0  0  0  0  0  0  0  0  0  0  0  0
   21.9168   -6.1358  -14.9786 C   0  0  2  0  0  0  0  0  0  0  0  0
   21.5439   -7.5416  -14.9677 N   0  0  0  0  0  0  0  0  0  0  0  0
   22.2336   -5.7147  -13.6160 C   0  0  0  0  0  0  0  0  0  0  0  0
   22.9910   -4.5674  -13.3290 O   0  0  0  0  0  0  0  0  0  0  0  0
   21.8396   -6.3652  -12.6312 O   0  0  0  0  0  0  0  0  0  0  0  0
  1  2  1  0
  3  2  1  0
  3  4  1  1
  5  3  1  0
  6  5  2  0
  7  8  1  0
  8  9  1  0
  9 11  1  0
  9 10  1  1
 11 12  1  6
 12  5  1  0
 13 11  1  0
 13 19  1  0
 14 13  2  0
 16 15  1  6
 17 16  1  0
 18 20  1  0
 18 16  1  0
 18 19  1  1
 20 22  2  0
 20 21  1  0
M  END
$$$$
