SIV.pdb
     RDKit          3D

 22 21  0  0  1  0  0  0  0  0999 V2000
   22.0894  -14.0830  -21.0312 O   0  0  0  0  0  0  0  0  0  0  0  0
   22.0648  -13.3646  -19.8380 C   0  0  0  0  0  0  0  0  0  0  0  0
   22.9696  -14.0215  -18.8172 C   0  0  2  0  0  0  0  0  0  0  0  0
   22.4060  -15.2892  -18.4461 N   0  0  0  0  0  0  0  0  0  0  0  0
   23.2061  -13.1551  -17.6460 C   0  0  0  0  0  0  0  0  0  0  0  0
   22.3335  -13.1112  -16.7347 O   0  0  0  0  0  0  0  0  0  0  0  0
   28.1269  -12.4878  -15.8004 C   0  0  0  0  0  0  0  0  0  0  0  0
   26.6191  -12.5589  -15.8672 C   0  0  0  0  0  0  0  0  0  0  0  0
   26.0185  -11.2077  -16.2268 C   0  0  2  0  0  0  0  0  0  0  0  0
   26.2994  -10.1859  -15.1815 C   0  0  0  0  0  0  0  0  0  0  0  0
   24.5180  -11.4365  -16.3724 C   0  0  2  0  0  0  0  0  0  0  0  0
   24.3665  -12.3833  -17.5173 N   0  0  0  0  0  0  0  0  0  0  0  0
   23.8838  -10.1559  -16.7320 C   0  0  0  0  0  0  0  0  0  0  0  0
   24.3489   -9.5350  -17.7492 O   0  0  0  0  0  0  0  0  0  0  0  0
   20.0784   -7.3181  -17.3180 C   0  0  0  0  0  0  0  0  0  0  0  0
   20.7679   -8.5998  -16.9709 C   0  0  1  0  0  0  0  0  0  0  0  0
   20.7481   -9.6147  -18.0707 C   0  0  0  0  0  0  0  0  0  0  0  0
   22.2223   -8.3461  -16.5562 C   0  0  2  0  0  0  0  0  0  0  0  0
   22.8095   -9.5753  -16.0466 N   0  0  0  0  0  0  0  0  0  0  0  0
   22.3098   -7.3123  -15.5277 C   0  0  0  0  0  0  0  0  0  0  0  0
   22.4520   -5.9478  -15.8281 O   0  0  0  0  0  0  0  0  0  0  0  0
   22.2613   -7.5994  -14.3179 O   0  0  0  0  0  0  0  0  0  0  0  0
  1  2  1  0
  3  2  1  0
  3  4  1  1
  5  3  1  0
  6  5  2  0
  7  8  1  0
  8  9  1  0
  9 11  1  0
  9 10  1  1
 11 12  1  6
 12  5  1  0
 13 11  1  0
 13 19  1  0
 14 13  2  0
 16 15  1  6
 17 16  1  0
 18 20  1  0
 18 16  1  0
 18 19  1  1
 20 22  2  0
 20 21  1  0
M  END
$$$$
