ALP.pdb
     RDKit          3D

 21 21  0  0  1  0  0  0  0  0999 V2000
   22.4073  -13.7457  -18.9787 C   0  0  0  0  0  0  0  0  0  0  0  0
   22.3496  -12.2846  -19.3847 C   0  0  2  0  0  0  0  0  0  0  0  0
   23.2698  -11.9526  -20.4270 N   0  0  0  0  0  0  0  0  0  0  0  0
   22.5895  -11.4612  -18.1635 C   0  0  0  0  0  0  0  0  0  0  0  0
   21.8139  -11.5674  -17.2065 O   0  0  0  0  0  0  0  0  0  0  0  0
   27.7340  -10.1408  -16.6764 C   0  0  0  0  0  0  0  0  0  0  0  0
   26.2973  -10.6247  -16.5491 C   0  0  1  0  0  0  0  0  0  0  0  0
   26.1868  -11.2846  -15.2150 C   0  0  0  0  0  0  0  0  0  0  0  0
   25.4179   -9.4726  -16.7782 C   0  0  0  0  0  0  0  0  0  0  0  0
   23.9472   -9.7757  -16.9179 C   0  0  2  0  0  0  0  0  0  0  0  0
   23.6827  -10.5748  -18.0983 N   0  0  0  0  0  0  0  0  0  0  0  0
   23.2496   -8.4643  -16.9975 C   0  0  0  0  0  0  0  0  0  0  0  0
   23.1508   -7.9040  -18.1301 O   0  0  0  0  0  0  0  0  0  0  0  0
   22.6855   -7.8023  -15.8783 N   0  0  0  0  0  0  0  0  0  0  0  0
   22.6433   -8.1783  -14.4759 C   0  0  0  0  0  0  0  0  0  0  0  0
   21.3033   -7.6479  -13.9435 C   0  0  0  0  0  0  0  0  0  0  0  0
   20.9079   -6.5649  -14.8896 C   0  0  0  0  0  0  0  0  0  0  0  0
   21.9888   -6.5144  -15.9111 C   0  0  1  0  0  0  0  0  0  0  0  0
   22.9811   -5.4499  -15.6130 C   0  0  0  0  0  0  0  0  0  0  0  0
   24.1175   -5.7336  -15.1541 O   0  0  0  0  0  0  0  0  0  0  0  0
   22.6946   -4.1098  -15.8278 O   0  0  0  0  0  0  0  0  0  0  0  0
  2  1  1  1
  3  2  1  0
  4  5  2  0
  4  2  1  0
  7  6  1  1
  7  8  1  0
  7  9  1  0
 10  9  1  6
 10 11  1  0
 10 12  1  0
 11  4  1  0
 12 14  1  0
 13 12  2  0
 14 15  1  0
 14 18  1  0
 15 16  1  0
 16 17  1  0
 18 17  1  0
 18 19  1  1
 19 21  1  0
 20 19  2  0
M  END
$$$$
