ALP.pdb
     RDKit          3D

 21 21  0  0  1  0  0  0  0  0999 V2000
   25.1410  -17.0423  -16.8492 C   0  0  0  0  0  0  0  0  0  0  0  0
   26.4617  -17.6507  -16.4147 C   0  0  2  0  0  0  0  0  0  0  0  0
   27.3917  -17.8050  -17.4892 N   0  0  0  0  0  0  0  0  0  0  0  0
   26.1682  -18.9573  -15.7563 C   0  0  0  0  0  0  0  0  0  0  0  0
   26.0755  -19.9735  -16.4544 O   0  0  0  0  0  0  0  0  0  0  0  0
   27.6704  -19.7111  -10.4293 C   0  0  0  0  0  0  0  0  0  0  0  0
   27.5440  -19.8802  -11.9359 C   0  0  1  0  0  0  0  0  0  0  0  0
   28.5690  -20.8872  -12.3389 C   0  0  0  0  0  0  0  0  0  0  0  0
   26.1475  -20.2223  -12.2295 C   0  0  0  0  0  0  0  0  0  0  0  0
   25.7746  -20.3009  -13.6886 C   0  0  2  0  0  0  0  0  0  0  0  0
   25.9985  -19.0356  -14.3598 N   0  0  0  0  0  0  0  0  0  0  0  0
   24.3373  -20.6814  -13.7391 C   0  0  0  0  0  0  0  0  0  0  0  0
   23.4754  -19.7594  -13.8550 O   0  0  0  0  0  0  0  0  0  0  0  0
   23.8728  -22.0186  -13.6663 N   0  0  0  0  0  0  0  0  0  0  0  0
   24.5703  -23.2480  -13.3318 C   0  0  0  0  0  0  0  0  0  0  0  0
   23.9194  -24.3422  -14.1918 C   0  0  0  0  0  0  0  0  0  0  0  0
   22.5758  -23.8064  -14.5551 C   0  0  0  0  0  0  0  0  0  0  0  0
   22.5006  -22.4600  -13.9257 C   0  0  1  0  0  0  0  0  0  0  0  0
   21.7789  -22.4967  -12.6278 C   0  0  0  0  0  0  0  0  0  0  0  0
   22.4060  -22.4864  -11.5373 O   0  0  0  0  0  0  0  0  0  0  0  0
   20.3939  -22.5434  -12.5685 O   0  0  0  0  0  0  0  0  0  0  0  0
  2  1  1  6
  3  2  1  0
  4  5  2  0
  4  2  1  0
  7  6  1  1
  7  8  1  0
  7  9  1  0
 10  9  1  1
 10 11  1  0
 10 12  1  0
 11  4  1  0
 12 14  1  0
 13 12  2  0
 14 15  1  0
 14 18  1  0
 15 16  1  0
 16 17  1  0
 18 17  1  0
 18 19  1  1
 19 21  1  0
 20 19  2  0
M  END
$$$$
