ALP.pdb
     RDKit          3D

 21 21  0  0  1  0  0  0  0  0999 V2000
   17.5943  -13.0729  -17.3262 C   0  0  0  0  0  0  0  0  0  0  0  0
   18.0789  -11.6527  -17.5529 C   0  0  2  0  0  0  0  0  0  0  0  0
   18.7592  -11.4813  -18.7983 N   0  0  0  0  0  0  0  0  0  0  0  0
   18.9495  -11.2776  -16.4004 C   0  0  0  0  0  0  0  0  0  0  0  0
   18.5170  -11.4192  -15.2508 O   0  0  0  0  0  0  0  0  0  0  0  0
   22.7256  -12.6243  -16.2159 C   0  0  0  0  0  0  0  0  0  0  0  0
   23.2163  -11.4494  -15.3832 C   0  0  1  0  0  0  0  0  0  0  0  0
   24.7027  -11.4255  -15.5149 C   0  0  0  0  0  0  0  0  0  0  0  0
   22.5046  -10.2510  -15.8420 C   0  0  0  0  0  0  0  0  0  0  0  0
   21.0286  -10.1965  -15.5377 C   0  0  2  0  0  0  0  0  0  0  0  0
   20.2458  -10.7692  -16.6152 N   0  0  0  0  0  0  0  0  0  0  0  0
   20.6891   -8.7618  -15.3395 C   0  0  0  0  0  0  0  0  0  0  0  0
   20.2982   -8.0928  -16.3425 O   0  0  0  0  0  0  0  0  0  0  0  0
   20.7757   -8.0964  -14.0910 N   0  0  0  0  0  0  0  0  0  0  0  0
   21.1728   -8.5843  -12.7817 C   0  0  0  0  0  0  0  0  0  0  0  0
   20.3133   -7.8094  -11.7711 C   0  0  0  0  0  0  0  0  0  0  0  0
   19.8766   -6.5788  -12.4919 C   0  0  0  0  0  0  0  0  0  0  0  0
   20.4669   -6.6845  -13.8538 C   0  0  1  0  0  0  0  0  0  0  0  0
   21.7318   -5.9141  -13.9688 C   0  0  0  0  0  0  0  0  0  0  0  0
   22.8462   -6.4975  -13.9892 O   0  0  0  0  0  0  0  0  0  0  0  0
   21.7331   -4.5299  -14.0575 O   0  0  0  0  0  0  0  0  0  0  0  0
  2  1  1  1
  3  2  1  0
  4  5  2  0
  4  2  1  0
  7  6  1  6
  7  8  1  0
  7  9  1  0
 10  9  1  6
 10 11  1  0
 10 12  1  0
 11  4  1  0
 12 14  1  0
 13 12  2  0
 14 15  1  0
 14 18  1  0
 15 16  1  0
 16 17  1  0
 18 17  1  0
 18 19  1  1
 19 21  1  0
 20 19  2  0
M  END
$$$$
