ALP.pdb
     RDKit          3D

 21 21  0  0  1  0  0  0  0  0999 V2000
   19.9556   -8.5188  -21.3620 C   0  0  0  0  0  0  0  0  0  0  0  0
   20.7278   -9.6874  -20.7778 C   0  0  2  0  0  0  0  0  0  0  0  0
   20.2737  -10.9568  -21.2527 N   0  0  0  0  0  0  0  0  0  0  0  0
   20.6370   -9.5975  -19.2911 C   0  0  0  0  0  0  0  0  0  0  0  0
   19.5228   -9.6193  -18.7556 O   0  0  0  0  0  0  0  0  0  0  0  0
   21.7720  -11.0912  -14.4372 C   0  0  0  0  0  0  0  0  0  0  0  0
   22.8952  -10.2056  -14.9555 C   0  0  1  0  0  0  0  0  0  0  0  0
   24.1554  -10.7087  -14.3342 C   0  0  0  0  0  0  0  0  0  0  0  0
   22.8399  -10.2292  -16.4216 C   0  0  0  0  0  0  0  0  0  0  0  0
   21.7419   -9.4153  -17.0591 C   0  0  2  0  0  0  0  0  0  0  0  0
   21.8017   -9.4893  -18.5057 N   0  0  0  0  0  0  0  0  0  0  0  0
   21.9256   -8.0152  -16.5912 C   0  0  0  0  0  0  0  0  0  0  0  0
   22.8965   -7.3480  -17.0587 O   0  0  0  0  0  0  0  0  0  0  0  0
   21.0755   -7.3802  -15.6514 N   0  0  0  0  0  0  0  0  0  0  0  0
   19.9576   -7.8982  -14.8820 C   0  0  0  0  0  0  0  0  0  0  0  0
   18.9644   -6.7329  -14.7558 C   0  0  0  0  0  0  0  0  0  0  0  0
   19.7758   -5.5017  -14.9803 C   0  0  0  0  0  0  0  0  0  0  0  0
   21.1623   -5.9793  -15.2332 C   0  0  1  0  0  0  0  0  0  0  0  0
   21.9994   -5.9188  -14.0076 C   0  0  0  0  0  0  0  0  0  0  0  0
   22.2496   -6.9566  -13.3420 O   0  0  0  0  0  0  0  0  0  0  0  0
   22.5345   -4.7228  -13.5523 O   0  0  0  0  0  0  0  0  0  0  0  0
  2  1  1  6
  3  2  1  0
  4  5  2  0
  4  2  1  0
  7  6  1  1
  7  8  1  0
  7  9  1  0
 10  9  1  1
 10 11  1  0
 10 12  1  0
 11  4  1  0
 12 14  1  0
 13 12  2  0
 14 15  1  0
 14 18  1  0
 15 16  1  0
 16 17  1  0
 18 17  1  0
 18 19  1  1
 19 21  1  0
 20 19  2  0
M  END
$$$$
