ALP.pdb
     RDKit          3D

 21 21  0  0  1  0  0  0  0  0999 V2000
   20.0019  -12.4659  -20.2026 C   0  0  0  0  0  0  0  0  0  0  0  0
   21.1925  -13.2852  -19.7395 C   0  0  2  0  0  0  0  0  0  0  0  0
   20.8831  -14.6664  -19.5406 N   0  0  0  0  0  0  0  0  0  0  0  0
   21.7198  -12.6597  -18.4915 C   0  0  0  0  0  0  0  0  0  0  0  0
   21.1294  -12.8607  -17.4239 O   0  0  0  0  0  0  0  0  0  0  0  0
   25.6642  -11.3078  -15.1221 C   0  0  0  0  0  0  0  0  0  0  0  0
   25.4822  -10.3130  -16.2587 C   0  0  1  0  0  0  0  0  0  0  0  0
   26.8219   -9.7062  -16.5122 C   0  0  0  0  0  0  0  0  0  0  0  0
   24.8710  -11.0299  -17.3837 C   0  0  0  0  0  0  0  0  0  0  0  0
   23.3714  -11.1833  -17.3389 C   0  0  2  0  0  0  0  0  0  0  0  0
   22.8733  -11.8513  -18.5253 N   0  0  0  0  0  0  0  0  0  0  0  0
   22.8079   -9.8112  -17.2263 C   0  0  0  0  0  0  0  0  0  0  0  0
   22.7480   -9.0985  -18.2727 O   0  0  0  0  0  0  0  0  0  0  0  0
   22.3309   -9.2519  -16.0145 N   0  0  0  0  0  0  0  0  0  0  0  0
   22.3403   -9.7757  -14.6597 C   0  0  0  0  0  0  0  0  0  0  0  0
   21.0542   -9.2518  -14.0025 C   0  0  0  0  0  0  0  0  0  0  0  0
   20.6634   -8.0574  -14.8057 C   0  0  0  0  0  0  0  0  0  0  0  0
   21.6939   -7.9407  -15.8729 C   0  0  1  0  0  0  0  0  0  0  0  0
   22.7480   -6.9561  -15.5174 C   0  0  0  0  0  0  0  0  0  0  0  0
   23.9148   -7.3305  -15.2329 O   0  0  0  0  0  0  0  0  0  0  0  0
   22.4879   -5.5940  -15.4856 O   0  0  0  0  0  0  0  0  0  0  0  0
  2  1  1  1
  3  2  1  0
  4  5  2  0
  4  2  1  0
  7  6  1  1
  7  8  1  0
  7  9  1  0
 10  9  1  6
 10 11  1  0
 10 12  1  0
 11  4  1  0
 12 14  1  0
 13 12  2  0
 14 15  1  0
 14 18  1  0
 15 16  1  0
 16 17  1  0
 18 17  1  0
 18 19  1  1
 19 21  1  0
 20 19  2  0
M  END
$$$$
