ALP.pdb
     RDKit          3D

 21 21  0  0  1  0  0  0  0  0999 V2000
   28.3052  -24.4979  -16.8858 C   0  0  0  0  0  0  0  0  0  0  0  0
   28.4238  -23.0888  -17.4365 C   0  0  2  0  0  0  0  0  0  0  0  0
   29.6891  -22.8273  -18.0479 N   0  0  0  0  0  0  0  0  0  0  0  0
   28.1512  -22.1372  -16.3198 C   0  0  0  0  0  0  0  0  0  0  0  0
   29.0636  -21.8577  -15.5336 O   0  0  0  0  0  0  0  0  0  0  0  0
   26.7504  -17.3448  -14.5060 C   0  0  0  0  0  0  0  0  0  0  0  0
   25.5917  -18.3012  -14.7453 C   0  0  1  0  0  0  0  0  0  0  0  0
   24.4276  -17.4645  -15.1601 C   0  0  0  0  0  0  0  0  0  0  0  0
   26.0410  -19.3119  -15.7096 C   0  0  0  0  0  0  0  0  0  0  0  0
   26.6014  -20.5848  -15.1265 C   0  0  2  0  0  0  0  0  0  0  0  0
   26.8742  -21.5639  -16.1604 N   0  0  0  0  0  0  0  0  0  0  0  0
   25.5855  -21.0951  -14.1671 C   0  0  0  0  0  0  0  0  0  0  0  0
   24.6706  -21.8535  -14.6077 O   0  0  0  0  0  0  0  0  0  0  0  0
   25.5806  -20.7837  -12.7844 N   0  0  0  0  0  0  0  0  0  0  0  0
   26.4287  -19.8948  -12.0093 C   0  0  0  0  0  0  0  0  0  0  0  0
   26.5700  -20.5542  -10.6288 C   0  0  0  0  0  0  0  0  0  0  0  0
   25.3999  -21.4717  -10.5123 C   0  0  0  0  0  0  0  0  0  0  0  0
   24.6523  -21.3279  -11.7908 C   0  0  1  0  0  0  0  0  0  0  0  0
   23.5143  -20.3819  -11.6617 C   0  0  0  0  0  0  0  0  0  0  0  0
   23.5741  -19.2255  -12.1533 O   0  0  0  0  0  0  0  0  0  0  0  0
   22.3486  -20.7350  -10.9981 O   0  0  0  0  0  0  0  0  0  0  0  0
  2  1  1  1
  3  2  1  0
  4  5  2  0
  4  2  1  0
  7  6  1  6
  7  8  1  0
  7  9  1  0
 10  9  1  6
 10 11  1  0
 10 12  1  0
 11  4  1  0
 12 14  1  0
 13 12  2  0
 14 15  1  0
 14 18  1  0
 15 16  1  0
 16 17  1  0
 18 17  1  0
 18 19  1  1
 19 21  1  0
 20 19  2  0
M  END
$$$$
