ALP.pdb
     RDKit          3D

 21 21  0  0  1  0  0  0  0  0999 V2000
   25.7322  -31.4975  -22.5316 C   0  0  0  0  0  0  0  0  0  0  0  0
   27.1424  -31.8009  -23.0032 C   0  0  2  0  0  0  0  0  0  0  0  0
   27.1949  -32.8197  -24.0044 N   0  0  0  0  0  0  0  0  0  0  0  0
   27.9546  -32.1701  -21.8070 C   0  0  0  0  0  0  0  0  0  0  0  0
   28.1375  -33.3660  -21.5519 O   0  0  0  0  0  0  0  0  0  0  0  0
   32.0965  -28.9220  -19.9716 C   0  0  0  0  0  0  0  0  0  0  0  0
   31.3200  -30.1422  -20.4432 C   0  0  1  0  0  0  0  0  0  0  0  0
   32.3192  -31.2333  -20.6393 C   0  0  0  0  0  0  0  0  0  0  0  0
   30.2600  -30.4014  -19.4622 C   0  0  0  0  0  0  0  0  0  0  0  0
   29.2915  -31.5052  -19.8054 C   0  0  2  0  0  0  0  0  0  0  0  0
   28.5066  -31.1734  -20.9783 N   0  0  0  0  0  0  0  0  0  0  0  0
   28.4170  -31.6873  -18.6158 C   0  0  0  0  0  0  0  0  0  0  0  0
   27.3129  -31.0659  -18.5810 O   0  0  0  0  0  0  0  0  0  0  0  0
   28.7456  -32.5183  -17.5156 N   0  0  0  0  0  0  0  0  0  0  0  0
   29.9383  -33.3005  -17.2407 C   0  0  0  0  0  0  0  0  0  0  0  0
   29.4520  -34.5509  -16.4922 C   0  0  0  0  0  0  0  0  0  0  0  0
   28.1277  -34.1731  -15.9193 C   0  0  0  0  0  0  0  0  0  0  0  0
   27.8931  -32.7686  -16.3513 C   0  0  1  0  0  0  0  0  0  0  0  0
   28.2671  -31.7956  -15.2929 C   0  0  0  0  0  0  0  0  0  0  0  0
   29.2091  -30.9799  -15.4663 O   0  0  0  0  0  0  0  0  0  0  0  0
   27.5961  -31.7490  -14.0798 O   0  0  0  0  0  0  0  0  0  0  0  0
  2  1  1  1
  3  2  1  0
  4  5  2  0
  4  2  1  0
  7  6  1  1
  7  8  1  0
  7  9  1  0
 10  9  1  1
 10 11  1  0
 10 12  1  0
 11  4  1  0
 12 14  1  0
 13 12  2  0
 14 15  1  0
 14 18  1  0
 15 16  1  0
 16 17  1  0
 18 17  1  0
 18 19  1  1
 19 21  1  0
 20 19  2  0
M  END
$$$$
