DLS.pdb
     RDKit          3D

 23 22  0  0  1  0  0  0  0  0999 V2000
   17.6122  -10.5368  -12.8999 N   0  0  0  0  0  0  0  0  0  0  0  0
   16.4028  -10.2509  -13.6134 C   0  0  1  0  0  0  0  0  0  0  0  0
   15.6268  -11.5144  -13.9064 C   0  0  0  0  0  0  0  0  0  0  0  0
   16.3406  -12.3930  -14.8544 C   0  0  0  0  0  0  0  0  0  0  0  0
   17.2749  -11.9423  -15.5323 O   0  0  0  0  0  0  0  0  0  0  0  0
   15.5166   -9.3155  -12.8674 C   0  0  0  0  0  0  0  0  0  0  0  0
   14.4607   -8.9104  -13.4168 O   0  0  0  0  0  0  0  0  0  0  0  0
   15.9467  -13.7141  -14.9663 O   0  0  0  0  0  0  0  0  0  0  0  0
   11.9903   -8.7080  -10.5608 C   0  0  0  0  0  0  0  0  0  0  0  0
   13.1236   -9.3443   -9.8692 C   0  0  2  0  0  0  0  0  0  0  0  0
   12.6109   -9.9509   -8.5655 C   0  0  0  0  0  0  0  0  0  0  0  0
   14.3437   -8.5395   -9.6540 C   0  0  0  0  0  0  0  0  0  0  0  0
   14.9921   -7.9699  -10.8781 C   0  0  2  0  0  0  0  0  0  0  0  0
   15.8806   -8.8956  -11.5436 N   0  0  0  0  0  0  0  0  0  0  0  0
   15.8059   -6.8137  -10.4407 C   0  0  0  0  0  0  0  0  0  0  0  0
   16.8992   -6.9406   -9.8229 O   0  0  0  0  0  0  0  0  0  0  0  0
   17.1590   -2.3762  -11.1014 O   0  0  0  0  0  0  0  0  0  0  0  0
   16.5191   -3.5202  -11.5552 C   0  0  0  0  0  0  0  0  0  0  0  0
   16.0773   -4.3139  -10.3194 C   0  0  2  0  0  0  0  0  0  0  0  0
   15.3534   -5.5018  -10.7191 N   0  0  0  0  0  0  0  0  0  0  0  0
   15.2745   -3.4724   -9.4123 C   0  0  0  0  0  0  0  0  0  0  0  0
   15.9108   -2.5285   -8.6307 O   0  0  0  0  0  0  0  0  0  0  0  0
   14.0421   -3.5984   -9.3407 O   0  0  0  0  0  0  0  0  0  0  0  0
  2  1  1  1
  2  3  1  0
  3  4  1  0
  4  5  2  0
  4  8  1  0
  6 14  1  0
  6  2  1  0
  7  6  2  0
 10  9  1  1
 10 12  1  0
 11 10  1  0
 13 12  1  1
 13 14  1  0
 13 15  1  0
 15 16  2  0
 18 17  1  0
 19 18  1  6
 20 15  1  0
 20 19  1  0
 21 19  1  0
 21 22  1  0
 23 21  2  0
M  END
$$$$
