DLS.pdb
     RDKit          3D

 23 22  0  0  1  0  0  0  0  0999 V2000
   20.1678  -19.9720  -13.8278 N   0  0  0  0  0  0  0  0  0  0  0  0
   21.1103  -21.0150  -13.5502 C   0  0  1  0  0  0  0  0  0  0  0  0
   21.0701  -22.0883  -14.6137 C   0  0  0  0  0  0  0  0  0  0  0  0
   19.8607  -22.9282  -14.5043 C   0  0  0  0  0  0  0  0  0  0  0  0
   19.0048  -22.6719  -13.6455 O   0  0  0  0  0  0  0  0  0  0  0  0
   22.5047  -20.5021  -13.4505 C   0  0  0  0  0  0  0  0  0  0  0  0
   22.7759  -19.3790  -13.9461 O   0  0  0  0  0  0  0  0  0  0  0  0
   19.7076  -23.9943  -15.3721 O   0  0  0  0  0  0  0  0  0  0  0  0
   26.6045  -20.9444   -9.3232 C   0  0  0  0  0  0  0  0  0  0  0  0
   25.7641  -20.4677  -10.4341 C   0  0  2  0  0  0  0  0  0  0  0  0
   24.3774  -20.1456   -9.8828 C   0  0  0  0  0  0  0  0  0  0  0  0
   25.6873  -21.3013  -11.6514 C   0  0  0  0  0  0  0  0  0  0  0  0
   24.8534  -20.7668  -12.7748 C   0  0  2  0  0  0  0  0  0  0  0  0
   23.5074  -21.2934  -12.7949 N   0  0  0  0  0  0  0  0  0  0  0  0
   25.5079  -21.1797  -14.0365 C   0  0  0  0  0  0  0  0  0  0  0  0
   25.4371  -22.3547  -14.4918 O   0  0  0  0  0  0  0  0  0  0  0  0
   28.0832  -18.5017  -15.8169 O   0  0  0  0  0  0  0  0  0  0  0  0
   27.3639  -19.2607  -16.7281 C   0  0  0  0  0  0  0  0  0  0  0  0
   26.9364  -20.5470  -16.0104 C   0  0  2  0  0  0  0  0  0  0  0  0
   26.2493  -20.2282  -14.7771 N   0  0  0  0  0  0  0  0  0  0  0  0
   28.0959  -21.4264  -15.7704 C   0  0  0  0  0  0  0  0  0  0  0  0
   28.7989  -21.9228  -16.8503 O   0  0  0  0  0  0  0  0  0  0  0  0
   28.4482  -21.7259  -14.6189 O   0  0  0  0  0  0  0  0  0  0  0  0
  2  1  1  6
  2  3  1  0
  3  4  1  0
  4  5  2  0
  4  8  1  0
  6 14  1  0
  6  2  1  0
  7  6  2  0
 10  9  1  1
 10 12  1  0
 11 10  1  0
 13 12  1  1
 13 14  1  0
 13 15  1  0
 15 16  2  0
 18 17  1  0
 19 18  1  1
 20 15  1  0
 20 19  1  0
 21 19  1  0
 21 22  1  0
 23 21  2  0
M  END
$$$$
