DLS.pdb
     RDKit          3D

 23 22  0  0  1  0  0  0  0  0999 V2000
   17.7280  -10.7645  -18.5113 N   0  0  0  0  0  0  0  0  0  0  0  0
   18.9443  -10.0478  -18.7571 C   0  0  1  0  0  0  0  0  0  0  0  0
   18.7165   -8.8862  -19.6969 C   0  0  0  0  0  0  0  0  0  0  0  0
   18.4576   -9.3372  -21.0788 C   0  0  0  0  0  0  0  0  0  0  0  0
   18.4649  -10.5472  -21.3465 O   0  0  0  0  0  0  0  0  0  0  0  0
   19.5543   -9.5268  -17.5027 C   0  0  0  0  0  0  0  0  0  0  0  0
   18.8003   -9.0913  -16.5956 O   0  0  0  0  0  0  0  0  0  0  0  0
   18.2100   -8.3893  -22.0551 O   0  0  0  0  0  0  0  0  0  0  0  0
   24.0057  -11.1988  -14.0292 C   0  0  0  0  0  0  0  0  0  0  0  0
   22.7667  -10.5205  -14.4444 C   0  0  2  0  0  0  0  0  0  0  0  0
   21.6349  -11.5450  -14.4432 C   0  0  0  0  0  0  0  0  0  0  0  0
   22.7925   -9.7374  -15.6969 C   0  0  0  0  0  0  0  0  0  0  0  0
   21.5130   -9.0657  -16.0906 C   0  0  2  0  0  0  0  0  0  0  0  0
   20.9821   -9.5309  -17.3520 N   0  0  0  0  0  0  0  0  0  0  0  0
   21.8077   -7.6231  -16.2407 C   0  0  0  0  0  0  0  0  0  0  0  0
   22.4778   -7.1578  -17.2037 O   0  0  0  0  0  0  0  0  0  0  0  0
   19.2984   -4.9145  -14.8074 O   0  0  0  0  0  0  0  0  0  0  0  0
   20.2700   -4.5524  -15.7286 C   0  0  0  0  0  0  0  0  0  0  0  0
   21.5600   -5.2854  -15.3401 C   0  0  2  0  0  0  0  0  0  0  0  0
   21.3247   -6.7118  -15.2713 N   0  0  0  0  0  0  0  0  0  0  0  0
   22.0988   -4.7655  -14.0693 C   0  0  0  0  0  0  0  0  0  0  0  0
   22.5185   -3.4516  -14.0039 O   0  0  0  0  0  0  0  0  0  0  0  0
   22.1805   -5.4865  -13.0628 O   0  0  0  0  0  0  0  0  0  0  0  0
  2  1  1  1
  2  3  1  0
  3  4  1  0
  4  5  2  0
  4  8  1  0
  6 14  1  0
  6  2  1  0
  7  6  2  0
 10  9  1  6
 10 12  1  0
 11 10  1  0
 13 12  1  6
 13 14  1  0
 13 15  1  0
 15 16  2  0
 18 17  1  0
 19 18  1  1
 20 15  1  0
 20 19  1  0
 21 19  1  0
 21 22  1  0
 23 21  2  0
M  END
$$$$
