DLS.pdb
     RDKit          3D

 23 22  0  0  1  0  0  0  0  0999 V2000
   45.5154  -12.5716  -12.7282 N   0  0  0  0  0  0  0  0  0  0  0  0
   45.1654  -11.7405  -11.6146 C   0  0  1  0  0  0  0  0  0  0  0  0
   44.7858  -10.3490  -12.0664 C   0  0  0  0  0  0  0  0  0  0  0  0
   45.9143   -9.6530  -12.7163 C   0  0  0  0  0  0  0  0  0  0  0  0
   45.8077   -9.2606  -13.8869 O   0  0  0  0  0  0  0  0  0  0  0  0
   44.0362  -12.3041  -10.8243 C   0  0  0  0  0  0  0  0  0  0  0  0
   42.8579  -12.0423  -11.1762 O   0  0  0  0  0  0  0  0  0  0  0  0
   47.0782   -9.4520  -11.9966 O   0  0  0  0  0  0  0  0  0  0  0  0
   43.0026  -17.4721   -8.6021 C   0  0  0  0  0  0  0  0  0  0  0  0
   42.7042  -16.1011   -9.0482 C   0  0  2  0  0  0  0  0  0  0  0  0
   42.9054  -16.0338  -10.5600 C   0  0  0  0  0  0  0  0  0  0  0  0
   43.3822  -14.9851   -8.3572 C   0  0  0  0  0  0  0  0  0  0  0  0
   43.1749  -13.6185   -8.9339 C   0  0  2  0  0  0  0  0  0  0  0  0
   44.3108  -13.1304   -9.6827 N   0  0  0  0  0  0  0  0  0  0  0  0
   42.9653  -12.6942   -7.7971 C   0  0  0  0  0  0  0  0  0  0  0  0
   41.9488  -12.7464   -7.0508 O   0  0  0  0  0  0  0  0  0  0  0  0
   46.1598  -10.8037   -6.2371 O   0  0  0  0  0  0  0  0  0  0  0  0
   45.0056  -10.8958   -5.4735 C   0  0  0  0  0  0  0  0  0  0  0  0
   43.8154  -10.7582   -6.4310 C   0  0  2  0  0  0  0  0  0  0  0  0
   43.9369  -11.7028   -7.5208 N   0  0  0  0  0  0  0  0  0  0  0  0
   43.6959   -9.3743   -6.9271 C   0  0  0  0  0  0  0  0  0  0  0  0
   43.4992   -8.3498   -6.0224 O   0  0  0  0  0  0  0  0  0  0  0  0
   43.7691   -9.1172   -8.1388 O   0  0  0  0  0  0  0  0  0  0  0  0
  2  1  1  6
  2  3  1  0
  3  4  1  0
  4  5  2  0
  4  8  1  0
  6 14  1  0
  6  2  1  0
  7  6  2  0
 10  9  1  1
 10 12  1  0
 11 10  1  0
 13 12  1  1
 13 14  1  0
 13 15  1  0
 15 16  2  0
 18 17  1  0
 19 18  1  1
 20 15  1  0
 20 19  1  0
 21 19  1  0
 21 22  1  0
 23 21  2  0
M  END
$$$$
