DLS.pdb
     RDKit          3D

 23 22  0  0  1  0  0  0  0  0999 V2000
   22.9428  -10.6178  -20.2524 N   0  0  0  0  0  0  0  0  0  0  0  0
   21.6216  -10.0632  -20.2688 C   0  0  1  0  0  0  0  0  0  0  0  0
   20.6117  -11.0664  -20.7769 C   0  0  0  0  0  0  0  0  0  0  0  0
   20.7336  -11.2830  -22.2323 C   0  0  0  0  0  0  0  0  0  0  0  0
   21.8384  -11.1768  -22.7834 O   0  0  0  0  0  0  0  0  0  0  0  0
   21.1888   -9.5993  -18.9217 C   0  0  0  0  0  0  0  0  0  0  0  0
   19.9613   -9.4455  -18.6974 O   0  0  0  0  0  0  0  0  0  0  0  0
   19.5997  -11.6032  -22.9568 O   0  0  0  0  0  0  0  0  0  0  0  0
   22.9107   -9.3656  -12.9900 C   0  0  0  0  0  0  0  0  0  0  0  0
   22.0539   -9.0143  -14.1346 C   0  0  2  0  0  0  0  0  0  0  0  0
   20.7222   -9.7443  -13.9791 C   0  0  0  0  0  0  0  0  0  0  0  0
   22.6111   -9.1790  -15.4929 C   0  0  0  0  0  0  0  0  0  0  0  0
   21.6954   -8.8571  -16.6336 C   0  0  2  0  0  0  0  0  0  0  0  0
   22.1735   -9.3378  -17.9101 N   0  0  0  0  0  0  0  0  0  0  0  0
   21.6116   -7.3819  -16.7206 C   0  0  0  0  0  0  0  0  0  0  0  0
   22.6145   -6.6518  -16.9533 O   0  0  0  0  0  0  0  0  0  0  0  0
   17.8424   -5.6003  -16.6348 O   0  0  0  0  0  0  0  0  0  0  0  0
   18.8597   -4.9981  -17.3603 C   0  0  0  0  0  0  0  0  0  0  0  0
   20.1778   -5.3142  -16.6428 C   0  0  2  0  0  0  0  0  0  0  0  0
   20.3604   -6.7461  -16.5375 N   0  0  0  0  0  0  0  0  0  0  0  0
   20.2256   -4.6654  -15.3191 C   0  0  0  0  0  0  0  0  0  0  0  0
   20.3539   -5.4495  -14.1897 O   0  0  0  0  0  0  0  0  0  0  0  0
   20.1528   -3.4320  -15.2046 O   0  0  0  0  0  0  0  0  0  0  0  0
  2  1  1  1
  2  3  1  0
  3  4  1  0
  4  5  2  0
  4  8  1  0
  6 14  1  0
  6  2  1  0
  7  6  2  0
 10  9  1  1
 10 12  1  0
 11 10  1  0
 13 12  1  1
 13 14  1  0
 13 15  1  0
 15 16  2  0
 18 17  1  0
 19 18  1  1
 20 15  1  0
 20 19  1  0
 21 19  1  0
 21 22  1  0
 23 21  2  0
M  END
$$$$
