DLS.pdb
     RDKit          3D

 23 22  0  0  1  0  0  0  0  0999 V2000
   16.1274  -21.2490    1.2097 N   0  0  0  0  0  0  0  0  0  0  0  0
   15.6782  -20.7506    2.4759 C   0  0  1  0  0  0  0  0  0  0  0  0
   15.5220  -21.8683    3.4814 C   0  0  0  0  0  0  0  0  0  0  0  0
   14.5521  -22.8856    3.0292 C   0  0  0  0  0  0  0  0  0  0  0  0
   13.9447  -22.7295    1.9604 O   0  0  0  0  0  0  0  0  0  0  0  0
   16.6064  -19.7332    3.0421 C   0  0  0  0  0  0  0  0  0  0  0  0
   17.8070  -20.0495    3.2403 O   0  0  0  0  0  0  0  0  0  0  0  0
   14.3403  -24.0026    3.8169 O   0  0  0  0  0  0  0  0  0  0  0  0
   17.8189  -14.5680    4.7923 C   0  0  0  0  0  0  0  0  0  0  0  0
   18.0351  -15.1342    3.4506 C   0  0  2  0  0  0  0  0  0  0  0  0
   18.1083  -13.9834    2.4501 C   0  0  0  0  0  0  0  0  0  0  0  0
   17.1186  -16.1984    2.9922 C   0  0  0  0  0  0  0  0  0  0  0  0
   17.0830  -17.4490    3.8155 C   0  0  2  0  0  0  0  0  0  0  0  0
   16.1177  -18.4187    3.3496 N   0  0  0  0  0  0  0  0  0  0  0  0
   16.6872  -17.0557    5.1864 C   0  0  0  0  0  0  0  0  0  0  0  0
   15.7689  -16.2225    5.4214 O   0  0  0  0  0  0  0  0  0  0  0  0
   18.4956  -19.0108    8.4077 O   0  0  0  0  0  0  0  0  0  0  0  0
   17.1660  -18.6312    8.5169 C   0  0  0  0  0  0  0  0  0  0  0  0
   16.9829  -17.3678    7.6668 C   0  0  2  0  0  0  0  0  0  0  0  0
   17.3573  -17.6292    6.2934 N   0  0  0  0  0  0  0  0  0  0  0  0
   17.7481  -16.2392    8.2293 C   0  0  0  0  0  0  0  0  0  0  0  0
   17.3771  -15.7183    9.4531 O   0  0  0  0  0  0  0  0  0  0  0  0
   18.7153  -15.7526    7.6231 O   0  0  0  0  0  0  0  0  0  0  0  0
  2  1  1  6
  2  3  1  0
  3  4  1  0
  4  5  2  0
  4  8  1  0
  6 14  1  0
  6  2  1  0
  7  6  2  0
 10  9  1  1
 10 12  1  0
 11 10  1  0
 13 12  1  6
 13 14  1  0
 13 15  1  0
 15 16  2  0
 18 17  1  0
 19 18  1  1
 20 15  1  0
 20 19  1  0
 21 19  1  0
 21 22  1  0
 23 21  2  0
M  END
$$$$
