DLS.pdb
     RDKit          3D

 23 22  0  0  1  0  0  0  0  0999 V2000
   18.3638  -12.2584  -16.7514 N   0  0  0  0  0  0  0  0  0  0  0  0
   18.7270  -10.9722  -17.2683 C   0  0  1  0  0  0  0  0  0  0  0  0
   17.5076  -10.1097  -17.5000 C   0  0  0  0  0  0  0  0  0  0  0  0
   16.6528  -10.6416  -18.5800 C   0  0  0  0  0  0  0  0  0  0  0  0
   17.1694  -11.1753  -19.5720 O   0  0  0  0  0  0  0  0  0  0  0  0
   19.6553  -10.2424  -16.3612 C   0  0  0  0  0  0  0  0  0  0  0  0
   19.2587   -9.9286  -15.2101 O   0  0  0  0  0  0  0  0  0  0  0  0
   15.2793  -10.5313  -18.4599 O   0  0  0  0  0  0  0  0  0  0  0  0
   23.4067  -11.7289  -14.4075 C   0  0  0  0  0  0  0  0  0  0  0  0
   23.6121  -11.2240  -15.7751 C   0  0  2  0  0  0  0  0  0  0  0  0
   25.0263  -11.5934  -16.2158 C   0  0  0  0  0  0  0  0  0  0  0  0
   23.3118   -9.8020  -16.0405 C   0  0  0  0  0  0  0  0  0  0  0  0
   21.8925   -9.3699  -15.8351 C   0  0  2  0  0  0  0  0  0  0  0  0
   20.9774   -9.9123  -16.8136 N   0  0  0  0  0  0  0  0  0  0  0  0
   21.8627   -7.8965  -15.9717 C   0  0  0  0  0  0  0  0  0  0  0  0
   21.9147   -7.3113  -17.0887 O   0  0  0  0  0  0  0  0  0  0  0  0
   19.4550   -5.5563  -14.4575 O   0  0  0  0  0  0  0  0  0  0  0  0
   20.4233   -5.1263  -15.3527 C   0  0  0  0  0  0  0  0  0  0  0  0
   21.7739   -5.6468  -14.8455 C   0  0  2  0  0  0  0  0  0  0  0  0
   21.7720   -7.0937  -14.8095 N   0  0  0  0  0  0  0  0  0  0  0  0
   22.0965   -5.0746  -13.5249 C   0  0  0  0  0  0  0  0  0  0  0  0
   22.3455   -3.7203  -13.4210 O   0  0  0  0  0  0  0  0  0  0  0  0
   22.1475   -5.7873  -12.5104 O   0  0  0  0  0  0  0  0  0  0  0  0
  2  1  1  1
  2  3  1  0
  3  4  1  0
  4  5  2  0
  4  8  1  0
  6 14  1  0
  6  2  1  0
  7  6  2  0
 10  9  1  1
 10 12  1  0
 11 10  1  0
 13 12  1  6
 13 14  1  0
 13 15  1  0
 15 16  2  0
 18 17  1  0
 19 18  1  1
 20 15  1  0
 20 19  1  0
 21 19  1  0
 21 22  1  0
 23 21  2  0
M  END
$$$$
