DLS.pdb
     RDKit          3D

 23 22  0  0  1  0  0  0  0  0999 V2000
   18.3180  -11.1903  -17.1351 N   0  0  0  0  0  0  0  0  0  0  0  0
   19.2223  -10.2702  -17.7589 C   0  0  1  0  0  0  0  0  0  0  0  0
   18.4854   -9.2923  -18.6451 C   0  0  0  0  0  0  0  0  0  0  0  0
   17.8851   -9.9561  -19.8194 C   0  0  0  0  0  0  0  0  0  0  0  0
   18.1577  -11.1392  -20.0681 O   0  0  0  0  0  0  0  0  0  0  0  0
   20.0163   -9.4986  -16.7634 C   0  0  0  0  0  0  0  0  0  0  0  0
   19.4832   -9.1923  -15.6667 O   0  0  0  0  0  0  0  0  0  0  0  0
   17.0224   -9.2353  -20.6252 O   0  0  0  0  0  0  0  0  0  0  0  0
   23.2725  -10.5749  -14.0480 C   0  0  0  0  0  0  0  0  0  0  0  0
   23.7874  -10.2870  -15.3969 C   0  0  2  0  0  0  0  0  0  0  0  0
   25.2660  -10.6647  -15.4370 C   0  0  0  0  0  0  0  0  0  0  0  0
   23.5531   -8.9391  -15.9545 C   0  0  0  0  0  0  0  0  0  0  0  0
   22.1281   -8.4827  -16.0209 C   0  0  2  0  0  0  0  0  0  0  0  0
   21.3668   -9.1205  -17.0710 N   0  0  0  0  0  0  0  0  0  0  0  0
   22.1497   -7.0314  -16.3103 C   0  0  0  0  0  0  0  0  0  0  0  0
   22.5690   -6.5572  -17.4022 O   0  0  0  0  0  0  0  0  0  0  0  0
   19.4661   -4.5502  -14.7457 O   0  0  0  0  0  0  0  0  0  0  0  0
   20.2636   -4.1909  -15.8221 C   0  0  0  0  0  0  0  0  0  0  0  0
   21.6834   -4.6868  -15.5210 C   0  0  2  0  0  0  0  0  0  0  0  0
   21.6835   -6.1217  -15.3313 N   0  0  0  0  0  0  0  0  0  0  0  0
   22.2483   -3.9879  -14.3515 C   0  0  0  0  0  0  0  0  0  0  0  0
   22.4620   -2.6254  -14.4204 O   0  0  0  0  0  0  0  0  0  0  0  0
   22.5335   -4.6017  -13.3115 O   0  0  0  0  0  0  0  0  0  0  0  0
  2  1  1  1
  2  3  1  0
  3  4  1  0
  4  5  2  0
  4  8  1  0
  6 14  1  0
  6  2  1  0
  7  6  2  0
 10  9  1  1
 10 12  1  0
 11 10  1  0
 13 12  1  6
 13 14  1  0
 13 15  1  0
 15 16  2  0
 18 17  1  0
 19 18  1  1
 20 15  1  0
 20 19  1  0
 21 19  1  0
 21 22  1  0
 23 21  2  0
M  END
$$$$
