YDL.pdb
     RDKit          3D

 29 29  0  0  1  0  0  0  0  0999 V2000
   15.1532  -18.0613  -10.3730 O   0  0  0  0  0  0  0  0  0  0  0  0
   16.3095  -18.3003  -11.1110 C   0  0  0  0  0  0  0  0  0  0  0  0
   16.8705  -19.5682  -11.0633 C   0  0  0  0  0  0  0  0  0  0  0  0
   18.0114  -19.8393  -11.7791 C   0  0  0  0  0  0  0  0  0  0  0  0
   18.5987  -18.8624  -12.5410 C   0  0  0  0  0  0  0  0  0  0  0  0
   19.8335  -19.1986  -13.2843 C   0  0  0  0  0  0  0  0  0  0  0  0
   19.6045  -19.4750  -14.7537 C   0  0  2  0  0  0  0  0  0  0  0  0
   18.5632  -20.4902  -14.8447 N   0  0  0  0  0  0  0  0  0  0  0  0
   20.8588  -19.9515  -15.3732 C   0  0  0  0  0  0  0  0  0  0  0  0
   20.8210  -20.9213  -16.1679 O   0  0  0  0  0  0  0  0  0  0  0  0
   18.0389  -17.6118  -12.5829 C   0  0  0  0  0  0  0  0  0  0  0  0
   16.8970  -17.3254  -11.8719 C   0  0  0  0  0  0  0  0  0  0  0  0
   22.1398  -19.3698  -15.1224 N   0  0  0  0  0  0  0  0  0  0  0  0
   23.2565  -19.5556  -16.0314 C   0  0  1  0  0  0  0  0  0  0  0  0
   22.8823  -18.7978  -17.3059 C   0  0  0  0  0  0  0  0  0  0  0  0
   23.9261  -18.8962  -18.3428 C   0  0  0  0  0  0  0  0  0  0  0  0
   24.5448  -19.9682  -18.5731 O   0  0  0  0  0  0  0  0  0  0  0  0
   24.4936  -18.9281  -15.5177 C   0  0  0  0  0  0  0  0  0  0  0  0
   24.4240  -17.7978  -14.9553 O   0  0  0  0  0  0  0  0  0  0  0  0
   24.2425  -17.7793  -19.0921 O   0  0  0  0  0  0  0  0  0  0  0  0
   26.5130  -19.8955  -11.2495 C   0  0  0  0  0  0  0  0  0  0  0  0
   26.1775  -21.0580  -12.1930 C   0  0  1  0  0  0  0  0  0  0  0  0
   25.2365  -22.0267  -11.4545 C   0  0  0  0  0  0  0  0  0  0  0  0
   25.4946  -20.5053  -13.4045 C   0  0  0  0  0  0  0  0  0  0  0  0
   26.4878  -20.0801  -14.4424 C   0  0  2  0  0  0  0  0  0  0  0  0
   25.7764  -19.5092  -15.6097 N   0  0  0  0  0  0  0  0  0  0  0  0
   27.2408  -21.2357  -14.9373 C   0  0  0  0  0  0  0  0  0  0  0  0
   28.5597  -21.4772  -14.5421 O   0  0  0  0  0  0  0  0  0  0  0  0
   26.7690  -22.0738  -15.7338 O   0  0  0  0  0  0  0  0  0  0  0  0
  2  1  1  0
  2 12  2  0
  3  2  1  0
  4  3  2  0
  4  5  1  0
  5 11  2  0
  6  7  1  0
  6  5  1  0
  7  8  1  1
  9  7  1  0
  9 10  2  0
 11 12  1  0
 13  9  1  0
 14 13  1  0
 14 18  1  0
 14 15  1  6
 16 15  1  0
 16 17  2  0
 18 19  2  0
 20 16  1  0
 22 21  1  1
 22 24  1  0
 22 23  1  0
 25 24  1  1
 25 27  1  0
 26 18  1  0
 26 25  1  0
 27 29  2  0
 27 28  1  0
M  END
$$$$
