YDL.pdb
     RDKit          3D

 29 29  0  0  1  0  0  0  0  0999 V2000
   27.4660  -20.1738   -6.9219 O   0  0  0  0  0  0  0  0  0  0  0  0
   27.0114  -20.2068   -8.2376 C   0  0  0  0  0  0  0  0  0  0  0  0
   25.6442  -20.1416   -8.4635 C   0  0  0  0  0  0  0  0  0  0  0  0
   25.1606  -20.1716   -9.7491 C   0  0  0  0  0  0  0  0  0  0  0  0
   26.0231  -20.2657  -10.8108 C   0  0  0  0  0  0  0  0  0  0  0  0
   25.4543  -20.3074  -12.1764 C   0  0  0  0  0  0  0  0  0  0  0  0
   25.0821  -21.6985  -12.6396 C   0  0  2  0  0  0  0  0  0  0  0  0
   26.2706  -22.2838  -13.2463 N   0  0  0  0  0  0  0  0  0  0  0  0
   23.9770  -21.6197  -13.6177 C   0  0  0  0  0  0  0  0  0  0  0  0
   24.2443  -21.4957  -14.8370 O   0  0  0  0  0  0  0  0  0  0  0  0
   27.3728  -20.3301  -10.5797 C   0  0  0  0  0  0  0  0  0  0  0  0
   27.8718  -20.3010   -9.2985 C   0  0  0  0  0  0  0  0  0  0  0  0
   22.5944  -21.6760  -13.2607 N   0  0  0  0  0  0  0  0  0  0  0  0
   21.5511  -21.8270  -14.2589 C   0  0  1  0  0  0  0  0  0  0  0  0
   20.5243  -22.7780  -13.6426 C   0  0  0  0  0  0  0  0  0  0  0  0
   19.4226  -23.0910  -14.5715 C   0  0  0  0  0  0  0  0  0  0  0  0
   19.5918  -23.1515  -15.8176 O   0  0  0  0  0  0  0  0  0  0  0  0
   20.8441  -20.5528  -14.5123 C   0  0  0  0  0  0  0  0  0  0  0  0
   20.4813  -19.8431  -13.5308 O   0  0  0  0  0  0  0  0  0  0  0  0
   18.1586  -23.3276  -14.0663 O   0  0  0  0  0  0  0  0  0  0  0  0
   21.2890  -17.3710  -19.1878 C   0  0  0  0  0  0  0  0  0  0  0  0
   21.2303  -17.8007  -17.7160 C   0  0  1  0  0  0  0  0  0  0  0  0
   21.4489  -16.5559  -16.8375 C   0  0  0  0  0  0  0  0  0  0  0  0
   19.8803  -18.3871  -17.4454 C   0  0  0  0  0  0  0  0  0  0  0  0
   19.7515  -18.8198  -16.0168 C   0  0  2  0  0  0  0  0  0  0  0  0
   20.5365  -20.0569  -15.7973 N   0  0  0  0  0  0  0  0  0  0  0  0
   18.3584  -19.1488  -15.7030 C   0  0  0  0  0  0  0  0  0  0  0  0
   17.7900  -20.3704  -16.0754 O   0  0  0  0  0  0  0  0  0  0  0  0
   17.5906  -18.3766  -15.0917 O   0  0  0  0  0  0  0  0  0  0  0  0
  2  1  1  0
  2 12  2  0
  3  2  1  0
  4  3  2  0
  4  5  1  0
  5 11  2  0
  6  7  1  0
  6  5  1  0
  7  8  1  6
  9  7  1  0
  9 10  2  0
 11 12  1  0
 13  9  1  0
 14 13  1  0
 14 18  1  0
 14 15  1  1
 16 15  1  0
 16 17  2  0
 18 19  2  0
 20 16  1  0
 22 21  1  6
 22 24  1  0
 22 23  1  0
 25 24  1  6
 25 27  1  0
 26 18  1  0
 26 25  1  0
 27 29  2  0
 27 28  1  0
M  END
$$$$
