YDL.pdb
     RDKit          3D

 29 29  0  0  1  0  0  0  0  0999 V2000
   29.6827  -22.9513  -18.5233 O   0  0  0  0  0  0  0  0  0  0  0  0
   28.8324  -22.2976  -17.6353 C   0  0  0  0  0  0  0  0  0  0  0  0
   27.9831  -23.0650  -16.8515 C   0  0  0  0  0  0  0  0  0  0  0  0
   27.1308  -22.4532  -15.9644 C   0  0  0  0  0  0  0  0  0  0  0  0
   27.1155  -21.0870  -15.8498 C   0  0  0  0  0  0  0  0  0  0  0  0
   26.1711  -20.4733  -14.8897 C   0  0  0  0  0  0  0  0  0  0  0  0
   24.7316  -20.4916  -15.3541 C   0  0  2  0  0  0  0  0  0  0  0  0
   24.6482  -19.6418  -16.5349 N   0  0  0  0  0  0  0  0  0  0  0  0
   23.8539  -19.9847  -14.2785 C   0  0  0  0  0  0  0  0  0  0  0  0
   23.7212  -18.7466  -14.1269 O   0  0  0  0  0  0  0  0  0  0  0  0
   27.9572  -20.3353  -16.6280 C   0  0  0  0  0  0  0  0  0  0  0  0
   28.8160  -20.9334  -17.5202 C   0  0  0  0  0  0  0  0  0  0  0  0
   23.1308  -20.8279  -13.3795 N   0  0  0  0  0  0  0  0  0  0  0  0
   22.5121  -20.3091  -12.1730 C   0  0  1  0  0  0  0  0  0  0  0  0
   21.7233  -21.4765  -11.5783 C   0  0  0  0  0  0  0  0  0  0  0  0
   20.9639  -21.0848  -10.3765 C   0  0  0  0  0  0  0  0  0  0  0  0
   20.8688  -19.8861  -10.0035 O   0  0  0  0  0  0  0  0  0  0  0  0
   23.5194  -19.9240  -11.1606 C   0  0  0  0  0  0  0  0  0  0  0  0
   23.3026  -18.9174  -10.4268 O   0  0  0  0  0  0  0  0  0  0  0  0
   20.3319  -22.0594   -9.6284 O   0  0  0  0  0  0  0  0  0  0  0  0
   26.0608  -20.1924   -6.2989 C   0  0  0  0  0  0  0  0  0  0  0  0
   26.3279  -19.5880   -7.6836 C   0  0  1  0  0  0  0  0  0  0  0  0
   27.7233  -20.0403   -8.1500 C   0  0  0  0  0  0  0  0  0  0  0  0
   25.2841  -20.0902   -8.6311 C   0  0  0  0  0  0  0  0  0  0  0  0
   25.7931  -20.1112  -10.0401 C   0  0  2  0  0  0  0  0  0  0  0  0
   24.7332  -20.6113  -10.9462 N   0  0  0  0  0  0  0  0  0  0  0  0
   26.9208  -21.0386  -10.1655 C   0  0  0  0  0  0  0  0  0  0  0  0
   26.7447  -22.3545  -10.6032 O   0  0  0  0  0  0  0  0  0  0  0  0
   28.0997  -20.7280   -9.8953 O   0  0  0  0  0  0  0  0  0  0  0  0
  2  1  1  0
  2 12  2  0
  3  2  1  0
  4  3  2  0
  4  5  1  0
  5 11  2  0
  6  7  1  0
  6  5  1  0
  7  8  1  6
  9  7  1  0
  9 10  2  0
 11 12  1  0
 13  9  1  0
 14 13  1  0
 14 18  1  0
 14 15  1  1
 16 15  1  0
 16 17  2  0
 18 19  2  0
 20 16  1  0
 22 21  1  1
 22 24  1  0
 22 23  1  0
 25 24  1  1
 25 27  1  0
 26 18  1  0
 26 25  1  0
 27 29  2  0
 27 28  1  0
M  END
$$$$
