YDL.pdb
     RDKit          3D

 29 29  0  0  1  0  0  0  0  0999 V2000
   26.2059  -20.4458   -6.8453 O   0  0  0  0  0  0  0  0  0  0  0  0
   25.8973  -20.3334   -8.1985 C   0  0  0  0  0  0  0  0  0  0  0  0
   26.9406  -20.1927   -9.1020 C   0  0  0  0  0  0  0  0  0  0  0  0
   26.6727  -20.0793  -10.4447 C   0  0  0  0  0  0  0  0  0  0  0  0
   25.3785  -20.1044  -10.8965 C   0  0  0  0  0  0  0  0  0  0  0  0
   25.1393  -19.9660  -12.3505 C   0  0  0  0  0  0  0  0  0  0  0  0
   24.5773  -21.2125  -12.9973 C   0  0  2  0  0  0  0  0  0  0  0  0
   25.6072  -22.2405  -12.9204 N   0  0  0  0  0  0  0  0  0  0  0  0
   24.2222  -20.9283  -14.4035 C   0  0  0  0  0  0  0  0  0  0  0  0
   24.6756  -21.6650  -15.3119 O   0  0  0  0  0  0  0  0  0  0  0  0
   24.3528  -20.2433   -9.9978 C   0  0  0  0  0  0  0  0  0  0  0  0
   24.6053  -20.3581   -8.6508 C   0  0  0  0  0  0  0  0  0  0  0  0
   23.3794  -19.8472  -14.8071 N   0  0  0  0  0  0  0  0  0  0  0  0
   22.5369  -19.9320  -15.9865 C   0  0  1  0  0  0  0  0  0  0  0  0
   21.5338  -21.0496  -15.6980 C   0  0  0  0  0  0  0  0  0  0  0  0
   21.7969  -22.2589  -16.4998 C   0  0  0  0  0  0  0  0  0  0  0  0
   22.8240  -22.3779  -17.2182 O   0  0  0  0  0  0  0  0  0  0  0  0
   21.7453  -18.6986  -16.1863 C   0  0  0  0  0  0  0  0  0  0  0  0
   20.8510  -18.3967  -15.3450 O   0  0  0  0  0  0  0  0  0  0  0  0
   20.8912  -23.3019  -16.4678 O   0  0  0  0  0  0  0  0  0  0  0  0
   21.1534  -13.6056  -17.7158 C   0  0  0  0  0  0  0  0  0  0  0  0
   20.7947  -14.5743  -18.8504 C   0  0  1  0  0  0  0  0  0  0  0  0
   21.1801  -13.9188  -20.1887 C   0  0  0  0  0  0  0  0  0  0  0  0
   21.5703  -15.8396  -18.6584 C   0  0  0  0  0  0  0  0  0  0  0  0
   21.1231  -16.5707  -17.4296 C   0  0  2  0  0  0  0  0  0  0  0  0
   21.9165  -17.8117  -17.2707 N   0  0  0  0  0  0  0  0  0  0  0  0
   19.7233  -16.9844  -17.5583 C   0  0  0  0  0  0  0  0  0  0  0  0
   19.3684  -18.2060  -18.1378 O   0  0  0  0  0  0  0  0  0  0  0  0
   18.7622  -16.2892  -17.1679 O   0  0  0  0  0  0  0  0  0  0  0  0
  2  1  1  0
  2 12  2  0
  3  2  1  0
  4  3  2  0
  4  5  1  0
  5 11  2  0
  6  7  1  0
  6  5  1  0
  7  8  1  6
  9  7  1  0
  9 10  2  0
 11 12  1  0
 13  9  1  0
 14 13  1  0
 14 18  1  0
 14 15  1  1
 16 15  1  0
 16 17  2  0
 18 19  2  0
 20 16  1  0
 22 21  1  1
 22 24  1  0
 22 23  1  0
 25 24  1  6
 25 27  1  0
 26 18  1  0
 26 25  1  0
 27 29  2  0
 27 28  1  0
M  END
$$$$
