YDL.pdb
     RDKit          3D

 29 29  0  0  1  0  0  0  0  0999 V2000
   14.8046  -15.3989  -15.3936 O   0  0  0  0  0  0  0  0  0  0  0  0
   15.8872  -14.5479  -15.6004 C   0  0  0  0  0  0  0  0  0  0  0  0
   17.0680  -14.8079  -14.9203 C   0  0  0  0  0  0  0  0  0  0  0  0
   18.1563  -13.9890  -15.1004 C   0  0  0  0  0  0  0  0  0  0  0  0
   18.0811  -12.9152  -15.9497 C   0  0  0  0  0  0  0  0  0  0  0  0
   19.2755  -12.0545  -16.1013 C   0  0  0  0  0  0  0  0  0  0  0  0
   20.0200  -12.2681  -17.4006 C   0  0  2  0  0  0  0  0  0  0  0  0
   20.6657  -13.5719  -17.3188 N   0  0  0  0  0  0  0  0  0  0  0  0
   21.0208  -11.1964  -17.5843 C   0  0  0  0  0  0  0  0  0  0  0  0
   22.2414  -11.4795  -17.5240 O   0  0  0  0  0  0  0  0  0  0  0  0
   16.9108  -12.6643  -16.6179 C   0  0  0  0  0  0  0  0  0  0  0  0
   15.8132  -13.4751  -16.4479 C   0  0  0  0  0  0  0  0  0  0  0  0
   20.6850   -9.8294  -17.8307 N   0  0  0  0  0  0  0  0  0  0  0  0
   21.7035   -8.8071  -17.9895 C   0  0  1  0  0  0  0  0  0  0  0  0
   21.7778   -8.5277  -19.4912 C   0  0  0  0  0  0  0  0  0  0  0  0
   22.8047   -7.5230  -19.8238 C   0  0  0  0  0  0  0  0  0  0  0  0
   23.8144   -7.3291  -19.0972 O   0  0  0  0  0  0  0  0  0  0  0  0
   21.3109   -7.5351  -17.3447 C   0  0  0  0  0  0  0  0  0  0  0  0
   20.1688   -7.0488  -17.5851 O   0  0  0  0  0  0  0  0  0  0  0  0
   22.6623   -6.7641  -20.9696 O   0  0  0  0  0  0  0  0  0  0  0  0
   22.1698   -3.5706  -13.6591 C   0  0  0  0  0  0  0  0  0  0  0  0
   21.2951   -4.7992  -13.3771 C   0  0  1  0  0  0  0  0  0  0  0  0
   19.8439   -4.4613  -13.7633 C   0  0  0  0  0  0  0  0  0  0  0  0
   21.7937   -5.9389  -14.2091 C   0  0  0  0  0  0  0  0  0  0  0  0
   21.6445   -5.6509  -15.6717 C   0  0  2  0  0  0  0  0  0  0  0  0
   22.1339   -6.8056  -16.4603 N   0  0  0  0  0  0  0  0  0  0  0  0
   22.4703   -4.5031  -16.0565 C   0  0  0  0  0  0  0  0  0  0  0  0
   21.9490   -3.2071  -16.1074 O   0  0  0  0  0  0  0  0  0  0  0  0
   23.6775   -4.5964  -16.3621 O   0  0  0  0  0  0  0  0  0  0  0  0
  2  1  1  0
  2 12  2  0
  3  2  1  0
  4  3  2  0
  4  5  1  0
  5 11  2  0
  6  7  1  0
  6  5  1  0
  7  8  1  1
  9  7  1  0
  9 10  2  0
 11 12  1  0
 13  9  1  0
 14 13  1  0
 14 18  1  0
 14 15  1  6
 16 15  1  0
 16 17  2  0
 18 19  2  0
 20 16  1  0
 22 21  1  6
 22 24  1  0
 22 23  1  0
 25 24  1  1
 25 27  1  0
 26 18  1  0
 26 25  1  0
 27 29  2  0
 27 28  1  0
M  END
$$$$
