YDL.pdb
     RDKit          3D

 29 29  0  0  1  0  0  0  0  0999 V2000
   27.3255  -16.8237  -15.8221 O   0  0  0  0  0  0  0  0  0  0  0  0
   26.5846  -15.6709  -16.0689 C   0  0  0  0  0  0  0  0  0  0  0  0
   25.6963  -15.2383  -15.0951 C   0  0  0  0  0  0  0  0  0  0  0  0
   24.9490  -14.1047  -15.3052 C   0  0  0  0  0  0  0  0  0  0  0  0
   25.0770  -13.3983  -16.4733 C   0  0  0  0  0  0  0  0  0  0  0  0
   24.2416  -12.1908  -16.6591 C   0  0  0  0  0  0  0  0  0  0  0  0
   22.8159  -12.4924  -17.0649 C   0  0  2  0  0  0  0  0  0  0  0  0
   22.8643  -13.1136  -18.3821 N   0  0  0  0  0  0  0  0  0  0  0  0
   22.0324  -11.2399  -17.1028 C   0  0  0  0  0  0  0  0  0  0  0  0
   22.0896  -10.5107  -18.1219 O   0  0  0  0  0  0  0  0  0  0  0  0
   25.9564  -13.8321  -17.4311 C   0  0  0  0  0  0  0  0  0  0  0  0
   26.7113  -14.9649  -17.2352 C   0  0  0  0  0  0  0  0  0  0  0  0
   21.1962  -10.7931  -16.0336 N   0  0  0  0  0  0  0  0  0  0  0  0
   20.4337   -9.5607  -16.1211 C   0  0  1  0  0  0  0  0  0  0  0  0
   19.1973   -9.7770  -15.2475 C   0  0  0  0  0  0  0  0  0  0  0  0
   18.2686  -10.7655  -15.8264 C   0  0  0  0  0  0  0  0  0  0  0  0
   18.0775  -10.8609  -17.0672 O   0  0  0  0  0  0  0  0  0  0  0  0
   21.1672   -8.4178  -15.5350 C   0  0  0  0  0  0  0  0  0  0  0  0
   21.9057   -8.6106  -14.5270 O   0  0  0  0  0  0  0  0  0  0  0  0
   17.5807  -11.6201  -14.9865 O   0  0  0  0  0  0  0  0  0  0  0  0
   23.5840   -3.0982  -17.3741 C   0  0  0  0  0  0  0  0  0  0  0  0
   23.0537   -3.8728  -16.1605 C   0  0  1  0  0  0  0  0  0  0  0  0
   22.1186   -2.9458  -15.3633 C   0  0  0  0  0  0  0  0  0  0  0  0
   22.2945   -5.0652  -16.6521 C   0  0  0  0  0  0  0  0  0  0  0  0
   21.9802   -6.0096  -15.5323 C   0  0  2  0  0  0  0  0  0  0  0  0
   21.1039   -7.0967  -16.0273 N   0  0  0  0  0  0  0  0  0  0  0  0
   21.2348   -5.3223  -14.4742 C   0  0  0  0  0  0  0  0  0  0  0  0
   19.8437   -5.1930  -14.5206 O   0  0  0  0  0  0  0  0  0  0  0  0
   21.7770   -4.8108  -13.4723 O   0  0  0  0  0  0  0  0  0  0  0  0
  2  1  1  0
  2 12  2  0
  3  2  1  0
  4  3  2  0
  4  5  1  0
  5 11  2  0
  6  7  1  0
  6  5  1  0
  7  8  1  6
  9  7  1  0
  9 10  2  0
 11 12  1  0
 13  9  1  0
 14 13  1  0
 14 18  1  0
 14 15  1  1
 16 15  1  0
 16 17  2  0
 18 19  2  0
 20 16  1  0
 22 21  1  6
 22 24  1  0
 22 23  1  0
 25 24  1  6
 25 27  1  0
 26 18  1  0
 26 25  1  0
 27 29  2  0
 27 28  1  0
M  END
$$$$
