YDL.pdb
     RDKit          3D

 29 29  0  0  1  0  0  0  0  0999 V2000
   14.5466  -16.4074  -15.8601 O   0  0  0  0  0  0  0  0  0  0  0  0
   15.3808  -15.2951  -15.7843 C   0  0  0  0  0  0  0  0  0  0  0  0
   15.2873  -14.3332  -16.7796 C   0  0  0  0  0  0  0  0  0  0  0  0
   16.0951  -13.2227  -16.7364 C   0  0  0  0  0  0  0  0  0  0  0  0
   16.9938  -13.0602  -15.7138 C   0  0  0  0  0  0  0  0  0  0  0  0
   17.8512  -11.8539  -15.7172 C   0  0  0  0  0  0  0  0  0  0  0  0
   19.0540  -11.9634  -16.6278 C   0  0  2  0  0  0  0  0  0  0  0  0
   19.9517  -12.9495  -16.0404 N   0  0  0  0  0  0  0  0  0  0  0  0
   19.7180  -10.6476  -16.7378 C   0  0  0  0  0  0  0  0  0  0  0  0
   20.3509  -10.1954  -15.7538 O   0  0  0  0  0  0  0  0  0  0  0  0
   17.0809  -14.0151  -14.7342 C   0  0  0  0  0  0  0  0  0  0  0  0
   16.2789  -15.1319  -14.7638 C   0  0  0  0  0  0  0  0  0  0  0  0
   19.6866   -9.8378  -17.9148 N   0  0  0  0  0  0  0  0  0  0  0  0
   20.3708   -8.5591  -17.9832 C   0  0  1  0  0  0  0  0  0  0  0  0
   20.5815   -8.2824  -19.4724 C   0  0  0  0  0  0  0  0  0  0  0  0
   21.5571   -9.2057  -20.0809 C   0  0  0  0  0  0  0  0  0  0  0  0
   22.1882  -10.0582  -19.4026 O   0  0  0  0  0  0  0  0  0  0  0  0
   19.5300   -7.4574  -17.4663 C   0  0  0  0  0  0  0  0  0  0  0  0
   19.9942   -6.2814  -17.4530 O   0  0  0  0  0  0  0  0  0  0  0  0
   21.7930   -9.1404  -21.4407 O   0  0  0  0  0  0  0  0  0  0  0  0
   14.9317   -4.6645  -17.0900 C   0  0  0  0  0  0  0  0  0  0  0  0
   15.1066   -5.7259  -15.9959 C   0  0  1  0  0  0  0  0  0  0  0  0
   13.7160   -6.2658  -15.6163 C   0  0  0  0  0  0  0  0  0  0  0  0
   15.9545   -6.8331  -16.5388 C   0  0  0  0  0  0  0  0  0  0  0  0
   17.4122   -6.5035  -16.4340 C   0  0  2  0  0  0  0  0  0  0  0  0
   18.2173   -7.6232  -16.9753 N   0  0  0  0  0  0  0  0  0  0  0  0
   17.8045   -6.3482  -15.0306 C   0  0  0  0  0  0  0  0  0  0  0  0
   18.3319   -7.4121  -14.2930 O   0  0  0  0  0  0  0  0  0  0  0  0
   17.6983   -5.2745  -14.4018 O   0  0  0  0  0  0  0  0  0  0  0  0
  2  1  1  0
  2 12  2  0
  3  2  1  0
  4  3  2  0
  4  5  1  0
  5 11  2  0
  6  7  1  0
  6  5  1  0
  7  8  1  1
  9  7  1  0
  9 10  2  0
 11 12  1  0
 13  9  1  0
 14 13  1  0
 14 18  1  0
 14 15  1  6
 16 15  1  0
 16 17  2  0
 18 19  2  0
 20 16  1  0
 22 21  1  6
 22 24  1  0
 22 23  1  0
 25 24  1  1
 25 27  1  0
 26 18  1  0
 26 25  1  0
 27 29  2  0
 27 28  1  0
M  END
$$$$
