PDE.pdb
     RDKit          3D

 25 25  0  0  1  0  0  0  0  0999 V2000
    7.8949  -14.8730   18.7854 N   0  0  0  0  0  0  0  0  0  0  0  0
    7.4142  -14.2171   17.5783 C   0  0  0  0  0  0  0  0  0  0  0  0
    7.3489  -12.7743   18.0289 C   0  0  0  0  0  0  0  0  0  0  0  0
    8.3643  -12.6481   19.1380 C   0  0  0  0  0  0  0  0  0  0  0  0
    8.9937  -14.0014   19.1640 C   0  0  1  0  0  0  0  0  0  0  0  0
    9.5666  -14.3666   20.4763 C   0  0  0  0  0  0  0  0  0  0  0  0
   10.5991  -13.7663   20.8681 O   0  0  0  0  0  0  0  0  0  0  0  0
    9.0045  -15.3526   21.2963 N   0  0  0  0  0  0  0  0  0  0  0  0
    9.5114  -15.7051   22.6357 C   0  0  1  0  0  0  0  0  0  0  0  0
    8.4100  -16.4990   23.2726 C   0  0  0  0  0  0  0  0  0  0  0  0
    8.6834  -17.0042   24.6152 C   0  0  0  0  0  0  0  0  0  0  0  0
    9.7576  -16.8586   25.2382 O   0  0  0  0  0  0  0  0  0  0  0  0
   10.7706  -16.4361   22.4428 C   0  0  0  0  0  0  0  0  0  0  0  0
   10.8401  -17.5317   21.8190 O   0  0  0  0  0  0  0  0  0  0  0  0
    7.6749  -17.7054   25.2620 O   0  0  0  0  0  0  0  0  0  0  0  0
   11.9761  -15.9075   22.9737 N   0  0  0  0  0  0  0  0  0  0  0  0
   13.2555  -16.6216   22.9475 C   0  0  1  0  0  0  0  0  0  0  0  0
   14.1847  -15.7508   22.1865 C   0  0  0  0  0  0  0  0  0  0  0  0
   13.9451  -15.6410   20.7341 C   0  0  0  0  0  0  0  0  0  0  0  0
   14.9186  -14.7786   20.0365 C   0  0  0  0  0  0  0  0  0  0  0  0
   15.8878  -14.1894   20.6155 O   0  0  0  0  0  0  0  0  0  0  0  0
   13.6221  -17.1038   24.2557 C   0  0  0  0  0  0  0  0  0  0  0  0
   12.9952  -16.7610   25.3143 O   0  0  0  0  0  0  0  0  0  0  0  0
   14.7782  -14.5926   18.6710 O   0  0  0  0  0  0  0  0  0  0  0  0
   14.7078  -17.9863   24.4039 O   0  0  0  0  0  0  0  0  0  0  0  0
  1  5  1  0
  2  1  1  0
  3  2  1  0
  4  3  1  0
  4  5  1  0
  5  6  1  1
  6  7  2  0
  8  6  1  0
  9  8  1  0
  9 13  1  0
  9 10  1  6
 11 12  2  0
 11 10  1  0
 13 14  2  0
 13 16  1  0
 15 11  1  0
 16 17  1  0
 17 22  1  0
 17 18  1  1
 19 18  1  0
 20 19  1  0
 20 21  2  0
 22 23  2  0
 22 25  1  0
 24 20  1  0
M  END
$$$$
