PDE.pdb
     RDKit          3D

 25 25  0  0  1  0  0  0  0  0999 V2000
    8.9134  -13.7184   18.5329 N   0  0  0  0  0  0  0  0  0  0  0  0
    8.0876  -12.5904   18.1278 C   0  0  0  0  0  0  0  0  0  0  0  0
    6.7208  -13.0376   18.5979 C   0  0  0  0  0  0  0  0  0  0  0  0
    6.9749  -13.9865   19.7433 C   0  0  0  0  0  0  0  0  0  0  0  0
    8.4587  -13.9282   19.8965 C   0  0  1  0  0  0  0  0  0  0  0  0
    9.0436  -15.1452   20.4969 C   0  0  0  0  0  0  0  0  0  0  0  0
    8.6480  -15.5021   21.6354 O   0  0  0  0  0  0  0  0  0  0  0  0
   10.0182  -15.9126   19.8474 N   0  0  0  0  0  0  0  0  0  0  0  0
   10.5443  -17.1915   20.3604 C   0  0  1  0  0  0  0  0  0  0  0  0
   11.0177  -17.9331   19.1460 C   0  0  0  0  0  0  0  0  0  0  0  0
   11.4796  -19.2995   19.3741 C   0  0  0  0  0  0  0  0  0  0  0  0
   12.3587  -19.6384   20.1961 O   0  0  0  0  0  0  0  0  0  0  0  0
   11.5928  -16.8672   21.3365 C   0  0  0  0  0  0  0  0  0  0  0  0
   12.4145  -15.9225   21.1734 O   0  0  0  0  0  0  0  0  0  0  0  0
   10.9022  -20.3133   18.6220 O   0  0  0  0  0  0  0  0  0  0  0  0
   11.7078  -17.6373   22.5231 N   0  0  0  0  0  0  0  0  0  0  0  0
   12.6313  -17.3131   23.6138 C   0  0  1  0  0  0  0  0  0  0  0  0
   12.1006  -18.0134   24.8092 C   0  0  0  0  0  0  0  0  0  0  0  0
   12.8919  -17.8929   26.0494 C   0  0  0  0  0  0  0  0  0  0  0  0
   12.3276  -18.6439   27.1877 C   0  0  0  0  0  0  0  0  0  0  0  0
   11.2221  -19.2745   27.1440 O   0  0  0  0  0  0  0  0  0  0  0  0
   14.0057  -17.4946   23.2185 C   0  0  0  0  0  0  0  0  0  0  0  0
   14.3724  -18.4151   22.4127 O   0  0  0  0  0  0  0  0  0  0  0  0
   13.0346  -18.6702   28.3786 O   0  0  0  0  0  0  0  0  0  0  0  0
   15.0038  -16.6412   23.7234 O   0  0  0  0  0  0  0  0  0  0  0  0
  1  5  1  0
  2  1  1  0
  3  2  1  0
  4  3  1  0
  4  5  1  0
  5  6  1  6
  6  7  2  0
  8  6  1  0
  9  8  1  0
  9 13  1  0
  9 10  1  6
 11 12  2  0
 11 10  1  0
 13 14  2  0
 13 16  1  0
 15 11  1  0
 16 17  1  0
 17 22  1  0
 17 18  1  1
 19 18  1  0
 20 19  1  0
 20 21  2  0
 22 23  2  0
 22 25  1  0
 24 20  1  0
M  END
$$$$
