PDE.pdb
     RDKit          3D

 25 25  0  0  1  0  0  0  0  0999 V2000
    9.0701  -14.3831   18.5455 N   0  0  0  0  0  0  0  0  0  0  0  0
    8.8734  -13.2113   17.7050 C   0  0  0  0  0  0  0  0  0  0  0  0
    7.5130  -12.7377   18.1677 C   0  0  0  0  0  0  0  0  0  0  0  0
    7.3705  -13.2327   19.5860 C   0  0  0  0  0  0  0  0  0  0  0  0
    8.6976  -13.8631   19.8498 C   0  0  1  0  0  0  0  0  0  0  0  0
    8.6598  -14.9213   20.8805 C   0  0  0  0  0  0  0  0  0  0  0  0
    8.3472  -14.6033   22.0557 O   0  0  0  0  0  0  0  0  0  0  0  0
    8.9582  -16.2599   20.5979 N   0  0  0  0  0  0  0  0  0  0  0  0
    8.9811  -17.3352   21.6073 C   0  0  1  0  0  0  0  0  0  0  0  0
    8.4296  -18.5401   20.9053 C   0  0  0  0  0  0  0  0  0  0  0  0
    8.3842  -19.7699   21.6914 C   0  0  0  0  0  0  0  0  0  0  0  0
    8.0440  -19.8492   22.8919 O   0  0  0  0  0  0  0  0  0  0  0  0
   10.3697  -17.4672   22.0669 C   0  0  0  0  0  0  0  0  0  0  0  0
   10.7497  -18.3810   22.8511 O   0  0  0  0  0  0  0  0  0  0  0  0
    8.7469  -20.9542   21.0644 O   0  0  0  0  0  0  0  0  0  0  0  0
   11.3458  -16.5368   21.6242 N   0  0  0  0  0  0  0  0  0  0  0  0
   12.7517  -16.5788   22.0356 C   0  0  1  0  0  0  0  0  0  0  0  0
   13.4683  -15.6718   21.1058 C   0  0  0  0  0  0  0  0  0  0  0  0
   14.8920  -15.4162   21.4003 C   0  0  0  0  0  0  0  0  0  0  0  0
   15.6501  -14.8897   20.2487 C   0  0  0  0  0  0  0  0  0  0  0  0
   15.7876  -15.5107   19.1455 O   0  0  0  0  0  0  0  0  0  0  0  0
   12.8938  -16.4150   23.4608 C   0  0  0  0  0  0  0  0  0  0  0  0
   12.0593  -15.7491   24.1618 O   0  0  0  0  0  0  0  0  0  0  0  0
   16.2516  -13.6472   20.3649 O   0  0  0  0  0  0  0  0  0  0  0  0
   13.9831  -16.9988   24.1332 O   0  0  0  0  0  0  0  0  0  0  0  0
  1  5  1  0
  2  1  1  0
  3  2  1  0
  4  3  1  0
  4  5  1  0
  5  6  1  1
  6  7  2  0
  8  6  1  0
  9  8  1  0
  9 13  1  0
  9 10  1  6
 11 12  2  0
 11 10  1  0
 13 14  2  0
 13 16  1  0
 15 11  1  0
 16 17  1  0
 17 22  1  0
 17 18  1  6
 19 18  1  0
 20 19  1  0
 20 21  2  0
 22 23  2  0
 22 25  1  0
 24 20  1  0
M  END
$$$$
