PDE.pdb
     RDKit          3D

 25 25  0  0  1  0  0  0  0  0999 V2000
    9.1952  -14.3307   19.7351 N   0  0  0  0  0  0  0  0  0  0  0  0
    8.9893  -13.2174   18.8205 C   0  0  0  0  0  0  0  0  0  0  0  0
    7.5010  -12.9859   18.9632 C   0  0  0  0  0  0  0  0  0  0  0  0
    7.1413  -13.4879   20.3400 C   0  0  0  0  0  0  0  0  0  0  0  0
    8.4672  -13.8745   20.9065 C   0  0  1  0  0  0  0  0  0  0  0  0
    8.3873  -14.9156   21.9521 C   0  0  0  0  0  0  0  0  0  0  0  0
    7.6840  -14.6913   22.9696 O   0  0  0  0  0  0  0  0  0  0  0  0
    9.0631  -16.1379   21.8523 N   0  0  0  0  0  0  0  0  0  0  0  0
    8.9684  -17.2215   22.8484 C   0  0  1  0  0  0  0  0  0  0  0  0
    9.1054  -18.4892   22.0591 C   0  0  0  0  0  0  0  0  0  0  0  0
    9.2239  -19.7167   22.8413 C   0  0  0  0  0  0  0  0  0  0  0  0
    8.5634  -19.9871   23.8678 O   0  0  0  0  0  0  0  0  0  0  0  0
   10.0272  -16.9911   23.8398 C   0  0  0  0  0  0  0  0  0  0  0  0
   11.1938  -16.6239   23.5260 O   0  0  0  0  0  0  0  0  0  0  0  0
   10.1424  -20.6683   22.4195 O   0  0  0  0  0  0  0  0  0  0  0  0
    9.7506  -17.1849   25.2184 N   0  0  0  0  0  0  0  0  0  0  0  0
   10.7154  -16.9073   26.2859 C   0  0  1  0  0  0  0  0  0  0  0  0
   10.5479  -15.4702   26.6134 C   0  0  0  0  0  0  0  0  0  0  0  0
    9.1911  -15.0358   26.9999 C   0  0  0  0  0  0  0  0  0  0  0  0
    9.1157  -13.6187   27.4055 C   0  0  0  0  0  0  0  0  0  0  0  0
    8.1937  -12.8224   27.0348 O   0  0  0  0  0  0  0  0  0  0  0  0
   10.6540  -17.9001   27.3293 C   0  0  0  0  0  0  0  0  0  0  0  0
   11.4412  -17.8886   28.3350 O   0  0  0  0  0  0  0  0  0  0  0  0
   10.1015  -13.1156   28.2385 O   0  0  0  0  0  0  0  0  0  0  0  0
    9.7017  -18.9337   27.2649 O   0  0  0  0  0  0  0  0  0  0  0  0
  1  5  1  0
  2  1  1  0
  3  2  1  0
  4  3  1  0
  4  5  1  0
  5  6  1  1
  6  7  2  0
  8  6  1  0
  9  8  1  0
  9 13  1  0
  9 10  1  6
 11 12  2  0
 11 10  1  0
 13 14  2  0
 13 16  1  0
 15 11  1  0
 16 17  1  0
 17 22  1  0
 17 18  1  1
 19 18  1  0
 20 19  1  0
 20 21  2  0
 22 23  2  0
 22 25  1  0
 24 20  1  0
M  END
$$$$
