PDE.pdb
     RDKit          3D

 25 25  0  0  1  0  0  0  0  0999 V2000
    8.0297  -14.7667   18.7814 N   0  0  0  0  0  0  0  0  0  0  0  0
    7.3753  -14.0460   17.6995 C   0  0  0  0  0  0  0  0  0  0  0  0
    7.2544  -12.6603   18.2947 C   0  0  0  0  0  0  0  0  0  0  0  0
    8.3716  -12.5518   19.3032 C   0  0  0  0  0  0  0  0  0  0  0  0
    9.0967  -13.8454   19.1320 C   0  0  1  0  0  0  0  0  0  0  0  0
    9.8328  -14.2795   20.3375 C   0  0  0  0  0  0  0  0  0  0  0  0
   10.8336  -13.6121   20.7022 O   0  0  0  0  0  0  0  0  0  0  0  0
    9.4585  -15.4023   21.0858 N   0  0  0  0  0  0  0  0  0  0  0  0
   10.2534  -15.9619   22.1951 C   0  0  1  0  0  0  0  0  0  0  0  0
    9.4162  -17.0749   22.7514 C   0  0  0  0  0  0  0  0  0  0  0  0
   10.0532  -17.9016   23.7728 C   0  0  0  0  0  0  0  0  0  0  0  0
   10.9177  -17.5087   24.5862 O   0  0  0  0  0  0  0  0  0  0  0  0
   11.5450  -16.3790   21.6339 C   0  0  0  0  0  0  0  0  0  0  0  0
   11.6473  -17.2134   20.6918 O   0  0  0  0  0  0  0  0  0  0  0  0
    9.6755  -19.2348   23.8564 O   0  0  0  0  0  0  0  0  0  0  0  0
   12.7458  -15.8341   22.1589 N   0  0  0  0  0  0  0  0  0  0  0  0
   14.0754  -16.1319   21.6194 C   0  0  1  0  0  0  0  0  0  0  0  0
   14.2724  -15.1849   20.4946 C   0  0  0  0  0  0  0  0  0  0  0  0
   15.5821  -15.2312   19.8153 C   0  0  0  0  0  0  0  0  0  0  0  0
   15.6968  -14.2896   18.6846 C   0  0  0  0  0  0  0  0  0  0  0  0
   16.7227  -13.5686   18.4625 O   0  0  0  0  0  0  0  0  0  0  0  0
   15.0633  -16.2310   22.6645 C   0  0  0  0  0  0  0  0  0  0  0  0
   16.2528  -16.6426   22.4479 O   0  0  0  0  0  0  0  0  0  0  0  0
   14.6307  -14.1761   17.8075 O   0  0  0  0  0  0  0  0  0  0  0  0
   14.7343  -15.8682   23.9834 O   0  0  0  0  0  0  0  0  0  0  0  0
  1  5  1  0
  2  1  1  0
  3  2  1  0
  4  3  1  0
  4  5  1  0
  5  6  1  1
  6  7  2  0
  8  6  1  0
  9  8  1  0
  9 13  1  0
  9 10  1  6
 11 12  2  0
 11 10  1  0
 13 14  2  0
 13 16  1  0
 15 11  1  0
 16 17  1  0
 17 22  1  0
 17 18  1  6
 19 18  1  0
 20 19  1  0
 20 21  2  0
 22 23  2  0
 22 25  1  0
 24 20  1  0
M  END
$$$$
