PDE.pdb
     RDKit          3D

 25 25  0  0  1  0  0  0  0  0999 V2000
    8.1482  -14.9394   19.2199 N   0  0  0  0  0  0  0  0  0  0  0  0
    8.2660  -13.9618   18.1481 C   0  0  0  0  0  0  0  0  0  0  0  0
    7.4642  -12.8075   18.7082 C   0  0  0  0  0  0  0  0  0  0  0  0
    7.5321  -12.9550   20.2084 C   0  0  0  0  0  0  0  0  0  0  0  0
    8.4457  -14.1225   20.3837 C   0  0  1  0  0  0  0  0  0  0  0  0
    8.2361  -14.8581   21.6480 C   0  0  0  0  0  0  0  0  0  0  0  0
    8.4777  -14.2692   22.7319 O   0  0  0  0  0  0  0  0  0  0  0  0
    7.7802  -16.1816   21.6835 N   0  0  0  0  0  0  0  0  0  0  0  0
    7.4438  -16.9097   22.9213 C   0  0  1  0  0  0  0  0  0  0  0  0
    6.7254  -18.1441   22.4641 C   0  0  0  0  0  0  0  0  0  0  0  0
    6.2832  -19.0513   23.5195 C   0  0  0  0  0  0  0  0  0  0  0  0
    6.4002  -18.8449   24.7471 O   0  0  0  0  0  0  0  0  0  0  0  0
    8.7040  -17.1545   23.6349 C   0  0  0  0  0  0  0  0  0  0  0  0
    9.7559  -17.5463   23.0566 O   0  0  0  0  0  0  0  0  0  0  0  0
    5.6824  -20.2438   23.1400 O   0  0  0  0  0  0  0  0  0  0  0  0
    8.7660  -16.9497   25.0380 N   0  0  0  0  0  0  0  0  0  0  0  0
   10.0154  -16.9545   25.8038 C   0  0  1  0  0  0  0  0  0  0  0  0
   10.0648  -15.6442   26.4976 C   0  0  0  0  0  0  0  0  0  0  0  0
    9.8207  -15.6592   27.9533 C   0  0  0  0  0  0  0  0  0  0  0  0
    9.8713  -14.3223   28.5765 C   0  0  0  0  0  0  0  0  0  0  0  0
   10.0875  -13.2460   27.9311 O   0  0  0  0  0  0  0  0  0  0  0  0
   10.1760  -18.1766   26.5514 C   0  0  0  0  0  0  0  0  0  0  0  0
    9.2164  -18.9986   26.7377 O   0  0  0  0  0  0  0  0  0  0  0  0
    9.6733  -14.2219   29.9438 O   0  0  0  0  0  0  0  0  0  0  0  0
   11.4255  -18.5035   27.1095 O   0  0  0  0  0  0  0  0  0  0  0  0
  1  5  1  0
  2  1  1  0
  3  2  1  0
  4  3  1  0
  4  5  1  0
  5  6  1  1
  6  7  2  0
  8  6  1  0
  9  8  1  0
  9 13  1  0
  9 10  1  6
 11 12  2  0
 11 10  1  0
 13 14  2  0
 13 16  1  0
 15 11  1  0
 16 17  1  0
 17 22  1  0
 17 18  1  1
 19 18  1  0
 20 19  1  0
 20 21  2  0
 22 23  2  0
 22 25  1  0
 24 20  1  0
M  END
$$$$
