PDE.pdb
     RDKit          3D

 25 25  0  0  1  0  0  0  0  0999 V2000
    8.7832  -14.6485   19.1651 N   0  0  0  0  0  0  0  0  0  0  0  0
    8.7539  -13.5715   18.1866 C   0  0  0  0  0  0  0  0  0  0  0  0
    7.6766  -12.6773   18.7598 C   0  0  0  0  0  0  0  0  0  0  0  0
    7.6702  -12.9481   20.2442 C   0  0  0  0  0  0  0  0  0  0  0  0
    8.8076  -13.9005   20.4102 C   0  0  1  0  0  0  0  0  0  0  0  0
    8.6799  -14.7806   21.5904 C   0  0  0  0  0  0  0  0  0  0  0  0
    8.6511  -14.2538   22.7313 O   0  0  0  0  0  0  0  0  0  0  0  0
    8.5903  -16.1740   21.4856 N   0  0  0  0  0  0  0  0  0  0  0  0
    8.4069  -17.0816   22.6337 C   0  0  1  0  0  0  0  0  0  0  0  0
    8.0333  -18.4026   22.0300 C   0  0  0  0  0  0  0  0  0  0  0  0
    7.8782  -19.5106   22.9685 C   0  0  0  0  0  0  0  0  0  0  0  0
    7.3020  -19.4453   24.0762 O   0  0  0  0  0  0  0  0  0  0  0  0
    9.6651  -17.0801   23.3913 C   0  0  0  0  0  0  0  0  0  0  0  0
   10.7957  -16.9477   22.8448 O   0  0  0  0  0  0  0  0  0  0  0  0
    8.4105  -20.7420   22.6118 O   0  0  0  0  0  0  0  0  0  0  0  0
    9.6340  -17.2342   24.8018 N   0  0  0  0  0  0  0  0  0  0  0  0
   10.8270  -17.1744   25.6507 C   0  0  1  0  0  0  0  0  0  0  0  0
   10.8428  -15.8060   26.2234 C   0  0  0  0  0  0  0  0  0  0  0  0
    9.7926  -15.4929   27.2123 C   0  0  0  0  0  0  0  0  0  0  0  0
    9.9406  -14.1619   27.8326 C   0  0  0  0  0  0  0  0  0  0  0  0
   11.0193  -13.4855   27.8129 O   0  0  0  0  0  0  0  0  0  0  0  0
   10.9216  -18.3232   26.5164 C   0  0  0  0  0  0  0  0  0  0  0  0
    9.9636  -19.1556   26.6597 O   0  0  0  0  0  0  0  0  0  0  0  0
    8.8471  -13.6071   28.4771 O   0  0  0  0  0  0  0  0  0  0  0  0
   12.1014  -18.5628   27.2446 O   0  0  0  0  0  0  0  0  0  0  0  0
  1  5  1  0
  2  1  1  0
  3  2  1  0
  4  3  1  0
  4  5  1  0
  5  6  1  1
  6  7  2  0
  8  6  1  0
  9  8  1  0
  9 13  1  0
  9 10  1  6
 11 12  2  0
 11 10  1  0
 13 14  2  0
 13 16  1  0
 15 11  1  0
 16 17  1  0
 17 22  1  0
 17 18  1  1
 19 18  1  0
 20 19  1  0
 20 21  2  0
 22 23  2  0
 22 25  1  0
 24 20  1  0
M  END
$$$$
