PDE.pdb
     RDKit          3D

 25 25  0  0  1  0  0  0  0  0999 V2000
    8.9060  -13.9454   18.0443 N   0  0  0  0  0  0  0  0  0  0  0  0
    7.8662  -13.0068   17.6492 C   0  0  0  0  0  0  0  0  0  0  0  0
    6.7367  -13.4073   18.5728 C   0  0  0  0  0  0  0  0  0  0  0  0
    7.3981  -14.0244   19.7806 C   0  0  0  0  0  0  0  0  0  0  0  0
    8.8508  -13.8379   19.4920 C   0  0  1  0  0  0  0  0  0  0  0  0
    9.7221  -14.8289   20.1570 C   0  0  0  0  0  0  0  0  0  0  0  0
    9.6253  -14.9730   21.4020 O   0  0  0  0  0  0  0  0  0  0  0  0
   10.6478  -15.6103   19.4549 N   0  0  0  0  0  0  0  0  0  0  0  0
   11.4171  -16.7192   20.0499 C   0  0  1  0  0  0  0  0  0  0  0  0
   11.9572  -17.4893   18.8820 C   0  0  0  0  0  0  0  0  0  0  0  0
   11.2013  -18.6787   18.4990 C   0  0  0  0  0  0  0  0  0  0  0  0
   11.1090  -19.7262   19.1753 O   0  0  0  0  0  0  0  0  0  0  0  0
   12.4360  -16.1197   20.9215 C   0  0  0  0  0  0  0  0  0  0  0  0
   13.1548  -15.1439   20.5674 O   0  0  0  0  0  0  0  0  0  0  0  0
   10.5262  -18.6553   17.2863 O   0  0  0  0  0  0  0  0  0  0  0  0
   12.6408  -16.6448   22.2241 N   0  0  0  0  0  0  0  0  0  0  0  0
   13.5179  -16.0237   23.2202 C   0  0  1  0  0  0  0  0  0  0  0  0
   12.8030  -16.1448   24.5144 C   0  0  0  0  0  0  0  0  0  0  0  0
   12.4671  -17.5124   24.9567 C   0  0  0  0  0  0  0  0  0  0  0  0
   11.9014  -17.5726   26.3185 C   0  0  0  0  0  0  0  0  0  0  0  0
   12.5051  -18.0847   27.3160 O   0  0  0  0  0  0  0  0  0  0  0  0
   14.8765  -16.4897   23.0967 C   0  0  0  0  0  0  0  0  0  0  0  0
   15.8477  -15.9489   23.7256 O   0  0  0  0  0  0  0  0  0  0  0  0
   10.6395  -17.0437   26.5347 O   0  0  0  0  0  0  0  0  0  0  0  0
   15.1753  -17.5796   22.2586 O   0  0  0  0  0  0  0  0  0  0  0  0
  1  5  1  0
  2  1  1  0
  3  2  1  0
  4  3  1  0
  4  5  1  0
  5  6  1  1
  6  7  2  0
  8  6  1  0
  9  8  1  0
  9 13  1  0
  9 10  1  6
 11 12  2  0
 11 10  1  0
 13 14  2  0
 13 16  1  0
 15 11  1  0
 16 17  1  0
 17 22  1  0
 17 18  1  1
 19 18  1  0
 20 19  1  0
 20 21  2  0
 22 23  2  0
 22 25  1  0
 24 20  1  0
M  END
$$$$
