PDE.pdb
     RDKit          3D

 25 25  0  0  1  0  0  0  0  0999 V2000
    9.2930  -14.0907   19.6121 N   0  0  0  0  0  0  0  0  0  0  0  0
    8.6783  -13.0480   18.8039 C   0  0  0  0  0  0  0  0  0  0  0  0
    7.2085  -13.3033   19.0558 C   0  0  0  0  0  0  0  0  0  0  0  0
    7.1372  -13.9703   20.4075 C   0  0  0  0  0  0  0  0  0  0  0  0
    8.5600  -13.9532   20.8588 C   0  0  1  0  0  0  0  0  0  0  0  0
    8.8926  -15.0245   21.8207 C   0  0  0  0  0  0  0  0  0  0  0  0
    8.2304  -15.1006   22.8864 O   0  0  0  0  0  0  0  0  0  0  0  0
    9.9138  -15.9543   21.5902 N   0  0  0  0  0  0  0  0  0  0  0  0
   10.2783  -17.0344   22.5262 C   0  0  1  0  0  0  0  0  0  0  0  0
   11.2409  -17.8987   21.7676 C   0  0  0  0  0  0  0  0  0  0  0  0
   11.7745  -19.0473   22.4945 C   0  0  0  0  0  0  0  0  0  0  0  0
   11.1996  -19.6404   23.4331 O   0  0  0  0  0  0  0  0  0  0  0  0
   10.8323  -16.3966   23.7276 C   0  0  0  0  0  0  0  0  0  0  0  0
   11.4038  -15.2709   23.7062 O   0  0  0  0  0  0  0  0  0  0  0  0
   13.0220  -19.5285   22.1212 O   0  0  0  0  0  0  0  0  0  0  0  0
   10.7339  -17.0569   24.9801 N   0  0  0  0  0  0  0  0  0  0  0  0
   10.8277  -16.3676   26.2699 C   0  0  1  0  0  0  0  0  0  0  0  0
    9.8745  -15.2339   26.1883 C   0  0  0  0  0  0  0  0  0  0  0  0
    9.7598  -14.3811   27.3877 C   0  0  0  0  0  0  0  0  0  0  0  0
    8.8189  -13.2555   27.2268 C   0  0  0  0  0  0  0  0  0  0  0  0
    8.0677  -13.0980   26.2107 O   0  0  0  0  0  0  0  0  0  0  0  0
   10.7604  -17.2928   27.3734 C   0  0  0  0  0  0  0  0  0  0  0  0
   10.1620  -18.4181   27.2902 O   0  0  0  0  0  0  0  0  0  0  0  0
    8.7411  -12.3090   28.2352 O   0  0  0  0  0  0  0  0  0  0  0  0
   11.3669  -16.9717   28.6016 O   0  0  0  0  0  0  0  0  0  0  0  0
  1  5  1  0
  2  1  1  0
  3  2  1  0
  4  3  1  0
  4  5  1  0
  5  6  1  1
  6  7  2  0
  8  6  1  0
  9  8  1  0
  9 13  1  0
  9 10  1  6
 11 12  2  0
 11 10  1  0
 13 14  2  0
 13 16  1  0
 15 11  1  0
 16 17  1  0
 17 22  1  0
 17 18  1  1
 19 18  1  0
 20 19  1  0
 20 21  2  0
 22 23  2  0
 22 25  1  0
 24 20  1  0
M  END
$$$$
