VRF.pdb
     RDKit          3D

 30 30  0  0  1  0  0  0  0  0999 V2000
   26.3985  -23.4010  -17.4140 C   0  0  0  0  0  0  0  0  0  0  0  0
   26.5883  -22.1639  -16.5276 C   0  0  1  0  0  0  0  0  0  0  0  0
   25.2765  -21.3870  -16.6480 C   0  0  0  0  0  0  0  0  0  0  0  0
   26.7212  -22.6441  -15.1149 C   0  0  2  0  0  0  0  0  0  0  0  0
   25.8820  -23.7687  -14.8313 N   0  0  0  0  0  0  0  0  0  0  0  0
   26.4446  -21.5722  -14.1364 C   0  0  0  0  0  0  0  0  0  0  0  0
   27.0505  -20.4750  -14.2468 O   0  0  0  0  0  0  0  0  0  0  0  0
   20.9471  -22.3149  -12.6235 N   0  0  0  0  0  0  0  0  0  0  0  0
   20.3046  -21.2244  -13.3523 C   0  0  0  0  0  0  0  0  0  0  0  0
   19.0721  -20.9791  -13.1489 N   0  0  0  0  0  0  0  0  0  0  0  0
   21.0306  -20.4526  -14.2696 N   0  0  0  0  0  0  0  0  0  0  0  0
   22.4369  -20.2819  -14.2956 C   0  0  0  0  0  0  0  0  0  0  0  0
   23.1089  -19.6682  -13.1368 C   0  0  0  0  0  0  0  0  0  0  0  0
   23.7763  -20.4737  -12.1176 C   0  0  0  0  0  0  0  0  0  0  0  0
   25.2269  -20.7042  -12.0706 C   0  0  2  0  0  0  0  0  0  0  0  0
   25.5291  -21.7591  -13.1019 N   0  0  0  0  0  0  0  0  0  0  0  0
   25.8209  -21.2278  -10.8437 C   0  0  0  0  0  0  0  0  0  0  0  0
   25.7989  -22.5032  -10.6217 O   0  0  0  0  0  0  0  0  0  0  0  0
   18.5559  -20.2630  -13.6503 N   0  0  0  0  0  0  0  0  0  0  0  0
   26.4605  -20.4954   -9.8177 C   0  0  2  0  0  0  0  0  0  0  0  0
   26.8185  -21.0879   -8.5225 C   0  0  0  0  0  0  0  0  0  0  0  0
   28.2333  -20.8129   -8.1645 C   0  0  0  0  0  0  0  0  0  0  0  0
   28.3928  -20.0297   -6.9199 C   0  0  0  0  0  0  0  0  0  0  0  0
   28.8852  -20.5829   -5.7521 C   0  0  0  0  0  0  0  0  0  0  0  0
   29.0418  -19.8663   -4.5825 C   0  0  0  0  0  0  0  0  0  0  0  0
   28.6893  -18.5453   -4.5894 C   0  0  0  0  0  0  0  0  0  0  0  0
   28.2004  -17.9826   -5.7360 C   0  0  0  0  0  0  0  0  0  0  0  0
   28.0456  -18.6941   -6.8958 C   0  0  0  0  0  0  0  0  0  0  0  0
   25.8633  -20.6631   -7.4803 O   0  0  0  0  0  0  0  0  0  0  0  0
   25.1176  -19.6978   -7.6809 O   0  0  0  0  0  0  0  0  0  0  0  0
  2  3  1  1
  2  1  1  0
  4  5  1  1
  4  2  1  0
  6  4  1  0
  7  6  2  0
  9  8  1  0
  9 11  1  0
 10  9  2  0
 11 12  1  0
 12 13  1  0
 13 14  1  0
 15 14  1  1
 15 17  1  0
 15 16  1  0
 16  6  1  0
 17 19  1  0
 18 17  2  0
 19 20  1  0
 20 28  1  0
 20 21  1  6
 22 21  1  0
 23 22  2  0
 24 23  1  0
 25 26  1  0
 25 24  2  0
 26 27  2  0
 27 22  1  0
 28 29  2  0
 28 30  1  0
M  END
$$$$
