VRF.pdb
     RDKit          3D

 30 30  0  0  1  0  0  0  0  0999 V2000
   29.0889  -20.9986  -12.8019 C   0  0  0  0  0  0  0  0  0  0  0  0
   28.7132  -20.0319  -13.9317 C   0  0  1  0  0  0  0  0  0  0  0  0
   29.4417  -20.5652  -15.1661 C   0  0  0  0  0  0  0  0  0  0  0  0
   27.2391  -20.1669  -14.1619 C   0  0  2  0  0  0  0  0  0  0  0  0
   26.7929  -19.4576  -15.3225 N   0  0  0  0  0  0  0  0  0  0  0  0
   26.4524  -19.7272  -12.9911 C   0  0  0  0  0  0  0  0  0  0  0  0
   26.3633  -18.4967  -12.7439 O   0  0  0  0  0  0  0  0  0  0  0  0
   20.3823  -22.9840  -13.4031 N   0  0  0  0  0  0  0  0  0  0  0  0
   20.1482  -22.2854  -12.1420 C   0  0  0  0  0  0  0  0  0  0  0  0
   19.4042  -22.8229  -11.2599 N   0  0  0  0  0  0  0  0  0  0  0  0
   20.7318  -21.0346  -11.8990 N   0  0  0  0  0  0  0  0  0  0  0  0
   21.4894  -20.2687  -12.8192 C   0  0  0  0  0  0  0  0  0  0  0  0
   22.9071  -19.9912  -12.5290 C   0  0  0  0  0  0  0  0  0  0  0  0
   23.5733  -20.5376  -11.3497 C   0  0  0  0  0  0  0  0  0  0  0  0
   24.9673  -20.2493  -10.9847 C   0  0  2  0  0  0  0  0  0  0  0  0
   25.8132  -20.6499  -12.1644 N   0  0  0  0  0  0  0  0  0  0  0  0
   25.5666  -20.9629   -9.8604 C   0  0  0  0  0  0  0  0  0  0  0  0
   26.6019  -21.7134  -10.0640 O   0  0  0  0  0  0  0  0  0  0  0  0
   19.1746  -22.3770  -10.3772 N   0  0  0  0  0  0  0  0  0  0  0  0
   25.1566  -20.9355   -8.5079 C   0  0  1  0  0  0  0  0  0  0  0  0
   26.1047  -21.0005   -7.3882 C   0  0  0  0  0  0  0  0  0  0  0  0
   27.2142  -20.0266   -7.5502 C   0  0  0  0  0  0  0  0  0  0  0  0
   28.1093  -19.9407   -6.3759 C   0  0  0  0  0  0  0  0  0  0  0  0
   27.9297  -19.0072   -5.3716 C   0  0  0  0  0  0  0  0  0  0  0  0
   28.7547  -18.9141   -4.2685 C   0  0  0  0  0  0  0  0  0  0  0  0
   29.7980  -19.7926   -4.1738 C   0  0  0  0  0  0  0  0  0  0  0  0
   29.9900  -20.7221   -5.1585 C   0  0  0  0  0  0  0  0  0  0  0  0
   29.1711  -20.8138   -6.2523 C   0  0  0  0  0  0  0  0  0  0  0  0
   25.3932  -20.8607   -6.1024 O   0  0  0  0  0  0  0  0  0  0  0  0
   25.7831  -21.4839   -5.1086 O   0  0  0  0  0  0  0  0  0  0  0  0
  2  3  1  6
  2  1  1  0
  4  5  1  6
  4  2  1  0
  6  4  1  0
  7  6  2  0
  9  8  1  0
  9 11  1  0
 10  9  2  0
 11 12  1  0
 12 13  1  0
 13 14  1  0
 15 14  1  6
 15 17  1  0
 15 16  1  0
 16  6  1  0
 17 19  1  0
 18 17  2  0
 19 20  1  0
 20 28  1  0
 20 21  1  1
 22 21  1  0
 23 22  2  0
 24 23  1  0
 25 26  1  0
 25 24  2  0
 26 27  2  0
 27 22  1  0
 28 29  2  0
 28 30  1  0
M  END
$$$$
