VRF.pdb
     RDKit          3D

 30 30  0  0  1  0  0  0  0  0999 V2000
   25.1289  -22.6800  -18.5282 C   0  0  0  0  0  0  0  0  0  0  0  0
   24.2431  -22.3962  -19.7477 C   0  0  1  0  0  0  0  0  0  0  0  0
   23.5293  -23.7182  -20.0332 C   0  0  0  0  0  0  0  0  0  0  0  0
   23.2162  -21.3895  -19.3279 C   0  0  2  0  0  0  0  0  0  0  0  0
   23.7220  -20.0503  -19.3271 N   0  0  0  0  0  0  0  0  0  0  0  0
   22.6502  -21.6962  -17.9981 C   0  0  0  0  0  0  0  0  0  0  0  0
   22.2435  -22.8635  -17.7632 O   0  0  0  0  0  0  0  0  0  0  0  0
   24.4994  -23.0056  -13.1219 N   0  0  0  0  0  0  0  0  0  0  0  0
   24.7827  -21.9596  -12.1426 C   0  0  0  0  0  0  0  0  0  0  0  0
   25.9002  -21.9620  -11.5330 N   0  0  0  0  0  0  0  0  0  0  0  0
   23.8379  -20.9610  -11.8700 N   0  0  0  0  0  0  0  0  0  0  0  0
   22.5074  -20.9095  -12.3543 C   0  0  0  0  0  0  0  0  0  0  0  0
   22.1367  -19.8704  -13.3310 C   0  0  0  0  0  0  0  0  0  0  0  0
   22.4981  -19.9756  -14.7422 C   0  0  0  0  0  0  0  0  0  0  0  0
   21.9196  -20.9589  -15.6686 C   0  0  2  0  0  0  0  0  0  0  0  0
   22.5619  -20.7176  -17.0091 N   0  0  0  0  0  0  0  0  0  0  0  0
   20.4872  -20.9105  -15.9483 C   0  0  0  0  0  0  0  0  0  0  0  0
   20.0340  -20.0378  -16.7905 O   0  0  0  0  0  0  0  0  0  0  0  0
   26.1990  -21.2153  -10.9134 N   0  0  0  0  0  0  0  0  0  0  0  0
   19.4770  -21.7371  -15.4058 C   0  0  2  0  0  0  0  0  0  0  0  0
   18.0701  -21.6475  -15.8174 C   0  0  0  0  0  0  0  0  0  0  0  0
   17.3068  -22.8624  -15.4344 C   0  0  0  0  0  0  0  0  0  0  0  0
   17.2110  -23.0714  -13.9733 C   0  0  0  0  0  0  0  0  0  0  0  0
   18.0770  -23.8995  -13.2830 C   0  0  0  0  0  0  0  0  0  0  0  0
   18.0026  -24.1046  -11.9197 C   0  0  0  0  0  0  0  0  0  0  0  0
   17.0205  -23.4526  -11.2272 C   0  0  0  0  0  0  0  0  0  0  0  0
   16.1555  -22.6300  -11.8947 C   0  0  0  0  0  0  0  0  0  0  0  0
   16.2301  -22.4269  -13.2469 C   0  0  0  0  0  0  0  0  0  0  0  0
   17.4647  -20.3991  -15.3132 O   0  0  0  0  0  0  0  0  0  0  0  0
   16.2986  -20.1139  -15.6080 O   0  0  0  0  0  0  0  0  0  0  0  0
  2  3  1  1
  2  1  1  0
  4  5  1  1
  4  2  1  0
  6  4  1  0
  7  6  2  0
  9  8  1  0
  9 11  1  0
 10  9  2  0
 11 12  1  0
 12 13  1  0
 13 14  1  0
 15 14  1  1
 15 17  1  0
 15 16  1  0
 16  6  1  0
 17 19  1  0
 18 17  2  0
 19 20  1  0
 20 28  1  0
 20 21  1  6
 22 21  1  0
 23 22  2  0
 24 23  1  0
 25 26  1  0
 25 24  2  0
 26 27  2  0
 27 22  1  0
 28 29  2  0
 28 30  1  0
M  END
$$$$
