VRF.pdb
     RDKit          3D

 30 30  0  0  1  0  0  0  0  0999 V2000
   26.7485  -14.4616  -16.3287 C   0  0  0  0  0  0  0  0  0  0  0  0
   26.6295  -15.9216  -15.8742 C   0  0  1  0  0  0  0  0  0  0  0  0
   25.2041  -16.0524  -15.3358 C   0  0  0  0  0  0  0  0  0  0  0  0
   26.7502  -16.7799  -17.0960 C   0  0  2  0  0  0  0  0  0  0  0  0
   25.8710  -16.3706  -18.1490 N   0  0  0  0  0  0  0  0  0  0  0  0
   26.5176  -18.2077  -16.7959 C   0  0  0  0  0  0  0  0  0  0  0  0
   25.3368  -18.6418  -16.7755 O   0  0  0  0  0  0  0  0  0  0  0  0
   30.7743  -25.1172  -17.0533 N   0  0  0  0  0  0  0  0  0  0  0  0
   29.4876  -25.7735  -16.8366 C   0  0  0  0  0  0  0  0  0  0  0  0
   29.4062  -27.0390  -16.9478 N   0  0  0  0  0  0  0  0  0  0  0  0
   28.3490  -25.0240  -16.5110 N   0  0  0  0  0  0  0  0  0  0  0  0
   28.1182  -23.6641  -16.8349 C   0  0  0  0  0  0  0  0  0  0  0  0
   28.8819  -22.6176  -16.1330 C   0  0  0  0  0  0  0  0  0  0  0  0
   28.6552  -21.1973  -16.3869 C   0  0  0  0  0  0  0  0  0  0  0  0
   27.3902  -20.5032  -16.1081 C   0  0  2  0  0  0  0  0  0  0  0  0
   27.5802  -19.0724  -16.5376 N   0  0  0  0  0  0  0  0  0  0  0  0
   26.9292  -20.4001  -14.7263 C   0  0  0  0  0  0  0  0  0  0  0  0
   27.4087  -19.4691  -13.9649 O   0  0  0  0  0  0  0  0  0  0  0  0
   28.5345  -27.5518  -16.8583 N   0  0  0  0  0  0  0  0  0  0  0  0
   25.9724  -21.2127  -14.0764 C   0  0  2  0  0  0  0  0  0  0  0  0
   25.5633  -20.9990  -12.6823 C   0  0  0  0  0  0  0  0  0  0  0  0
   25.0452  -19.6241  -12.4660 C   0  0  0  0  0  0  0  0  0  0  0  0
   23.7614  -19.3554  -13.1498 C   0  0  0  0  0  0  0  0  0  0  0  0
   22.5470  -19.7817  -12.6442 C   0  0  0  0  0  0  0  0  0  0  0  0
   21.3399  -19.5383  -13.2685 C   0  0  0  0  0  0  0  0  0  0  0  0
   21.3569  -18.8410  -14.4444 C   0  0  0  0  0  0  0  0  0  0  0  0
   22.5495  -18.4123  -14.9584 C   0  0  0  0  0  0  0  0  0  0  0  0
   23.7463  -18.6539  -14.3384 C   0  0  0  0  0  0  0  0  0  0  0  0
   24.6170  -22.0490  -12.2567 O   0  0  0  0  0  0  0  0  0  0  0  0
   24.1843  -22.0597  -11.0988 O   0  0  0  0  0  0  0  0  0  0  0  0
  2  3  1  6
  2  1  1  0
  4  5  1  6
  4  2  1  0
  6  4  1  0
  7  6  2  0
  9  8  1  0
  9 11  1  0
 10  9  2  0
 11 12  1  0
 12 13  1  0
 13 14  1  0
 15 14  1  1
 15 17  1  0
 15 16  1  0
 16  6  1  0
 17 19  1  0
 18 17  2  0
 19 20  1  0
 20 28  1  0
 20 21  1  6
 22 21  1  0
 23 22  2  0
 24 23  1  0
 25 26  1  0
 25 24  2  0
 26 27  2  0
 27 22  1  0
 28 29  2  0
 28 30  1  0
M  END
$$$$
