VRF.pdb
     RDKit          3D

 30 30  0  0  1  0  0  0  0  0999 V2000
   28.2327  -16.5990  -15.3857 C   0  0  0  0  0  0  0  0  0  0  0  0
   27.5350  -17.2720  -14.1972 C   0  0  1  0  0  0  0  0  0  0  0  0
   26.3311  -16.3804  -13.8898 C   0  0  0  0  0  0  0  0  0  0  0  0
   27.0272  -18.5990  -14.6717 C   0  0  2  0  0  0  0  0  0  0  0  0
   26.2499  -18.4981  -15.8696 N   0  0  0  0  0  0  0  0  0  0  0  0
   26.2350  -19.2925  -13.6351 C   0  0  0  0  0  0  0  0  0  0  0  0
   25.0467  -18.9316  -13.4329 O   0  0  0  0  0  0  0  0  0  0  0  0
   23.5452  -24.6846  -16.2876 N   0  0  0  0  0  0  0  0  0  0  0  0
   23.3335  -25.3997  -15.0317 C   0  0  0  0  0  0  0  0  0  0  0  0
   23.0375  -26.6374  -15.0608 N   0  0  0  0  0  0  0  0  0  0  0  0
   23.4514  -24.7360  -13.8029 N   0  0  0  0  0  0  0  0  0  0  0  0
   23.8348  -23.3856  -13.6116 C   0  0  0  0  0  0  0  0  0  0  0  0
   25.2570  -23.0180  -13.7271 C   0  0  0  0  0  0  0  0  0  0  0  0
   26.0349  -22.5768  -12.5724 C   0  0  0  0  0  0  0  0  0  0  0  0
   25.9590  -21.2270  -11.9964 C   0  0  2  0  0  0  0  0  0  0  0  0
   26.7823  -20.3324  -12.8851 N   0  0  0  0  0  0  0  0  0  0  0  0
   26.5021  -20.9960  -10.6606 C   0  0  0  0  0  0  0  0  0  0  0  0
   27.7668  -20.7553  -10.5224 O   0  0  0  0  0  0  0  0  0  0  0  0
   22.9217  -27.2029  -14.2256 N   0  0  0  0  0  0  0  0  0  0  0  0
   25.7968  -20.9871   -9.4356 C   0  0  1  0  0  0  0  0  0  0  0  0
   26.4699  -20.9472   -8.1310 C   0  0  0  0  0  0  0  0  0  0  0  0
   27.4141  -19.8050   -8.0342 C   0  0  0  0  0  0  0  0  0  0  0  0
   28.0259  -19.6477   -6.6968 C   0  0  0  0  0  0  0  0  0  0  0  0
   27.5762  -18.7161   -5.7791 C   0  0  0  0  0  0  0  0  0  0  0  0
   28.1346  -18.5570   -4.5265 C   0  0  0  0  0  0  0  0  0  0  0  0
   29.1836  -19.3651   -4.1863 C   0  0  0  0  0  0  0  0  0  0  0  0
   29.6409  -20.2917   -5.0823 C   0  0  0  0  0  0  0  0  0  0  0  0
   29.0863  -20.4490   -6.3245 C   0  0  0  0  0  0  0  0  0  0  0  0
   25.4773  -20.9734   -7.0386 O   0  0  0  0  0  0  0  0  0  0  0  0
   24.2973  -20.6850   -7.2678 O   0  0  0  0  0  0  0  0  0  0  0  0
  2  3  1  6
  2  1  1  0
  4  5  1  6
  4  2  1  0
  6  4  1  0
  7  6  2  0
  9  8  1  0
  9 11  1  0
 10  9  2  0
 11 12  1  0
 12 13  1  0
 13 14  1  0
 15 14  1  6
 15 17  1  0
 15 16  1  0
 16  6  1  0
 17 19  1  0
 18 17  2  0
 19 20  1  0
 20 28  1  0
 20 21  1  1
 22 21  1  0
 23 22  2  0
 24 23  1  0
 25 26  1  0
 25 24  2  0
 26 27  2  0
 27 22  1  0
 28 29  2  0
 28 30  1  0
M  END
$$$$
