VRF.pdb
     RDKit          3D

 30 30  0  0  1  0  0  0  0  0999 V2000
   19.9943  -18.5033  -14.7669 C   0  0  0  0  0  0  0  0  0  0  0  0
   20.1227  -19.8328  -14.0132 C   0  0  1  0  0  0  0  0  0  0  0  0
   20.8975  -20.7502  -14.9603 C   0  0  0  0  0  0  0  0  0  0  0  0
   20.9720  -19.5801  -12.8054 C   0  0  2  0  0  0  0  0  0  0  0  0
   21.4574  -18.2349  -12.7417 N   0  0  0  0  0  0  0  0  0  0  0  0
   22.1146  -20.5135  -12.7258 C   0  0  0  0  0  0  0  0  0  0  0  0
   21.8921  -21.7518  -12.7378 O   0  0  0  0  0  0  0  0  0  0  0  0
   27.2161  -24.2268  -15.8606 N   0  0  0  0  0  0  0  0  0  0  0  0
   25.9707  -24.8955  -15.4932 C   0  0  0  0  0  0  0  0  0  0  0  0
   25.9882  -26.1372  -15.2136 N   0  0  0  0  0  0  0  0  0  0  0  0
   24.7639  -24.1841  -15.4486 N   0  0  0  0  0  0  0  0  0  0  0  0
   24.6214  -22.7761  -15.3813 C   0  0  0  0  0  0  0  0  0  0  0  0
   25.6572  -21.9797  -14.7002 C   0  0  0  0  0  0  0  0  0  0  0  0
   25.3189  -20.8412  -13.8503 C   0  0  0  0  0  0  0  0  0  0  0  0
   24.6211  -20.9548  -12.5620 C   0  0  2  0  0  0  0  0  0  0  0  0
   23.4243  -20.0439  -12.6386 N   0  0  0  0  0  0  0  0  0  0  0  0
   25.3093  -20.5338  -11.3448 C   0  0  0  0  0  0  0  0  0  0  0  0
   24.9613  -19.4275  -10.7690 O   0  0  0  0  0  0  0  0  0  0  0  0
   25.1496  -26.6798  -15.0316 N   0  0  0  0  0  0  0  0  0  0  0  0
   26.3495  -21.2103  -10.6677 C   0  0  2  0  0  0  0  0  0  0  0  0
   27.0710  -20.6242   -9.5308 C   0  0  0  0  0  0  0  0  0  0  0  0
   26.1592  -20.3205   -8.3986 C   0  0  0  0  0  0  0  0  0  0  0  0
   26.8566  -19.8672   -7.1755 C   0  0  0  0  0  0  0  0  0  0  0  0
   27.1485  -18.5368   -6.9366 C   0  0  0  0  0  0  0  0  0  0  0  0
   27.7972  -18.0966   -5.8002 C   0  0  0  0  0  0  0  0  0  0  0  0
   28.1652  -19.0299   -4.8714 C   0  0  0  0  0  0  0  0  0  0  0  0
   27.8843  -20.3500   -5.0922 C   0  0  0  0  0  0  0  0  0  0  0  0
   27.2406  -20.7858   -6.2196 C   0  0  0  0  0  0  0  0  0  0  0  0
   28.2086  -21.4824   -9.1453 O   0  0  0  0  0  0  0  0  0  0  0  0
   29.3379  -20.9948   -9.0230 O   0  0  0  0  0  0  0  0  0  0  0  0
  2  3  1  6
  2  1  1  0
  4  5  1  6
  4  2  1  0
  6  4  1  0
  7  6  2  0
  9  8  1  0
  9 11  1  0
 10  9  2  0
 11 12  1  0
 12 13  1  0
 13 14  1  0
 15 14  1  6
 15 17  1  0
 15 16  1  0
 16  6  1  0
 17 19  1  0
 18 17  2  0
 19 20  1  0
 20 28  1  0
 20 21  1  1
 22 21  1  0
 23 22  2  0
 24 23  1  0
 25 26  1  0
 25 24  2  0
 26 27  2  0
 27 22  1  0
 28 29  2  0
 28 30  1  0
M  END
$$$$
