VRF.pdb
     RDKit          3D

 30 30  0  0  1  0  0  0  0  0999 V2000
   21.0824  -18.6746  -11.9253 C   0  0  0  0  0  0  0  0  0  0  0  0
   19.9126  -19.6340  -12.1771 C   0  0  1  0  0  0  0  0  0  0  0  0
   18.6955  -18.7292  -12.3744 C   0  0  0  0  0  0  0  0  0  0  0  0
   20.1862  -20.3410  -13.4691 C   0  0  2  0  0  0  0  0  0  0  0  0
   19.1215  -21.2153  -13.8580 N   0  0  0  0  0  0  0  0  0  0  0  0
   21.4508  -21.1038  -13.4269 C   0  0  0  0  0  0  0  0  0  0  0  0
   21.5197  -22.1301  -12.7024 O   0  0  0  0  0  0  0  0  0  0  0  0
   28.6705  -23.1880  -16.1227 N   0  0  0  0  0  0  0  0  0  0  0  0
   27.8684  -23.3382  -17.3341 C   0  0  0  0  0  0  0  0  0  0  0  0
   27.9553  -24.4132  -18.0104 N   0  0  0  0  0  0  0  0  0  0  0  0
   27.0109  -22.3127  -17.7551 N   0  0  0  0  0  0  0  0  0  0  0  0
   26.5687  -21.2152  -16.9758 C   0  0  0  0  0  0  0  0  0  0  0  0
   25.9568  -21.4676  -15.6594 C   0  0  0  0  0  0  0  0  0  0  0  0
   24.5461  -21.1925  -15.4001 C   0  0  0  0  0  0  0  0  0  0  0  0
   23.8928  -21.3993  -14.1001 C   0  0  2  0  0  0  0  0  0  0  0  0
   22.5587  -20.7046  -14.1730 N   0  0  0  0  0  0  0  0  0  0  0  0
   24.5146  -20.8471  -12.8998 C   0  0  0  0  0  0  0  0  0  0  0  0
   24.4099  -19.5798  -12.6562 O   0  0  0  0  0  0  0  0  0  0  0  0
   27.4631  -24.5626  -18.8857 N   0  0  0  0  0  0  0  0  0  0  0  0
   25.2429  -21.5456  -11.9099 C   0  0  2  0  0  0  0  0  0  0  0  0
   26.1688  -20.8789  -10.9852 C   0  0  0  0  0  0  0  0  0  0  0  0
   26.2747  -21.6054   -9.6943 C   0  0  0  0  0  0  0  0  0  0  0  0
   27.0975  -20.9078   -8.6824 C   0  0  0  0  0  0  0  0  0  0  0  0
   26.5839  -19.9246   -7.8568 C   0  0  0  0  0  0  0  0  0  0  0  0
   27.3372  -19.2647   -6.9064 C   0  0  0  0  0  0  0  0  0  0  0  0
   28.6551  -19.6073   -6.7837 C   0  0  0  0  0  0  0  0  0  0  0  0
   29.1791  -20.5776   -7.5926 C   0  0  0  0  0  0  0  0  0  0  0  0
   28.4311  -21.2318   -8.5348 C   0  0  0  0  0  0  0  0  0  0  0  0
   27.4756  -20.6579  -11.6354 O   0  0  0  0  0  0  0  0  0  0  0  0
   28.1065  -21.6152  -12.0975 O   0  0  0  0  0  0  0  0  0  0  0  0
  2  3  1  6
  2  1  1  0
  4  5  1  1
  4  2  1  0
  6  4  1  0
  7  6  2  0
  9  8  1  0
  9 11  1  0
 10  9  2  0
 11 12  1  0
 12 13  1  0
 13 14  1  0
 15 14  1  6
 15 17  1  0
 15 16  1  0
 16  6  1  0
 17 19  1  0
 18 17  2  0
 19 20  1  0
 20 28  1  0
 20 21  1  1
 22 21  1  0
 23 22  2  0
 24 23  1  0
 25 26  1  0
 25 24  2  0
 26 27  2  0
 27 22  1  0
 28 29  2  0
 28 30  1  0
M  END
$$$$
