VRF.pdb
     RDKit          3D

 30 30  0  0  1  0  0  0  0  0999 V2000
   20.4302  -12.3790  -17.0687 C   0  0  0  0  0  0  0  0  0  0  0  0
   19.0707  -13.0240  -17.3649 C   0  0  1  0  0  0  0  0  0  0  0  0
   19.3365  -14.5300  -17.3496 C   0  0  0  0  0  0  0  0  0  0  0  0
   18.1628  -12.6961  -16.2193 C   0  0  2  0  0  0  0  0  0  0  0  0
   16.9435  -13.4457  -16.2473 N   0  0  0  0  0  0  0  0  0  0  0  0
   17.8458  -11.2544  -16.1580 C   0  0  0  0  0  0  0  0  0  0  0  0
   18.0715  -10.5372  -17.1669 O   0  0  0  0  0  0  0  0  0  0  0  0
   10.9466   -8.0971  -11.9993 N   0  0  0  0  0  0  0  0  0  0  0  0
   11.7735   -9.2597  -12.3119 C   0  0  0  0  0  0  0  0  0  0  0  0
   11.3598  -10.4220  -11.9984 N   0  0  0  0  0  0  0  0  0  0  0  0
   13.0123   -9.1051  -12.9489 N   0  0  0  0  0  0  0  0  0  0  0  0
   13.5914   -7.8836  -13.3733 C   0  0  0  0  0  0  0  0  0  0  0  0
   14.8847   -7.9072  -14.0790 C   0  0  0  0  0  0  0  0  0  0  0  0
   15.6069   -9.1530  -14.3223 C   0  0  0  0  0  0  0  0  0  0  0  0
   16.9567   -9.2224  -14.8993 C   0  0  2  0  0  0  0  0  0  0  0  0
   17.3045  -10.6837  -15.0071 N   0  0  0  0  0  0  0  0  0  0  0  0
   18.0743   -8.6461  -14.1567 C   0  0  0  0  0  0  0  0  0  0  0  0
   18.3371   -9.0815  -12.9660 O   0  0  0  0  0  0  0  0  0  0  0  0
   11.8645  -11.2734  -12.2243 N   0  0  0  0  0  0  0  0  0  0  0  0
   18.9617   -7.6336  -14.5875 C   0  0  1  0  0  0  0  0  0  0  0  0
   20.0091   -7.0741  -13.7234 C   0  0  0  0  0  0  0  0  0  0  0  0
   21.0623   -8.0755  -13.4174 C   0  0  0  0  0  0  0  0  0  0  0  0
   21.7364   -8.6185  -14.6167 C   0  0  0  0  0  0  0  0  0  0  0  0
   22.0473   -7.8349  -15.7129 C   0  0  0  0  0  0  0  0  0  0  0  0
   22.6773   -8.3251  -16.8393 C   0  0  0  0  0  0  0  0  0  0  0  0
   23.0055   -9.6522  -16.8625 C   0  0  0  0  0  0  0  0  0  0  0  0
   22.7049  -10.4413  -15.7867 C   0  0  0  0  0  0  0  0  0  0  0  0
   22.0801   -9.9542  -14.6697 C   0  0  0  0  0  0  0  0  0  0  0  0
   20.5452   -5.8279  -14.3054 O   0  0  0  0  0  0  0  0  0  0  0  0
   20.1478   -5.4397  -15.4096 O   0  0  0  0  0  0  0  0  0  0  0  0
  2  3  1  1
  2  1  1  0
  4  5  1  6
  4  2  1  0
  6  4  1  0
  7  6  2  0
  9  8  1  0
  9 11  1  0
 10  9  2  0
 11 12  1  0
 12 13  1  0
 13 14  1  0
 15 14  1  1
 15 17  1  0
 15 16  1  0
 16  6  1  0
 17 19  1  0
 18 17  2  0
 19 20  1  0
 20 28  1  0
 20 21  1  1
 22 21  1  0
 23 22  2  0
 24 23  1  0
 25 26  1  0
 25 24  2  0
 26 27  2  0
 27 22  1  0
 28 29  2  0
 28 30  1  0
M  END
$$$$
