VRF.pdb
     RDKit          3D

 30 30  0  0  1  0  0  0  0  0999 V2000
   27.7012  -17.9294  -16.5977 C   0  0  0  0  0  0  0  0  0  0  0  0
   26.6534  -17.9806  -15.4790 C   0  0  1  0  0  0  0  0  0  0  0  0
   25.3648  -18.4355  -16.1656 C   0  0  0  0  0  0  0  0  0  0  0  0
   27.0772  -19.0507  -14.5201 C   0  0  2  0  0  0  0  0  0  0  0  0
   27.2426  -20.3251  -15.1507 N   0  0  0  0  0  0  0  0  0  0  0  0
   26.1361  -19.1864  -13.3892 C   0  0  0  0  0  0  0  0  0  0  0  0
   25.7645  -18.1513  -12.7779 O   0  0  0  0  0  0  0  0  0  0  0  0
   20.1363  -23.7788  -11.1377 N   0  0  0  0  0  0  0  0  0  0  0  0
   19.7503  -22.5063  -10.5334 C   0  0  0  0  0  0  0  0  0  0  0  0
   19.1031  -22.5071   -9.4373 N   0  0  0  0  0  0  0  0  0  0  0  0
   20.0840  -21.2924  -11.1493 N   0  0  0  0  0  0  0  0  0  0  0  0
   21.3066  -20.9880  -11.7974 C   0  0  0  0  0  0  0  0  0  0  0  0
   22.4440  -21.9146  -11.6601 C   0  0  0  0  0  0  0  0  0  0  0  0
   23.7291  -21.6577  -12.3049 C   0  0  0  0  0  0  0  0  0  0  0  0
   24.6758  -20.6217  -11.8689 C   0  0  2  0  0  0  0  0  0  0  0  0
   25.6587  -20.4353  -12.9946 N   0  0  0  0  0  0  0  0  0  0  0  0
   25.5169  -20.8772  -10.7029 C   0  0  0  0  0  0  0  0  0  0  0  0
   26.4154  -21.8078  -10.7598 O   0  0  0  0  0  0  0  0  0  0  0  0
   18.7569  -21.6622   -8.9934 N   0  0  0  0  0  0  0  0  0  0  0  0
   25.4908  -20.2042   -9.4600 C   0  0  2  0  0  0  0  0  0  0  0  0
   26.3602  -20.5758   -8.3363 C   0  0  0  0  0  0  0  0  0  0  0  0
   27.3824  -19.5335   -8.0640 C   0  0  0  0  0  0  0  0  0  0  0  0
   28.0746  -19.7003   -6.7676 C   0  0  0  0  0  0  0  0  0  0  0  0
   27.6051  -19.1341   -5.5965 C   0  0  0  0  0  0  0  0  0  0  0  0
   28.2377  -19.2809   -4.3783 C   0  0  0  0  0  0  0  0  0  0  0  0
   29.3845  -20.0242   -4.3382 C   0  0  0  0  0  0  0  0  0  0  0  0
   29.8626  -20.5910   -5.4874 C   0  0  0  0  0  0  0  0  0  0  0  0
   29.2343  -20.4451   -6.6954 C   0  0  0  0  0  0  0  0  0  0  0  0
   25.5506  -20.9181   -7.1503 O   0  0  0  0  0  0  0  0  0  0  0  0
   24.3946  -20.4928   -7.0466 O   0  0  0  0  0  0  0  0  0  0  0  0
  2  3  1  6
  2  1  1  0
  4  5  1  6
  4  2  1  0
  6  4  1  0
  7  6  2  0
  9  8  1  0
  9 11  1  0
 10  9  2  0
 11 12  1  0
 12 13  1  0
 13 14  1  0
 15 14  1  6
 15 17  1  0
 15 16  1  0
 16  6  1  0
 17 19  1  0
 18 17  2  0
 19 20  1  0
 20 28  1  0
 20 21  1  1
 22 21  1  0
 23 22  2  0
 24 23  1  0
 25 26  1  0
 25 24  2  0
 26 27  2  0
 27 22  1  0
 28 29  2  0
 28 30  1  0
M  END
$$$$
