VRF.pdb
     RDKit          3D

 30 30  0  0  1  0  0  0  0  0999 V2000
   21.5077  -17.3382  -16.7416 C   0  0  0  0  0  0  0  0  0  0  0  0
   21.9895  -18.7176  -16.2754 C   0  0  1  0  0  0  0  0  0  0  0  0
   22.7815  -19.2792  -17.4569 C   0  0  0  0  0  0  0  0  0  0  0  0
   22.9379  -18.4970  -15.1371 C   0  0  2  0  0  0  0  0  0  0  0  0
   23.9023  -17.4750  -15.4103 N   0  0  0  0  0  0  0  0  0  0  0  0
   23.6408  -19.7384  -14.7524 C   0  0  0  0  0  0  0  0  0  0  0  0
   22.9655  -20.7742  -14.5199 O   0  0  0  0  0  0  0  0  0  0  0  0
   28.4168  -24.2685  -17.8702 N   0  0  0  0  0  0  0  0  0  0  0  0
   28.2045  -25.2352  -16.7961 C   0  0  0  0  0  0  0  0  0  0  0  0
   28.8291  -26.3441  -16.8224 N   0  0  0  0  0  0  0  0  0  0  0  0
   27.3220  -24.9526  -15.7446 N   0  0  0  0  0  0  0  0  0  0  0  0
   26.6813  -23.7136  -15.4963 C   0  0  0  0  0  0  0  0  0  0  0  0
   27.4975  -22.4931  -15.3740 C   0  0  0  0  0  0  0  0  0  0  0  0
   26.8991  -21.1913  -15.0903 C   0  0  0  0  0  0  0  0  0  0  0  0
   25.7844  -20.9844  -14.1553 C   0  0  2  0  0  0  0  0  0  0  0  0
   25.0302  -19.7763  -14.6449 N   0  0  0  0  0  0  0  0  0  0  0  0
   26.0799  -20.6756  -12.7590 C   0  0  0  0  0  0  0  0  0  0  0  0
   27.0605  -19.8779  -12.4790 O   0  0  0  0  0  0  0  0  0  0  0  0
   28.7793  -27.0299  -16.0755 N   0  0  0  0  0  0  0  0  0  0  0  0
   25.3985  -21.1436  -11.6123 C   0  0  1  0  0  0  0  0  0  0  0  0
   26.0019  -21.1429  -10.2734 C   0  0  0  0  0  0  0  0  0  0  0  0
   26.8562  -19.9477  -10.0561 C   0  0  0  0  0  0  0  0  0  0  0  0
   27.3554  -19.8147   -8.6702 C   0  0  0  0  0  0  0  0  0  0  0  0
   28.4169  -20.5586   -8.1884 C   0  0  0  0  0  0  0  0  0  0  0  0
   28.8963  -20.4460   -6.8986 C   0  0  0  0  0  0  0  0  0  0  0  0
   28.2843  -19.5523   -6.0643 C   0  0  0  0  0  0  0  0  0  0  0  0
   27.2329  -18.8088   -6.5248 C   0  0  0  0  0  0  0  0  0  0  0  0
   26.7581  -18.9210   -7.8044 C   0  0  0  0  0  0  0  0  0  0  0  0
   24.9610  -21.3076   -9.2396 O   0  0  0  0  0  0  0  0  0  0  0  0
   25.2794  -21.6057   -8.0830 O   0  0  0  0  0  0  0  0  0  0  0  0
  2  3  1  6
  2  1  1  0
  4  5  1  6
  4  2  1  0
  6  4  1  0
  7  6  2  0
  9  8  1  0
  9 11  1  0
 10  9  2  0
 11 12  1  0
 12 13  1  0
 13 14  1  0
 15 14  1  6
 15 17  1  0
 15 16  1  0
 16  6  1  0
 17 19  1  0
 18 17  2  0
 19 20  1  0
 20 28  1  0
 20 21  1  1
 22 21  1  0
 23 22  2  0
 24 23  1  0
 25 26  1  0
 25 24  2  0
 26 27  2  0
 27 22  1  0
 28 29  2  0
 28 30  1  0
M  END
$$$$
