VRF.pdb
     RDKit          3D

 30 30  0  0  1  0  0  0  0  0999 V2000
   17.1999  -31.6906    0.6706 C   0  0  0  0  0  0  0  0  0  0  0  0
   18.6855  -32.0123    0.4664 C   0  0  1  0  0  0  0  0  0  0  0  0
   19.1047  -32.7616    1.7319 C   0  0  0  0  0  0  0  0  0  0  0  0
   18.7817  -32.9573   -0.6920 C   0  0  2  0  0  0  0  0  0  0  0  0
   17.9356  -34.1025   -0.5438 N   0  0  0  0  0  0  0  0  0  0  0  0
   20.1696  -33.4055   -0.9283 C   0  0  0  0  0  0  0  0  0  0  0  0
   20.5980  -34.4141   -0.3100 O   0  0  0  0  0  0  0  0  0  0  0  0
   24.9454  -31.9188   -8.3571 N   0  0  0  0  0  0  0  0  0  0  0  0
   25.9089  -32.4697   -7.4077 C   0  0  0  0  0  0  0  0  0  0  0  0
   27.0987  -32.7068   -7.7930 N   0  0  0  0  0  0  0  0  0  0  0  0
   25.5340  -32.7391   -6.0843 N   0  0  0  0  0  0  0  0  0  0  0  0
   24.2555  -32.5230   -5.5134 C   0  0  0  0  0  0  0  0  0  0  0  0
   24.0321  -32.8661   -4.0979 C   0  0  0  0  0  0  0  0  0  0  0  0
   22.7061  -32.8004   -3.4894 C   0  0  0  0  0  0  0  0  0  0  0  0
   22.4256  -33.1454   -2.0887 C   0  0  2  0  0  0  0  0  0  0  0  0
   21.0029  -32.7314   -1.8197 N   0  0  0  0  0  0  0  0  0  0  0  0
   23.1910  -32.4903   -1.0316 C   0  0  0  0  0  0  0  0  0  0  0  0
   22.8376  -31.3114   -0.6292 O   0  0  0  0  0  0  0  0  0  0  0  0
   27.8240  -33.0612   -7.1774 N   0  0  0  0  0  0  0  0  0  0  0  0
   24.3162  -32.9990   -0.3436 C   0  0  1  0  0  0  0  0  0  0  0  0
   24.8955  -32.3366    0.8322 C   0  0  0  0  0  0  0  0  0  0  0  0
   23.8791  -32.1074    1.8904 C   0  0  0  0  0  0  0  0  0  0  0  0
   24.4425  -31.5954    3.1586 C   0  0  0  0  0  0  0  0  0  0  0  0
   24.6733  -32.4105    4.2516 C   0  0  0  0  0  0  0  0  0  0  0  0
   25.1996  -31.9495    5.4417 C   0  0  0  0  0  0  0  0  0  0  0  0
   25.5041  -30.6198    5.5342 C   0  0  0  0  0  0  0  0  0  0  0  0
   25.2818  -29.7997    4.4626 C   0  0  0  0  0  0  0  0  0  0  0  0
   24.7599  -30.2578    3.2823 C   0  0  0  0  0  0  0  0  0  0  0  0
   26.0759  -33.0814    1.3132 O   0  0  0  0  0  0  0  0  0  0  0  0
   26.0886  -34.3166    1.2682 O   0  0  0  0  0  0  0  0  0  0  0  0
  2  3  1  1
  2  1  1  0
  4  5  1  1
  4  2  1  0
  6  4  1  0
  7  6  2  0
  9  8  1  0
  9 11  1  0
 10  9  2  0
 11 12  1  0
 12 13  1  0
 13 14  1  0
 15 14  1  6
 15 17  1  0
 15 16  1  0
 16  6  1  0
 17 19  1  0
 18 17  2  0
 19 20  1  0
 20 28  1  0
 20 21  1  1
 22 21  1  0
 23 22  2  0
 24 23  1  0
 25 26  1  0
 25 24  2  0
 26 27  2  0
 27 22  1  0
 28 29  2  0
 28 30  1  0
M  END
$$$$
