VRF.pdb
     RDKit          3D

 30 30  0  0  1  0  0  0  0  0999 V2000
   29.0658  -18.6609  -13.1388 C   0  0  0  0  0  0  0  0  0  0  0  0
   28.0563  -18.0516  -14.1196 C   0  0  1  0  0  0  0  0  0  0  0  0
   28.8843  -17.6548  -15.3426 C   0  0  0  0  0  0  0  0  0  0  0  0
   27.1141  -19.1435  -14.5249 C   0  0  2  0  0  0  0  0  0  0  0  0
   26.3036  -18.7860  -15.6494 N   0  0  0  0  0  0  0  0  0  0  0  0
   26.2406  -19.5644  -13.4102 C   0  0  0  0  0  0  0  0  0  0  0  0
   25.3123  -18.7996  -13.0410 O   0  0  0  0  0  0  0  0  0  0  0  0
   21.7164  -24.8493  -13.6362 N   0  0  0  0  0  0  0  0  0  0  0  0
   20.9805  -23.5880  -13.6641 C   0  0  0  0  0  0  0  0  0  0  0  0
   19.7147  -23.6012  -13.5303 N   0  0  0  0  0  0  0  0  0  0  0  0
   21.6541  -22.3713  -13.8381 N   0  0  0  0  0  0  0  0  0  0  0  0
   22.8638  -21.9842  -13.2102 C   0  0  0  0  0  0  0  0  0  0  0  0
   23.8294  -23.0215  -12.8071 C   0  0  0  0  0  0  0  0  0  0  0  0
   25.1065  -22.6847  -12.1837 C   0  0  0  0  0  0  0  0  0  0  0  0
   25.4744  -21.3329  -11.7401 C   0  0  2  0  0  0  0  0  0  0  0  0
   26.4299  -20.7873  -12.7682 N   0  0  0  0  0  0  0  0  0  0  0  0
   26.1856  -21.1723  -10.4749 C   0  0  0  0  0  0  0  0  0  0  0  0
   27.4686  -21.3431  -10.4417 O   0  0  0  0  0  0  0  0  0  0  0  0
   19.1433  -22.7621  -13.5473 N   0  0  0  0  0  0  0  0  0  0  0  0
   25.6377  -20.8261   -9.2186 C   0  0  2  0  0  0  0  0  0  0  0  0
   26.4221  -20.8435   -7.9771 C   0  0  0  0  0  0  0  0  0  0  0  0
   27.5263  -19.8510   -8.0106 C   0  0  0  0  0  0  0  0  0  0  0  0
   28.1523  -19.6097   -6.6924 C   0  0  0  0  0  0  0  0  0  0  0  0
   27.4154  -19.5166   -5.5259 C   0  0  0  0  0  0  0  0  0  0  0  0
   27.9836  -19.2932   -4.2877 C   0  0  0  0  0  0  0  0  0  0  0  0
   29.3425  -19.1583   -4.2222 C   0  0  0  0  0  0  0  0  0  0  0  0
   30.0862  -19.2475   -5.3664 C   0  0  0  0  0  0  0  0  0  0  0  0
   29.5219  -19.4693   -6.5943 C   0  0  0  0  0  0  0  0  0  0  0  0
   25.5365  -20.6868   -6.8065 O   0  0  0  0  0  0  0  0  0  0  0  0
   26.0215  -20.5408   -5.6789 O   0  0  0  0  0  0  0  0  0  0  0  0
  2  3  1  6
  2  1  1  0
  4  5  1  6
  4  2  1  0
  6  4  1  0
  7  6  2  0
  9  8  1  0
  9 11  1  0
 10  9  2  0
 11 12  1  0
 12 13  1  0
 13 14  1  0
 15 14  1  6
 15 17  1  0
 15 16  1  0
 16  6  1  0
 17 19  1  0
 18 17  2  0
 19 20  1  0
 20 28  1  0
 20 21  1  6
 22 21  1  0
 23 22  2  0
 24 23  1  0
 25 26  1  0
 25 24  2  0
 26 27  2  0
 27 22  1  0
 28 29  2  0
 28 30  1  0
M  END
$$$$
