VRF.pdb
     RDKit          3D

 30 30  0  0  1  0  0  0  0  0999 V2000
   27.7255  -16.0283  -17.7342 C   0  0  0  0  0  0  0  0  0  0  0  0
   26.4624  -16.8791  -17.9153 C   0  0  1  0  0  0  0  0  0  0  0  0
   25.6375  -16.1413  -18.9707 C   0  0  0  0  0  0  0  0  0  0  0  0
   26.8900  -18.1950  -18.4894 C   0  0  2  0  0  0  0  0  0  0  0  0
   27.6607  -18.0520  -19.6873 N   0  0  0  0  0  0  0  0  0  0  0  0
   25.7403  -19.0843  -18.7543 C   0  0  0  0  0  0  0  0  0  0  0  0
   25.0679  -18.9150  -19.8043 O   0  0  0  0  0  0  0  0  0  0  0  0
   26.4601  -23.3522  -14.8375 N   0  0  0  0  0  0  0  0  0  0  0  0
   25.2201  -24.1097  -14.9856 C   0  0  0  0  0  0  0  0  0  0  0  0
   24.4886  -24.3148  -13.9642 N   0  0  0  0  0  0  0  0  0  0  0  0
   24.8338  -24.6107  -16.2362 N   0  0  0  0  0  0  0  0  0  0  0  0
   25.4874  -24.3789  -17.4717 C   0  0  0  0  0  0  0  0  0  0  0  0
   25.6411  -22.9959  -17.9563 C   0  0  0  0  0  0  0  0  0  0  0  0
   24.5097  -22.2305  -18.4730 C   0  0  0  0  0  0  0  0  0  0  0  0
   24.1239  -20.8999  -17.9828 C   0  0  2  0  0  0  0  0  0  0  0  0
   25.3942  -20.0997  -17.8640 N   0  0  0  0  0  0  0  0  0  0  0  0
   23.5069  -20.7828  -16.6644 C   0  0  0  0  0  0  0  0  0  0  0  0
   24.2608  -20.6507  -15.6201 O   0  0  0  0  0  0  0  0  0  0  0  0
   23.5889  -24.7830  -14.0076 N   0  0  0  0  0  0  0  0  0  0  0  0
   22.1269  -20.7820  -16.3582 C   0  0  1  0  0  0  0  0  0  0  0  0
   21.6157  -20.6079  -14.9925 C   0  0  0  0  0  0  0  0  0  0  0  0
   22.0352  -19.3077  -14.4102 C   0  0  0  0  0  0  0  0  0  0  0  0
   21.5892  -18.1326  -15.1899 C   0  0  0  0  0  0  0  0  0  0  0  0
   22.4409  -17.4228  -16.0165 C   0  0  0  0  0  0  0  0  0  0  0  0
   22.0409  -16.3251  -16.7520 C   0  0  0  0  0  0  0  0  0  0  0  0
   20.7365  -15.9279  -16.6510 C   0  0  0  0  0  0  0  0  0  0  0  0
   19.8811  -16.6187  -15.8378 C   0  0  0  0  0  0  0  0  0  0  0  0
   20.2785  -17.7077  -15.1087 C   0  0  0  0  0  0  0  0  0  0  0  0
   20.1543  -20.8136  -14.9597 O   0  0  0  0  0  0  0  0  0  0  0  0
   19.5301  -20.9868  -16.0126 O   0  0  0  0  0  0  0  0  0  0  0  0
  2  3  1  6
  2  1  1  0
  4  5  1  6
  4  2  1  0
  6  4  1  0
  7  6  2  0
  9  8  1  0
  9 11  1  0
 10  9  2  0
 11 12  1  0
 12 13  1  0
 13 14  1  0
 15 14  1  1
 15 17  1  0
 15 16  1  0
 16  6  1  0
 17 19  1  0
 18 17  2  0
 19 20  1  0
 20 28  1  0
 20 21  1  6
 22 21  1  0
 23 22  2  0
 24 23  1  0
 25 26  1  0
 25 24  2  0
 26 27  2  0
 27 22  1  0
 28 29  2  0
 28 30  1  0
M  END
$$$$
