PRG.pdb
     RDKit          3D

 23 23  0  0  1  0  0  0  0  0999 V2000
    7.8422  -15.1504   18.9594 N   0  0  0  0  0  0  0  0  0  0  0  0
    7.2308  -14.7134   17.7361 C   0  0  0  0  0  0  0  0  0  0  0  0
    7.1492  -13.2065   17.7598 C   0  0  0  0  0  0  0  0  0  0  0  0
    7.3936  -12.9203   19.2477 C   0  0  0  0  0  0  0  0  0  0  0  0
    8.4567  -13.9934   19.5250 C   0  0  1  0  0  0  0  0  0  0  0  0
    8.7421  -14.1075   20.9600 C   0  0  0  0  0  0  0  0  0  0  0  0
    9.3201  -13.1539   21.5403 O   0  0  0  0  0  0  0  0  0  0  0  0
    6.9086  -20.5578   25.1989 N   0  0  0  0  0  0  0  0  0  0  0  0
    7.1467  -19.9298   26.4721 C   0  0  0  0  0  0  0  0  0  0  0  0
    7.4589  -20.6335   27.5055 N   0  0  0  0  0  0  0  0  0  0  0  0
    7.0383  -18.5158   26.6058 N   0  0  0  0  0  0  0  0  0  0  0  0
    6.7016  -17.6385   25.5062 C   0  0  0  0  0  0  0  0  0  0  0  0
    7.9581  -17.0450   24.9026 C   0  0  0  0  0  0  0  0  0  0  0  0
    7.5334  -16.0798   23.8308 C   0  0  0  0  0  0  0  0  0  0  0  0
    8.6827  -15.4333   23.1107 C   0  0  2  0  0  0  0  0  0  0  0  0
    8.3910  -15.2414   21.6949 N   0  0  0  0  0  0  0  0  0  0  0  0
    9.9675  -16.1286   23.3128 C   0  0  0  0  0  0  0  0  0  0  0  0
   10.2760  -17.1836   22.7044 O   0  0  0  0  0  0  0  0  0  0  0  0
    7.5891  -20.2206   28.4469 N   0  0  0  0  0  0  0  0  0  0  0  0
   10.9360  -15.6193   24.2289 C   0  0  0  0  0  0  0  0  0  0  0  0
   12.2893  -16.0699   24.2810 C   0  0  0  0  0  0  0  0  0  0  0  0
   12.4501  -17.2853   25.1345 O   0  0  0  0  0  0  0  0  0  0  0  0
   13.7361  -17.7461   25.3406 O   0  0  0  0  0  0  0  0  0  0  0  0
  2  1  1  0
  2  3  1  0
  4  3  1  0
  5  4  1  0
  5  6  1  1
  5  1  1  0
  6  7  2  0
  8  9  1  0
  9 11  1  0
 10  9  2  0
 11 12  1  0
 12 13  1  0
 14 13  1  0
 15 14  1  6
 15 17  1  0
 16  6  1  0
 16 15  1  0
 17 19  1  0
 17 18  2  0
 19 20  1  0
 21 22  1  0
 21 20  1  0
 23 21  2  0
M  END
$$$$
