PRG.pdb
     RDKit          3D

 23 23  0  0  1  0  0  0  0  0999 V2000
    8.0961  -15.5484   18.1746 N   0  0  0  0  0  0  0  0  0  0  0  0
    7.6957  -15.3528   16.8098 C   0  0  0  0  0  0  0  0  0  0  0  0
    7.8311  -13.8856   16.4826 C   0  0  0  0  0  0  0  0  0  0  0  0
    7.9459  -13.2784   17.8875 C   0  0  0  0  0  0  0  0  0  0  0  0
    8.8045  -14.3672   18.5478 C   0  0  1  0  0  0  0  0  0  0  0  0
    8.9075  -14.1633   19.9974 C   0  0  0  0  0  0  0  0  0  0  0  0
    9.5580  -13.1765   20.4255 O   0  0  0  0  0  0  0  0  0  0  0  0
    8.1061  -13.3705   27.1653 N   0  0  0  0  0  0  0  0  0  0  0  0
    6.9387  -12.5314   27.0925 C   0  0  0  0  0  0  0  0  0  0  0  0
    6.5488  -11.8549   28.1177 N   0  0  0  0  0  0  0  0  0  0  0  0
    6.1961  -12.4393   25.8805 N   0  0  0  0  0  0  0  0  0  0  0  0
    6.7702  -12.6928   24.5773 C   0  0  0  0  0  0  0  0  0  0  0  0
    6.8854  -14.1838   24.3339 C   0  0  0  0  0  0  0  0  0  0  0  0
    6.9469  -14.3964   22.8467 C   0  0  0  0  0  0  0  0  0  0  0  0
    8.2965  -14.8374   22.3553 C   0  0  2  0  0  0  0  0  0  0  0  0
    8.3057  -15.0317   20.9100 N   0  0  0  0  0  0  0  0  0  0  0  0
    8.8235  -16.0168   23.0668 C   0  0  0  0  0  0  0  0  0  0  0  0
    8.3157  -17.1610   22.9615 O   0  0  0  0  0  0  0  0  0  0  0  0
    5.7788  -11.1628   28.0734 N   0  0  0  0  0  0  0  0  0  0  0  0
    9.9590  -15.9040   23.9238 C   0  0  0  0  0  0  0  0  0  0  0  0
   10.4391  -16.9683   24.7448 C   0  0  0  0  0  0  0  0  0  0  0  0
   11.4476  -17.8168   24.0414 O   0  0  0  0  0  0  0  0  0  0  0  0
   12.0555  -18.8154   24.7775 O   0  0  0  0  0  0  0  0  0  0  0  0
  2  1  1  0
  2  3  1  0
  4  3  1  0
  5  4  1  0
  5  6  1  1
  5  1  1  0
  6  7  2  0
  8  9  1  0
  9 11  1  0
 10  9  2  0
 11 12  1  0
 12 13  1  0
 14 13  1  0
 15 14  1  1
 15 17  1  0
 16  6  1  0
 16 15  1  0
 17 19  1  0
 17 18  2  0
 19 20  1  0
 21 22  1  0
 21 20  1  0
 23 21  2  0
M  END
$$$$
