PRG.pdb
     RDKit          3D

 23 23  0  0  1  0  0  0  0  0999 V2000
    8.6846  -13.9170   18.3568 N   0  0  0  0  0  0  0  0  0  0  0  0
    7.6298  -13.1156   17.8032 C   0  0  0  0  0  0  0  0  0  0  0  0
    6.5590  -12.9512   18.8541 C   0  0  0  0  0  0  0  0  0  0  0  0
    6.9482  -14.0539   19.8482 C   0  0  0  0  0  0  0  0  0  0  0  0
    8.4759  -13.9178   19.7684 C   0  0  1  0  0  0  0  0  0  0  0  0
    9.1496  -15.0147   20.4730 C   0  0  0  0  0  0  0  0  0  0  0  0
    8.8895  -15.2042   21.6882 O   0  0  0  0  0  0  0  0  0  0  0  0
   15.0053  -19.6746   21.0163 N   0  0  0  0  0  0  0  0  0  0  0  0
   14.5438  -20.9218   20.4651 C   0  0  0  0  0  0  0  0  0  0  0  0
   15.0478  -22.0414   20.8564 N   0  0  0  0  0  0  0  0  0  0  0  0
   13.5202  -20.9331   19.4746 N   0  0  0  0  0  0  0  0  0  0  0  0
   12.8945  -19.7319   18.9668 C   0  0  0  0  0  0  0  0  0  0  0  0
   12.1870  -18.9939   20.0850 C   0  0  0  0  0  0  0  0  0  0  0  0
   11.5404  -17.7760   19.4857 C   0  0  0  0  0  0  0  0  0  0  0  0
   10.7826  -16.9435   20.4808 C   0  0  2  0  0  0  0  0  0  0  0  0
   10.0677  -15.8496   19.8335 N   0  0  0  0  0  0  0  0  0  0  0  0
   11.6152  -16.4636   21.5995 C   0  0  0  0  0  0  0  0  0  0  0  0
   12.3749  -15.4673   21.5067 O   0  0  0  0  0  0  0  0  0  0  0  0
   14.7062  -22.9592   20.5177 N   0  0  0  0  0  0  0  0  0  0  0  0
   11.5912  -17.1266   22.8629 C   0  0  0  0  0  0  0  0  0  0  0  0
   12.2134  -16.6103   24.0391 C   0  0  0  0  0  0  0  0  0  0  0  0
   11.8620  -17.3975   25.2591 O   0  0  0  0  0  0  0  0  0  0  0  0
   12.4026  -16.9769   26.4589 O   0  0  0  0  0  0  0  0  0  0  0  0
  2  1  1  0
  2  3  1  0
  4  3  1  0
  5  4  1  0
  5  6  1  1
  5  1  1  0
  6  7  2  0
  8  9  1  0
  9 11  1  0
 10  9  2  0
 11 12  1  0
 12 13  1  0
 14 13  1  0
 15 14  1  6
 15 17  1  0
 16  6  1  0
 16 15  1  0
 17 19  1  0
 17 18  2  0
 19 20  1  0
 21 22  1  0
 21 20  1  0
 23 21  2  0
M  END
$$$$
