PRG.pdb
     RDKit          3D

 23 23  0  0  1  0  0  0  0  0999 V2000
    8.8168  -14.3126   18.5534 N   0  0  0  0  0  0  0  0  0  0  0  0
    8.0034  -13.4461   17.7478 C   0  0  0  0  0  0  0  0  0  0  0  0
    7.1750  -12.5837   18.6687 C   0  0  0  0  0  0  0  0  0  0  0  0
    7.3219  -13.3412   19.9954 C   0  0  0  0  0  0  0  0  0  0  0  0
    8.7941  -13.7597   19.8687 C   0  0  1  0  0  0  0  0  0  0  0  0
    9.1752  -14.7065   20.9232 C   0  0  0  0  0  0  0  0  0  0  0  0
    8.9092  -14.4213   22.1182 O   0  0  0  0  0  0  0  0  0  0  0  0
   10.3411  -22.5031   17.9053 N   0  0  0  0  0  0  0  0  0  0  0  0
    9.1504  -21.7155   17.7206 C   0  0  0  0  0  0  0  0  0  0  0  0
    8.2247  -22.1009   16.9113 N   0  0  0  0  0  0  0  0  0  0  0  0
    8.9811  -20.4937   18.4331 N   0  0  0  0  0  0  0  0  0  0  0  0
    9.9439  -19.9930   19.3894 C   0  0  0  0  0  0  0  0  0  0  0  0
    9.4330  -18.7205   20.0336 C   0  0  0  0  0  0  0  0  0  0  0  0
   10.4905  -18.2402   20.9884 C   0  0  0  0  0  0  0  0  0  0  0  0
   10.1701  -16.9197   21.6296 C   0  0  2  0  0  0  0  0  0  0  0  0
    9.8225  -15.9098   20.6367 N   0  0  0  0  0  0  0  0  0  0  0  0
   11.2215  -16.4423   22.5470 C   0  0  0  0  0  0  0  0  0  0  0  0
   12.0877  -15.5964   22.2118 O   0  0  0  0  0  0  0  0  0  0  0  0
    7.3816  -21.5325   16.7117 N   0  0  0  0  0  0  0  0  0  0  0  0
   11.2996  -16.9329   23.8848 C   0  0  0  0  0  0  0  0  0  0  0  0
   12.2310  -16.4487   24.8518 C   0  0  0  0  0  0  0  0  0  0  0  0
   12.1240  -17.1719   26.1546 O   0  0  0  0  0  0  0  0  0  0  0  0
   13.0926  -16.9087   27.1038 O   0  0  0  0  0  0  0  0  0  0  0  0
  2  1  1  0
  2  3  1  0
  4  3  1  0
  5  4  1  0
  5  6  1  1
  5  1  1  0
  6  7  2  0
  8  9  1  0
  9 11  1  0
 10  9  2  0
 11 12  1  0
 12 13  1  0
 14 13  1  0
 15 14  1  6
 15 17  1  0
 16  6  1  0
 16 15  1  0
 17 19  1  0
 17 18  2  0
 19 20  1  0
 21 22  1  0
 21 20  1  0
 23 21  2  0
M  END
$$$$
