PRG.pdb
     RDKit          3D

 23 23  0  0  1  0  0  0  0  0999 V2000
    7.9450  -15.0602   19.1400 N   0  0  0  0  0  0  0  0  0  0  0  0
    7.4312  -14.4600   17.9413 C   0  0  0  0  0  0  0  0  0  0  0  0
    7.4009  -12.9636   18.1368 C   0  0  0  0  0  0  0  0  0  0  0  0
    7.5566  -12.8609   19.6601 C   0  0  0  0  0  0  0  0  0  0  0  0
    8.5610  -14.0029   19.8742 C   0  0  1  0  0  0  0  0  0  0  0  0
    8.7471  -14.2932   21.3006 C   0  0  0  0  0  0  0  0  0  0  0  0
    9.3726  -13.4656   22.0105 O   0  0  0  0  0  0  0  0  0  0  0  0
    8.4152  -20.7688   26.9652 N   0  0  0  0  0  0  0  0  0  0  0  0
    7.0661  -20.2688   27.0098 C   0  0  0  0  0  0  0  0  0  0  0  0
    6.0775  -21.0611   27.2454 N   0  0  0  0  0  0  0  0  0  0  0  0
    6.8064  -18.8853   26.7916 N   0  0  0  0  0  0  0  0  0  0  0  0
    6.5962  -18.3150   25.4791 C   0  0  0  0  0  0  0  0  0  0  0  0
    7.7155  -17.3526   25.1380 C   0  0  0  0  0  0  0  0  0  0  0  0
    7.4327  -16.7954   23.7704 C   0  0  0  0  0  0  0  0  0  0  0  0
    8.4941  -15.8575   23.2694 C   0  0  2  0  0  0  0  0  0  0  0  0
    8.2510  -15.4584   21.8880 N   0  0  0  0  0  0  0  0  0  0  0  0
    9.8647  -16.3691   23.4554 C   0  0  0  0  0  0  0  0  0  0  0  0
   10.3563  -17.2794   22.7427 O   0  0  0  0  0  0  0  0  0  0  0  0
    5.0903  -20.7465   27.2294 N   0  0  0  0  0  0  0  0  0  0  0  0
   10.7087  -15.8383   24.4763 C   0  0  0  0  0  0  0  0  0  0  0  0
   12.0928  -16.1619   24.6059 C   0  0  0  0  0  0  0  0  0  0  0  0
   12.3192  -17.3395   25.4967 O   0  0  0  0  0  0  0  0  0  0  0  0
   13.4188  -17.2968   26.3319 O   0  0  0  0  0  0  0  0  0  0  0  0
  2  1  1  0
  2  3  1  0
  4  3  1  0
  5  4  1  0
  5  6  1  1
  5  1  1  0
  6  7  2  0
  8  9  1  0
  9 11  1  0
 10  9  2  0
 11 12  1  0
 12 13  1  0
 14 13  1  0
 15 14  1  6
 15 17  1  0
 16  6  1  0
 16 15  1  0
 17 19  1  0
 17 18  2  0
 19 20  1  0
 21 22  1  0
 21 20  1  0
 23 21  2  0
M  END
$$$$
