PRG.pdb
     RDKit          3D

 23 23  0  0  1  0  0  0  0  0999 V2000
    7.8762  -14.9937   19.0205 N   0  0  0  0  0  0  0  0  0  0  0  0
    7.3149  -14.4008   17.8396 C   0  0  0  0  0  0  0  0  0  0  0  0
    7.2466  -12.9073   18.0466 C   0  0  0  0  0  0  0  0  0  0  0  0
    7.4382  -12.8101   19.5663 C   0  0  0  0  0  0  0  0  0  0  0  0
    8.4802  -13.9239   19.7464 C   0  0  1  0  0  0  0  0  0  0  0  0
    8.7109  -14.2181   21.1655 C   0  0  0  0  0  0  0  0  0  0  0  0
    9.3179  -13.3711   21.8687 O   0  0  0  0  0  0  0  0  0  0  0  0
    8.7663  -20.6439   27.2138 N   0  0  0  0  0  0  0  0  0  0  0  0
    7.6528  -19.7936   26.8829 C   0  0  0  0  0  0  0  0  0  0  0  0
    7.1551  -18.9897   27.7584 N   0  0  0  0  0  0  0  0  0  0  0  0
    7.0844  -19.8319   25.5774 N   0  0  0  0  0  0  0  0  0  0  0  0
    6.6827  -18.6467   24.8521 C   0  0  0  0  0  0  0  0  0  0  0  0
    7.8974  -17.8232   24.4755 C   0  0  0  0  0  0  0  0  0  0  0  0
    7.4139  -16.6368   23.6885 C   0  0  0  0  0  0  0  0  0  0  0  0
    8.5225  -15.7834   23.1407 C   0  0  2  0  0  0  0  0  0  0  0  0
    8.2770  -15.4077   21.7532 N   0  0  0  0  0  0  0  0  0  0  0  0
    9.8612  -16.3769   23.3156 C   0  0  0  0  0  0  0  0  0  0  0  0
   10.3092  -17.2827   22.5692 O   0  0  0  0  0  0  0  0  0  0  0  0
    6.4169  -18.2991   27.5303 N   0  0  0  0  0  0  0  0  0  0  0  0
   10.7230  -15.9361   24.3642 C   0  0  0  0  0  0  0  0  0  0  0  0
   12.1476  -15.9661   24.2825 C   0  0  0  0  0  0  0  0  0  0  0  0
   12.7043  -17.3212   24.5746 O   0  0  0  0  0  0  0  0  0  0  0  0
   14.0799  -17.4454   24.6038 O   0  0  0  0  0  0  0  0  0  0  0  0
  2  1  1  0
  2  3  1  0
  4  3  1  0
  5  4  1  0
  5  6  1  1
  5  1  1  0
  6  7  2  0
  8  9  1  0
  9 11  1  0
 10  9  2  0
 11 12  1  0
 12 13  1  0
 14 13  1  0
 15 14  1  6
 15 17  1  0
 16  6  1  0
 16 15  1  0
 17 19  1  0
 17 18  2  0
 19 20  1  0
 21 22  1  0
 21 20  1  0
 23 21  2  0
M  END
$$$$
