EDS.pdb
     RDKit          3D

 24 23  0  0  1  0  0  0  0  0999 V2000
    9.9546  -16.5691   18.3478 N   0  0  0  0  0  0  0  0  0  0  0  0
    9.0000  -16.9913   19.3492 C   0  0  1  0  0  0  0  0  0  0  0  0
    8.2457  -18.1827   18.7468 C   0  0  0  0  0  0  0  0  0  0  0  0
    7.8208  -17.8067   17.3256 C   0  0  0  0  0  0  0  0  0  0  0  0
    7.0550  -18.9278   16.7386 C   0  0  0  0  0  0  0  0  0  0  0  0
    6.5425  -18.8406   15.5981 O   0  0  0  0  0  0  0  0  0  0  0  0
    9.7224  -17.5120   20.5238 C   0  0  0  0  0  0  0  0  0  0  0  0
    9.0519  -17.9004   21.5161 O   0  0  0  0  0  0  0  0  0  0  0  0
    6.8982  -20.0977   17.4580 O   0  0  0  0  0  0  0  0  0  0  0  0
   11.1401  -17.5952   20.5869 N   0  0  0  0  0  0  0  0  0  0  0  0
   11.7530  -18.1204   21.7974 C   0  0  1  0  0  0  0  0  0  0  0  0
   13.1642  -18.4985   21.4640 C   0  0  0  0  0  0  0  0  0  0  0  0
   13.8536  -19.1687   22.5586 C   0  0  0  0  0  0  0  0  0  0  0  0
   13.3559  -19.5244   23.6412 O   0  0  0  0  0  0  0  0  0  0  0  0
   11.7256  -17.0478   22.8538 C   0  0  0  0  0  0  0  0  0  0  0  0
   12.5325  -16.1063   22.9413 O   0  0  0  0  0  0  0  0  0  0  0  0
   15.2206  -19.4467   22.3848 O   0  0  0  0  0  0  0  0  0  0  0  0
    8.2783  -15.8206   24.9102 O   0  0  0  0  0  0  0  0  0  0  0  0
    9.4906  -15.1559   24.8236 C   0  0  0  0  0  0  0  0  0  0  0  0
   10.6807  -16.0819   24.9438 C   0  0  2  0  0  0  0  0  0  0  0  0
   10.7023  -17.0645   23.8723 N   0  0  0  0  0  0  0  0  0  0  0  0
   10.6896  -16.7288   26.2552 C   0  0  0  0  0  0  0  0  0  0  0  0
   10.6488  -18.1025   26.3548 O   0  0  0  0  0  0  0  0  0  0  0  0
   10.7351  -16.0254   27.3053 O   0  0  0  0  0  0  0  0  0  0  0  0
  2  1  1  6
  2  7  1  0
  2  3  1  0
  3  4  1  0
  4  5  1  0
  5  9  1  0
  6  5  2  0
  7  8  2  0
  7 10  1  0
 10 11  1  0
 11 15  1  0
 12 13  1  0
 11 12  1  6
 13 17  1  0
 14 13  2  0
 15 16  2  0
 15 21  1  0
 18 19  1  0
 20 19  1  6
 20 22  1  0
 21 20  1  0
 22 23  1  0
 24 22  2  0
M  END
$$$$
