EDS.pdb
     RDKit          3D

 24 23  0  0  1  0  0  0  0  0999 V2000
   10.2030  -17.3483   19.8290 N   0  0  0  0  0  0  0  0  0  0  0  0
   11.2180  -17.4472   20.8549 C   0  0  1  0  0  0  0  0  0  0  0  0
   12.0032  -16.1310   20.8092 C   0  0  0  0  0  0  0  0  0  0  0  0
   12.9312  -16.1733   19.5931 C   0  0  0  0  0  0  0  0  0  0  0  0
   13.6542  -14.8868   19.4931 C   0  0  0  0  0  0  0  0  0  0  0  0
   14.4695  -14.6676   18.5668 O   0  0  0  0  0  0  0  0  0  0  0  0
   10.5713  -17.4957   22.1787 C   0  0  0  0  0  0  0  0  0  0  0  0
    9.3844  -17.0887   22.2812 O   0  0  0  0  0  0  0  0  0  0  0  0
   13.4299  -13.9028   20.4376 O   0  0  0  0  0  0  0  0  0  0  0  0
   11.2266  -17.9806   23.3433 N   0  0  0  0  0  0  0  0  0  0  0  0
   10.4986  -17.9780   24.6031 C   0  0  1  0  0  0  0  0  0  0  0  0
   10.9685  -19.1563   25.4008 C   0  0  0  0  0  0  0  0  0  0  0  0
   10.4284  -19.1868   26.7536 C   0  0  0  0  0  0  0  0  0  0  0  0
    9.2325  -19.0791   27.0771 O   0  0  0  0  0  0  0  0  0  0  0  0
   10.7976  -16.6924   25.3277 C   0  0  0  0  0  0  0  0  0  0  0  0
   11.9155  -16.1543   25.4025 O   0  0  0  0  0  0  0  0  0  0  0  0
   11.3422  -19.3545   27.8085 O   0  0  0  0  0  0  0  0  0  0  0  0
    8.9483  -12.6278   27.3119 O   0  0  0  0  0  0  0  0  0  0  0  0
    8.7429  -13.8519   26.6968 C   0  0  0  0  0  0  0  0  0  0  0  0
    9.9814  -14.7203   26.6833 C   0  0  2  0  0  0  0  0  0  0  0  0
    9.7387  -15.9850   26.0084 N   0  0  0  0  0  0  0  0  0  0  0  0
   10.4669  -14.9325   28.0462 C   0  0  0  0  0  0  0  0  0  0  0  0
   11.0126  -13.8893   28.7619 O   0  0  0  0  0  0  0  0  0  0  0  0
   10.3863  -16.0795   28.5731 O   0  0  0  0  0  0  0  0  0  0  0  0
  2  1  1  6
  2  7  1  0
  2  3  1  0
  3  4  1  0
  4  5  1  0
  5  9  1  0
  6  5  2  0
  7  8  2  0
  7 10  1  0
 10 11  1  0
 11 15  1  0
 12 13  1  0
 11 12  1  1
 13 17  1  0
 14 13  2  0
 15 16  2  0
 15 21  1  0
 18 19  1  0
 20 19  1  1
 20 22  1  0
 21 20  1  0
 22 23  1  0
 24 22  2  0
M  END
$$$$
