EDS.pdb
     RDKit          3D

 24 23  0  0  1  0  0  0  0  0999 V2000
   11.2711  -17.8047   16.4231 N   0  0  0  0  0  0  0  0  0  0  0  0
   11.0939  -16.5681   17.1523 C   0  0  1  0  0  0  0  0  0  0  0  0
    9.6938  -16.6341   17.7741 C   0  0  0  0  0  0  0  0  0  0  0  0
    9.4692  -18.0576   18.2889 C   0  0  0  0  0  0  0  0  0  0  0  0
    8.0920  -18.1677   18.8172 C   0  0  0  0  0  0  0  0  0  0  0  0
    7.3901  -17.1503   19.0246 O   0  0  0  0  0  0  0  0  0  0  0  0
   12.0436  -16.5249   18.2788 C   0  0  0  0  0  0  0  0  0  0  0  0
   12.3677  -17.6088   18.8314 O   0  0  0  0  0  0  0  0  0  0  0  0
    7.5634  -19.4156   19.0895 O   0  0  0  0  0  0  0  0  0  0  0  0
   12.6094  -15.3164   18.7689 N   0  0  0  0  0  0  0  0  0  0  0  0
   13.4875  -15.3790   19.9273 C   0  0  1  0  0  0  0  0  0  0  0  0
   14.4076  -14.1979   19.8633 C   0  0  0  0  0  0  0  0  0  0  0  0
   15.5336  -14.2960   20.7825 C   0  0  0  0  0  0  0  0  0  0  0  0
   16.4469  -13.4646   20.9278 O   0  0  0  0  0  0  0  0  0  0  0  0
   12.6433  -15.3281   21.1731 C   0  0  0  0  0  0  0  0  0  0  0  0
   11.9997  -14.3390   21.5637 O   0  0  0  0  0  0  0  0  0  0  0  0
   15.6058  -15.4425   21.5928 O   0  0  0  0  0  0  0  0  0  0  0  0
    9.5008  -16.4391   24.1123 O   0  0  0  0  0  0  0  0  0  0  0  0
   10.2721  -16.4579   22.9617 C   0  0  0  0  0  0  0  0  0  0  0  0
   11.7574  -16.4705   23.2475 C   0  0  2  0  0  0  0  0  0  0  0  0
   12.5366  -16.4926   22.0202 N   0  0  0  0  0  0  0  0  0  0  0  0
   12.0983  -17.6002   24.1110 C   0  0  0  0  0  0  0  0  0  0  0  0
   11.6406  -17.6476   25.4098 O   0  0  0  0  0  0  0  0  0  0  0  0
   12.8172  -18.5405   23.6652 O   0  0  0  0  0  0  0  0  0  0  0  0
  2  1  1  6
  2  7  1  0
  2  3  1  0
  3  4  1  0
  4  5  1  0
  5  9  1  0
  6  5  2  0
  7  8  2  0
  7 10  1  0
 10 11  1  0
 11 15  1  0
 12 13  1  0
 11 12  1  1
 13 17  1  0
 14 13  2  0
 15 16  2  0
 15 21  1  0
 18 19  1  0
 20 19  1  6
 20 22  1  0
 21 20  1  0
 22 23  1  0
 24 22  2  0
M  END
$$$$
