EDS.pdb
     RDKit          3D

 24 23  0  0  1  0  0  0  0  0999 V2000
    9.5038  -18.2180   18.2440 N   0  0  0  0  0  0  0  0  0  0  0  0
   10.6908  -17.3989   18.1320 C   0  0  1  0  0  0  0  0  0  0  0  0
   11.0246  -17.3304   16.6370 C   0  0  0  0  0  0  0  0  0  0  0  0
    9.7520  -16.9374   15.8835 C   0  0  0  0  0  0  0  0  0  0  0  0
   10.0744  -16.7629   14.4504 C   0  0  0  0  0  0  0  0  0  0  0  0
    9.2406  -17.0393   13.5564 O   0  0  0  0  0  0  0  0  0  0  0  0
   10.3741  -16.0205   18.5473 C   0  0  0  0  0  0  0  0  0  0  0  0
   11.3224  -15.2051   18.6917 O   0  0  0  0  0  0  0  0  0  0  0  0
   11.3189  -16.2856   14.0842 O   0  0  0  0  0  0  0  0  0  0  0  0
    9.0478  -15.5708   18.7919 N   0  0  0  0  0  0  0  0  0  0  0  0
    8.8453  -14.1867   19.1921 C   0  0  1  0  0  0  0  0  0  0  0  0
    7.5477  -13.7284   18.5991 C   0  0  0  0  0  0  0  0  0  0  0  0
    7.5090  -13.8376   17.1469 C   0  0  0  0  0  0  0  0  0  0  0  0
    7.0722  -14.7967   16.4867 O   0  0  0  0  0  0  0  0  0  0  0  0
    8.7940  -14.1242   20.6956 C   0  0  0  0  0  0  0  0  0  0  0  0
    8.5899  -13.0966   21.3644 O   0  0  0  0  0  0  0  0  0  0  0  0
    8.0140  -12.7550   16.4057 O   0  0  0  0  0  0  0  0  0  0  0  0
    7.6076  -17.1352   23.0572 O   0  0  0  0  0  0  0  0  0  0  0  0
    7.9743  -15.9254   23.6239 C   0  0  0  0  0  0  0  0  0  0  0  0
    9.1444  -15.2750   22.9196 C   0  0  2  0  0  0  0  0  0  0  0  0
    8.9914  -15.3239   21.4745 N   0  0  0  0  0  0  0  0  0  0  0  0
   10.3991  -15.8972   23.3401 C   0  0  0  0  0  0  0  0  0  0  0  0
   11.1964  -16.5467   22.4231 O   0  0  0  0  0  0  0  0  0  0  0  0
   10.7566  -15.8400   24.5519 O   0  0  0  0  0  0  0  0  0  0  0  0
  2  1  1  6
  2  7  1  0
  2  3  1  0
  3  4  1  0
  4  5  1  0
  5  9  1  0
  6  5  2  0
  7  8  2  0
  7 10  1  0
 10 11  1  0
 11 15  1  0
 12 13  1  0
 11 12  1  6
 13 17  1  0
 14 13  2  0
 15 16  2  0
 15 21  1  0
 18 19  1  0
 20 19  1  1
 20 22  1  0
 21 20  1  0
 22 23  1  0
 24 22  2  0
M  END
$$$$
