EDS.pdb
     RDKit          3D

 24 23  0  0  1  0  0  0  0  0999 V2000
   11.4437  -15.5687   16.8622 N   0  0  0  0  0  0  0  0  0  0  0  0
   11.9164  -16.6080   17.7504 C   0  0  1  0  0  0  0  0  0  0  0  0
   13.3335  -16.2005   18.1709 C   0  0  0  0  0  0  0  0  0  0  0  0
   13.3222  -14.7044   18.4921 C   0  0  0  0  0  0  0  0  0  0  0  0
   14.6708  -14.2976   18.9434 C   0  0  0  0  0  0  0  0  0  0  0  0
   15.3239  -13.4177   18.3350 O   0  0  0  0  0  0  0  0  0  0  0  0
   11.1046  -16.6056   18.9807 C   0  0  0  0  0  0  0  0  0  0  0  0
   10.3589  -15.6163   19.2049 O   0  0  0  0  0  0  0  0  0  0  0  0
   15.2270  -14.8969   20.0580 O   0  0  0  0  0  0  0  0  0  0  0  0
   11.1256  -17.6685   19.9245 N   0  0  0  0  0  0  0  0  0  0  0  0
   10.1339  -17.6732   20.9892 C   0  0  1  0  0  0  0  0  0  0  0  0
    9.7379  -19.0975   21.2338 C   0  0  0  0  0  0  0  0  0  0  0  0
    8.8597  -19.6351   20.2031 C   0  0  0  0  0  0  0  0  0  0  0  0
    7.6777  -19.3109   19.9931 O   0  0  0  0  0  0  0  0  0  0  0  0
   10.7526  -17.0740   22.2242 C   0  0  0  0  0  0  0  0  0  0  0  0
   11.9707  -17.0319   22.4683 O   0  0  0  0  0  0  0  0  0  0  0  0
    9.3914  -20.6209   19.3536 O   0  0  0  0  0  0  0  0  0  0  0  0
    8.8965  -14.2217   24.6256 O   0  0  0  0  0  0  0  0  0  0  0  0
    9.4315  -15.2901   25.3267 C   0  0  0  0  0  0  0  0  0  0  0  0
   10.4495  -16.0708   24.5253 C   0  0  2  0  0  0  0  0  0  0  0  0
    9.9112  -16.4874   23.2405 N   0  0  0  0  0  0  0  0  0  0  0  0
   10.9295  -17.2177   25.2949 C   0  0  0  0  0  0  0  0  0  0  0  0
   11.5411  -17.0312   26.5154 O   0  0  0  0  0  0  0  0  0  0  0  0
   10.7834  -18.3886   24.8396 O   0  0  0  0  0  0  0  0  0  0  0  0
  2  1  1  6
  2  7  1  0
  2  3  1  0
  3  4  1  0
  4  5  1  0
  5  9  1  0
  6  5  2  0
  7  8  2  0
  7 10  1  0
 10 11  1  0
 11 15  1  0
 12 13  1  0
 11 12  1  1
 13 17  1  0
 14 13  2  0
 15 16  2  0
 15 21  1  0
 18 19  1  0
 20 19  1  1
 20 22  1  0
 21 20  1  0
 22 23  1  0
 24 22  2  0
M  END
$$$$
