EDS.pdb
     RDKit          3D

 24 23  0  0  1  0  0  0  0  0999 V2000
   13.7596  -13.9274   16.8224 N   0  0  0  0  0  0  0  0  0  0  0  0
   14.1062  -14.9428   17.7926 C   0  0  1  0  0  0  0  0  0  0  0  0
   15.1652  -14.3171   18.7081 C   0  0  0  0  0  0  0  0  0  0  0  0
   16.5400  -14.5661   18.0838 C   0  0  0  0  0  0  0  0  0  0  0  0
   17.5823  -14.0148   18.9769 C   0  0  0  0  0  0  0  0  0  0  0  0
   18.4872  -13.2667   18.5385 O   0  0  0  0  0  0  0  0  0  0  0  0
   12.9371  -15.2226   18.6457 C   0  0  0  0  0  0  0  0  0  0  0  0
   12.0650  -14.3248   18.7806 O   0  0  0  0  0  0  0  0  0  0  0  0
   17.5626  -14.3277   20.3232 O   0  0  0  0  0  0  0  0  0  0  0  0
   12.7502  -16.4589   19.3221 N   0  0  0  0  0  0  0  0  0  0  0  0
   11.5151  -16.6669   20.0626 C   0  0  1  0  0  0  0  0  0  0  0  0
   10.9692  -18.0052   19.6671 C   0  0  0  0  0  0  0  0  0  0  0  0
    9.7101  -18.3294   20.3245 C   0  0  0  0  0  0  0  0  0  0  0  0
    8.8291  -17.5256   20.6767 O   0  0  0  0  0  0  0  0  0  0  0  0
   11.8269  -16.6342   21.5353 C   0  0  0  0  0  0  0  0  0  0  0  0
   12.8893  -17.0201   22.0525 O   0  0  0  0  0  0  0  0  0  0  0  0
    9.4540  -19.6853   20.5930 O   0  0  0  0  0  0  0  0  0  0  0  0
   10.1630  -15.4475   26.0265 O   0  0  0  0  0  0  0  0  0  0  0  0
    9.9269  -15.5416   24.6647 C   0  0  0  0  0  0  0  0  0  0  0  0
   11.1035  -16.1061   23.8998 C   0  0  2  0  0  0  0  0  0  0  0  0
   10.8499  -16.1242   22.4682 N   0  0  0  0  0  0  0  0  0  0  0  0
   11.4370  -17.4410   24.3949 C   0  0  0  0  0  0  0  0  0  0  0  0
   12.4279  -17.6070   25.3379 O   0  0  0  0  0  0  0  0  0  0  0  0
   10.8136  -18.4504   23.9566 O   0  0  0  0  0  0  0  0  0  0  0  0
  2  1  1  6
  2  7  1  0
  2  3  1  0
  3  4  1  0
  4  5  1  0
  5  9  1  0
  6  5  2  0
  7  8  2  0
  7 10  1  0
 10 11  1  0
 11 15  1  0
 12 13  1  0
 11 12  1  6
 13 17  1  0
 14 13  2  0
 15 16  2  0
 15 21  1  0
 18 19  1  0
 20 19  1  1
 20 22  1  0
 21 20  1  0
 22 23  1  0
 24 22  2  0
M  END
$$$$
