EDS.pdb
     RDKit          3D

 24 23  0  0  1  0  0  0  0  0999 V2000
   11.4922  -18.7667   16.5181 N   0  0  0  0  0  0  0  0  0  0  0  0
   11.4975  -17.5769   17.3408 C   0  0  1  0  0  0  0  0  0  0  0  0
   10.0704  -17.4224   17.8799 C   0  0  0  0  0  0  0  0  0  0  0  0
    9.1731  -18.4180   17.1415 C   0  0  0  0  0  0  0  0  0  0  0  0
    7.7653  -18.1752   17.5252 C   0  0  0  0  0  0  0  0  0  0  0  0
    7.4572  -17.2685   18.3338 O   0  0  0  0  0  0  0  0  0  0  0  0
   12.3601  -17.7990   18.5152 C   0  0  0  0  0  0  0  0  0  0  0  0
   12.3159  -18.9192   19.0881 O   0  0  0  0  0  0  0  0  0  0  0  0
    6.7653  -18.9611   16.9840 O   0  0  0  0  0  0  0  0  0  0  0  0
   13.2386  -16.8067   19.0296 N   0  0  0  0  0  0  0  0  0  0  0  0
   13.9572  -17.0860   20.2635 C   0  0  1  0  0  0  0  0  0  0  0  0
   15.3612  -16.5910   20.0925 C   0  0  0  0  0  0  0  0  0  0  0  0
   16.2281  -16.9219   21.2157 C   0  0  0  0  0  0  0  0  0  0  0  0
   15.9061  -17.5451   22.2425 O   0  0  0  0  0  0  0  0  0  0  0  0
   13.2724  -16.3622   21.3924 C   0  0  0  0  0  0  0  0  0  0  0  0
   13.4542  -15.1706   21.6956 O   0  0  0  0  0  0  0  0  0  0  0  0
   17.5668  -16.4990   21.1427 O   0  0  0  0  0  0  0  0  0  0  0  0
    9.4147  -15.5827   23.9487 O   0  0  0  0  0  0  0  0  0  0  0  0
   10.1192  -16.2860   22.9853 C   0  0  0  0  0  0  0  0  0  0  0  0
   11.5985  -16.3795   23.2874 C   0  0  2  0  0  0  0  0  0  0  0  0
   12.3184  -17.0591   22.2225 N   0  0  0  0  0  0  0  0  0  0  0  0
   11.8125  -17.0384   24.5750 C   0  0  0  0  0  0  0  0  0  0  0  0
   12.5715  -18.1857   24.6530 O   0  0  0  0  0  0  0  0  0  0  0  0
   11.2992  -16.5541   25.6246 O   0  0  0  0  0  0  0  0  0  0  0  0
  2  1  1  6
  2  7  1  0
  2  3  1  0
  3  4  1  0
  4  5  1  0
  5  9  1  0
  6  5  2  0
  7  8  2  0
  7 10  1  0
 10 11  1  0
 11 15  1  0
 12 13  1  0
 11 12  1  6
 13 17  1  0
 14 13  2  0
 15 16  2  0
 15 21  1  0
 18 19  1  0
 20 19  1  6
 20 22  1  0
 21 20  1  0
 22 23  1  0
 24 22  2  0
M  END
$$$$
