EDS.pdb
     RDKit          3D

 24 23  0  0  1  0  0  0  0  0999 V2000
   14.9188  -19.2284   19.4937 N   0  0  0  0  0  0  0  0  0  0  0  0
   16.2983  -18.8078   19.6064 C   0  0  1  0  0  0  0  0  0  0  0  0
   16.8708  -18.8307   18.1841 C   0  0  0  0  0  0  0  0  0  0  0  0
   15.8711  -18.1342   17.2583 C   0  0  0  0  0  0  0  0  0  0  0  0
   16.4053  -18.1412   15.8790 C   0  0  0  0  0  0  0  0  0  0  0  0
   16.7333  -17.0782   15.3016 O   0  0  0  0  0  0  0  0  0  0  0  0
   16.3459  -17.4022   20.0475 C   0  0  0  0  0  0  0  0  0  0  0  0
   17.4708  -16.8505   20.1710 O   0  0  0  0  0  0  0  0  0  0  0  0
   16.5477  -19.3415   15.2085 O   0  0  0  0  0  0  0  0  0  0  0  0
   15.1804  -16.6422   20.3393 N   0  0  0  0  0  0  0  0  0  0  0  0
   15.3418  -15.2985   20.8734 C   0  0  1  0  0  0  0  0  0  0  0  0
   14.4328  -14.3913   20.1012 C   0  0  0  0  0  0  0  0  0  0  0  0
   14.9282  -14.0815   18.7666 C   0  0  0  0  0  0  0  0  0  0  0  0
   16.1047  -13.8292   18.4524 O   0  0  0  0  0  0  0  0  0  0  0  0
   14.9652  -15.3128   22.3311 C   0  0  0  0  0  0  0  0  0  0  0  0
   15.5675  -14.7065   23.2338 O   0  0  0  0  0  0  0  0  0  0  0  0
   13.9905  -14.0631   17.7194 O   0  0  0  0  0  0  0  0  0  0  0  0
   11.2618  -16.9881   23.4589 O   0  0  0  0  0  0  0  0  0  0  0  0
   11.8629  -16.0215   24.2485 C   0  0  0  0  0  0  0  0  0  0  0  0
   13.3726  -16.0394   24.1556 C   0  0  2  0  0  0  0  0  0  0  0  0
   13.8215  -16.0754   22.7732 N   0  0  0  0  0  0  0  0  0  0  0  0
   13.9143  -17.1639   24.9173 C   0  0  0  0  0  0  0  0  0  0  0  0
   13.7320  -17.2340   26.2812 O   0  0  0  0  0  0  0  0  0  0  0  0
   14.5542  -18.0786   24.3228 O   0  0  0  0  0  0  0  0  0  0  0  0
  2  1  1  6
  2  7  1  0
  2  3  1  0
  3  4  1  0
  4  5  1  0
  5  9  1  0
  6  5  2  0
  7  8  2  0
  7 10  1  0
 10 11  1  0
 11 15  1  0
 12 13  1  0
 11 12  1  6
 13 17  1  0
 14 13  2  0
 15 16  2  0
 15 21  1  0
 18 19  1  0
 20 19  1  6
 20 22  1  0
 21 20  1  0
 22 23  1  0
 24 22  2  0
M  END
$$$$
