EDS.pdb
     RDKit          3D

 24 23  0  0  1  0  0  0  0  0999 V2000
   11.3176  -14.5043   16.8844 N   0  0  0  0  0  0  0  0  0  0  0  0
   11.7776  -15.8449   17.1738 C   0  0  1  0  0  0  0  0  0  0  0  0
   13.2723  -15.7252   17.4943 C   0  0  0  0  0  0  0  0  0  0  0  0
   13.4920  -14.4150   18.2537 C   0  0  0  0  0  0  0  0  0  0  0  0
   14.9223  -14.2995   18.6127 C   0  0  0  0  0  0  0  0  0  0  0  0
   15.3032  -14.3737   19.8045 O   0  0  0  0  0  0  0  0  0  0  0  0
   11.1291  -16.3285   18.4060 C   0  0  0  0  0  0  0  0  0  0  0  0
   10.6132  -15.4831   19.1833 O   0  0  0  0  0  0  0  0  0  0  0  0
   15.8621  -14.1059   17.6178 O   0  0  0  0  0  0  0  0  0  0  0  0
   11.0602  -17.7046   18.7561 N   0  0  0  0  0  0  0  0  0  0  0  0
   10.2083  -18.0976   19.8682 C   0  0  1  0  0  0  0  0  0  0  0  0
    9.8990  -19.5553   19.7094 C   0  0  0  0  0  0  0  0  0  0  0  0
    8.9772  -20.0604   20.7182 C   0  0  0  0  0  0  0  0  0  0  0  0
    9.2093  -20.1985   21.9320 O   0  0  0  0  0  0  0  0  0  0  0  0
   10.9518  -17.8491   21.1537 C   0  0  0  0  0  0  0  0  0  0  0  0
   12.1859  -17.9050   21.2911 O   0  0  0  0  0  0  0  0  0  0  0  0
    7.6918  -20.4328   20.2876 O   0  0  0  0  0  0  0  0  0  0  0  0
   10.9111  -15.6366   25.4506 O   0  0  0  0  0  0  0  0  0  0  0  0
   10.2252  -16.0459   24.3188 C   0  0  0  0  0  0  0  0  0  0  0  0
   10.9110  -17.1816   23.5922 C   0  0  2  0  0  0  0  0  0  0  0  0
   10.2237  -17.5157   22.3552 N   0  0  0  0  0  0  0  0  0  0  0  0
   11.0240  -18.3483   24.4664 C   0  0  0  0  0  0  0  0  0  0  0  0
   11.9225  -18.3518   25.5110 O   0  0  0  0  0  0  0  0  0  0  0  0
   10.2938  -19.3610   24.2644 O   0  0  0  0  0  0  0  0  0  0  0  0
  2  1  1  1
  2  7  1  0
  2  3  1  0
  3  4  1  0
  4  5  1  0
  5  9  1  0
  6  5  2  0
  7  8  2  0
  7 10  1  0
 10 11  1  0
 11 15  1  0
 12 13  1  0
 11 12  1  6
 13 17  1  0
 14 13  2  0
 15 16  2  0
 15 21  1  0
 18 19  1  0
 20 19  1  1
 20 22  1  0
 21 20  1  0
 22 23  1  0
 24 22  2  0
M  END
$$$$
