HIN.pdb
     RDKit          3D

 27 27  0  0  1  0  0  0  0  0999 V2000
   14.4402  -10.8011    2.1331 N   0  0  0  0  0  0  0  0  0  0  0  0
   14.5170  -11.6353    3.3100 C   0  0  1  0  0  0  0  0  0  0  0  0
   13.5589  -12.7880    3.1059 C   0  0  0  0  0  0  0  0  0  0  0  0
   12.2014  -12.3164    3.4852 C   0  0  0  0  0  0  0  0  0  0  0  0
   11.8641  -11.0560    3.9870 C   0  0  0  0  0  0  0  0  0  0  0  0
   10.5499  -10.9918    4.2144 N   0  0  0  0  0  0  0  0  0  0  0  0
   10.0326  -12.1868    3.8689 C   0  0  0  0  0  0  0  0  0  0  0  0
   11.0273  -12.9776    3.4322 N   0  0  0  0  0  0  0  0  0  0  0  0
   15.9054  -12.1193    3.5468 C   0  0  0  0  0  0  0  0  0  0  0  0
   16.5952  -12.4260    2.5419 O   0  0  0  0  0  0  0  0  0  0  0  0
   20.6450  -11.2561    7.3371 C   0  0  0  0  0  0  0  0  0  0  0  0
   19.9560  -12.0675    6.3203 C   0  0  0  0  0  0  0  0  0  0  0  0
   18.5119  -11.7820    6.0491 C   0  0  2  0  0  0  0  0  0  0  0  0
   17.7943  -12.0663    7.3525 C   0  0  0  0  0  0  0  0  0  0  0  0
   17.8756  -12.5960    4.9576 C   0  0  2  0  0  0  0  0  0  0  0  0
   16.4575  -12.2421    4.8244 N   0  0  0  0  0  0  0  0  0  0  0  0
   17.8479  -14.0147    5.4195 C   0  0  0  0  0  0  0  0  0  0  0  0
   18.9559  -14.5976    5.7164 O   0  0  0  0  0  0  0  0  0  0  0  0
   14.6937  -15.9228    4.4381 N   0  0  0  0  0  0  0  0  0  0  0  0
   15.5266  -17.0741    4.4121 C   0  0  0  0  0  0  0  0  0  0  0  0
   15.2754  -17.9598    3.5704 O   0  0  0  0  0  0  0  0  0  0  0  0
   16.6690  -17.2551    5.3397 C   0  0  0  0  0  0  0  0  0  0  0  0
   16.7649  -16.0856    6.2920 C   0  0  2  0  0  0  0  0  0  0  0  0
   16.7021  -14.8159    5.5778 N   0  0  0  0  0  0  0  0  0  0  0  0
   18.0676  -16.2363    7.0090 C   0  0  0  0  0  0  0  0  0  0  0  0
   18.9644  -15.3977    6.7450 O   0  0  0  0  0  0  0  0  0  0  0  0
   18.3416  -17.2235    7.9280 O   0  0  0  0  0  0  0  0  0  0  0  0
  2  1  1  6
  3  2  1  0
  4  3  1  0
  5  4  2  0
  6  7  1  0
  6  5  1  0
  7  8  2  0
  8  4  1  0
  9 16  1  0
  9  2  1  0
 10  9  2  0
 11 12  1  0
 13 15  1  0
 13 12  1  0
 13 14  1  1
 15 16  1  1
 17 18  2  0
 17 15  1  0
 20 19  1  0
 20 21  2  0
 23 22  1  6
 22 20  1  0
 23 24  1  0
 24 17  1  0
 25 23  1  0
 26 25  2  0
 27 25  1  0
M  END
$$$$
