HIN.pdb
     RDKit          3D

 27 27  0  0  1  0  0  0  0  0999 V2000
   23.1371  -19.9388  -15.2422 N   0  0  0  0  0  0  0  0  0  0  0  0
   22.3199  -19.7360  -14.0683 C   0  0  1  0  0  0  0  0  0  0  0  0
   20.8777  -19.9104  -14.4904 C   0  0  0  0  0  0  0  0  0  0  0  0
   20.5065  -18.7335  -15.3186 C   0  0  0  0  0  0  0  0  0  0  0  0
   20.1372  -17.4676  -14.8545 C   0  0  0  0  0  0  0  0  0  0  0  0
   19.8729  -16.6622  -15.8862 N   0  0  0  0  0  0  0  0  0  0  0  0
   20.0645  -17.3843  -17.0074 C   0  0  0  0  0  0  0  0  0  0  0  0
   20.4445  -18.6257  -16.6614 N   0  0  0  0  0  0  0  0  0  0  0  0
   22.6845  -20.6832  -12.9785 C   0  0  0  0  0  0  0  0  0  0  0  0
   22.9931  -21.8570  -13.3054 O   0  0  0  0  0  0  0  0  0  0  0  0
   25.6346  -20.6961   -7.6252 C   0  0  0  0  0  0  0  0  0  0  0  0
   24.6912  -21.3427   -8.5519 C   0  0  0  0  0  0  0  0  0  0  0  0
   24.1073  -20.5167   -9.6552 C   0  0  2  0  0  0  0  0  0  0  0  0
   23.2662  -19.4622   -8.9658 C   0  0  0  0  0  0  0  0  0  0  0  0
   23.2469  -21.2542  -10.6425 C   0  0  2  0  0  0  0  0  0  0  0  0
   22.6952  -20.3187  -11.6298 N   0  0  0  0  0  0  0  0  0  0  0  0
   22.0458  -21.7454   -9.9057 C   0  0  0  0  0  0  0  0  0  0  0  0
   21.0555  -20.9453   -9.7198 O   0  0  0  0  0  0  0  0  0  0  0  0
   18.3235  -24.4792   -7.5617 N   0  0  0  0  0  0  0  0  0  0  0  0
   19.2013  -23.6522   -6.8097 C   0  0  0  0  0  0  0  0  0  0  0  0
   18.9096  -23.4185   -5.6195 O   0  0  0  0  0  0  0  0  0  0  0  0
   20.4356  -23.0658   -7.3848 C   0  0  0  0  0  0  0  0  0  0  0  0
   20.5763  -23.4553   -8.8381 C   0  0  2  0  0  0  0  0  0  0  0  0
   21.8655  -23.0362   -9.3752 N   0  0  0  0  0  0  0  0  0  0  0  0
   19.4498  -22.7893   -9.5602 C   0  0  0  0  0  0  0  0  0  0  0  0
   19.5766  -21.5649   -9.8095 O   0  0  0  0  0  0  0  0  0  0  0  0
   18.2980  -23.4257   -9.9634 O   0  0  0  0  0  0  0  0  0  0  0  0
  2  1  1  6
  3  2  1  0
  4  3  1  0
  5  4  2  0
  6  7  1  0
  6  5  1  0
  7  8  2  0
  8  4  1  0
  9 16  1  0
  9  2  1  0
 10  9  2  0
 11 12  1  0
 13 15  1  0
 13 12  1  0
 13 14  1  1
 15 16  1  6
 17 18  2  0
 17 15  1  0
 20 19  1  0
 20 21  2  0
 23 22  1  1
 22 20  1  0
 23 24  1  0
 24 17  1  0
 25 23  1  0
 26 25  2  0
 27 25  1  0
M  END
$$$$
