HIN.pdb
     RDKit          3D

 27 27  0  0  1  0  0  0  0  0999 V2000
   28.7622  -24.0735  -16.6617 N   0  0  0  0  0  0  0  0  0  0  0  0
   27.3215  -24.0020  -16.5819 C   0  0  1  0  0  0  0  0  0  0  0  0
   26.8340  -25.3391  -16.0693 C   0  0  0  0  0  0  0  0  0  0  0  0
   26.9707  -26.3215  -17.1761 C   0  0  0  0  0  0  0  0  0  0  0  0
   27.3873  -26.0552  -18.4837 C   0  0  0  0  0  0  0  0  0  0  0  0
   27.3883  -27.1815  -19.2010 N   0  0  0  0  0  0  0  0  0  0  0  0
   26.9802  -28.1697  -18.3811 C   0  0  0  0  0  0  0  0  0  0  0  0
   26.7311  -27.6486  -17.1680 N   0  0  0  0  0  0  0  0  0  0  0  0
   26.8780  -22.8879  -15.6986 C   0  0  0  0  0  0  0  0  0  0  0  0
   26.7867  -23.1215  -14.4670 O   0  0  0  0  0  0  0  0  0  0  0  0
   28.2242  -17.6484  -16.6806 C   0  0  0  0  0  0  0  0  0  0  0  0
   27.8752  -18.8889  -15.9690 C   0  0  0  0  0  0  0  0  0  0  0  0
   26.4255  -19.2158  -15.7895 C   0  0  2  0  0  0  0  0  0  0  0  0
   25.8946  -18.1730  -14.8275 C   0  0  0  0  0  0  0  0  0  0  0  0
   26.1238  -20.5815  -15.2395 C   0  0  2  0  0  0  0  0  0  0  0  0
   26.5656  -21.6152  -16.1831 N   0  0  0  0  0  0  0  0  0  0  0  0
   24.6394  -20.7323  -15.2135 C   0  0  0  0  0  0  0  0  0  0  0  0
   23.9761  -20.5814  -16.3056 O   0  0  0  0  0  0  0  0  0  0  0  0
   19.6300  -22.8106  -13.7269 N   0  0  0  0  0  0  0  0  0  0  0  0
   20.3205  -21.7685  -13.0509 C   0  0  0  0  0  0  0  0  0  0  0  0
   19.6438  -20.8580  -12.5320 O   0  0  0  0  0  0  0  0  0  0  0  0
   21.7987  -21.7278  -12.9433 C   0  0  0  0  0  0  0  0  0  0  0  0
   22.3995  -21.0945  -14.1768 C   0  0  2  0  0  0  0  0  0  0  0  0
   23.8538  -21.0376  -14.0868 N   0  0  0  0  0  0  0  0  0  0  0  0
   21.8118  -19.7234  -14.2710 C   0  0  0  0  0  0  0  0  0  0  0  0
   20.9289  -19.5401  -15.1453 O   0  0  0  0  0  0  0  0  0  0  0  0
   22.1731  -18.6640  -13.4703 O   0  0  0  0  0  0  0  0  0  0  0  0
  2  1  1  1
  3  2  1  0
  4  3  1  0
  5  4  2  0
  6  7  1  0
  6  5  1  0
  7  8  2  0
  8  4  1  0
  9 16  1  0
  9  2  1  0
 10  9  2  0
 11 12  1  0
 13 15  1  0
 13 12  1  0
 13 14  1  1
 15 16  1  6
 17 18  2  0
 17 15  1  0
 20 19  1  0
 20 21  2  0
 23 22  1  1
 22 20  1  0
 23 24  1  0
 24 17  1  0
 25 23  1  0
 26 25  2  0
 27 25  1  0
M  END
$$$$
