HIN.pdb
     RDKit          3D

 27 27  0  0  1  0  0  0  0  0999 V2000
   27.0762  -18.7669  -16.3696 N   0  0  0  0  0  0  0  0  0  0  0  0
   26.1635  -18.4597  -15.2928 C   0  0  1  0  0  0  0  0  0  0  0  0
   25.1024  -17.5386  -15.8534 C   0  0  0  0  0  0  0  0  0  0  0  0
   25.7405  -16.2207  -16.1081 C   0  0  0  0  0  0  0  0  0  0  0  0
   26.3127  -15.3711  -15.1567 C   0  0  0  0  0  0  0  0  0  0  0  0
   26.7886  -14.2743  -15.7515 N   0  0  0  0  0  0  0  0  0  0  0  0
   26.5344  -14.4000  -17.0686 C   0  0  0  0  0  0  0  0  0  0  0  0
   25.9057  -15.5690  -17.2770 N   0  0  0  0  0  0  0  0  0  0  0  0
   25.5612  -19.6946  -14.7182 C   0  0  0  0  0  0  0  0  0  0  0  0
   25.3398  -20.6535  -15.5000 O   0  0  0  0  0  0  0  0  0  0  0  0
   24.8605  -20.6237   -9.0278 C   0  0  0  0  0  0  0  0  0  0  0  0
   24.8250  -20.2811  -10.4590 C   0  0  0  0  0  0  0  0  0  0  0  0
   25.2600  -21.3203  -11.4447 C   0  0  2  0  0  0  0  0  0  0  0  0
   26.7742  -21.2836  -11.4255 C   0  0  0  0  0  0  0  0  0  0  0  0
   24.7879  -21.1230  -12.8578 C   0  0  2  0  0  0  0  0  0  0  0  0
   25.2396  -19.8217  -13.3645 N   0  0  0  0  0  0  0  0  0  0  0  0
   23.3018  -20.9939  -12.8162 C   0  0  0  0  0  0  0  0  0  0  0  0
   22.6008  -21.9759  -12.3692 O   0  0  0  0  0  0  0  0  0  0  0  0
   18.3572  -19.6627  -12.6609 N   0  0  0  0  0  0  0  0  0  0  0  0
   19.1121  -18.4606  -12.7317 C   0  0  0  0  0  0  0  0  0  0  0  0
   18.5088  -17.3801  -12.5744 O   0  0  0  0  0  0  0  0  0  0  0  0
   20.5732  -18.4481  -12.9830 C   0  0  0  0  0  0  0  0  0  0  0  0
   21.0988  -19.8596  -13.1053 C   0  0  2  0  0  0  0  0  0  0  0  0
   22.5522  -19.8741  -13.2217 N   0  0  0  0  0  0  0  0  0  0  0  0
   20.4553  -20.4411  -14.3226 C   0  0  0  0  0  0  0  0  0  0  0  0
   21.0419  -20.2619  -15.4187 O   0  0  0  0  0  0  0  0  0  0  0  0
   19.2763  -21.1510  -14.3171 O   0  0  0  0  0  0  0  0  0  0  0  0
  2  1  1  6
  3  2  1  0
  4  3  1  0
  5  4  2  0
  6  7  1  0
  6  5  1  0
  7  8  2  0
  8  4  1  0
  9 16  1  0
  9  2  1  0
 10  9  2  0
 11 12  1  0
 13 15  1  0
 13 12  1  0
 13 14  1  6
 15 16  1  1
 17 18  2  0
 17 15  1  0
 20 19  1  0
 20 21  2  0
 23 22  1  6
 22 20  1  0
 23 24  1  0
 24 17  1  0
 25 23  1  0
 26 25  2  0
 27 25  1  0
M  END
$$$$
