HIN.pdb
     RDKit          3D

 27 27  0  0  1  0  0  0  0  0999 V2000
   21.5581  -14.5390  -17.5233 N   0  0  0  0  0  0  0  0  0  0  0  0
   21.6400  -13.1674  -17.9694 C   0  0  1  0  0  0  0  0  0  0  0  0
   20.2481  -12.7483  -18.3882 C   0  0  0  0  0  0  0  0  0  0  0  0
   19.8908  -13.5268  -19.6027 C   0  0  0  0  0  0  0  0  0  0  0  0
   18.9833  -14.5874  -19.6790 C   0  0  0  0  0  0  0  0  0  0  0  0
   18.9183  -15.0436  -20.9322 N   0  0  0  0  0  0  0  0  0  0  0  0
   19.7667  -14.2976  -21.6663 C   0  0  0  0  0  0  0  0  0  0  0  0
   20.3473  -13.3894  -20.8641 N   0  0  0  0  0  0  0  0  0  0  0  0
   22.1768  -12.2772  -16.9029 C   0  0  0  0  0  0  0  0  0  0  0  0
   21.7379  -12.4356  -15.7359 O   0  0  0  0  0  0  0  0  0  0  0  0
   27.3278  -11.7208  -15.9428 C   0  0  0  0  0  0  0  0  0  0  0  0
   25.8589  -11.7165  -15.8467 C   0  0  0  0  0  0  0  0  0  0  0  0
   25.1403  -10.4235  -16.0756 C   0  0  2  0  0  0  0  0  0  0  0  0
   25.6230   -9.4960  -14.9795 C   0  0  0  0  0  0  0  0  0  0  0  0
   23.6396  -10.4895  -16.0291 C   0  0  2  0  0  0  0  0  0  0  0  0
   23.1340  -11.2901  -17.1506 N   0  0  0  0  0  0  0  0  0  0  0  0
   23.1253   -9.1170  -16.3095 C   0  0  0  0  0  0  0  0  0  0  0  0
   23.0872   -8.6996  -17.5260 O   0  0  0  0  0  0  0  0  0  0  0  0
   20.2779   -5.2343  -17.9509 N   0  0  0  0  0  0  0  0  0  0  0  0
   20.1134   -5.7446  -16.6347 C   0  0  0  0  0  0  0  0  0  0  0  0
   19.4828   -5.0505  -15.8120 O   0  0  0  0  0  0  0  0  0  0  0  0
   20.6591   -7.0569  -16.2123 C   0  0  0  0  0  0  0  0  0  0  0  0
   22.0953   -6.9111  -15.7654 C   0  0  2  0  0  0  0  0  0  0  0  0
   22.6546   -8.1942  -15.3571 N   0  0  0  0  0  0  0  0  0  0  0  0
   22.0824   -5.9425  -14.6272 C   0  0  0  0  0  0  0  0  0  0  0  0
   21.9692   -6.4217  -13.4717 O   0  0  0  0  0  0  0  0  0  0  0  0
   22.1856   -4.5770  -14.7647 O   0  0  0  0  0  0  0  0  0  0  0  0
  2  1  1  1
  3  2  1  0
  4  3  1  0
  5  4  2  0
  6  7  1  0
  6  5  1  0
  7  8  2  0
  8  4  1  0
  9 16  1  0
  9  2  1  0
 10  9  2  0
 11 12  1  0
 13 15  1  0
 13 12  1  0
 13 14  1  1
 15 16  1  6
 17 18  2  0
 17 15  1  0
 20 19  1  0
 20 21  2  0
 23 22  1  1
 22 20  1  0
 23 24  1  0
 24 17  1  0
 25 23  1  0
 26 25  2  0
 27 25  1  0
M  END
$$$$
