HIN.pdb
     RDKit          3D

 27 27  0  0  1  0  0  0  0  0999 V2000
   23.4312  -19.8982  -15.6839 N   0  0  0  0  0  0  0  0  0  0  0  0
   22.6448  -19.4354  -14.5639 C   0  0  1  0  0  0  0  0  0  0  0  0
   21.2621  -19.1164  -15.0882 C   0  0  0  0  0  0  0  0  0  0  0  0
   21.3457  -17.8251  -15.8192 C   0  0  0  0  0  0  0  0  0  0  0  0
   20.9859  -16.5646  -15.3334 C   0  0  0  0  0  0  0  0  0  0  0  0
   21.1974  -15.6368  -16.2701 N   0  0  0  0  0  0  0  0  0  0  0  0
   21.6867  -16.2746  -17.3513 C   0  0  0  0  0  0  0  0  0  0  0  0
   21.7737  -17.5867  -17.0755 N   0  0  0  0  0  0  0  0  0  0  0  0
   22.5916  -20.4519  -13.4767 C   0  0  0  0  0  0  0  0  0  0  0  0
   22.5676  -21.6630  -13.8117 O   0  0  0  0  0  0  0  0  0  0  0  0
   25.5430  -19.4640   -9.1922 C   0  0  0  0  0  0  0  0  0  0  0  0
   24.8829  -20.4268  -10.0890 C   0  0  0  0  0  0  0  0  0  0  0  0
   23.4169  -20.6694   -9.9082 C   0  0  2  0  0  0  0  0  0  0  0  0
   23.3135  -21.7023   -8.8051 C   0  0  0  0  0  0  0  0  0  0  0  0
   22.6814  -21.1756  -11.1172 C   0  0  2  0  0  0  0  0  0  0  0  0
   22.5678  -20.1116  -12.1218 N   0  0  0  0  0  0  0  0  0  0  0  0
   21.2700  -21.4298  -10.7048 C   0  0  0  0  0  0  0  0  0  0  0  0
   20.6161  -20.4981  -10.1049 O   0  0  0  0  0  0  0  0  0  0  0  0
   19.1951  -23.8334   -6.3418 N   0  0  0  0  0  0  0  0  0  0  0  0
   19.1363  -24.0588   -7.7438 C   0  0  0  0  0  0  0  0  0  0  0  0
   18.1682  -24.7047   -8.1930 O   0  0  0  0  0  0  0  0  0  0  0  0
   20.1732  -23.5585   -8.6779 C   0  0  0  0  0  0  0  0  0  0  0  0
   19.5360  -23.0583   -9.9536 C   0  0  2  0  0  0  0  0  0  0  0  0
   20.5442  -22.6176  -10.9104 N   0  0  0  0  0  0  0  0  0  0  0  0
   18.6392  -21.9299   -9.5581 C   0  0  0  0  0  0  0  0  0  0  0  0
   19.1729  -20.9551   -8.9731 O   0  0  0  0  0  0  0  0  0  0  0  0
   17.2834  -21.8933   -9.7921 O   0  0  0  0  0  0  0  0  0  0  0  0
  2  1  1  6
  3  2  1  0
  4  3  1  0
  5  4  2  0
  6  7  1  0
  6  5  1  0
  7  8  2  0
  8  4  1  0
  9 16  1  0
  9  2  1  0
 10  9  2  0
 11 12  1  0
 13 15  1  0
 13 12  1  0
 13 14  1  1
 15 16  1  6
 17 18  2  0
 17 15  1  0
 20 19  1  0
 20 21  2  0
 23 22  1  1
 22 20  1  0
 23 24  1  0
 24 17  1  0
 25 23  1  0
 26 25  2  0
 27 25  1  0
M  END
$$$$
