HIN.pdb
     RDKit          3D

 27 27  0  0  1  0  0  0  0  0999 V2000
   19.8803  -13.0887  -17.1326 N   0  0  0  0  0  0  0  0  0  0  0  0
   20.0971  -11.7048  -17.4855 C   0  0  1  0  0  0  0  0  0  0  0  0
   18.7361  -11.0588  -17.6236 C   0  0  0  0  0  0  0  0  0  0  0  0
   18.1023  -11.6048  -18.8521 C   0  0  0  0  0  0  0  0  0  0  0  0
   17.0011  -12.4638  -18.9137 C   0  0  0  0  0  0  0  0  0  0  0  0
   16.7114  -12.7441  -20.1867 N   0  0  0  0  0  0  0  0  0  0  0  0
   17.6046  -12.0824  -20.9479 C   0  0  0  0  0  0  0  0  0  0  0  0
   18.4365  -11.4006  -20.1425 N   0  0  0  0  0  0  0  0  0  0  0  0
   20.9287  -11.0051  -16.4674 C   0  0  0  0  0  0  0  0  0  0  0  0
   20.6622  -11.2099  -15.2563 O   0  0  0  0  0  0  0  0  0  0  0  0
   26.5368   -9.9453  -14.8158 C   0  0  0  0  0  0  0  0  0  0  0  0
   25.1520   -9.4461  -14.8281 C   0  0  0  0  0  0  0  0  0  0  0  0
   24.1800  -10.0840  -15.7709 C   0  0  2  0  0  0  0  0  0  0  0  0
   24.7555   -9.8597  -17.1540 C   0  0  0  0  0  0  0  0  0  0  0  0
   22.7787   -9.5420  -15.7349 C   0  0  2  0  0  0  0  0  0  0  0  0
   21.9761  -10.1446  -16.8059 N   0  0  0  0  0  0  0  0  0  0  0  0
   22.8501   -8.0995  -16.1104 C   0  0  0  0  0  0  0  0  0  0  0  0
   23.0675   -7.7828  -17.3383 O   0  0  0  0  0  0  0  0  0  0  0  0
   20.0657   -5.6611  -16.5374 N   0  0  0  0  0  0  0  0  0  0  0  0
   20.4218   -4.8746  -15.4084 C   0  0  0  0  0  0  0  0  0  0  0  0
   19.5101   -4.2844  -14.7947 O   0  0  0  0  0  0  0  0  0  0  0  0
   21.8220   -4.7342  -14.9418 C   0  0  0  0  0  0  0  0  0  0  0  0
   22.7361   -5.6353  -15.7395 C   0  0  2  0  0  0  0  0  0  0  0  0
   22.6957   -7.0046  -15.2401 N   0  0  0  0  0  0  0  0  0  0  0  0
   24.1081   -5.0562  -15.6130 C   0  0  0  0  0  0  0  0  0  0  0  0
   24.8251   -5.4873  -14.6762 O   0  0  0  0  0  0  0  0  0  0  0  0
   24.6275   -4.0932  -16.4479 O   0  0  0  0  0  0  0  0  0  0  0  0
  2  1  1  1
  3  2  1  0
  4  3  1  0
  5  4  2  0
  6  7  1  0
  6  5  1  0
  7  8  2  0
  8  4  1  0
  9 16  1  0
  9  2  1  0
 10  9  2  0
 11 12  1  0
 13 15  1  0
 13 12  1  0
 13 14  1  6
 15 16  1  6
 17 18  2  0
 17 15  1  0
 20 19  1  0
 20 21  2  0
 23 22  1  1
 22 20  1  0
 23 24  1  0
 24 17  1  0
 25 23  1  0
 26 25  2  0
 27 25  1  0
M  END
$$$$
