AKN.pdb
     RDKit          3D

 23 22  0  0  1  0  0  0  0  0999 V2000
   23.5754  -17.6849  -16.8771 C   0  0  0  0  0  0  0  0  0  0  0  0
   23.6318  -18.7776  -15.8315 C   0  0  2  0  0  0  0  0  0  0  0  0
   24.8056  -19.5979  -16.0252 N   0  0  0  0  0  0  0  0  0  0  0  0
   22.4216  -19.6312  -15.8946 C   0  0  0  0  0  0  0  0  0  0  0  0
   22.1294  -20.3271  -16.8953 O   0  0  0  0  0  0  0  0  0  0  0  0
   21.5114  -19.6944  -14.7773 N   0  0  0  0  0  0  0  0  0  0  0  0
   20.3639  -20.5761  -14.7707 C   0  0  1  0  0  0  0  0  0  0  0  0
   20.3640  -21.3716  -13.4710 C   0  0  0  0  0  0  0  0  0  0  0  0
   19.2868  -22.3929  -13.5064 C   0  0  0  0  0  0  0  0  0  0  0  0
   19.1086  -23.1482  -12.2212 C   0  0  0  0  0  0  0  0  0  0  0  0
   17.9553  -24.1052  -12.2424 C   0  0  0  0  0  0  0  0  0  0  0  0
   17.8243  -24.6787  -10.9160 N   0  0  0  0  0  0  0  0  0  0  0  0
   19.1212  -19.8006  -14.9361 C   0  0  0  0  0  0  0  0  0  0  0  0
   18.9466  -18.7764  -14.2411 O   0  0  0  0  0  0  0  0  0  0  0  0
   17.1006  -19.5652  -19.7293 N   0  0  0  0  0  0  0  0  0  0  0  0
   17.1031  -18.8686  -18.4691 C   0  0  0  0  0  0  0  0  0  0  0  0
   17.7495  -17.8257  -18.3072 O   0  0  0  0  0  0  0  0  0  0  0  0
   16.2901  -19.4712  -17.3825 C   0  0  0  0  0  0  0  0  0  0  0  0
   16.9149  -19.3525  -16.0246 C   0  0  2  0  0  0  0  0  0  0  0  0
   18.1017  -20.1641  -15.8563 N   0  0  0  0  0  0  0  0  0  0  0  0
   15.9194  -19.6235  -14.9500 C   0  0  0  0  0  0  0  0  0  0  0  0
   14.9619  -18.7158  -14.5829 O   0  0  0  0  0  0  0  0  0  0  0  0
   15.9658  -20.7323  -14.3604 O   0  0  0  0  0  0  0  0  0  0  0  0
  2  1  1  6
  2  4  1  0
  3  2  1  0
  4  5  2  0
  4  6  1  0
  6  7  1  0
  7  8  1  1
  7 13  1  0
  8  9  1  0
  9 10  1  0
 10 11  1  0
 11 12  1  0
 13 14  2  0
 16 15  1  0
 16 18  1  0
 17 16  2  0
 19 18  1  6
 20 13  1  0
 20 19  1  0
 21 19  1  0
 21 22  1  0
 23 21  2  0
M  END
$$$$
