AKN.pdb
     RDKit          3D

 23 22  0  0  1  0  0  0  0  0999 V2000
   18.2134  -32.3924   -2.8472 C   0  0  0  0  0  0  0  0  0  0  0  0
   19.3812  -31.4723   -3.1305 C   0  0  2  0  0  0  0  0  0  0  0  0
   19.0436  -30.1108   -2.7830 N   0  0  0  0  0  0  0  0  0  0  0  0
   19.7650  -31.5320   -4.5610 C   0  0  0  0  0  0  0  0  0  0  0  0
   19.2221  -30.8257   -5.4428 O   0  0  0  0  0  0  0  0  0  0  0  0
   20.8048  -32.4287   -5.0030 N   0  0  0  0  0  0  0  0  0  0  0  0
   21.3356  -32.3851   -6.3487 C   0  0  1  0  0  0  0  0  0  0  0  0
   22.8087  -32.7725   -6.3077 C   0  0  0  0  0  0  0  0  0  0  0  0
   23.4213  -32.5627   -7.6439 C   0  0  0  0  0  0  0  0  0  0  0  0
   24.8873  -32.8793   -7.7085 C   0  0  0  0  0  0  0  0  0  0  0  0
   25.5134  -32.5564   -9.0315 C   0  0  0  0  0  0  0  0  0  0  0  0
   26.8734  -33.0622   -9.0192 N   0  0  0  0  0  0  0  0  0  0  0  0
   20.5615  -33.2742   -7.2336 C   0  0  0  0  0  0  0  0  0  0  0  0
   20.3443  -34.4515   -6.8736 O   0  0  0  0  0  0  0  0  0  0  0  0
   20.1134  -31.6541  -10.8642 N   0  0  0  0  0  0  0  0  0  0  0  0
   18.7106  -31.9611  -10.9702 C   0  0  0  0  0  0  0  0  0  0  0  0
   17.9629  -31.3215  -11.7209 O   0  0  0  0  0  0  0  0  0  0  0  0
   18.2173  -33.0827  -10.1316 C   0  0  0  0  0  0  0  0  0  0  0  0
   19.2923  -33.7576   -9.3334 C   0  0  2  0  0  0  0  0  0  0  0  0
   20.0448  -32.8544   -8.4886 N   0  0  0  0  0  0  0  0  0  0  0  0
   20.1953  -34.5519  -10.2126 C   0  0  0  0  0  0  0  0  0  0  0  0
   21.5575  -34.4121  -10.1930 O   0  0  0  0  0  0  0  0  0  0  0  0
   19.6794  -35.3824  -11.0021 O   0  0  0  0  0  0  0  0  0  0  0  0
  2  1  1  6
  2  4  1  0
  3  2  1  0
  4  5  2  0
  4  6  1  0
  6  7  1  0
  7  8  1  1
  7 13  1  0
  8  9  1  0
  9 10  1  0
 10 11  1  0
 11 12  1  0
 13 14  2  0
 16 15  1  0
 16 18  1  0
 17 16  2  0
 19 18  1  6
 20 13  1  0
 20 19  1  0
 21 19  1  0
 21 22  1  0
 23 21  2  0
M  END
$$$$
