AKN.pdb
     RDKit          3D

 23 22  0  0  1  0  0  0  0  0999 V2000
   17.2895  -13.0962  -11.7005 C   0  0  0  0  0  0  0  0  0  0  0  0
   16.0316  -12.4914  -11.1152 C   0  0  2  0  0  0  0  0  0  0  0  0
   14.8607  -13.0996  -11.7047 N   0  0  0  0  0  0  0  0  0  0  0  0
   15.9927  -11.0278  -11.3467 C   0  0  0  0  0  0  0  0  0  0  0  0
   15.7997  -10.5211  -12.4768 O   0  0  0  0  0  0  0  0  0  0  0  0
   16.1805  -10.1083  -10.2513 N   0  0  0  0  0  0  0  0  0  0  0  0
   16.1269   -8.6739  -10.4352 C   0  0  1  0  0  0  0  0  0  0  0  0
   15.5017   -8.0436   -9.1966 C   0  0  0  0  0  0  0  0  0  0  0  0
   14.0265   -7.9822   -9.3537 C   0  0  0  0  0  0  0  0  0  0  0  0
   13.2984   -9.1860   -8.8297 C   0  0  0  0  0  0  0  0  0  0  0  0
   11.8115   -9.1106   -9.0028 C   0  0  0  0  0  0  0  0  0  0  0  0
   11.2371  -10.3382   -8.4848 N   0  0  0  0  0  0  0  0  0  0  0  0
   17.4758   -8.1404  -10.6976 C   0  0  0  0  0  0  0  0  0  0  0  0
   18.4328   -8.5358   -9.9974 O   0  0  0  0  0  0  0  0  0  0  0  0
   21.6280   -6.1120  -12.8015 N   0  0  0  0  0  0  0  0  0  0  0  0
   21.3749   -7.5288  -12.7594 C   0  0  0  0  0  0  0  0  0  0  0  0
   22.2569   -8.3524  -13.0342 O   0  0  0  0  0  0  0  0  0  0  0  0
   20.0027   -7.9409  -12.3696 C   0  0  0  0  0  0  0  0  0  0  0  0
   19.0984   -6.7913  -12.0395 C   0  0  2  0  0  0  0  0  0  0  0  0
   17.7441   -7.1890  -11.7179 N   0  0  0  0  0  0  0  0  0  0  0  0
   19.1171   -5.7659  -13.1200 C   0  0  0  0  0  0  0  0  0  0  0  0
   18.1289   -5.6671  -14.0630 O   0  0  0  0  0  0  0  0  0  0  0  0
   20.0821   -4.9619  -13.1620 O   0  0  0  0  0  0  0  0  0  0  0  0
  2  1  1  6
  2  4  1  0
  3  2  1  0
  4  5  2  0
  4  6  1  0
  6  7  1  0
  7  8  1  1
  7 13  1  0
  8  9  1  0
  9 10  1  0
 10 11  1  0
 11 12  1  0
 13 14  2  0
 16 15  1  0
 16 18  1  0
 17 16  2  0
 19 18  1  6
 20 13  1  0
 20 19  1  0
 21 19  1  0
 21 22  1  0
 23 21  2  0
M  END
$$$$
