AKN.pdb
     RDKit          3D

 23 22  0  0  1  0  0  0  0  0999 V2000
   22.1063  -12.3158  -18.8833 C   0  0  0  0  0  0  0  0  0  0  0  0
   22.2447  -11.7511  -17.4859 C   0  0  2  0  0  0  0  0  0  0  0  0
   22.0657  -12.7948  -16.5026 N   0  0  0  0  0  0  0  0  0  0  0  0
   21.2492  -10.6788  -17.2491 C   0  0  0  0  0  0  0  0  0  0  0  0
   21.2215   -9.6155  -17.9123 O   0  0  0  0  0  0  0  0  0  0  0  0
   20.2491  -10.8229  -16.2197 N   0  0  0  0  0  0  0  0  0  0  0  0
   19.2829   -9.7832  -15.9369 C   0  0  1  0  0  0  0  0  0  0  0  0
   18.0763  -10.4091  -15.2482 C   0  0  0  0  0  0  0  0  0  0  0  0
   16.8410  -10.0861  -16.0061 C   0  0  0  0  0  0  0  0  0  0  0  0
   16.0724  -11.2869  -16.4763 C   0  0  0  0  0  0  0  0  0  0  0  0
   14.8141  -10.9429  -17.2144 C   0  0  0  0  0  0  0  0  0  0  0  0
   14.2474  -12.1741  -17.7324 N   0  0  0  0  0  0  0  0  0  0  0  0
   19.8949   -8.7259  -15.1120 C   0  0  0  0  0  0  0  0  0  0  0  0
   20.8071   -9.0295  -14.3130 O   0  0  0  0  0  0  0  0  0  0  0  0
   23.1784   -4.3439  -14.7969 N   0  0  0  0  0  0  0  0  0  0  0  0
   22.3991   -5.2402  -13.9829 C   0  0  0  0  0  0  0  0  0  0  0  0
   22.3366   -5.1094  -12.7538 O   0  0  0  0  0  0  0  0  0  0  0  0
   21.6800   -6.3234  -14.7000 C   0  0  0  0  0  0  0  0  0  0  0  0
   20.2014   -6.3337  -14.4509 C   0  0  2  0  0  0  0  0  0  0  0  0
   19.4946   -7.3646  -15.1812 N   0  0  0  0  0  0  0  0  0  0  0  0
   19.6056   -4.9913  -14.7001 C   0  0  0  0  0  0  0  0  0  0  0  0
   19.4599   -4.0522  -13.7139 O   0  0  0  0  0  0  0  0  0  0  0  0
   19.2231   -4.7159  -15.8650 O   0  0  0  0  0  0  0  0  0  0  0  0
  2  1  1  6
  2  4  1  0
  3  2  1  0
  4  5  2  0
  4  6  1  0
  6  7  1  0
  7  8  1  1
  7 13  1  0
  8  9  1  0
  9 10  1  0
 10 11  1  0
 11 12  1  0
 13 14  2  0
 16 15  1  0
 16 18  1  0
 17 16  2  0
 19 18  1  6
 20 13  1  0
 20 19  1  0
 21 19  1  0
 21 22  1  0
 23 21  2  0
M  END
$$$$
