AKN.pdb
     RDKit          3D

 23 22  0  0  1  0  0  0  0  0999 V2000
   23.0923  -17.9486  -16.0464 C   0  0  0  0  0  0  0  0  0  0  0  0
   23.5984  -19.1142  -15.2244 C   0  0  2  0  0  0  0  0  0  0  0  0
   24.6493  -19.8091  -15.9323 N   0  0  0  0  0  0  0  0  0  0  0  0
   22.5005  -20.0632  -14.9225 C   0  0  0  0  0  0  0  0  0  0  0  0
   22.1524  -20.9755  -15.7083 O   0  0  0  0  0  0  0  0  0  0  0  0
   21.7729  -19.9695  -13.6805 N   0  0  0  0  0  0  0  0  0  0  0  0
   20.7028  -20.8847  -13.3466 C   0  0  1  0  0  0  0  0  0  0  0  0
   20.8153  -21.2541  -11.8725 C   0  0  0  0  0  0  0  0  0  0  0  0
   19.8307  -22.3157  -11.5435 C   0  0  0  0  0  0  0  0  0  0  0  0
   19.9135  -22.8195  -10.1318 C   0  0  0  0  0  0  0  0  0  0  0  0
   18.8716  -23.8440   -9.7980 C   0  0  0  0  0  0  0  0  0  0  0  0
   19.0699  -24.2526   -8.4199 N   0  0  0  0  0  0  0  0  0  0  0  0
   19.3954  -20.2802  -13.6599 C   0  0  0  0  0  0  0  0  0  0  0  0
   19.1163  -19.1567  -13.1882 O   0  0  0  0  0  0  0  0  0  0  0  0
   17.1179  -18.8746  -18.3360 N   0  0  0  0  0  0  0  0  0  0  0  0
   17.1245  -18.9119  -16.8966 C   0  0  0  0  0  0  0  0  0  0  0  0
   17.3294  -17.8937  -16.2236 O   0  0  0  0  0  0  0  0  0  0  0  0
   16.8728  -20.2350  -16.2714 C   0  0  0  0  0  0  0  0  0  0  0  0
   17.1710  -20.2748  -14.8025 C   0  0  2  0  0  0  0  0  0  0  0  0
   18.4269  -20.9185  -14.4801 N   0  0  0  0  0  0  0  0  0  0  0  0
   16.0430  -20.8817  -14.0419 C   0  0  0  0  0  0  0  0  0  0  0  0
   16.2101  -21.9431  -13.1926 O   0  0  0  0  0  0  0  0  0  0  0  0
   14.8939  -20.3951  -14.1903 O   0  0  0  0  0  0  0  0  0  0  0  0
  2  1  1  6
  2  4  1  0
  3  2  1  0
  4  5  2  0
  4  6  1  0
  6  7  1  0
  7  8  1  1
  7 13  1  0
  8  9  1  0
  9 10  1  0
 10 11  1  0
 11 12  1  0
 13 14  2  0
 16 15  1  0
 16 18  1  0
 17 16  2  0
 19 18  1  6
 20 13  1  0
 20 19  1  0
 21 19  1  0
 21 22  1  0
 23 21  2  0
M  END
$$$$
