AKN.pdb
     RDKit          3D

 23 22  0  0  1  0  0  0  0  0999 V2000
   28.1794  -19.0410  -12.2863 C   0  0  0  0  0  0  0  0  0  0  0  0
   27.7405  -20.4794  -12.1166 C   0  0  2  0  0  0  0  0  0  0  0  0
   28.8433  -21.3754  -12.3803 N   0  0  0  0  0  0  0  0  0  0  0  0
   26.6190  -20.8004  -13.0312 C   0  0  0  0  0  0  0  0  0  0  0  0
   26.7905  -21.1819  -14.2128 O   0  0  0  0  0  0  0  0  0  0  0  0
   25.2529  -20.6823  -12.5836 N   0  0  0  0  0  0  0  0  0  0  0  0
   24.1321  -20.8950  -13.4741 C   0  0  1  0  0  0  0  0  0  0  0  0
   22.8621  -21.0244  -12.6419 C   0  0  0  0  0  0  0  0  0  0  0  0
   21.8143  -21.7229  -13.4287 C   0  0  0  0  0  0  0  0  0  0  0  0
   20.4797  -21.8039  -12.7460 C   0  0  0  0  0  0  0  0  0  0  0  0
   19.4054  -22.4089  -13.5982 C   0  0  0  0  0  0  0  0  0  0  0  0
   18.2274  -22.5928  -12.7711 N   0  0  0  0  0  0  0  0  0  0  0  0
   24.0362  -19.7934  -14.4489 C   0  0  0  0  0  0  0  0  0  0  0  0
   24.3452  -18.6362  -14.0911 O   0  0  0  0  0  0  0  0  0  0  0  0
   26.7912  -17.3585  -18.3539 N   0  0  0  0  0  0  0  0  0  0  0  0
   25.5633  -18.1058  -18.4382 C   0  0  0  0  0  0  0  0  0  0  0  0
   24.7790  -17.9576  -19.3841 O   0  0  0  0  0  0  0  0  0  0  0  0
   25.2952  -19.0581  -17.3311 C   0  0  0  0  0  0  0  0  0  0  0  0
   23.8874  -19.0056  -16.8176 C   0  0  2  0  0  0  0  0  0  0  0  0
   23.6054  -19.9845  -15.7891 N   0  0  0  0  0  0  0  0  0  0  0  0
   22.9050  -19.0977  -17.9337 C   0  0  0  0  0  0  0  0  0  0  0  0
   22.3790  -17.9930  -18.5490 O   0  0  0  0  0  0  0  0  0  0  0  0
   22.5487  -20.2387  -18.3215 O   0  0  0  0  0  0  0  0  0  0  0  0
  2  1  1  6
  2  4  1  0
  3  2  1  0
  4  5  2  0
  4  6  1  0
  6  7  1  0
  7  8  1  1
  7 13  1  0
  8  9  1  0
  9 10  1  0
 10 11  1  0
 11 12  1  0
 13 14  2  0
 16 15  1  0
 16 18  1  0
 17 16  2  0
 19 18  1  6
 20 13  1  0
 20 19  1  0
 21 19  1  0
 21 22  1  0
 23 21  2  0
M  END
$$$$
