AKN.pdb
     RDKit          3D

 23 22  0  0  1  0  0  0  0  0999 V2000
   28.4093  -22.6086  -17.8821 C   0  0  0  0  0  0  0  0  0  0  0  0
   27.4371  -21.4985  -17.5458 C   0  0  2  0  0  0  0  0  0  0  0  0
   28.1438  -20.2523  -17.3562 N   0  0  0  0  0  0  0  0  0  0  0  0
   26.6731  -21.8204  -16.3170 C   0  0  0  0  0  0  0  0  0  0  0  0
   25.8365  -22.7520  -16.2586 O   0  0  0  0  0  0  0  0  0  0  0  0
   26.8691  -21.0534  -15.1113 N   0  0  0  0  0  0  0  0  0  0  0  0
   26.1021  -21.3024  -13.9096 C   0  0  1  0  0  0  0  0  0  0  0  0
   26.9339  -20.8878  -12.7020 C   0  0  0  0  0  0  0  0  0  0  0  0
   26.3433  -21.4581  -11.4648 C   0  0  0  0  0  0  0  0  0  0  0  0
   25.5760  -20.4707  -10.6341 C   0  0  0  0  0  0  0  0  0  0  0  0
   25.1917  -20.9935   -9.2830 C   0  0  0  0  0  0  0  0  0  0  0  0
   24.5045  -19.9325   -8.5706 N   0  0  0  0  0  0  0  0  0  0  0  0
   24.8184  -20.5797  -13.9625 C   0  0  0  0  0  0  0  0  0  0  0  0
   24.7870  -19.4312  -14.4550 O   0  0  0  0  0  0  0  0  0  0  0  0
   22.0073  -18.2931  -15.2048 N   0  0  0  0  0  0  0  0  0  0  0  0
   22.1742  -19.3872  -16.1259 C   0  0  0  0  0  0  0  0  0  0  0  0
   22.2220  -19.2025  -17.3487 O   0  0  0  0  0  0  0  0  0  0  0  0
   22.2848  -20.7411  -15.5262 C   0  0  0  0  0  0  0  0  0  0  0  0
   22.3234  -20.7358  -14.0273 C   0  0  2  0  0  0  0  0  0  0  0  0
   23.6025  -21.1303  -13.4760 N   0  0  0  0  0  0  0  0  0  0  0  0
   21.2158  -21.5538  -13.4588 C   0  0  0  0  0  0  0  0  0  0  0  0
   20.1243  -20.9974  -12.8467 O   0  0  0  0  0  0  0  0  0  0  0  0
   21.2924  -22.8050  -13.5480 O   0  0  0  0  0  0  0  0  0  0  0  0
  2  1  1  1
  2  4  1  0
  3  2  1  0
  4  5  2  0
  4  6  1  0
  6  7  1  0
  7  8  1  1
  7 13  1  0
  8  9  1  0
  9 10  1  0
 10 11  1  0
 11 12  1  0
 13 14  2  0
 16 15  1  0
 16 18  1  0
 17 16  2  0
 19 18  1  6
 20 13  1  0
 20 19  1  0
 21 19  1  0
 21 22  1  0
 23 21  2  0
M  END
$$$$
