AKN.pdb
     RDKit          3D

 23 22  0  0  1  0  0  0  0  0999 V2000
   21.6311  -12.5785  -14.9012 C   0  0  0  0  0  0  0  0  0  0  0  0
   22.9792  -12.6776  -15.5819 C   0  0  2  0  0  0  0  0  0  0  0  0
   22.9839  -11.9030  -16.8019 N   0  0  0  0  0  0  0  0  0  0  0  0
   23.3095  -14.0881  -15.8958 C   0  0  0  0  0  0  0  0  0  0  0  0
   22.6673  -14.7696  -16.7291 O   0  0  0  0  0  0  0  0  0  0  0  0
   24.4109  -14.7460  -15.2366 N   0  0  0  0  0  0  0  0  0  0  0  0
   24.7901  -16.1073  -15.5488 C   0  0  1  0  0  0  0  0  0  0  0  0
   26.2583  -16.3021  -15.1900 C   0  0  0  0  0  0  0  0  0  0  0  0
   26.7979  -17.4863  -15.9051 C   0  0  0  0  0  0  0  0  0  0  0  0
   26.8517  -18.7371  -15.0766 C   0  0  0  0  0  0  0  0  0  0  0  0
   27.4455  -19.9094  -15.7975 C   0  0  0  0  0  0  0  0  0  0  0  0
   27.5031  -21.0238  -14.8700 N   0  0  0  0  0  0  0  0  0  0  0  0
   23.9219  -17.0582  -14.8312 C   0  0  0  0  0  0  0  0  0  0  0  0
   24.0803  -17.2176  -13.6016 O   0  0  0  0  0  0  0  0  0  0  0  0
   19.4877  -18.4783  -12.0510 N   0  0  0  0  0  0  0  0  0  0  0  0
   20.6080  -19.0730  -12.7326 C   0  0  0  0  0  0  0  0  0  0  0  0
   20.8143  -20.2928  -12.6968 O   0  0  0  0  0  0  0  0  0  0  0  0
   21.4952  -18.1430  -13.4759 C   0  0  0  0  0  0  0  0  0  0  0  0
   22.0615  -18.7267  -14.7356 C   0  0  2  0  0  0  0  0  0  0  0  0
   22.9032  -17.8102  -15.4755 N   0  0  0  0  0  0  0  0  0  0  0  0
   20.9847  -19.2867  -15.5993 C   0  0  0  0  0  0  0  0  0  0  0  0
   20.8659  -18.9767  -16.9279 O   0  0  0  0  0  0  0  0  0  0  0  0
   20.1547  -20.0754  -15.0811 O   0  0  0  0  0  0  0  0  0  0  0  0
  2  1  1  6
  2  4  1  0
  3  2  1  0
  4  5  2  0
  4  6  1  0
  6  7  1  0
  7  8  1  1
  7 13  1  0
  8  9  1  0
  9 10  1  0
 10 11  1  0
 11 12  1  0
 13 14  2  0
 16 15  1  0
 16 18  1  0
 17 16  2  0
 19 18  1  1
 20 13  1  0
 20 19  1  0
 21 19  1  0
 21 22  1  0
 23 21  2  0
M  END
$$$$
