NLL.pdb
     RDKit          3D

 25 24  0  0  1  0  0  0  0  0999 V2000
   25.5620  -17.5909  -17.9771 N   0  0  0  0  0  0  0  0  0  0  0  0
   26.0126  -18.9522  -17.8949 C   0  0  0  0  0  0  0  0  0  0  0  0
   26.8214  -19.3836  -18.7234 O   0  0  0  0  0  0  0  0  0  0  0  0
   25.4795  -19.7674  -16.8155 C   0  0  0  0  0  0  0  0  0  0  0  0
   24.4302  -19.1350  -15.9454 C   0  0  2  0  0  0  0  0  0  0  0  0
   25.2057  -18.1190  -15.1580 N   0  0  0  0  0  0  0  0  0  0  0  0
   23.8730  -20.0302  -14.9075 C   0  0  0  0  0  0  0  0  0  0  0  0
   23.2310  -21.0691  -15.2968 O   0  0  0  0  0  0  0  0  0  0  0  0
   25.9404  -22.2826  -11.7573 C   0  0  0  0  0  0  0  0  0  0  0  0
   25.4425  -21.0091  -11.1754 C   0  0  2  0  0  0  0  0  0  0  0  0
   25.9908  -20.7881   -9.7576 C   0  0  0  0  0  0  0  0  0  0  0  0
   23.9718  -20.7882  -11.2055 C   0  0  0  0  0  0  0  0  0  0  0  0
   23.3360  -20.7739  -12.5690 C   0  0  2  0  0  0  0  0  0  0  0  0
   23.9756  -19.8679  -13.5033 N   0  0  0  0  0  0  0  0  0  0  0  0
   21.8921  -20.5023  -12.3746 C   0  0  0  0  0  0  0  0  0  0  0  0
   21.5950  -19.7510  -11.3997 O   0  0  0  0  0  0  0  0  0  0  0  0
   18.5841  -18.2303  -15.6575 C   0  0  0  0  0  0  0  0  0  0  0  0
   19.2289  -18.8020  -14.4137 C   0  0  1  0  0  0  0  0  0  0  0  0
   18.7405  -17.8672  -13.2732 C   0  0  0  0  0  0  0  0  0  0  0  0
   18.7567  -20.1914  -14.1114 C   0  0  0  0  0  0  0  0  0  0  0  0
   19.4208  -20.7420  -12.9012 C   0  0  2  0  0  0  0  0  0  0  0  0
   20.8475  -20.9912  -13.1567 N   0  0  0  0  0  0  0  0  0  0  0  0
   18.7885  -22.0057  -12.4675 C   0  0  0  0  0  0  0  0  0  0  0  0
   17.6460  -22.0545  -11.7095 O   0  0  0  0  0  0  0  0  0  0  0  0
   19.2879  -23.1416  -12.7824 O   0  0  0  0  0  0  0  0  0  0  0  0
  1  2  1  0
  2  4  1  0
  3  2  2  0
  5  4  1  0
  5  6  1  1
  7  8  2  0
  7  5  1  0
 10  9  1  1
 10 11  1  0
 10 12  1  0
 13 12  1  1
 13 14  1  0
 14  7  1  0
 15 13  1  0
 15 22  1  0
 16 15  2  0
 18 17  1  6
 18 20  1  0
 19 18  1  0
 21 20  1  6
 21 22  1  0
 21 23  1  0
 23 25  2  0
 23 24  1  0
M  END
$$$$
