NLL.pdb
     RDKit          3D

 25 24  0  0  1  0  0  0  0  0999 V2000
   23.8843  -18.4640  -18.7122 N   0  0  0  0  0  0  0  0  0  0  0  0
   25.0739  -18.1993  -17.9521 C   0  0  0  0  0  0  0  0  0  0  0  0
   25.8147  -17.2643  -18.2743 O   0  0  0  0  0  0  0  0  0  0  0  0
   25.3478  -19.0669  -16.8180 C   0  0  0  0  0  0  0  0  0  0  0  0
   26.6699  -19.7811  -16.8169 C   0  0  2  0  0  0  0  0  0  0  0  0
   26.4281  -20.9498  -17.7274 N   0  0  0  0  0  0  0  0  0  0  0  0
   27.0254  -20.4115  -15.5263 C   0  0  0  0  0  0  0  0  0  0  0  0
   26.3327  -21.4196  -15.1432 O   0  0  0  0  0  0  0  0  0  0  0  0
   31.0074  -20.4648  -10.6201 C   0  0  0  0  0  0  0  0  0  0  0  0
   29.7420  -20.8263  -11.3102 C   0  0  2  0  0  0  0  0  0  0  0  0
   29.5413  -22.3487  -11.3524 C   0  0  0  0  0  0  0  0  0  0  0  0
   29.5199  -20.2341  -12.6565 C   0  0  0  0  0  0  0  0  0  0  0  0
   28.2136  -20.5771  -13.3193 C   0  0  2  0  0  0  0  0  0  0  0  0
   28.0696  -20.0215  -14.6510 N   0  0  0  0  0  0  0  0  0  0  0  0
   27.1328  -20.1736  -12.3891 C   0  0  0  0  0  0  0  0  0  0  0  0
   26.8728  -18.9353  -12.3440 O   0  0  0  0  0  0  0  0  0  0  0  0
   22.2924  -21.2907  -13.2124 C   0  0  0  0  0  0  0  0  0  0  0  0
   23.4496  -20.5625  -12.5641 C   0  0  1  0  0  0  0  0  0  0  0  0
   22.8303  -19.2193  -12.0892 C   0  0  0  0  0  0  0  0  0  0  0  0
   23.9771  -21.2831  -11.3610 C   0  0  0  0  0  0  0  0  0  0  0  0
   25.1909  -20.6203  -10.8169 C   0  0  2  0  0  0  0  0  0  0  0  0
   26.3874  -21.0215  -11.5722 N   0  0  0  0  0  0  0  0  0  0  0  0
   25.3947  -20.9554   -9.3918 C   0  0  0  0  0  0  0  0  0  0  0  0
   25.0581  -20.1110   -8.3642 O   0  0  0  0  0  0  0  0  0  0  0  0
   25.9090  -22.0733   -9.0383 O   0  0  0  0  0  0  0  0  0  0  0  0
  1  2  1  0
  2  4  1  0
  3  2  2  0
  5  4  1  0
  5  6  1  6
  7  8  2  0
  7  5  1  0
 10  9  1  6
 10 11  1  0
 10 12  1  0
 13 12  1  1
 13 14  1  0
 14  7  1  0
 15 13  1  0
 15 22  1  0
 16 15  2  0
 18 17  1  1
 18 20  1  0
 19 18  1  0
 21 20  1  6
 21 22  1  0
 21 23  1  0
 23 25  2  0
 23 24  1  0
M  END
$$$$
