NLL.pdb
     RDKit          3D

 25 24  0  0  1  0  0  0  0  0999 V2000
   21.6231   -9.2240  -23.1675 N   0  0  0  0  0  0  0  0  0  0  0  0
   22.3272  -10.0146  -22.1969 C   0  0  0  0  0  0  0  0  0  0  0  0
   22.8502  -11.0818  -22.5352 O   0  0  0  0  0  0  0  0  0  0  0  0
   22.3874   -9.5037  -20.8371 C   0  0  0  0  0  0  0  0  0  0  0  0
   22.4556  -10.5224  -19.7345 C   0  0  2  0  0  0  0  0  0  0  0  0
   21.0278  -10.9613  -19.5856 N   0  0  0  0  0  0  0  0  0  0  0  0
   22.7903   -9.9657  -18.4051 C   0  0  0  0  0  0  0  0  0  0  0  0
   21.8207   -9.6461  -17.6300 O   0  0  0  0  0  0  0  0  0  0  0  0
   27.3660  -11.1526  -15.5448 C   0  0  0  0  0  0  0  0  0  0  0  0
   25.9844  -10.6228  -15.4083 C   0  0  2  0  0  0  0  0  0  0  0  0
   24.9393  -11.6666  -15.8302 C   0  0  0  0  0  0  0  0  0  0  0  0
   25.7022   -9.3127  -16.0538 C   0  0  0  0  0  0  0  0  0  0  0  0
   24.3073   -9.1281  -16.5864 C   0  0  2  0  0  0  0  0  0  0  0  0
   24.0882   -9.7465  -17.8797 N   0  0  0  0  0  0  0  0  0  0  0  0
   24.0223   -7.6739  -16.5694 C   0  0  0  0  0  0  0  0  0  0  0  0
   24.3912   -7.0239  -17.5914 O   0  0  0  0  0  0  0  0  0  0  0  0
   21.0196   -3.6331  -18.2557 C   0  0  0  0  0  0  0  0  0  0  0  0
   21.7141   -3.8983  -16.9377 C   0  0  1  0  0  0  0  0  0  0  0  0
   20.6735   -3.4627  -15.8697 C   0  0  0  0  0  0  0  0  0  0  0  0
   22.0129   -5.3519  -16.7308 C   0  0  0  0  0  0  0  0  0  0  0  0
   22.9867   -5.5569  -15.6269 C   0  0  2  0  0  0  0  0  0  0  0  0
   23.3936   -6.9678  -15.5455 N   0  0  0  0  0  0  0  0  0  0  0  0
   22.4180   -5.1509  -14.3244 C   0  0  0  0  0  0  0  0  0  0  0  0
   21.7612   -6.0166  -13.4869 O   0  0  0  0  0  0  0  0  0  0  0  0
   22.5101   -3.9447  -13.9054 O   0  0  0  0  0  0  0  0  0  0  0  0
  1  2  1  0
  2  4  1  0
  3  2  2  0
  5  4  1  0
  5  6  1  1
  7  8  2  0
  7  5  1  0
 10  9  1  6
 10 11  1  0
 10 12  1  0
 13 12  1  6
 13 14  1  0
 14  7  1  0
 15 13  1  0
 15 22  1  0
 16 15  2  0
 18 17  1  6
 18 20  1  0
 19 18  1  0
 21 20  1  6
 21 22  1  0
 21 23  1  0
 23 25  2  0
 23 24  1  0
M  END
$$$$
