NLL.pdb
     RDKit          3D

 25 24  0  0  1  0  0  0  0  0999 V2000
   11.9318  -19.9356   -5.2331 N   0  0  0  0  0  0  0  0  0  0  0  0
   12.6185  -20.6182   -6.2939 C   0  0  0  0  0  0  0  0  0  0  0  0
   12.7925  -20.0523   -7.3784 O   0  0  0  0  0  0  0  0  0  0  0  0
   13.0821  -21.9701   -6.0270 C   0  0  0  0  0  0  0  0  0  0  0  0
   13.8282  -22.6599   -7.1341 C   0  0  2  0  0  0  0  0  0  0  0  0
   12.7295  -23.2314   -7.9826 N   0  0  0  0  0  0  0  0  0  0  0  0
   14.5954  -23.8510   -6.7074 C   0  0  0  0  0  0  0  0  0  0  0  0
   13.9354  -24.8846   -6.3346 O   0  0  0  0  0  0  0  0  0  0  0  0
   17.3505  -27.0040   -8.8875 C   0  0  0  0  0  0  0  0  0  0  0  0
   17.8443  -25.6829   -8.4192 C   0  0  2  0  0  0  0  0  0  0  0  0
   19.1635  -25.3012   -9.1075 C   0  0  0  0  0  0  0  0  0  0  0  0
   17.9492  -25.4896   -6.9481 C   0  0  0  0  0  0  0  0  0  0  0  0
   16.6602  -25.1992   -6.2287 C   0  0  2  0  0  0  0  0  0  0  0  0
   16.0061  -23.9820   -6.6686 N   0  0  0  0  0  0  0  0  0  0  0  0
   16.9560  -25.2211   -4.7767 C   0  0  0  0  0  0  0  0  0  0  0  0
   16.9937  -24.0941   -4.2008 O   0  0  0  0  0  0  0  0  0  0  0  0
   13.8367  -24.7430   -1.3503 C   0  0  0  0  0  0  0  0  0  0  0  0
   15.2958  -24.8927   -1.7220 C   0  0  1  0  0  0  0  0  0  0  0  0
   16.0547  -24.5652   -0.4067 C   0  0  0  0  0  0  0  0  0  0  0  0
   15.6432  -26.2938   -2.1235 C   0  0  0  0  0  0  0  0  0  0  0  0
   17.0668  -26.4063   -2.5350 C   0  0  2  0  0  0  0  0  0  0  0  0
   17.1924  -26.3533   -3.9994 N   0  0  0  0  0  0  0  0  0  0  0  0
   17.6692  -27.6668   -2.0523 C   0  0  0  0  0  0  0  0  0  0  0  0
   18.4253  -27.7512   -0.9106 O   0  0  0  0  0  0  0  0  0  0  0  0
   17.5140  -28.7655   -2.6909 O   0  0  0  0  0  0  0  0  0  0  0  0
  1  2  1  0
  2  4  1  0
  3  2  2  0
  5  4  1  0
  5  6  1  6
  7  8  2  0
  7  5  1  0
 10  9  1  1
 10 11  1  0
 10 12  1  0
 13 12  1  6
 13 14  1  0
 14  7  1  0
 15 13  1  0
 15 22  1  0
 16 15  2  0
 18 17  1  1
 18 20  1  0
 19 18  1  0
 21 20  1  6
 21 22  1  0
 21 23  1  0
 23 25  2  0
 23 24  1  0
M  END
$$$$
