NLL.pdb
     RDKit          3D

 25 24  0  0  1  0  0  0  0  0999 V2000
   26.8661  -19.8711  -19.3218 N   0  0  0  0  0  0  0  0  0  0  0  0
   27.7802  -20.7636  -18.6656 C   0  0  0  0  0  0  0  0  0  0  0  0
   28.8333  -21.0867  -19.2254 O   0  0  0  0  0  0  0  0  0  0  0  0
   27.4074  -21.2496  -17.3470 C   0  0  0  0  0  0  0  0  0  0  0  0
   26.0341  -20.8872  -16.8563 C   0  0  2  0  0  0  0  0  0  0  0  0
   26.1564  -19.4232  -16.5479 N   0  0  0  0  0  0  0  0  0  0  0  0
   25.6693  -21.4890  -15.5547 C   0  0  0  0  0  0  0  0  0  0  0  0
   24.9966  -22.5800  -15.5687 O   0  0  0  0  0  0  0  0  0  0  0  0
   28.8020  -20.8610  -11.0624 C   0  0  0  0  0  0  0  0  0  0  0  0
   27.8561  -20.9874  -12.2015 C   0  0  2  0  0  0  0  0  0  0  0  0
   27.8496  -19.7194  -13.0685 C   0  0  0  0  0  0  0  0  0  0  0  0
   26.4655  -21.4023  -11.8750 C   0  0  0  0  0  0  0  0  0  0  0  0
   25.5573  -21.6434  -13.0500 C   0  0  2  0  0  0  0  0  0  0  0  0
   25.9908  -20.9877  -14.2686 N   0  0  0  0  0  0  0  0  0  0  0  0
   24.1880  -21.2645  -12.6284 C   0  0  0  0  0  0  0  0  0  0  0  0
   23.8670  -21.5724  -11.4430 O   0  0  0  0  0  0  0  0  0  0  0  0
   19.2010  -18.8150  -13.6948 C   0  0  0  0  0  0  0  0  0  0  0  0
   20.2205  -18.4868  -12.6259 C   0  0  1  0  0  0  0  0  0  0  0  0
   19.8327  -19.4116  -11.4395 C   0  0  0  0  0  0  0  0  0  0  0  0
   21.6182  -18.8278  -13.0443 C   0  0  0  0  0  0  0  0  0  0  0  0
   21.8689  -20.2907  -12.9687 C   0  0  2  0  0  0  0  0  0  0  0  0
   23.2361  -20.6091  -13.4071 N   0  0  0  0  0  0  0  0  0  0  0  0
   20.9136  -21.0451  -13.8072 C   0  0  0  0  0  0  0  0  0  0  0  0
   21.0707  -21.2163  -15.1593 O   0  0  0  0  0  0  0  0  0  0  0  0
   19.8685  -21.5856  -13.3026 O   0  0  0  0  0  0  0  0  0  0  0  0
  1  2  1  0
  2  4  1  0
  3  2  2  0
  5  4  1  0
  5  6  1  1
  7  8  2  0
  7  5  1  0
 10  9  1  1
 10 11  1  0
 10 12  1  0
 13 12  1  1
 13 14  1  0
 14  7  1  0
 15 13  1  0
 15 22  1  0
 16 15  2  0
 18 17  1  6
 18 20  1  0
 19 18  1  0
 21 20  1  6
 21 22  1  0
 21 23  1  0
 23 25  2  0
 23 24  1  0
M  END
$$$$
