NLL.pdb
     RDKit          3D

 25 24  0  0  1  0  0  0  0  0999 V2000
   20.6817  -21.9062  -13.4033 N   0  0  0  0  0  0  0  0  0  0  0  0
   21.0405  -20.9247  -12.4181 C   0  0  0  0  0  0  0  0  0  0  0  0
   20.4202  -19.8578  -12.3580 O   0  0  0  0  0  0  0  0  0  0  0  0
   22.1405  -21.2481  -11.5240 C   0  0  0  0  0  0  0  0  0  0  0  0
   23.1782  -20.1815  -11.3154 C   0  0  2  0  0  0  0  0  0  0  0  0
   23.6340  -19.8700  -12.7113 N   0  0  0  0  0  0  0  0  0  0  0  0
   24.4102  -20.6479  -10.6416 C   0  0  0  0  0  0  0  0  0  0  0  0
   24.2810  -21.3043   -9.5482 O   0  0  0  0  0  0  0  0  0  0  0  0
   30.7248  -20.9063  -10.8590 C   0  0  0  0  0  0  0  0  0  0  0  0
   29.3924  -21.2672  -10.3088 C   0  0  2  0  0  0  0  0  0  0  0  0
   29.2443  -22.7880  -10.1505 C   0  0  0  0  0  0  0  0  0  0  0  0
   28.2050  -20.6973  -11.0002 C   0  0  0  0  0  0  0  0  0  0  0  0
   26.8884  -20.8618  -10.2910 C   0  0  2  0  0  0  0  0  0  0  0  0
   25.7434  -20.4511  -11.0804 N   0  0  0  0  0  0  0  0  0  0  0  0
   26.9991  -20.1524   -8.9946 C   0  0  0  0  0  0  0  0  0  0  0  0
   26.6673  -18.9305   -9.0002 O   0  0  0  0  0  0  0  0  0  0  0  0
   27.0992  -19.7481   -3.3922 C   0  0  0  0  0  0  0  0  0  0  0  0
   28.3450  -20.0701   -4.1884 C   0  0  1  0  0  0  0  0  0  0  0  0
   29.1695  -20.9862   -3.2428 C   0  0  0  0  0  0  0  0  0  0  0  0
   28.0428  -20.8412   -5.4369 C   0  0  0  0  0  0  0  0  0  0  0  0
   27.5962  -19.9464   -6.5362 C   0  0  2  0  0  0  0  0  0  0  0  0
   27.4286  -20.7007   -7.7875 N   0  0  0  0  0  0  0  0  0  0  0  0
   28.5632  -18.8526   -6.7672 C   0  0  0  0  0  0  0  0  0  0  0  0
   28.4149  -17.5933   -6.2434 O   0  0  0  0  0  0  0  0  0  0  0  0
   29.6084  -19.0295   -7.4852 O   0  0  0  0  0  0  0  0  0  0  0  0
  1  2  1  0
  2  4  1  0
  3  2  2  0
  5  4  1  0
  5  6  1  6
  7  8  2  0
  7  5  1  0
 10  9  1  6
 10 11  1  0
 10 12  1  0
 13 12  1  6
 13 14  1  0
 14  7  1  0
 15 13  1  0
 15 22  1  0
 16 15  2  0
 18 17  1  1
 18 20  1  0
 19 18  1  0
 21 20  1  1
 21 22  1  0
 21 23  1  0
 23 25  2  0
 23 24  1  0
M  END
$$$$
