SGT.pdb
     RDKit          3D

 18 17  0  0  1  0  0  0  0  0999 V2000
   17.9206  -12.5562  -16.5773 O   0  0  0  0  0  0  0  0  0  0  0  0
   19.2567  -12.2372  -16.8226 C   0  0  0  0  0  0  0  0  0  0  0  0
   19.6632  -11.1885  -15.7927 C   0  0  2  0  0  0  0  0  0  0  0  0
   18.7438  -10.0895  -15.8825 N   0  0  0  0  0  0  0  0  0  0  0  0
   21.0418  -10.7237  -16.0151 C   0  0  0  0  0  0  0  0  0  0  0  0
   21.9917  -11.5174  -15.8648 O   0  0  0  0  0  0  0  0  0  0  0  0
   21.3209   -9.3912  -16.3976 N   0  0  0  0  0  0  0  0  0  0  0  0
   22.6630   -8.9772  -16.8050 C   0  0  0  0  0  0  0  0  0  0  0  0
   22.9128   -7.6030  -16.3148 C   0  0  0  0  0  0  0  0  0  0  0  0
   23.9962   -7.0202  -16.5693 O   0  0  0  0  0  0  0  0  0  0  0  0
   20.5402   -4.8919  -17.1072 C   0  0  0  0  0  0  0  0  0  0  0  0
   20.7947   -4.8216  -15.6413 C   0  0  1  0  0  0  0  0  0  0  0  0
   19.7161   -5.3971  -14.9309 O   0  0  0  0  0  0  0  0  0  0  0  0
   22.0310   -5.5537  -15.1948 C   0  0  2  0  0  0  0  0  0  0  0  0
   21.9167   -6.9353  -15.5479 N   0  0  0  0  0  0  0  0  0  0  0  0
   22.2523   -5.3449  -13.7407 C   0  0  0  0  0  0  0  0  0  0  0  0
   22.1600   -6.3599  -12.8077 O   0  0  0  0  0  0  0  0  0  0  0  0
   22.5337   -4.1975  -13.3561 O   0  0  0  0  0  0  0  0  0  0  0  0
  2  1  1  0
  3  2  1  0
  3  4  1  6
  5  6  2  0
  5  3  1  0
  7  5  1  0
  8  7  1  0
  9 15  1  0
  9  8  1  0
 10  9  2  0
 12 13  1  0
 12 11  1  6
 14 15  1  1
 14 12  1  0
 16 14  1  0
 17 16  1  0
 18 16  2  0
M  END
$$$$
