SGT.pdb
     RDKit          3D

 18 17  0  0  1  0  0  0  0  0999 V2000
   16.2864  -14.9908  -14.3921 O   0  0  0  0  0  0  0  0  0  0  0  0
   15.9356  -14.3027  -13.2299 C   0  0  0  0  0  0  0  0  0  0  0  0
   16.0542  -12.8137  -13.5379 C   0  0  2  0  0  0  0  0  0  0  0  0
   17.3951  -12.5508  -13.9781 N   0  0  0  0  0  0  0  0  0  0  0  0
   15.7313  -11.9943  -12.3588 C   0  0  0  0  0  0  0  0  0  0  0  0
   14.6058  -12.0905  -11.8307 O   0  0  0  0  0  0  0  0  0  0  0  0
   16.6698  -11.0938  -11.8038 N   0  0  0  0  0  0  0  0  0  0  0  0
   16.3538  -10.2903  -10.6235 C   0  0  0  0  0  0  0  0  0  0  0  0
   16.7507   -8.8866  -10.8759 C   0  0  0  0  0  0  0  0  0  0  0  0
   17.5306   -8.6021  -11.8188 O   0  0  0  0  0  0  0  0  0  0  0  0
   14.8211   -6.2450  -12.0748 C   0  0  0  0  0  0  0  0  0  0  0  0
   15.3277   -5.7571  -10.7618 C   0  0  1  0  0  0  0  0  0  0  0  0
   14.3427   -5.9337   -9.7628 O   0  0  0  0  0  0  0  0  0  0  0  0
   16.5572   -6.4723  -10.2716 C   0  0  2  0  0  0  0  0  0  0  0  0
   16.2444   -7.8494  -10.0428 N   0  0  0  0  0  0  0  0  0  0  0  0
   17.0971   -5.7940   -9.0653 C   0  0  0  0  0  0  0  0  0  0  0  0
   17.6807   -4.5420   -9.0983 O   0  0  0  0  0  0  0  0  0  0  0  0
   17.0145   -6.3910   -7.9788 O   0  0  0  0  0  0  0  0  0  0  0  0
  2  1  1  0
  3  2  1  0
  3  4  1  1
  5  6  2  0
  5  3  1  0
  7  5  1  0
  8  7  1  0
  9 15  1  0
  9  8  1  0
 10  9  2  0
 12 13  1  0
 12 11  1  6
 14 15  1  1
 14 12  1  0
 16 14  1  0
 17 16  1  0
 18 16  2  0
M  END
$$$$
