SGT.pdb
     RDKit          3D

 18 17  0  0  1  0  0  0  0  0999 V2000
   13.3184  -13.9212  -14.5130 O   0  0  0  0  0  0  0  0  0  0  0  0
   13.9335  -13.6882  -13.2823 C   0  0  0  0  0  0  0  0  0  0  0  0
   15.4039  -13.3982  -13.5642 C   0  0  2  0  0  0  0  0  0  0  0  0
   16.0755  -14.6483  -13.7816 N   0  0  0  0  0  0  0  0  0  0  0  0
   16.0297  -12.6663  -12.4513 C   0  0  0  0  0  0  0  0  0  0  0  0
   16.7497  -13.2788  -11.6381 O   0  0  0  0  0  0  0  0  0  0  0  0
   15.8355  -11.2764  -12.2775 N   0  0  0  0  0  0  0  0  0  0  0  0
   16.4409  -10.5530  -11.1601 C   0  0  0  0  0  0  0  0  0  0  0  0
   16.0178   -9.1356  -11.2180 C   0  0  0  0  0  0  0  0  0  0  0  0
   15.3659   -8.7022  -12.2005 O   0  0  0  0  0  0  0  0  0  0  0  0
   14.4675   -7.0474   -8.1347 C   0  0  0  0  0  0  0  0  0  0  0  0
   15.6862   -6.4396   -8.7381 C   0  0  1  0  0  0  0  0  0  0  0  0
   16.8305   -6.7922   -7.9860 O   0  0  0  0  0  0  0  0  0  0  0  0
   15.9591   -6.8796  -10.1507 C   0  0  2  0  0  0  0  0  0  0  0  0
   16.3524   -8.2551  -10.1507 N   0  0  0  0  0  0  0  0  0  0  0  0
   16.9696   -5.9894  -10.7779 C   0  0  0  0  0  0  0  0  0  0  0  0
   16.7064   -4.6818  -11.1388 O   0  0  0  0  0  0  0  0  0  0  0  0
   18.1035   -6.4539  -10.9833 O   0  0  0  0  0  0  0  0  0  0  0  0
  2  1  1  0
  3  2  1  0
  3  4  1  1
  5  6  2  0
  5  3  1  0
  7  5  1  0
  8  7  1  0
  9 15  1  0
  9  8  1  0
 10  9  2  0
 12 13  1  0
 12 11  1  1
 14 15  1  1
 14 12  1  0
 16 14  1  0
 17 16  1  0
 18 16  2  0
M  END
$$$$
