SGT.pdb
     RDKit          3D

 18 17  0  0  1  0  0  0  0  0999 V2000
   22.2327  -11.3971  -20.9302 O   0  0  0  0  0  0  0  0  0  0  0  0
   22.4426  -10.4494  -19.9276 C   0  0  0  0  0  0  0  0  0  0  0  0
   23.9296  -10.1109  -19.9354 C   0  0  2  0  0  0  0  0  0  0  0  0
   24.6667  -11.3265  -20.1350 N   0  0  0  0  0  0  0  0  0  0  0  0
   24.3391   -9.4628  -18.6791 C   0  0  0  0  0  0  0  0  0  0  0  0
   25.3403   -9.8835  -18.0663 O   0  0  0  0  0  0  0  0  0  0  0  0
   23.6228   -8.3674  -18.1437 N   0  0  0  0  0  0  0  0  0  0  0  0
   24.1189   -7.6195  -16.9891 C   0  0  0  0  0  0  0  0  0  0  0  0
   23.1364   -6.5697  -16.6368 C   0  0  0  0  0  0  0  0  0  0  0  0
   22.6621   -5.8147  -17.5218 O   0  0  0  0  0  0  0  0  0  0  0  0
   19.8785   -7.1790  -15.5278 C   0  0  0  0  0  0  0  0  0  0  0  0
   20.4774   -6.3294  -14.4610 C   0  0  1  0  0  0  0  0  0  0  0  0
   20.9255   -7.1357  -13.3894 O   0  0  0  0  0  0  0  0  0  0  0  0
   21.6677   -5.5257  -14.9092 C   0  0  2  0  0  0  0  0  0  0  0  0
   22.7252   -6.4138  -15.2830 N   0  0  0  0  0  0  0  0  0  0  0  0
   22.0666   -4.5662  -13.8475 C   0  0  0  0  0  0  0  0  0  0  0  0
   21.3019   -3.4725  -13.4895 O   0  0  0  0  0  0  0  0  0  0  0  0
   23.1425   -4.7669  -13.2593 O   0  0  0  0  0  0  0  0  0  0  0  0
  2  1  1  0
  3  2  1  0
  3  4  1  1
  5  6  2  0
  5  3  1  0
  7  5  1  0
  8  7  1  0
  9 15  1  0
  9  8  1  0
 10  9  2  0
 12 13  1  0
 12 11  1  6
 14 15  1  1
 14 12  1  0
 16 14  1  0
 17 16  1  0
 18 16  2  0
M  END
$$$$
