SGT.pdb
     RDKit          3D

 18 17  0  0  1  0  0  0  0  0999 V2000
   17.4463  -14.1453  -15.6452 O   0  0  0  0  0  0  0  0  0  0  0  0
   17.2378  -12.8248  -15.2453 C   0  0  0  0  0  0  0  0  0  0  0  0
   18.1443  -11.9484  -16.1033 C   0  0  2  0  0  0  0  0  0  0  0  0
   19.5016  -12.3691  -15.8988 N   0  0  0  0  0  0  0  0  0  0  0  0
   17.9918  -10.5244  -15.7641 C   0  0  0  0  0  0  0  0  0  0  0  0
   16.8942   -9.9615  -15.9461 O   0  0  0  0  0  0  0  0  0  0  0  0
   19.0645   -9.7712  -15.2333 N   0  0  0  0  0  0  0  0  0  0  0  0
   18.8953   -8.3742  -14.8354 C   0  0  0  0  0  0  0  0  0  0  0  0
   20.1755   -7.8704  -14.2889 C   0  0  0  0  0  0  0  0  0  0  0  0
   20.8680   -8.5837  -13.5209 O   0  0  0  0  0  0  0  0  0  0  0  0
   22.9723   -6.8689  -16.3988 C   0  0  0  0  0  0  0  0  0  0  0  0
   22.6982   -5.7206  -15.4908 C   0  0  1  0  0  0  0  0  0  0  0  0
   21.9370   -4.7373  -16.1641 O   0  0  0  0  0  0  0  0  0  0  0  0
   21.9187   -6.0838  -14.2562 C   0  0  2  0  0  0  0  0  0  0  0  0
   20.6266   -6.5659  -14.6367 N   0  0  0  0  0  0  0  0  0  0  0  0
   21.8534   -4.9226  -13.3320 C   0  0  0  0  0  0  0  0  0  0  0  0
   22.9349   -4.4805  -12.5944 O   0  0  0  0  0  0  0  0  0  0  0  0
   20.7681   -4.3273  -13.2250 O   0  0  0  0  0  0  0  0  0  0  0  0
  2  1  1  0
  3  2  1  0
  3  4  1  1
  5  6  2  0
  5  3  1  0
  7  5  1  0
  8  7  1  0
  9 15  1  0
  9  8  1  0
 10  9  2  0
 12 13  1  0
 12 11  1  6
 14 15  1  6
 14 12  1  0
 16 14  1  0
 17 16  1  0
 18 16  2  0
M  END
$$$$
