SGT.pdb
     RDKit          3D

 18 17  0  0  1  0  0  0  0  0999 V2000
   25.1170  -12.0255  -16.0692 O   0  0  0  0  0  0  0  0  0  0  0  0
   24.6015  -11.0374  -15.2296 C   0  0  0  0  0  0  0  0  0  0  0  0
   23.1009  -10.9649  -15.4919 C   0  0  2  0  0  0  0  0  0  0  0  0
   22.9008  -10.6697  -16.8825 N   0  0  0  0  0  0  0  0  0  0  0  0
   22.4580   -9.9413  -14.6523 C   0  0  0  0  0  0  0  0  0  0  0  0
   22.5425  -10.0202  -13.4107 O   0  0  0  0  0  0  0  0  0  0  0  0
   21.7413   -8.8622  -15.2195 N   0  0  0  0  0  0  0  0  0  0  0  0
   21.0398   -7.8870  -14.3856 C   0  0  0  0  0  0  0  0  0  0  0  0
   20.4039   -6.8750  -15.2590 C   0  0  0  0  0  0  0  0  0  0  0  0
   20.9889   -6.4631  -16.2916 O   0  0  0  0  0  0  0  0  0  0  0  0
   16.1038   -4.9942  -16.5476 C   0  0  0  0  0  0  0  0  0  0  0  0
   16.9831   -5.3939  -15.4138 C   0  0  1  0  0  0  0  0  0  0  0  0
   16.6691   -6.7067  -14.9924 O   0  0  0  0  0  0  0  0  0  0  0  0
   18.4509   -5.3978  -15.7442 C   0  0  2  0  0  0  0  0  0  0  0  0
   19.1179   -6.3637  -14.9263 N   0  0  0  0  0  0  0  0  0  0  0  0
   19.0121   -4.0301  -15.5980 C   0  0  0  0  0  0  0  0  0  0  0  0
   19.0374   -3.1084  -16.6270 O   0  0  0  0  0  0  0  0  0  0  0  0
   19.4788   -3.7103  -14.4918 O   0  0  0  0  0  0  0  0  0  0  0  0
  2  1  1  0
  3  2  1  0
  3  4  1  6
  5  6  2  0
  5  3  1  0
  7  5  1  0
  8  7  1  0
  9 15  1  0
  9  8  1  0
 10  9  2  0
 12 13  1  0
 12 11  1  6
 14 15  1  1
 14 12  1  0
 16 14  1  0
 17 16  1  0
 18 16  2  0
M  END
$$$$
