SGT.pdb
     RDKit          3D

 18 17  0  0  1  0  0  0  0  0999 V2000
   20.5551  -19.6093  -15.7537 O   0  0  0  0  0  0  0  0  0  0  0  0
   21.7037  -20.4015  -15.7694 C   0  0  0  0  0  0  0  0  0  0  0  0
   22.8394  -19.5550  -15.2043 C   0  0  2  0  0  0  0  0  0  0  0  0
   23.0268  -18.4212  -16.0647 N   0  0  0  0  0  0  0  0  0  0  0  0
   24.0858  -20.3305  -15.0987 C   0  0  0  0  0  0  0  0  0  0  0  0
   24.7653  -20.5477  -16.1214 O   0  0  0  0  0  0  0  0  0  0  0  0
   24.5375  -20.8402  -13.8594 N   0  0  0  0  0  0  0  0  0  0  0  0
   25.7808  -21.6027  -13.7530 C   0  0  0  0  0  0  0  0  0  0  0  0
   26.0190  -21.9402  -12.3315 C   0  0  0  0  0  0  0  0  0  0  0  0
   25.8019  -23.1016  -11.9047 O   0  0  0  0  0  0  0  0  0  0  0  0
   27.2733  -20.2019   -7.8516 C   0  0  0  0  0  0  0  0  0  0  0  0
   27.2682  -20.0903   -9.3369 C   0  0  1  0  0  0  0  0  0  0  0  0
   28.5553  -20.3699   -9.8513 O   0  0  0  0  0  0  0  0  0  0  0  0
   26.3252  -21.0409  -10.0229 C   0  0  2  0  0  0  0  0  0  0  0  0
   26.4983  -20.9398  -11.4394 N   0  0  0  0  0  0  0  0  0  0  0  0
   24.9286  -20.7775   -9.5908 C   0  0  0  0  0  0  0  0  0  0  0  0
   24.3221  -21.4434   -8.5430 O   0  0  0  0  0  0  0  0  0  0  0  0
   24.2837  -19.9140  -10.2090 O   0  0  0  0  0  0  0  0  0  0  0  0
  2  1  1  0
  3  2  1  0
  3  4  1  6
  5  6  2  0
  5  3  1  0
  7  5  1  0
  8  7  1  0
  9 15  1  0
  9  8  1  0
 10  9  2  0
 12 13  1  0
 12 11  1  1
 14 15  1  6
 14 12  1  0
 16 14  1  0
 17 16  1  0
 18 16  2  0
M  END
$$$$
