CFA.pdb
     RDKit          3D

 23 23  0  0  1  0  0  0  0  0999 V2000
    6.2519  -16.9205   21.4507 N   0  0  0  0  0  0  0  0  0  0  0  0
    6.2016  -17.3498   22.8684 C   0  0  1  0  0  0  0  0  0  0  0  0
    6.1531  -18.8290   22.9057 C   0  0  0  0  0  0  0  0  0  0  0  0
    6.2032  -19.4457   24.6016 S   0  0  0  0  0  0  0  0  0  0  0  0
    7.2800  -16.6842   23.5782 C   0  0  0  0  0  0  0  0  0  0  0  0
    8.3183  -16.3429   22.9062 O   0  0  0  0  0  0  0  0  0  0  0  0
    7.3534  -16.3471   24.9380 N   0  0  0  0  0  0  0  0  0  0  0  0
    8.5054  -15.7616   25.5731 C   0  0  1  0  0  0  0  0  0  0  0  0
    8.1333  -14.9171   26.7357 C   0  0  0  0  0  0  0  0  0  0  0  0
    7.4892  -13.6418   26.4279 C   0  0  0  0  0  0  0  0  0  0  0  0
    8.1121  -12.6041   25.7325 C   0  0  0  0  0  0  0  0  0  0  0  0
    7.4447  -11.4261   25.4595 C   0  0  0  0  0  0  0  0  0  0  0  0
    6.1513  -11.2287   25.8576 C   0  0  0  0  0  0  0  0  0  0  0  0
    5.5145  -12.2402   26.5466 C   0  0  0  0  0  0  0  0  0  0  0  0
    6.1861  -13.3999   26.8099 C   0  0  0  0  0  0  0  0  0  0  0  0
    9.5816  -16.7369   25.8691 C   0  0  0  0  0  0  0  0  0  0  0  0
   10.5715  -16.3578   26.5312 O   0  0  0  0  0  0  0  0  0  0  0  0
   10.1621  -20.4665   25.2557 C   0  0  0  0  0  0  0  0  0  0  0  0
   10.5392  -19.0860   25.6939 C   0  0  2  0  0  0  0  0  0  0  0  0
    9.5338  -18.0838   25.4309 N   0  0  0  0  0  0  0  0  0  0  0  0
   11.8843  -18.7174   25.1787 C   0  0  0  0  0  0  0  0  0  0  0  0
   11.9752  -17.6033   24.3630 O   0  0  0  0  0  0  0  0  0  0  0  0
   12.8709  -19.4051   25.4878 O   0  0  0  0  0  0  0  0  0  0  0  0
  2  1  1  6
  3  2  1  0
  4  3  1  0
  5  6  2  0
  5  2  1  0
  7  5  1  0
  8  7  1  0
  8  9  1  1
  9 10  1  0
 10 15  2  0
 11 12  2  0
 11 10  1  0
 12 13  1  0
 13 14  2  0
 15 14  1  0
 16  8  1  0
 17 16  2  0
 19 18  1  6
 19 20  1  0
 20 16  1  0
 21 22  1  0
 21 19  1  0
 23 21  2  0
M  END
$$$$
