CFA.pdb
     RDKit          3D

 23 23  0  0  1  0  0  0  0  0999 V2000
    9.5493  -17.1908   19.4835 N   0  0  0  0  0  0  0  0  0  0  0  0
    8.7638  -17.7257   20.6209 C   0  0  1  0  0  0  0  0  0  0  0  0
    9.2007  -19.1172   20.8753 C   0  0  0  0  0  0  0  0  0  0  0  0
    8.2655  -19.8629   22.2274 S   0  0  0  0  0  0  0  0  0  0  0  0
    8.8493  -16.7729   21.7139 C   0  0  0  0  0  0  0  0  0  0  0  0
    9.9961  -16.2588   21.9719 O   0  0  0  0  0  0  0  0  0  0  0  0
    7.8249  -16.3160   22.5565 N   0  0  0  0  0  0  0  0  0  0  0  0
    8.0245  -15.4490   23.6886 C   0  0  1  0  0  0  0  0  0  0  0  0
    6.8656  -14.5495   23.9146 C   0  0  0  0  0  0  0  0  0  0  0  0
    6.9718  -13.6312   25.0466 C   0  0  0  0  0  0  0  0  0  0  0  0
    6.1713  -13.7078   26.1875 C   0  0  0  0  0  0  0  0  0  0  0  0
    6.3296  -12.8179   27.2318 C   0  0  0  0  0  0  0  0  0  0  0  0
    7.2734  -11.8289   27.1912 C   0  0  0  0  0  0  0  0  0  0  0  0
    8.0767  -11.7332   26.0736 C   0  0  0  0  0  0  0  0  0  0  0  0
    7.9095  -12.6197   25.0482 C   0  0  0  0  0  0  0  0  0  0  0  0
    8.4708  -16.1593   24.9107 C   0  0  0  0  0  0  0  0  0  0  0  0
    7.6533  -16.8837   25.5178 O   0  0  0  0  0  0  0  0  0  0  0  0
   11.8310  -17.0644   26.3702 C   0  0  0  0  0  0  0  0  0  0  0  0
   10.3511  -16.8648   26.4704 C   0  0  2  0  0  0  0  0  0  0  0  0
    9.7890  -16.0499   25.4194 N   0  0  0  0  0  0  0  0  0  0  0  0
    9.9708  -16.4093   27.8335 C   0  0  0  0  0  0  0  0  0  0  0  0
    9.2962  -15.2059   27.9423 O   0  0  0  0  0  0  0  0  0  0  0  0
   10.2625  -17.1064   28.8187 O   0  0  0  0  0  0  0  0  0  0  0  0
  2  1  1  6
  3  2  1  0
  4  3  1  0
  5  6  2  0
  5  2  1  0
  7  5  1  0
  8  7  1  0
  8  9  1  1
  9 10  1  0
 10 15  2  0
 11 12  2  0
 11 10  1  0
 12 13  1  0
 13 14  2  0
 15 14  1  0
 16  8  1  0
 17 16  2  0
 19 18  1  1
 19 20  1  0
 20 16  1  0
 21 22  1  0
 21 19  1  0
 23 21  2  0
M  END
$$$$
