CFA.pdb
     RDKit          3D

 23 23  0  0  1  0  0  0  0  0999 V2000
   10.1157  -16.9157   19.1808 N   0  0  0  0  0  0  0  0  0  0  0  0
    8.7971  -16.9573   19.8564 C   0  0  1  0  0  0  0  0  0  0  0  0
    8.3485  -18.3670   19.9160 C   0  0  0  0  0  0  0  0  0  0  0  0
    9.3685  -19.3339   21.0490 S   0  0  0  0  0  0  0  0  0  0  0  0
    8.9082  -16.2231   21.1048 C   0  0  0  0  0  0  0  0  0  0  0  0
   10.0846  -15.9984   21.5647 O   0  0  0  0  0  0  0  0  0  0  0  0
    7.8811  -15.7046   21.9075 N   0  0  0  0  0  0  0  0  0  0  0  0
    8.0860  -15.0474   23.1721 C   0  0  1  0  0  0  0  0  0  0  0  0
    6.9700  -14.1296   23.5119 C   0  0  0  0  0  0  0  0  0  0  0  0
    7.0814  -13.4207   24.7851 C   0  0  0  0  0  0  0  0  0  0  0  0
    7.9611  -12.3606   25.0102 C   0  0  0  0  0  0  0  0  0  0  0  0
    8.0097  -11.7207   26.2332 C   0  0  0  0  0  0  0  0  0  0  0  0
    7.2013  -12.0978   27.2698 C   0  0  0  0  0  0  0  0  0  0  0  0
    6.3233  -13.1433   27.0712 C   0  0  0  0  0  0  0  0  0  0  0  0
    6.2855  -13.7674   25.8569 C   0  0  0  0  0  0  0  0  0  0  0  0
    8.4483  -15.9727   24.2719 C   0  0  0  0  0  0  0  0  0  0  0  0
    7.6214  -16.8407   24.6248 O   0  0  0  0  0  0  0  0  0  0  0  0
   11.6184  -17.2854   25.6652 C   0  0  0  0  0  0  0  0  0  0  0  0
   10.1906  -16.8915   25.8801 C   0  0  2  0  0  0  0  0  0  0  0  0
    9.6964  -15.9129   24.9406 N   0  0  0  0  0  0  0  0  0  0  0  0
    9.9545  -16.5149   27.2988 C   0  0  0  0  0  0  0  0  0  0  0  0
    9.4190  -15.2637   27.5494 O   0  0  0  0  0  0  0  0  0  0  0  0
   10.2383  -17.3167   28.2034 O   0  0  0  0  0  0  0  0  0  0  0  0
  2  1  1  1
  3  2  1  0
  4  3  1  0
  5  6  2  0
  5  2  1  0
  7  5  1  0
  8  7  1  0
  8  9  1  1
  9 10  1  0
 10 15  2  0
 11 12  2  0
 11 10  1  0
 12 13  1  0
 13 14  2  0
 15 14  1  0
 16  8  1  0
 17 16  2  0
 19 18  1  1
 19 20  1  0
 20 16  1  0
 21 22  1  0
 21 19  1  0
 23 21  2  0
M  END
$$$$
