CFA.pdb
     RDKit          3D

 23 23  0  0  1  0  0  0  0  0999 V2000
    8.2915  -13.1687   18.2054 N   0  0  0  0  0  0  0  0  0  0  0  0
    8.0322  -14.4150   18.9646 C   0  0  1  0  0  0  0  0  0  0  0  0
    8.8010  -15.5125   18.3351 C   0  0  0  0  0  0  0  0  0  0  0  0
    8.5813  -17.0655   19.2288 S   0  0  0  0  0  0  0  0  0  0  0  0
    8.2628  -14.1402   20.3722 C   0  0  0  0  0  0  0  0  0  0  0  0
    9.2717  -13.4110   20.6825 O   0  0  0  0  0  0  0  0  0  0  0  0
    7.5162  -14.5694   21.4797 N   0  0  0  0  0  0  0  0  0  0  0  0
    7.8450  -14.2742   22.8500 C   0  0  1  0  0  0  0  0  0  0  0  0
    6.6640  -13.8104   23.6203 C   0  0  0  0  0  0  0  0  0  0  0  0
    6.9345  -13.2514   24.9433 C   0  0  0  0  0  0  0  0  0  0  0  0
    7.8168  -12.1950   25.1753 C   0  0  0  0  0  0  0  0  0  0  0  0
    8.0196  -11.7008   26.4490 C   0  0  0  0  0  0  0  0  0  0  0  0
    7.3670  -12.2241   27.5310 C   0  0  0  0  0  0  0  0  0  0  0  0
    6.4897  -13.2690   27.3266 C   0  0  0  0  0  0  0  0  0  0  0  0
    6.2985  -13.7481   26.0619 C   0  0  0  0  0  0  0  0  0  0  0  0
    8.6068  -15.3519   23.5247 C   0  0  0  0  0  0  0  0  0  0  0  0
    8.5229  -15.4610   24.7668 O   0  0  0  0  0  0  0  0  0  0  0  0
   10.3595  -18.5272   22.4741 C   0  0  0  0  0  0  0  0  0  0  0  0
   10.1452  -17.3730   23.4025 C   0  0  2  0  0  0  0  0  0  0  0  0
    9.4280  -16.2649   22.8173 N   0  0  0  0  0  0  0  0  0  0  0  0
   11.4224  -16.9702   24.0480 C   0  0  0  0  0  0  0  0  0  0  0  0
   12.1547  -17.9538   24.6894 O   0  0  0  0  0  0  0  0  0  0  0  0
   11.7912  -15.7857   23.9957 O   0  0  0  0  0  0  0  0  0  0  0  0
  2  1  1  6
  3  2  1  0
  4  3  1  0
  5  6  2  0
  5  2  1  0
  7  5  1  0
  8  7  1  0
  8  9  1  1
  9 10  1  0
 10 15  2  0
 11 12  2  0
 11 10  1  0
 12 13  1  0
 13 14  2  0
 15 14  1  0
 16  8  1  0
 17 16  2  0
 19 18  1  6
 19 20  1  0
 20 16  1  0
 21 22  1  0
 21 19  1  0
 23 21  2  0
M  END
$$$$
