CFA.pdb
     RDKit          3D

 23 23  0  0  1  0  0  0  0  0999 V2000
   10.7015  -16.4779   19.4066 N   0  0  0  0  0  0  0  0  0  0  0  0
    9.5185  -16.9495   20.1650 C   0  0  1  0  0  0  0  0  0  0  0  0
    9.5733  -18.4270   20.2420 C   0  0  0  0  0  0  0  0  0  0  0  0
    8.3093  -19.0742   21.3565 S   0  0  0  0  0  0  0  0  0  0  0  0
    9.4555  -16.2030   21.4094 C   0  0  0  0  0  0  0  0  0  0  0  0
   10.5554  -15.9822   22.0317 O   0  0  0  0  0  0  0  0  0  0  0  0
    8.3283  -15.6686   22.0512 N   0  0  0  0  0  0  0  0  0  0  0  0
    8.3495  -15.0298   23.3414 C   0  0  1  0  0  0  0  0  0  0  0  0
    7.2140  -14.0903   23.5183 C   0  0  0  0  0  0  0  0  0  0  0  0
    7.1378  -13.4044   24.8065 C   0  0  0  0  0  0  0  0  0  0  0  0
    7.9640  -12.3399   25.1706 C   0  0  0  0  0  0  0  0  0  0  0  0
    7.8335  -11.7226   26.3992 C   0  0  0  0  0  0  0  0  0  0  0  0
    6.8932  -12.1272   27.3060 C   0  0  0  0  0  0  0  0  0  0  0  0
    6.0648  -13.1776   26.9688 C   0  0  0  0  0  0  0  0  0  0  0  0
    6.2046  -13.7790   25.7506 C   0  0  0  0  0  0  0  0  0  0  0  0
    8.5183  -15.9749   24.4706 C   0  0  0  0  0  0  0  0  0  0  0  0
    7.6384  -16.8403   24.6675 O   0  0  0  0  0  0  0  0  0  0  0  0
   11.1272  -17.7482   26.1169 C   0  0  0  0  0  0  0  0  0  0  0  0
    9.9250  -16.8960   26.3783 C   0  0  2  0  0  0  0  0  0  0  0  0
    9.6388  -15.9371   25.3376 N   0  0  0  0  0  0  0  0  0  0  0  0
    9.9928  -16.2886   27.7336 C   0  0  0  0  0  0  0  0  0  0  0  0
   10.1209  -17.1441   28.8138 O   0  0  0  0  0  0  0  0  0  0  0  0
    9.9339  -15.0546   27.8582 O   0  0  0  0  0  0  0  0  0  0  0  0
  2  1  1  1
  3  2  1  0
  4  3  1  0
  5  6  2  0
  5  2  1  0
  7  5  1  0
  8  7  1  0
  8  9  1  1
  9 10  1  0
 10 15  2  0
 11 12  2  0
 11 10  1  0
 12 13  1  0
 13 14  2  0
 15 14  1  0
 16  8  1  0
 17 16  2  0
 19 18  1  6
 19 20  1  0
 20 16  1  0
 21 22  1  0
 21 19  1  0
 23 21  2  0
M  END
$$$$
