GQV.pdb
     RDKit          3D

 21 20  0  0  1  0  0  0  0  0999 V2000
   13.0375  -13.3492  -11.6309 N   0  0  0  0  0  0  0  0  0  0  0  0
   12.8878  -12.0607  -12.2689 C   0  0  0  0  0  0  0  0  0  0  0  0
   14.0022  -11.1485  -11.8349 C   0  0  0  0  0  0  0  0  0  0  0  0
   14.4611  -11.2564  -10.6752 O   0  0  0  0  0  0  0  0  0  0  0  0
   18.8891  -10.0340  -13.7856 N   0  0  0  0  0  0  0  0  0  0  0  0
   18.8910   -8.7074  -13.2428 C   0  0  0  0  0  0  0  0  0  0  0  0
   19.9912   -8.2189  -12.9519 O   0  0  0  0  0  0  0  0  0  0  0  0
   17.6040   -7.9988  -13.0608 C   0  0  0  0  0  0  0  0  0  0  0  0
   16.4647   -8.8740  -13.4239 C   0  0  0  0  0  0  0  0  0  0  0  0
   15.5730   -9.3115  -12.3135 C   0  0  2  0  0  0  0  0  0  0  0  0
   14.5052  -10.1881  -12.7527 N   0  0  0  0  0  0  0  0  0  0  0  0
   14.9817   -8.0460  -11.7344 C   0  0  0  0  0  0  0  0  0  0  0  0
   14.1334   -7.3994  -12.3824 O   0  0  0  0  0  0  0  0  0  0  0  0
   13.3039   -7.4123   -8.3590 C   0  0  0  0  0  0  0  0  0  0  0  0
   14.4847   -6.4683   -8.4426 C   0  0  1  0  0  0  0  0  0  0  0  0
   15.6697   -6.9919   -7.6604 C   0  0  0  0  0  0  0  0  0  0  0  0
   14.8593   -6.3292   -9.8807 C   0  0  2  0  0  0  0  0  0  0  0  0
   15.3680   -7.5624  -10.4555 N   0  0  0  0  0  0  0  0  0  0  0  0
   15.8794   -5.2384  -10.0007 C   0  0  0  0  0  0  0  0  0  0  0  0
   15.5542   -3.9166   -9.7952 O   0  0  0  0  0  0  0  0  0  0  0  0
   17.0738   -5.5466  -10.3002 O   0  0  0  0  0  0  0  0  0  0  0  0
  2  3  1  0
  2  1  1  0
  3  4  2  0
  5  6  1  0
  6  7  2  0
  6  8  1  0
  8  9  1  0
 10  9  1  6
 11 10  1  0
 11  3  1  0
 12 18  1  0
 12 10  1  0
 13 12  2  0
 15 14  1  6
 16 15  1  0
 17 18  1  1
 17 15  1  0
 19 17  1  0
 20 19  1  0
 21 19  2  0
M  END
$$$$
