GQV.pdb
     RDKit          3D

 21 20  0  0  1  0  0  0  0  0999 V2000
   18.2638  -10.8759  -18.2018 N   0  0  0  0  0  0  0  0  0  0  0  0
   19.6398  -11.0228  -18.6194 C   0  0  0  0  0  0  0  0  0  0  0  0
   20.5553  -10.6026  -17.5024 C   0  0  0  0  0  0  0  0  0  0  0  0
   20.0768  -10.4129  -16.3613 O   0  0  0  0  0  0  0  0  0  0  0  0
   26.6551  -11.6309  -17.1069 N   0  0  0  0  0  0  0  0  0  0  0  0
   26.4430  -10.8563  -15.9198 C   0  0  0  0  0  0  0  0  0  0  0  0
   27.4011  -10.7404  -15.1436 O   0  0  0  0  0  0  0  0  0  0  0  0
   25.1164  -10.2433  -15.6837 C   0  0  0  0  0  0  0  0  0  0  0  0
   24.1841  -10.5622  -16.7905 C   0  0  0  0  0  0  0  0  0  0  0  0
   22.8038  -10.0115  -16.6862 C   0  0  2  0  0  0  0  0  0  0  0  0
   21.9396  -10.4320  -17.7715 N   0  0  0  0  0  0  0  0  0  0  0  0
   22.9551   -8.5073  -16.7148 C   0  0  0  0  0  0  0  0  0  0  0  0
   23.5189   -7.9544  -17.6813 O   0  0  0  0  0  0  0  0  0  0  0  0
   20.0186   -6.2699  -15.8207 C   0  0  0  0  0  0  0  0  0  0  0  0
   21.2689   -5.7030  -16.4594 C   0  0  1  0  0  0  0  0  0  0  0  0
   21.2830   -4.1907  -16.4044 C   0  0  0  0  0  0  0  0  0  0  0  0
   22.4468   -6.2395  -15.7161 C   0  0  2  0  0  0  0  0  0  0  0  0
   22.4678   -7.6908  -15.6591 N   0  0  0  0  0  0  0  0  0  0  0  0
   22.4360   -5.6636  -14.3329 C   0  0  0  0  0  0  0  0  0  0  0  0
   22.0796   -6.4170  -13.2372 O   0  0  0  0  0  0  0  0  0  0  0  0
   22.7650   -4.4481  -14.1726 O   0  0  0  0  0  0  0  0  0  0  0  0
  2  3  1  0
  2  1  1  0
  3  4  2  0
  5  6  1  0
  6  7  2  0
  6  8  1  0
  8  9  1  0
 10  9  1  6
 11 10  1  0
 11  3  1  0
 12 18  1  0
 12 10  1  0
 13 12  2  0
 15 14  1  1
 16 15  1  0
 17 18  1  1
 17 15  1  0
 19 17  1  0
 20 19  1  0
 21 19  2  0
M  END
$$$$
