GQV.pdb
     RDKit          3D

 21 20  0  0  1  0  0  0  0  0999 V2000
   28.4871  -22.9560  -16.6167 N   0  0  0  0  0  0  0  0  0  0  0  0
   28.1847  -21.7895  -15.8184 C   0  0  0  0  0  0  0  0  0  0  0  0
   26.8568  -21.9733  -15.1363 C   0  0  0  0  0  0  0  0  0  0  0  0
   26.0664  -22.8436  -15.5664 O   0  0  0  0  0  0  0  0  0  0  0  0
   25.5136  -20.4204   -9.2752 N   0  0  0  0  0  0  0  0  0  0  0  0
   24.2631  -20.9784   -9.6987 C   0  0  0  0  0  0  0  0  0  0  0  0
   23.3945  -21.1385   -8.8306 O   0  0  0  0  0  0  0  0  0  0  0  0
   24.0732  -21.3283  -11.1245 C   0  0  0  0  0  0  0  0  0  0  0  0
   25.2974  -21.0353  -11.9065 C   0  0  0  0  0  0  0  0  0  0  0  0
   25.2623  -21.3660  -13.3587 C   0  0  2  0  0  0  0  0  0  0  0  0
   26.5340  -21.1542  -14.0216 N   0  0  0  0  0  0  0  0  0  0  0  0
   24.2186  -20.4556  -13.9654 C   0  0  0  0  0  0  0  0  0  0  0  0
   24.3968  -19.2204  -13.9753 O   0  0  0  0  0  0  0  0  0  0  0  0
   22.9465  -20.3253  -17.4025 C   0  0  0  0  0  0  0  0  0  0  0  0
   21.7067  -20.5558  -16.5646 C   0  0  1  0  0  0  0  0  0  0  0  0
   21.2919  -22.0111  -16.5765 C   0  0  0  0  0  0  0  0  0  0  0  0
   22.0148  -20.1370  -15.1656 C   0  0  2  0  0  0  0  0  0  0  0  0
   23.0225  -20.9706  -14.5334 N   0  0  0  0  0  0  0  0  0  0  0  0
   20.7438  -20.1638  -14.3727 C   0  0  0  0  0  0  0  0  0  0  0  0
   19.7825  -19.1882  -14.5115 O   0  0  0  0  0  0  0  0  0  0  0  0
   20.5532  -21.1136  -13.5523 O   0  0  0  0  0  0  0  0  0  0  0  0
  2  3  1  0
  2  1  1  0
  3  4  2  0
  5  6  1  0
  6  7  2  0
  6  8  1  0
  8  9  1  0
 10  9  1  1
 11 10  1  0
 11  3  1  0
 12 18  1  0
 12 10  1  0
 13 12  2  0
 15 14  1  6
 16 15  1  0
 17 18  1  1
 17 15  1  0
 19 17  1  0
 20 19  1  0
 21 19  2  0
M  END
$$$$
