GQV.pdb
     RDKit          3D

 21 20  0  0  1  0  0  0  0  0999 V2000
   15.4818  -12.6405  -14.0318 N   0  0  0  0  0  0  0  0  0  0  0  0
   15.2745  -11.2135  -14.1322 C   0  0  0  0  0  0  0  0  0  0  0  0
   15.8894  -10.5278  -12.9430 C   0  0  0  0  0  0  0  0  0  0  0  0
   15.6851  -10.9928  -11.7988 O   0  0  0  0  0  0  0  0  0  0  0  0
   20.5022   -6.2505  -12.8798 N   0  0  0  0  0  0  0  0  0  0  0  0
   20.6452   -7.6359  -13.2182 C   0  0  0  0  0  0  0  0  0  0  0  0
   21.7152   -7.9818  -13.7373 O   0  0  0  0  0  0  0  0  0  0  0  0
   19.5305   -8.5681  -12.9358 C   0  0  0  0  0  0  0  0  0  0  0  0
   18.4103   -7.8634  -12.2694 C   0  0  0  0  0  0  0  0  0  0  0  0
   17.1862   -8.6640  -11.9862 C   0  0  2  0  0  0  0  0  0  0  0  0
   16.6861   -9.3700  -13.1493 N   0  0  0  0  0  0  0  0  0  0  0  0
   16.1461   -7.6753  -11.5096 C   0  0  0  0  0  0  0  0  0  0  0  0
   15.4241   -7.0810  -12.3362 O   0  0  0  0  0  0  0  0  0  0  0  0
   15.7258   -6.7151   -7.3360 C   0  0  0  0  0  0  0  0  0  0  0  0
   14.5092   -6.8462   -8.2275 C   0  0  1  0  0  0  0  0  0  0  0  0
   13.4013   -5.9102   -7.7953 C   0  0  0  0  0  0  0  0  0  0  0  0
   14.9252   -6.5153   -9.6222 C   0  0  2  0  0  0  0  0  0  0  0  0
   15.9624   -7.3973  -10.1285 N   0  0  0  0  0  0  0  0  0  0  0  0
   15.3913   -5.0916   -9.6519 C   0  0  0  0  0  0  0  0  0  0  0  0
   14.5123   -4.0448   -9.8157 O   0  0  0  0  0  0  0  0  0  0  0  0
   16.6306   -4.8497   -9.5222 O   0  0  0  0  0  0  0  0  0  0  0  0
  2  3  1  0
  2  1  1  0
  3  4  2  0
  5  6  1  0
  6  7  2  0
  6  8  1  0
  8  9  1  0
 10  9  1  6
 11 10  1  0
 11  3  1  0
 12 18  1  0
 12 10  1  0
 13 12  2  0
 15 14  1  1
 16 15  1  0
 17 18  1  1
 17 15  1  0
 19 17  1  0
 20 19  1  0
 21 19  2  0
M  END
$$$$
