GQV.pdb
     RDKit          3D

 21 20  0  0  1  0  0  0  0  0999 V2000
   13.8990  -14.0576  -12.3909 N   0  0  0  0  0  0  0  0  0  0  0  0
   13.8124  -12.7115  -12.9106 C   0  0  0  0  0  0  0  0  0  0  0  0
   14.8194  -11.8354  -12.2172 C   0  0  0  0  0  0  0  0  0  0  0  0
   15.4298  -12.2811  -11.2193 O   0  0  0  0  0  0  0  0  0  0  0  0
   19.1804   -8.2446  -14.2907 N   0  0  0  0  0  0  0  0  0  0  0  0
   18.8408   -9.6228  -14.4893 C   0  0  0  0  0  0  0  0  0  0  0  0
   19.4632  -10.2360  -15.3671 O   0  0  0  0  0  0  0  0  0  0  0  0
   17.7847  -10.2352  -13.6520 C   0  0  0  0  0  0  0  0  0  0  0  0
   17.1222   -9.2129  -12.8084 C   0  0  0  0  0  0  0  0  0  0  0  0
   15.9662   -9.6670  -11.9855 C   0  0  2  0  0  0  0  0  0  0  0  0
   15.0516  -10.5247  -12.7131 N   0  0  0  0  0  0  0  0  0  0  0  0
   15.2452   -8.4095  -11.5552 C   0  0  0  0  0  0  0  0  0  0  0  0
   14.3797   -7.9009  -12.2965 O   0  0  0  0  0  0  0  0  0  0  0  0
   13.1853   -7.6617   -8.5062 C   0  0  0  0  0  0  0  0  0  0  0  0
   14.3263   -6.6667   -8.4830 C   0  0  1  0  0  0  0  0  0  0  0  0
   15.4257   -7.1054   -7.5401 C   0  0  0  0  0  0  0  0  0  0  0  0
   14.8709   -6.5617   -9.8687 C   0  0  2  0  0  0  0  0  0  0  0  0
   15.5269   -7.7790  -10.3135 N   0  0  0  0  0  0  0  0  0  0  0  0
   15.8257   -5.4079   -9.9158 C   0  0  0  0  0  0  0  0  0  0  0  0
   17.1828   -5.5956  -10.0500 O   0  0  0  0  0  0  0  0  0  0  0  0
   15.3657   -4.2279   -9.8291 O   0  0  0  0  0  0  0  0  0  0  0  0
  2  3  1  0
  2  1  1  0
  3  4  2  0
  5  6  1  0
  6  7  2  0
  6  8  1  0
  8  9  1  0
 10  9  1  6
 11 10  1  0
 11  3  1  0
 12 18  1  0
 12 10  1  0
 13 12  2  0
 15 14  1  6
 16 15  1  0
 17 18  1  1
 17 15  1  0
 19 17  1  0
 20 19  1  0
 21 19  2  0
M  END
$$$$
