GQV.pdb
     RDKit          3D

 21 20  0  0  1  0  0  0  0  0999 V2000
   16.8440  -11.8146  -14.6259 N   0  0  0  0  0  0  0  0  0  0  0  0
   16.3152  -10.4764  -14.4876 C   0  0  0  0  0  0  0  0  0  0  0  0
   16.8871   -9.8311  -13.2552 C   0  0  0  0  0  0  0  0  0  0  0  0
   16.9884  -10.5056  -12.2055 O   0  0  0  0  0  0  0  0  0  0  0  0
   21.1110   -5.3692  -12.4399 N   0  0  0  0  0  0  0  0  0  0  0  0
   21.2706   -6.7045  -12.9359 C   0  0  0  0  0  0  0  0  0  0  0  0
   22.3838   -7.0098  -13.3847 O   0  0  0  0  0  0  0  0  0  0  0  0
   20.1211   -7.6360  -12.8879 C   0  0  0  0  0  0  0  0  0  0  0  0
   18.9435   -6.9879  -12.2640 C   0  0  0  0  0  0  0  0  0  0  0  0
   17.7275   -7.8305  -12.0880 C   0  0  2  0  0  0  0  0  0  0  0  0
   17.2974   -8.4724  -13.3146 N   0  0  0  0  0  0  0  0  0  0  0  0
   16.6436   -6.8958  -11.6001 C   0  0  0  0  0  0  0  0  0  0  0  0
   16.0630   -6.1385  -12.4045 O   0  0  0  0  0  0  0  0  0  0  0  0
   13.7197   -7.6863   -9.1275 C   0  0  0  0  0  0  0  0  0  0  0  0
   14.4708   -6.4861   -8.5910 C   0  0  1  0  0  0  0  0  0  0  0  0
   15.3853   -6.8696   -7.4479 C   0  0  0  0  0  0  0  0  0  0  0  0
   15.2810   -5.9161   -9.7075 C   0  0  2  0  0  0  0  0  0  0  0  0
   16.2594   -6.8524  -10.2329 N   0  0  0  0  0  0  0  0  0  0  0  0
   15.9598   -4.6749   -9.2139 C   0  0  0  0  0  0  0  0  0  0  0  0
   15.2762   -3.4912   -9.0509 O   0  0  0  0  0  0  0  0  0  0  0  0
   17.1985   -4.7214   -8.9403 O   0  0  0  0  0  0  0  0  0  0  0  0
  2  3  1  0
  2  1  1  0
  3  4  2  0
  5  6  1  0
  6  7  2  0
  6  8  1  0
  8  9  1  0
 10  9  1  6
 11 10  1  0
 11  3  1  0
 12 18  1  0
 12 10  1  0
 13 12  2  0
 15 14  1  6
 16 15  1  0
 17 18  1  1
 17 15  1  0
 19 17  1  0
 20 19  1  0
 21 19  2  0
M  END
$$$$
