GQV.pdb
     RDKit          3D

 21 20  0  0  1  0  0  0  0  0999 V2000
   25.1536  -24.0648  -14.7525 N   0  0  0  0  0  0  0  0  0  0  0  0
   25.1924  -22.6944  -14.2942 C   0  0  0  0  0  0  0  0  0  0  0  0
   23.8658  -22.0356  -14.5555 C   0  0  0  0  0  0  0  0  0  0  0  0
   23.0744  -22.5615  -15.3705 O   0  0  0  0  0  0  0  0  0  0  0  0
   20.2973  -18.6898  -10.6549 N   0  0  0  0  0  0  0  0  0  0  0  0
   20.7534  -20.0411  -10.5122 C   0  0  0  0  0  0  0  0  0  0  0  0
   20.5362  -20.5978   -9.4275 O   0  0  0  0  0  0  0  0  0  0  0  0
   21.4470  -20.6936  -11.6456 C   0  0  0  0  0  0  0  0  0  0  0  0
   21.6536  -19.7369  -12.7582 C   0  0  0  0  0  0  0  0  0  0  0  0
   22.2103  -20.2894  -14.0248 C   0  0  2  0  0  0  0  0  0  0  0  0
   23.5453  -20.8332  -13.8704 N   0  0  0  0  0  0  0  0  0  0  0  0
   22.2451  -19.1343  -15.0000 C   0  0  0  0  0  0  0  0  0  0  0  0
   23.1479  -18.2763  -14.9202 O   0  0  0  0  0  0  0  0  0  0  0  0
   22.5728  -19.1246  -18.6680 C   0  0  0  0  0  0  0  0  0  0  0  0
   21.2618  -18.4138  -18.4066 C   0  0  1  0  0  0  0  0  0  0  0  0
   20.0806  -19.3398  -18.6002 C   0  0  0  0  0  0  0  0  0  0  0  0
   21.2815  -17.9193  -16.9985 C   0  0  2  0  0  0  0  0  0  0  0  0
   21.2667  -18.9932  -16.0205 N   0  0  0  0  0  0  0  0  0  0  0  0
   20.1037  -17.0152  -16.7978 C   0  0  0  0  0  0  0  0  0  0  0  0
   20.0315  -15.7763  -17.3938 O   0  0  0  0  0  0  0  0  0  0  0  0
   19.1497  -17.4067  -16.0576 O   0  0  0  0  0  0  0  0  0  0  0  0
  2  3  1  0
  2  1  1  0
  3  4  2  0
  5  6  1  0
  6  7  2  0
  6  8  1  0
  8  9  1  0
 10  9  1  1
 11 10  1  0
 11  3  1  0
 12 18  1  0
 12 10  1  0
 13 12  2  0
 15 14  1  1
 16 15  1  0
 17 18  1  1
 17 15  1  0
 19 17  1  0
 20 19  1  0
 21 19  2  0
M  END
$$$$
