GQV.pdb
     RDKit          3D

 21 20  0  0  1  0  0  0  0  0999 V2000
   16.1772  -11.3348  -14.6184 N   0  0  0  0  0  0  0  0  0  0  0  0
   16.2518  -11.0478  -13.2036 C   0  0  0  0  0  0  0  0  0  0  0  0
   16.4633   -9.5731  -12.9967 C   0  0  0  0  0  0  0  0  0  0  0  0
   16.5744   -8.8275  -13.9962 O   0  0  0  0  0  0  0  0  0  0  0  0
   15.7774   -6.3791   -7.6516 N   0  0  0  0  0  0  0  0  0  0  0  0
   14.6974   -6.5094   -8.5849 C   0  0  0  0  0  0  0  0  0  0  0  0
   13.5586   -6.2585   -8.1677 O   0  0  0  0  0  0  0  0  0  0  0  0
   14.9891   -6.9279   -9.9745 C   0  0  0  0  0  0  0  0  0  0  0  0
   16.4444   -7.1269  -10.1704 C   0  0  0  0  0  0  0  0  0  0  0  0
   16.8770   -7.6687  -11.4891 C   0  0  2  0  0  0  0  0  0  0  0  0
   16.5314   -9.0646  -11.6721 N   0  0  0  0  0  0  0  0  0  0  0  0
   18.3804   -7.5112  -11.5280 C   0  0  0  0  0  0  0  0  0  0  0  0
   19.0922   -8.1011  -10.6895 O   0  0  0  0  0  0  0  0  0  0  0  0
   20.3236   -6.4648  -15.0717 C   0  0  0  0  0  0  0  0  0  0  0  0
   20.9578   -7.2145  -13.9193 C   0  0  1  0  0  0  0  0  0  0  0  0
   22.4679   -7.1256  -13.9638 C   0  0  0  0  0  0  0  0  0  0  0  0
   20.4604   -6.6084  -12.6493 C   0  0  2  0  0  0  0  0  0  0  0  0
   19.0179   -6.6999  -12.5047 N   0  0  0  0  0  0  0  0  0  0  0  0
   20.8989   -5.1764  -12.6045 C   0  0  0  0  0  0  0  0  0  0  0  0
   22.2052   -4.8265  -12.3471 O   0  0  0  0  0  0  0  0  0  0  0  0
   20.0391   -4.2655  -12.8102 O   0  0  0  0  0  0  0  0  0  0  0  0
  2  3  1  0
  2  1  1  0
  3  4  2  0
  5  6  1  0
  6  7  2  0
  6  8  1  0
  8  9  1  0
 10  9  1  1
 11 10  1  0
 11  3  1  0
 12 18  1  0
 12 10  1  0
 13 12  2  0
 15 14  1  6
 16 15  1  0
 17 18  1  6
 17 15  1  0
 19 17  1  0
 20 19  1  0
 21 19  2  0
M  END
$$$$
