GQV.pdb
     RDKit          3D

 21 20  0  0  1  0  0  0  0  0999 V2000
   14.5484  -11.0512  -19.9248 N   0  0  0  0  0  0  0  0  0  0  0  0
   15.1312   -9.7369  -19.7746 C   0  0  0  0  0  0  0  0  0  0  0  0
   15.7578   -9.6137  -18.4128 C   0  0  0  0  0  0  0  0  0  0  0  0
   15.1304   -9.0231  -17.5047 O   0  0  0  0  0  0  0  0  0  0  0  0
   18.8773  -13.8784  -15.4400 N   0  0  0  0  0  0  0  0  0  0  0  0
   17.4593  -13.6706  -15.4151 C   0  0  0  0  0  0  0  0  0  0  0  0
   16.7616  -14.5955  -14.9773 O   0  0  0  0  0  0  0  0  0  0  0  0
   16.9080  -12.3862  -15.9027 C   0  0  0  0  0  0  0  0  0  0  0  0
   17.9941  -11.4822  -16.3490 C   0  0  0  0  0  0  0  0  0  0  0  0
   17.5875  -10.1387  -16.8483 C   0  0  2  0  0  0  0  0  0  0  0  0
   17.0457  -10.1710  -18.1925 N   0  0  0  0  0  0  0  0  0  0  0  0
   18.8411   -9.2934  -16.8291 C   0  0  0  0  0  0  0  0  0  0  0  0
   19.6676   -9.3805  -17.7602 O   0  0  0  0  0  0  0  0  0  0  0  0
   19.5186   -5.9773  -17.4836 C   0  0  0  0  0  0  0  0  0  0  0  0
   19.9107   -6.0812  -16.0248 C   0  0  1  0  0  0  0  0  0  0  0  0
   18.7798   -5.6534  -15.1147 C   0  0  0  0  0  0  0  0  0  0  0  0
   20.2637   -7.5043  -15.7455 C   0  0  2  0  0  0  0  0  0  0  0  0
   19.1116   -8.3887  -15.7675 N   0  0  0  0  0  0  0  0  0  0  0  0
   20.9459   -7.5700  -14.4132 C   0  0  0  0  0  0  0  0  0  0  0  0
   22.2514   -7.1659  -14.2470 O   0  0  0  0  0  0  0  0  0  0  0  0
   20.2985   -8.0109  -13.4142 O   0  0  0  0  0  0  0  0  0  0  0  0
  2  3  1  0
  2  1  1  0
  3  4  2  0
  5  6  1  0
  6  7  2  0
  6  8  1  0
  8  9  1  0
 10  9  1  6
 11 10  1  0
 11  3  1  0
 12 18  1  0
 12 10  1  0
 13 12  2  0
 15 14  1  6
 16 15  1  0
 17 18  1  1
 17 15  1  0
 19 17  1  0
 20 19  1  0
 21 19  2  0
M  END
$$$$
