GQV.pdb
     RDKit          3D

 21 20  0  0  1  0  0  0  0  0999 V2000
   24.5654  -20.3705   -8.4039 N   0  0  0  0  0  0  0  0  0  0  0  0
   25.0278  -21.2728   -9.4342 C   0  0  0  0  0  0  0  0  0  0  0  0
   24.7973  -20.6569  -10.7870 C   0  0  0  0  0  0  0  0  0  0  0  0
   24.3075  -19.5071  -10.8574 O   0  0  0  0  0  0  0  0  0  0  0  0
   28.1017  -20.3190  -14.4671 N   0  0  0  0  0  0  0  0  0  0  0  0
   27.2282  -20.0698  -15.5758 C   0  0  0  0  0  0  0  0  0  0  0  0
   27.6623  -19.3490  -16.4846 O   0  0  0  0  0  0  0  0  0  0  0  0
   25.8770  -20.6747  -15.5821 C   0  0  0  0  0  0  0  0  0  0  0  0
   25.6475  -21.4641  -14.3492 C   0  0  0  0  0  0  0  0  0  0  0  0
   24.9118  -20.7867  -13.2449 C   0  0  2  0  0  0  0  0  0  0  0  0
   25.1417  -21.3964  -11.9499 N   0  0  0  0  0  0  0  0  0  0  0  0
   23.4456  -20.8913  -13.5992 C   0  0  0  0  0  0  0  0  0  0  0  0
   22.8327  -21.9624  -13.4129 O   0  0  0  0  0  0  0  0  0  0  0  0
   19.2024  -18.5739  -14.5266 C   0  0  0  0  0  0  0  0  0  0  0  0
   20.6816  -18.4436  -14.2308 C   0  0  1  0  0  0  0  0  0  0  0  0
   20.9233  -17.9125  -12.8344 C   0  0  0  0  0  0  0  0  0  0  0  0
   21.2962  -19.7973  -14.3622 C   0  0  2  0  0  0  0  0  0  0  0  0
   22.7327  -19.7908  -14.1463 N   0  0  0  0  0  0  0  0  0  0  0  0
   20.9763  -20.3322  -15.7248 C   0  0  0  0  0  0  0  0  0  0  0  0
   19.8835  -21.1391  -15.9481 O   0  0  0  0  0  0  0  0  0  0  0  0
   21.7363  -20.0303  -16.6956 O   0  0  0  0  0  0  0  0  0  0  0  0
  2  3  1  0
  2  1  1  0
  3  4  2  0
  5  6  1  0
  6  7  2  0
  6  8  1  0
  8  9  1  0
 10  9  1  6
 11 10  1  0
 11  3  1  0
 12 18  1  0
 12 10  1  0
 13 12  2  0
 15 14  1  1
 16 15  1  0
 17 18  1  6
 17 15  1  0
 19 17  1  0
 20 19  1  0
 21 19  2  0
M  END
$$$$
