AQQ.pdb
     RDKit          3D

 24 23  0  0  1  0  0  0  0  0999 V2000
   26.5443  -13.9311  -15.2939 C   0  0  0  0  0  0  0  0  0  0  0  0
   25.4150  -14.8267  -15.8096 C   0  0  2  0  0  0  0  0  0  0  0  0
   25.9360  -15.6611  -16.8478 N   0  0  0  0  0  0  0  0  0  0  0  0
   24.3469  -13.9197  -16.2828 C   0  0  0  0  0  0  0  0  0  0  0  0
   24.3601  -13.3460  -17.3908 O   0  0  0  0  0  0  0  0  0  0  0  0
   18.2864  -14.6556  -15.2488 N   0  0  0  0  0  0  0  0  0  0  0  0
   18.3438  -13.3322  -15.7082 C   0  0  0  0  0  0  0  0  0  0  0  0
   17.3040  -12.6808  -15.9457 O   0  0  0  0  0  0  0  0  0  0  0  0
   19.6579  -12.6258  -15.9396 C   0  0  0  0  0  0  0  0  0  0  0  0
   20.7966  -13.5380  -15.5860 C   0  0  0  0  0  0  0  0  0  0  0  0
   22.0911  -12.8965  -15.8454 C   0  0  2  0  0  0  0  0  0  0  0  0
   23.2391  -13.6796  -15.4395 N   0  0  0  0  0  0  0  0  0  0  0  0
   22.2574  -11.5509  -15.2792 C   0  0  0  0  0  0  0  0  0  0  0  0
   22.7126  -11.3937  -14.1413 O   0  0  0  0  0  0  0  0  0  0  0  0
   21.2838   -6.4647  -18.7710 N   0  0  0  0  0  0  0  0  0  0  0  0
   21.7227   -5.8535  -17.5597 C   0  0  0  0  0  0  0  0  0  0  0  0
   21.8754   -4.6090  -17.5131 O   0  0  0  0  0  0  0  0  0  0  0  0
   22.0085   -6.6448  -16.3396 C   0  0  0  0  0  0  0  0  0  0  0  0
   21.8269   -8.0898  -16.6430 C   0  0  0  0  0  0  0  0  0  0  0  0
   22.1064   -9.0252  -15.4961 C   0  0  2  0  0  0  0  0  0  0  0  0
   21.8943  -10.3770  -16.0348 N   0  0  0  0  0  0  0  0  0  0  0  0
   21.2420   -8.7853  -14.3348 C   0  0  0  0  0  0  0  0  0  0  0  0
   20.0629   -9.2603  -14.2450 O   0  0  0  0  0  0  0  0  0  0  0  0
   21.6617   -8.0238  -13.2616 O   0  0  0  0  0  0  0  0  0  0  0  0
  2  1  1  6
  2  3  1  0
  2  4  1  0
  4 12  1  0
  4  5  2  0
  6  7  1  0
  7  9  1  0
  8  7  2  0
  9 10  1  0
 11 10  1  1
 11 13  1  0
 12 11  1  0
 13 21  1  0
 14 13  2  0
 16 15  1  0
 17 16  2  0
 18 16  1  0
 19 18  1  0
 20 19  1  6
 21 20  1  0
 22 20  1  0
 22 24  1  0
 23 22  2  0
M  END
$$$$
