AQQ.pdb
     RDKit          3D

 24 23  0  0  1  0  0  0  0  0999 V2000
   29.4483  -24.1205  -16.6457 C   0  0  0  0  0  0  0  0  0  0  0  0
   28.7447  -23.0461  -17.4787 C   0  0  2  0  0  0  0  0  0  0  0  0
   29.6434  -22.6023  -18.4990 N   0  0  0  0  0  0  0  0  0  0  0  0
   28.3671  -21.9698  -16.5374 C   0  0  0  0  0  0  0  0  0  0  0  0
   29.1899  -21.2682  -15.9149 O   0  0  0  0  0  0  0  0  0  0  0  0
   26.4968  -17.4604  -14.6221 N   0  0  0  0  0  0  0  0  0  0  0  0
   27.1135  -17.4789  -15.8811 C   0  0  0  0  0  0  0  0  0  0  0  0
   27.9223  -16.5893  -16.2221 O   0  0  0  0  0  0  0  0  0  0  0  0
   26.8353  -18.5689  -16.8881 C   0  0  0  0  0  0  0  0  0  0  0  0
   25.8451  -19.5453  -16.3227 C   0  0  0  0  0  0  0  0  0  0  0  0
   26.5167  -20.5890  -15.5390 C   0  0  2  0  0  0  0  0  0  0  0  0
   26.9954  -21.7096  -16.3207 N   0  0  0  0  0  0  0  0  0  0  0  0
   25.7426  -21.1374  -14.4171 C   0  0  0  0  0  0  0  0  0  0  0  0
   25.0899  -22.1785  -14.5460 O   0  0  0  0  0  0  0  0  0  0  0  0
   26.6114  -19.0043   -8.6396 N   0  0  0  0  0  0  0  0  0  0  0  0
   25.6372  -20.0131   -8.3818 C   0  0  0  0  0  0  0  0  0  0  0  0
   25.3197  -20.2805   -7.1977 O   0  0  0  0  0  0  0  0  0  0  0  0
   24.9782  -20.7661   -9.4752 C   0  0  0  0  0  0  0  0  0  0  0  0
   25.5932  -20.3777  -10.7730 C   0  0  0  0  0  0  0  0  0  0  0  0
   25.0153  -21.0596  -11.9852 C   0  0  2  0  0  0  0  0  0  0  0  0
   25.7227  -20.4765  -13.1350 N   0  0  0  0  0  0  0  0  0  0  0  0
   23.5658  -20.8710  -12.1147 C   0  0  0  0  0  0  0  0  0  0  0  0
   22.7190  -21.6566  -11.5764 O   0  0  0  0  0  0  0  0  0  0  0  0
   23.0312  -19.8202  -12.8342 O   0  0  0  0  0  0  0  0  0  0  0  0
  2  1  1  1
  2  3  1  0
  2  4  1  0
  4 12  1  0
  4  5  2  0
  6  7  1  0
  7  9  1  0
  8  7  2  0
  9 10  1  0
 11 10  1  6
 11 13  1  0
 12 11  1  0
 13 21  1  0
 14 13  2  0
 16 15  1  0
 17 16  2  0
 18 16  1  0
 19 18  1  0
 20 19  1  1
 21 20  1  0
 22 20  1  0
 22 24  1  0
 23 22  2  0
M  END
$$$$
