AQQ.pdb
     RDKit          3D

 24 23  0  0  1  0  0  0  0  0999 V2000
   17.3391  -12.5094  -14.8051 C   0  0  0  0  0  0  0  0  0  0  0  0
   16.5613  -11.1919  -14.8561 C   0  0  2  0  0  0  0  0  0  0  0  0
   16.6846  -10.6429  -16.1711 N   0  0  0  0  0  0  0  0  0  0  0  0
   17.1462  -10.3219  -13.8129 C   0  0  0  0  0  0  0  0  0  0  0  0
   17.1366  -10.5918  -12.5947 O   0  0  0  0  0  0  0  0  0  0  0  0
   22.0318   -4.8217  -12.8000 N   0  0  0  0  0  0  0  0  0  0  0  0
   21.3993   -5.9054  -13.4254 C   0  0  0  0  0  0  0  0  0  0  0  0
   21.8399   -6.3893  -14.4901 O   0  0  0  0  0  0  0  0  0  0  0  0
   20.1579   -6.5434  -12.8497 C   0  0  0  0  0  0  0  0  0  0  0  0
   19.5496   -7.4760  -13.8566 C   0  0  0  0  0  0  0  0  0  0  0  0
   18.4285   -8.2254  -13.2769 C   0  0  2  0  0  0  0  0  0  0  0  0
   17.7558   -9.1093  -14.2054 N   0  0  0  0  0  0  0  0  0  0  0  0
   17.3953   -7.4139  -12.6190 C   0  0  0  0  0  0  0  0  0  0  0  0
   16.5863   -6.7575  -13.2833 O   0  0  0  0  0  0  0  0  0  0  0  0
   13.9057   -9.1376   -8.2638 N   0  0  0  0  0  0  0  0  0  0  0  0
   13.6192   -7.7449   -8.1561 C   0  0  0  0  0  0  0  0  0  0  0  0
   12.6999   -7.3579   -7.3948 O   0  0  0  0  0  0  0  0  0  0  0  0
   14.3772   -6.7259   -8.9201 C   0  0  0  0  0  0  0  0  0  0  0  0
   15.4512   -7.4002   -9.6980 C   0  0  0  0  0  0  0  0  0  0  0  0
   16.3241   -6.4827  -10.5133 C   0  0  2  0  0  0  0  0  0  0  0  0
   17.2965   -7.3608  -11.1809 N   0  0  0  0  0  0  0  0  0  0  0  0
   17.0081   -5.4689   -9.7023 C   0  0  0  0  0  0  0  0  0  0  0  0
   18.1898   -5.6297   -9.2532 O   0  0  0  0  0  0  0  0  0  0  0  0
   16.4041   -4.2703   -9.3766 O   0  0  0  0  0  0  0  0  0  0  0  0
  2  1  1  6
  2  3  1  0
  2  4  1  0
  4 12  1  0
  4  5  2  0
  6  7  1  0
  7  9  1  0
  8  7  2  0
  9 10  1  0
 11 10  1  6
 11 13  1  0
 12 11  1  0
 13 21  1  0
 14 13  2  0
 16 15  1  0
 17 16  2  0
 18 16  1  0
 19 18  1  0
 20 19  1  1
 21 20  1  0
 22 20  1  0
 22 24  1  0
 23 22  2  0
M  END
$$$$
