AQQ.pdb
     RDKit          3D

 24 23  0  0  1  0  0  0  0  0999 V2000
   24.2507  -20.9562   -8.9502 C   0  0  0  0  0  0  0  0  0  0  0  0
   25.5176  -20.5010   -9.6790 C   0  0  2  0  0  0  0  0  0  0  0  0
   26.0724  -19.3881   -8.9724 N   0  0  0  0  0  0  0  0  0  0  0  0
   25.1052  -20.1588  -11.0575 C   0  0  0  0  0  0  0  0  0  0  0  0
   24.3111  -19.2384  -11.3390 O   0  0  0  0  0  0  0  0  0  0  0  0
   28.5341  -21.5431  -16.1404 N   0  0  0  0  0  0  0  0  0  0  0  0
   28.0799  -20.2180  -16.0807 C   0  0  0  0  0  0  0  0  0  0  0  0
   28.5866  -19.3243  -16.7923 O   0  0  0  0  0  0  0  0  0  0  0  0
   26.9597  -19.8010  -15.1583 C   0  0  0  0  0  0  0  0  0  0  0  0
   26.4027  -21.0048  -14.4553 C   0  0  0  0  0  0  0  0  0  0  0  0
   25.3383  -20.6271  -13.5179 C   0  0  2  0  0  0  0  0  0  0  0  0
   25.6349  -20.9112  -12.1296 N   0  0  0  0  0  0  0  0  0  0  0  0
   24.0110  -21.1879  -13.8051 C   0  0  0  0  0  0  0  0  0  0  0  0
   23.5267  -22.0698  -13.0880 O   0  0  0  0  0  0  0  0  0  0  0  0
   18.4910  -20.2076  -13.3451 N   0  0  0  0  0  0  0  0  0  0  0  0
   19.4395  -19.1493  -13.4620 C   0  0  0  0  0  0  0  0  0  0  0  0
   19.0825  -17.9685  -13.2330 O   0  0  0  0  0  0  0  0  0  0  0  0
   20.8486  -19.3970  -13.8489 C   0  0  0  0  0  0  0  0  0  0  0  0
   21.0573  -20.8604  -14.0165 C   0  0  0  0  0  0  0  0  0  0  0  0
   21.8933  -21.2563  -15.2050 C   0  0  2  0  0  0  0  0  0  0  0  0
   23.2370  -20.7254  -14.9310 N   0  0  0  0  0  0  0  0  0  0  0  0
   21.3742  -20.7319  -16.4735 C   0  0  0  0  0  0  0  0  0  0  0  0
   21.9601  -19.8082  -17.1272 O   0  0  0  0  0  0  0  0  0  0  0  0
   20.2095  -21.2150  -17.0371 O   0  0  0  0  0  0  0  0  0  0  0  0
  2  1  1  1
  2  3  1  0
  2  4  1  0
  4 12  1  0
  4  5  2  0
  6  7  1  0
  7  9  1  0
  8  7  2  0
  9 10  1  0
 11 10  1  6
 11 13  1  0
 12 11  1  0
 13 21  1  0
 14 13  2  0
 16 15  1  0
 17 16  2  0
 18 16  1  0
 19 18  1  0
 20 19  1  1
 21 20  1  0
 22 20  1  0
 22 24  1  0
 23 22  2  0
M  END
$$$$
