AQQ.pdb
     RDKit          3D

 24 23  0  0  1  0  0  0  0  0999 V2000
   26.0398  -21.9378  -15.8591 C   0  0  0  0  0  0  0  0  0  0  0  0
   24.5739  -22.2718  -16.1472 C   0  0  2  0  0  0  0  0  0  0  0  0
   23.9942  -21.1829  -16.8710 N   0  0  0  0  0  0  0  0  0  0  0  0
   23.9315  -22.4957  -14.8340 C   0  0  0  0  0  0  0  0  0  0  0  0
   24.3106  -23.3526  -14.0100 O   0  0  0  0  0  0  0  0  0  0  0  0
   21.1597  -19.5601  -10.0422 N   0  0  0  0  0  0  0  0  0  0  0  0
   22.5210  -19.6383  -10.3685 C   0  0  0  0  0  0  0  0  0  0  0  0
   23.3999  -19.1851   -9.6042 O   0  0  0  0  0  0  0  0  0  0  0  0
   22.9967  -20.2709  -11.6542 C   0  0  0  0  0  0  0  0  0  0  0  0
   21.8179  -20.6462  -12.5047 C   0  0  0  0  0  0  0  0  0  0  0  0
   22.0745  -21.8835  -13.2516 C   0  0  2  0  0  0  0  0  0  0  0  0
   22.8208  -21.6982  -14.4782 N   0  0  0  0  0  0  0  0  0  0  0  0
   20.8875  -22.6851  -13.5788 C   0  0  0  0  0  0  0  0  0  0  0  0
   20.4305  -22.7019  -14.7267 O   0  0  0  0  0  0  0  0  0  0  0  0
   18.6889  -27.0868   -9.7836 N   0  0  0  0  0  0  0  0  0  0  0  0
   17.5809  -26.9725  -10.6739 C   0  0  0  0  0  0  0  0  0  0  0  0
   16.5847  -27.7204  -10.5233 O   0  0  0  0  0  0  0  0  0  0  0  0
   17.5635  -25.9905  -11.7839 C   0  0  0  0  0  0  0  0  0  0  0  0
   18.8293  -25.2092  -11.7624 C   0  0  0  0  0  0  0  0  0  0  0  0
   18.9711  -24.1889  -12.8611 C   0  0  2  0  0  0  0  0  0  0  0  0
   20.2229  -23.4742  -12.5705 N   0  0  0  0  0  0  0  0  0  0  0  0
   17.8411  -23.2550  -12.9278 C   0  0  0  0  0  0  0  0  0  0  0  0
   17.7460  -22.2348  -12.1700 O   0  0  0  0  0  0  0  0  0  0  0  0
   16.8059  -23.4300  -13.8252 O   0  0  0  0  0  0  0  0  0  0  0  0
  2  1  1  1
  2  3  1  0
  2  4  1  0
  4 12  1  0
  4  5  2  0
  6  7  1  0
  7  9  1  0
  8  7  2  0
  9 10  1  0
 11 10  1  6
 11 13  1  0
 12 11  1  0
 13 21  1  0
 14 13  2  0
 16 15  1  0
 17 16  2  0
 18 16  1  0
 19 18  1  0
 20 19  1  1
 21 20  1  0
 22 20  1  0
 22 24  1  0
 23 22  2  0
M  END
$$$$
