AQQ.pdb
     RDKit          3D

 24 23  0  0  1  0  0  0  0  0999 V2000
   26.8797  -17.0977  -16.7878 C   0  0  0  0  0  0  0  0  0  0  0  0
   27.5527  -18.3196  -16.1575 C   0  0  2  0  0  0  0  0  0  0  0  0
   28.2006  -19.0648  -17.1922 N   0  0  0  0  0  0  0  0  0  0  0  0
   26.4811  -19.0842  -15.4834 C   0  0  0  0  0  0  0  0  0  0  0  0
   25.6103  -19.7433  -16.0867 O   0  0  0  0  0  0  0  0  0  0  0  0
   26.2708  -20.3381   -9.1807 N   0  0  0  0  0  0  0  0  0  0  0  0
   25.1963  -21.0444   -9.7394 C   0  0  0  0  0  0  0  0  0  0  0  0
   24.4983  -21.8185   -9.0500 O   0  0  0  0  0  0  0  0  0  0  0  0
   24.8259  -20.9087  -11.1968 C   0  0  0  0  0  0  0  0  0  0  0  0
   25.8251  -20.0347  -11.8980 C   0  0  0  0  0  0  0  0  0  0  0  0
   25.4726  -19.8535  -13.3112 C   0  0  2  0  0  0  0  0  0  0  0  0
   26.4287  -19.0764  -14.0715 N   0  0  0  0  0  0  0  0  0  0  0  0
   24.1434  -19.2814  -13.5656 C   0  0  0  0  0  0  0  0  0  0  0  0
   23.9444  -18.0669  -13.4567 O   0  0  0  0  0  0  0  0  0  0  0  0
   19.4636  -19.7612  -17.5568 N   0  0  0  0  0  0  0  0  0  0  0  0
   20.3584  -18.6534  -17.4826 C   0  0  0  0  0  0  0  0  0  0  0  0
   20.2398  -17.7049  -18.2953 O   0  0  0  0  0  0  0  0  0  0  0  0
   21.4364  -18.5813  -16.4680 C   0  0  0  0  0  0  0  0  0  0  0  0
   21.3777  -19.7943  -15.6085 C   0  0  0  0  0  0  0  0  0  0  0  0
   21.6890  -19.5638  -14.1531 C   0  0  2  0  0  0  0  0  0  0  0  0
   23.0345  -20.1207  -13.9490 N   0  0  0  0  0  0  0  0  0  0  0  0
   20.7204  -20.1969  -13.2507 C   0  0  0  0  0  0  0  0  0  0  0  0
   20.9302  -21.3265  -12.6994 O   0  0  0  0  0  0  0  0  0  0  0  0
   19.5141  -19.5982  -12.9439 O   0  0  0  0  0  0  0  0  0  0  0  0
  2  1  1  6
  2  3  1  0
  2  4  1  0
  4 12  1  0
  4  5  2  0
  6  7  1  0
  7  9  1  0
  8  7  2  0
  9 10  1  0
 11 10  1  1
 11 13  1  0
 12 11  1  0
 13 21  1  0
 14 13  2  0
 16 15  1  0
 17 16  2  0
 18 16  1  0
 19 18  1  0
 20 19  1  6
 21 20  1  0
 22 20  1  0
 22 24  1  0
 23 22  2  0
M  END
$$$$
