AQQ.pdb
     RDKit          3D

 24 23  0  0  1  0  0  0  0  0999 V2000
   13.4063  -10.6614  -14.2353 C   0  0  0  0  0  0  0  0  0  0  0  0
   14.7947  -11.2744  -14.4354 C   0  0  2  0  0  0  0  0  0  0  0  0
   14.6792  -12.6973  -14.3485 N   0  0  0  0  0  0  0  0  0  0  0  0
   15.6588  -10.7024  -13.3802 C   0  0  0  0  0  0  0  0  0  0  0  0
   15.6877  -11.1158  -12.2032 O   0  0  0  0  0  0  0  0  0  0  0  0
   21.1635   -7.7125  -14.1666 N   0  0  0  0  0  0  0  0  0  0  0  0
   20.8628   -7.5300  -12.8094 C   0  0  0  0  0  0  0  0  0  0  0  0
   21.7009   -7.0494  -12.0166 O   0  0  0  0  0  0  0  0  0  0  0  0
   19.5171   -7.9022  -12.2349 C   0  0  0  0  0  0  0  0  0  0  0  0
   18.6797   -8.5688  -13.2875 C   0  0  0  0  0  0  0  0  0  0  0  0
   17.3758   -8.9756  -12.7499 C   0  0  2  0  0  0  0  0  0  0  0  0
   16.5077   -9.6225  -13.7110 N   0  0  0  0  0  0  0  0  0  0  0  0
   16.5960   -7.9115  -12.1032 C   0  0  0  0  0  0  0  0  0  0  0  0
   15.9055   -7.1354  -12.7722 O   0  0  0  0  0  0  0  0  0  0  0  0
   12.9949   -9.0618   -7.7826 N   0  0  0  0  0  0  0  0  0  0  0  0
   12.9556   -7.6480   -7.6010 C   0  0  0  0  0  0  0  0  0  0  0  0
   12.1409   -7.1497   -6.7872 O   0  0  0  0  0  0  0  0  0  0  0  0
   13.8530   -6.7351   -8.3479 C   0  0  0  0  0  0  0  0  0  0  0  0
   14.8170   -7.5428   -9.1427 C   0  0  0  0  0  0  0  0  0  0  0  0
   15.7598   -6.7474  -10.0068 C   0  0  2  0  0  0  0  0  0  0  0  0
   16.6145   -7.7430  -10.6707 N   0  0  0  0  0  0  0  0  0  0  0  0
   16.5699   -5.7904   -9.2443 C   0  0  0  0  0  0  0  0  0  0  0  0
   17.7126   -6.0858   -8.7638 O   0  0  0  0  0  0  0  0  0  0  0  0
   16.1357   -4.5019   -9.0018 O   0  0  0  0  0  0  0  0  0  0  0  0
  2  1  1  1
  2  3  1  0
  2  4  1  0
  4 12  1  0
  4  5  2  0
  6  7  1  0
  7  9  1  0
  8  7  2  0
  9 10  1  0
 11 10  1  6
 11 13  1  0
 12 11  1  0
 13 21  1  0
 14 13  2  0
 16 15  1  0
 17 16  2  0
 18 16  1  0
 19 18  1  0
 20 19  1  1
 21 20  1  0
 22 20  1  0
 22 24  1  0
 23 22  2  0
M  END
$$$$
