YNK.pdb
     RDKit          3D

 30 30  0  0  1  0  0  0  0  0999 V2000
   23.7749  -21.7075   -7.1953 O   0  0  0  0  0  0  0  0  0  0  0  0
   24.1905  -21.2076   -8.4291 C   0  0  0  0  0  0  0  0  0  0  0  0
   23.2966  -20.8269   -9.4055 C   0  0  0  0  0  0  0  0  0  0  0  0
   23.7194  -20.3293  -10.6333 C   0  0  0  0  0  0  0  0  0  0  0  0
   25.0636  -20.1994  -10.9169 C   0  0  0  0  0  0  0  0  0  0  0  0
   25.4832  -19.6818  -12.2041 C   0  0  0  0  0  0  0  0  0  0  0  0
   25.0698  -20.4436  -13.4184 C   0  0  2  0  0  0  0  0  0  0  0  0
   25.4232  -21.8435  -13.2826 N   0  0  0  0  0  0  0  0  0  0  0  0
   25.4955  -19.8677  -14.7000 C   0  0  0  0  0  0  0  0  0  0  0  0
   25.1131  -18.6814  -14.9419 O   0  0  0  0  0  0  0  0  0  0  0  0
   25.9443  -20.5858   -9.9272 C   0  0  0  0  0  0  0  0  0  0  0  0
   25.5360  -21.0787   -8.7105 C   0  0  0  0  0  0  0  0  0  0  0  0
   29.3129  -19.6065  -19.3391 N   0  0  0  0  0  0  0  0  0  0  0  0
   28.4239  -19.0379  -18.4057 C   0  0  0  0  0  0  0  0  0  0  0  0
   27.8971  -17.9352  -18.6412 O   0  0  0  0  0  0  0  0  0  0  0  0
   28.1196  -19.7500  -17.1541 C   0  0  0  0  0  0  0  0  0  0  0  0
   26.6354  -19.9132  -16.9506 C   0  0  2  0  0  0  0  0  0  0  0  0
   26.2837  -20.4992  -15.6857 N   0  0  0  0  0  0  0  0  0  0  0  0
   26.1053  -20.6843  -18.1014 C   0  0  0  0  0  0  0  0  0  0  0  0
   26.1447  -21.9348  -18.0419 O   0  0  0  0  0  0  0  0  0  0  0  0
   25.5602  -20.0796  -19.2548 N   0  0  0  0  0  0  0  0  0  0  0  0
   24.2711  -20.4389  -19.8229 C   0  0  1  0  0  0  0  0  0  0  0  0
   23.2524  -20.1598  -18.7271 C   0  0  0  0  0  0  0  0  0  0  0  0
   22.5142  -21.3629  -18.2570 C   0  0  0  0  0  0  0  0  0  0  0  0
   21.5721  -20.9861  -17.1463 C   0  0  0  0  0  0  0  0  0  0  0  0
   20.6781  -22.1175  -16.7042 C   0  0  0  0  0  0  0  0  0  0  0  0
   19.9827  -21.6933  -15.4994 N   0  0  0  0  0  0  0  0  0  0  0  0
   23.9709  -19.6481  -21.0307 C   0  0  0  0  0  0  0  0  0  0  0  0
   23.3820  -20.1062  -22.0342 O   0  0  0  0  0  0  0  0  0  0  0  0
   24.3676  -18.3124  -21.0500 O   0  0  0  0  0  0  0  0  0  0  0  0
  2  1  1  0
  3  2  2  0
  4  3  1  0
  5  4  2  0
  5 11  1  0
  6  5  1  0
  7  6  1  0
  7  9  1  0
  7  8  1  1
  9 10  2  0
 11 12  2  0
 12  2  1  0
 13 14  1  0
 14 16  1  0
 14 15  2  0
 17 16  1  6
 18 17  1  0
 18  9  1  0
 19 17  1  0
 19 20  2  0
 21 19  1  0
 22 21  1  0
 22 28  1  0
 22 23  1  1
 24 23  1  0
 25 24  1  0
 26 25  1  0
 26 27  1  0
 28 29  2  0
 28 30  1  0
M  END
$$$$
