YNK.pdb
     RDKit          3D

 30 30  0  0  1  0  0  0  0  0999 V2000
   28.5944  -20.1166   -4.0646 O   0  0  0  0  0  0  0  0  0  0  0  0
   28.1634  -20.0460   -5.3891 C   0  0  0  0  0  0  0  0  0  0  0  0
   26.8815  -20.3840   -5.7628 C   0  0  0  0  0  0  0  0  0  0  0  0
   26.4597  -20.3107   -7.0859 C   0  0  0  0  0  0  0  0  0  0  0  0
   27.3216  -19.8924   -8.0790 C   0  0  0  0  0  0  0  0  0  0  0  0
   26.8629  -19.8265   -9.4524 C   0  0  0  0  0  0  0  0  0  0  0  0
   26.7931  -21.1067  -10.2152 C   0  0  2  0  0  0  0  0  0  0  0  0
   28.1020  -21.7275  -10.2836 N   0  0  0  0  0  0  0  0  0  0  0  0
   26.1285  -21.0273  -11.5218 C   0  0  0  0  0  0  0  0  0  0  0  0
   26.8161  -20.5534  -12.4783 O   0  0  0  0  0  0  0  0  0  0  0  0
   28.6016  -19.5581   -7.6862 C   0  0  0  0  0  0  0  0  0  0  0  0
   29.0277  -19.6272   -6.3810 C   0  0  0  0  0  0  0  0  0  0  0  0
   24.6214  -23.9124  -12.5037 N   0  0  0  0  0  0  0  0  0  0  0  0
   25.0611  -23.4800  -13.7703 C   0  0  0  0  0  0  0  0  0  0  0  0
   25.6481  -24.2733  -14.5285 O   0  0  0  0  0  0  0  0  0  0  0  0
   24.8244  -22.0906  -14.1944 C   0  0  0  0  0  0  0  0  0  0  0  0
   24.1784  -21.2757  -13.1036 C   0  0  2  0  0  0  0  0  0  0  0  0
   24.8069  -21.4232  -11.8190 N   0  0  0  0  0  0  0  0  0  0  0  0
   22.7371  -21.6245  -13.0748 C   0  0  0  0  0  0  0  0  0  0  0  0
   22.1953  -21.8018  -11.9594 O   0  0  0  0  0  0  0  0  0  0  0  0
   21.9497  -21.7646  -14.2382 N   0  0  0  0  0  0  0  0  0  0  0  0
   20.7561  -20.9788  -14.5055 C   0  0  1  0  0  0  0  0  0  0  0  0
   21.2215  -19.5301  -14.5340 C   0  0  0  0  0  0  0  0  0  0  0  0
   20.1399  -18.5451  -14.8050 C   0  0  0  0  0  0  0  0  0  0  0  0
   20.2198  -17.4106  -13.8204 C   0  0  0  0  0  0  0  0  0  0  0  0
   19.1043  -17.4136  -12.8053 C   0  0  0  0  0  0  0  0  0  0  0  0
   19.3415  -16.3194  -11.8769 N   0  0  0  0  0  0  0  0  0  0  0  0
   20.1351  -21.3547  -15.7889 C   0  0  0  0  0  0  0  0  0  0  0  0
   20.7590  -21.8796  -16.7370 O   0  0  0  0  0  0  0  0  0  0  0  0
   18.7727  -21.1096  -15.9498 O   0  0  0  0  0  0  0  0  0  0  0  0
  2  1  1  0
  3  2  2  0
  4  3  1  0
  5  4  2  0
  5 11  1  0
  6  5  1  0
  7  6  1  0
  7  9  1  0
  7  8  1  6
  9 10  2  0
 11 12  2  0
 12  2  1  0
 13 14  1  0
 14 16  1  0
 14 15  2  0
 17 16  1  6
 18 17  1  0
 18  9  1  0
 19 17  1  0
 19 20  2  0
 21 19  1  0
 22 21  1  0
 22 28  1  0
 22 23  1  6
 24 23  1  0
 25 24  1  0
 26 25  1  0
 26 27  1  0
 28 29  2  0
 28 30  1  0
M  END
$$$$
