YNK.pdb
     RDKit          3D

 30 30  0  0  1  0  0  0  0  0999 V2000
   31.2355  -22.0532   -9.4049 O   0  0  0  0  0  0  0  0  0  0  0  0
   30.2724  -21.4563  -10.2180 C   0  0  0  0  0  0  0  0  0  0  0  0
   28.9464  -21.8271  -10.1784 C   0  0  0  0  0  0  0  0  0  0  0  0
   27.9923  -21.2267  -10.9927 C   0  0  0  0  0  0  0  0  0  0  0  0
   28.3468  -20.2287  -11.8773 C   0  0  0  0  0  0  0  0  0  0  0  0
   27.3374  -19.6184  -12.7196 C   0  0  0  0  0  0  0  0  0  0  0  0
   27.0913  -20.2372  -14.0546 C   0  0  2  0  0  0  0  0  0  0  0  0
   28.3284  -20.3298  -14.8057 N   0  0  0  0  0  0  0  0  0  0  0  0
   25.9935  -19.6475  -14.8307 C   0  0  0  0  0  0  0  0  0  0  0  0
   26.2502  -18.5637  -15.4403 O   0  0  0  0  0  0  0  0  0  0  0  0
   29.6794  -19.8705  -11.9033 C   0  0  0  0  0  0  0  0  0  0  0  0
   30.6297  -20.4580  -11.1023 C   0  0  0  0  0  0  0  0  0  0  0  0
   23.1579  -18.2531  -18.6869 N   0  0  0  0  0  0  0  0  0  0  0  0
   23.3373  -19.6270  -18.4322 C   0  0  0  0  0  0  0  0  0  0  0  0
   22.6905  -20.4690  -19.0815 O   0  0  0  0  0  0  0  0  0  0  0  0
   24.2901  -20.0635  -17.3989 C   0  0  0  0  0  0  0  0  0  0  0  0
   23.7680  -19.7998  -16.0100 C   0  0  2  0  0  0  0  0  0  0  0  0
   24.6867  -20.1631  -14.9656 N   0  0  0  0  0  0  0  0  0  0  0  0
   22.4607  -20.4886  -15.8823 C   0  0  0  0  0  0  0  0  0  0  0  0
   22.4626  -21.7220  -15.6643 O   0  0  0  0  0  0  0  0  0  0  0  0
   21.2200  -19.8241  -15.9931 N   0  0  0  0  0  0  0  0  0  0  0  0
   19.9344  -20.4763  -15.8048 C   0  0  1  0  0  0  0  0  0  0  0  0
   18.9068  -19.3538  -15.7960 C   0  0  0  0  0  0  0  0  0  0  0  0
   19.0275  -18.4046  -16.9352 C   0  0  0  0  0  0  0  0  0  0  0  0
   17.9479  -17.3604  -16.8504 C   0  0  0  0  0  0  0  0  0  0  0  0
   17.9100  -16.4345  -18.0405 C   0  0  0  0  0  0  0  0  0  0  0  0
   16.9563  -15.3749  -17.7524 N   0  0  0  0  0  0  0  0  0  0  0  0
   19.6502  -21.4380  -16.8859 C   0  0  0  0  0  0  0  0  0  0  0  0
   20.2882  -21.4863  -17.9602 O   0  0  0  0  0  0  0  0  0  0  0  0
   18.6094  -22.3446  -16.6942 O   0  0  0  0  0  0  0  0  0  0  0  0
  2  1  1  0
  3  2  2  0
  4  3  1  0
  5  4  2  0
  5 11  1  0
  6  5  1  0
  7  6  1  0
  7  9  1  0
  7  8  1  6
  9 10  2  0
 11 12  2  0
 12  2  1  0
 13 14  1  0
 14 16  1  0
 14 15  2  0
 17 16  1  6
 18 17  1  0
 18  9  1  0
 19 17  1  0
 19 20  2  0
 21 19  1  0
 22 21  1  0
 22 28  1  0
 22 23  1  6
 24 23  1  0
 25 24  1  0
 26 25  1  0
 26 27  1  0
 28 29  2  0
 28 30  1  0
M  END
$$$$
