YNK.pdb
     RDKit          3D

 30 30  0  0  1  0  0  0  0  0999 V2000
   17.4058  -24.6497  -11.6675 O   0  0  0  0  0  0  0  0  0  0  0  0
   18.4478  -24.2149  -12.4861 C   0  0  0  0  0  0  0  0  0  0  0  0
   19.5507  -24.9974  -12.7481 C   0  0  0  0  0  0  0  0  0  0  0  0
   20.5856  -24.5563  -13.5656 C   0  0  0  0  0  0  0  0  0  0  0  0
   20.5409  -23.3059  -14.1476 C   0  0  0  0  0  0  0  0  0  0  0  0
   21.6317  -22.8640  -14.9936 C   0  0  0  0  0  0  0  0  0  0  0  0
   22.9112  -22.4888  -14.3245 C   0  0  2  0  0  0  0  0  0  0  0  0
   22.7584  -21.2398  -13.6036 N   0  0  0  0  0  0  0  0  0  0  0  0
   24.1025  -22.5122  -15.1822 C   0  0  0  0  0  0  0  0  0  0  0  0
   24.5433  -21.3861  -15.5689 O   0  0  0  0  0  0  0  0  0  0  0  0
   19.4288  -22.5360  -13.8738 C   0  0  0  0  0  0  0  0  0  0  0  0
   18.4009  -22.9633  -13.0672 C   0  0  0  0  0  0  0  0  0  0  0  0
   28.2215  -23.4698  -18.0159 N   0  0  0  0  0  0  0  0  0  0  0  0
   28.3824  -23.9672  -16.7077 C   0  0  0  0  0  0  0  0  0  0  0  0
   29.5210  -24.2260  -16.2769 O   0  0  0  0  0  0  0  0  0  0  0  0
   27.2031  -24.1789  -15.8529 C   0  0  0  0  0  0  0  0  0  0  0  0
   25.9489  -23.6336  -16.4859 C   0  0  2  0  0  0  0  0  0  0  0  0
   24.8029  -23.6572  -15.6182 N   0  0  0  0  0  0  0  0  0  0  0  0
   25.7215  -24.3782  -17.7483 C   0  0  0  0  0  0  0  0  0  0  0  0
   25.3447  -25.5702  -17.6704 O   0  0  0  0  0  0  0  0  0  0  0  0
   25.9075  -23.8108  -19.0276 N   0  0  0  0  0  0  0  0  0  0  0  0
   25.6056  -24.5026  -20.2701 C   0  0  1  0  0  0  0  0  0  0  0  0
   25.5720  -23.4206  -21.3398 C   0  0  0  0  0  0  0  0  0  0  0  0
   24.3326  -22.5975  -21.3390 C   0  0  0  0  0  0  0  0  0  0  0  0
   24.6283  -21.2233  -21.8750 C   0  0  0  0  0  0  0  0  0  0  0  0
   23.4552  -20.2788  -21.7924 C   0  0  0  0  0  0  0  0  0  0  0  0
   23.8667  -19.0043  -22.3595 N   0  0  0  0  0  0  0  0  0  0  0  0
   26.6249  -25.5201  -20.5863 C   0  0  0  0  0  0  0  0  0  0  0  0
   26.3821  -26.5809  -21.2022 O   0  0  0  0  0  0  0  0  0  0  0  0
   27.9343  -25.2806  -20.1736 O   0  0  0  0  0  0  0  0  0  0  0  0
  2  1  1  0
  3  2  2  0
  4  3  1  0
  5  4  2  0
  5 11  1  0
  6  5  1  0
  7  6  1  0
  7  9  1  0
  7  8  1  6
  9 10  2  0
 11 12  2  0
 12  2  1  0
 13 14  1  0
 14 16  1  0
 14 15  2  0
 17 16  1  1
 18 17  1  0
 18  9  1  0
 19 17  1  0
 19 20  2  0
 21 19  1  0
 22 21  1  0
 22 28  1  0
 22 23  1  6
 24 23  1  0
 25 24  1  0
 26 25  1  0
 26 27  1  0
 28 29  2  0
 28 30  1  0
M  END
$$$$
