YNK.pdb
     RDKit          3D

 30 30  0  0  1  0  0  0  0  0999 V2000
   30.4710  -16.2978  -18.9700 O   0  0  0  0  0  0  0  0  0  0  0  0
   29.5107  -16.9276  -18.1787 C   0  0  0  0  0  0  0  0  0  0  0  0
   28.2307  -17.1657  -18.6281 C   0  0  0  0  0  0  0  0  0  0  0  0
   27.2790  -17.7944  -17.8325 C   0  0  0  0  0  0  0  0  0  0  0  0
   27.5894  -18.2046  -16.5521 C   0  0  0  0  0  0  0  0  0  0  0  0
   26.5818  -18.8549  -15.7380 C   0  0  0  0  0  0  0  0  0  0  0  0
   26.9295  -20.1772  -15.1413 C   0  0  2  0  0  0  0  0  0  0  0  0
   27.3261  -21.1116  -16.1770 N   0  0  0  0  0  0  0  0  0  0  0  0
   25.9329  -20.7349  -14.2187 C   0  0  0  0  0  0  0  0  0  0  0  0
   25.3063  -21.7645  -14.6178 O   0  0  0  0  0  0  0  0  0  0  0  0
   28.8762  -17.9575  -16.1188 C   0  0  0  0  0  0  0  0  0  0  0  0
   29.8237  -17.3370  -16.8978 C   0  0  0  0  0  0  0  0  0  0  0  0
   26.7128  -21.8841  -10.7683 N   0  0  0  0  0  0  0  0  0  0  0  0
   25.9275  -20.9708  -10.0377 C   0  0  0  0  0  0  0  0  0  0  0  0
   26.2620  -20.6483   -8.8831 O   0  0  0  0  0  0  0  0  0  0  0  0
   24.7133  -20.3993  -10.6420 C   0  0  0  0  0  0  0  0  0  0  0  0
   24.5758  -20.7857  -12.0921 C   0  0  2  0  0  0  0  0  0  0  0  0
   25.6034  -20.2420  -12.9380 N   0  0  0  0  0  0  0  0  0  0  0  0
   23.2132  -20.4002  -12.5334 C   0  0  0  0  0  0  0  0  0  0  0  0
   22.9381  -19.1801  -12.6007 O   0  0  0  0  0  0  0  0  0  0  0  0
   22.2163  -21.3377  -12.8806 N   0  0  0  0  0  0  0  0  0  0  0  0
   20.8770  -20.9709  -13.3109 C   0  0  1  0  0  0  0  0  0  0  0  0
   20.4999  -21.9888  -14.3776 C   0  0  0  0  0  0  0  0  0  0  0  0
   19.1335  -21.8102  -14.9382 C   0  0  0  0  0  0  0  0  0  0  0  0
   18.9011  -22.7971  -16.0495 C   0  0  0  0  0  0  0  0  0  0  0  0
   17.7815  -22.4041  -16.9805 C   0  0  0  0  0  0  0  0  0  0  0  0
   16.5986  -22.1474  -16.1740 N   0  0  0  0  0  0  0  0  0  0  0  0
   19.9184  -21.0065  -12.1910 C   0  0  0  0  0  0  0  0  0  0  0  0
   18.8981  -20.2865  -12.1247 O   0  0  0  0  0  0  0  0  0  0  0  0
   20.1676  -21.8968  -11.1483 O   0  0  0  0  0  0  0  0  0  0  0  0
  2  1  1  0
  3  2  2  0
  4  3  1  0
  5  4  2  0
  5 11  1  0
  6  5  1  0
  7  6  1  0
  7  9  1  0
  7  8  1  6
  9 10  2  0
 11 12  2  0
 12  2  1  0
 13 14  1  0
 14 16  1  0
 14 15  2  0
 17 16  1  1
 18 17  1  0
 18  9  1  0
 19 17  1  0
 19 20  2  0
 21 19  1  0
 22 21  1  0
 22 28  1  0
 22 23  1  6
 24 23  1  0
 25 24  1  0
 26 25  1  0
 26 27  1  0
 28 29  2  0
 28 30  1  0
M  END
$$$$
