YNK.pdb
     RDKit          3D

 30 30  0  0  1  0  0  0  0  0999 V2000
   36.3730  -36.3208  -18.8685 O   0  0  0  0  0  0  0  0  0  0  0  0
   35.6732  -35.1381  -18.6310 C   0  0  0  0  0  0  0  0  0  0  0  0
   36.2413  -34.0682  -17.9754 C   0  0  0  0  0  0  0  0  0  0  0  0
   35.5365  -32.8922  -17.7425 C   0  0  0  0  0  0  0  0  0  0  0  0
   34.2299  -32.7573  -18.1653 C   0  0  0  0  0  0  0  0  0  0  0  0
   33.5119  -31.5245  -17.9094 C   0  0  0  0  0  0  0  0  0  0  0  0
   33.6471  -30.4299  -18.9140 C   0  0  2  0  0  0  0  0  0  0  0  0
   34.9437  -29.7913  -18.7958 N   0  0  0  0  0  0  0  0  0  0  0  0
   32.5376  -29.4692  -18.9538 C   0  0  0  0  0  0  0  0  0  0  0  0
   32.8472  -28.2428  -18.8433 O   0  0  0  0  0  0  0  0  0  0  0  0
   33.6772  -33.8392  -18.8200 C   0  0  0  0  0  0  0  0  0  0  0  0
   34.3658  -35.0056  -19.0549 C   0  0  0  0  0  0  0  0  0  0  0  0
   29.6468  -25.6851  -20.9929 N   0  0  0  0  0  0  0  0  0  0  0  0
   29.3802  -27.0684  -21.0051 C   0  0  0  0  0  0  0  0  0  0  0  0
   28.2383  -27.4787  -21.2819 O   0  0  0  0  0  0  0  0  0  0  0  0
   30.4533  -28.0253  -20.6910 C   0  0  0  0  0  0  0  0  0  0  0  0
   30.1504  -28.8151  -19.4438 C   0  0  2  0  0  0  0  0  0  0  0  0
   31.1672  -29.7722  -19.1013 N   0  0  0  0  0  0  0  0  0  0  0  0
   28.8172  -29.4406  -19.6199 C   0  0  0  0  0  0  0  0  0  0  0  0
   28.7330  -30.4541  -20.3511 O   0  0  0  0  0  0  0  0  0  0  0  0
   27.6440  -28.9517  -19.0053 N   0  0  0  0  0  0  0  0  0  0  0  0
   26.3506  -29.6096  -19.0948 C   0  0  1  0  0  0  0  0  0  0  0  0
   25.4552  -28.8820  -18.1022 C   0  0  0  0  0  0  0  0  0  0  0  0
   24.0713  -29.4214  -18.0169 C   0  0  0  0  0  0  0  0  0  0  0  0
   23.2862  -28.6604  -16.9836 C   0  0  0  0  0  0  0  0  0  0  0  0
   21.8309  -29.0519  -16.9234 C   0  0  0  0  0  0  0  0  0  0  0  0
   21.1592  -28.1375  -16.0133 N   0  0  0  0  0  0  0  0  0  0  0  0
   25.7943  -29.5297  -20.4580 C   0  0  0  0  0  0  0  0  0  0  0  0
   25.8534  -28.5071  -21.1753 O   0  0  0  0  0  0  0  0  0  0  0  0
   25.1679  -30.6628  -20.9734 O   0  0  0  0  0  0  0  0  0  0  0  0
  2  1  1  0
  3  2  2  0
  4  3  1  0
  5  4  2  0
  5 11  1  0
  6  5  1  0
  7  6  1  0
  7  9  1  0
  7  8  1  1
  9 10  2  0
 11 12  2  0
 12  2  1  0
 13 14  1  0
 14 16  1  0
 14 15  2  0
 17 16  1  6
 18 17  1  0
 18  9  1  0
 19 17  1  0
 19 20  2  0
 21 19  1  0
 22 21  1  0
 22 28  1  0
 22 23  1  1
 24 23  1  0
 25 24  1  0
 26 25  1  0
 26 27  1  0
 28 29  2  0
 28 30  1  0
M  END
$$$$
