YNK.pdb
     RDKit          3D

 30 30  0  0  1  0  0  0  0  0999 V2000
   25.6709  -20.9793   -7.5019 O   0  0  0  0  0  0  0  0  0  0  0  0
   25.3248  -20.8106   -8.8423 C   0  0  0  0  0  0  0  0  0  0  0  0
   26.1826  -21.1392   -9.8687 C   0  0  0  0  0  0  0  0  0  0  0  0
   25.8297  -20.9679  -11.2029 C   0  0  0  0  0  0  0  0  0  0  0  0
   24.5946  -20.4570  -11.5460 C   0  0  0  0  0  0  0  0  0  0  0  0
   24.2478  -20.2831  -12.9426 C   0  0  0  0  0  0  0  0  0  0  0  0
   22.9325  -20.8217  -13.3957 C   0  0  2  0  0  0  0  0  0  0  0  0
   22.8446  -22.2426  -13.1190 N   0  0  0  0  0  0  0  0  0  0  0  0
   22.5521  -20.4824  -14.7725 C   0  0  0  0  0  0  0  0  0  0  0  0
   22.7190  -21.3893  -15.6453 O   0  0  0  0  0  0  0  0  0  0  0  0
   23.7486  -20.1333  -10.5047 C   0  0  0  0  0  0  0  0  0  0  0  0
   24.0884  -20.2992   -9.1831 C   0  0  0  0  0  0  0  0  0  0  0  0
   20.7419  -18.4799  -19.1167 N   0  0  0  0  0  0  0  0  0  0  0  0
   20.3306  -17.5712  -18.1218 C   0  0  0  0  0  0  0  0  0  0  0  0
   19.5768  -16.6259  -18.4169 O   0  0  0  0  0  0  0  0  0  0  0  0
   20.7929  -17.7425  -16.7351 C   0  0  0  0  0  0  0  0  0  0  0  0
   21.6559  -18.9683  -16.5811 C   0  0  2  0  0  0  0  0  0  0  0  0
   22.0221  -19.2535  -15.2204 N   0  0  0  0  0  0  0  0  0  0  0  0
   22.8358  -18.8020  -17.4644 C   0  0  0  0  0  0  0  0  0  0  0  0
   23.4656  -17.7207  -17.4100 O   0  0  0  0  0  0  0  0  0  0  0  0
   23.2817  -19.7993  -18.3587 N   0  0  0  0  0  0  0  0  0  0  0  0
   24.4375  -19.6473  -19.2274 C   0  0  1  0  0  0  0  0  0  0  0  0
   25.3206  -20.8538  -18.9432 C   0  0  0  0  0  0  0  0  0  0  0  0
   24.7989  -21.7580  -17.8832 C   0  0  0  0  0  0  0  0  0  0  0  0
   25.6114  -23.0234  -17.8417 C   0  0  0  0  0  0  0  0  0  0  0  0
   25.0469  -24.0723  -16.9165 C   0  0  0  0  0  0  0  0  0  0  0  0
   25.9068  -25.2430  -16.9901 N   0  0  0  0  0  0  0  0  0  0  0  0
   24.0467  -19.6076  -20.6486 C   0  0  0  0  0  0  0  0  0  0  0  0
   24.8523  -19.4245  -21.5873 O   0  0  0  0  0  0  0  0  0  0  0  0
   22.6999  -19.7859  -20.9592 O   0  0  0  0  0  0  0  0  0  0  0  0
  2  1  1  0
  3  2  2  0
  4  3  1  0
  5  4  2  0
  5 11  1  0
  6  5  1  0
  7  6  1  0
  7  9  1  0
  7  8  1  6
  9 10  2  0
 11 12  2  0
 12  2  1  0
 13 14  1  0
 14 16  1  0
 14 15  2  0
 17 16  1  1
 18 17  1  0
 18  9  1  0
 19 17  1  0
 19 20  2  0
 21 19  1  0
 22 21  1  0
 22 28  1  0
 22 23  1  6
 24 23  1  0
 25 24  1  0
 26 25  1  0
 26 27  1  0
 28 29  2  0
 28 30  1  0
M  END
$$$$
