YNK.pdb
     RDKit          3D

 30 30  0  0  1  0  0  0  0  0999 V2000
   28.3876  -11.9358  -17.1678 O   0  0  0  0  0  0  0  0  0  0  0  0
   27.7323  -13.1056  -16.7841 C   0  0  0  0  0  0  0  0  0  0  0  0
   27.7732  -13.5794  -15.4914 C   0  0  0  0  0  0  0  0  0  0  0  0
   27.1168  -14.7469  -15.1170 C   0  0  0  0  0  0  0  0  0  0  0  0
   26.3951  -15.4772  -16.0389 C   0  0  0  0  0  0  0  0  0  0  0  0
   25.7212  -16.6932  -15.6288 C   0  0  0  0  0  0  0  0  0  0  0  0
   26.5737  -17.8682  -15.2851 C   0  0  2  0  0  0  0  0  0  0  0  0
   27.3116  -18.3166  -16.4501 N   0  0  0  0  0  0  0  0  0  0  0  0
   25.8883  -18.9622  -14.5860 C   0  0  0  0  0  0  0  0  0  0  0  0
   25.4349  -19.9006  -15.3112 O   0  0  0  0  0  0  0  0  0  0  0  0
   26.3655  -14.9875  -17.3289 C   0  0  0  0  0  0  0  0  0  0  0  0
   27.0109  -13.8347  -17.7084 C   0  0  0  0  0  0  0  0  0  0  0  0
   24.6813  -21.6509   -9.0862 N   0  0  0  0  0  0  0  0  0  0  0  0
   24.6319  -21.4507  -10.4798 C   0  0  0  0  0  0  0  0  0  0  0  0
   24.0319  -22.2659  -11.2039 O   0  0  0  0  0  0  0  0  0  0  0  0
   25.2897  -20.2769  -11.0762 C   0  0  0  0  0  0  0  0  0  0  0  0
   25.0059  -20.1670  -12.5522 C   0  0  2  0  0  0  0  0  0  0  0  0
   25.6837  -19.0736  -13.1940 N   0  0  0  0  0  0  0  0  0  0  0  0
   23.5341  -20.1030  -12.7239 C   0  0  0  0  0  0  0  0  0  0  0  0
   22.9542  -19.0276  -12.4478 O   0  0  0  0  0  0  0  0  0  0  0  0
   22.7588  -21.1901  -13.1823 N   0  0  0  0  0  0  0  0  0  0  0  0
   21.3175  -21.1348  -13.3645 C   0  0  1  0  0  0  0  0  0  0  0  0
   20.9879  -22.2563  -14.3391 C   0  0  0  0  0  0  0  0  0  0  0  0
   21.0012  -23.6157  -13.7348 C   0  0  0  0  0  0  0  0  0  0  0  0
   20.7157  -24.6495  -14.7897 C   0  0  0  0  0  0  0  0  0  0  0  0
   20.6956  -26.0616  -14.2601 C   0  0  0  0  0  0  0  0  0  0  0  0
   20.4486  -26.9558  -15.3803 N   0  0  0  0  0  0  0  0  0  0  0  0
   20.6016  -21.3221  -12.0891 C   0  0  0  0  0  0  0  0  0  0  0  0
   21.1004  -21.8772  -11.0857 O   0  0  0  0  0  0  0  0  0  0  0  0
   19.2933  -20.8504  -12.0010 O   0  0  0  0  0  0  0  0  0  0  0  0
  2  1  1  0
  3  2  2  0
  4  3  1  0
  5  4  2  0
  5 11  1  0
  6  5  1  0
  7  6  1  0
  7  9  1  0
  7  8  1  6
  9 10  2  0
 11 12  2  0
 12  2  1  0
 13 14  1  0
 14 16  1  0
 14 15  2  0
 17 16  1  1
 18 17  1  0
 18  9  1  0
 19 17  1  0
 19 20  2  0
 21 19  1  0
 22 21  1  0
 22 28  1  0
 22 23  1  6
 24 23  1  0
 25 24  1  0
 26 25  1  0
 26 27  1  0
 28 29  2  0
 28 30  1  0
M  END
$$$$
