YNK.pdb
     RDKit          3D

 30 30  0  0  1  0  0  0  0  0999 V2000
   19.6368  -23.1204   -6.6999 O   0  0  0  0  0  0  0  0  0  0  0  0
   20.4916  -22.4872   -7.6018 C   0  0  0  0  0  0  0  0  0  0  0  0
   20.5023  -22.7968   -8.9439 C   0  0  0  0  0  0  0  0  0  0  0  0
   21.3579  -22.1605   -9.8366 C   0  0  0  0  0  0  0  0  0  0  0  0
   22.2343  -21.1874   -9.4021 C   0  0  0  0  0  0  0  0  0  0  0  0
   23.1203  -20.5389  -10.3484 C   0  0  0  0  0  0  0  0  0  0  0  0
   24.4324  -21.1945  -10.6209 C   0  0  2  0  0  0  0  0  0  0  0  0
   25.2890  -21.1178   -9.4533 N   0  0  0  0  0  0  0  0  0  0  0  0
   25.1064  -20.7690  -11.8539 C   0  0  0  0  0  0  0  0  0  0  0  0
   25.7897  -19.7011  -11.7854 O   0  0  0  0  0  0  0  0  0  0  0  0
   22.2098  -20.8905   -8.0545 C   0  0  0  0  0  0  0  0  0  0  0  0
   21.3678  -21.5138   -7.1645 C   0  0  0  0  0  0  0  0  0  0  0  0
   27.2786  -20.1468  -16.4056 N   0  0  0  0  0  0  0  0  0  0  0  0
   27.5398  -21.4479  -15.9326 C   0  0  0  0  0  0  0  0  0  0  0  0
   28.4340  -22.1334  -16.4611 O   0  0  0  0  0  0  0  0  0  0  0  0
   26.7546  -21.9933  -14.8135 C   0  0  0  0  0  0  0  0  0  0  0  0
   25.7696  -20.9859  -14.2787 C   0  0  2  0  0  0  0  0  0  0  0  0
   25.0699  -21.4260  -13.1024 N   0  0  0  0  0  0  0  0  0  0  0  0
   24.8504  -20.6240  -15.3850 C   0  0  0  0  0  0  0  0  0  0  0  0
   24.1426  -21.5291  -15.8838 O   0  0  0  0  0  0  0  0  0  0  0  0
   24.7344  -19.3146  -15.8999 N   0  0  0  0  0  0  0  0  0  0  0  0
   23.8024  -18.9392  -16.9506 C   0  0  1  0  0  0  0  0  0  0  0  0
   23.9365  -17.4298  -17.0924 C   0  0  0  0  0  0  0  0  0  0  0  0
   22.7279  -16.7567  -17.6397 C   0  0  0  0  0  0  0  0  0  0  0  0
   22.9807  -15.2803  -17.7785 C   0  0  0  0  0  0  0  0  0  0  0  0
   21.8389  -14.5306  -18.4180 C   0  0  0  0  0  0  0  0  0  0  0  0
   22.1703  -13.1145  -18.4044 N   0  0  0  0  0  0  0  0  0  0  0  0
   24.1178  -19.6147  -18.2228 C   0  0  0  0  0  0  0  0  0  0  0  0
   25.2767  -19.7421  -18.6747 O   0  0  0  0  0  0  0  0  0  0  0  0
   23.0593  -20.1412  -18.9606 O   0  0  0  0  0  0  0  0  0  0  0  0
  2  1  1  0
  3  2  2  0
  4  3  1  0
  5  4  2  0
  5 11  1  0
  6  5  1  0
  7  6  1  0
  7  9  1  0
  7  8  1  1
  9 10  2  0
 11 12  2  0
 12  2  1  0
 13 14  1  0
 14 16  1  0
 14 15  2  0
 17 16  1  6
 18 17  1  0
 18  9  1  0
 19 17  1  0
 19 20  2  0
 21 19  1  0
 22 21  1  0
 22 28  1  0
 22 23  1  6
 24 23  1  0
 25 24  1  0
 26 25  1  0
 26 27  1  0
 28 29  2  0
 28 30  1  0
M  END
$$$$
