CTK.pdb
     RDKit          3D

 23 22  0  0  1  0  0  0  0  0999 V2000
   21.2320  -13.2066  -18.5056 N   0  0  0  0  0  0  0  0  0  0  0  0
   22.0739  -12.0888  -18.2081 C   0  0  1  0  0  0  0  0  0  0  0  0
   23.0866  -11.8315  -19.3031 C   0  0  0  0  0  0  0  0  0  0  0  0
   24.2954  -13.1959  -19.2836 S   0  0  0  0  0  0  0  0  0  0  0  0
   21.2850  -10.8492  -17.9358 C   0  0  0  0  0  0  0  0  0  0  0  0
   20.4091  -10.4926  -18.7656 O   0  0  0  0  0  0  0  0  0  0  0  0
   18.8256  -10.4589  -16.0243 C   0  0  0  0  0  0  0  0  0  0  0  0
   19.6769   -9.3550  -15.3873 C   0  0  1  0  0  0  0  0  0  0  0  0
   20.3863   -9.9598  -14.3554 O   0  0  0  0  0  0  0  0  0  0  0  0
   20.6458   -8.9017  -16.4795 C   0  0  2  0  0  0  0  0  0  0  0  0
   21.4726  -10.0537  -16.7899 N   0  0  0  0  0  0  0  0  0  0  0  0
   21.4571   -7.7465  -16.0309 C   0  0  0  0  0  0  0  0  0  0  0  0
   22.6269   -7.9655  -15.6225 O   0  0  0  0  0  0  0  0  0  0  0  0
   20.9276   -6.4303  -16.0618 N   0  0  0  0  0  0  0  0  0  0  0  0
   21.6855   -5.3039  -15.5684 C   0  0  1  0  0  0  0  0  0  0  0  0
   21.1554   -4.0791  -16.2081 C   0  0  0  0  0  0  0  0  0  0  0  0
   21.7783   -2.7923  -15.8197 C   0  0  0  0  0  0  0  0  0  0  0  0
   21.2055   -1.6026  -16.5697 C   0  0  0  0  0  0  0  0  0  0  0  0
   21.9508   -0.3334  -16.1749 C   0  0  0  0  0  0  0  0  0  0  0  0
   21.5391    0.7018  -17.1045 N   0  0  0  0  0  0  0  0  0  0  0  0
   21.7224   -5.3377  -14.1230 C   0  0  0  0  0  0  0  0  0  0  0  0
   20.8211   -5.7807  -13.3650 O   0  0  0  0  0  0  0  0  0  0  0  0
   22.8445   -4.8425  -13.4714 O   0  0  0  0  0  0  0  0  0  0  0  0
  2  1  1  6
  2  3  1  0
  4  3  1  0
  5  2  1  0
  5  6  2  0
  8  7  1  6
  8 10  1  0
  9  8  1  0
 10 11  1  1
 10 12  1  0
 11  5  1  0
 12 14  1  0
 13 12  2  0
 14 15  1  0
 15 21  1  0
 16 17  1  0
 15 16  1  1
 18 19  1  0
 18 17  1  0
 20 19  1  0
 21 22  2  0
 21 23  1  0
M  END
$$$$
