CTK.pdb
     RDKit          3D

 23 22  0  0  1  0  0  0  0  0999 V2000
   24.2921  -19.9769  -15.5550 N   0  0  0  0  0  0  0  0  0  0  0  0
   23.5406  -19.0047  -16.2877 C   0  0  1  0  0  0  0  0  0  0  0  0
   22.1100  -19.4436  -16.5145 C   0  0  0  0  0  0  0  0  0  0  0  0
   22.1219  -20.7848  -17.7490 S   0  0  0  0  0  0  0  0  0  0  0  0
   23.5687  -17.6626  -15.6309 C   0  0  0  0  0  0  0  0  0  0  0  0
   23.3486  -17.5873  -14.3944 O   0  0  0  0  0  0  0  0  0  0  0  0
   26.0767  -15.8488  -14.8514 C   0  0  0  0  0  0  0  0  0  0  0  0
   25.3637  -14.7673  -15.6706 C   0  0  1  0  0  0  0  0  0  0  0  0
   25.8837  -14.8504  -16.9576 O   0  0  0  0  0  0  0  0  0  0  0  0
   23.8888  -15.1693  -15.6860 C   0  0  2  0  0  0  0  0  0  0  0  0
   23.8309  -16.4692  -16.3295 N   0  0  0  0  0  0  0  0  0  0  0  0
   23.0666  -14.1648  -16.3992 C   0  0  0  0  0  0  0  0  0  0  0  0
   22.8291  -14.3511  -17.6208 O   0  0  0  0  0  0  0  0  0  0  0  0
   22.5619  -13.0246  -15.7217 N   0  0  0  0  0  0  0  0  0  0  0  0
   21.8335  -11.9942  -16.4248 C   0  0  1  0  0  0  0  0  0  0  0  0
   20.4040  -12.1139  -16.0611 C   0  0  0  0  0  0  0  0  0  0  0  0
   19.4629  -11.1697  -16.7073 C   0  0  0  0  0  0  0  0  0  0  0  0
   18.0163  -11.4043  -16.3094 C   0  0  0  0  0  0  0  0  0  0  0  0
   17.1026  -10.4858  -17.1117 C   0  0  0  0  0  0  0  0  0  0  0  0
   15.7410  -10.8070  -16.7267 N   0  0  0  0  0  0  0  0  0  0  0  0
   22.4707  -10.7140  -16.2086 C   0  0  0  0  0  0  0  0  0  0  0  0
   23.3729  -10.4635  -15.3680 O   0  0  0  0  0  0  0  0  0  0  0  0
   22.0762   -9.6316  -16.9843 O   0  0  0  0  0  0  0  0  0  0  0  0
  2  1  1  1
  2  3  1  0
  4  3  1  0
  5  2  1  0
  5  6  2  0
  8  7  1  1
  8 10  1  0
  9  8  1  0
 10 11  1  6
 10 12  1  0
 11  5  1  0
 12 14  1  0
 13 12  2  0
 14 15  1  0
 15 21  1  0
 16 17  1  0
 15 16  1  1
 18 19  1  0
 18 17  1  0
 20 19  1  0
 21 22  2  0
 21 23  1  0
M  END
$$$$
