CTK.pdb
     RDKit          3D

 23 22  0  0  1  0  0  0  0  0999 V2000
   22.5410  -20.4639  -14.8008 N   0  0  0  0  0  0  0  0  0  0  0  0
   21.3118  -20.2525  -14.0999 C   0  0  1  0  0  0  0  0  0  0  0  0
   20.1575  -20.9948  -14.7382 C   0  0  0  0  0  0  0  0  0  0  0  0
   19.7543  -20.1638  -16.3098 S   0  0  0  0  0  0  0  0  0  0  0  0
   21.4207  -20.6163  -12.6546 C   0  0  0  0  0  0  0  0  0  0  0  0
   22.4054  -20.1943  -11.9948 O   0  0  0  0  0  0  0  0  0  0  0  0
   21.7550  -19.5964  -10.3756 C   0  0  0  0  0  0  0  0  0  0  0  0
   20.5184  -20.3406   -9.8600 C   0  0  1  0  0  0  0  0  0  0  0  0
   19.4180  -19.6040  -10.2846 O   0  0  0  0  0  0  0  0  0  0  0  0
   20.5314  -21.6968  -10.5656 C   0  0  2  0  0  0  0  0  0  0  0  0
   20.4710  -21.4131  -11.9879 N   0  0  0  0  0  0  0  0  0  0  0  0
   19.3979  -22.5418  -10.1241 C   0  0  0  0  0  0  0  0  0  0  0  0
   18.4753  -22.7750  -10.9474 O   0  0  0  0  0  0  0  0  0  0  0  0
   19.3557  -23.0726   -8.8088 N   0  0  0  0  0  0  0  0  0  0  0  0
   18.2875  -23.9483   -8.3859 C   0  0  1  0  0  0  0  0  0  0  0  0
   18.6838  -24.5677   -7.1016 C   0  0  0  0  0  0  0  0  0  0  0  0
   17.7253  -25.5150   -6.4861 C   0  0  0  0  0  0  0  0  0  0  0  0
   18.2094  -26.0753   -5.1603 C   0  0  0  0  0  0  0  0  0  0  0  0
   17.1889  -27.0658   -4.6128 C   0  0  0  0  0  0  0  0  0  0  0  0
   17.7967  -27.6996   -3.4576 N   0  0  0  0  0  0  0  0  0  0  0  0
   17.0302  -23.2346   -8.4212 C   0  0  0  0  0  0  0  0  0  0  0  0
   16.8644  -22.0065   -8.2029 O   0  0  0  0  0  0  0  0  0  0  0  0
   15.8707  -23.9378   -8.7213 O   0  0  0  0  0  0  0  0  0  0  0  0
  2  1  1  6
  2  3  1  0
  4  3  1  0
  5  2  1  0
  5  6  2  0
  8  7  1  6
  8 10  1  0
  9  8  1  0
 10 11  1  6
 10 12  1  0
 11  5  1  0
 12 14  1  0
 13 12  2  0
 14 15  1  0
 15 21  1  0
 16 17  1  0
 15 16  1  1
 18 19  1  0
 18 17  1  0
 20 19  1  0
 21 22  2  0
 21 23  1  0
M  END
$$$$
