CTK.pdb
     RDKit          3D

 23 22  0  0  1  0  0  0  0  0999 V2000
   17.0773  -12.9820  -15.8078 N   0  0  0  0  0  0  0  0  0  0  0  0
   18.4148  -12.4856  -15.7010 C   0  0  1  0  0  0  0  0  0  0  0  0
   19.4142  -13.3894  -16.3904 C   0  0  0  0  0  0  0  0  0  0  0  0
   19.6339  -14.8759  -15.3584 S   0  0  0  0  0  0  0  0  0  0  0  0
   18.5385  -11.0905  -16.2220 C   0  0  0  0  0  0  0  0  0  0  0  0
   18.1385  -10.8403  -17.3884 O   0  0  0  0  0  0  0  0  0  0  0  0
   16.7921   -8.6108  -16.3049 C   0  0  0  0  0  0  0  0  0  0  0  0
   17.9404   -7.9433  -15.5401 C   0  0  1  0  0  0  0  0  0  0  0  0
   17.7008   -8.1863  -14.1920 O   0  0  0  0  0  0  0  0  0  0  0  0
   19.2073   -8.6791  -15.9770 C   0  0  2  0  0  0  0  0  0  0  0  0
   19.0836  -10.0334  -15.4693 N   0  0  0  0  0  0  0  0  0  0  0  0
   20.4224   -8.0068  -15.4618 C   0  0  0  0  0  0  0  0  0  0  0  0
   20.9436   -8.4501  -14.4057 O   0  0  0  0  0  0  0  0  0  0  0  0
   20.9816   -6.8941  -16.1421 N   0  0  0  0  0  0  0  0  0  0  0  0
   22.1666   -6.2306  -15.6500 C   0  0  1  0  0  0  0  0  0  0  0  0
   22.8369   -5.5787  -16.7971 C   0  0  0  0  0  0  0  0  0  0  0  0
   24.0426   -4.7699  -16.5024 C   0  0  0  0  0  0  0  0  0  0  0  0
   24.6097   -4.0770  -17.7289 C   0  0  0  0  0  0  0  0  0  0  0  0
   25.8794   -3.3212  -17.3565 C   0  0  0  0  0  0  0  0  0  0  0  0
   26.3233   -2.6305  -18.5528 N   0  0  0  0  0  0  0  0  0  0  0  0
   21.8238   -5.3982  -14.5181 C   0  0  0  0  0  0  0  0  0  0  0  0
   20.8203   -4.6448  -14.4243 O   0  0  0  0  0  0  0  0  0  0  0  0
   22.6580   -5.4033  -13.4077 O   0  0  0  0  0  0  0  0  0  0  0  0
  2  1  1  6
  2  3  1  0
  4  3  1  0
  5  2  1  0
  5  6  2  0
  8  7  1  6
  8 10  1  0
  9  8  1  0
 10 11  1  1
 10 12  1  0
 11  5  1  0
 12 14  1  0
 13 12  2  0
 14 15  1  0
 15 21  1  0
 16 17  1  0
 15 16  1  6
 18 19  1  0
 18 17  1  0
 20 19  1  0
 21 22  2  0
 21 23  1  0
M  END
$$$$
