CTK.pdb
     RDKit          3D

 23 22  0  0  1  0  0  0  0  0999 V2000
   19.3340  -13.2060  -15.9303 N   0  0  0  0  0  0  0  0  0  0  0  0
   19.6986  -12.1644  -16.8408 C   0  0  1  0  0  0  0  0  0  0  0  0
   19.0243  -12.3227  -18.1865 C   0  0  0  0  0  0  0  0  0  0  0  0
   19.6410  -13.8602  -18.9474 S   0  0  0  0  0  0  0  0  0  0  0  0
   19.4180  -10.8072  -16.2816 C   0  0  0  0  0  0  0  0  0  0  0  0
   18.2654  -10.5576  -15.8433 O   0  0  0  0  0  0  0  0  0  0  0  0
   20.6435   -9.2401  -13.4531 C   0  0  0  0  0  0  0  0  0  0  0  0
   21.0739   -8.2453  -14.5366 C   0  0  1  0  0  0  0  0  0  0  0  0
   22.3558   -8.6226  -14.9217 O   0  0  0  0  0  0  0  0  0  0  0  0
   20.1048   -8.4596  -15.6993 C   0  0  2  0  0  0  0  0  0  0  0  0
   20.3843   -9.7856  -16.2194 N   0  0  0  0  0  0  0  0  0  0  0  0
   20.2718   -7.4151  -16.7361 C   0  0  0  0  0  0  0  0  0  0  0  0
   21.1218   -7.6097  -17.6434 O   0  0  0  0  0  0  0  0  0  0  0  0
   19.4939   -6.2287  -16.7052 N   0  0  0  0  0  0  0  0  0  0  0  0
   19.6597   -5.1953  -17.7008 C   0  0  1  0  0  0  0  0  0  0  0  0
   18.3685   -5.0244  -18.4036 C   0  0  0  0  0  0  0  0  0  0  0  0
   18.2979   -3.9632  -19.4349 C   0  0  0  0  0  0  0  0  0  0  0  0
   16.9285   -3.8511  -20.0817 C   0  0  0  0  0  0  0  0  0  0  0  0
   16.9313   -2.7256  -21.1090 C   0  0  0  0  0  0  0  0  0  0  0  0
   15.5766   -2.6177  -21.6175 N   0  0  0  0  0  0  0  0  0  0  0  0
   20.2467   -4.0223  -17.0916 C   0  0  0  0  0  0  0  0  0  0  0  0
   20.7673   -3.0499  -17.6973 O   0  0  0  0  0  0  0  0  0  0  0  0
   20.2560   -3.9222  -15.7064 O   0  0  0  0  0  0  0  0  0  0  0  0
  2  1  1  1
  2  3  1  0
  4  3  1  0
  5  2  1  0
  5  6  2  0
  8  7  1  1
  8 10  1  0
  9  8  1  0
 10 11  1  6
 10 12  1  0
 11  5  1  0
 12 14  1  0
 13 12  2  0
 14 15  1  0
 15 21  1  0
 16 17  1  0
 15 16  1  1
 18 19  1  0
 18 17  1  0
 20 19  1  0
 21 22  2  0
 21 23  1  0
M  END
$$$$
