CTK.pdb
     RDKit          3D

 23 22  0  0  1  0  0  0  0  0999 V2000
   21.7233  -17.0322  -16.3320 N   0  0  0  0  0  0  0  0  0  0  0  0
   21.4707  -15.8010  -17.0154 C   0  0  1  0  0  0  0  0  0  0  0  0
   20.0807  -15.7561  -17.6127 C   0  0  0  0  0  0  0  0  0  0  0  0
   20.0027  -16.9926  -18.9499 S   0  0  0  0  0  0  0  0  0  0  0  0
   21.6898  -14.6148  -16.1332 C   0  0  0  0  0  0  0  0  0  0  0  0
   20.9527  -14.4638  -15.1248 O   0  0  0  0  0  0  0  0  0  0  0  0
   24.7540  -13.7056  -14.5274 C   0  0  0  0  0  0  0  0  0  0  0  0
   24.3946  -12.4118  -15.2662 C   0  0  1  0  0  0  0  0  0  0  0  0
   25.0790  -12.4538  -16.4761 O   0  0  0  0  0  0  0  0  0  0  0  0
   22.8900  -12.4908  -15.5247 C   0  0  2  0  0  0  0  0  0  0  0  0
   22.6860  -13.6501  -16.3741 N   0  0  0  0  0  0  0  0  0  0  0  0
   22.3888  -11.2492  -16.1580 C   0  0  0  0  0  0  0  0  0  0  0  0
   22.4498  -11.1556  -17.4113 O   0  0  0  0  0  0  0  0  0  0  0  0
   21.8550  -10.1958  -15.3712 N   0  0  0  0  0  0  0  0  0  0  0  0
   21.4597   -8.9400  -15.9656 C   0  0  1  0  0  0  0  0  0  0  0  0
   19.9895   -8.8193  -15.8471 C   0  0  0  0  0  0  0  0  0  0  0  0
   19.3795   -7.5460  -16.2959 C   0  0  0  0  0  0  0  0  0  0  0  0
   17.8920   -7.4619  -16.0023 C   0  0  0  0  0  0  0  0  0  0  0  0
   17.1364   -8.4676  -16.8623 C   0  0  0  0  0  0  0  0  0  0  0  0
   15.7382   -8.3761  -16.4852 N   0  0  0  0  0  0  0  0  0  0  0  0
   22.2622   -7.8685  -15.4183 C   0  0  0  0  0  0  0  0  0  0  0  0
   23.0041   -7.9367  -14.4042 O   0  0  0  0  0  0  0  0  0  0  0  0
   22.2387   -6.6290  -16.0443 O   0  0  0  0  0  0  0  0  0  0  0  0
  2  1  1  1
  2  3  1  0
  4  3  1  0
  5  2  1  0
  5  6  2  0
  8  7  1  1
  8 10  1  0
  9  8  1  0
 10 11  1  6
 10 12  1  0
 11  5  1  0
 12 14  1  0
 13 12  2  0
 14 15  1  0
 15 21  1  0
 16 17  1  0
 15 16  1  1
 18 19  1  0
 18 17  1  0
 20 19  1  0
 21 22  2  0
 21 23  1  0
M  END
$$$$
