CTK.pdb
     RDKit          3D

 23 22  0  0  1  0  0  0  0  0999 V2000
   24.0161  -12.5546  -16.9628 N   0  0  0  0  0  0  0  0  0  0  0  0
   24.1536  -11.1914  -17.3744 C   0  0  1  0  0  0  0  0  0  0  0  0
   24.6947  -11.0738  -18.7831 C   0  0  0  0  0  0  0  0  0  0  0  0
   26.4243  -11.6495  -18.7713 S   0  0  0  0  0  0  0  0  0  0  0  0
   22.8697  -10.4364  -17.2522 C   0  0  0  0  0  0  0  0  0  0  0  0
   21.8749  -10.8182  -17.9212 O   0  0  0  0  0  0  0  0  0  0  0  0
   20.8585  -10.2265  -14.5282 C   0  0  0  0  0  0  0  0  0  0  0  0
   21.0887   -8.7319  -14.7772 C   0  0  1  0  0  0  0  0  0  0  0  0
   22.1829   -8.3734  -13.9974 O   0  0  0  0  0  0  0  0  0  0  0  0
   21.4524   -8.6133  -16.2573 C   0  0  2  0  0  0  0  0  0  0  0  0
   22.7146   -9.3114  -16.4206 N   0  0  0  0  0  0  0  0  0  0  0  0
   21.5498   -7.1952  -16.6737 C   0  0  0  0  0  0  0  0  0  0  0  0
   22.6729   -6.6320  -16.6047 O   0  0  0  0  0  0  0  0  0  0  0  0
   20.4069   -6.4933  -17.1371 N   0  0  0  0  0  0  0  0  0  0  0  0
   20.4735   -5.0912  -17.4781 C   0  0  1  0  0  0  0  0  0  0  0  0
   19.5923   -4.8607  -18.6445 C   0  0  0  0  0  0  0  0  0  0  0  0
   19.4879   -3.4705  -19.1459 C   0  0  0  0  0  0  0  0  0  0  0  0
   18.6125   -3.3466  -20.3806 C   0  0  0  0  0  0  0  0  0  0  0  0
   18.5888   -1.8990  -20.8559 C   0  0  0  0  0  0  0  0  0  0  0  0
   17.7255   -1.8535  -22.0212 N   0  0  0  0  0  0  0  0  0  0  0  0
   20.2372   -4.2912  -16.2966 C   0  0  0  0  0  0  0  0  0  0  0  0
   20.6426   -3.1165  -16.0991 O   0  0  0  0  0  0  0  0  0  0  0  0
   19.4953   -4.8372  -15.2571 O   0  0  0  0  0  0  0  0  0  0  0  0
  2  1  1  6
  2  3  1  0
  4  3  1  0
  5  2  1  0
  5  6  2  0
  8  7  1  1
  8 10  1  0
  9  8  1  0
 10 11  1  1
 10 12  1  0
 11  5  1  0
 12 14  1  0
 13 12  2  0
 14 15  1  0
 15 21  1  0
 16 17  1  0
 15 16  1  6
 18 19  1  0
 18 17  1  0
 20 19  1  0
 21 22  2  0
 21 23  1  0
M  END
$$$$
