CTK.pdb
     RDKit          3D

 23 22  0  0  1  0  0  0  0  0999 V2000
   28.1941  -17.2479  -17.5630 N   0  0  0  0  0  0  0  0  0  0  0  0
   27.1911  -16.9625  -16.5836 C   0  0  1  0  0  0  0  0  0  0  0  0
   26.4900  -15.6485  -16.8530 C   0  0  0  0  0  0  0  0  0  0  0  0
   27.4909  -14.3152  -16.1159 S   0  0  0  0  0  0  0  0  0  0  0  0
   26.1894  -18.0656  -16.4688 C   0  0  0  0  0  0  0  0  0  0  0  0
   25.7412  -18.5904  -17.5207 O   0  0  0  0  0  0  0  0  0  0  0  0
   26.7094  -20.9083  -14.3127 C   0  0  0  0  0  0  0  0  0  0  0  0
   25.2722  -20.5129  -13.9562 C   0  0  1  0  0  0  0  0  0  0  0  0
   25.3584  -19.7342  -12.8073 O   0  0  0  0  0  0  0  0  0  0  0  0
   24.7811  -19.6547  -15.1221 C   0  0  2  0  0  0  0  0  0  0  0  0
   25.7180  -18.5516  -15.2349 N   0  0  0  0  0  0  0  0  0  0  0  0
   23.3969  -19.1801  -14.8929 C   0  0  0  0  0  0  0  0  0  0  0  0
   23.2194  -17.9557  -14.6635 O   0  0  0  0  0  0  0  0  0  0  0  0
   22.3029  -20.0830  -14.9314 N   0  0  0  0  0  0  0  0  0  0  0  0
   20.9554  -19.6429  -14.6536 C   0  0  1  0  0  0  0  0  0  0  0  0
   20.5504  -18.7032  -15.7227 C   0  0  0  0  0  0  0  0  0  0  0  0
   19.1586  -18.1972  -15.6836 C   0  0  0  0  0  0  0  0  0  0  0  0
   18.8121  -17.3139  -16.8693 C   0  0  0  0  0  0  0  0  0  0  0  0
   17.4231  -16.7159  -16.6816 C   0  0  0  0  0  0  0  0  0  0  0  0
   17.2767  -15.6725  -17.6793 N   0  0  0  0  0  0  0  0  0  0  0  0
   20.1071  -20.7906  -14.4191 C   0  0  0  0  0  0  0  0  0  0  0  0
   18.9096  -20.7654  -14.0335 O   0  0  0  0  0  0  0  0  0  0  0  0
   20.6282  -22.0608  -14.6288 O   0  0  0  0  0  0  0  0  0  0  0  0
  2  1  1  6
  2  3  1  0
  4  3  1  0
  5  2  1  0
  5  6  2  0
  8  7  1  6
  8 10  1  0
  9  8  1  0
 10 11  1  1
 10 12  1  0
 11  5  1  0
 12 14  1  0
 13 12  2  0
 14 15  1  0
 15 21  1  0
 16 17  1  0
 15 16  1  6
 18 19  1  0
 18 17  1  0
 20 19  1  0
 21 22  2  0
 21 23  1  0
M  END
$$$$
