MDC.pdb
     RDKit          3D

 23 22  0  0  1  0  0  0  0  0999 V2000
   22.7119  -16.5703  -14.8028 C   0  0  0  0  0  0  0  0  0  0  0  0
   22.8840  -17.2498  -16.4719 S   0  0  0  0  0  0  0  0  0  0  0  0
   22.1071  -16.1642  -17.7176 C   0  0  0  0  0  0  0  0  0  0  0  0
   22.8959  -14.8408  -17.6974 C   0  0  0  0  0  0  0  0  0  0  0  0
   21.8522  -13.7689  -17.7267 C   0  0  2  0  0  0  0  0  0  0  0  0
   21.1225  -13.8641  -18.9679 N   0  0  0  0  0  0  0  0  0  0  0  0
   22.3167  -12.4019  -17.5037 C   0  0  0  0  0  0  0  0  0  0  0  0
   22.9737  -12.1817  -16.4514 O   0  0  0  0  0  0  0  0  0  0  0  0
   22.0577  -11.3455  -18.4132 N   0  0  0  0  0  0  0  0  0  0  0  0
   22.6618  -10.0396  -18.1023 C   0  0  1  0  0  0  0  0  0  0  0  0
   22.8226   -9.3023  -19.3748 C   0  0  0  0  0  0  0  0  0  0  0  0
   23.9278   -9.7757  -20.2501 C   0  0  0  0  0  0  0  0  0  0  0  0
   24.7772  -10.5838  -19.7988 O   0  0  0  0  0  0  0  0  0  0  0  0
   21.8642   -9.4240  -17.0454 C   0  0  0  0  0  0  0  0  0  0  0  0
   20.5918   -9.5305  -17.1141 O   0  0  0  0  0  0  0  0  0  0  0  0
   24.0406   -9.3361  -21.5717 O   0  0  0  0  0  0  0  0  0  0  0  0
   22.3614   -8.7134  -15.9343 N   0  0  0  0  0  0  0  0  0  0  0  0
   21.4869   -8.1816  -14.9380 C   0  0  1  0  0  0  0  0  0  0  0  0
   22.0091   -8.2539  -13.5201 C   0  0  0  0  0  0  0  0  0  0  0  0
   22.4131  -10.0268  -13.2391 S   0  0  0  0  0  0  0  0  0  0  0  0
   21.1036   -6.7734  -15.2063 C   0  0  0  0  0  0  0  0  0  0  0  0
   21.6764   -6.1764  -16.1648 O   0  0  0  0  0  0  0  0  0  0  0  0
   20.1649   -6.1116  -14.4603 O   0  0  0  0  0  0  0  0  0  0  0  0
  2  1  1  0
  2  3  1  0
  4  5  1  0
  4  3  1  0
  5  6  1  6
  7  5  1  0
  7  8  2  0
  9  7  1  0
 10  9  1  0
 10 14  1  0
 10 11  1  6
 12 13  2  0
 12 11  1  0
 14 17  1  0
 15 14  2  0
 16 12  1  0
 17 18  1  0
 18 21  1  0
 19 20  1  0
 18 19  1  1
 21 22  2  0
 21 23  1  0
M  END
$$$$
