MDC.pdb
     RDKit          3D

 23 22  0  0  1  0  0  0  0  0999 V2000
   31.4681  -15.8412  -18.4795 C   0  0  0  0  0  0  0  0  0  0  0  0
   30.9508  -17.5289  -18.0778 S   0  0  0  0  0  0  0  0  0  0  0  0
   29.2303  -17.8422  -18.6027 C   0  0  0  0  0  0  0  0  0  0  0  0
   28.3235  -17.2003  -17.5352 C   0  0  0  0  0  0  0  0  0  0  0  0
   27.0689  -16.8344  -18.2639 C   0  0  2  0  0  0  0  0  0  0  0  0
   27.2642  -15.5625  -18.9166 N   0  0  0  0  0  0  0  0  0  0  0  0
   25.8377  -16.8282  -17.4776 C   0  0  0  0  0  0  0  0  0  0  0  0
   25.8980  -16.3404  -16.3175 O   0  0  0  0  0  0  0  0  0  0  0  0
   24.6103  -17.3398  -17.9697 N   0  0  0  0  0  0  0  0  0  0  0  0
   23.4424  -17.2315  -17.0803 C   0  0  1  0  0  0  0  0  0  0  0  0
   22.5402  -16.2031  -17.6432 C   0  0  0  0  0  0  0  0  0  0  0  0
   21.2791  -15.9793  -16.8873 C   0  0  0  0  0  0  0  0  0  0  0  0
   21.1718  -16.4118  -15.7128 O   0  0  0  0  0  0  0  0  0  0  0  0
   22.9128  -18.5776  -16.8802 C   0  0  0  0  0  0  0  0  0  0  0  0
   22.8197  -19.3438  -17.8996 O   0  0  0  0  0  0  0  0  0  0  0  0
   20.2053  -15.2941  -17.4618 O   0  0  0  0  0  0  0  0  0  0  0  0
   22.4885  -19.1314  -15.6555 N   0  0  0  0  0  0  0  0  0  0  0  0
   21.9433  -20.4496  -15.5830 C   0  0  1  0  0  0  0  0  0  0  0  0
   21.8423  -21.0272  -14.1886 C   0  0  0  0  0  0  0  0  0  0  0  0
   20.5527  -20.0270  -13.3388 S   0  0  0  0  0  0  0  0  0  0  0  0
   20.6025  -20.5492  -16.2109 C   0  0  0  0  0  0  0  0  0  0  0  0
   20.1284  -21.7056  -16.4138 O   0  0  0  0  0  0  0  0  0  0  0  0
   19.8754  -19.4461  -16.5716 O   0  0  0  0  0  0  0  0  0  0  0  0
  2  1  1  0
  2  3  1  0
  4  5  1  0
  4  3  1  0
  5  6  1  1
  7  5  1  0
  7  8  2  0
  9  7  1  0
 10  9  1  0
 10 14  1  0
 10 11  1  6
 12 13  2  0
 12 11  1  0
 14 17  1  0
 15 14  2  0
 16 12  1  0
 17 18  1  0
 18 21  1  0
 19 20  1  0
 18 19  1  1
 21 22  2  0
 21 23  1  0
M  END
$$$$
