MDC.pdb
     RDKit          3D

 23 22  0  0  1  0  0  0  0  0999 V2000
   20.7678  -17.2423  -16.2061 C   0  0  0  0  0  0  0  0  0  0  0  0
   20.4403  -15.6095  -16.9163 S   0  0  0  0  0  0  0  0  0  0  0  0
   19.2770  -14.6537  -15.8834 C   0  0  0  0  0  0  0  0  0  0  0  0
   19.0664  -13.3041  -16.5962 C   0  0  0  0  0  0  0  0  0  0  0  0
   18.1136  -12.5507  -15.7224 C   0  0  2  0  0  0  0  0  0  0  0  0
   16.8084  -13.1570  -15.8264 N   0  0  0  0  0  0  0  0  0  0  0  0
   18.0324  -11.1084  -15.9400 C   0  0  0  0  0  0  0  0  0  0  0  0
   17.2933  -10.7085  -16.8788 O   0  0  0  0  0  0  0  0  0  0  0  0
   18.7407  -10.1715  -15.1456 N   0  0  0  0  0  0  0  0  0  0  0  0
   18.5572   -8.7488  -15.4762 C   0  0  1  0  0  0  0  0  0  0  0  0
   17.1183   -8.4349  -15.3359 C   0  0  0  0  0  0  0  0  0  0  0  0
   16.7661   -6.9948  -15.4530 C   0  0  0  0  0  0  0  0  0  0  0  0
   16.0631   -6.4513  -14.5650 O   0  0  0  0  0  0  0  0  0  0  0  0
   19.5105   -7.9830  -14.6780 C   0  0  0  0  0  0  0  0  0  0  0  0
   19.5002   -8.1470  -13.4100 O   0  0  0  0  0  0  0  0  0  0  0  0
   17.2038   -6.2306  -16.5379 O   0  0  0  0  0  0  0  0  0  0  0  0
   20.4612   -7.0664  -15.1705 N   0  0  0  0  0  0  0  0  0  0  0  0
   21.4210   -6.4532  -14.3086 C   0  0  1  0  0  0  0  0  0  0  0  0
   22.8589   -6.8468  -14.5653 C   0  0  0  0  0  0  0  0  0  0  0  0
   23.1200   -6.5908  -16.3686 S   0  0  0  0  0  0  0  0  0  0  0  0
   21.3476   -4.9713  -14.3334 C   0  0  0  0  0  0  0  0  0  0  0  0
   20.6617   -4.4279  -15.2485 O   0  0  0  0  0  0  0  0  0  0  0  0
   21.9894   -4.1875  -13.4117 O   0  0  0  0  0  0  0  0  0  0  0  0
  2  1  1  0
  2  3  1  0
  4  5  1  0
  4  3  1  0
  5  6  1  6
  7  5  1  0
  7  8  2  0
  9  7  1  0
 10  9  1  0
 10 14  1  0
 10 11  1  1
 12 13  2  0
 12 11  1  0
 14 17  1  0
 15 14  2  0
 16 12  1  0
 17 18  1  0
 18 21  1  0
 19 20  1  0
 18 19  1  6
 21 22  2  0
 21 23  1  0
M  END
$$$$
