MDC.pdb
     RDKit          3D

 23 22  0  0  1  0  0  0  0  0999 V2000
   17.0155  -14.2754  -17.7741 C   0  0  0  0  0  0  0  0  0  0  0  0
   17.6329  -15.4379  -19.0171 S   0  0  0  0  0  0  0  0  0  0  0  0
   19.2211  -14.8786  -19.7232 C   0  0  0  0  0  0  0  0  0  0  0  0
   19.6301  -13.6186  -18.9364 C   0  0  0  0  0  0  0  0  0  0  0  0
   20.9806  -13.2536  -19.4672 C   0  0  2  0  0  0  0  0  0  0  0  0
   21.9107  -14.3055  -19.1353 N   0  0  0  0  0  0  0  0  0  0  0  0
   21.5078  -11.9517  -19.0654 C   0  0  0  0  0  0  0  0  0  0  0  0
   22.0146  -11.8660  -17.9150 O   0  0  0  0  0  0  0  0  0  0  0  0
   21.4681  -10.8137  -19.9103 N   0  0  0  0  0  0  0  0  0  0  0  0
   22.0500   -9.5712  -19.3772 C   0  0  1  0  0  0  0  0  0  0  0  0
   23.0860   -9.1135  -20.3288 C   0  0  0  0  0  0  0  0  0  0  0  0
   23.8464   -7.9058  -19.9105 C   0  0  0  0  0  0  0  0  0  0  0  0
   24.7370   -7.4387  -20.6634 O   0  0  0  0  0  0  0  0  0  0  0  0
   20.9483   -8.6637  -19.0690 C   0  0  0  0  0  0  0  0  0  0  0  0
   19.9854   -8.5823  -19.9065 O   0  0  0  0  0  0  0  0  0  0  0  0
   23.5884   -7.2775  -18.6893 O   0  0  0  0  0  0  0  0  0  0  0  0
   20.8326   -7.8549  -17.9205 N   0  0  0  0  0  0  0  0  0  0  0  0
   19.6716   -7.0570  -17.6850 C   0  0  1  0  0  0  0  0  0  0  0  0
   18.3904   -7.8332  -17.4750 C   0  0  0  0  0  0  0  0  0  0  0  0
   17.0961   -6.5630  -17.1636 S   0  0  0  0  0  0  0  0  0  0  0  0
   19.8350   -6.1357  -16.5332 C   0  0  0  0  0  0  0  0  0  0  0  0
   20.8830   -6.2456  -15.8313 O   0  0  0  0  0  0  0  0  0  0  0  0
   18.9012   -5.1866  -16.2123 O   0  0  0  0  0  0  0  0  0  0  0  0
  2  1  1  0
  2  3  1  0
  4  5  1  0
  4  3  1  0
  5  6  1  1
  7  5  1  0
  7  8  2  0
  9  7  1  0
 10  9  1  0
 10 14  1  0
 10 11  1  6
 12 13  2  0
 12 11  1  0
 14 17  1  0
 15 14  2  0
 16 12  1  0
 17 18  1  0
 18 21  1  0
 19 20  1  0
 18 19  1  1
 21 22  2  0
 21 23  1  0
M  END
$$$$
