DFS.pdb
     RDKit          3D

 26 26  0  0  1  0  0  0  0  0999 V2000
    9.7819  -16.9596   16.6860 N   0  0  0  0  0  0  0  0  0  0  0  0
    9.7717  -17.7948   17.8067 C   0  0  1  0  0  0  0  0  0  0  0  0
   10.5817  -19.0430   17.6915 C   0  0  0  0  0  0  0  0  0  0  0  0
    9.8271  -20.1672   17.0985 C   0  0  0  0  0  0  0  0  0  0  0  0
   10.2844  -21.3326   17.0265 O   0  0  0  0  0  0  0  0  0  0  0  0
   10.2955  -17.0445   19.0059 C   0  0  0  0  0  0  0  0  0  0  0  0
   11.4237  -16.4965   18.9213 O   0  0  0  0  0  0  0  0  0  0  0  0
    8.5599  -19.9290   16.5994 O   0  0  0  0  0  0  0  0  0  0  0  0
    9.5428  -16.9559   20.1970 N   0  0  0  0  0  0  0  0  0  0  0  0
    9.9952  -16.2289   21.3470 C   0  0  1  0  0  0  0  0  0  0  0  0
    8.9372  -15.3703   21.9940 C   0  0  0  0  0  0  0  0  0  0  0  0
    8.4189  -14.3545   21.0465 C   0  0  0  0  0  0  0  0  0  0  0  0
    9.1776  -13.2742   20.7201 C   0  0  0  0  0  0  0  0  0  0  0  0
    8.6490  -12.3404   19.8330 C   0  0  0  0  0  0  0  0  0  0  0  0
    7.3971  -12.5267   19.3164 C   0  0  0  0  0  0  0  0  0  0  0  0
    6.6436  -13.6089   19.6465 C   0  0  0  0  0  0  0  0  0  0  0  0
    7.1413  -14.5420   20.5175 C   0  0  0  0  0  0  0  0  0  0  0  0
   10.6562  -17.1094   22.3679 C   0  0  0  0  0  0  0  0  0  0  0  0
   10.0187  -18.1371   22.6784 O   0  0  0  0  0  0  0  0  0  0  0  0
   14.6374  -16.4236   23.4252 O   0  0  0  0  0  0  0  0  0  0  0  0
   14.0829  -17.6953   23.4220 C   0  0  0  0  0  0  0  0  0  0  0  0
   12.6327  -17.6285   23.8193 C   0  0  2  0  0  0  0  0  0  0  0  0
   11.9068  -16.7900   22.9299 N   0  0  0  0  0  0  0  0  0  0  0  0
   12.4664  -17.2829   25.2696 C   0  0  0  0  0  0  0  0  0  0  0  0
   11.7434  -16.3229   25.5769 O   0  0  0  0  0  0  0  0  0  0  0  0
   13.1073  -18.0214   26.2369 O   0  0  0  0  0  0  0  0  0  0  0  0
  2  1  1  6
  2  3  1  0
  3  4  1  0
  4  8  1  0
  5  4  2  0
  6  2  1  0
  7  6  2  0
  9  6  1  0
 10 11  1  1
 10  9  1  0
 11 12  1  0
 12 13  2  0
 12 17  1  0
 13 14  1  0
 14 15  2  0
 16 15  1  0
 17 16  2  0
 18 10  1  0
 19 18  2  0
 20 21  1  0
 22 21  1  6
 22 23  1  0
 23 18  1  0
 24 22  1  0
 24 26  1  0
 25 24  2  0
M  END
$$$$
