DFS.pdb
     RDKit          3D

 26 26  0  0  1  0  0  0  0  0999 V2000
    8.5488  -17.2630   17.7545 N   0  0  0  0  0  0  0  0  0  0  0  0
    9.8667  -17.5632   18.1106 C   0  0  1  0  0  0  0  0  0  0  0  0
   10.8925  -17.3312   17.0516 C   0  0  0  0  0  0  0  0  0  0  0  0
   10.7911  -18.2900   15.9312 C   0  0  0  0  0  0  0  0  0  0  0  0
   10.0715  -19.3161   15.9749 O   0  0  0  0  0  0  0  0  0  0  0  0
   10.2744  -16.7322   19.3017 C   0  0  0  0  0  0  0  0  0  0  0  0
   11.1453  -15.8405   19.1376 O   0  0  0  0  0  0  0  0  0  0  0  0
   11.5200  -18.0498   14.7810 O   0  0  0  0  0  0  0  0  0  0  0  0
    9.6966  -16.9450   20.5720 N   0  0  0  0  0  0  0  0  0  0  0  0
   10.0634  -16.1801   21.7279 C   0  0  1  0  0  0  0  0  0  0  0  0
    8.9010  -15.5310   22.4367 C   0  0  0  0  0  0  0  0  0  0  0  0
    8.2267  -14.5406   21.5633 C   0  0  0  0  0  0  0  0  0  0  0  0
    7.1265  -14.8972   20.8480 C   0  0  0  0  0  0  0  0  0  0  0  0
    6.5294  -13.9384   20.0342 C   0  0  0  0  0  0  0  0  0  0  0  0
    7.0536  -12.6774   19.9725 C   0  0  0  0  0  0  0  0  0  0  0  0
    8.1536  -12.3270   20.6903 C   0  0  0  0  0  0  0  0  0  0  0  0
    8.7595  -13.2526   21.4985 C   0  0  0  0  0  0  0  0  0  0  0  0
   10.9033  -16.9597   22.6980 C   0  0  0  0  0  0  0  0  0  0  0  0
   10.3753  -17.9993   23.1449 O   0  0  0  0  0  0  0  0  0  0  0  0
   14.5464  -15.4279   24.1545 O   0  0  0  0  0  0  0  0  0  0  0  0
   14.4793  -16.7661   23.7950 C   0  0  0  0  0  0  0  0  0  0  0  0
   13.0662  -17.2673   23.9268 C   0  0  2  0  0  0  0  0  0  0  0  0
   12.1940  -16.5399   23.0716 N   0  0  0  0  0  0  0  0  0  0  0  0
   12.6244  -17.3219   25.3593 C   0  0  0  0  0  0  0  0  0  0  0  0
   11.6074  -16.6966   25.6961 O   0  0  0  0  0  0  0  0  0  0  0  0
   13.3390  -18.0542   26.2784 O   0  0  0  0  0  0  0  0  0  0  0  0
  2  1  1  6
  2  3  1  0
  3  4  1  0
  4  8  1  0
  5  4  2  0
  6  2  1  0
  7  6  2  0
  9  6  1  0
 10 11  1  1
 10  9  1  0
 11 12  1  0
 12 13  2  0
 12 17  1  0
 13 14  1  0
 14 15  2  0
 16 15  1  0
 17 16  2  0
 18 10  1  0
 19 18  2  0
 20 21  1  0
 22 21  1  1
 22 23  1  0
 23 18  1  0
 24 22  1  0
 24 26  1  0
 25 24  2  0
M  END
$$$$
