DFS.pdb
     RDKit          3D

 26 26  0  0  1  0  0  0  0  0999 V2000
    9.1816  -16.0845   19.0863 N   0  0  0  0  0  0  0  0  0  0  0  0
    9.1918  -16.9681   20.1693 C   0  0  1  0  0  0  0  0  0  0  0  0
   10.2821  -17.9871   20.1636 C   0  0  0  0  0  0  0  0  0  0  0  0
   10.2153  -18.8962   19.0000 C   0  0  0  0  0  0  0  0  0  0  0  0
    9.5314  -18.6472   17.9787 O   0  0  0  0  0  0  0  0  0  0  0  0
    9.3256  -16.1939   21.4570 C   0  0  0  0  0  0  0  0  0  0  0  0
   10.4743  -16.0392   21.9440 O   0  0  0  0  0  0  0  0  0  0  0  0
   10.9369  -20.0751   19.0334 O   0  0  0  0  0  0  0  0  0  0  0  0
    8.1935  -15.6536   22.1047 N   0  0  0  0  0  0  0  0  0  0  0  0
    8.2751  -14.9583   23.3559 C   0  0  1  0  0  0  0  0  0  0  0  0
    7.1429  -13.9933   23.6044 C   0  0  0  0  0  0  0  0  0  0  0  0
    7.2138  -13.4255   24.9723 C   0  0  0  0  0  0  0  0  0  0  0  0
    6.4658  -13.9605   25.9740 C   0  0  0  0  0  0  0  0  0  0  0  0
    6.5565  -13.3914   27.2413 C   0  0  0  0  0  0  0  0  0  0  0  0
    7.3835  -12.3229   27.4489 C   0  0  0  0  0  0  0  0  0  0  0  0
    8.1290  -11.7927   26.4433 C   0  0  0  0  0  0  0  0  0  0  0  0
    8.0572  -12.3348   25.1871 C   0  0  0  0  0  0  0  0  0  0  0  0
    8.4442  -15.8846   24.5254 C   0  0  0  0  0  0  0  0  0  0  0  0
    7.5360  -16.7287   24.6726 O   0  0  0  0  0  0  0  0  0  0  0  0
   11.7097  -18.4590   26.5595 O   0  0  0  0  0  0  0  0  0  0  0  0
   11.3201  -17.3900   25.7657 C   0  0  0  0  0  0  0  0  0  0  0  0
    9.9985  -16.8479   26.2398 C   0  0  2  0  0  0  0  0  0  0  0  0
    9.5521  -15.7994   25.3897 N   0  0  0  0  0  0  0  0  0  0  0  0
   10.0313  -16.4915   27.6966 C   0  0  0  0  0  0  0  0  0  0  0  0
    9.5804  -17.3011   28.5211 O   0  0  0  0  0  0  0  0  0  0  0  0
   10.5537  -15.2863   28.1044 O   0  0  0  0  0  0  0  0  0  0  0  0
  2  1  1  6
  2  3  1  0
  3  4  1  0
  4  8  1  0
  5  4  2  0
  6  2  1  0
  7  6  2  0
  9  6  1  0
 10 11  1  1
 10  9  1  0
 11 12  1  0
 12 13  2  0
 12 17  1  0
 13 14  1  0
 14 15  2  0
 16 15  1  0
 17 16  2  0
 18 10  1  0
 19 18  2  0
 20 21  1  0
 22 21  1  6
 22 23  1  0
 23 18  1  0
 24 22  1  0
 24 26  1  0
 25 24  2  0
M  END
$$$$
