DFS.pdb
     RDKit          3D

 26 26  0  0  1  0  0  0  0  0999 V2000
   10.0854  -16.2359   19.3031 N   0  0  0  0  0  0  0  0  0  0  0  0
    9.0776  -16.7092   20.1482 C   0  0  1  0  0  0  0  0  0  0  0  0
    9.0738  -18.1819   20.3899 C   0  0  0  0  0  0  0  0  0  0  0  0
    8.7900  -18.9657   19.1692 C   0  0  0  0  0  0  0  0  0  0  0  0
    9.6839  -19.5462   18.5085 O   0  0  0  0  0  0  0  0  0  0  0  0
    9.1917  -16.0462   21.4983 C   0  0  0  0  0  0  0  0  0  0  0  0
   10.3131  -16.0381   22.0665 O   0  0  0  0  0  0  0  0  0  0  0  0
    7.4823  -19.0667   18.7316 O   0  0  0  0  0  0  0  0  0  0  0  0
    8.0714  -15.4478   22.1144 N   0  0  0  0  0  0  0  0  0  0  0  0
    8.1372  -14.8246   23.4040 C   0  0  1  0  0  0  0  0  0  0  0  0
    7.0260  -13.8415   23.6755 C   0  0  0  0  0  0  0  0  0  0  0  0
    7.0972  -13.3227   25.0626 C   0  0  0  0  0  0  0  0  0  0  0  0
    6.3534  -13.8962   26.0459 C   0  0  0  0  0  0  0  0  0  0  0  0
    6.4442  -13.3724   27.3326 C   0  0  0  0  0  0  0  0  0  0  0  0
    7.2673  -12.3085   27.5767 C   0  0  0  0  0  0  0  0  0  0  0  0
    8.0086  -11.7397   26.5894 C   0  0  0  0  0  0  0  0  0  0  0  0
    7.9366  -12.2369   25.3148 C   0  0  0  0  0  0  0  0  0  0  0  0
    8.2472  -15.8181   24.5244 C   0  0  0  0  0  0  0  0  0  0  0  0
    7.2977  -16.6236   24.6179 O   0  0  0  0  0  0  0  0  0  0  0  0
   11.6615  -17.4562   25.5358 O   0  0  0  0  0  0  0  0  0  0  0  0
   10.4122  -17.9323   25.9061 C   0  0  0  0  0  0  0  0  0  0  0  0
    9.5593  -16.8033   26.4193 C   0  0  2  0  0  0  0  0  0  0  0  0
    9.3473  -15.8323   25.4027 N   0  0  0  0  0  0  0  0  0  0  0  0
   10.0880  -16.2449   27.7073 C   0  0  0  0  0  0  0  0  0  0  0  0
   10.3387  -15.0320   27.7756 O   0  0  0  0  0  0  0  0  0  0  0  0
   10.2891  -17.0689   28.7901 O   0  0  0  0  0  0  0  0  0  0  0  0
  2  1  1  6
  2  3  1  0
  3  4  1  0
  4  8  1  0
  5  4  2  0
  6  2  1  0
  7  6  2  0
  9  6  1  0
 10 11  1  1
 10  9  1  0
 11 12  1  0
 12 13  2  0
 12 17  1  0
 13 14  1  0
 14 15  2  0
 16 15  1  0
 17 16  2  0
 18 10  1  0
 19 18  2  0
 20 21  1  0
 22 21  1  6
 22 23  1  0
 23 18  1  0
 24 22  1  0
 24 26  1  0
 25 24  2  0
M  END
$$$$
