DFS.pdb
     RDKit          3D

 26 26  0  0  1  0  0  0  0  0999 V2000
   10.8850  -16.7297   20.0821 N   0  0  0  0  0  0  0  0  0  0  0  0
    9.8539  -17.1548   20.9246 C   0  0  1  0  0  0  0  0  0  0  0  0
    9.9557  -18.5609   21.4142 C   0  0  0  0  0  0  0  0  0  0  0  0
    9.9117  -19.5561   20.3222 C   0  0  0  0  0  0  0  0  0  0  0  0
    8.9247  -19.6889   19.5602 O   0  0  0  0  0  0  0  0  0  0  0  0
    9.7969  -16.2711   22.1458 C   0  0  0  0  0  0  0  0  0  0  0  0
   10.8799  -15.9096   22.6722 O   0  0  0  0  0  0  0  0  0  0  0  0
   11.0049  -20.3800   20.1275 O   0  0  0  0  0  0  0  0  0  0  0  0
    8.5619  -15.8565   22.6895 N   0  0  0  0  0  0  0  0  0  0  0  0
    8.4676  -15.0420   23.8657 C   0  0  1  0  0  0  0  0  0  0  0  0
    7.2402  -14.1669   23.9177 C   0  0  0  0  0  0  0  0  0  0  0  0
    7.1647  -13.4262   25.1999 C   0  0  0  0  0  0  0  0  0  0  0  0
    6.2630  -13.7933   26.1493 C   0  0  0  0  0  0  0  0  0  0  0  0
    6.2203  -13.0654   27.3353 C   0  0  0  0  0  0  0  0  0  0  0  0
    7.0732  -12.0128   27.5177 C   0  0  0  0  0  0  0  0  0  0  0  0
    7.9727  -11.6509   26.5649 C   0  0  0  0  0  0  0  0  0  0  0  0
    8.0342  -12.3513   25.3890 C   0  0  0  0  0  0  0  0  0  0  0  0
    8.6036  -15.8347   25.1337 C   0  0  0  0  0  0  0  0  0  0  0  0
    7.6518  -16.6019   25.3875 O   0  0  0  0  0  0  0  0  0  0  0  0
   12.1202  -17.0449   26.4341 O   0  0  0  0  0  0  0  0  0  0  0  0
   10.9325  -17.5696   26.9228 C   0  0  0  0  0  0  0  0  0  0  0  0
    9.9376  -16.4653   27.1599 C   0  0  2  0  0  0  0  0  0  0  0  0
    9.7288  -15.7142   25.9710 N   0  0  0  0  0  0  0  0  0  0  0  0
   10.2965  -15.6383   28.3589 C   0  0  0  0  0  0  0  0  0  0  0  0
   10.4086  -14.4101   28.2270 O   0  0  0  0  0  0  0  0  0  0  0  0
   10.4964  -16.2378   29.5806 O   0  0  0  0  0  0  0  0  0  0  0  0
  2  1  1  6
  2  3  1  0
  3  4  1  0
  4  8  1  0
  5  4  2  0
  6  2  1  0
  7  6  2  0
  9  6  1  0
 10 11  1  1
 10  9  1  0
 11 12  1  0
 12 13  2  0
 12 17  1  0
 13 14  1  0
 14 15  2  0
 16 15  1  0
 17 16  2  0
 18 10  1  0
 19 18  2  0
 20 21  1  0
 22 21  1  6
 22 23  1  0
 23 18  1  0
 24 22  1  0
 24 26  1  0
 25 24  2  0
M  END
$$$$
