DFS.pdb
     RDKit          3D

 26 26  0  0  1  0  0  0  0  0999 V2000
    9.2992  -17.4029   20.3945 N   0  0  0  0  0  0  0  0  0  0  0  0
   10.3803  -17.5104   21.2740 C   0  0  1  0  0  0  0  0  0  0  0  0
   11.7307  -17.3271   20.6657 C   0  0  0  0  0  0  0  0  0  0  0  0
   11.8416  -17.9238   19.3179 C   0  0  0  0  0  0  0  0  0  0  0  0
   11.0580  -18.8079   18.8972 O   0  0  0  0  0  0  0  0  0  0  0  0
   10.2515  -16.4797   22.3679 C   0  0  0  0  0  0  0  0  0  0  0  0
   11.3028  -16.0097   22.8721 O   0  0  0  0  0  0  0  0  0  0  0  0
   12.8524  -17.4918   18.4793 O   0  0  0  0  0  0  0  0  0  0  0  0
    8.9851  -16.0491   22.8192 N   0  0  0  0  0  0  0  0  0  0  0  0
    8.8193  -15.1771   23.9453 C   0  0  1  0  0  0  0  0  0  0  0  0
    7.5628  -14.3438   23.9050 C   0  0  0  0  0  0  0  0  0  0  0  0
    7.4790  -13.4442   25.0807 C   0  0  0  0  0  0  0  0  0  0  0  0
    8.3076  -12.3706   25.1802 C   0  0  0  0  0  0  0  0  0  0  0  0
    8.2008  -11.5568   26.3047 C   0  0  0  0  0  0  0  0  0  0  0  0
    7.2787  -11.8497   27.2705 C   0  0  0  0  0  0  0  0  0  0  0  0
    6.4529  -12.9244   27.1650 C   0  0  0  0  0  0  0  0  0  0  0  0
    6.5386  -13.7407   26.0680 C   0  0  0  0  0  0  0  0  0  0  0  0
    8.9329  -15.8961   25.2585 C   0  0  0  0  0  0  0  0  0  0  0  0
    8.0278  -16.7237   25.4932 O   0  0  0  0  0  0  0  0  0  0  0  0
   12.4703  -16.6542   26.7163 O   0  0  0  0  0  0  0  0  0  0  0  0
   11.3599  -17.3178   27.2176 C   0  0  0  0  0  0  0  0  0  0  0  0
   10.2080  -16.3604   27.3659 C   0  0  2  0  0  0  0  0  0  0  0  0
    9.9889  -15.6475   26.1555 N   0  0  0  0  0  0  0  0  0  0  0  0
   10.3584  -15.4895   28.5781 C   0  0  0  0  0  0  0  0  0  0  0  0
   10.3811  -14.2580   28.4311 O   0  0  0  0  0  0  0  0  0  0  0  0
   10.4687  -16.0530   29.8279 O   0  0  0  0  0  0  0  0  0  0  0  0
  2  1  1  6
  2  3  1  0
  3  4  1  0
  4  8  1  0
  5  4  2  0
  6  2  1  0
  7  6  2  0
  9  6  1  0
 10 11  1  6
 10  9  1  0
 11 12  1  0
 12 13  2  0
 12 17  1  0
 13 14  1  0
 14 15  2  0
 16 15  1  0
 17 16  2  0
 18 10  1  0
 19 18  2  0
 20 21  1  0
 22 21  1  6
 22 23  1  0
 23 18  1  0
 24 22  1  0
 24 26  1  0
 25 24  2  0
M  END
$$$$
