DFS.pdb
     RDKit          3D

 26 26  0  0  1  0  0  0  0  0999 V2000
    9.4027  -17.2640   20.3116 N   0  0  0  0  0  0  0  0  0  0  0  0
   10.4609  -17.3773   21.2178 C   0  0  1  0  0  0  0  0  0  0  0  0
   11.8215  -17.1231   20.6597 C   0  0  0  0  0  0  0  0  0  0  0  0
   12.0794  -17.8668   19.4087 C   0  0  0  0  0  0  0  0  0  0  0  0
   11.3572  -18.8145   19.0176 O   0  0  0  0  0  0  0  0  0  0  0  0
   10.2663  -16.4028   22.3527 C   0  0  0  0  0  0  0  0  0  0  0  0
   11.2861  -15.9450   22.9280 O   0  0  0  0  0  0  0  0  0  0  0  0
   13.1640  -17.5059   18.6308 O   0  0  0  0  0  0  0  0  0  0  0  0
    8.9741  -16.0102   22.7639 N   0  0  0  0  0  0  0  0  0  0  0  0
    8.7442  -15.1876   23.9155 C   0  0  1  0  0  0  0  0  0  0  0  0
    7.4318  -14.4444   23.8950 C   0  0  0  0  0  0  0  0  0  0  0  0
    7.2666  -13.6160   25.1136 C   0  0  0  0  0  0  0  0  0  0  0  0
    6.4091  -14.0061   26.0942 C   0  0  0  0  0  0  0  0  0  0  0  0
    6.2783  -13.1944   27.2177 C   0  0  0  0  0  0  0  0  0  0  0  0
    7.0042  -12.0397   27.3101 C   0  0  0  0  0  0  0  0  0  0  0  0
    7.8601  -11.6552   26.3264 C   0  0  0  0  0  0  0  0  0  0  0  0
    8.0064  -12.4368   25.2106 C   0  0  0  0  0  0  0  0  0  0  0  0
    8.9050  -15.9373   25.2064 C   0  0  0  0  0  0  0  0  0  0  0  0
    8.0656  -16.8396   25.4071 O   0  0  0  0  0  0  0  0  0  0  0  0
   11.4496  -17.8359   26.0149 O   0  0  0  0  0  0  0  0  0  0  0  0
   11.4171  -17.1718   27.2325 C   0  0  0  0  0  0  0  0  0  0  0  0
   10.1681  -16.3380   27.3340 C   0  0  2  0  0  0  0  0  0  0  0  0
    9.9330  -15.6366   26.1200 N   0  0  0  0  0  0  0  0  0  0  0  0
   10.1736  -15.4709   28.5582 C   0  0  0  0  0  0  0  0  0  0  0  0
   10.0101  -14.2484   28.4264 O   0  0  0  0  0  0  0  0  0  0  0  0
   10.3573  -16.0280   29.8022 O   0  0  0  0  0  0  0  0  0  0  0  0
  2  1  1  6
  2  3  1  0
  3  4  1  0
  4  8  1  0
  5  4  2  0
  6  2  1  0
  7  6  2  0
  9  6  1  0
 10 11  1  6
 10  9  1  0
 11 12  1  0
 12 13  2  0
 12 17  1  0
 13 14  1  0
 14 15  2  0
 16 15  1  0
 17 16  2  0
 18 10  1  0
 19 18  2  0
 20 21  1  0
 22 21  1  6
 22 23  1  0
 23 18  1  0
 24 22  1  0
 24 26  1  0
 25 24  2  0
M  END
$$$$
