DFS.pdb
     RDKit          3D

 26 26  0  0  1  0  0  0  0  0999 V2000
    9.0779  -16.3268   19.7463 N   0  0  0  0  0  0  0  0  0  0  0  0
    9.8666  -16.9451   20.7206 C   0  0  1  0  0  0  0  0  0  0  0  0
   11.3142  -17.0883   20.3870 C   0  0  0  0  0  0  0  0  0  0  0  0
   11.5422  -17.6409   19.0352 C   0  0  0  0  0  0  0  0  0  0  0  0
   11.4055  -18.8576   18.7640 O   0  0  0  0  0  0  0  0  0  0  0  0
    9.7915  -16.1632   22.0084 C   0  0  0  0  0  0  0  0  0  0  0  0
   10.8215  -16.0942   22.7260 O   0  0  0  0  0  0  0  0  0  0  0  0
   11.9235  -16.7826   18.0204 O   0  0  0  0  0  0  0  0  0  0  0  0
    8.5975  -15.5223   22.4044 N   0  0  0  0  0  0  0  0  0  0  0  0
    8.4360  -14.9120   23.6917 C   0  0  1  0  0  0  0  0  0  0  0  0
    7.2982  -13.9251   23.7720 C   0  0  0  0  0  0  0  0  0  0  0  0
    7.2045  -13.3250   25.1246 C   0  0  0  0  0  0  0  0  0  0  0  0
    8.1568  -12.4540   25.5534 C   0  0  0  0  0  0  0  0  0  0  0  0
    8.0346  -11.9203   26.8334 C   0  0  0  0  0  0  0  0  0  0  0  0
    6.9754  -12.2776   27.6203 C   0  0  0  0  0  0  0  0  0  0  0  0
    6.0264  -13.1486   27.1858 C   0  0  0  0  0  0  0  0  0  0  0  0
    6.1244  -13.6877   25.9301 C   0  0  0  0  0  0  0  0  0  0  0  0
    8.3415  -15.9169   24.8033 C   0  0  0  0  0  0  0  0  0  0  0  0
    7.2340  -16.4818   24.9186 O   0  0  0  0  0  0  0  0  0  0  0  0
   11.2291  -18.2533   25.6106 O   0  0  0  0  0  0  0  0  0  0  0  0
    9.9955  -18.4686   26.2079 C   0  0  0  0  0  0  0  0  0  0  0  0
    9.4197  -17.1646   26.6910 C   0  0  2  0  0  0  0  0  0  0  0  0
    9.4304  -16.1953   25.6510 N   0  0  0  0  0  0  0  0  0  0  0  0
   10.0627  -16.7091   27.9676 C   0  0  0  0  0  0  0  0  0  0  0  0
   10.5441  -15.5672   28.0209 O   0  0  0  0  0  0  0  0  0  0  0  0
   10.1142  -17.5480   29.0563 O   0  0  0  0  0  0  0  0  0  0  0  0
  2  1  1  6
  2  3  1  0
  3  4  1  0
  4  8  1  0
  5  4  2  0
  6  2  1  0
  7  6  2  0
  9  6  1  0
 10 11  1  6
 10  9  1  0
 11 12  1  0
 12 13  2  0
 12 17  1  0
 13 14  1  0
 14 15  2  0
 16 15  1  0
 17 16  2  0
 18 10  1  0
 19 18  2  0
 20 21  1  0
 22 21  1  6
 22 23  1  0
 23 18  1  0
 24 22  1  0
 24 26  1  0
 25 24  2  0
M  END
$$$$
