DFS.pdb
     RDKit          3D

 26 26  0  0  1  0  0  0  0  0999 V2000
    8.8793  -17.0200   21.1363 N   0  0  0  0  0  0  0  0  0  0  0  0
   10.0847  -16.6935   21.7642 C   0  0  1  0  0  0  0  0  0  0  0  0
   10.8322  -15.5448   21.1734 C   0  0  0  0  0  0  0  0  0  0  0  0
   11.1252  -15.7260   19.7359 C   0  0  0  0  0  0  0  0  0  0  0  0
   11.9237  -16.5925   19.3068 O   0  0  0  0  0  0  0  0  0  0  0  0
    9.8287  -16.3492   23.2104 C   0  0  0  0  0  0  0  0  0  0  0  0
   10.7848  -15.9080   23.8973 O   0  0  0  0  0  0  0  0  0  0  0  0
   10.4934  -14.9064   18.8190 O   0  0  0  0  0  0  0  0  0  0  0  0
    8.5500  -16.5158   23.7849 N   0  0  0  0  0  0  0  0  0  0  0  0
    8.2918  -16.2953   25.1778 C   0  0  1  0  0  0  0  0  0  0  0  0
    6.9410  -15.6912   25.4705 C   0  0  0  0  0  0  0  0  0  0  0  0
    6.9995  -14.2099   25.4422 C   0  0  0  0  0  0  0  0  0  0  0  0
    7.1308  -13.5536   24.2584 C   0  0  0  0  0  0  0  0  0  0  0  0
    7.1899  -12.1628   24.2782 C   0  0  0  0  0  0  0  0  0  0  0  0
    7.1154  -11.4963   25.4694 C   0  0  0  0  0  0  0  0  0  0  0  0
    6.9838  -12.1582   26.6495 C   0  0  0  0  0  0  0  0  0  0  0  0
    6.9235  -13.5269   26.6566 C   0  0  0  0  0  0  0  0  0  0  0  0
    8.5107  -17.5250   26.0111 C   0  0  0  0  0  0  0  0  0  0  0  0
    7.7830  -18.4987   25.7260 O   0  0  0  0  0  0  0  0  0  0  0  0
   11.6223  -19.2160   26.0013 O   0  0  0  0  0  0  0  0  0  0  0  0
   10.4656  -19.7124   26.5847 C   0  0  0  0  0  0  0  0  0  0  0  0
    9.9661  -18.7587   27.6366 C   0  0  2  0  0  0  0  0  0  0  0  0
    9.4712  -17.5673   27.0395 N   0  0  0  0  0  0  0  0  0  0  0  0
   10.9845  -18.5333   28.7148 C   0  0  0  0  0  0  0  0  0  0  0  0
   11.4547  -19.5156   29.3087 O   0  0  0  0  0  0  0  0  0  0  0  0
   11.3856  -17.2572   29.0346 O   0  0  0  0  0  0  0  0  0  0  0  0
  2  1  1  6
  2  3  1  0
  3  4  1  0
  4  8  1  0
  5  4  2  0
  6  2  1  0
  7  6  2  0
  9  6  1  0
 10 11  1  6
 10  9  1  0
 11 12  1  0
 12 13  2  0
 12 17  1  0
 13 14  1  0
 14 15  2  0
 16 15  1  0
 17 16  2  0
 18 10  1  0
 19 18  2  0
 20 21  1  0
 22 21  1  6
 22 23  1  0
 23 18  1  0
 24 22  1  0
 24 26  1  0
 25 24  2  0
M  END
$$$$
