TFR.pdb
     RDKit          3D

 30 30  0  0  1  0  0  0  0  0999 V2000
    7.9285  -16.7052   19.9556 C   0  0  0  0  0  0  0  0  0  0  0  0
    8.5910  -15.5874   19.1648 C   0  0  1  0  0  0  0  0  0  0  0  0
    8.4037  -15.8968   17.8156 O   0  0  0  0  0  0  0  0  0  0  0  0
    7.8740  -14.2719   19.4215 C   0  0  2  0  0  0  0  0  0  0  0  0
    8.2607  -13.3540   18.3892 N   0  0  0  0  0  0  0  0  0  0  0  0
    8.3270  -13.8099   20.7725 C   0  0  0  0  0  0  0  0  0  0  0  0
    9.3923  -13.1714   20.9332 O   0  0  0  0  0  0  0  0  0  0  0  0
    7.5297  -14.1010   21.9102 N   0  0  0  0  0  0  0  0  0  0  0  0
    7.8504  -13.5673   23.2140 C   0  0  1  0  0  0  0  0  0  0  0  0
    6.5924  -12.9972   23.7944 C   0  0  0  0  0  0  0  0  0  0  0  0
    6.7128  -12.5073   25.1597 C   0  0  0  0  0  0  0  0  0  0  0  0
    7.4011  -11.3596   25.4478 C   0  0  0  0  0  0  0  0  0  0  0  0
    7.4733  -10.9565   26.7625 C   0  0  0  0  0  0  0  0  0  0  0  0
    6.8845  -11.6587   27.7870 C   0  0  0  0  0  0  0  0  0  0  0  0
    6.1946  -12.8087   27.4995 C   0  0  0  0  0  0  0  0  0  0  0  0
    6.1255  -13.2072   26.1830 C   0  0  0  0  0  0  0  0  0  0  0  0
    8.4702  -14.6212   24.0172 C   0  0  0  0  0  0  0  0  0  0  0  0
    8.9302  -14.4622   25.1782 O   0  0  0  0  0  0  0  0  0  0  0  0
    6.3836  -21.3586   27.2910 N   0  0  0  0  0  0  0  0  0  0  0  0
    7.7496  -21.7178   27.1786 C   0  0  0  0  0  0  0  0  0  0  0  0
    8.1512  -22.6875   27.9624 N   0  0  0  0  0  0  0  0  0  0  0  0
    8.6404  -21.0790   26.2799 N   0  0  0  0  0  0  0  0  0  0  0  0
    8.1873  -19.9715   25.4965 C   0  0  0  0  0  0  0  0  0  0  0  0
    9.2302  -19.5327   24.4700 C   0  0  0  0  0  0  0  0  0  0  0  0
    8.7749  -18.3548   23.6855 C   0  0  0  0  0  0  0  0  0  0  0  0
    9.1169  -17.0369   24.3389 C   0  0  2  0  0  0  0  0  0  0  0  0
    8.5875  -15.9416   23.4964 N   0  0  0  0  0  0  0  0  0  0  0  0
   10.5844  -16.8846   24.3377 C   0  0  0  0  0  0  0  0  0  0  0  0
   11.4352  -17.2518   25.3683 O   0  0  0  0  0  0  0  0  0  0  0  0
   11.1329  -16.3776   23.3230 O   0  0  0  0  0  0  0  0  0  0  0  0
  2  1  1  1
  2  3  1  0
  4  2  1  0
  4  5  1  6
  6  4  1  0
  7  6  2  0
  8  6  1  0
  9  8  1  0
  9 10  1  1
 10 11  1  0
 11 12  2  0
 12 13  1  0
 14 13  2  0
 15 14  1  0
 16 11  1  0
 16 15  2  0
 17 18  2  0
 17  9  1  0
 19 20  1  0
 20 22  1  0
 21 20  2  0
 22 23  1  0
 24 25  1  0
 24 23  1  0
 26 25  1  6
 26 27  1  0
 27 17  1  0
 28 26  1  0
 29 28  1  0
 30 28  2  0
M  END
$$$$
