TFR.pdb
     RDKit          3D

 30 30  0  0  1  0  0  0  0  0999 V2000
    7.1224  -16.7764   20.3585 C   0  0  0  0  0  0  0  0  0  0  0  0
    7.9276  -15.6106   19.8050 C   0  0  1  0  0  0  0  0  0  0  0  0
    7.5537  -15.4762   18.4659 O   0  0  0  0  0  0  0  0  0  0  0  0
    7.5299  -14.3227   20.5076 C   0  0  2  0  0  0  0  0  0  0  0  0
    8.0234  -13.2268   19.7247 N   0  0  0  0  0  0  0  0  0  0  0  0
    8.1734  -14.3726   21.8595 C   0  0  0  0  0  0  0  0  0  0  0  0
    9.3666  -14.0376   22.0396 O   0  0  0  0  0  0  0  0  0  0  0  0
    7.4138  -14.8118   22.9752 N   0  0  0  0  0  0  0  0  0  0  0  0
    7.9953  -14.9075   24.2943 C   0  0  1  0  0  0  0  0  0  0  0  0
    6.9540  -14.4796   25.2828 C   0  0  0  0  0  0  0  0  0  0  0  0
    7.0187  -13.0798   25.6762 C   0  0  0  0  0  0  0  0  0  0  0  0
    5.9008  -12.2899   25.6898 C   0  0  0  0  0  0  0  0  0  0  0  0
    6.0376  -10.9745   26.0732 C   0  0  0  0  0  0  0  0  0  0  0  0
    7.2456  -10.4306   26.4396 C   0  0  0  0  0  0  0  0  0  0  0  0
    8.3663  -11.2210   26.4264 C   0  0  0  0  0  0  0  0  0  0  0  0
    8.2238  -12.5358   26.0421 C   0  0  0  0  0  0  0  0  0  0  0  0
    8.5017  -16.2657   24.4908 C   0  0  0  0  0  0  0  0  0  0  0  0
    7.8033  -17.3103   24.4137 O   0  0  0  0  0  0  0  0  0  0  0  0
   13.2022  -20.4618   20.8821 N   0  0  0  0  0  0  0  0  0  0  0  0
   12.9064  -19.2560   20.1994 C   0  0  0  0  0  0  0  0  0  0  0  0
   13.1179  -19.2654   18.9066 N   0  0  0  0  0  0  0  0  0  0  0  0
   12.4120  -18.1021   20.8575 N   0  0  0  0  0  0  0  0  0  0  0  0
   12.8500  -17.7980   22.1847 C   0  0  0  0  0  0  0  0  0  0  0  0
   12.1049  -18.6200   23.2350 C   0  0  0  0  0  0  0  0  0  0  0  0
   11.8614  -17.8419   24.4781 C   0  0  0  0  0  0  0  0  0  0  0  0
   10.4151  -17.8526   24.9126 C   0  0  2  0  0  0  0  0  0  0  0  0
    9.8769  -16.4794   24.7934 N   0  0  0  0  0  0  0  0  0  0  0  0
   10.3635  -18.1918   26.3476 C   0  0  0  0  0  0  0  0  0  0  0  0
   10.6289  -19.4381   26.8927 O   0  0  0  0  0  0  0  0  0  0  0  0
   10.0517  -17.2861   27.1661 O   0  0  0  0  0  0  0  0  0  0  0  0
  2  1  1  1
  2  3  1  0
  4  2  1  0
  4  5  1  6
  6  4  1  0
  7  6  2  0
  8  6  1  0
  9  8  1  0
  9 10  1  1
 10 11  1  0
 11 12  2  0
 12 13  1  0
 14 13  2  0
 15 14  1  0
 16 11  1  0
 16 15  2  0
 17 18  2  0
 17  9  1  0
 19 20  1  0
 20 22  1  0
 21 20  2  0
 22 23  1  0
 24 25  1  0
 24 23  1  0
 26 25  1  1
 26 27  1  0
 27 17  1  0
 28 26  1  0
 29 28  1  0
 30 28  2  0
M  END
$$$$
