TFR.pdb
     RDKit          3D

 30 30  0  0  1  0  0  0  0  0999 V2000
    8.9000  -16.4804   18.3263 C   0  0  0  0  0  0  0  0  0  0  0  0
    7.6584  -16.8057   19.1425 C   0  0  1  0  0  0  0  0  0  0  0  0
    6.9450  -17.7571   18.4097 O   0  0  0  0  0  0  0  0  0  0  0  0
    8.0549  -17.4629   20.4545 C   0  0  2  0  0  0  0  0  0  0  0  0
    6.9063  -18.1572   20.9608 N   0  0  0  0  0  0  0  0  0  0  0  0
    8.4759  -16.3500   21.3647 C   0  0  0  0  0  0  0  0  0  0  0  0
    9.4766  -15.6370   21.1229 O   0  0  0  0  0  0  0  0  0  0  0  0
    7.7224  -16.0896   22.5391 N   0  0  0  0  0  0  0  0  0  0  0  0
    8.0973  -15.0417   23.4603 C   0  0  1  0  0  0  0  0  0  0  0  0
    6.8402  -14.4989   24.0682 C   0  0  0  0  0  0  0  0  0  0  0  0
    7.0414  -13.4867   25.0945 C   0  0  0  0  0  0  0  0  0  0  0  0
    6.5346  -13.6396   26.3568 C   0  0  0  0  0  0  0  0  0  0  0  0
    6.7646  -12.6407   27.2762 C   0  0  0  0  0  0  0  0  0  0  0  0
    7.4786  -11.5055   26.9750 C   0  0  0  0  0  0  0  0  0  0  0  0
    7.9870  -11.3512   25.7105 C   0  0  0  0  0  0  0  0  0  0  0  0
    7.7539  -12.3532   24.7950 C   0  0  0  0  0  0  0  0  0  0  0  0
    9.0580  -15.5798   24.4234 C   0  0  0  0  0  0  0  0  0  0  0  0
    9.7676  -14.8829   25.1951 O   0  0  0  0  0  0  0  0  0  0  0  0
   15.4732  -18.3380   23.4495 N   0  0  0  0  0  0  0  0  0  0  0  0
   14.7761  -18.2799   22.2174 C   0  0  0  0  0  0  0  0  0  0  0  0
   15.2657  -19.0144   21.2494 N   0  0  0  0  0  0  0  0  0  0  0  0
   13.6200  -17.4826   22.0257 N   0  0  0  0  0  0  0  0  0  0  0  0
   13.0583  -16.7677   23.1299 C   0  0  0  0  0  0  0  0  0  0  0  0
   12.3337  -17.6960   24.1030 C   0  0  0  0  0  0  0  0  0  0  0  0
   11.5937  -16.9379   25.1460 C   0  0  0  0  0  0  0  0  0  0  0  0
   10.2476  -17.5385   25.4749 C   0  0  2  0  0  0  0  0  0  0  0  0
    9.2438  -16.9872   24.5378 N   0  0  0  0  0  0  0  0  0  0  0  0
    9.8504  -17.0802   26.8200 C   0  0  0  0  0  0  0  0  0  0  0  0
   10.4418  -17.4672   28.0122 O   0  0  0  0  0  0  0  0  0  0  0  0
    8.8921  -16.2679   26.9170 O   0  0  0  0  0  0  0  0  0  0  0  0
  2  1  1  6
  2  3  1  0
  4  2  1  0
  4  5  1  1
  6  4  1  0
  7  6  2  0
  8  6  1  0
  9  8  1  0
  9 10  1  1
 10 11  1  0
 11 12  2  0
 12 13  1  0
 14 13  2  0
 15 14  1  0
 16 11  1  0
 16 15  2  0
 17 18  2  0
 17  9  1  0
 19 20  1  0
 20 22  1  0
 21 20  2  0
 22 23  1  0
 24 25  1  0
 24 23  1  0
 26 25  1  6
 26 27  1  0
 27 17  1  0
 28 26  1  0
 29 28  1  0
 30 28  2  0
M  END
$$$$
