TFR.pdb
     RDKit          3D

 30 30  0  0  1  0  0  0  0  0999 V2000
    6.9788  -18.0029   20.6238 C   0  0  0  0  0  0  0  0  0  0  0  0
    8.3692  -17.9095   20.0142 C   0  0  1  0  0  0  0  0  0  0  0  0
    8.2778  -18.4744   18.7399 O   0  0  0  0  0  0  0  0  0  0  0  0
    8.7588  -16.4523   19.8261 C   0  0  2  0  0  0  0  0  0  0  0  0
    9.9494  -16.4173   19.0268 N   0  0  0  0  0  0  0  0  0  0  0  0
    8.9975  -15.9066   21.2006 C   0  0  0  0  0  0  0  0  0  0  0  0
   10.0483  -16.1480   21.8376 O   0  0  0  0  0  0  0  0  0  0  0  0
    8.0068  -15.0901   21.8062 N   0  0  0  0  0  0  0  0  0  0  0  0
    8.1606  -14.5888   23.1524 C   0  0  1  0  0  0  0  0  0  0  0  0
    7.2002  -13.4523   23.3273 C   0  0  0  0  0  0  0  0  0  0  0  0
    7.1151  -12.9226   24.6803 C   0  0  0  0  0  0  0  0  0  0  0  0
    6.0461  -13.1997   25.4892 C   0  0  0  0  0  0  0  0  0  0  0  0
    6.0334  -12.6641   26.7577 C   0  0  0  0  0  0  0  0  0  0  0  0
    7.0465  -11.8682   27.2369 C   0  0  0  0  0  0  0  0  0  0  0  0
    8.1181  -11.5900   26.4273 C   0  0  0  0  0  0  0  0  0  0  0  0
    8.1256  -12.1282   25.1597 C   0  0  0  0  0  0  0  0  0  0  0  0
    7.9761  -15.6940   24.0928 C   0  0  0  0  0  0  0  0  0  0  0  0
    7.1494  -16.6319   23.9449 O   0  0  0  0  0  0  0  0  0  0  0  0
   13.6271  -20.9450   23.5752 N   0  0  0  0  0  0  0  0  0  0  0  0
   13.0841  -19.9749   22.6968 C   0  0  0  0  0  0  0  0  0  0  0  0
   13.8865  -19.5452   21.7546 N   0  0  0  0  0  0  0  0  0  0  0  0
   11.7581  -19.4881   22.8148 N   0  0  0  0  0  0  0  0  0  0  0  0
   10.9892  -19.7952   23.9811 C   0  0  0  0  0  0  0  0  0  0  0  0
   11.1113  -18.7091   25.0486 C   0  0  0  0  0  0  0  0  0  0  0  0
   10.3736  -17.4749   24.6710 C   0  0  0  0  0  0  0  0  0  0  0  0
    9.3626  -17.0458   25.7076 C   0  0  2  0  0  0  0  0  0  0  0  0
    8.7625  -15.7631   25.2782 N   0  0  0  0  0  0  0  0  0  0  0  0
   10.0787  -16.7641   26.9665 C   0  0  0  0  0  0  0  0  0  0  0  0
   10.2110  -17.6389   28.0333 O   0  0  0  0  0  0  0  0  0  0  0  0
   10.6233  -15.6365   27.1062 O   0  0  0  0  0  0  0  0  0  0  0  0
  2  1  1  6
  2  3  1  0
  4  2  1  0
  4  5  1  6
  6  4  1  0
  7  6  2  0
  8  6  1  0
  9  8  1  0
  9 10  1  1
 10 11  1  0
 11 12  2  0
 12 13  1  0
 14 13  2  0
 15 14  1  0
 16 11  1  0
 16 15  2  0
 17 18  2  0
 17  9  1  0
 19 20  1  0
 20 22  1  0
 21 20  2  0
 22 23  1  0
 24 25  1  0
 24 23  1  0
 26 25  1  6
 26 27  1  0
 27 17  1  0
 28 26  1  0
 29 28  1  0
 30 28  2  0
M  END
$$$$
