TFR.pdb
     RDKit          3D

 30 30  0  0  1  0  0  0  0  0999 V2000
    7.5736  -20.5493   18.9821 C   0  0  0  0  0  0  0  0  0  0  0  0
    8.3525  -19.5818   19.8600 C   0  0  1  0  0  0  0  0  0  0  0  0
    9.6757  -20.0296   19.8595 O   0  0  0  0  0  0  0  0  0  0  0  0
    8.3532  -18.1962   19.2350 C   0  0  2  0  0  0  0  0  0  0  0  0
    9.0286  -18.2859   17.9727 N   0  0  0  0  0  0  0  0  0  0  0  0
    9.0863  -17.3094   20.1943 C   0  0  0  0  0  0  0  0  0  0  0  0
   10.3058  -17.0556   20.0646 O   0  0  0  0  0  0  0  0  0  0  0  0
    8.3841  -16.7356   21.2862 N   0  0  0  0  0  0  0  0  0  0  0  0
    9.0390  -15.8569   22.2276 C   0  0  1  0  0  0  0  0  0  0  0  0
    8.0613  -14.7872   22.6077 C   0  0  0  0  0  0  0  0  0  0  0  0
    7.6690  -13.8999   21.5227 C   0  0  0  0  0  0  0  0  0  0  0  0
    8.4165  -12.8014   21.1935 C   0  0  0  0  0  0  0  0  0  0  0  0
    7.9841  -12.0070   20.1552 C   0  0  0  0  0  0  0  0  0  0  0  0
    6.8390  -12.2748   19.4436 C   0  0  0  0  0  0  0  0  0  0  0  0
    6.0892  -13.3751   19.7726 C   0  0  0  0  0  0  0  0  0  0  0  0
    6.5263  -14.1661   20.8118 C   0  0  0  0  0  0  0  0  0  0  0  0
    9.5393  -16.6526   23.3485 C   0  0  0  0  0  0  0  0  0  0  0  0
    8.8833  -17.5483   23.9422 O   0  0  0  0  0  0  0  0  0  0  0  0
   11.2343  -23.5616   22.1564 N   0  0  0  0  0  0  0  0  0  0  0  0
   12.4405  -23.3569   22.8711 C   0  0  0  0  0  0  0  0  0  0  0  0
   13.1257  -24.4366   23.1553 N   0  0  0  0  0  0  0  0  0  0  0  0
   12.8930  -22.0719   23.2624 N   0  0  0  0  0  0  0  0  0  0  0  0
   12.0913  -20.9206   22.9843 C   0  0  0  0  0  0  0  0  0  0  0  0
   12.8222  -19.6210   23.3170 C   0  0  0  0  0  0  0  0  0  0  0  0
   11.9888  -18.4252   23.0241 C   0  0  0  0  0  0  0  0  0  0  0  0
   11.7024  -17.5862   24.2467 C   0  0  2  0  0  0  0  0  0  0  0  0
   10.8573  -16.4400   23.8444 N   0  0  0  0  0  0  0  0  0  0  0  0
   12.9746  -17.0118   24.7247 C   0  0  0  0  0  0  0  0  0  0  0  0
   13.6574  -17.4002   25.8665 O   0  0  0  0  0  0  0  0  0  0  0  0
   13.5032  -16.0858   24.0533 O   0  0  0  0  0  0  0  0  0  0  0  0
  2  1  1  6
  2  3  1  0
  4  2  1  0
  4  5  1  6
  6  4  1  0
  7  6  2  0
  8  6  1  0
  9  8  1  0
  9 10  1  1
 10 11  1  0
 11 12  2  0
 12 13  1  0
 14 13  2  0
 15 14  1  0
 16 11  1  0
 16 15  2  0
 17 18  2  0
 17  9  1  0
 19 20  1  0
 20 22  1  0
 21 20  2  0
 22 23  1  0
 24 25  1  0
 24 23  1  0
 26 25  1  6
 26 27  1  0
 27 17  1  0
 28 26  1  0
 29 28  1  0
 30 28  2  0
M  END
$$$$
