TFR.pdb
     RDKit          3D

 30 30  0  0  1  0  0  0  0  0999 V2000
    8.1322  -16.4154   19.1404 C   0  0  0  0  0  0  0  0  0  0  0  0
    8.5731  -15.1088   18.4984 C   0  0  1  0  0  0  0  0  0  0  0  0
    8.2794  -15.2215   17.1375 O   0  0  0  0  0  0  0  0  0  0  0  0
    7.7409  -13.9567   19.0375 C   0  0  2  0  0  0  0  0  0  0  0  0
    8.0463  -12.7932   18.2560 N   0  0  0  0  0  0  0  0  0  0  0  0
    8.1482  -13.7857   20.4689 C   0  0  0  0  0  0  0  0  0  0  0  0
    9.2764  -13.3476   20.7905 O   0  0  0  0  0  0  0  0  0  0  0  0
    7.2326  -14.1287   21.4979 N   0  0  0  0  0  0  0  0  0  0  0  0
    7.5814  -13.9979   22.8938 C   0  0  1  0  0  0  0  0  0  0  0  0
    6.3247  -13.6923   23.6502 C   0  0  0  0  0  0  0  0  0  0  0  0
    6.5212  -13.3229   25.0442 C   0  0  0  0  0  0  0  0  0  0  0  0
    5.4626  -13.0255   25.8596 C   0  0  0  0  0  0  0  0  0  0  0  0
    5.7242  -12.6844   27.1678 C   0  0  0  0  0  0  0  0  0  0  0  0
    6.9987  -12.6321   27.6800 C   0  0  0  0  0  0  0  0  0  0  0  0
    8.0601  -12.9298   26.8639 C   0  0  0  0  0  0  0  0  0  0  0  0
    7.7927  -13.2703   25.5565 C   0  0  0  0  0  0  0  0  0  0  0  0
    8.2728  -15.2128   23.3247 C   0  0  0  0  0  0  0  0  0  0  0  0
    7.7608  -16.3628   23.3405 O   0  0  0  0  0  0  0  0  0  0  0  0
   16.5765  -18.6967   23.9989 N   0  0  0  0  0  0  0  0  0  0  0  0
   15.4792  -19.0645   23.1815 C   0  0  0  0  0  0  0  0  0  0  0  0
   15.2108  -20.3456   23.1290 N   0  0  0  0  0  0  0  0  0  0  0  0
   14.7090  -18.1194   22.4586 N   0  0  0  0  0  0  0  0  0  0  0  0
   14.1449  -16.9938   23.1371 C   0  0  0  0  0  0  0  0  0  0  0  0
   12.7353  -17.2831   23.6503 C   0  0  0  0  0  0  0  0  0  0  0  0
   11.8261  -16.1226   23.4587 C   0  0  0  0  0  0  0  0  0  0  0  0
   10.4191  -16.3835   23.9414 C   0  0  2  0  0  0  0  0  0  0  0  0
    9.6246  -15.1472   23.7683 N   0  0  0  0  0  0  0  0  0  0  0  0
   10.4664  -16.6425   25.3931 C   0  0  0  0  0  0  0  0  0  0  0  0
    9.9774  -15.8009   26.3798 O   0  0  0  0  0  0  0  0  0  0  0  0
   10.9939  -17.7145   25.7932 O   0  0  0  0  0  0  0  0  0  0  0  0
  2  1  1  1
  2  3  1  0
  4  2  1  0
  4  5  1  6
  6  4  1  0
  7  6  2  0
  8  6  1  0
  9  8  1  0
  9 10  1  1
 10 11  1  0
 11 12  2  0
 12 13  1  0
 14 13  2  0
 15 14  1  0
 16 11  1  0
 16 15  2  0
 17 18  2  0
 17  9  1  0
 19 20  1  0
 20 22  1  0
 21 20  2  0
 22 23  1  0
 24 25  1  0
 24 23  1  0
 26 25  1  1
 26 27  1  0
 27 17  1  0
 28 26  1  0
 29 28  1  0
 30 28  2  0
M  END
$$$$
