TFR.pdb
     RDKit          3D

 30 30  0  0  1  0  0  0  0  0999 V2000
    8.0929  -18.3768   18.7296 C   0  0  0  0  0  0  0  0  0  0  0  0
    8.3969  -17.7901   20.0996 C   0  0  1  0  0  0  0  0  0  0  0  0
    9.3505  -18.6280   20.6826 O   0  0  0  0  0  0  0  0  0  0  0  0
    9.0419  -16.4220   19.9490 C   0  0  2  0  0  0  0  0  0  0  0  0
   10.2936  -16.6005   19.2715 N   0  0  0  0  0  0  0  0  0  0  0  0
    9.2337  -15.8991   21.3396 C   0  0  0  0  0  0  0  0  0  0  0  0
   10.3044  -16.0620   21.9685 O   0  0  0  0  0  0  0  0  0  0  0  0
    8.1741  -15.1963   21.9704 N   0  0  0  0  0  0  0  0  0  0  0  0
    8.3100  -14.6658   23.3074 C   0  0  1  0  0  0  0  0  0  0  0  0
    7.1902  -13.6953   23.5279 C   0  0  0  0  0  0  0  0  0  0  0  0
    7.1432  -13.1031   24.8566 C   0  0  0  0  0  0  0  0  0  0  0  0
    7.9313  -12.0346   25.1899 C   0  0  0  0  0  0  0  0  0  0  0  0
    7.8335  -11.5264   26.4660 C   0  0  0  0  0  0  0  0  0  0  0  0
    6.9806  -12.0486   27.4089 C   0  0  0  0  0  0  0  0  0  0  0  0
    6.1904  -13.1191   27.0761 C   0  0  0  0  0  0  0  0  0  0  0  0
    6.2923  -13.6234   25.7986 C   0  0  0  0  0  0  0  0  0  0  0  0
    8.3490  -15.7785   24.2562 C   0  0  0  0  0  0  0  0  0  0  0  0
    7.4824  -16.6886   24.3312 O   0  0  0  0  0  0  0  0  0  0  0  0
   11.4689  -19.0297   21.2409 N   0  0  0  0  0  0  0  0  0  0  0  0
   12.1849  -19.9831   22.0063 C   0  0  0  0  0  0  0  0  0  0  0  0
   12.6710  -21.0010   21.3403 N   0  0  0  0  0  0  0  0  0  0  0  0
   12.3735  -19.8596   23.4057 N   0  0  0  0  0  0  0  0  0  0  0  0
   11.2711  -19.4987   24.2426 C   0  0  0  0  0  0  0  0  0  0  0  0
   11.2164  -17.9936   24.4984 C   0  0  0  0  0  0  0  0  0  0  0  0
   10.8864  -17.6833   25.9144 C   0  0  0  0  0  0  0  0  0  0  0  0
    9.5212  -17.0603   26.0839 C   0  0  2  0  0  0  0  0  0  0  0  0
    9.4228  -15.8887   25.1853 N   0  0  0  0  0  0  0  0  0  0  0  0
    9.4177  -16.5344   27.4586 C   0  0  0  0  0  0  0  0  0  0  0  0
    9.1073  -17.2779   28.5863 O   0  0  0  0  0  0  0  0  0  0  0  0
    9.6237  -15.3057   27.6467 O   0  0  0  0  0  0  0  0  0  0  0  0
  2  1  1  6
  2  3  1  0
  4  2  1  0
  4  5  1  1
  6  4  1  0
  7  6  2  0
  8  6  1  0
  9  8  1  0
  9 10  1  1
 10 11  1  0
 11 12  2  0
 12 13  1  0
 14 13  2  0
 15 14  1  0
 16 11  1  0
 16 15  2  0
 17 18  2  0
 17  9  1  0
 19 20  1  0
 20 22  1  0
 21 20  2  0
 22 23  1  0
 24 25  1  0
 24 23  1  0
 26 25  1  1
 26 27  1  0
 27 17  1  0
 28 26  1  0
 29 28  1  0
 30 28  2  0
M  END
$$$$
