TFR.pdb
     RDKit          3D

 30 30  0  0  1  0  0  0  0  0999 V2000
    6.9341  -15.7773   19.6706 C   0  0  0  0  0  0  0  0  0  0  0  0
    7.7978  -14.5926   19.2654 C   0  0  1  0  0  0  0  0  0  0  0  0
    7.3408  -14.1850   18.0099 O   0  0  0  0  0  0  0  0  0  0  0  0
    7.5692  -13.4310   20.2188 C   0  0  2  0  0  0  0  0  0  0  0  0
    8.0902  -12.2470   19.5988 N   0  0  0  0  0  0  0  0  0  0  0  0
    8.3125  -13.7727   21.4737 C   0  0  0  0  0  0  0  0  0  0  0  0
    9.5284  -13.5094   21.6179 O   0  0  0  0  0  0  0  0  0  0  0  0
    7.6245  -14.4147   22.5364 N   0  0  0  0  0  0  0  0  0  0  0  0
    8.2960  -14.7706   23.7651 C   0  0  1  0  0  0  0  0  0  0  0  0
    7.2803  -14.7340   24.8659 C   0  0  0  0  0  0  0  0  0  0  0  0
    7.1492  -13.4498   25.5383 C   0  0  0  0  0  0  0  0  0  0  0  0
    8.2474  -12.7053   25.8750 C   0  0  0  0  0  0  0  0  0  0  0  0
    8.0471  -11.4998   26.5096 C   0  0  0  0  0  0  0  0  0  0  0  0
    6.7951  -11.0211   26.8145 C   0  0  0  0  0  0  0  0  0  0  0  0
    5.6940  -11.7663   26.4775 C   0  0  0  0  0  0  0  0  0  0  0  0
    5.9002  -12.9711   25.8430 C   0  0  0  0  0  0  0  0  0  0  0  0
    8.9558  -16.0639   23.5863 C   0  0  0  0  0  0  0  0  0  0  0  0
    8.4641  -17.0403   22.9620 O   0  0  0  0  0  0  0  0  0  0  0  0
   16.4018  -15.4362   20.1159 N   0  0  0  0  0  0  0  0  0  0  0  0
   15.3741  -15.1692   19.1778 C   0  0  0  0  0  0  0  0  0  0  0  0
   15.7564  -15.0520   17.9303 N   0  0  0  0  0  0  0  0  0  0  0  0
   14.0124  -15.0342   19.5476 N   0  0  0  0  0  0  0  0  0  0  0  0
   13.6486  -15.0289   20.9309 C   0  0  0  0  0  0  0  0  0  0  0  0
   12.7162  -16.1873   21.2811 C   0  0  0  0  0  0  0  0  0  0  0  0
   11.6388  -15.7689   22.2161 C   0  0  0  0  0  0  0  0  0  0  0  0
   11.3510  -16.7930   23.2881 C   0  0  2  0  0  0  0  0  0  0  0  0
   10.2493  -16.2890   24.1380 N   0  0  0  0  0  0  0  0  0  0  0  0
   12.5338  -16.8937   24.1643 C   0  0  0  0  0  0  0  0  0  0  0  0
   12.6105  -16.4416   25.4722 O   0  0  0  0  0  0  0  0  0  0  0  0
   13.5758  -17.4319   23.7040 O   0  0  0  0  0  0  0  0  0  0  0  0
  2  1  1  1
  2  3  1  0
  4  2  1  0
  4  5  1  6
  6  4  1  0
  7  6  2  0
  8  6  1  0
  9  8  1  0
  9 10  1  1
 10 11  1  0
 11 12  2  0
 12 13  1  0
 14 13  2  0
 15 14  1  0
 16 11  1  0
 16 15  2  0
 17 18  2  0
 17  9  1  0
 19 20  1  0
 20 22  1  0
 21 20  2  0
 22 23  1  0
 24 25  1  0
 24 23  1  0
 26 25  1  6
 26 27  1  0
 27 17  1  0
 28 26  1  0
 29 28  1  0
 30 28  2  0
M  END
$$$$
