TFR.pdb
     RDKit          3D

 30 30  0  0  1  0  0  0  0  0999 V2000
    7.7772  -16.2727   19.1432 C   0  0  0  0  0  0  0  0  0  0  0  0
    8.4568  -15.0325   18.5831 C   0  0  1  0  0  0  0  0  0  0  0  0
    8.2342  -15.0518   17.2043 O   0  0  0  0  0  0  0  0  0  0  0  0
    7.7838  -13.7810   19.1231 C   0  0  2  0  0  0  0  0  0  0  0  0
    8.2237  -12.6703   18.3290 N   0  0  0  0  0  0  0  0  0  0  0  0
    8.2277  -13.6541   20.5482 C   0  0  0  0  0  0  0  0  0  0  0  0
    9.3973  -13.3260   20.8526 O   0  0  0  0  0  0  0  0  0  0  0  0
    7.2999  -13.9119   21.5910 N   0  0  0  0  0  0  0  0  0  0  0  0
    7.6816  -13.8207   22.9814 C   0  0  1  0  0  0  0  0  0  0  0  0
    6.5130  -13.2682   23.7388 C   0  0  0  0  0  0  0  0  0  0  0  0
    6.7416  -13.0707   25.1626 C   0  0  0  0  0  0  0  0  0  0  0  0
    7.2912  -11.9127   25.6432 C   0  0  0  0  0  0  0  0  0  0  0  0
    7.4783  -11.7960   27.0024 C   0  0  0  0  0  0  0  0  0  0  0  0
    7.1362  -12.7914   27.8864 C   0  0  0  0  0  0  0  0  0  0  0  0
    6.5855  -13.9521   27.4060 C   0  0  0  0  0  0  0  0  0  0  0  0
    6.4006  -14.0635   26.0458 C   0  0  0  0  0  0  0  0  0  0  0  0
    8.1362  -15.1352   23.4345 C   0  0  0  0  0  0  0  0  0  0  0  0
    7.5705  -16.2252   23.1572 O   0  0  0  0  0  0  0  0  0  0  0  0
   11.4083  -18.0018   19.6122 N   0  0  0  0  0  0  0  0  0  0  0  0
   12.3268  -18.9611   20.1057 C   0  0  0  0  0  0  0  0  0  0  0  0
   12.4467  -20.0549   19.3949 N   0  0  0  0  0  0  0  0  0  0  0  0
   13.0775  -18.7666   21.2922 N   0  0  0  0  0  0  0  0  0  0  0  0
   12.8451  -17.6085   22.0987 C   0  0  0  0  0  0  0  0  0  0  0  0
   11.5994  -17.7593   22.9702 C   0  0  0  0  0  0  0  0  0  0  0  0
   11.3007  -16.5171   23.7305 C   0  0  0  0  0  0  0  0  0  0  0  0
    9.9641  -16.5565   24.4324 C   0  0  2  0  0  0  0  0  0  0  0  0
    9.2977  -15.2478   24.2509 N   0  0  0  0  0  0  0  0  0  0  0  0
   10.2040  -16.6989   25.8812 C   0  0  0  0  0  0  0  0  0  0  0  0
    9.8484  -15.7769   26.8529 O   0  0  0  0  0  0  0  0  0  0  0  0
   10.7823  -17.7399   26.2929 O   0  0  0  0  0  0  0  0  0  0  0  0
  2  1  1  1
  2  3  1  0
  4  2  1  0
  4  5  1  6
  6  4  1  0
  7  6  2  0
  8  6  1  0
  9  8  1  0
  9 10  1  1
 10 11  1  0
 11 12  2  0
 12 13  1  0
 14 13  2  0
 15 14  1  0
 16 11  1  0
 16 15  2  0
 17 18  2  0
 17  9  1  0
 19 20  1  0
 20 22  1  0
 21 20  2  0
 22 23  1  0
 24 25  1  0
 24 23  1  0
 26 25  1  6
 26 27  1  0
 27 17  1  0
 28 26  1  0
 29 28  1  0
 30 28  2  0
M  END
$$$$
