LKA.pdb
     RDKit          3D

 23 22  0  0  1  0  0  0  0  0999 V2000
    6.5068  -12.3133   28.3696 C   0  0  0  0  0  0  0  0  0  0  0  0
    6.8058  -12.2979   26.8846 C   0  0  2  0  0  0  0  0  0  0  0  0
    6.2352  -11.0395   26.2968 C   0  0  0  0  0  0  0  0  0  0  0  0
    6.2177  -13.5431   26.2889 C   0  0  0  0  0  0  0  0  0  0  0  0
    7.2310  -14.6492   26.1228 C   0  0  2  0  0  0  0  0  0  0  0  0
    8.5288  -14.2688   26.5854 N   0  0  0  0  0  0  0  0  0  0  0  0
    7.2291  -15.0662   24.6981 C   0  0  0  0  0  0  0  0  0  0  0  0
    6.2983  -15.7684   24.2310 O   0  0  0  0  0  0  0  0  0  0  0  0
    8.2756  -14.6972   23.7827 N   0  0  0  0  0  0  0  0  0  0  0  0
    8.3146  -15.1491   22.4178 C   0  0  1  0  0  0  0  0  0  0  0  0
    8.3850  -14.0805   21.3867 C   0  0  0  0  0  0  0  0  0  0  0  0
    8.3546  -14.4887   19.9669 C   0  0  0  0  0  0  0  0  0  0  0  0
    8.4557  -13.4197   18.9422 C   0  0  0  0  0  0  0  0  0  0  0  0
    8.3809  -14.1271   17.5767 C   0  0  0  0  0  0  0  0  0  0  0  0
    8.4544  -13.1843   16.4928 N   0  0  0  0  0  0  0  0  0  0  0  0
    9.5593  -15.9920   22.2692 C   0  0  0  0  0  0  0  0  0  0  0  0
   10.6551  -15.6228   22.7550 O   0  0  0  0  0  0  0  0  0  0  0  0
   10.2898  -19.4837   21.0627 C   0  0  0  0  0  0  0  0  0  0  0  0
   10.6284  -18.0718   21.4037 C   0  0  2  0  0  0  0  0  0  0  0  0
    9.4638  -17.2136   21.5669 N   0  0  0  0  0  0  0  0  0  0  0  0
   11.5375  -17.4284   20.4062 C   0  0  0  0  0  0  0  0  0  0  0  0
   11.0802  -16.3778   19.6142 O   0  0  0  0  0  0  0  0  0  0  0  0
   12.6972  -17.8228   20.2777 O   0  0  0  0  0  0  0  0  0  0  0  0
  2  1  1  1
  2  3  1  0
  4  2  1  0
  4  5  1  0
  5  7  1  0
  5  6  1  6
  7  9  1  0
  8  7  2  0
  9 10  1  0
 10 11  1  6
 12 11  1  0
 13 14  1  0
 13 12  1  0
 14 15  1  0
 16 17  2  0
 16 10  1  0
 19 18  1  6
 19 21  1  0
 19 20  1  0
 20 16  1  0
 21 22  1  0
 23 21  2  0
M  END
$$$$
