LKA.pdb
     RDKit          3D

 23 22  0  0  1  0  0  0  0  0999 V2000
    6.1749  -12.1174   23.8777 C   0  0  0  0  0  0  0  0  0  0  0  0
    5.6952  -12.4355   25.2790 C   0  0  2  0  0  0  0  0  0  0  0  0
    5.7918  -11.1888   26.1102 C   0  0  0  0  0  0  0  0  0  0  0  0
    6.5396  -13.5586   25.8052 C   0  0  0  0  0  0  0  0  0  0  0  0
    6.3919  -14.8290   25.0040 C   0  0  2  0  0  0  0  0  0  0  0  0
    5.0950  -15.4125   25.1480 N   0  0  0  0  0  0  0  0  0  0  0  0
    7.4841  -15.7534   25.3998 C   0  0  0  0  0  0  0  0  0  0  0  0
    7.5300  -16.2427   26.5557 O   0  0  0  0  0  0  0  0  0  0  0  0
    8.5371  -16.1375   24.4983 N   0  0  0  0  0  0  0  0  0  0  0  0
    9.5906  -17.0438   24.8690 C   0  0  1  0  0  0  0  0  0  0  0  0
   10.5220  -17.4309   23.7769 C   0  0  0  0  0  0  0  0  0  0  0  0
   11.6095  -18.3775   24.1007 C   0  0  0  0  0  0  0  0  0  0  0  0
   11.6251  -19.6774   23.3844 C   0  0  0  0  0  0  0  0  0  0  0  0
   12.8432  -20.4490   23.9241 C   0  0  0  0  0  0  0  0  0  0  0  0
   12.9923  -21.7199   23.2672 N   0  0  0  0  0  0  0  0  0  0  0  0
   10.4137  -16.3510   25.9295 C   0  0  0  0  0  0  0  0  0  0  0  0
   11.1430  -15.3704   25.6475 O   0  0  0  0  0  0  0  0  0  0  0  0
   10.4945  -15.1283   29.0331 C   0  0  0  0  0  0  0  0  0  0  0  0
   11.1639  -16.2447   28.3050 C   0  0  2  0  0  0  0  0  0  0  0  0
   10.3449  -16.8332   27.2551 N   0  0  0  0  0  0  0  0  0  0  0  0
   11.6159  -17.3474   29.2080 C   0  0  0  0  0  0  0  0  0  0  0  0
   12.5422  -17.0939   30.2169 O   0  0  0  0  0  0  0  0  0  0  0  0
   11.1724  -18.4876   29.0661 O   0  0  0  0  0  0  0  0  0  0  0  0
  2  1  1  6
  2  3  1  0
  4  2  1  0
  4  5  1  0
  5  7  1  0
  5  6  1  1
  7  9  1  0
  8  7  2  0
  9 10  1  0
 10 11  1  6
 12 11  1  0
 13 14  1  0
 13 12  1  0
 14 15  1  0
 16 17  2  0
 16 10  1  0
 19 18  1  1
 19 21  1  0
 19 20  1  0
 20 16  1  0
 21 22  1  0
 23 21  2  0
M  END
$$$$
