LKA.pdb
     RDKit          3D

 23 22  0  0  1  0  0  0  0  0999 V2000
    9.1936  -14.1265   19.3536 C   0  0  0  0  0  0  0  0  0  0  0  0
    7.8166  -13.5603   19.6336 C   0  0  2  0  0  0  0  0  0  0  0  0
    7.8600  -12.0747   19.4206 C   0  0  0  0  0  0  0  0  0  0  0  0
    7.4444  -13.9415   21.0362 C   0  0  0  0  0  0  0  0  0  0  0  0
    7.2991  -15.4324   21.2202 C   0  0  2  0  0  0  0  0  0  0  0  0
    6.1441  -15.9501   20.5560 N   0  0  0  0  0  0  0  0  0  0  0  0
    7.3002  -15.7197   22.6767 C   0  0  0  0  0  0  0  0  0  0  0  0
    6.4981  -15.1406   23.4506 O   0  0  0  0  0  0  0  0  0  0  0  0
    8.2048  -16.6624   23.2785 N   0  0  0  0  0  0  0  0  0  0  0  0
    8.1329  -17.0377   24.6651 C   0  0  1  0  0  0  0  0  0  0  0  0
    8.5570  -18.4274   24.9796 C   0  0  0  0  0  0  0  0  0  0  0  0
    8.5542  -18.8457   26.3968 C   0  0  0  0  0  0  0  0  0  0  0  0
    7.3685  -19.5889   26.8917 C   0  0  0  0  0  0  0  0  0  0  0  0
    7.6204  -19.8493   28.3881 C   0  0  0  0  0  0  0  0  0  0  0  0
    6.6008  -20.6923   28.9527 N   0  0  0  0  0  0  0  0  0  0  0  0
    9.0561  -16.1104   25.4200 C   0  0  0  0  0  0  0  0  0  0  0  0
   10.2403  -15.9295   25.0486 O   0  0  0  0  0  0  0  0  0  0  0  0
    8.6534  -13.3261   27.8206 C   0  0  0  0  0  0  0  0  0  0  0  0
    9.3906  -14.5174   27.3089 C   0  0  2  0  0  0  0  0  0  0  0  0
    8.5552  -15.4461   26.5612 N   0  0  0  0  0  0  0  0  0  0  0  0
   10.0830  -15.2876   28.3872 C   0  0  0  0  0  0  0  0  0  0  0  0
   11.1091  -14.6990   29.1227 O   0  0  0  0  0  0  0  0  0  0  0  0
    9.7511  -16.4480   28.6328 O   0  0  0  0  0  0  0  0  0  0  0  0
  2  1  1  1
  2  3  1  0
  4  2  1  0
  4  5  1  0
  5  7  1  0
  5  6  1  1
  7  9  1  0
  8  7  2  0
  9 10  1  0
 10 11  1  6
 12 11  1  0
 13 14  1  0
 13 12  1  0
 14 15  1  0
 16 17  2  0
 16 10  1  0
 19 18  1  1
 19 21  1  0
 19 20  1  0
 20 16  1  0
 21 22  1  0
 23 21  2  0
M  END
$$$$
