LKA.pdb
     RDKit          3D

 23 22  0  0  1  0  0  0  0  0999 V2000
    9.1996  -13.1793   19.3851 C   0  0  0  0  0  0  0  0  0  0  0  0
    7.7611  -13.2255   19.8578 C   0  0  2  0  0  0  0  0  0  0  0  0
    7.2356  -11.8205   19.9227 C   0  0  0  0  0  0  0  0  0  0  0  0
    7.7408  -13.9217   21.1867 C   0  0  0  0  0  0  0  0  0  0  0  0
    8.1440  -15.3732   21.0950 C   0  0  2  0  0  0  0  0  0  0  0  0
    7.2134  -16.1467   20.3340 N   0  0  0  0  0  0  0  0  0  0  0  0
    8.3259  -15.8894   22.4750 C   0  0  0  0  0  0  0  0  0  0  0  0
    7.3506  -15.9961   23.2593 O   0  0  0  0  0  0  0  0  0  0  0  0
    9.6084  -16.2914   22.9876 N   0  0  0  0  0  0  0  0  0  0  0  0
    9.7814  -16.8675   24.2941 C   0  0  1  0  0  0  0  0  0  0  0  0
   10.7986  -17.9470   24.3931 C   0  0  0  0  0  0  0  0  0  0  0  0
   10.6029  -19.1572   23.5679 C   0  0  0  0  0  0  0  0  0  0  0  0
   11.6390  -20.2171   23.6459 C   0  0  0  0  0  0  0  0  0  0  0  0
   11.2047  -21.3139   22.6565 C   0  0  0  0  0  0  0  0  0  0  0  0
   12.1477  -22.3997   22.6299 N   0  0  0  0  0  0  0  0  0  0  0  0
   10.2270  -15.7524   25.2107 C   0  0  0  0  0  0  0  0  0  0  0  0
   11.2289  -15.0490   24.9378 O   0  0  0  0  0  0  0  0  0  0  0  0
    8.9587  -13.4531   27.6373 C   0  0  0  0  0  0  0  0  0  0  0  0
    9.9424  -14.5423   27.3722 C   0  0  2  0  0  0  0  0  0  0  0  0
    9.4872  -15.5160   26.3902 N   0  0  0  0  0  0  0  0  0  0  0  0
   10.3420  -15.2861   28.6061 C   0  0  0  0  0  0  0  0  0  0  0  0
   10.9756  -14.6208   29.6531 O   0  0  0  0  0  0  0  0  0  0  0  0
   10.1138  -16.4923   28.7056 O   0  0  0  0  0  0  0  0  0  0  0  0
  2  1  1  1
  2  3  1  0
  4  2  1  0
  4  5  1  0
  5  7  1  0
  5  6  1  1
  7  9  1  0
  8  7  2  0
  9 10  1  0
 10 11  1  6
 12 11  1  0
 13 14  1  0
 13 12  1  0
 14 15  1  0
 16 17  2  0
 16 10  1  0
 19 18  1  1
 19 21  1  0
 19 20  1  0
 20 16  1  0
 21 22  1  0
 23 21  2  0
M  END
$$$$
