LKA.pdb
     RDKit          3D

 23 22  0  0  1  0  0  0  0  0999 V2000
    7.5417  -12.5576   18.9626 C   0  0  0  0  0  0  0  0  0  0  0  0
    7.3554  -13.5785   20.0663 C   0  0  2  0  0  0  0  0  0  0  0  0
    6.8575  -12.8691   21.2924 C   0  0  0  0  0  0  0  0  0  0  0  0
    8.6730  -14.2640   20.2792 C   0  0  0  0  0  0  0  0  0  0  0  0
    9.1396  -15.0287   19.0646 C   0  0  2  0  0  0  0  0  0  0  0  0
    8.2602  -16.1054   18.7317 N   0  0  0  0  0  0  0  0  0  0  0  0
   10.5321  -15.4805   19.3110 C   0  0  0  0  0  0  0  0  0  0  0  0
   10.7655  -16.5780   19.8756 O   0  0  0  0  0  0  0  0  0  0  0  0
   11.6779  -14.7015   18.9245 N   0  0  0  0  0  0  0  0  0  0  0  0
   13.0297  -15.1197   19.1827 C   0  0  1  0  0  0  0  0  0  0  0  0
   14.0926  -14.2748   18.5775 C   0  0  0  0  0  0  0  0  0  0  0  0
   15.4965  -14.7007   18.7537 C   0  0  0  0  0  0  0  0  0  0  0  0
   16.5461  -13.9110   18.0627 C   0  0  0  0  0  0  0  0  0  0  0  0
   17.8795  -14.6234   18.3545 C   0  0  0  0  0  0  0  0  0  0  0  0
   18.9435  -14.0988   17.5410 N   0  0  0  0  0  0  0  0  0  0  0  0
   13.2254  -15.0744   20.6799 C   0  0  0  0  0  0  0  0  0  0  0  0
   12.7742  -14.1258   21.3652 O   0  0  0  0  0  0  0  0  0  0  0  0
   13.4595  -17.3433   23.3936 C   0  0  0  0  0  0  0  0  0  0  0  0
   14.1034  -16.1659   22.7428 C   0  0  2  0  0  0  0  0  0  0  0  0
   13.9321  -16.1297   21.2975 N   0  0  0  0  0  0  0  0  0  0  0  0
   15.5657  -16.0597   23.0353 C   0  0  0  0  0  0  0  0  0  0  0  0
   16.0054  -15.7893   24.3291 O   0  0  0  0  0  0  0  0  0  0  0  0
   16.3920  -16.2105   22.1345 O   0  0  0  0  0  0  0  0  0  0  0  0
  2  1  1  6
  2  3  1  0
  4  2  1  0
  4  5  1  0
  5  7  1  0
  5  6  1  1
  7  9  1  0
  8  7  2  0
  9 10  1  0
 10 11  1  6
 12 11  1  0
 13 14  1  0
 13 12  1  0
 14 15  1  0
 16 17  2  0
 16 10  1  0
 19 18  1  6
 19 21  1  0
 19 20  1  0
 20 16  1  0
 21 22  1  0
 23 21  2  0
M  END
$$$$
