LKA.pdb
     RDKit          3D

 23 22  0  0  1  0  0  0  0  0999 V2000
    9.4979  -14.2053   19.7088 C   0  0  0  0  0  0  0  0  0  0  0  0
    8.1013  -13.9094   19.2020 C   0  0  2  0  0  0  0  0  0  0  0  0
    8.0253  -12.4550   18.8369 C   0  0  0  0  0  0  0  0  0  0  0  0
    7.1340  -14.2947   20.2822 C   0  0  0  0  0  0  0  0  0  0  0  0
    7.2139  -15.7569   20.6473 C   0  0  2  0  0  0  0  0  0  0  0  0
    6.3607  -16.5656   19.8340 N   0  0  0  0  0  0  0  0  0  0  0  0
    6.9178  -15.8874   22.0961 C   0  0  0  0  0  0  0  0  0  0  0  0
    5.7838  -15.5990   22.5528 O   0  0  0  0  0  0  0  0  0  0  0  0
    7.8953  -16.3442   23.0474 N   0  0  0  0  0  0  0  0  0  0  0  0
    7.6029  -16.5189   24.4448 C   0  0  1  0  0  0  0  0  0  0  0  0
    8.1618  -17.7454   25.0719 C   0  0  0  0  0  0  0  0  0  0  0  0
    7.9335  -17.9464   26.5179 C   0  0  0  0  0  0  0  0  0  0  0  0
    8.5217  -19.1563   27.1449 C   0  0  0  0  0  0  0  0  0  0  0  0
    8.0824  -19.1305   28.6203 C   0  0  0  0  0  0  0  0  0  0  0  0
    8.5433  -20.2964   29.3254 N   0  0  0  0  0  0  0  0  0  0  0  0
    8.2020  -15.3371   25.1703 C   0  0  0  0  0  0  0  0  0  0  0  0
    9.4090  -15.0293   25.0239 O   0  0  0  0  0  0  0  0  0  0  0  0
    6.9050  -12.4758   27.2266 C   0  0  0  0  0  0  0  0  0  0  0  0
    7.9162  -13.4976   26.8293 C   0  0  2  0  0  0  0  0  0  0  0  0
    7.3694  -14.5798   26.0234 N   0  0  0  0  0  0  0  0  0  0  0  0
    8.6259  -14.1064   27.9960 C   0  0  0  0  0  0  0  0  0  0  0  0
    9.5975  -13.3822   28.6830 O   0  0  0  0  0  0  0  0  0  0  0  0
    8.3565  -15.2524   28.3579 O   0  0  0  0  0  0  0  0  0  0  0  0
  2  1  1  1
  2  3  1  0
  4  2  1  0
  4  5  1  0
  5  7  1  0
  5  6  1  6
  7  9  1  0
  8  7  2  0
  9 10  1  0
 10 11  1  1
 12 11  1  0
 13 14  1  0
 13 12  1  0
 14 15  1  0
 16 17  2  0
 16 10  1  0
 19 18  1  1
 19 21  1  0
 19 20  1  0
 20 16  1  0
 21 22  1  0
 23 21  2  0
M  END
$$$$
