QTY.pdb
     RDKit          3D

 29 29  0  0  1  0  0  0  0  0999 V2000
   23.2488  -10.9760  -20.0295 N   0  0  0  0  0  0  0  0  0  0  0  0
   22.8848  -12.3293  -19.8498 C   0  0  0  0  0  0  0  0  0  0  0  0
   23.5273  -13.2412  -20.4020 O   0  0  0  0  0  0  0  0  0  0  0  0
   21.7085  -12.6306  -18.9790 C   0  0  0  0  0  0  0  0  0  0  0  0
   21.1326  -11.3325  -18.5205 C   0  0  0  0  0  0  0  0  0  0  0  0
   20.7355  -11.3686  -17.0632 C   0  0  2  0  0  0  0  0  0  0  0  0
   19.7395  -12.4470  -16.9247 N   0  0  0  0  0  0  0  0  0  0  0  0
   20.1627  -10.0877  -16.5933 C   0  0  0  0  0  0  0  0  0  0  0  0
   19.4219   -9.4323  -17.3161 O   0  0  0  0  0  0  0  0  0  0  0  0
   17.8799   -9.4816  -13.7539 C   0  0  0  0  0  0  0  0  0  0  0  0
   19.0647   -8.6068  -13.5237 C   0  0  1  0  0  0  0  0  0  0  0  0
   19.8523   -9.2368  -12.5358 O   0  0  0  0  0  0  0  0  0  0  0  0
   19.9410   -8.4227  -14.7078 C   0  0  2  0  0  0  0  0  0  0  0  0
   20.4663   -9.6043  -15.2978 N   0  0  0  0  0  0  0  0  0  0  0  0
   21.0445   -7.4785  -14.3868 C   0  0  0  0  0  0  0  0  0  0  0  0
   22.2546   -7.8385  -14.3618 O   0  0  0  0  0  0  0  0  0  0  0  0
   20.1107   -2.2032  -19.3674 O   0  0  0  0  0  0  0  0  0  0  0  0
   20.7270   -2.9409  -18.3535 C   0  0  0  0  0  0  0  0  0  0  0  0
   20.6832   -4.3187  -18.3274 C   0  0  0  0  0  0  0  0  0  0  0  0
   21.3088   -4.9997  -17.3029 C   0  0  0  0  0  0  0  0  0  0  0  0
   21.9887   -4.3509  -16.2846 C   0  0  0  0  0  0  0  0  0  0  0  0
   22.6464   -5.1093  -15.1952 C   0  0  0  0  0  0  0  0  0  0  0  0
   21.8288   -5.1592  -13.9238 C   0  0  2  0  0  0  0  0  0  0  0  0
   20.7556   -6.1190  -14.0942 N   0  0  0  0  0  0  0  0  0  0  0  0
   21.3102   -3.8494  -13.5262 C   0  0  0  0  0  0  0  0  0  0  0  0
   22.0348   -2.8664  -13.2372 O   0  0  0  0  0  0  0  0  0  0  0  0
   22.0105   -2.9669  -16.3452 C   0  0  0  0  0  0  0  0  0  0  0  0
   21.3918   -2.2594  -17.3609 C   0  0  0  0  0  0  0  0  0  0  0  0
   19.9241   -3.6276  -13.4479 O   0  0  0  0  0  0  0  0  0  0  0  0
  1  2  1  0
  2  3  2  0
  4  2  1  0
  4  5  1  0
  5  6  1  0
  6  7  1  6
  8  6  1  0
  9  8  2  0
 11 10  1  6
 11 12  1  0
 11 13  1  0
 13 15  1  0
 13 14  1  1
 14  8  1  0
 15 16  2  0
 18 17  1  0
 18 28  2  0
 19 18  1  0
 20 19  2  0
 20 21  1  0
 21 27  2  0
 22 21  1  0
 23 22  1  6
 24 23  1  0
 24 15  1  0
 25 29  1  0
 25 23  1  0
 26 25  2  0
 27 28  1  0
M  END
$$$$
