QTY.pdb
     RDKit          3D

 29 29  0  0  1  0  0  0  0  0999 V2000
   19.1616  -12.3411  -15.1218 N   0  0  0  0  0  0  0  0  0  0  0  0
   17.8240  -12.5870  -15.5045 C   0  0  0  0  0  0  0  0  0  0  0  0
   17.2136  -13.5867  -15.0832 O   0  0  0  0  0  0  0  0  0  0  0  0
   17.1671  -11.6128  -16.4277 C   0  0  0  0  0  0  0  0  0  0  0  0
   18.1525  -10.5349  -16.7338 C   0  0  0  0  0  0  0  0  0  0  0  0
   17.5570   -9.4472  -17.5970 C   0  0  2  0  0  0  0  0  0  0  0  0
   17.2006  -10.0768  -18.8817 N   0  0  0  0  0  0  0  0  0  0  0  0
   18.4905   -8.3223  -17.8268 C   0  0  0  0  0  0  0  0  0  0  0  0
   19.4468   -8.4485  -18.5818 O   0  0  0  0  0  0  0  0  0  0  0  0
   18.2540   -5.2176  -19.6298 C   0  0  0  0  0  0  0  0  0  0  0  0
   18.4615   -4.8428  -18.2020 C   0  0  1  0  0  0  0  0  0  0  0  0
   17.1855   -4.5768  -17.6595 O   0  0  0  0  0  0  0  0  0  0  0  0
   19.0639   -5.9076  -17.3610 C   0  0  2  0  0  0  0  0  0  0  0  0
   18.2871   -7.0830  -17.1733 N   0  0  0  0  0  0  0  0  0  0  0  0
   19.4728   -5.3505  -16.0440 C   0  0  0  0  0  0  0  0  0  0  0  0
   18.7867   -5.5198  -14.9974 O   0  0  0  0  0  0  0  0  0  0  0  0
   22.6176  -10.3384  -14.3111 O   0  0  0  0  0  0  0  0  0  0  0  0
   22.5929   -8.9418  -14.3405 C   0  0  0  0  0  0  0  0  0  0  0  0
   23.1069   -8.2277  -15.4020 C   0  0  0  0  0  0  0  0  0  0  0  0
   23.0576   -6.8486  -15.3815 C   0  0  0  0  0  0  0  0  0  0  0  0
   22.5065   -6.1395  -14.3262 C   0  0  0  0  0  0  0  0  0  0  0  0
   22.4725   -4.6585  -14.3304 C   0  0  0  0  0  0  0  0  0  0  0  0
   21.1048   -4.0931  -14.6424 C   0  0  2  0  0  0  0  0  0  0  0  0
   20.6720   -4.5977  -15.9307 N   0  0  0  0  0  0  0  0  0  0  0  0
   21.0697   -2.6303  -14.6072 C   0  0  0  0  0  0  0  0  0  0  0  0
   21.3443   -1.9463  -13.5914 O   0  0  0  0  0  0  0  0  0  0  0  0
   22.0006   -6.8917  -13.2785 C   0  0  0  0  0  0  0  0  0  0  0  0
   22.0372   -8.2751  -13.2735 C   0  0  0  0  0  0  0  0  0  0  0  0
   20.7131   -1.8999  -15.7544 O   0  0  0  0  0  0  0  0  0  0  0  0
  1  2  1  0
  2  3  2  0
  4  2  1  0
  4  5  1  0
  5  6  1  0
  6  7  1  6
  8  6  1  0
  9  8  2  0
 11 10  1  6
 11 12  1  0
 11 13  1  0
 13 15  1  0
 13 14  1  1
 14  8  1  0
 15 16  2  0
 18 17  1  0
 18 28  2  0
 19 18  1  0
 20 19  2  0
 20 21  1  0
 21 27  2  0
 22 21  1  0
 23 22  1  6
 24 23  1  0
 24 15  1  0
 25 29  1  0
 25 23  1  0
 26 25  2  0
 27 28  1  0
M  END
$$$$
