QTY.pdb
     RDKit          3D

 29 29  0  0  1  0  0  0  0  0999 V2000
   18.6901  -15.8638  -15.2392 N   0  0  0  0  0  0  0  0  0  0  0  0
   17.5801  -15.3595  -15.9530 C   0  0  0  0  0  0  0  0  0  0  0  0
   16.5099  -15.9936  -15.9992 O   0  0  0  0  0  0  0  0  0  0  0  0
   17.7304  -14.0456  -16.6487 C   0  0  0  0  0  0  0  0  0  0  0  0
   19.0962  -13.5230  -16.3520 C   0  0  0  0  0  0  0  0  0  0  0  0
   19.3851  -12.2346  -17.0865 C   0  0  2  0  0  0  0  0  0  0  0  0
   20.2213  -12.5902  -18.2476 N   0  0  0  0  0  0  0  0  0  0  0  0
   20.0856  -11.2395  -16.2445 C   0  0  0  0  0  0  0  0  0  0  0  0
   19.5720  -10.8210  -15.2142 O   0  0  0  0  0  0  0  0  0  0  0  0
   23.6708  -11.5863  -14.8758 C   0  0  0  0  0  0  0  0  0  0  0  0
   23.5549  -10.2817  -15.5877 C   0  0  1  0  0  0  0  0  0  0  0  0
   24.1936  -10.4395  -16.8368 O   0  0  0  0  0  0  0  0  0  0  0  0
   22.1634   -9.8526  -15.8765 C   0  0  2  0  0  0  0  0  0  0  0  0
   21.3623  -10.7589  -16.6229 N   0  0  0  0  0  0  0  0  0  0  0  0
   22.1644   -8.5159  -16.5288 C   0  0  0  0  0  0  0  0  0  0  0  0
   22.3526   -8.3705  -17.7690 O   0  0  0  0  0  0  0  0  0  0  0  0
   15.5408   -5.6471  -15.6066 O   0  0  0  0  0  0  0  0  0  0  0  0
   16.8588   -5.7225  -16.0639 C   0  0  0  0  0  0  0  0  0  0  0  0
   17.6895   -4.6222  -16.0728 C   0  0  0  0  0  0  0  0  0  0  0  0
   18.9836   -4.7507  -16.5350 C   0  0  0  0  0  0  0  0  0  0  0  0
   19.4924   -5.9539  -16.9970 C   0  0  0  0  0  0  0  0  0  0  0  0
   20.8847   -6.0597  -17.4919 C   0  0  0  0  0  0  0  0  0  0  0  0
   21.9154   -6.0407  -16.3852 C   0  0  2  0  0  0  0  0  0  0  0  0
   21.9487   -7.3454  -15.7537 N   0  0  0  0  0  0  0  0  0  0  0  0
   21.6791   -4.9821  -15.4025 C   0  0  0  0  0  0  0  0  0  0  0  0
   21.3578   -5.1931  -14.2078 O   0  0  0  0  0  0  0  0  0  0  0  0
   18.6279   -7.0363  -16.9726 C   0  0  0  0  0  0  0  0  0  0  0  0
   17.3260   -6.9352  -16.5145 C   0  0  0  0  0  0  0  0  0  0  0  0
   21.8068   -3.6308  -15.7687 O   0  0  0  0  0  0  0  0  0  0  0  0
  1  2  1  0
  2  3  2  0
  4  2  1  0
  4  5  1  0
  5  6  1  0
  6  7  1  6
  8  6  1  0
  9  8  2  0
 11 10  1  6
 11 12  1  0
 11 13  1  0
 13 15  1  0
 13 14  1  6
 14  8  1  0
 15 16  2  0
 18 17  1  0
 18 28  2  0
 19 18  1  0
 20 19  2  0
 20 21  1  0
 21 27  2  0
 22 21  1  0
 23 22  1  6
 24 23  1  0
 24 15  1  0
 25 29  1  0
 25 23  1  0
 26 25  2  0
 27 28  1  0
M  END
$$$$
