QTY.pdb
     RDKit          3D

 29 29  0  0  1  0  0  0  0  0999 V2000
   23.9338  -14.9938  -24.5777 N   0  0  0  0  0  0  0  0  0  0  0  0
   24.2951  -15.2583  -23.2377 C   0  0  0  0  0  0  0  0  0  0  0  0
   24.4411  -16.4271  -22.8354 O   0  0  0  0  0  0  0  0  0  0  0  0
   24.4958  -14.0950  -22.3216 C   0  0  0  0  0  0  0  0  0  0  0  0
   24.2126  -12.8494  -23.0930 C   0  0  0  0  0  0  0  0  0  0  0  0
   24.4246  -11.6048  -22.2631 C   0  0  2  0  0  0  0  0  0  0  0  0
   25.5755  -11.8767  -21.3825 N   0  0  0  0  0  0  0  0  0  0  0  0
   23.2398  -11.2484  -21.4513 C   0  0  0  0  0  0  0  0  0  0  0  0
   23.0367  -11.7900  -20.3714 O   0  0  0  0  0  0  0  0  0  0  0  0
   21.7357   -7.3528  -21.4352 C   0  0  0  0  0  0  0  0  0  0  0  0
   20.7151   -8.4312  -21.5674 C   0  0  1  0  0  0  0  0  0  0  0  0
   20.3517   -8.4853  -22.9306 O   0  0  0  0  0  0  0  0  0  0  0  0
   21.1942   -9.7886  -21.2044 C   0  0  2  0  0  0  0  0  0  0  0  0
   22.3247  -10.2735  -21.9165 N   0  0  0  0  0  0  0  0  0  0  0  0
   20.0774  -10.7669  -21.2926 C   0  0  0  0  0  0  0  0  0  0  0  0
   19.9627  -11.5748  -22.2563 O   0  0  0  0  0  0  0  0  0  0  0  0
   13.2988  -15.9125  -18.9269 O   0  0  0  0  0  0  0  0  0  0  0  0
   14.3962  -15.0483  -18.9487 C   0  0  0  0  0  0  0  0  0  0  0  0
   15.6884  -15.5163  -19.0590 C   0  0  0  0  0  0  0  0  0  0  0  0
   16.7374  -14.6197  -19.0759 C   0  0  0  0  0  0  0  0  0  0  0  0
   16.5470  -13.2501  -18.9857 C   0  0  0  0  0  0  0  0  0  0  0  0
   17.6937  -12.3124  -19.0014 C   0  0  0  0  0  0  0  0  0  0  0  0
   17.9744  -11.7345  -20.3706 C   0  0  2  0  0  0  0  0  0  0  0  0
   19.0915  -10.8157  -20.2713 N   0  0  0  0  0  0  0  0  0  0  0  0
   16.8060  -11.0858  -20.9674 C   0  0  0  0  0  0  0  0  0  0  0  0
   16.5479   -9.8629  -20.8531 O   0  0  0  0  0  0  0  0  0  0  0  0
   15.2351  -12.8183  -18.8760 C   0  0  0  0  0  0  0  0  0  0  0  0
   14.1650  -13.6955  -18.8567 C   0  0  0  0  0  0  0  0  0  0  0  0
   15.8866  -11.8336  -21.7238 O   0  0  0  0  0  0  0  0  0  0  0  0
  1  2  1  0
  2  3  2  0
  4  2  1  0
  4  5  1  0
  5  6  1  0
  6  7  1  1
  8  6  1  0
  9  8  2  0
 11 10  1  6
 11 12  1  0
 11 13  1  0
 13 15  1  0
 13 14  1  6
 14  8  1  0
 15 16  2  0
 18 17  1  0
 18 28  2  0
 19 18  1  0
 20 19  2  0
 20 21  1  0
 21 27  2  0
 22 21  1  0
 23 22  1  1
 24 23  1  0
 24 15  1  0
 25 29  1  0
 25 23  1  0
 26 25  2  0
 27 28  1  0
M  END
$$$$
