QTY.pdb
     RDKit          3D

 29 29  0  0  1  0  0  0  0  0999 V2000
   23.7825  -15.9720  -19.0755 N   0  0  0  0  0  0  0  0  0  0  0  0
   23.2191  -16.4784  -20.2680 C   0  0  0  0  0  0  0  0  0  0  0  0
   22.9252  -17.6834  -20.3731 O   0  0  0  0  0  0  0  0  0  0  0  0
   22.9876  -15.5254  -21.3955 C   0  0  0  0  0  0  0  0  0  0  0  0
   23.4933  -14.1859  -20.9750 C   0  0  0  0  0  0  0  0  0  0  0  0
   22.4791  -13.4271  -20.1513 C   0  0  2  0  0  0  0  0  0  0  0  0
   21.2553  -13.3369  -20.9686 N   0  0  0  0  0  0  0  0  0  0  0  0
   22.9409  -12.0709  -19.7808 C   0  0  0  0  0  0  0  0  0  0  0  0
   23.9648  -11.9170  -19.1262 O   0  0  0  0  0  0  0  0  0  0  0  0
   20.8100   -8.3333  -21.2102 C   0  0  0  0  0  0  0  0  0  0  0  0
   22.2542   -8.5795  -20.9347 C   0  0  1  0  0  0  0  0  0  0  0  0
   22.7974   -7.3586  -20.4794 O   0  0  0  0  0  0  0  0  0  0  0  0
   22.5224   -9.5824  -19.8734 C   0  0  2  0  0  0  0  0  0  0  0  0
   22.2008  -10.9323  -20.1809 N   0  0  0  0  0  0  0  0  0  0  0  0
   21.8600   -9.1761  -18.6052 C   0  0  0  0  0  0  0  0  0  0  0  0
   20.7090   -9.5846  -18.2842 O   0  0  0  0  0  0  0  0  0  0  0  0
   20.6038   -7.5686  -10.1623 O   0  0  0  0  0  0  0  0  0  0  0  0
   21.1708   -7.6896  -11.4334 C   0  0  0  0  0  0  0  0  0  0  0  0
   21.5957   -6.5896  -12.1478 C   0  0  0  0  0  0  0  0  0  0  0  0
   22.1492   -6.7642  -13.4000 C   0  0  0  0  0  0  0  0  0  0  0  0
   22.2990   -8.0139  -13.9795 C   0  0  0  0  0  0  0  0  0  0  0  0
   22.8924   -8.1693  -15.3279 C   0  0  0  0  0  0  0  0  0  0  0  0
   21.9033   -7.9313  -16.4471 C   0  0  2  0  0  0  0  0  0  0  0  0
   22.5223   -8.2990  -17.7055 N   0  0  0  0  0  0  0  0  0  0  0  0
   21.4027   -6.5564  -16.4845 C   0  0  0  0  0  0  0  0  0  0  0  0
   20.3117   -6.1933  -15.9817 O   0  0  0  0  0  0  0  0  0  0  0  0
   21.8604   -9.0944  -13.2313 C   0  0  0  0  0  0  0  0  0  0  0  0
   21.3020   -8.9477  -11.9737 C   0  0  0  0  0  0  0  0  0  0  0  0
   22.1517   -5.5440  -17.1094 O   0  0  0  0  0  0  0  0  0  0  0  0
  1  2  1  0
  2  3  2  0
  4  2  1  0
  4  5  1  0
  5  6  1  0
  6  7  1  6
  8  6  1  0
  9  8  2  0
 11 10  1  1
 11 12  1  0
 11 13  1  0
 13 15  1  0
 13 14  1  6
 14  8  1  0
 15 16  2  0
 18 17  1  0
 18 28  2  0
 19 18  1  0
 20 19  2  0
 20 21  1  0
 21 27  2  0
 22 21  1  0
 23 22  1  1
 24 23  1  0
 24 15  1  0
 25 29  1  0
 25 23  1  0
 26 25  2  0
 27 28  1  0
M  END
$$$$
