QTY.pdb
     RDKit          3D

 29 29  0  0  1  0  0  0  0  0999 V2000
   22.4037  -15.8063  -19.8323 N   0  0  0  0  0  0  0  0  0  0  0  0
   23.4826  -16.4640  -20.4642 C   0  0  0  0  0  0  0  0  0  0  0  0
   23.2875  -17.2313  -21.4247 O   0  0  0  0  0  0  0  0  0  0  0  0
   24.8608  -16.2106  -19.9452 C   0  0  0  0  0  0  0  0  0  0  0  0
   24.7532  -15.2522  -18.8065 C   0  0  0  0  0  0  0  0  0  0  0  0
   26.1070  -14.8589  -18.2632 C   0  0  2  0  0  0  0  0  0  0  0  0
   26.7269  -16.0918  -17.7441 N   0  0  0  0  0  0  0  0  0  0  0  0
   26.0209  -13.8450  -17.1888 C   0  0  0  0  0  0  0  0  0  0  0  0
   25.5520  -14.1330  -16.0943 O   0  0  0  0  0  0  0  0  0  0  0  0
   27.8993   -9.7836  -17.6103 C   0  0  0  0  0  0  0  0  0  0  0  0
   27.5772  -10.5661  -16.3831 C   0  0  1  0  0  0  0  0  0  0  0  0
   27.2890   -9.6306  -15.3658 O   0  0  0  0  0  0  0  0  0  0  0  0
   26.3850  -11.4430  -16.5000 C   0  0  2  0  0  0  0  0  0  0  0  0
   26.4816  -12.5257  -17.4158 N   0  0  0  0  0  0  0  0  0  0  0  0
   25.1770  -10.6283  -16.7986 C   0  0  0  0  0  0  0  0  0  0  0  0
   24.8602  -10.2975  -17.9754 O   0  0  0  0  0  0  0  0  0  0  0  0
   17.1897   -7.0700  -16.4906 O   0  0  0  0  0  0  0  0  0  0  0  0
   18.3580   -7.8062  -16.2783 C   0  0  0  0  0  0  0  0  0  0  0  0
   18.9550   -8.5300  -17.2885 C   0  0  0  0  0  0  0  0  0  0  0  0
   20.1087   -9.2405  -17.0259 C   0  0  0  0  0  0  0  0  0  0  0  0
   20.7023   -9.2590  -15.7739 C   0  0  0  0  0  0  0  0  0  0  0  0
   21.9383  -10.0354  -15.5212 C   0  0  0  0  0  0  0  0  0  0  0  0
   23.1896   -9.3449  -16.0162 C   0  0  2  0  0  0  0  0  0  0  0  0
   24.3326  -10.1937  -15.7424 N   0  0  0  0  0  0  0  0  0  0  0  0
   23.3708   -8.0106  -15.4426 C   0  0  0  0  0  0  0  0  0  0  0  0
   22.7503   -6.9907  -15.8294 O   0  0  0  0  0  0  0  0  0  0  0  0
   20.0733   -8.5200  -14.7850 C   0  0  0  0  0  0  0  0  0  0  0  0
   18.9161   -7.7988  -15.0212 C   0  0  0  0  0  0  0  0  0  0  0  0
   24.2832   -7.8061  -14.3928 O   0  0  0  0  0  0  0  0  0  0  0  0
  1  2  1  0
  2  3  2  0
  4  2  1  0
  4  5  1  0
  5  6  1  0
  6  7  1  1
  8  6  1  0
  9  8  2  0
 11 10  1  6
 11 12  1  0
 11 13  1  0
 13 15  1  0
 13 14  1  6
 14  8  1  0
 15 16  2  0
 18 17  1  0
 18 28  2  0
 19 18  1  0
 20 19  2  0
 20 21  1  0
 21 27  2  0
 22 21  1  0
 23 22  1  1
 24 23  1  0
 24 15  1  0
 25 29  1  0
 25 23  1  0
 26 25  2  0
 27 28  1  0
M  END
$$$$
