QTY.pdb
     RDKit          3D

 29 29  0  0  1  0  0  0  0  0999 V2000
   18.5334  -16.6065  -20.4580 N   0  0  0  0  0  0  0  0  0  0  0  0
   18.6887  -15.7809  -19.3221 C   0  0  0  0  0  0  0  0  0  0  0  0
   17.8661  -15.8190  -18.3887 O   0  0  0  0  0  0  0  0  0  0  0  0
   19.8674  -14.8636  -19.2763 C   0  0  0  0  0  0  0  0  0  0  0  0
   19.3591  -13.4722  -19.0964 C   0  0  0  0  0  0  0  0  0  0  0  0
   19.6563  -12.9311  -17.7173 C   0  0  2  0  0  0  0  0  0  0  0  0
   18.9789  -13.8242  -16.7594 N   0  0  0  0  0  0  0  0  0  0  0  0
   19.1845  -11.5407  -17.5332 C   0  0  0  0  0  0  0  0  0  0  0  0
   18.5549  -10.9726  -18.4172 O   0  0  0  0  0  0  0  0  0  0  0  0
   18.6134   -9.9388  -13.5747 C   0  0  0  0  0  0  0  0  0  0  0  0
   18.0997   -9.3939  -14.8636 C   0  0  1  0  0  0  0  0  0  0  0  0
   17.9007   -8.0095  -14.6718 O   0  0  0  0  0  0  0  0  0  0  0  0
   19.0308   -9.5313  -16.0117 C   0  0  2  0  0  0  0  0  0  0  0  0
   19.4573  -10.8497  -16.3281 N   0  0  0  0  0  0  0  0  0  0  0  0
   20.2102   -8.6447  -15.8239 C   0  0  0  0  0  0  0  0  0  0  0  0
   21.3900   -9.0924  -15.7759 O   0  0  0  0  0  0  0  0  0  0  0  0
   26.1842   -2.7097  -17.3629 O   0  0  0  0  0  0  0  0  0  0  0  0
   25.1243   -3.6157  -17.2765 C   0  0  0  0  0  0  0  0  0  0  0  0
   23.9148   -3.3810  -17.8952 C   0  0  0  0  0  0  0  0  0  0  0  0
   22.8997   -4.3088  -17.7786 C   0  0  0  0  0  0  0  0  0  0  0  0
   23.0443   -5.4828  -17.0568 C   0  0  0  0  0  0  0  0  0  0  0  0
   21.9344   -6.4576  -16.9454 C   0  0  0  0  0  0  0  0  0  0  0  0
   21.1791   -6.3565  -15.6389 C   0  0  2  0  0  0  0  0  0  0  0  0
   20.0322   -7.2418  -15.6911 N   0  0  0  0  0  0  0  0  0  0  0  0
   20.7771   -4.9867  -15.3160 C   0  0  0  0  0  0  0  0  0  0  0  0
   21.5616   -4.1099  -14.8793 O   0  0  0  0  0  0  0  0  0  0  0  0
   24.2734   -5.6830  -16.4496 C   0  0  0  0  0  0  0  0  0  0  0  0
   25.3079   -4.7694  -16.5505 C   0  0  0  0  0  0  0  0  0  0  0  0
   19.4428   -4.5783  -15.4877 O   0  0  0  0  0  0  0  0  0  0  0  0
  1  2  1  0
  2  3  2  0
  4  2  1  0
  4  5  1  0
  5  6  1  0
  6  7  1  1
  8  6  1  0
  9  8  2  0
 11 10  1  1
 11 12  1  0
 11 13  1  0
 13 15  1  0
 13 14  1  1
 14  8  1  0
 15 16  2  0
 18 17  1  0
 18 28  2  0
 19 18  1  0
 20 19  2  0
 20 21  1  0
 21 27  2  0
 22 21  1  0
 23 22  1  6
 24 23  1  0
 24 15  1  0
 25 29  1  0
 25 23  1  0
 26 25  2  0
 27 28  1  0
M  END
$$$$
