VPT.pdb
     RDKit          3D

 22 22  0  0  1  0  0  0  0  0999 V2000
   20.9809  -12.3736  -20.6762 C   0  0  0  0  0  0  0  0  0  0  0  0
   21.0040  -11.3075  -19.6001 C   0  0  2  0  0  0  0  0  0  0  0  0
   22.0909  -10.3176  -19.9606 C   0  0  0  0  0  0  0  0  0  0  0  0
   21.3918  -11.9387  -18.2472 C   0  0  2  0  0  0  0  0  0  0  0  0
   20.4707  -13.0137  -17.9476 N   0  0  0  0  0  0  0  0  0  0  0  0
   21.2695  -10.8854  -17.1790 C   0  0  0  0  0  0  0  0  0  0  0  0
   20.3660  -10.0291  -17.4434 O   0  0  0  0  0  0  0  0  0  0  0  0
   22.0769  -10.8828  -16.0383 N   0  0  0  0  0  0  0  0  0  0  0  0
   22.5652  -12.1261  -15.4099 C   0  0  0  0  0  0  0  0  0  0  0  0
   24.0349  -11.7841  -15.3410 C   0  0  0  0  0  0  0  0  0  0  0  0
   24.0802  -10.2944  -15.1003 C   0  0  0  0  0  0  0  0  0  0  0  0
   22.5785   -9.8789  -15.1942 C   0  0  1  0  0  0  0  0  0  0  0  0
   22.4819   -8.4826  -15.5576 C   0  0  0  0  0  0  0  0  0  0  0  0
   23.0021   -7.9965  -16.5658 O   0  0  0  0  0  0  0  0  0  0  0  0
   19.8234   -6.2445  -16.5623 C   0  0  0  0  0  0  0  0  0  0  0  0
   20.3059   -5.7295  -15.2243 C   0  0  1  0  0  0  0  0  0  0  0  0
   19.5081   -6.1911  -14.1714 O   0  0  0  0  0  0  0  0  0  0  0  0
   21.7689   -6.1349  -14.9895 C   0  0  2  0  0  0  0  0  0  0  0  0
   21.7474   -7.5664  -14.7281 N   0  0  0  0  0  0  0  0  0  0  0  0
   22.2184   -5.3781  -13.8063 C   0  0  0  0  0  0  0  0  0  0  0  0
   22.2585   -5.9367  -12.6954 O   0  0  0  0  0  0  0  0  0  0  0  0
   22.5926   -4.0611  -13.9249 O   0  0  0  0  0  0  0  0  0  0  0  0
  2  1  1  6
  2  4  1  0
  2  3  1  0
  4  6  1  0
  4  5  1  1
  6  8  1  0
  6  7  2  0
  8 12  1  0
  9 10  1  0
  9  8  1  0
 10 11  1  0
 11 12  1  0
 12 13  1  6
 13 19  1  0
 13 14  2  0
 16 18  1  0
 16 15  1  6
 17 16  1  0
 18 20  1  0
 18 19  1  1
 20 22  1  0
 21 20  2  0
M  END
$$$$
