VPT.pdb
     RDKit          3D

 22 22  0  0  1  0  0  0  0  0999 V2000
   22.1464  -31.1158  -10.1237 C   0  0  0  0  0  0  0  0  0  0  0  0
   22.6748  -32.2162   -9.2266 C   0  0  2  0  0  0  0  0  0  0  0  0
   23.5294  -31.5656   -8.1600 C   0  0  0  0  0  0  0  0  0  0  0  0
   23.5919  -33.1556  -10.0363 C   0  0  2  0  0  0  0  0  0  0  0  0
   22.8287  -33.7436  -11.1159 N   0  0  0  0  0  0  0  0  0  0  0  0
   24.0681  -34.2557   -9.1259 C   0  0  0  0  0  0  0  0  0  0  0  0
   23.1543  -34.6647   -8.3403 O   0  0  0  0  0  0  0  0  0  0  0  0
   25.3761  -34.7457   -9.1694 N   0  0  0  0  0  0  0  0  0  0  0  0
   26.2413  -34.5918  -10.3555 C   0  0  0  0  0  0  0  0  0  0  0  0
   27.4539  -33.9992   -9.6770 C   0  0  0  0  0  0  0  0  0  0  0  0
   27.4971  -34.6475   -8.3143 C   0  0  0  0  0  0  0  0  0  0  0  0
   26.1778  -35.4811   -8.2814 C   0  0  1  0  0  0  0  0  0  0  0  0
   25.7702  -35.6928   -6.9102 C   0  0  0  0  0  0  0  0  0  0  0  0
   25.4339  -34.7852   -6.1444 O   0  0  0  0  0  0  0  0  0  0  0  0
   24.3495  -39.0732   -3.5621 C   0  0  0  0  0  0  0  0  0  0  0  0
   24.9653  -38.7481   -4.9050 C   0  0  1  0  0  0  0  0  0  0  0  0
   24.1200  -39.1000   -5.9631 O   0  0  0  0  0  0  0  0  0  0  0  0
   25.3138  -37.2543   -4.9876 C   0  0  2  0  0  0  0  0  0  0  0  0
   25.7383  -37.0207   -6.3599 N   0  0  0  0  0  0  0  0  0  0  0  0
   26.4209  -37.0391   -4.0375 C   0  0  0  0  0  0  0  0  0  0  0  0
   27.5881  -37.2982   -4.3814 O   0  0  0  0  0  0  0  0  0  0  0  0
   26.1698  -36.5547   -2.7762 O   0  0  0  0  0  0  0  0  0  0  0  0
  2  1  1  6
  2  4  1  0
  2  3  1  0
  4  6  1  0
  4  5  1  6
  6  8  1  0
  6  7  2  0
  8 12  1  0
  9 10  1  0
  9  8  1  0
 10 11  1  0
 11 12  1  0
 12 13  1  1
 13 19  1  0
 13 14  2  0
 16 18  1  0
 16 15  1  1
 17 16  1  0
 18 20  1  0
 18 19  1  6
 20 22  1  0
 21 20  2  0
M  END
$$$$
