VPT.pdb
     RDKit          3D

 22 22  0  0  1  0  0  0  0  0999 V2000
   18.1383  -11.0016  -18.8931 C   0  0  0  0  0  0  0  0  0  0  0  0
   19.0766  -10.1965  -18.0177 C   0  0  2  0  0  0  0  0  0  0  0  0
   20.1760   -9.6529  -18.9050 C   0  0  0  0  0  0  0  0  0  0  0  0
   19.7438  -11.1205  -16.9784 C   0  0  2  0  0  0  0  0  0  0  0  0
   18.7139  -11.8015  -16.2236 N   0  0  0  0  0  0  0  0  0  0  0  0
   20.5517  -10.2699  -16.0354 C   0  0  0  0  0  0  0  0  0  0  0  0
   20.0179   -9.1331  -15.8295 O   0  0  0  0  0  0  0  0  0  0  0  0
   21.7497  -10.7150  -15.4701 N   0  0  0  0  0  0  0  0  0  0  0  0
   22.0330  -12.1448  -15.2366 C   0  0  0  0  0  0  0  0  0  0  0  0
   23.3807  -12.2232  -15.9144 C   0  0  0  0  0  0  0  0  0  0  0  0
   24.0244  -10.8807  -15.6643 C   0  0  0  0  0  0  0  0  0  0  0  0
   22.8897  -10.0748  -14.9577 C   0  0  1  0  0  0  0  0  0  0  0  0
   23.1021   -8.6584  -15.1574 C   0  0  0  0  0  0  0  0  0  0  0  0
   24.1746   -8.1682  -15.5217 O   0  0  0  0  0  0  0  0  0  0  0  0
   21.0232   -6.1448  -17.2538 C   0  0  0  0  0  0  0  0  0  0  0  0
   20.9980   -5.7537  -15.7927 C   0  0  1  0  0  0  0  0  0  0  0  0
   19.8408   -6.2106  -15.1523 O   0  0  0  0  0  0  0  0  0  0  0  0
   22.2430   -6.2925  -15.0719 C   0  0  2  0  0  0  0  0  0  0  0  0
   22.0316   -7.7255  -14.9314 N   0  0  0  0  0  0  0  0  0  0  0  0
   22.2779   -5.6221  -13.7588 C   0  0  0  0  0  0  0  0  0  0  0  0
   21.8818   -6.2271  -12.7466 O   0  0  0  0  0  0  0  0  0  0  0  0
   22.7451   -4.3344  -13.6484 O   0  0  0  0  0  0  0  0  0  0  0  0
  2  1  1  6
  2  4  1  0
  2  3  1  0
  4  6  1  0
  4  5  1  1
  6  8  1  0
  6  7  2  0
  8 12  1  0
  9 10  1  0
  9  8  1  0
 10 11  1  0
 11 12  1  0
 12 13  1  6
 13 19  1  0
 13 14  2  0
 16 18  1  0
 16 15  1  6
 17 16  1  0
 18 20  1  0
 18 19  1  1
 20 22  1  0
 21 20  2  0
M  END
$$$$
