VPT.pdb
     RDKit          3D

 22 22  0  0  1  0  0  0  0  0999 V2000
   17.0266  -27.0077   -2.6213 C   0  0  0  0  0  0  0  0  0  0  0  0
   17.2897  -27.2632   -1.1515 C   0  0  2  0  0  0  0  0  0  0  0  0
   16.4163  -26.3143   -0.3590 C   0  0  0  0  0  0  0  0  0  0  0  0
   18.7561  -26.9221   -0.8158 C   0  0  2  0  0  0  0  0  0  0  0  0
   19.6283  -27.7647   -1.6052 N   0  0  0  0  0  0  0  0  0  0  0  0
   18.9904  -27.2148    0.6419 C   0  0  0  0  0  0  0  0  0  0  0  0
   18.2653  -28.1701    1.0674 O   0  0  0  0  0  0  0  0  0  0  0  0
   19.9108  -26.4948    1.4084 N   0  0  0  0  0  0  0  0  0  0  0  0
   21.1411  -25.9163    0.8332 C   0  0  0  0  0  0  0  0  0  0  0  0
   20.9870  -24.5024    1.3421 C   0  0  0  0  0  0  0  0  0  0  0  0
   20.3166  -24.6406    2.6877 C   0  0  0  0  0  0  0  0  0  0  0  0
   20.0102  -26.1689    2.7707 C   0  0  1  0  0  0  0  0  0  0  0  0
   18.9036  -26.3949    3.6738 C   0  0  0  0  0  0  0  0  0  0  0  0
   17.7582  -25.9801    3.4756 O   0  0  0  0  0  0  0  0  0  0  0  0
   17.9647  -29.8211    5.5551 C   0  0  0  0  0  0  0  0  0  0  0  0
   18.2736  -28.6875    6.5078 C   0  0  1  0  0  0  0  0  0  0  0  0
   19.5937  -28.7413    6.9689 O   0  0  0  0  0  0  0  0  0  0  0  0
   18.0094  -27.3329    5.8332 C   0  0  2  0  0  0  0  0  0  0  0  0
   19.0985  -27.1411    4.8872 N   0  0  0  0  0  0  0  0  0  0  0  0
   18.0471  -26.3254    6.9094 C   0  0  0  0  0  0  0  0  0  0  0  0
   19.1194  -25.7586    7.1864 O   0  0  0  0  0  0  0  0  0  0  0  0
   16.9055  -26.0103    7.6065 O   0  0  0  0  0  0  0  0  0  0  0  0
  2  1  1  6
  2  4  1  0
  2  3  1  0
  4  6  1  0
  4  5  1  6
  6  8  1  0
  6  7  2  0
  8 12  1  0
  9 10  1  0
  9  8  1  0
 10 11  1  0
 11 12  1  0
 12 13  1  1
 13 19  1  0
 13 14  2  0
 16 18  1  0
 16 15  1  6
 17 16  1  0
 18 20  1  0
 18 19  1  6
 20 22  1  0
 21 20  2  0
M  END
$$$$
