VPT.pdb
     RDKit          3D

 22 22  0  0  1  0  0  0  0  0999 V2000
   20.7749  -14.6115  -20.2248 C   0  0  0  0  0  0  0  0  0  0  0  0
   20.6756  -13.4250  -19.2881 C   0  0  2  0  0  0  0  0  0  0  0  0
   21.4656  -12.2897  -19.9031 C   0  0  0  0  0  0  0  0  0  0  0  0
   21.3417  -13.7666  -17.9394 C   0  0  2  0  0  0  0  0  0  0  0  0
   20.7038  -14.9401  -17.3828 N   0  0  0  0  0  0  0  0  0  0  0  0
   21.1315  -12.6102  -16.9992 C   0  0  0  0  0  0  0  0  0  0  0  0
   20.0223  -12.0189  -17.1981 O   0  0  0  0  0  0  0  0  0  0  0  0
   22.0736  -12.2570  -16.0293 N   0  0  0  0  0  0  0  0  0  0  0  0
   22.9849  -13.2416  -15.4136 C   0  0  0  0  0  0  0  0  0  0  0  0
   24.2903  -12.5162  -15.6403 C   0  0  0  0  0  0  0  0  0  0  0  0
   23.9507  -11.0502  -15.5195 C   0  0  0  0  0  0  0  0  0  0  0  0
   22.3974  -11.0624  -15.3659 C   0  0  1  0  0  0  0  0  0  0  0  0
   21.8552   -9.7957  -15.8047 C   0  0  0  0  0  0  0  0  0  0  0  0
   22.0913   -9.2906  -16.9058 O   0  0  0  0  0  0  0  0  0  0  0  0
   18.4038   -8.6650  -16.3586 C   0  0  0  0  0  0  0  0  0  0  0  0
   18.9599   -7.8127  -15.2394 C   0  0  1  0  0  0  0  0  0  0  0  0
   18.5877   -8.2993  -13.9814 O   0  0  0  0  0  0  0  0  0  0  0  0
   20.4908   -7.7310  -15.3374 C   0  0  2  0  0  0  0  0  0  0  0  0
   20.9845   -9.0421  -14.9437 N   0  0  0  0  0  0  0  0  0  0  0  0
   20.9072   -6.6891  -14.3805 C   0  0  0  0  0  0  0  0  0  0  0  0
   21.3777   -7.0178  -13.2767 O   0  0  0  0  0  0  0  0  0  0  0  0
   20.7781   -5.3592  -14.7017 O   0  0  0  0  0  0  0  0  0  0  0  0
  2  1  1  6
  2  4  1  0
  2  3  1  0
  4  6  1  0
  4  5  1  1
  6  8  1  0
  6  7  2  0
  8 12  1  0
  9 10  1  0
  9  8  1  0
 10 11  1  0
 11 12  1  0
 12 13  1  6
 13 19  1  0
 13 14  2  0
 16 18  1  0
 16 15  1  6
 17 16  1  0
 18 20  1  0
 18 19  1  1
 20 22  1  0
 21 20  2  0
M  END
$$$$
