VPT.pdb
     RDKit          3D

 22 22  0  0  1  0  0  0  0  0999 V2000
   16.3414  -11.3232  -14.9866 C   0  0  0  0  0  0  0  0  0  0  0  0
   16.4665  -11.7988  -16.4195 C   0  0  2  0  0  0  0  0  0  0  0  0
   15.5007  -12.9494  -16.6052 C   0  0  0  0  0  0  0  0  0  0  0  0
   17.8860  -12.3501  -16.6652 C   0  0  2  0  0  0  0  0  0  0  0  0
   18.0564  -13.5688  -15.9040 N   0  0  0  0  0  0  0  0  0  0  0  0
   18.8821  -11.3324  -16.1776 C   0  0  0  0  0  0  0  0  0  0  0  0
   18.6475  -10.9572  -14.9844 O   0  0  0  0  0  0  0  0  0  0  0  0
   19.9335  -10.8756  -16.9769 N   0  0  0  0  0  0  0  0  0  0  0  0
   20.5192  -11.6915  -18.0588 C   0  0  0  0  0  0  0  0  0  0  0  0
   20.4335  -10.6805  -19.1779 C   0  0  0  0  0  0  0  0  0  0  0  0
   20.6553   -9.3422  -18.5154 C   0  0  0  0  0  0  0  0  0  0  0  0
   20.7127   -9.7076  -16.9990 C   0  0  1  0  0  0  0  0  0  0  0  0
   20.3490   -8.5540  -16.2065 C   0  0  0  0  0  0  0  0  0  0  0  0
   19.1946   -8.1315  -16.0959 O   0  0  0  0  0  0  0  0  0  0  0  0
   21.9815   -5.0752  -13.0256 C   0  0  0  0  0  0  0  0  0  0  0  0
   22.1906   -6.3622  -13.7924 C   0  0  1  0  0  0  0  0  0  0  0  0
   22.3356   -7.4595  -12.9363 O   0  0  0  0  0  0  0  0  0  0  0  0
   21.0237   -6.6047  -14.7616 C   0  0  2  0  0  0  0  0  0  0  0  0
   21.3555   -7.8225  -15.4860 N   0  0  0  0  0  0  0  0  0  0  0  0
   20.9885   -5.4360  -15.6604 C   0  0  0  0  0  0  0  0  0  0  0  0
   21.7780   -5.3717  -16.6197 O   0  0  0  0  0  0  0  0  0  0  0  0
   20.0894   -4.4196  -15.4435 O   0  0  0  0  0  0  0  0  0  0  0  0
  2  1  1  1
  2  4  1  0
  2  3  1  0
  4  6  1  0
  4  5  1  1
  6  8  1  0
  6  7  2  0
  8 12  1  0
  9 10  1  0
  9  8  1  0
 10 11  1  0
 11 12  1  0
 12 13  1  1
 13 19  1  0
 13 14  2  0
 16 18  1  0
 16 15  1  1
 17 16  1  0
 18 20  1  0
 18 19  1  6
 20 22  1  0
 21 20  2  0
M  END
$$$$
