VPT.pdb
     RDKit          3D

 22 22  0  0  1  0  0  0  0  0999 V2000
   19.3815  -12.6013  -20.0231 C   0  0  0  0  0  0  0  0  0  0  0  0
   19.6662  -11.4704  -19.0562 C   0  0  2  0  0  0  0  0  0  0  0  0
   20.5492  -10.4697  -19.7705 C   0  0  0  0  0  0  0  0  0  0  0  0
   20.4644  -12.0034  -17.8487 C   0  0  2  0  0  0  0  0  0  0  0  0
   19.7046  -13.0559  -17.2094 N   0  0  0  0  0  0  0  0  0  0  0  0
   20.6506  -10.8772  -16.8677 C   0  0  0  0  0  0  0  0  0  0  0  0
   19.7768   -9.9627  -17.0075 O   0  0  0  0  0  0  0  0  0  0  0  0
   21.6811  -10.8735  -15.9237 N   0  0  0  0  0  0  0  0  0  0  0  0
   22.2577  -12.1164  -15.3745 C   0  0  0  0  0  0  0  0  0  0  0  0
   23.7174  -11.8213  -15.6277 C   0  0  0  0  0  0  0  0  0  0  0  0
   23.8528  -10.3285  -15.4478 C   0  0  0  0  0  0  0  0  0  0  0  0
   22.3770   -9.8663  -15.2356 C   0  0  1  0  0  0  0  0  0  0  0  0
   22.2433   -8.4768  -15.6132 C   0  0  0  0  0  0  0  0  0  0  0  0
   22.5741   -8.0282  -16.7144 O   0  0  0  0  0  0  0  0  0  0  0  0
   19.4382   -6.1159  -13.9120 C   0  0  0  0  0  0  0  0  0  0  0  0
   20.2235   -5.7002  -15.1362 C   0  0  1  0  0  0  0  0  0  0  0  0
   20.1224   -4.3254  -15.3764 O   0  0  0  0  0  0  0  0  0  0  0  0
   21.6996   -6.0987  -14.9873 C   0  0  2  0  0  0  0  0  0  0  0  0
   21.6982   -7.5225  -14.6862 N   0  0  0  0  0  0  0  0  0  0  0  0
   22.2245   -5.3098  -13.8572 C   0  0  0  0  0  0  0  0  0  0  0  0
   22.2357   -5.8012  -12.7144 O   0  0  0  0  0  0  0  0  0  0  0  0
   22.7005   -4.0368  -14.0605 O   0  0  0  0  0  0  0  0  0  0  0  0
  2  1  1  6
  2  4  1  0
  2  3  1  0
  4  6  1  0
  4  5  1  1
  6  8  1  0
  6  7  2  0
  8 12  1  0
  9 10  1  0
  9  8  1  0
 10 11  1  0
 11 12  1  0
 12 13  1  6
 13 19  1  0
 13 14  2  0
 16 18  1  0
 16 15  1  1
 17 16  1  0
 18 20  1  0
 18 19  1  1
 20 22  1  0
 21 20  2  0
M  END
$$$$
