VPT.pdb
     RDKit          3D

 22 22  0  0  1  0  0  0  0  0999 V2000
   18.8805  -10.3349  -19.1073 C   0  0  0  0  0  0  0  0  0  0  0  0
   20.2742  -10.9094  -19.2567 C   0  0  2  0  0  0  0  0  0  0  0  0
   20.2207  -11.9617  -20.3435 C   0  0  0  0  0  0  0  0  0  0  0  0
   20.6890  -11.6208  -17.9525 C   0  0  2  0  0  0  0  0  0  0  0  0
   19.7259  -12.6591  -17.6554 N   0  0  0  0  0  0  0  0  0  0  0  0
   20.6729  -10.6124  -16.8352 C   0  0  0  0  0  0  0  0  0  0  0  0
   19.7051   -9.7921  -16.9362 O   0  0  0  0  0  0  0  0  0  0  0  0
   21.6319  -10.6103  -15.8187 N   0  0  0  0  0  0  0  0  0  0  0  0
   22.2553  -11.8497  -15.3144 C   0  0  0  0  0  0  0  0  0  0  0  0
   23.7045  -11.4413  -15.4368 C   0  0  0  0  0  0  0  0  0  0  0  0
   23.7208   -9.9601  -15.1453 C   0  0  0  0  0  0  0  0  0  0  0  0
   22.2047   -9.6129  -15.0131 C   0  0  1  0  0  0  0  0  0  0  0  0
   21.9996   -8.2112  -15.3034 C   0  0  0  0  0  0  0  0  0  0  0  0
   22.2166   -7.6978  -16.4046 O   0  0  0  0  0  0  0  0  0  0  0  0
   19.8597   -3.9697  -14.1697 C   0  0  0  0  0  0  0  0  0  0  0  0
   20.0352   -5.4661  -14.0339 C   0  0  1  0  0  0  0  0  0  0  0  0
   19.0548   -6.1706  -14.7413 O   0  0  0  0  0  0  0  0  0  0  0  0
   21.4322   -5.8879  -14.5139 C   0  0  2  0  0  0  0  0  0  0  0  0
   21.5154   -7.3223  -14.2824 N   0  0  0  0  0  0  0  0  0  0  0  0
   22.3937   -5.1501  -13.6738 C   0  0  0  0  0  0  0  0  0  0  0  0
   22.5718   -5.4952  -12.4919 O   0  0  0  0  0  0  0  0  0  0  0  0
   23.0927   -4.0852  -14.1895 O   0  0  0  0  0  0  0  0  0  0  0  0
  2  1  1  1
  2  4  1  0
  2  3  1  0
  4  6  1  0
  4  5  1  1
  6  8  1  0
  6  7  2  0
  8 12  1  0
  9 10  1  0
  9  8  1  0
 10 11  1  0
 11 12  1  0
 12 13  1  6
 13 19  1  0
 13 14  2  0
 16 18  1  0
 16 15  1  6
 17 16  1  0
 18 20  1  0
 18 19  1  1
 20 22  1  0
 21 20  2  0
M  END
$$$$
