WKA.pdb
     RDKit          3D

 29 30  0  0  1  0  0  0  0  0999 V2000
   24.3799  -19.6364   -9.5084 N   0  0  0  0  0  0  0  0  0  0  0  0
   25.7782  -19.9008   -9.7714 C   0  0  1  0  0  0  0  0  0  0  0  0
   26.1583  -21.1348   -8.9640 C   0  0  0  0  0  0  0  0  0  0  0  0
   26.2274  -20.7856   -7.5254 C   0  0  0  0  0  0  0  0  0  0  0  0
   25.1686  -20.9018   -6.6480 C   0  0  0  0  0  0  0  0  0  0  0  0
   25.6149  -20.4921   -5.4475 N   0  0  0  0  0  0  0  0  0  0  0  0
   26.9180  -20.1235   -5.5457 C   0  0  0  0  0  0  0  0  0  0  0  0
   27.8156  -19.6420   -4.6227 C   0  0  0  0  0  0  0  0  0  0  0  0
   29.1119  -19.3331   -4.9718 C   0  0  0  0  0  0  0  0  0  0  0  0
   29.5266  -19.5114   -6.2896 C   0  0  0  0  0  0  0  0  0  0  0  0
   28.6307  -19.9936   -7.2179 C   0  0  0  0  0  0  0  0  0  0  0  0
   27.3331  -20.2986   -6.8503 C   0  0  0  0  0  0  0  0  0  0  0  0
   25.9675  -20.1787  -11.2167 C   0  0  0  0  0  0  0  0  0  0  0  0
   25.0136  -20.7871  -11.8215 O   0  0  0  0  0  0  0  0  0  0  0  0
   27.1413  -19.7939  -11.9015 N   0  0  0  0  0  0  0  0  0  0  0  0
   27.1184  -19.8083  -13.3599 C   0  0  1  0  0  0  0  0  0  0  0  0
   28.3943  -19.2486  -13.9360 C   0  0  0  0  0  0  0  0  0  0  0  0
   28.4346  -19.3078  -15.4465 C   0  0  0  0  0  0  0  0  0  0  0  0
   27.7779  -18.0170  -15.9370 C   0  0  0  0  0  0  0  0  0  0  0  0
   27.8175  -17.9623  -17.4503 C   0  0  0  0  0  0  0  0  0  0  0  0
   29.1830  -17.7689  -17.8753 N   0  0  0  0  0  0  0  0  0  0  0  0
   27.0267  -21.2174  -13.8173 C   0  0  0  0  0  0  0  0  0  0  0  0
   27.6198  -22.1328  -13.1845 O   0  0  0  0  0  0  0  0  0  0  0  0
   25.0476  -23.6584  -14.4446 C   0  0  0  0  0  0  0  0  0  0  0  0
   26.0866  -22.9894  -15.3072 C   0  0  2  0  0  0  0  0  0  0  0  0
   26.2898  -21.6119  -14.9595 N   0  0  0  0  0  0  0  0  0  0  0  0
   25.6969  -23.1042  -16.7165 C   0  0  0  0  0  0  0  0  0  0  0  0
   25.5600  -24.2419  -17.2337 O   0  0  0  0  0  0  0  0  0  0  0  0
   25.4849  -21.9546  -17.4601 O   0  0  0  0  0  0  0  0  0  0  0  0
  2  1  1  6
  2  3  1  0
  3  4  1  0
  4  5  2  0
  4 12  1  0
  5  6  1  0
  6  7  1  0
  7  8  2  0
  9  8  1  0
 10  9  2  0
 11 10  1  0
 12 11  2  0
 12  7  1  0
 13 15  1  0
 13  2  1  0
 14 13  2  0
 16 15  1  0
 16 17  1  6
 17 18  1  0
 19 18  1  0
 20 19  1  0
 20 21  1  0
 22 16  1  0
 23 22  2  0
 25 24  1  1
 25 27  1  0
 25 26  1  0
 26 22  1  0
 27 29  1  0
 28 27  2  0
M  END
$$$$
