WKA.pdb
     RDKit          3D

 29 30  0  0  1  0  0  0  0  0999 V2000
   24.5555  -19.4432   -9.0767 N   0  0  0  0  0  0  0  0  0  0  0  0
   25.8030  -20.0297   -9.5172 C   0  0  1  0  0  0  0  0  0  0  0  0
   26.0317  -21.2773   -8.6743 C   0  0  0  0  0  0  0  0  0  0  0  0
   26.3466  -20.8844   -7.2804 C   0  0  0  0  0  0  0  0  0  0  0  0
   25.4061  -20.7649   -6.2777 C   0  0  0  0  0  0  0  0  0  0  0  0
   26.0691  -20.3926   -5.1686 N   0  0  0  0  0  0  0  0  0  0  0  0
   27.3932  -20.2756   -5.4451 C   0  0  0  0  0  0  0  0  0  0  0  0
   28.4735  -19.9284   -4.6693 C   0  0  0  0  0  0  0  0  0  0  0  0
   29.7481  -19.8797   -5.1897 C   0  0  0  0  0  0  0  0  0  0  0  0
   29.9511  -20.1888   -6.5327 C   0  0  0  0  0  0  0  0  0  0  0  0
   28.8717  -20.5372   -7.3139 C   0  0  0  0  0  0  0  0  0  0  0  0
   27.5989  -20.5810   -6.7754 C   0  0  0  0  0  0  0  0  0  0  0  0
   25.6939  -20.4126  -10.9467 C   0  0  0  0  0  0  0  0  0  0  0  0
   24.5328  -20.7580  -11.3690 O   0  0  0  0  0  0  0  0  0  0  0  0
   26.8128  -20.3998  -11.8086 N   0  0  0  0  0  0  0  0  0  0  0  0
   26.5727  -20.2475  -13.2391 C   0  0  1  0  0  0  0  0  0  0  0  0
   27.7631  -19.6382  -13.9353 C   0  0  0  0  0  0  0  0  0  0  0  0
   27.6091  -19.5972  -15.4391 C   0  0  0  0  0  0  0  0  0  0  0  0
   28.8945  -18.9682  -15.9779 C   0  0  0  0  0  0  0  0  0  0  0  0
   28.5555  -17.8614  -16.9550 C   0  0  0  0  0  0  0  0  0  0  0  0
   29.7813  -17.2665  -17.4306 N   0  0  0  0  0  0  0  0  0  0  0  0
   26.3762  -21.5943  -13.8316 C   0  0  0  0  0  0  0  0  0  0  0  0
   27.1762  -22.5314  -13.5634 O   0  0  0  0  0  0  0  0  0  0  0  0
   23.7546  -23.3745  -15.8982 C   0  0  0  0  0  0  0  0  0  0  0  0
   25.0938  -23.2259  -15.2232 C   0  0  2  0  0  0  0  0  0  0  0  0
   25.3100  -21.9033  -14.7096 N   0  0  0  0  0  0  0  0  0  0  0  0
   26.1575  -23.5830  -16.1677 C   0  0  0  0  0  0  0  0  0  0  0  0
   26.7016  -22.6860  -16.8605 O   0  0  0  0  0  0  0  0  0  0  0  0
   26.5488  -24.9069  -16.2838 O   0  0  0  0  0  0  0  0  0  0  0  0
  2  1  1  1
  2  3  1  0
  3  4  1  0
  4  5  2  0
  4 12  1  0
  5  6  1  0
  6  7  1  0
  7  8  2  0
  9  8  1  0
 10  9  2  0
 11 10  1  0
 12 11  2  0
 12  7  1  0
 13 15  1  0
 13  2  1  0
 14 13  2  0
 16 15  1  0
 16 17  1  6
 17 18  1  0
 19 18  1  0
 20 19  1  0
 20 21  1  0
 22 16  1  0
 23 22  2  0
 25 24  1  6
 25 27  1  0
 25 26  1  0
 26 22  1  0
 27 29  1  0
 28 27  2  0
M  END
$$$$
