WKA.pdb
     RDKit          3D

 29 30  0  0  1  0  0  0  0  0999 V2000
   24.7949  -19.0370   -9.2346 N   0  0  0  0  0  0  0  0  0  0  0  0
   25.9597  -19.8238   -9.5784 C   0  0  1  0  0  0  0  0  0  0  0  0
   25.9796  -21.0243   -8.6415 C   0  0  0  0  0  0  0  0  0  0  0  0
   26.3144  -20.5778   -7.2687 C   0  0  0  0  0  0  0  0  0  0  0  0
   25.3884  -20.1120   -6.3577 C   0  0  0  0  0  0  0  0  0  0  0  0
   26.0678  -19.8059   -5.2384 N   0  0  0  0  0  0  0  0  0  0  0  0
   27.3882  -20.0652   -5.4197 C   0  0  0  0  0  0  0  0  0  0  0  0
   28.4801  -19.9268   -4.5962 C   0  0  0  0  0  0  0  0  0  0  0  0
   29.7473  -20.2652   -5.0173 C   0  0  0  0  0  0  0  0  0  0  0  0
   29.9306  -20.7594   -6.3067 C   0  0  0  0  0  0  0  0  0  0  0  0
   28.8396  -20.8997   -7.1353 C   0  0  0  0  0  0  0  0  0  0  0  0
   27.5744  -20.5552   -6.6965 C   0  0  0  0  0  0  0  0  0  0  0  0
   25.8447  -20.2939  -10.9811 C   0  0  0  0  0  0  0  0  0  0  0  0
   24.6605  -20.4963  -11.4312 O   0  0  0  0  0  0  0  0  0  0  0  0
   26.9824  -20.5107  -11.7896 N   0  0  0  0  0  0  0  0  0  0  0  0
   26.7945  -20.5638  -13.2350 C   0  0  1  0  0  0  0  0  0  0  0  0
   28.0969  -20.3615  -13.9672 C   0  0  0  0  0  0  0  0  0  0  0  0
   28.4766  -18.9041  -14.1028 C   0  0  0  0  0  0  0  0  0  0  0  0
   27.7449  -18.3911  -15.3435 C   0  0  0  0  0  0  0  0  0  0  0  0
   28.5643  -18.6862  -16.5829 C   0  0  0  0  0  0  0  0  0  0  0  0
   27.9395  -18.0511  -17.7183 N   0  0  0  0  0  0  0  0  0  0  0  0
   26.3071  -21.9177  -13.5990 C   0  0  0  0  0  0  0  0  0  0  0  0
   26.8575  -22.9444  -13.1162 O   0  0  0  0  0  0  0  0  0  0  0  0
   23.4437  -23.4405  -15.5442 C   0  0  0  0  0  0  0  0  0  0  0  0
   24.7796  -23.4518  -14.8468 C   0  0  2  0  0  0  0  0  0  0  0  0
   25.2254  -22.1364  -14.4853 N   0  0  0  0  0  0  0  0  0  0  0  0
   25.7724  -24.1049  -15.7065 C   0  0  0  0  0  0  0  0  0  0  0  0
   25.7317  -25.3509  -15.8687 O   0  0  0  0  0  0  0  0  0  0  0  0
   26.7436  -23.3378  -16.3293 O   0  0  0  0  0  0  0  0  0  0  0  0
  2  1  1  1
  2  3  1  0
  3  4  1  0
  4  5  2  0
  4 12  1  0
  5  6  1  0
  6  7  1  0
  7  8  2  0
  9  8  1  0
 10  9  2  0
 11 10  1  0
 12 11  2  0
 12  7  1  0
 13 15  1  0
 13  2  1  0
 14 13  2  0
 16 15  1  0
 16 17  1  6
 17 18  1  0
 19 18  1  0
 20 19  1  0
 20 21  1  0
 22 16  1  0
 23 22  2  0
 25 24  1  6
 25 27  1  0
 25 26  1  0
 26 22  1  0
 27 29  1  0
 28 27  2  0
M  END
$$$$
