WKA.pdb
     RDKit          3D

 29 30  0  0  1  0  0  0  0  0999 V2000
   21.1614  -14.6975  -17.8079 N   0  0  0  0  0  0  0  0  0  0  0  0
   20.2135  -13.9169  -17.0423 C   0  0  1  0  0  0  0  0  0  0  0  0
   20.2745  -14.4233  -15.6073 C   0  0  0  0  0  0  0  0  0  0  0  0
   19.6873  -15.7820  -15.5345 C   0  0  0  0  0  0  0  0  0  0  0  0
   18.3358  -16.0478  -15.6198 C   0  0  0  0  0  0  0  0  0  0  0  0
   18.1967  -17.3809  -15.5112 N   0  0  0  0  0  0  0  0  0  0  0  0
   19.4168  -17.9572  -15.3609 C   0  0  0  0  0  0  0  0  0  0  0  0
   19.8102  -19.2658  -15.2115 C   0  0  0  0  0  0  0  0  0  0  0  0
   21.1375  -19.6077  -15.0736 C   0  0  0  0  0  0  0  0  0  0  0  0
   22.1066  -18.6070  -15.0854 C   0  0  0  0  0  0  0  0  0  0  0  0
   21.7172  -17.2945  -15.2347 C   0  0  0  0  0  0  0  0  0  0  0  0
   20.3803  -16.9689  -15.3718 C   0  0  0  0  0  0  0  0  0  0  0  0
   20.6051  -12.4861  -17.0781 C   0  0  0  0  0  0  0  0  0  0  0  0
   21.8118  -12.2052  -16.7452 O   0  0  0  0  0  0  0  0  0  0  0  0
   19.6965  -11.4745  -17.4601 N   0  0  0  0  0  0  0  0  0  0  0  0
   20.2017  -10.1118  -17.5828 C   0  0  1  0  0  0  0  0  0  0  0  0
   19.4816   -9.3535  -18.6689 C   0  0  0  0  0  0  0  0  0  0  0  0
   19.9062   -9.7699  -20.0593 C   0  0  0  0  0  0  0  0  0  0  0  0
   19.0635   -8.9364  -21.0252 C   0  0  0  0  0  0  0  0  0  0  0  0
   19.4415   -9.2665  -22.4545 C   0  0  0  0  0  0  0  0  0  0  0  0
   18.6056   -8.5007  -23.3476 N   0  0  0  0  0  0  0  0  0  0  0  0
   19.9346   -9.3923  -16.3122 C   0  0  0  0  0  0  0  0  0  0  0  0
   18.8011   -9.4656  -15.7645 O   0  0  0  0  0  0  0  0  0  0  0  0
   21.8325   -7.8870  -13.5026 C   0  0  0  0  0  0  0  0  0  0  0  0
   20.6374   -7.9195  -14.4201 C   0  0  2  0  0  0  0  0  0  0  0  0
   20.9063   -8.6013  -15.6540 N   0  0  0  0  0  0  0  0  0  0  0  0
   20.1900   -6.5482  -14.6858 C   0  0  0  0  0  0  0  0  0  0  0  0
   20.2826   -6.0775  -15.8479 O   0  0  0  0  0  0  0  0  0  0  0  0
   19.6704   -5.7888  -13.6501 O   0  0  0  0  0  0  0  0  0  0  0  0
  2  1  1  6
  2  3  1  0
  3  4  1  0
  4  5  2  0
  4 12  1  0
  5  6  1  0
  6  7  1  0
  7  8  2  0
  9  8  1  0
 10  9  2  0
 11 10  1  0
 12 11  2  0
 12  7  1  0
 13 15  1  0
 13  2  1  0
 14 13  2  0
 16 15  1  0
 16 17  1  6
 17 18  1  0
 19 18  1  0
 20 19  1  0
 20 21  1  0
 22 16  1  0
 23 22  2  0
 25 24  1  1
 25 27  1  0
 25 26  1  0
 26 22  1  0
 27 29  1  0
 28 27  2  0
M  END
$$$$
