WKA.pdb
     RDKit          3D

 29 30  0  0  1  0  0  0  0  0999 V2000
   26.4626  -19.4540  -11.2151 N   0  0  0  0  0  0  0  0  0  0  0  0
   26.1649  -20.8694  -11.1677 C   0  0  1  0  0  0  0  0  0  0  0  0
   25.5113  -21.1429   -9.8196 C   0  0  0  0  0  0  0  0  0  0  0  0
   26.3870  -20.6449   -8.7327 C   0  0  0  0  0  0  0  0  0  0  0  0
   25.9483  -19.8730   -7.6763 C   0  0  0  0  0  0  0  0  0  0  0  0
   27.0236  -19.6213   -6.9090 N   0  0  0  0  0  0  0  0  0  0  0  0
   28.1201  -20.2106   -7.4511 C   0  0  0  0  0  0  0  0  0  0  0  0
   29.4371  -20.2525   -7.0597 C   0  0  0  0  0  0  0  0  0  0  0  0
   30.3853  -20.9312   -7.7931 C   0  0  0  0  0  0  0  0  0  0  0  0
   30.0047  -21.5916   -8.9590 C   0  0  0  0  0  0  0  0  0  0  0  0
   28.6863  -21.5524   -9.3552 C   0  0  0  0  0  0  0  0  0  0  0  0
   27.7474  -20.8663   -8.6071 C   0  0  0  0  0  0  0  0  0  0  0  0
   25.2162  -21.2138  -12.2555 C   0  0  0  0  0  0  0  0  0  0  0  0
   24.4807  -20.2648  -12.7074 O   0  0  0  0  0  0  0  0  0  0  0  0
   25.1219  -22.5240  -12.7743 N   0  0  0  0  0  0  0  0  0  0  0  0
   24.3534  -22.7215  -13.9982 C   0  0  1  0  0  0  0  0  0  0  0  0
   24.6363  -24.0681  -14.6146 C   0  0  0  0  0  0  0  0  0  0  0  0
   24.0704  -24.2082  -16.0098 C   0  0  0  0  0  0  0  0  0  0  0  0
   25.2718  -24.4067  -16.9345 C   0  0  0  0  0  0  0  0  0  0  0  0
   24.8024  -24.5260  -18.3698 C   0  0  0  0  0  0  0  0  0  0  0  0
   25.9504  -24.7226  -19.2220 N   0  0  0  0  0  0  0  0  0  0  0  0
   22.9088  -22.7043  -13.6573 C   0  0  0  0  0  0  0  0  0  0  0  0
   22.4794  -23.3584  -12.6685 O   0  0  0  0  0  0  0  0  0  0  0  0
   19.7992  -20.8731  -14.7997 C   0  0  0  0  0  0  0  0  0  0  0  0
   20.5694  -21.9008  -14.0113 C   0  0  2  0  0  0  0  0  0  0  0  0
   21.9494  -21.9742  -14.3988 N   0  0  0  0  0  0  0  0  0  0  0  0
   19.9297  -23.2117  -14.1642 C   0  0  0  0  0  0  0  0  0  0  0  0
   20.3995  -24.0418  -14.9833 O   0  0  0  0  0  0  0  0  0  0  0  0
   18.8138  -23.5178  -13.4023 O   0  0  0  0  0  0  0  0  0  0  0  0
  2  1  1  1
  2  3  1  0
  3  4  1  0
  4  5  2  0
  4 12  1  0
  5  6  1  0
  6  7  1  0
  7  8  2  0
  9  8  1  0
 10  9  2  0
 11 10  1  0
 12 11  2  0
 12  7  1  0
 13 15  1  0
 13  2  1  0
 14 13  2  0
 16 15  1  0
 16 17  1  1
 17 18  1  0
 19 18  1  0
 20 19  1  0
 20 21  1  0
 22 16  1  0
 23 22  2  0
 25 24  1  6
 25 27  1  0
 25 26  1  0
 26 22  1  0
 27 29  1  0
 28 27  2  0
M  END
$$$$
