WKA.pdb
     RDKit          3D

 29 30  0  0  1  0  0  0  0  0999 V2000
   28.8178  -21.8188  -10.4752 N   0  0  0  0  0  0  0  0  0  0  0  0
   27.5857  -21.2158  -10.0144 C   0  0  1  0  0  0  0  0  0  0  0  0
   27.9407  -19.8414   -9.4627 C   0  0  0  0  0  0  0  0  0  0  0  0
   28.6863  -19.9937   -8.1911 C   0  0  0  0  0  0  0  0  0  0  0  0
   30.0137  -20.3625   -8.1103 C   0  0  0  0  0  0  0  0  0  0  0  0
   30.3270  -20.3940   -6.8030 N   0  0  0  0  0  0  0  0  0  0  0  0
   29.2391  -20.0570   -6.0639 C   0  0  0  0  0  0  0  0  0  0  0  0
   29.0402  -19.9428   -4.7085 C   0  0  0  0  0  0  0  0  0  0  0  0
   27.8182  -19.5776   -4.1880 C   0  0  0  0  0  0  0  0  0  0  0  0
   26.7569  -19.3171   -5.0518 C   0  0  0  0  0  0  0  0  0  0  0  0
   26.9513  -19.4303   -6.4105 C   0  0  0  0  0  0  0  0  0  0  0  0
   28.1847  -19.7981   -6.9161 C   0  0  0  0  0  0  0  0  0  0  0  0
   26.6504  -21.0631  -11.1562 C   0  0  0  0  0  0  0  0  0  0  0  0
   27.0786  -20.4121  -12.1754 O   0  0  0  0  0  0  0  0  0  0  0  0
   25.3472  -21.6068  -11.1292 N   0  0  0  0  0  0  0  0  0  0  0  0
   24.6133  -21.6876  -12.3872 C   0  0  1  0  0  0  0  0  0  0  0  0
   23.9273  -23.0215  -12.5396 C   0  0  0  0  0  0  0  0  0  0  0  0
   23.1773  -23.1526  -13.8462 C   0  0  0  0  0  0  0  0  0  0  0  0
   23.9624  -24.1626  -14.6837 C   0  0  0  0  0  0  0  0  0  0  0  0
   23.3298  -24.2976  -16.0535 C   0  0  0  0  0  0  0  0  0  0  0  0
   24.0556  -25.2912  -16.8075 N   0  0  0  0  0  0  0  0  0  0  0  0
   23.5446  -20.6575  -12.3780 C   0  0  0  0  0  0  0  0  0  0  0  0
   22.9631  -20.3520  -11.3016 O   0  0  0  0  0  0  0  0  0  0  0  0
   21.9821  -18.2287  -14.8288 C   0  0  0  0  0  0  0  0  0  0  0  0
   22.1154  -18.9506  -13.5126 C   0  0  2  0  0  0  0  0  0  0  0  0
   23.1222  -19.9730  -13.5426 N   0  0  0  0  0  0  0  0  0  0  0  0
   20.8191  -19.5267  -13.1397 C   0  0  0  0  0  0  0  0  0  0  0  0
   20.5889  -20.7413  -13.3682 O   0  0  0  0  0  0  0  0  0  0  0  0
   19.8640  -18.7223  -12.5394 O   0  0  0  0  0  0  0  0  0  0  0  0
  2  1  1  6
  2  3  1  0
  3  4  1  0
  4  5  2  0
  4 12  1  0
  5  6  1  0
  6  7  1  0
  7  8  2  0
  9  8  1  0
 10  9  2  0
 11 10  1  0
 12 11  2  0
 12  7  1  0
 13 15  1  0
 13  2  1  0
 14 13  2  0
 16 15  1  0
 16 17  1  1
 17 18  1  0
 19 18  1  0
 20 19  1  0
 20 21  1  0
 22 16  1  0
 23 22  2  0
 25 24  1  6
 25 27  1  0
 25 26  1  0
 26 22  1  0
 27 29  1  0
 28 27  2  0
M  END
$$$$
