WKA.pdb
     RDKit          3D

 29 30  0  0  1  0  0  0  0  0999 V2000
   27.0396  -21.9068  -10.3278 N   0  0  0  0  0  0  0  0  0  0  0  0
   26.2970  -20.9450   -9.5419 C   0  0  1  0  0  0  0  0  0  0  0  0
   27.2515  -19.8044   -9.2145 C   0  0  0  0  0  0  0  0  0  0  0  0
   28.3208  -20.2944   -8.3130 C   0  0  0  0  0  0  0  0  0  0  0  0
   29.3704  -21.0933   -8.7183 C   0  0  0  0  0  0  0  0  0  0  0  0
   30.1214  -21.3272   -7.6277 N   0  0  0  0  0  0  0  0  0  0  0  0
   29.5757  -20.7006   -6.5538 C   0  0  0  0  0  0  0  0  0  0  0  0
   29.9527  -20.6290   -5.2339 C   0  0  0  0  0  0  0  0  0  0  0  0
   29.2187  -19.9143   -4.3129 C   0  0  0  0  0  0  0  0  0  0  0  0
   28.0672  -19.2473   -4.7248 C   0  0  0  0  0  0  0  0  0  0  0  0
   27.6856  -19.3163   -6.0463 C   0  0  0  0  0  0  0  0  0  0  0  0
   28.4340  -20.0383   -6.9576 C   0  0  0  0  0  0  0  0  0  0  0  0
   25.1600  -20.4238  -10.3402 C   0  0  0  0  0  0  0  0  0  0  0  0
   24.4280  -19.5245   -9.7912 O   0  0  0  0  0  0  0  0  0  0  0  0
   24.8900  -20.8915  -11.6453 N   0  0  0  0  0  0  0  0  0  0  0  0
   23.8171  -20.2473  -12.3947 C   0  0  1  0  0  0  0  0  0  0  0  0
   24.1226  -20.2091  -13.8706 C   0  0  0  0  0  0  0  0  0  0  0  0
   23.0816  -19.4566  -14.6686 C   0  0  0  0  0  0  0  0  0  0  0  0
   23.5206  -19.5514  -16.1302 C   0  0  0  0  0  0  0  0  0  0  0  0
   22.5520  -18.7872  -17.0091 C   0  0  0  0  0  0  0  0  0  0  0  0
   23.0029  -18.8638  -18.3779 N   0  0  0  0  0  0  0  0  0  0  0  0
   22.5803  -21.0526  -12.2364 C   0  0  0  0  0  0  0  0  0  0  0  0
   22.6234  -22.3100  -12.3205 O   0  0  0  0  0  0  0  0  0  0  0  0
   19.1118  -20.5077  -10.9121 C   0  0  0  0  0  0  0  0  0  0  0  0
   20.1508  -21.2692  -11.6943 C   0  0  2  0  0  0  0  0  0  0  0  0
   21.3110  -20.4774  -11.9887 N   0  0  0  0  0  0  0  0  0  0  0  0
   19.5533  -21.7737  -12.9351 C   0  0  0  0  0  0  0  0  0  0  0  0
   19.8955  -21.2762  -14.0378 O   0  0  0  0  0  0  0  0  0  0  0  0
   18.6178  -22.7938  -12.8747 O   0  0  0  0  0  0  0  0  0  0  0  0
  2  1  1  6
  2  3  1  0
  3  4  1  0
  4  5  2  0
  4 12  1  0
  5  6  1  0
  6  7  1  0
  7  8  2  0
  9  8  1  0
 10  9  2  0
 11 10  1  0
 12 11  2  0
 12  7  1  0
 13 15  1  0
 13  2  1  0
 14 13  2  0
 16 15  1  0
 16 17  1  6
 17 18  1  0
 19 18  1  0
 20 19  1  0
 20 21  1  0
 22 16  1  0
 23 22  2  0
 25 24  1  6
 25 27  1  0
 25 26  1  0
 26 22  1  0
 27 29  1  0
 28 27  2  0
M  END
$$$$
