WKA.pdb
     RDKit          3D

 29 30  0  0  1  0  0  0  0  0999 V2000
   25.8946  -21.9377   -9.8207 N   0  0  0  0  0  0  0  0  0  0  0  0
   25.9674  -20.4934   -9.8748 C   0  0  1  0  0  0  0  0  0  0  0  0
   27.2088  -20.0798   -9.0955 C   0  0  0  0  0  0  0  0  0  0  0  0
   26.9967  -20.3349   -7.6511 C   0  0  0  0  0  0  0  0  0  0  0  0
   25.9424  -21.0636   -7.1395 C   0  0  0  0  0  0  0  0  0  0  0  0
   26.0914  -21.0724   -5.8031 N   0  0  0  0  0  0  0  0  0  0  0  0
   27.2043  -20.3732   -5.4626 C   0  0  0  0  0  0  0  0  0  0  0  0
   27.7846  -20.0908   -4.2489 C   0  0  0  0  0  0  0  0  0  0  0  0
   28.9390  -19.3446   -4.1586 C   0  0  0  0  0  0  0  0  0  0  0  0
   29.5353  -18.8633   -5.3219 C   0  0  0  0  0  0  0  0  0  0  0  0
   28.9574  -19.1436   -6.5402 C   0  0  0  0  0  0  0  0  0  0  0  0
   27.7984  -19.8942   -6.6126 C   0  0  0  0  0  0  0  0  0  0  0  0
   26.1018  -20.0557  -11.2862 C   0  0  0  0  0  0  0  0  0  0  0  0
   27.2895  -19.8254  -11.7129 O   0  0  0  0  0  0  0  0  0  0  0  0
   24.9781  -19.8979  -12.1272 N   0  0  0  0  0  0  0  0  0  0  0  0
   25.2090  -19.4884  -13.5080 C   0  0  1  0  0  0  0  0  0  0  0  0
   25.5095  -20.6733  -14.3906 C   0  0  0  0  0  0  0  0  0  0  0  0
   26.8434  -21.3150  -14.0817 C   0  0  0  0  0  0  0  0  0  0  0  0
   27.0091  -22.4511  -15.0916 C   0  0  0  0  0  0  0  0  0  0  0  0
   27.5019  -21.8975  -16.4127 C   0  0  0  0  0  0  0  0  0  0  0  0
   27.7733  -22.9965  -17.3078 N   0  0  0  0  0  0  0  0  0  0  0  0
   23.9651  -18.8712  -14.0324 C   0  0  0  0  0  0  0  0  0  0  0  0
   22.8388  -19.3492  -13.7273 O   0  0  0  0  0  0  0  0  0  0  0  0
   22.9908  -15.8678  -16.1257 C   0  0  0  0  0  0  0  0  0  0  0  0
   22.7544  -17.1698  -15.4045 C   0  0  2  0  0  0  0  0  0  0  0  0
   23.9639  -17.7404  -14.8835 N   0  0  0  0  0  0  0  0  0  0  0  0
   22.0970  -18.1165  -16.3115 C   0  0  0  0  0  0  0  0  0  0  0  0
   22.7770  -19.0082  -16.8800 O   0  0  0  0  0  0  0  0  0  0  0  0
   20.7327  -18.0148  -16.5298 O   0  0  0  0  0  0  0  0  0  0  0  0
  2  1  1  6
  2  3  1  0
  3  4  1  0
  4  5  2  0
  4 12  1  0
  5  6  1  0
  6  7  1  0
  7  8  2  0
  9  8  1  0
 10  9  2  0
 11 10  1  0
 12 11  2  0
 12  7  1  0
 13 15  1  0
 13  2  1  0
 14 13  2  0
 16 15  1  0
 16 17  1  6
 17 18  1  0
 19 18  1  0
 20 19  1  0
 20 21  1  0
 22 16  1  0
 23 22  2  0
 25 24  1  6
 25 27  1  0
 25 26  1  0
 26 22  1  0
 27 29  1  0
 28 27  2  0
M  END
$$$$
