WKA.pdb
     RDKit          3D

 29 30  0  0  1  0  0  0  0  0999 V2000
   23.5813  -20.5666  -11.6501 N   0  0  0  0  0  0  0  0  0  0  0  0
   25.0023  -20.2982  -11.5958 C   0  0  1  0  0  0  0  0  0  0  0  0
   25.6296  -21.3881  -10.7367 C   0  0  0  0  0  0  0  0  0  0  0  0
   26.1558  -20.7934   -9.4854 C   0  0  0  0  0  0  0  0  0  0  0  0
   25.3825  -20.1182   -8.5633 C   0  0  0  0  0  0  0  0  0  0  0  0
   26.2090  -19.7306   -7.5759 N   0  0  0  0  0  0  0  0  0  0  0  0
   27.4736  -20.1413   -7.8506 C   0  0  0  0  0  0  0  0  0  0  0  0
   28.6605  -20.0002   -7.1718 C   0  0  0  0  0  0  0  0  0  0  0  0
   29.8384  -20.5165   -7.6653 C   0  0  0  0  0  0  0  0  0  0  0  0
   29.8308  -21.1981   -8.8801 C   0  0  0  0  0  0  0  0  0  0  0  0
   28.6439  -21.3419   -9.5639 C   0  0  0  0  0  0  0  0  0  0  0  0
   27.4706  -20.8173   -9.0540 C   0  0  0  0  0  0  0  0  0  0  0  0
   25.5717  -20.3595  -12.9647 C   0  0  0  0  0  0  0  0  0  0  0  0
   24.8790  -20.9694  -13.8557 O   0  0  0  0  0  0  0  0  0  0  0  0
   26.8185  -19.7753  -13.2795 N   0  0  0  0  0  0  0  0  0  0  0  0
   27.1747  -19.6400  -14.6874 C   0  0  1  0  0  0  0  0  0  0  0  0
   28.2281  -18.5805  -14.8894 C   0  0  0  0  0  0  0  0  0  0  0  0
   28.6566  -18.4431  -16.3331 C   0  0  0  0  0  0  0  0  0  0  0  0
   27.6175  -17.5392  -16.9975 C   0  0  0  0  0  0  0  0  0  0  0  0
   28.0196  -17.2600  -18.4310 C   0  0  0  0  0  0  0  0  0  0  0  0
   27.0314  -16.3984  -19.0341 N   0  0  0  0  0  0  0  0  0  0  0  0
   27.7645  -20.9208  -15.1511 C   0  0  0  0  0  0  0  0  0  0  0  0
   28.7691  -21.4088  -14.5655 O   0  0  0  0  0  0  0  0  0  0  0  0
   26.9554  -23.6519  -17.6328 C   0  0  0  0  0  0  0  0  0  0  0  0
   27.8553  -22.8723  -16.7088 C   0  0  2  0  0  0  0  0  0  0  0  0
   27.2523  -21.6544  -16.2478 N   0  0  0  0  0  0  0  0  0  0  0  0
   29.1216  -22.5844  -17.3906 C   0  0  0  0  0  0  0  0  0  0  0  0
   29.2085  -21.5825  -18.1450 O   0  0  0  0  0  0  0  0  0  0  0  0
   30.2069  -23.4227  -17.1936 O   0  0  0  0  0  0  0  0  0  0  0  0
  2  1  1  6
  2  3  1  0
  3  4  1  0
  4  5  2  0
  4 12  1  0
  5  6  1  0
  6  7  1  0
  7  8  2  0
  9  8  1  0
 10  9  2  0
 11 10  1  0
 12 11  2  0
 12  7  1  0
 13 15  1  0
 13  2  1  0
 14 13  2  0
 16 15  1  0
 16 17  1  1
 17 18  1  0
 19 18  1  0
 20 19  1  0
 20 21  1  0
 22 16  1  0
 23 22  2  0
 25 24  1  6
 25 27  1  0
 25 26  1  0
 26 22  1  0
 27 29  1  0
 28 27  2  0
M  END
$$$$
