WKA.pdb
     RDKit          3D

 29 30  0  0  1  0  0  0  0  0999 V2000
   25.1659  -19.2161  -11.1677 N   0  0  0  0  0  0  0  0  0  0  0  0
   26.2224  -20.1707  -11.4256 C   0  0  1  0  0  0  0  0  0  0  0  0
   25.9878  -21.3569  -10.4997 C   0  0  0  0  0  0  0  0  0  0  0  0
   26.2266  -20.9463   -9.0959 C   0  0  0  0  0  0  0  0  0  0  0  0
   25.2254  -20.7226   -8.1729 C   0  0  0  0  0  0  0  0  0  0  0  0
   25.8302  -20.3686   -7.0252 N   0  0  0  0  0  0  0  0  0  0  0  0
   27.1765  -20.3637   -7.2005 C   0  0  0  0  0  0  0  0  0  0  0  0
   28.2193  -20.0776   -6.3518 C   0  0  0  0  0  0  0  0  0  0  0  0
   29.5294  -20.1445   -6.7722 C   0  0  0  0  0  0  0  0  0  0  0  0
   29.8081  -20.5104   -8.0871 C   0  0  0  0  0  0  0  0  0  0  0  0
   28.7666  -20.7979   -8.9411 C   0  0  0  0  0  0  0  0  0  0  0  0
   27.4573  -20.7257   -8.5025 C   0  0  0  0  0  0  0  0  0  0  0  0
   26.1486  -20.6236  -12.8368 C   0  0  0  0  0  0  0  0  0  0  0  0
   24.9888  -20.6304  -13.3851 O   0  0  0  0  0  0  0  0  0  0  0  0
   27.2982  -21.0299  -13.5497 N   0  0  0  0  0  0  0  0  0  0  0  0
   27.3039  -20.8518  -14.9973 C   0  0  1  0  0  0  0  0  0  0  0  0
   28.7091  -20.7441  -15.5331 C   0  0  0  0  0  0  0  0  0  0  0  0
   29.0784  -19.3352  -15.9398 C   0  0  0  0  0  0  0  0  0  0  0  0
   27.8010  -18.7094  -16.5006 C   0  0  0  0  0  0  0  0  0  0  0  0
   28.0831  -17.2971  -16.9701 C   0  0  0  0  0  0  0  0  0  0  0  0
   28.7180  -17.3532  -18.2649 N   0  0  0  0  0  0  0  0  0  0  0  0
   26.7001  -22.0542  -15.6240 C   0  0  0  0  0  0  0  0  0  0  0  0
   27.1531  -23.2026  -15.3667 O   0  0  0  0  0  0  0  0  0  0  0  0
   23.5962  -22.9033  -17.5772 C   0  0  0  0  0  0  0  0  0  0  0  0
   24.9902  -23.1653  -17.0679 C   0  0  2  0  0  0  0  0  0  0  0  0
   25.6097  -21.9905  -16.5241 N   0  0  0  0  0  0  0  0  0  0  0  0
   25.8099  -23.7145  -18.1531 C   0  0  0  0  0  0  0  0  0  0  0  0
   26.5950  -22.9609  -18.7825 O   0  0  0  0  0  0  0  0  0  0  0  0
   25.7074  -25.0592  -18.4703 O   0  0  0  0  0  0  0  0  0  0  0  0
  2  1  1  6
  2  3  1  0
  3  4  1  0
  4  5  2  0
  4 12  1  0
  5  6  1  0
  6  7  1  0
  7  8  2  0
  9  8  1  0
 10  9  2  0
 11 10  1  0
 12 11  2  0
 12  7  1  0
 13 15  1  0
 13  2  1  0
 14 13  2  0
 16 15  1  0
 16 17  1  6
 17 18  1  0
 19 18  1  0
 20 19  1  0
 20 21  1  0
 22 16  1  0
 23 22  2  0
 25 24  1  6
 25 27  1  0
 25 26  1  0
 26 22  1  0
 27 29  1  0
 28 27  2  0
M  END
$$$$
