QSP.pdb
     RDKit          3D

 23 23  0  0  1  0  0  0  0  0999 V2000
   16.5461  -10.1086  -15.4697 N   0  0  0  0  0  0  0  0  0  0  0  0
   17.5808  -10.6618  -14.6764 C   0  0  0  0  0  0  0  0  0  0  0  0
   18.3341  -11.5188  -15.1997 O   0  0  0  0  0  0  0  0  0  0  0  0
   17.8132  -10.2829  -13.2783 C   0  0  0  0  0  0  0  0  0  0  0  0
   16.7750   -9.3300  -12.7478 C   0  0  0  0  0  0  0  0  0  0  0  0
   17.1105   -9.0596  -11.2973 C   0  0  2  0  0  0  0  0  0  0  0  0
   17.2228  -10.3389  -10.6226 N   0  0  0  0  0  0  0  0  0  0  0  0
   16.0993   -8.1851  -10.6410 C   0  0  0  0  0  0  0  0  0  0  0  0
   15.1060   -8.6924  -10.0587 O   0  0  0  0  0  0  0  0  0  0  0  0
   14.6827   -5.5965   -7.4992 O   0  0  0  0  0  0  0  0  0  0  0  0
   15.5108   -6.3489   -8.3348 C   0  0  0  0  0  0  0  0  0  0  0  0
   15.3596   -5.9286   -9.7853 C   0  0  2  0  0  0  0  0  0  0  0  0
   16.1970   -6.7654  -10.6356 N   0  0  0  0  0  0  0  0  0  0  0  0
   15.6793   -4.5087   -9.9172 C   0  0  0  0  0  0  0  0  0  0  0  0
   16.8979   -4.1425   -9.8287 O   0  0  0  0  0  0  0  0  0  0  0  0
   14.6427   -3.5703  -10.1397 N   0  0  0  0  0  0  0  0  0  0  0  0
   13.2186   -3.7868  -10.1553 C   0  0  0  0  0  0  0  0  0  0  0  0
   12.7810   -2.8275  -11.2762 C   0  0  0  0  0  0  0  0  0  0  0  0
   13.5653   -1.5799  -10.8591 C   0  0  0  0  0  0  0  0  0  0  0  0
   14.8805   -2.1816  -10.4179 C   0  0  1  0  0  0  0  0  0  0  0  0
   15.3221   -1.4341   -9.2181 C   0  0  0  0  0  0  0  0  0  0  0  0
   15.2453   -1.9945   -8.1040 O   0  0  0  0  0  0  0  0  0  0  0  0
   15.8119   -0.1477   -9.2941 O   0  0  0  0  0  0  0  0  0  0  0  0
  1  2  1  0
  2  3  2  0
  4  5  1  0
  4  2  1  0
  6  8  1  0
  6  5  1  0
  6  7  1  1
  8 13  1  0
  9  8  2  0
 10 11  1  0
 12 11  1  1
 12 14  1  0
 13 12  1  0
 14 15  2  0
 14 16  1  0
 16 20  1  0
 16 17  1  0
 17 18  1  0
 19 18  1  0
 20 21  1  1
 20 19  1  0
 21 23  1  0
 22 21  2  0
M  END
$$$$
