QSP.pdb
     RDKit          3D

 23 23  0  0  1  0  0  0  0  0999 V2000
   25.9358  -18.6936  -18.4464 N   0  0  0  0  0  0  0  0  0  0  0  0
   25.0730  -19.4851  -17.6496 C   0  0  0  0  0  0  0  0  0  0  0  0
   24.3180  -20.3041  -18.2284 O   0  0  0  0  0  0  0  0  0  0  0  0
   25.0197  -19.3941  -16.1863 C   0  0  0  0  0  0  0  0  0  0  0  0
   26.0383  -18.4409  -15.6198 C   0  0  0  0  0  0  0  0  0  0  0  0
   25.2804  -17.2866  -15.0009 C   0  0  2  0  0  0  0  0  0  0  0  0
   23.8777  -17.4486  -15.3333 N   0  0  0  0  0  0  0  0  0  0  0  0
   25.7986  -15.9666  -15.4560 C   0  0  0  0  0  0  0  0  0  0  0  0
   26.9734  -15.6161  -15.1736 O   0  0  0  0  0  0  0  0  0  0  0  0
   24.2500  -14.0547  -18.6740 O   0  0  0  0  0  0  0  0  0  0  0  0
   25.4991  -13.6834  -18.1720 C   0  0  0  0  0  0  0  0  0  0  0  0
   25.5306  -13.7626  -16.6567 C   0  0  2  0  0  0  0  0  0  0  0  0
   25.0154  -15.0526  -16.2152 N   0  0  0  0  0  0  0  0  0  0  0  0
   24.7785  -12.6430  -16.0943 C   0  0  0  0  0  0  0  0  0  0  0  0
   23.5697  -12.8340  -15.7344 O   0  0  0  0  0  0  0  0  0  0  0  0
   25.3960  -11.3764  -15.9577 N   0  0  0  0  0  0  0  0  0  0  0  0
   26.7365  -10.9842  -16.3104 C   0  0  0  0  0  0  0  0  0  0  0  0
   27.0729  -10.0052  -15.1717 C   0  0  0  0  0  0  0  0  0  0  0  0
   25.7890   -9.1701  -15.1715 C   0  0  0  0  0  0  0  0  0  0  0  0
   24.7360  -10.2321  -15.3940 C   0  0  1  0  0  0  0  0  0  0  0  0
   23.7232   -9.6581  -16.3095 C   0  0  0  0  0  0  0  0  0  0  0  0
   23.7312  -10.0142  -17.5071 O   0  0  0  0  0  0  0  0  0  0  0  0
   22.7791   -8.7491  -15.8820 O   0  0  0  0  0  0  0  0  0  0  0  0
  1  2  1  0
  2  3  2  0
  4  5  1  0
  4  2  1  0
  6  8  1  0
  6  5  1  0
  6  7  1  6
  8 13  1  0
  9  8  2  0
 10 11  1  0
 12 11  1  6
 12 14  1  0
 13 12  1  0
 14 15  2  0
 14 16  1  0
 16 20  1  0
 16 17  1  0
 17 18  1  0
 19 18  1  0
 20 21  1  6
 20 19  1  0
 21 23  1  0
 22 21  2  0
M  END
$$$$
