QSP.pdb
     RDKit          3D

 23 23  0  0  1  0  0  0  0  0999 V2000
   15.3131  -14.7575  -13.8107 N   0  0  0  0  0  0  0  0  0  0  0  0
   14.8558  -14.7134  -15.1504 C   0  0  0  0  0  0  0  0  0  0  0  0
   13.6425  -14.9490  -15.3699 O   0  0  0  0  0  0  0  0  0  0  0  0
   15.7285  -14.4067  -16.2891 C   0  0  0  0  0  0  0  0  0  0  0  0
   17.1164  -13.9983  -15.8718 C   0  0  0  0  0  0  0  0  0  0  0  0
   17.9017  -13.7153  -17.1340 C   0  0  2  0  0  0  0  0  0  0  0  0
   18.2352  -14.9889  -17.7432 N   0  0  0  0  0  0  0  0  0  0  0  0
   19.1217  -12.9042  -16.8660 C   0  0  0  0  0  0  0  0  0  0  0  0
   19.9458  -13.2710  -15.9890 O   0  0  0  0  0  0  0  0  0  0  0  0
   22.1932   -9.4263  -18.3427 O   0  0  0  0  0  0  0  0  0  0  0  0
   21.0000  -10.1249  -18.5384 C   0  0  0  0  0  0  0  0  0  0  0  0
   20.6145  -10.9161  -17.3019 C   0  0  2  0  0  0  0  0  0  0  0  0
   19.4158  -11.7015  -17.5676 N   0  0  0  0  0  0  0  0  0  0  0  0
   20.4409  -10.0035  -16.1738 C   0  0  0  0  0  0  0  0  0  0  0  0
   19.2874   -9.5024  -15.9608 O   0  0  0  0  0  0  0  0  0  0  0  0
   21.5437   -9.6928  -15.3421 N   0  0  0  0  0  0  0  0  0  0  0  0
   22.8632  -10.2708  -15.3409 C   0  0  0  0  0  0  0  0  0  0  0  0
   23.1852  -10.2819  -13.8361 C   0  0  0  0  0  0  0  0  0  0  0  0
   22.7528   -8.8574  -13.4765 C   0  0  0  0  0  0  0  0  0  0  0  0
   21.4944   -8.7049  -14.3007 C   0  0  1  0  0  0  0  0  0  0  0  0
   21.4865   -7.3235  -14.8345 C   0  0  0  0  0  0  0  0  0  0  0  0
   21.3418   -6.3751  -14.0338 O   0  0  0  0  0  0  0  0  0  0  0  0
   21.6330   -7.0553  -16.1788 O   0  0  0  0  0  0  0  0  0  0  0  0
  1  2  1  0
  2  3  2  0
  4  5  1  0
  4  2  1  0
  6  8  1  0
  6  5  1  0
  6  7  1  1
  8 13  1  0
  9  8  2  0
 10 11  1  0
 12 11  1  6
 12 14  1  0
 13 12  1  0
 14 15  2  0
 14 16  1  0
 16 20  1  0
 16 17  1  0
 17 18  1  0
 19 18  1  0
 20 21  1  6
 20 19  1  0
 21 23  1  0
 22 21  2  0
M  END
$$$$
