QSP.pdb
     RDKit          3D

 23 23  0  0  1  0  0  0  0  0999 V2000
   18.6404  -12.0073  -21.0532 N   0  0  0  0  0  0  0  0  0  0  0  0
   20.0278  -12.2912  -21.0762 C   0  0  0  0  0  0  0  0  0  0  0  0
   20.4340  -13.1975  -21.8439 O   0  0  0  0  0  0  0  0  0  0  0  0
   21.0087  -11.5796  -20.2493 C   0  0  0  0  0  0  0  0  0  0  0  0
   20.3924  -10.4866  -19.4170 C   0  0  0  0  0  0  0  0  0  0  0  0
   21.5140   -9.8100  -18.6593 C   0  0  2  0  0  0  0  0  0  0  0  0
   22.3212  -10.8464  -18.0439 N   0  0  0  0  0  0  0  0  0  0  0  0
   21.0044   -8.8439  -17.6468 C   0  0  0  0  0  0  0  0  0  0  0  0
   20.2524   -7.8980  -17.9966 O   0  0  0  0  0  0  0  0  0  0  0  0
   20.5445   -7.6828  -12.9009 O   0  0  0  0  0  0  0  0  0  0  0  0
   21.0445   -8.5488  -13.8756 C   0  0  0  0  0  0  0  0  0  0  0  0
   20.7868   -8.0149  -15.2727 C   0  0  2  0  0  0  0  0  0  0  0  0
   21.3307   -8.9340  -16.2646 N   0  0  0  0  0  0  0  0  0  0  0  0
   21.3505   -6.6720  -15.3930 C   0  0  0  0  0  0  0  0  0  0  0  0
   22.5849   -6.5482  -15.6898 O   0  0  0  0  0  0  0  0  0  0  0  0
   20.5270   -5.5400  -15.1815 N   0  0  0  0  0  0  0  0  0  0  0  0
   19.1000   -5.4861  -14.9914 C   0  0  0  0  0  0  0  0  0  0  0  0
   18.7461   -4.1878  -15.7380 C   0  0  0  0  0  0  0  0  0  0  0  0
   19.8329   -3.2689  -15.1720 C   0  0  0  0  0  0  0  0  0  0  0  0
   21.0280   -4.1947  -15.1421 C   0  0  1  0  0  0  0  0  0  0  0  0
   21.7723   -3.9068  -13.8945 C   0  0  0  0  0  0  0  0  0  0  0  0
   21.7873   -4.7739  -12.9950 O   0  0  0  0  0  0  0  0  0  0  0  0
   22.4441   -2.7191  -13.6983 O   0  0  0  0  0  0  0  0  0  0  0  0
  1  2  1  0
  2  3  2  0
  4  5  1  0
  4  2  1  0
  6  8  1  0
  6  5  1  0
  6  7  1  1
  8 13  1  0
  9  8  2  0
 10 11  1  0
 12 11  1  1
 12 14  1  0
 13 12  1  0
 14 15  2  0
 14 16  1  0
 16 20  1  0
 16 17  1  0
 17 18  1  0
 19 18  1  0
 20 21  1  1
 20 19  1  0
 21 23  1  0
 22 21  2  0
M  END
$$$$
