QSP.pdb
     RDKit          3D

 23 23  0  0  1  0  0  0  0  0999 V2000
   16.1761  -17.8795    2.8688 N   0  0  0  0  0  0  0  0  0  0  0  0
   17.3652  -17.1606    2.5949 C   0  0  0  0  0  0  0  0  0  0  0  0
   18.3340  -17.7859    2.0986 O   0  0  0  0  0  0  0  0  0  0  0  0
   17.5182  -15.7262    2.8621 C   0  0  0  0  0  0  0  0  0  0  0  0
   16.3343  -15.1329    3.5788 C   0  0  0  0  0  0  0  0  0  0  0  0
   16.7007  -13.7142    3.9567 C   0  0  2  0  0  0  0  0  0  0  0  0
   16.8626  -12.9568    2.7301 N   0  0  0  0  0  0  0  0  0  0  0  0
   17.9283  -13.6566    4.7979 C   0  0  0  0  0  0  0  0  0  0  0  0
   19.0656  -13.6707    4.2601 O   0  0  0  0  0  0  0  0  0  0  0  0
   17.8068  -12.0248    8.5177 O   0  0  0  0  0  0  0  0  0  0  0  0
   19.0071  -12.1200    7.8105 C   0  0  0  0  0  0  0  0  0  0  0  0
   19.0855  -13.4183    7.0285 C   0  0  2  0  0  0  0  0  0  0  0  0
   17.8852  -13.5845    6.2185 N   0  0  0  0  0  0  0  0  0  0  0  0
   19.2899  -14.5321    7.9522 C   0  0  0  0  0  0  0  0  0  0  0  0
   18.3207  -15.3307    8.1757 O   0  0  0  0  0  0  0  0  0  0  0  0
   20.5476  -14.7072    8.5783 N   0  0  0  0  0  0  0  0  0  0  0  0
   21.7769  -13.9926    8.3475 C   0  0  0  0  0  0  0  0  0  0  0  0
   22.8139  -15.1178    8.5104 C   0  0  0  0  0  0  0  0  0  0  0  0
   22.2927  -15.7541    9.8024 C   0  0  0  0  0  0  0  0  0  0  0  0
   20.7973  -15.6998    9.5858 C   0  0  1  0  0  0  0  0  0  0  0  0
   20.1800  -15.3508   10.8860 C   0  0  0  0  0  0  0  0  0  0  0  0
   19.7505  -14.1889   11.0500 O   0  0  0  0  0  0  0  0  0  0  0  0
   20.0664  -16.2635   11.9128 O   0  0  0  0  0  0  0  0  0  0  0  0
  1  2  1  0
  2  3  2  0
  4  5  1  0
  4  2  1  0
  6  8  1  0
  6  5  1  0
  6  7  1  6
  8 13  1  0
  9  8  2  0
 10 11  1  0
 12 11  1  1
 12 14  1  0
 13 12  1  0
 14 15  2  0
 14 16  1  0
 16 20  1  0
 16 17  1  0
 17 18  1  0
 19 18  1  0
 20 21  1  1
 20 19  1  0
 21 23  1  0
 22 21  2  0
M  END
$$$$
