QSP.pdb
     RDKit          3D

 23 23  0  0  1  0  0  0  0  0999 V2000
   22.8997  -24.9894  -15.7858 N   0  0  0  0  0  0  0  0  0  0  0  0
   23.2541  -26.0560  -16.6477 C   0  0  0  0  0  0  0  0  0  0  0  0
   22.3778  -26.5030  -17.4276 O   0  0  0  0  0  0  0  0  0  0  0  0
   24.5904  -26.6608  -16.6724 C   0  0  0  0  0  0  0  0  0  0  0  0
   25.5673  -25.9638  -15.7629 C   0  0  0  0  0  0  0  0  0  0  0  0
   26.1575  -24.8059  -16.5379 C   0  0  2  0  0  0  0  0  0  0  0  0
   27.4417  -25.2319  -17.0613 N   0  0  0  0  0  0  0  0  0  0  0  0
   26.2900  -23.5805  -15.7020 C   0  0  0  0  0  0  0  0  0  0  0  0
   27.0786  -23.5648  -14.7219 O   0  0  0  0  0  0  0  0  0  0  0  0
   25.0977  -18.9041  -14.8924 O   0  0  0  0  0  0  0  0  0  0  0  0
   25.1128  -20.0026  -15.7544 C   0  0  0  0  0  0  0  0  0  0  0  0
   25.5368  -21.2670  -15.0299 C   0  0  2  0  0  0  0  0  0  0  0  0
   25.5521  -22.3908  -15.9579 N   0  0  0  0  0  0  0  0  0  0  0  0
   24.6482  -21.4986  -13.8930 C   0  0  0  0  0  0  0  0  0  0  0  0
   23.5591  -22.1345  -14.0841 O   0  0  0  0  0  0  0  0  0  0  0  0
   25.0056  -21.0194  -12.6096 N   0  0  0  0  0  0  0  0  0  0  0  0
   26.2398  -20.4084  -12.1869 C   0  0  0  0  0  0  0  0  0  0  0  0
   26.3865  -20.9794  -10.7654 C   0  0  0  0  0  0  0  0  0  0  0  0
   24.9635  -20.7416  -10.2514 C   0  0  0  0  0  0  0  0  0  0  0  0
   24.1382  -21.0965  -11.4676 C   0  0  1  0  0  0  0  0  0  0  0  0
   23.0246  -20.1227  -11.5391 C   0  0  0  0  0  0  0  0  0  0  0  0
   22.1477  -20.1525  -10.6495 O   0  0  0  0  0  0  0  0  0  0  0  0
   22.9281  -19.1914  -12.5510 O   0  0  0  0  0  0  0  0  0  0  0  0
  1  2  1  0
  2  3  2  0
  4  5  1  0
  4  2  1  0
  6  8  1  0
  6  5  1  0
  6  7  1  1
  8 13  1  0
  9  8  2  0
 10 11  1  0
 12 11  1  6
 12 14  1  0
 13 12  1  0
 14 15  2  0
 14 16  1  0
 16 20  1  0
 16 17  1  0
 17 18  1  0
 19 18  1  0
 20 21  1  6
 20 19  1  0
 21 23  1  0
 22 21  2  0
M  END
$$$$
