QSP.pdb
     RDKit          3D

 23 23  0  0  1  0  0  0  0  0999 V2000
   27.5819  -15.4983  -16.5582 N   0  0  0  0  0  0  0  0  0  0  0  0
   26.9672  -16.3655  -15.6222 C   0  0  0  0  0  0  0  0  0  0  0  0
   27.6841  -17.2216  -15.0488 O   0  0  0  0  0  0  0  0  0  0  0  0
   25.5388  -16.3111  -15.2920 C   0  0  0  0  0  0  0  0  0  0  0  0
   24.8231  -15.1712  -15.9670 C   0  0  0  0  0  0  0  0  0  0  0  0
   23.3989  -15.1671  -15.4557 C   0  0  2  0  0  0  0  0  0  0  0  0
   22.8004  -16.4426  -15.8013 N   0  0  0  0  0  0  0  0  0  0  0  0
   22.6092  -14.0293  -16.0032 C   0  0  0  0  0  0  0  0  0  0  0  0
   22.3445  -13.9756  -17.2320 O   0  0  0  0  0  0  0  0  0  0  0  0
   19.1002  -11.1839  -16.2750 O   0  0  0  0  0  0  0  0  0  0  0  0
   19.8753  -12.2341  -15.7787 C   0  0  0  0  0  0  0  0  0  0  0  0
   21.3457  -11.8610  -15.7328 C   0  0  2  0  0  0  0  0  0  0  0  0
   22.1231  -12.9678  -15.1896 N   0  0  0  0  0  0  0  0  0  0  0  0
   21.5131  -10.6330  -14.9586 C   0  0  0  0  0  0  0  0  0  0  0  0
   21.5730  -10.7119  -13.6868 O   0  0  0  0  0  0  0  0  0  0  0  0
   21.6062   -9.3869  -15.6242 N   0  0  0  0  0  0  0  0  0  0  0  0
   21.5176   -9.1095  -17.0350 C   0  0  0  0  0  0  0  0  0  0  0  0
   22.5523   -7.9802  -17.1849 C   0  0  0  0  0  0  0  0  0  0  0  0
   22.1401   -7.1033  -15.9988 C   0  0  0  0  0  0  0  0  0  0  0  0
   21.8355   -8.1429  -14.9440 C   0  0  1  0  0  0  0  0  0  0  0  0
   20.6405   -7.6769  -14.2036 C   0  0  0  0  0  0  0  0  0  0  0  0
   19.5448   -8.2340  -14.4277 O   0  0  0  0  0  0  0  0  0  0  0  0
   20.7015   -6.6541  -13.2813 O   0  0  0  0  0  0  0  0  0  0  0  0
  1  2  1  0
  2  3  2  0
  4  5  1  0
  4  2  1  0
  6  8  1  0
  6  5  1  0
  6  7  1  6
  8 13  1  0
  9  8  2  0
 10 11  1  0
 12 11  1  1
 12 14  1  0
 13 12  1  0
 14 15  2  0
 14 16  1  0
 16 20  1  0
 16 17  1  0
 17 18  1  0
 19 18  1  0
 20 21  1  6
 20 19  1  0
 21 23  1  0
 22 21  2  0
M  END
$$$$
