QSP.pdb
     RDKit          3D

 23 23  0  0  1  0  0  0  0  0999 V2000
   26.5450  -27.8262  -17.8502 N   0  0  0  0  0  0  0  0  0  0  0  0
   26.1196  -26.7685  -17.0097 C   0  0  0  0  0  0  0  0  0  0  0  0
   24.9572  -26.8179  -16.5384 O   0  0  0  0  0  0  0  0  0  0  0  0
   26.9689  -25.6230  -16.6650 C   0  0  0  0  0  0  0  0  0  0  0  0
   28.3718  -25.7512  -17.1967 C   0  0  0  0  0  0  0  0  0  0  0  0
   29.1217  -24.4992  -16.7967 C   0  0  2  0  0  0  0  0  0  0  0  0
   28.6111  -23.4022  -17.5969 N   0  0  0  0  0  0  0  0  0  0  0  0
   30.5943  -24.6513  -16.9582 C   0  0  0  0  0  0  0  0  0  0  0  0
   31.1456  -24.3541  -18.0494 O   0  0  0  0  0  0  0  0  0  0  0  0
   34.7522  -26.4602  -15.0587 O   0  0  0  0  0  0  0  0  0  0  0  0
   33.4702  -25.9475  -14.8502 C   0  0  0  0  0  0  0  0  0  0  0  0
   32.7941  -25.6006  -16.1640 C   0  0  2  0  0  0  0  0  0  0  0  0
   31.4377  -25.1283  -15.9160 N   0  0  0  0  0  0  0  0  0  0  0  0
   32.8236  -26.7630  -17.0491 C   0  0  0  0  0  0  0  0  0  0  0  0
   31.8687  -27.6065  -16.9875 O   0  0  0  0  0  0  0  0  0  0  0  0
   33.8997  -26.9338  -17.9531 N   0  0  0  0  0  0  0  0  0  0  0  0
   35.0249  -26.0660  -18.1897 C   0  0  0  0  0  0  0  0  0  0  0  0
   35.2134  -26.2254  -19.7087 C   0  0  0  0  0  0  0  0  0  0  0  0
   35.1296  -27.7511  -19.8131 C   0  0  0  0  0  0  0  0  0  0  0  0
   34.0204  -28.0620  -18.8337 C   0  0  1  0  0  0  0  0  0  0  0  0
   34.4057  -29.2986  -18.1156 C   0  0  0  0  0  0  0  0  0  0  0  0
   34.7263  -29.2139  -16.9109 O   0  0  0  0  0  0  0  0  0  0  0  0
   34.4209  -30.5311  -18.7330 O   0  0  0  0  0  0  0  0  0  0  0  0
  1  2  1  0
  2  3  2  0
  4  5  1  0
  4  2  1  0
  6  8  1  0
  6  5  1  0
  6  7  1  6
  8 13  1  0
  9  8  2  0
 10 11  1  0
 12 11  1  1
 12 14  1  0
 13 12  1  0
 14 15  2  0
 14 16  1  0
 16 20  1  0
 16 17  1  0
 17 18  1  0
 19 18  1  0
 20 21  1  1
 20 19  1  0
 21 23  1  0
 22 21  2  0
M  END
$$$$
