ERY.pdb
     RDKit          3D

 33 33  0  0  1  0  0  0  0  0999 V2000
   13.0659  -17.3151   18.3333 N   0  0  0  0  0  0  0  0  0  0  0  0
   11.9452  -17.6623   19.1574 C   0  0  1  0  0  0  0  0  0  0  0  0
   11.9674  -19.0169   19.7722 C   0  0  0  0  0  0  0  0  0  0  0  0
   13.2788  -19.6874   19.9096 C   0  0  0  0  0  0  0  0  0  0  0  0
   13.1790  -21.0266   20.4920 C   0  0  0  0  0  0  0  0  0  0  0  0
   13.9545  -21.9386   20.2127 O   0  0  0  0  0  0  0  0  0  0  0  0
   11.8263  -16.6055   20.2270 C   0  0  0  0  0  0  0  0  0  0  0  0
   12.8496  -16.0226   20.6086 O   0  0  0  0  0  0  0  0  0  0  0  0
   12.1402  -21.2708   21.4165 O   0  0  0  0  0  0  0  0  0  0  0  0
    7.0287  -15.1169   16.9442 N   0  0  0  0  0  0  0  0  0  0  0  0
    7.5123  -13.9971   17.6874 C   0  0  0  0  0  0  0  0  0  0  0  0
    7.6542  -12.8547   17.0731 N   0  0  0  0  0  0  0  0  0  0  0  0
    7.8106  -14.1847   19.0466 N   0  0  0  0  0  0  0  0  0  0  0  0
    7.6112  -15.4596   19.6550 C   0  0  0  0  0  0  0  0  0  0  0  0
    7.8691  -15.4586   21.1602 C   0  0  0  0  0  0  0  0  0  0  0  0
    9.0475  -14.5280   21.3769 C   0  0  0  0  0  0  0  0  0  0  0  0
   10.3182  -15.2608   21.7008 C   0  0  2  0  0  0  0  0  0  0  0  0
   10.5380  -16.3266   20.7496 N   0  0  0  0  0  0  0  0  0  0  0  0
   10.1663  -15.8231   23.0729 C   0  0  0  0  0  0  0  0  0  0  0  0
    9.7169  -16.9832   23.2689 O   0  0  0  0  0  0  0  0  0  0  0  0
    8.0682  -12.0376   17.5639 O   0  0  0  0  0  0  0  0  0  0  0  0
   10.7223  -16.5648   31.7508 C   0  0  0  0  0  0  0  0  0  0  0  0
   10.7708  -16.0624   30.4496 C   0  0  0  0  0  0  0  0  0  0  0  0
   10.2007  -14.8353   30.1279 C   0  0  0  0  0  0  0  0  0  0  0  0
   10.2549  -14.3539   28.8441 C   0  0  0  0  0  0  0  0  0  0  0  0
   10.8885  -15.1141   27.8766 C   0  0  0  0  0  0  0  0  0  0  0  0
   10.9355  -14.6008   26.4993 C   0  0  2  0  0  0  0  0  0  0  0  0
   10.3856  -15.6302   25.5595 N   0  0  0  0  0  0  0  0  0  0  0  0
   10.5265  -15.0598   24.2103 C   0  0  0  0  0  0  0  0  0  0  0  0
    8.9479  -15.9076   25.7805 O   0  0  0  0  0  0  0  0  0  0  0  0
    8.5219  -16.9924   26.5734 C   0  0  0  0  0  0  0  0  0  0  0  0
   11.4540  -16.3315   28.1970 C   0  0  0  0  0  0  0  0  0  0  0  0
   11.4054  -16.8271   29.4882 O   0  0  0  0  0  0  0  0  0  0  0  0
  2  3  1  0
  2  1  1  1
  3  4  1  0
  4  5  1  0
  5  6  2  0
  7  2  1  0
  7 18  1  0
  8  7  2  0
  9  5  1  0
 10 11  1  0
 11 12  2  0
 13 11  1  0
 13 14  1  0
 15 16  1  0
 15 14  1  0
 17 16  1  6
 17 18  1  0
 17 19  1  0
 19 20  2  0
 19 28  1  0
 22 21  1  0
 23 22  2  0
 24 23  1  0
 25 24  2  0
 25 31  1  0
 26 25  1  0
 27 26  1  6
 28 27  1  0
 29 30  1  0
 29 27  1  0
 31 32  2  0
 32 22  1  0
 33 29  2  0
M  END
$$$$
