ERY.pdb
     RDKit          3D

 33 33  0  0  1  0  0  0  0  0999 V2000
    9.7260  -18.6801   20.8203 N   0  0  0  0  0  0  0  0  0  0  0  0
   10.8338  -18.1549   21.5635 C   0  0  1  0  0  0  0  0  0  0  0  0
   12.1203  -18.0165   20.8291 C   0  0  0  0  0  0  0  0  0  0  0  0
   12.1300  -17.1732   19.6137 C   0  0  0  0  0  0  0  0  0  0  0  0
   13.4493  -17.0899   18.9852 C   0  0  0  0  0  0  0  0  0  0  0  0
   14.4597  -17.5868   19.4788 O   0  0  0  0  0  0  0  0  0  0  0  0
   10.4086  -16.8221   22.1273 C   0  0  0  0  0  0  0  0  0  0  0  0
   11.2024  -16.1929   22.8390 O   0  0  0  0  0  0  0  0  0  0  0  0
   13.5547  -16.4051   17.7550 O   0  0  0  0  0  0  0  0  0  0  0  0
    7.6951  -13.5188   15.5810 N   0  0  0  0  0  0  0  0  0  0  0  0
    7.5536  -14.0051   16.9165 C   0  0  0  0  0  0  0  0  0  0  0  0
    7.8811  -15.2428   17.1678 N   0  0  0  0  0  0  0  0  0  0  0  0
    7.0676  -13.1218   17.8938 N   0  0  0  0  0  0  0  0  0  0  0  0
    6.7918  -13.5924   19.2121 C   0  0  0  0  0  0  0  0  0  0  0  0
    8.0451  -14.0018   19.9828 C   0  0  0  0  0  0  0  0  0  0  0  0
    7.5526  -14.5698   21.3006 C   0  0  0  0  0  0  0  0  0  0  0  0
    8.6709  -15.0249   22.1944 C   0  0  2  0  0  0  0  0  0  0  0  0
    9.1097  -16.3481   21.8131 N   0  0  0  0  0  0  0  0  0  0  0  0
    8.1428  -15.0430   23.5882 C   0  0  0  0  0  0  0  0  0  0  0  0
    7.4497  -16.0004   24.0231 O   0  0  0  0  0  0  0  0  0  0  0  0
    7.7404  -15.6457   18.1154 O   0  0  0  0  0  0  0  0  0  0  0  0
   11.3351  -17.1160   30.0532 C   0  0  0  0  0  0  0  0  0  0  0  0
   10.7297  -16.1845   29.2083 C   0  0  0  0  0  0  0  0  0  0  0  0
   10.5299  -16.4565   27.8591 C   0  0  0  0  0  0  0  0  0  0  0  0
    9.9343  -15.5310   27.0396 C   0  0  0  0  0  0  0  0  0  0  0  0
    9.5364  -14.3220   27.5833 C   0  0  0  0  0  0  0  0  0  0  0  0
    8.9084  -13.3276   26.7004 C   0  0  2  0  0  0  0  0  0  0  0  0
    7.8740  -13.9952   25.8462 N   0  0  0  0  0  0  0  0  0  0  0  0
    8.4075  -13.9706   24.4748 C   0  0  0  0  0  0  0  0  0  0  0  0
    6.5793  -13.2767   25.8359 O   0  0  0  0  0  0  0  0  0  0  0  0
    5.6343  -13.4497   26.8674 C   0  0  0  0  0  0  0  0  0  0  0  0
    9.7352  -14.0533   28.9222 C   0  0  0  0  0  0  0  0  0  0  0  0
   10.3348  -14.9789   29.7581 O   0  0  0  0  0  0  0  0  0  0  0  0
  2  3  1  0
  2  1  1  6
  3  4  1  0
  4  5  1  0
  5  6  2  0
  7  2  1  0
  7 18  1  0
  8  7  2  0
  9  5  1  0
 10 11  1  0
 11 12  2  0
 13 11  1  0
 13 14  1  0
 15 16  1  0
 15 14  1  0
 17 16  1  6
 17 18  1  0
 17 19  1  0
 19 20  2  0
 19 28  1  0
 22 21  1  0
 23 22  2  0
 24 23  1  0
 25 24  2  0
 25 31  1  0
 26 25  1  0
 27 26  1  1
 28 27  1  0
 29 30  1  0
 29 27  1  0
 31 32  2  0
 32 22  1  0
 33 29  2  0
M  END
$$$$
