ERY.pdb
     RDKit          3D

 33 33  0  0  1  0  0  0  0  0999 V2000
   11.9589  -18.4042   18.9422 N   0  0  0  0  0  0  0  0  0  0  0  0
   10.7067  -17.8231   18.5547 C   0  0  1  0  0  0  0  0  0  0  0  0
   10.0575  -18.3919   17.3429 C   0  0  0  0  0  0  0  0  0  0  0  0
   10.3933  -19.7843   16.9733 C   0  0  0  0  0  0  0  0  0  0  0  0
    9.6898  -20.2441   15.7748 C   0  0  0  0  0  0  0  0  0  0  0  0
    9.1309  -19.4797   14.9908 O   0  0  0  0  0  0  0  0  0  0  0  0
    9.7776  -17.9205   19.7390 C   0  0  0  0  0  0  0  0  0  0  0  0
    8.6343  -17.4560   19.6421 O   0  0  0  0  0  0  0  0  0  0  0  0
    9.6585  -21.6318   15.5169 O   0  0  0  0  0  0  0  0  0  0  0  0
    9.5878  -20.1393   27.1425 N   0  0  0  0  0  0  0  0  0  0  0  0
    8.8965  -21.3837   27.0265 C   0  0  0  0  0  0  0  0  0  0  0  0
    8.2810  -21.8559   28.0756 N   0  0  0  0  0  0  0  0  0  0  0  0
    8.9148  -22.0370   25.7837 N   0  0  0  0  0  0  0  0  0  0  0  0
    9.6822  -21.5046   24.7052 C   0  0  0  0  0  0  0  0  0  0  0  0
    9.0091  -20.3238   24.0088 C   0  0  0  0  0  0  0  0  0  0  0  0
    9.9247  -19.9451   22.8600 C   0  0  0  0  0  0  0  0  0  0  0  0
    9.4022  -18.7907   22.0533 C   0  0  2  0  0  0  0  0  0  0  0  0
   10.2608  -18.5445   20.9170 N   0  0  0  0  0  0  0  0  0  0  0  0
    9.3840  -17.5988   22.9483 C   0  0  0  0  0  0  0  0  0  0  0  0
   10.4331  -16.9578   23.2216 O   0  0  0  0  0  0  0  0  0  0  0  0
    7.7691  -22.7590   28.0274 O   0  0  0  0  0  0  0  0  0  0  0  0
    6.3631  -10.6393   27.1940 C   0  0  0  0  0  0  0  0  0  0  0  0
    6.5118  -11.7530   26.3661 C   0  0  0  0  0  0  0  0  0  0  0  0
    5.5366  -12.7427   26.3054 C   0  0  0  0  0  0  0  0  0  0  0  0
    5.6964  -13.8330   25.4877 C   0  0  0  0  0  0  0  0  0  0  0  0
    6.8472  -13.9271   24.7246 C   0  0  0  0  0  0  0  0  0  0  0  0
    7.0208  -15.1021   23.8574 C   0  0  1  0  0  0  0  0  0  0  0  0
    8.1566  -15.9380   24.3639 N   0  0  0  0  0  0  0  0  0  0  0  0
    8.1718  -17.1472   23.5252 C   0  0  0  0  0  0  0  0  0  0  0  0
    7.9769  -16.3698   25.7689 O   0  0  0  0  0  0  0  0  0  0  0  0
    8.7242  -15.7941   26.8162 C   0  0  0  0  0  0  0  0  0  0  0  0
    7.8141  -12.9443   24.7855 C   0  0  0  0  0  0  0  0  0  0  0  0
    7.6639  -11.8405   25.6066 O   0  0  0  0  0  0  0  0  0  0  0  0
  2  3  1  0
  2  1  1  1
  3  4  1  0
  4  5  1  0
  5  6  2  0
  7  2  1  0
  7 18  1  0
  8  7  2  0
  9  5  1  0
 10 11  1  0
 11 12  2  0
 13 11  1  0
 13 14  1  0
 15 16  1  0
 15 14  1  0
 17 16  1  1
 17 18  1  0
 17 19  1  0
 19 20  2  0
 19 28  1  0
 22 21  1  0
 23 22  2  0
 24 23  1  0
 25 24  2  0
 25 31  1  0
 26 25  1  0
 27 26  1  6
 28 27  1  0
 29 30  1  0
 29 27  1  0
 31 32  2  0
 32 22  1  0
 33 29  2  0
M  END
$$$$
