ERY.pdb
     RDKit          3D

 33 33  0  0  1  0  0  0  0  0999 V2000
   11.1337  -16.4186   15.8921 N   0  0  0  0  0  0  0  0  0  0  0  0
   11.7716  -16.9457   17.0629 C   0  0  1  0  0  0  0  0  0  0  0  0
   13.0308  -16.2785   17.4904 C   0  0  0  0  0  0  0  0  0  0  0  0
   13.1192  -14.8107   17.3291 C   0  0  0  0  0  0  0  0  0  0  0  0
   14.4092  -14.2647   17.7540 C   0  0  0  0  0  0  0  0  0  0  0  0
   15.2039  -13.7399   16.9766 O   0  0  0  0  0  0  0  0  0  0  0  0
   10.7596  -16.9161   18.1810 C   0  0  0  0  0  0  0  0  0  0  0  0
    9.9398  -15.9895   18.2215 O   0  0  0  0  0  0  0  0  0  0  0  0
   14.7458  -14.3499   19.1225 O   0  0  0  0  0  0  0  0  0  0  0  0
    9.6109  -24.8015   20.5995 N   0  0  0  0  0  0  0  0  0  0  0  0
    9.6231  -24.0958   19.3577 C   0  0  0  0  0  0  0  0  0  0  0  0
   10.1150  -24.6914   18.3062 N   0  0  0  0  0  0  0  0  0  0  0  0
    9.1022  -22.7920   19.3331 N   0  0  0  0  0  0  0  0  0  0  0  0
    9.7182  -21.7593   20.1007 C   0  0  0  0  0  0  0  0  0  0  0  0
    8.9693  -20.4298   20.0376 C   0  0  0  0  0  0  0  0  0  0  0  0
    9.8285  -19.4353   20.7954 C   0  0  0  0  0  0  0  0  0  0  0  0
    9.8041  -18.0614   20.1884 C   0  0  2  0  0  0  0  0  0  0  0  0
   10.7947  -17.9591   19.1409 N   0  0  0  0  0  0  0  0  0  0  0  0
   10.1102  -17.0916   21.2782 C   0  0  0  0  0  0  0  0  0  0  0  0
   11.2911  -16.8648   21.6528 O   0  0  0  0  0  0  0  0  0  0  0  0
   10.2090  -24.1825   17.4050 O   0  0  0  0  0  0  0  0  0  0  0  0
    8.4317  -11.9742   17.9936 C   0  0  0  0  0  0  0  0  0  0  0  0
    8.4236  -12.5750   19.2533 C   0  0  0  0  0  0  0  0  0  0  0  0
    9.5160  -12.4743   20.1082 C   0  0  0  0  0  0  0  0  0  0  0  0
    9.4947  -13.0709   21.3437 C   0  0  0  0  0  0  0  0  0  0  0  0
    8.3641  -13.7742   21.7215 C   0  0  0  0  0  0  0  0  0  0  0  0
    8.3484  -14.4218   23.0417 C   0  0  2  0  0  0  0  0  0  0  0  0
    9.3722  -15.5154   23.0781 N   0  0  0  0  0  0  0  0  0  0  0  0
    9.0693  -16.3886   21.9329 C   0  0  0  0  0  0  0  0  0  0  0  0
    9.2942  -16.3417   24.3043 O   0  0  0  0  0  0  0  0  0  0  0  0
    9.7841  -15.8721   25.5397 C   0  0  0  0  0  0  0  0  0  0  0  0
    7.2808  -13.8733   20.8724 C   0  0  0  0  0  0  0  0  0  0  0  0
    7.2909  -13.2759   19.6242 O   0  0  0  0  0  0  0  0  0  0  0  0
  2  3  1  0
  2  1  1  6
  3  4  1  0
  4  5  1  0
  5  6  2  0
  7  2  1  0
  7 18  1  0
  8  7  2  0
  9  5  1  0
 10 11  1  0
 11 12  2  0
 13 11  1  0
 13 14  1  0
 15 16  1  0
 15 14  1  0
 17 16  1  1
 17 18  1  0
 17 19  1  0
 19 20  2  0
 19 28  1  0
 22 21  1  0
 23 22  2  0
 24 23  1  0
 25 24  2  0
 25 31  1  0
 26 25  1  0
 27 26  1  6
 28 27  1  0
 29 30  1  0
 29 27  1  0
 31 32  2  0
 32 22  1  0
 33 29  2  0
M  END
$$$$
