ERY.pdb
     RDKit          3D

 33 33  0  0  1  0  0  0  0  0999 V2000
    9.3130  -13.6727   18.1640 N   0  0  0  0  0  0  0  0  0  0  0  0
    9.8651  -14.8570   18.7541 C   0  0  1  0  0  0  0  0  0  0  0  0
   11.3257  -14.8393   19.0363 C   0  0  0  0  0  0  0  0  0  0  0  0
   12.1991  -14.1098   18.0910 C   0  0  0  0  0  0  0  0  0  0  0  0
   13.6187  -14.2017   18.4357 C   0  0  0  0  0  0  0  0  0  0  0  0
   14.0550  -13.9414   19.5552 O   0  0  0  0  0  0  0  0  0  0  0  0
    9.0923  -15.1338   20.0196 C   0  0  0  0  0  0  0  0  0  0  0  0
    8.5505  -14.1893   20.6084 O   0  0  0  0  0  0  0  0  0  0  0  0
   14.5197  -14.6096   17.4281 O   0  0  0  0  0  0  0  0  0  0  0  0
    6.1894  -22.9393   22.7153 N   0  0  0  0  0  0  0  0  0  0  0  0
    5.5657  -22.0488   23.6416 C   0  0  0  0  0  0  0  0  0  0  0  0
    4.5467  -22.4806   24.3328 N   0  0  0  0  0  0  0  0  0  0  0  0
    6.0842  -20.7494   23.7611 N   0  0  0  0  0  0  0  0  0  0  0  0
    6.8855  -20.1985   22.7172 C   0  0  0  0  0  0  0  0  0  0  0  0
    7.2320  -18.7269   22.9330 C   0  0  0  0  0  0  0  0  0  0  0  0
    7.9787  -18.2912   21.6863 C   0  0  0  0  0  0  0  0  0  0  0  0
    8.3099  -16.8259   21.6865 C   0  0  2  0  0  0  0  0  0  0  0  0
    9.0218  -16.4733   20.4792 N   0  0  0  0  0  0  0  0  0  0  0  0
    9.1656  -16.5667   22.8792 C   0  0  0  0  0  0  0  0  0  0  0  0
   10.3660  -16.9444   22.9296 O   0  0  0  0  0  0  0  0  0  0  0  0
    4.0215  -21.8386   24.9590 O   0  0  0  0  0  0  0  0  0  0  0  0
   11.2379  -14.5399   31.1195 C   0  0  0  0  0  0  0  0  0  0  0  0
   10.6019  -14.6126   29.8793 C   0  0  0  0  0  0  0  0  0  0  0  0
   10.7007  -13.5777   28.9555 C   0  0  0  0  0  0  0  0  0  0  0  0
   10.0693  -13.6621   27.7402 C   0  0  0  0  0  0  0  0  0  0  0  0
    9.3327  -14.7981   27.4526 C   0  0  0  0  0  0  0  0  0  0  0  0
    8.6481  -14.8811   26.1538 C   0  0  1  0  0  0  0  0  0  0  0  0
    9.4924  -15.6561   25.1884 N   0  0  0  0  0  0  0  0  0  0  0  0
    8.6474  -15.8804   24.0046 C   0  0  0  0  0  0  0  0  0  0  0  0
    9.8970  -16.9825   25.7076 O   0  0  0  0  0  0  0  0  0  0  0  0
    8.9776  -18.0467   25.8020 C   0  0  0  0  0  0  0  0  0  0  0  0
    9.2355  -15.8244   28.3700 C   0  0  0  0  0  0  0  0  0  0  0  0
    9.8678  -15.7503   29.5987 O   0  0  0  0  0  0  0  0  0  0  0  0
  2  3  1  0
  2  1  1  1
  3  4  1  0
  4  5  1  0
  5  6  2  0
  7  2  1  0
  7 18  1  0
  8  7  2  0
  9  5  1  0
 10 11  1  0
 11 12  2  0
 13 11  1  0
 13 14  1  0
 15 16  1  0
 15 14  1  0
 17 16  1  6
 17 18  1  0
 17 19  1  0
 19 20  2  0
 19 28  1  0
 22 21  1  0
 23 22  2  0
 24 23  1  0
 25 24  2  0
 25 31  1  0
 26 25  1  0
 27 26  1  6
 28 27  1  0
 29 30  1  0
 29 27  1  0
 31 32  2  0
 32 22  1  0
 33 29  2  0
M  END
$$$$
