ERY.pdb
     RDKit          3D

 33 33  0  0  1  0  0  0  0  0999 V2000
    7.3118  -21.2680   23.3769 N   0  0  0  0  0  0  0  0  0  0  0  0
    6.7483  -20.0391   23.8544 C   0  0  1  0  0  0  0  0  0  0  0  0
    6.5662  -19.9199   25.3262 C   0  0  0  0  0  0  0  0  0  0  0  0
    7.7369  -20.1953   26.1876 C   0  0  0  0  0  0  0  0  0  0  0  0
    7.4531  -20.0190   27.6128 C   0  0  0  0  0  0  0  0  0  0  0  0
    6.3551  -19.6671   28.0392 O   0  0  0  0  0  0  0  0  0  0  0  0
    7.6150  -18.9156   23.3431 C   0  0  0  0  0  0  0  0  0  0  0  0
    8.8332  -19.1038   23.2298 O   0  0  0  0  0  0  0  0  0  0  0  0
    8.4961  -20.2677   28.5313 O   0  0  0  0  0  0  0  0  0  0  0  0
    8.2994  -14.0064   17.9545 N   0  0  0  0  0  0  0  0  0  0  0  0
    8.2213  -12.7937   18.7050 C   0  0  0  0  0  0  0  0  0  0  0  0
    9.1663  -11.9063   18.5572 N   0  0  0  0  0  0  0  0  0  0  0  0
    7.1262  -12.6186   19.5664 N   0  0  0  0  0  0  0  0  0  0  0  0
    6.5800  -13.7346   20.2675 C   0  0  0  0  0  0  0  0  0  0  0  0
    7.6181  -14.5059   21.0796 C   0  0  0  0  0  0  0  0  0  0  0  0
    6.8510  -15.6003   21.7977 C   0  0  0  0  0  0  0  0  0  0  0  0
    7.7471  -16.5513   22.5388 C   0  0  2  0  0  0  0  0  0  0  0  0
    6.9891  -17.6868   23.0131 N   0  0  0  0  0  0  0  0  0  0  0  0
    8.3259  -15.8048   23.6920 C   0  0  0  0  0  0  0  0  0  0  0  0
    7.7486  -14.8031   24.1914 O   0  0  0  0  0  0  0  0  0  0  0  0
    9.1299  -11.0035   19.0706 O   0  0  0  0  0  0  0  0  0  0  0  0
    5.6773  -11.1277   26.3887 C   0  0  0  0  0  0  0  0  0  0  0  0
    6.5018  -12.2535   26.4153 C   0  0  0  0  0  0  0  0  0  0  0  0
    5.9723  -13.5332   26.5427 C   0  0  0  0  0  0  0  0  0  0  0  0
    6.7949  -14.6312   26.5685 C   0  0  0  0  0  0  0  0  0  0  0  0
    8.1616  -14.4389   26.4648 C   0  0  0  0  0  0  0  0  0  0  0  0
    9.0414  -15.6166   26.5037 C   0  0  2  0  0  0  0  0  0  0  0  0
   10.0908  -15.4963   25.4408 N   0  0  0  0  0  0  0  0  0  0  0  0
    9.5573  -16.2046   24.2664 C   0  0  0  0  0  0  0  0  0  0  0  0
   11.3691  -16.1447   25.8124 O   0  0  0  0  0  0  0  0  0  0  0  0
   11.8838  -17.2308   25.0759 C   0  0  0  0  0  0  0  0  0  0  0  0
    8.6858  -13.1687   26.3382 C   0  0  0  0  0  0  0  0  0  0  0  0
    7.8660  -12.0540   26.3111 O   0  0  0  0  0  0  0  0  0  0  0  0
  2  3  1  0
  2  1  1  1
  3  4  1  0
  4  5  1  0
  5  6  2  0
  7  2  1  0
  7 18  1  0
  8  7  2  0
  9  5  1  0
 10 11  1  0
 11 12  2  0
 13 11  1  0
 13 14  1  0
 15 16  1  0
 15 14  1  0
 17 16  1  1
 17 18  1  0
 17 19  1  0
 19 20  2  0
 19 28  1  0
 22 21  1  0
 23 22  2  0
 24 23  1  0
 25 24  2  0
 25 31  1  0
 26 25  1  0
 27 26  1  6
 28 27  1  0
 29 30  1  0
 29 27  1  0
 31 32  2  0
 32 22  1  0
 33 29  2  0
M  END
$$$$
