ERY.pdb
     RDKit          3D

 33 33  0  0  1  0  0  0  0  0999 V2000
   10.3110  -14.0129   17.7256 N   0  0  0  0  0  0  0  0  0  0  0  0
   11.1525  -14.8727   18.5055 C   0  0  1  0  0  0  0  0  0  0  0  0
   12.4872  -14.3331   18.8809 C   0  0  0  0  0  0  0  0  0  0  0  0
   13.3941  -15.2157   19.6470 C   0  0  0  0  0  0  0  0  0  0  0  0
   14.6354  -14.5516   20.0482 C   0  0  0  0  0  0  0  0  0  0  0  0
   14.6629  -13.5809   20.8021 O   0  0  0  0  0  0  0  0  0  0  0  0
   10.3801  -15.2611   19.7415 C   0  0  0  0  0  0  0  0  0  0  0  0
    9.6052  -14.4380   20.2460 O   0  0  0  0  0  0  0  0  0  0  0  0
   15.8514  -15.0581   19.5403 O   0  0  0  0  0  0  0  0  0  0  0  0
    6.7899  -22.1460   21.3074 N   0  0  0  0  0  0  0  0  0  0  0  0
    7.0083  -22.0465   19.8994 C   0  0  0  0  0  0  0  0  0  0  0  0
    6.1792  -22.6528   19.0949 N   0  0  0  0  0  0  0  0  0  0  0  0
    8.1087  -21.2976   19.4523 N   0  0  0  0  0  0  0  0  0  0  0  0
    8.9411  -20.6168   20.3900 C   0  0  0  0  0  0  0  0  0  0  0  0
    8.8815  -19.0964   20.2594 C   0  0  0  0  0  0  0  0  0  0  0  0
    9.7566  -18.5516   21.3725 C   0  0  0  0  0  0  0  0  0  0  0  0
    9.8085  -17.0504   21.3925 C   0  0  2  0  0  0  0  0  0  0  0  0
   10.5789  -16.5610   20.2719 N   0  0  0  0  0  0  0  0  0  0  0  0
   10.4562  -16.6479   22.6733 C   0  0  0  0  0  0  0  0  0  0  0  0
   11.6985  -16.7537   22.8509 O   0  0  0  0  0  0  0  0  0  0  0  0
    6.2559  -22.5314   18.0656 O   0  0  0  0  0  0  0  0  0  0  0  0
   11.1431  -14.7790   31.1607 C   0  0  0  0  0  0  0  0  0  0  0  0
   10.6602  -14.9217   29.8590 C   0  0  0  0  0  0  0  0  0  0  0  0
   10.1890  -16.1447   29.3938 C   0  0  0  0  0  0  0  0  0  0  0  0
    9.7180  -16.2709   28.1112 C   0  0  0  0  0  0  0  0  0  0  0  0
    9.7212  -15.1564   27.2905 C   0  0  0  0  0  0  0  0  0  0  0  0
    9.2261  -15.2972   25.9130 C   0  0  1  0  0  0  0  0  0  0  0  0
   10.3142  -15.8452   25.0406 N   0  0  0  0  0  0  0  0  0  0  0  0
    9.6841  -16.1290   23.7413 C   0  0  0  0  0  0  0  0  0  0  0  0
   10.8814  -17.1146   25.5500 O   0  0  0  0  0  0  0  0  0  0  0  0
   10.2023  -18.3395   25.3907 C   0  0  0  0  0  0  0  0  0  0  0  0
   10.1888  -13.9434   27.7533 C   0  0  0  0  0  0  0  0  0  0  0  0
   10.6663  -13.8042   29.0447 O   0  0  0  0  0  0  0  0  0  0  0  0
  2  3  1  0
  2  1  1  1
  3  4  1  0
  4  5  1  0
  5  6  2  0
  7  2  1  0
  7 18  1  0
  8  7  2  0
  9  5  1  0
 10 11  1  0
 11 12  2  0
 13 11  1  0
 13 14  1  0
 15 16  1  0
 15 14  1  0
 17 16  1  6
 17 18  1  0
 17 19  1  0
 19 20  2  0
 19 28  1  0
 22 21  1  0
 23 22  2  0
 24 23  1  0
 25 24  2  0
 25 31  1  0
 26 25  1  0
 27 26  1  6
 28 27  1  0
 29 30  1  0
 29 27  1  0
 31 32  2  0
 32 22  1  0
 33 29  2  0
M  END
$$$$
