FDN.pdb
     RDKit          3D

 28 28  0  0  1  0  0  0  0  0999 V2000
    6.0826  -17.1281   25.0884 N   0  0  0  0  0  0  0  0  0  0  0  0
    6.9267  -16.0360   24.6834 C   0  0  1  0  0  0  0  0  0  0  0  0
    7.4948  -15.4281   25.9487 C   0  0  0  0  0  0  0  0  0  0  0  0
    7.0269  -14.0032   25.9639 C   0  0  0  0  0  0  0  0  0  0  0  0
    5.9083  -13.6541   26.6904 C   0  0  0  0  0  0  0  0  0  0  0  0
    5.4351  -12.3412   26.7425 C   0  0  0  0  0  0  0  0  0  0  0  0
    6.1063  -11.3655   26.0474 C   0  0  0  0  0  0  0  0  0  0  0  0
    7.2248  -11.7163   25.3212 C   0  0  0  0  0  0  0  0  0  0  0  0
    7.6883  -13.0183   25.2736 C   0  0  0  0  0  0  0  0  0  0  0  0
    8.0611  -16.5217   23.8010 C   0  0  0  0  0  0  0  0  0  0  0  0
    8.4871  -17.6636   24.0292 O   0  0  0  0  0  0  0  0  0  0  0  0
    8.5919  -15.7269   22.7904 N   0  0  0  0  0  0  0  0  0  0  0  0
    9.7125  -15.9775   21.9720 C   0  0  1  0  0  0  0  0  0  0  0  0
    9.8241  -15.1917   20.6825 C   0  0  0  0  0  0  0  0  0  0  0  0
    8.9416  -15.6922   19.6029 C   0  0  0  0  0  0  0  0  0  0  0  0
    7.7134  -15.8234   19.6746 O   0  0  0  0  0  0  0  0  0  0  0  0
   10.9937  -16.1554   22.6263 C   0  0  0  0  0  0  0  0  0  0  0  0
   12.0280  -16.4148   21.9041 O   0  0  0  0  0  0  0  0  0  0  0  0
    9.5870  -16.0378   18.4098 O   0  0  0  0  0  0  0  0  0  0  0  0
   14.7815  -17.6258   25.7555 N   0  0  0  0  0  0  0  0  0  0  0  0
   13.5038  -17.8608   26.3998 C   0  0  0  0  0  0  0  0  0  0  0  0
   13.5813  -18.6086   27.4040 O   0  0  0  0  0  0  0  0  0  0  0  0
   12.2762  -17.2494   25.8719 C   0  0  0  0  0  0  0  0  0  0  0  0
   12.5526  -16.5062   24.5915 C   0  0  2  0  0  0  0  0  0  0  0  0
   11.2501  -16.0749   24.0131 N   0  0  0  0  0  0  0  0  0  0  0  0
   13.2611  -17.3285   23.5707 C   0  0  0  0  0  0  0  0  0  0  0  0
   12.8698  -18.3909   23.0731 O   0  0  0  0  0  0  0  0  0  0  0  0
   14.5088  -16.8665   23.1105 O   0  0  0  0  0  0  0  0  0  0  0  0
  2  1  1  1
  2  3  1  0
  2 10  1  0
  4  9  2  0
  4  3  1  0
  5  4  1  0
  6  7  1  0
  6  5  2  0
  7  8  2  0
  8  9  1  0
 10 11  2  0
 12 10  1  0
 12 13  1  0
 13 14  1  6
 14 15  1  0
 15 19  1  0
 15 16  2  0
 17 13  1  0
 17 18  2  0
 20 21  1  0
 21 23  1  0
 21 22  2  0
 24 23  1  1
 24 25  1  0
 25 17  1  0
 26 24  1  0
 26 28  1  0
 27 26  2  0
M  END
$$$$
