FDN.pdb
     RDKit          3D

 28 28  0  0  1  0  0  0  0  0999 V2000
    6.5150  -17.0781   25.5034 N   0  0  0  0  0  0  0  0  0  0  0  0
    7.3375  -16.0213   24.9783 C   0  0  1  0  0  0  0  0  0  0  0  0
    7.8986  -15.2699   26.1673 C   0  0  0  0  0  0  0  0  0  0  0  0
    7.2804  -13.9045   26.1174 C   0  0  0  0  0  0  0  0  0  0  0  0
    6.0504  -13.6843   26.7004 C   0  0  0  0  0  0  0  0  0  0  0  0
    5.4346  -12.4310   26.6871 C   0  0  0  0  0  0  0  0  0  0  0  0
    6.0753  -11.3829   26.0734 C   0  0  0  0  0  0  0  0  0  0  0  0
    7.3053  -11.6047   25.4907 C   0  0  0  0  0  0  0  0  0  0  0  0
    7.9098  -12.8484   25.5073 C   0  0  0  0  0  0  0  0  0  0  0  0
    8.4776  -16.5792   24.1474 C   0  0  0  0  0  0  0  0  0  0  0  0
    8.9244  -17.6825   24.4946 O   0  0  0  0  0  0  0  0  0  0  0  0
    8.9911  -15.8883   23.0548 N   0  0  0  0  0  0  0  0  0  0  0  0
   10.0157  -16.2808   22.1691 C   0  0  1  0  0  0  0  0  0  0  0  0
    9.8853  -15.8587   20.7208 C   0  0  0  0  0  0  0  0  0  0  0  0
   10.9645  -16.3801   19.8500 C   0  0  0  0  0  0  0  0  0  0  0  0
   11.2147  -17.5740   19.6439 O   0  0  0  0  0  0  0  0  0  0  0  0
   11.3815  -16.2047   22.6487 C   0  0  0  0  0  0  0  0  0  0  0  0
   12.3231  -16.6938   21.9187 O   0  0  0  0  0  0  0  0  0  0  0  0
   11.7512  -15.4088   19.2199 O   0  0  0  0  0  0  0  0  0  0  0  0
   13.5365  -18.9008   26.9579 N   0  0  0  0  0  0  0  0  0  0  0  0
   13.6258  -18.4090   25.5967 C   0  0  0  0  0  0  0  0  0  0  0  0
   14.7167  -18.6787   25.0391 O   0  0  0  0  0  0  0  0  0  0  0  0
   12.5069  -17.6723   24.9927 C   0  0  0  0  0  0  0  0  0  0  0  0
   12.9061  -16.2562   24.6707 C   0  0  2  0  0  0  0  0  0  0  0  0
   11.8166  -15.6367   23.8667 N   0  0  0  0  0  0  0  0  0  0  0  0
   14.1695  -16.1609   23.8866 C   0  0  0  0  0  0  0  0  0  0  0  0
   15.2330  -15.6479   24.2542 O   0  0  0  0  0  0  0  0  0  0  0  0
   14.1755  -16.7050   22.5881 O   0  0  0  0  0  0  0  0  0  0  0  0
  2  1  1  1
  2  3  1  0
  2 10  1  0
  4  9  2  0
  4  3  1  0
  5  4  1  0
  6  7  1  0
  6  5  2  0
  7  8  2  0
  8  9  1  0
 10 11  2  0
 12 10  1  0
 12 13  1  0
 13 14  1  6
 14 15  1  0
 15 19  1  0
 15 16  2  0
 17 13  1  0
 17 18  2  0
 20 21  1  0
 21 23  1  0
 21 22  2  0
 24 23  1  6
 24 25  1  0
 25 17  1  0
 26 24  1  0
 26 28  1  0
 27 26  2  0
M  END
$$$$
