FDN.pdb
     RDKit          3D

 28 28  0  0  1  0  0  0  0  0999 V2000
    6.0589  -16.3994   24.9409 N   0  0  0  0  0  0  0  0  0  0  0  0
    7.3055  -15.7353   24.6685 C   0  0  1  0  0  0  0  0  0  0  0  0
    7.7526  -15.0926   25.9647 C   0  0  0  0  0  0  0  0  0  0  0  0
    7.2033  -13.6972   25.9404 C   0  0  0  0  0  0  0  0  0  0  0  0
    6.1900  -13.3416   26.8053 C   0  0  0  0  0  0  0  0  0  0  0  0
    5.6482  -12.0546   26.8271 C   0  0  0  0  0  0  0  0  0  0  0  0
    6.1410  -11.1120   25.9586 C   0  0  0  0  0  0  0  0  0  0  0  0
    7.1543  -11.4693   25.0942 C   0  0  0  0  0  0  0  0  0  0  0  0
    7.6866  -12.7455   25.0776 C   0  0  0  0  0  0  0  0  0  0  0  0
    8.3589  -16.7225   24.2026 C   0  0  0  0  0  0  0  0  0  0  0  0
    8.3151  -17.8545   24.7068 O   0  0  0  0  0  0  0  0  0  0  0  0
    9.3203  -16.3739   23.2598 N   0  0  0  0  0  0  0  0  0  0  0  0
   10.5358  -17.0237   22.9622 C   0  0  1  0  0  0  0  0  0  0  0  0
   11.3049  -16.5433   21.7495 C   0  0  0  0  0  0  0  0  0  0  0  0
   10.5753  -16.7238   20.4728 C   0  0  0  0  0  0  0  0  0  0  0  0
    9.8235  -17.6665   20.1961 O   0  0  0  0  0  0  0  0  0  0  0  0
   11.4045  -17.3612   24.0725 C   0  0  0  0  0  0  0  0  0  0  0  0
   11.7986  -16.4210   24.8595 O   0  0  0  0  0  0  0  0  0  0  0  0
   10.7767  -15.7205   19.5178 O   0  0  0  0  0  0  0  0  0  0  0  0
   12.5001  -19.9493   28.3767 N   0  0  0  0  0  0  0  0  0  0  0  0
   11.2686  -19.2623   28.0387 C   0  0  0  0  0  0  0  0  0  0  0  0
   10.4746  -19.1571   29.0041 O   0  0  0  0  0  0  0  0  0  0  0  0
   11.0399  -18.7642   26.6752 C   0  0  0  0  0  0  0  0  0  0  0  0
   12.2441  -19.0080   25.8041 C   0  0  2  0  0  0  0  0  0  0  0  0
   11.8870  -18.6467   24.4044 N   0  0  0  0  0  0  0  0  0  0  0  0
   12.7033  -20.4255   25.8118 C   0  0  0  0  0  0  0  0  0  0  0  0
   12.2735  -21.3477   25.1089 O   0  0  0  0  0  0  0  0  0  0  0  0
   13.7334  -20.7738   26.7060 O   0  0  0  0  0  0  0  0  0  0  0  0
  2  1  1  1
  2  3  1  0
  2 10  1  0
  4  9  2  0
  4  3  1  0
  5  4  1  0
  6  7  1  0
  6  5  2  0
  7  8  2  0
  8  9  1  0
 10 11  2  0
 12 10  1  0
 12 13  1  0
 13 14  1  6
 14 15  1  0
 15 19  1  0
 15 16  2  0
 17 13  1  0
 17 18  2  0
 20 21  1  0
 21 23  1  0
 21 22  2  0
 24 23  1  1
 24 25  1  0
 25 17  1  0
 26 24  1  0
 26 28  1  0
 27 26  2  0
M  END
$$$$
