FDN.pdb
     RDKit          3D

 28 28  0  0  1  0  0  0  0  0999 V2000
    8.6542  -15.3222   25.7620 N   0  0  0  0  0  0  0  0  0  0  0  0
    7.9318  -15.9955   24.7161 C   0  0  1  0  0  0  0  0  0  0  0  0
    7.1636  -14.9326   23.9590 C   0  0  0  0  0  0  0  0  0  0  0  0
    6.9860  -13.7941   24.9189 C   0  0  0  0  0  0  0  0  0  0  0  0
    6.3645  -12.6352   24.5045 C   0  0  0  0  0  0  0  0  0  0  0  0
    6.1690  -11.5490   25.3603 C   0  0  0  0  0  0  0  0  0  0  0  0
    6.6101  -11.6381   26.6576 C   0  0  0  0  0  0  0  0  0  0  0  0
    7.2317  -12.7978   27.0706 C   0  0  0  0  0  0  0  0  0  0  0  0
    7.4223  -13.8699   26.2181 C   0  0  0  0  0  0  0  0  0  0  0  0
    8.8799  -16.7068   23.7692 C   0  0  0  0  0  0  0  0  0  0  0  0
    8.5045  -17.8062   23.3359 O   0  0  0  0  0  0  0  0  0  0  0  0
   10.1033  -16.1523   23.4076 N   0  0  0  0  0  0  0  0  0  0  0  0
   11.4002  -16.6468   23.6561 C   0  0  1  0  0  0  0  0  0  0  0  0
   12.5608  -15.9121   23.0188 C   0  0  0  0  0  0  0  0  0  0  0  0
   12.6388  -16.0844   21.5494 C   0  0  0  0  0  0  0  0  0  0  0  0
   13.2680  -15.3600   20.7683 O   0  0  0  0  0  0  0  0  0  0  0  0
   11.6995  -17.0968   25.0011 C   0  0  0  0  0  0  0  0  0  0  0  0
   12.8508  -17.6236   25.2370 O   0  0  0  0  0  0  0  0  0  0  0  0
   11.9264  -17.1728   21.0326 O   0  0  0  0  0  0  0  0  0  0  0  0
   10.5107  -14.0256   27.8104 N   0  0  0  0  0  0  0  0  0  0  0  0
   11.4314  -15.1209   28.0457 C   0  0  0  0  0  0  0  0  0  0  0  0
   12.6315  -14.8161   27.8445 O   0  0  0  0  0  0  0  0  0  0  0  0
   10.9356  -16.4355   28.4766 C   0  0  0  0  0  0  0  0  0  0  0  0
   11.2801  -17.4982   27.4665 C   0  0  2  0  0  0  0  0  0  0  0  0
   10.8456  -17.0229   26.1240 N   0  0  0  0  0  0  0  0  0  0  0  0
   10.6143  -18.8047   27.7312 C   0  0  0  0  0  0  0  0  0  0  0  0
   10.6608  -19.4616   28.7779 O   0  0  0  0  0  0  0  0  0  0  0  0
    9.8470  -19.3690   26.6945 O   0  0  0  0  0  0  0  0  0  0  0  0
  2  1  1  1
  2  3  1  0
  2 10  1  0
  4  9  2  0
  4  3  1  0
  5  4  1  0
  6  7  1  0
  6  5  2  0
  7  8  2  0
  8  9  1  0
 10 11  2  0
 12 10  1  0
 12 13  1  0
 13 14  1  1
 14 15  1  0
 15 19  1  0
 15 16  2  0
 17 13  1  0
 17 18  2  0
 20 21  1  0
 21 23  1  0
 21 22  2  0
 24 23  1  1
 24 25  1  0
 25 17  1  0
 26 24  1  0
 26 28  1  0
 27 26  2  0
M  END
$$$$
