FDN.pdb
     RDKit          3D

 28 28  0  0  1  0  0  0  0  0999 V2000
   10.1633  -15.9382   20.7654 N   0  0  0  0  0  0  0  0  0  0  0  0
    9.7869  -16.1204   22.1417 C   0  0  1  0  0  0  0  0  0  0  0  0
    8.2738  -16.0849   22.1912 C   0  0  0  0  0  0  0  0  0  0  0  0
    7.8818  -14.7092   21.7407 C   0  0  0  0  0  0  0  0  0  0  0  0
    7.4273  -14.5099   20.4543 C   0  0  0  0  0  0  0  0  0  0  0  0
    7.0441  -13.2507   19.9875 C   0  0  0  0  0  0  0  0  0  0  0  0
    7.1222  -12.1753   20.8380 C   0  0  0  0  0  0  0  0  0  0  0  0
    7.5770  -12.3763   22.1242 C   0  0  0  0  0  0  0  0  0  0  0  0
    7.9551  -13.6259   22.5803 C   0  0  0  0  0  0  0  0  0  0  0  0
   10.2800  -17.4543   22.6699 C   0  0  0  0  0  0  0  0  0  0  0  0
    9.5768  -17.9994   23.5335 O   0  0  0  0  0  0  0  0  0  0  0  0
   11.4577  -18.0326   22.2077 N   0  0  0  0  0  0  0  0  0  0  0  0
   12.2743  -18.9911   22.8422 C   0  0  1  0  0  0  0  0  0  0  0  0
   13.5580  -19.3863   22.1431 C   0  0  0  0  0  0  0  0  0  0  0  0
   13.5857  -19.0308   20.7052 C   0  0  0  0  0  0  0  0  0  0  0  0
   12.7982  -19.4403   19.8433 O   0  0  0  0  0  0  0  0  0  0  0  0
   12.4335  -18.8897   24.2795 C   0  0  0  0  0  0  0  0  0  0  0  0
   13.4862  -19.3939   24.8238 O   0  0  0  0  0  0  0  0  0  0  0  0
   14.6055  -18.1518   20.3222 O   0  0  0  0  0  0  0  0  0  0  0  0
   11.9408  -16.4863   29.5268 N   0  0  0  0  0  0  0  0  0  0  0  0
   11.0384  -17.3306   28.7680 C   0  0  0  0  0  0  0  0  0  0  0  0
   10.3589  -18.1048   29.4838 O   0  0  0  0  0  0  0  0  0  0  0  0
   10.9790  -17.2349   27.3028 C   0  0  0  0  0  0  0  0  0  0  0  0
   11.7423  -18.3619   26.6583 C   0  0  2  0  0  0  0  0  0  0  0  0
   11.5370  -18.2811   25.1858 N   0  0  0  0  0  0  0  0  0  0  0  0
   11.3019  -19.7111   27.1123 C   0  0  0  0  0  0  0  0  0  0  0  0
   11.7078  -20.3284   28.1040 O   0  0  0  0  0  0  0  0  0  0  0  0
   10.3221  -20.3707   26.3463 O   0  0  0  0  0  0  0  0  0  0  0  0
  2  1  1  6
  2  3  1  0
  2 10  1  0
  4  9  2  0
  4  3  1  0
  5  4  1  0
  6  7  1  0
  6  5  2  0
  7  8  2  0
  8  9  1  0
 10 11  2  0
 12 10  1  0
 12 13  1  0
 13 14  1  6
 14 15  1  0
 15 19  1  0
 15 16  2  0
 17 13  1  0
 17 18  2  0
 20 21  1  0
 21 23  1  0
 21 22  2  0
 24 23  1  1
 24 25  1  0
 25 17  1  0
 26 24  1  0
 26 28  1  0
 27 26  2  0
M  END
$$$$
