FDN.pdb
     RDKit          3D

 28 28  0  0  1  0  0  0  0  0999 V2000
    6.7511  -15.2143   23.0965 N   0  0  0  0  0  0  0  0  0  0  0  0
    7.9499  -15.2373   23.8911 C   0  0  1  0  0  0  0  0  0  0  0  0
    7.5147  -15.2893   25.3406 C   0  0  0  0  0  0  0  0  0  0  0  0
    7.1888  -13.8757   25.7210 C   0  0  0  0  0  0  0  0  0  0  0  0
    7.5253  -13.4049   26.9724 C   0  0  0  0  0  0  0  0  0  0  0  0
    7.2499  -12.0959   27.3735 C   0  0  0  0  0  0  0  0  0  0  0  0
    6.6234  -11.2494   26.4923 C   0  0  0  0  0  0  0  0  0  0  0  0
    6.2873  -11.7217   25.2411 C   0  0  0  0  0  0  0  0  0  0  0  0
    6.5628  -13.0193   24.8500 C   0  0  0  0  0  0  0  0  0  0  0  0
    8.7929  -16.4573   23.5710 C   0  0  0  0  0  0  0  0  0  0  0  0
    8.6383  -17.4429   24.3073 O   0  0  0  0  0  0  0  0  0  0  0  0
    9.6896  -16.4669   22.5076 N   0  0  0  0  0  0  0  0  0  0  0  0
   10.9967  -16.9940   22.4647 C   0  0  1  0  0  0  0  0  0  0  0  0
   11.5826  -17.2957   21.1015 C   0  0  0  0  0  0  0  0  0  0  0  0
   10.5839  -17.2763   20.0074 C   0  0  0  0  0  0  0  0  0  0  0  0
    9.8490  -18.2167   19.6818 O   0  0  0  0  0  0  0  0  0  0  0  0
   11.9744  -16.4364   23.3782 C   0  0  0  0  0  0  0  0  0  0  0  0
   13.0445  -15.9081   22.8941 O   0  0  0  0  0  0  0  0  0  0  0  0
   10.4894  -16.0719   19.3004 O   0  0  0  0  0  0  0  0  0  0  0  0
   12.2102  -18.9855   27.9544 N   0  0  0  0  0  0  0  0  0  0  0  0
   11.3074  -19.3454   26.8782 C   0  0  0  0  0  0  0  0  0  0  0  0
   10.5389  -20.2936   27.1676 O   0  0  0  0  0  0  0  0  0  0  0  0
   11.3453  -18.6254   25.5977 C   0  0  0  0  0  0  0  0  0  0  0  0
   12.3802  -17.5316   25.6256 C   0  0  2  0  0  0  0  0  0  0  0  0
   11.8881  -16.4034   24.7877 N   0  0  0  0  0  0  0  0  0  0  0  0
   13.7058  -17.9569   25.0944 C   0  0  0  0  0  0  0  0  0  0  0  0
   14.6635  -17.2245   24.8190 O   0  0  0  0  0  0  0  0  0  0  0  0
   13.9111  -19.3322   24.8748 O   0  0  0  0  0  0  0  0  0  0  0  0
  2  1  1  6
  2  3  1  0
  2 10  1  0
  4  9  2  0
  4  3  1  0
  5  4  1  0
  6  7  1  0
  6  5  2  0
  7  8  2  0
  8  9  1  0
 10 11  2  0
 12 10  1  0
 12 13  1  0
 13 14  1  6
 14 15  1  0
 15 19  1  0
 15 16  2  0
 17 13  1  0
 17 18  2  0
 20 21  1  0
 21 23  1  0
 21 22  2  0
 24 23  1  6
 24 25  1  0
 25 17  1  0
 26 24  1  0
 26 28  1  0
 27 26  2  0
M  END
$$$$
