AFR.pdb
     RDKit          3D

 28 28  0  0  1  0  0  0  0  0999 V2000
   28.3189  -19.8439  -13.8584 C   0  0  0  0  0  0  0  0  0  0  0  0
   28.9118  -21.0921  -13.2720 C   0  0  2  0  0  0  0  0  0  0  0  0
   28.6972  -22.2405  -14.0964 N   0  0  0  0  0  0  0  0  0  0  0  0
   28.3579  -21.2620  -11.8983 C   0  0  0  0  0  0  0  0  0  0  0  0
   27.2811  -21.8860  -11.7259 O   0  0  0  0  0  0  0  0  0  0  0  0
   28.9944  -20.7448  -10.7398 N   0  0  0  0  0  0  0  0  0  0  0  0
   28.4430  -20.8221   -9.4013 C   0  0  1  0  0  0  0  0  0  0  0  0
   29.3805  -20.3029   -8.3637 C   0  0  0  0  0  0  0  0  0  0  0  0
   28.8259  -20.2389   -7.0014 C   0  0  0  0  0  0  0  0  0  0  0  0
   29.0513  -21.2765   -6.1117 C   0  0  0  0  0  0  0  0  0  0  0  0
   28.5536  -21.2665   -4.8264 C   0  0  0  0  0  0  0  0  0  0  0  0
   27.7998  -20.2096   -4.3637 C   0  0  0  0  0  0  0  0  0  0  0  0
   27.5664  -19.1690   -5.2371 C   0  0  0  0  0  0  0  0  0  0  0  0
   28.0729  -19.1861   -6.5352 C   0  0  0  0  0  0  0  0  0  0  0  0
   27.1262  -20.1569   -9.4030 C   0  0  0  0  0  0  0  0  0  0  0  0
   26.9800  -19.0454   -9.9835 O   0  0  0  0  0  0  0  0  0  0  0  0
   21.2613  -20.5366  -14.8796 N   0  0  0  0  0  0  0  0  0  0  0  0
   20.5779  -19.9147  -13.8038 C   0  0  0  0  0  0  0  0  0  0  0  0
   19.3712  -19.4437  -13.9053 N   0  0  0  0  0  0  0  0  0  0  0  0
   21.2304  -19.7903  -12.5443 N   0  0  0  0  0  0  0  0  0  0  0  0
   22.5594  -20.3442  -12.2945 C   0  0  0  0  0  0  0  0  0  0  0  0
   22.9284  -20.0013  -10.8842 C   0  0  0  0  0  0  0  0  0  0  0  0
   24.2889  -20.4377  -10.4711 C   0  0  0  0  0  0  0  0  0  0  0  0
   24.6372  -20.1155   -9.0288 C   0  0  2  0  0  0  0  0  0  0  0  0
   25.9541  -20.6830   -8.7829 N   0  0  0  0  0  0  0  0  0  0  0  0
   23.6108  -20.6075   -8.0956 C   0  0  0  0  0  0  0  0  0  0  0  0
   23.9870  -21.4994   -7.1043 O   0  0  0  0  0  0  0  0  0  0  0  0
   22.4092  -20.2692   -8.1411 O   0  0  0  0  0  0  0  0  0  0  0  0
  2  1  1  6
  2  3  1  0
  4  5  2  0
  4  2  1  0
  6  4  1  0
  7  6  1  0
  7  8  1  1
  9 14  2  0
  9  8  1  0
 10  9  1  0
 11 12  1  0
 11 10  2  0
 12 13  2  0
 13 14  1  0
 15 16  2  0
 15  7  1  0
 17 18  1  0
 18 19  2  0
 20 21  1  0
 20 18  1  0
 21 22  1  0
 22 23  1  0
 24 23  1  6
 24 25  1  0
 25 15  1  0
 26 24  1  0
 27 26  1  0
 28 26  2  0
M  END
$$$$
