AFR.pdb
     RDKit          3D

 28 28  0  0  1  0  0  0  0  0999 V2000
   22.1856  -21.2404  -18.9835 C   0  0  0  0  0  0  0  0  0  0  0  0
   23.1441  -20.5361  -18.0678 C   0  0  2  0  0  0  0  0  0  0  0  0
   24.5103  -20.8077  -18.3904 N   0  0  0  0  0  0  0  0  0  0  0  0
   22.8010  -20.9124  -16.6667 C   0  0  0  0  0  0  0  0  0  0  0  0
   22.9082  -22.1066  -16.2909 O   0  0  0  0  0  0  0  0  0  0  0  0
   22.3472  -19.9732  -15.7040 N   0  0  0  0  0  0  0  0  0  0  0  0
   22.0797  -20.2912  -14.3151 C   0  0  1  0  0  0  0  0  0  0  0  0
   22.5302  -19.2168  -13.3835 C   0  0  0  0  0  0  0  0  0  0  0  0
   22.3014  -19.4959  -11.9562 C   0  0  0  0  0  0  0  0  0  0  0  0
   21.1422  -19.0530  -11.3403 C   0  0  0  0  0  0  0  0  0  0  0  0
   20.8805  -19.2864  -10.0074 C   0  0  0  0  0  0  0  0  0  0  0  0
   21.7724  -19.9798   -9.2181 C   0  0  0  0  0  0  0  0  0  0  0  0
   22.9310  -20.4273   -9.8161 C   0  0  0  0  0  0  0  0  0  0  0  0
   23.1887  -20.1875  -11.1645 C   0  0  0  0  0  0  0  0  0  0  0  0
   20.6509  -20.6345  -14.1848 C   0  0  0  0  0  0  0  0  0  0  0  0
   19.7783  -19.9479  -14.7855 O   0  0  0  0  0  0  0  0  0  0  0  0
   15.3202  -25.3859  -13.9619 N   0  0  0  0  0  0  0  0  0  0  0  0
   16.1419  -26.4667  -14.3718 C   0  0  0  0  0  0  0  0  0  0  0  0
   15.7806  -27.3339  -15.2694 N   0  0  0  0  0  0  0  0  0  0  0  0
   17.4277  -26.6259  -13.7813 N   0  0  0  0  0  0  0  0  0  0  0  0
   17.9457  -25.7009  -12.7754 C   0  0  0  0  0  0  0  0  0  0  0  0
   18.0746  -24.3587  -13.4270 C   0  0  0  0  0  0  0  0  0  0  0  0
   18.5672  -23.2760  -12.5341 C   0  0  0  0  0  0  0  0  0  0  0  0
   18.7213  -21.9272  -13.2142 C   0  0  2  0  0  0  0  0  0  0  0  0
   20.1482  -21.7213  -13.4094 N   0  0  0  0  0  0  0  0  0  0  0  0
   18.0805  -20.8497  -12.4429 C   0  0  0  0  0  0  0  0  0  0  0  0
   17.2071  -19.9947  -13.0953 O   0  0  0  0  0  0  0  0  0  0  0  0
   18.2764  -20.6544  -11.2247 O   0  0  0  0  0  0  0  0  0  0  0  0
  2  1  1  6
  2  3  1  0
  4  5  2  0
  4  2  1  0
  6  4  1  0
  7  6  1  0
  7  8  1  1
  9 14  2  0
  9  8  1  0
 10  9  1  0
 11 12  1  0
 11 10  2  0
 12 13  2  0
 13 14  1  0
 15 16  2  0
 15  7  1  0
 17 18  1  0
 18 19  2  0
 20 21  1  0
 20 18  1  0
 21 22  1  0
 22 23  1  0
 24 23  1  1
 24 25  1  0
 25 15  1  0
 26 24  1  0
 27 26  1  0
 28 26  2  0
M  END
$$$$
