AFR.pdb
     RDKit          3D

 28 28  0  0  1  0  0  0  0  0999 V2000
   20.2335  -21.6645  -13.2713 C   0  0  0  0  0  0  0  0  0  0  0  0
   21.1129  -20.9730  -12.2704 C   0  0  2  0  0  0  0  0  0  0  0  0
   20.3677  -20.3771  -11.2054 N   0  0  0  0  0  0  0  0  0  0  0  0
   21.9538  -19.9842  -13.0038 C   0  0  0  0  0  0  0  0  0  0  0  0
   21.5279  -18.8188  -13.2014 O   0  0  0  0  0  0  0  0  0  0  0  0
   23.2451  -20.2913  -13.5066 N   0  0  0  0  0  0  0  0  0  0  0  0
   24.0764  -19.3616  -14.2458 C   0  0  1  0  0  0  0  0  0  0  0  0
   25.5140  -19.7596  -14.2548 C   0  0  0  0  0  0  0  0  0  0  0  0
   26.4050  -18.8529  -14.9973 C   0  0  0  0  0  0  0  0  0  0  0  0
   26.6427  -17.5730  -14.5238 C   0  0  0  0  0  0  0  0  0  0  0  0
   27.4666  -16.6851  -15.1814 C   0  0  0  0  0  0  0  0  0  0  0  0
   28.0988  -17.0362  -16.3545 C   0  0  0  0  0  0  0  0  0  0  0  0
   27.8724  -18.3067  -16.8391 C   0  0  0  0  0  0  0  0  0  0  0  0
   27.0380  -19.1990  -16.1687 C   0  0  0  0  0  0  0  0  0  0  0  0
   23.4960  -19.1891  -15.5911 C   0  0  0  0  0  0  0  0  0  0  0  0
   22.6269  -20.0012  -16.0137 O   0  0  0  0  0  0  0  0  0  0  0  0
   17.0140  -19.2703  -17.2196 N   0  0  0  0  0  0  0  0  0  0  0  0
   17.8376  -19.6789  -16.1398 C   0  0  0  0  0  0  0  0  0  0  0  0
   17.5896  -20.7275  -15.4136 N   0  0  0  0  0  0  0  0  0  0  0  0
   18.9957  -18.9147  -15.8204 N   0  0  0  0  0  0  0  0  0  0  0  0
   19.2817  -17.6280  -16.4516 C   0  0  0  0  0  0  0  0  0  0  0  0
   20.4466  -17.8304  -17.3706 C   0  0  0  0  0  0  0  0  0  0  0  0
   21.7082  -17.1752  -16.9330 C   0  0  0  0  0  0  0  0  0  0  0  0
   22.9614  -17.7394  -17.5783 C   0  0  2  0  0  0  0  0  0  0  0  0
   23.8433  -18.1395  -16.4925 N   0  0  0  0  0  0  0  0  0  0  0  0
   23.5810  -16.7764  -18.5031 C   0  0  0  0  0  0  0  0  0  0  0  0
   24.8751  -16.3511  -18.2506 O   0  0  0  0  0  0  0  0  0  0  0  0
   23.0082  -16.3126  -19.5118 O   0  0  0  0  0  0  0  0  0  0  0  0
  2  1  1  6
  2  3  1  0
  4  5  2  0
  4  2  1  0
  6  4  1  0
  7  6  1  0
  7  8  1  6
  9 14  2  0
  9  8  1  0
 10  9  1  0
 11 12  1  0
 11 10  2  0
 12 13  2  0
 13 14  1  0
 15 16  2  0
 15  7  1  0
 17 18  1  0
 18 19  2  0
 20 21  1  0
 20 18  1  0
 21 22  1  0
 22 23  1  0
 24 23  1  1
 24 25  1  0
 25 15  1  0
 26 24  1  0
 27 26  1  0
 28 26  2  0
M  END
$$$$
