AFR.pdb
     RDKit          3D

 28 28  0  0  1  0  0  0  0  0999 V2000
   30.0870  -20.7469  -13.3717 C   0  0  0  0  0  0  0  0  0  0  0  0
   30.7364  -21.6330  -12.3487 C   0  0  2  0  0  0  0  0  0  0  0  0
   31.0295  -22.9360  -12.8592 N   0  0  0  0  0  0  0  0  0  0  0  0
   29.8523  -21.6738  -11.1490 C   0  0  0  0  0  0  0  0  0  0  0  0
   28.9609  -22.5540  -11.0530 O   0  0  0  0  0  0  0  0  0  0  0  0
   29.9617  -20.7494  -10.0775 N   0  0  0  0  0  0  0  0  0  0  0  0
   29.1206  -20.7639   -8.8967 C   0  0  1  0  0  0  0  0  0  0  0  0
   29.7988  -20.1825   -7.7021 C   0  0  0  0  0  0  0  0  0  0  0  0
   28.9597  -20.0878   -6.4961 C   0  0  0  0  0  0  0  0  0  0  0  0
   29.0055  -21.0886   -5.5394 C   0  0  0  0  0  0  0  0  0  0  0  0
   28.2397  -21.0489   -4.3941 C   0  0  0  0  0  0  0  0  0  0  0  0
   27.3834  -19.9977   -4.1470 C   0  0  0  0  0  0  0  0  0  0  0  0
   27.3262  -18.9935   -5.0896 C   0  0  0  0  0  0  0  0  0  0  0  0
   28.1035  -19.0406   -6.2453 C   0  0  0  0  0  0  0  0  0  0  0  0
   27.8396  -20.1134   -9.2318 C   0  0  0  0  0  0  0  0  0  0  0  0
   27.8308  -19.0332   -9.8851 O   0  0  0  0  0  0  0  0  0  0  0  0
   24.0341  -23.9230  -14.4124 N   0  0  0  0  0  0  0  0  0  0  0  0
   23.3563  -22.7180  -14.0962 C   0  0  0  0  0  0  0  0  0  0  0  0
   22.1402  -22.4652  -14.4776 N   0  0  0  0  0  0  0  0  0  0  0  0
   24.0254  -21.7253  -13.3254 N   0  0  0  0  0  0  0  0  0  0  0  0
   25.3753  -21.9213  -12.8009 C   0  0  0  0  0  0  0  0  0  0  0  0
   25.3172  -21.6942  -11.3218 C   0  0  0  0  0  0  0  0  0  0  0  0
   25.3699  -20.2669  -10.9067 C   0  0  0  0  0  0  0  0  0  0  0  0
   25.3290  -20.0514   -9.4043 C   0  0  2  0  0  0  0  0  0  0  0  0
   26.5565  -20.6208   -8.8697 N   0  0  0  0  0  0  0  0  0  0  0  0
   24.1143  -20.6248   -8.8027 C   0  0  0  0  0  0  0  0  0  0  0  0
   22.8811  -20.1311   -9.1967 O   0  0  0  0  0  0  0  0  0  0  0  0
   24.1241  -21.5375   -7.9498 O   0  0  0  0  0  0  0  0  0  0  0  0
  2  1  1  6
  2  3  1  0
  4  5  2  0
  4  2  1  0
  6  4  1  0
  7  6  1  0
  7  8  1  1
  9 14  2  0
  9  8  1  0
 10  9  1  0
 11 12  1  0
 11 10  2  0
 12 13  2  0
 13 14  1  0
 15 16  2  0
 15  7  1  0
 17 18  1  0
 18 19  2  0
 20 21  1  0
 20 18  1  0
 21 22  1  0
 22 23  1  0
 24 23  1  6
 24 25  1  0
 25 15  1  0
 26 24  1  0
 27 26  1  0
 28 26  2  0
M  END
$$$$
