AFR.pdb
     RDKit          3D

 28 28  0  0  1  0  0  0  0  0999 V2000
   27.6085  -20.0670  -13.5117 C   0  0  0  0  0  0  0  0  0  0  0  0
   28.5707  -21.0304  -12.8797 C   0  0  2  0  0  0  0  0  0  0  0  0
   28.6723  -22.2586  -13.6048 N   0  0  0  0  0  0  0  0  0  0  0  0
   28.1523  -21.2347  -11.4635 C   0  0  0  0  0  0  0  0  0  0  0  0
   27.4168  -22.2064  -11.1578 O   0  0  0  0  0  0  0  0  0  0  0  0
   28.5477  -20.3705  -10.4093 N   0  0  0  0  0  0  0  0  0  0  0  0
   28.1470  -20.5331   -9.0255 C   0  0  1  0  0  0  0  0  0  0  0  0
   29.0461  -19.8111   -8.0792 C   0  0  0  0  0  0  0  0  0  0  0  0
   28.5997  -19.8105   -6.6763 C   0  0  0  0  0  0  0  0  0  0  0  0
   28.9824  -20.8354   -5.8265 C   0  0  0  0  0  0  0  0  0  0  0  0
   28.5909  -20.8828   -4.5059 C   0  0  0  0  0  0  0  0  0  0  0  0
   27.7908  -19.8995   -3.9654 C   0  0  0  0  0  0  0  0  0  0  0  0
   27.4011  -18.8724   -4.7982 C   0  0  0  0  0  0  0  0  0  0  0  0
   27.8010  -18.8312   -6.1325 C   0  0  0  0  0  0  0  0  0  0  0  0
   26.7262  -20.1538   -8.9065 C   0  0  0  0  0  0  0  0  0  0  0  0
   26.3277  -19.0450   -9.3596 O   0  0  0  0  0  0  0  0  0  0  0  0
   21.5978  -21.1319  -14.7319 N   0  0  0  0  0  0  0  0  0  0  0  0
   21.2240  -20.0610  -13.8807 C   0  0  0  0  0  0  0  0  0  0  0  0
   20.5446  -19.0316  -14.2896 N   0  0  0  0  0  0  0  0  0  0  0  0
   21.6038  -20.0976  -12.5089 N   0  0  0  0  0  0  0  0  0  0  0  0
   22.4788  -21.1354  -11.9676 C   0  0  0  0  0  0  0  0  0  0  0  0
   22.7056  -20.8189  -10.5216 C   0  0  0  0  0  0  0  0  0  0  0  0
   24.1062  -21.0007  -10.0550 C   0  0  0  0  0  0  0  0  0  0  0  0
   24.3060  -20.7584   -8.5695 C   0  0  2  0  0  0  0  0  0  0  0  0
   25.7210  -20.9654   -8.3018 N   0  0  0  0  0  0  0  0  0  0  0  0
   23.4305  -21.6150   -7.7533 C   0  0  0  0  0  0  0  0  0  0  0  0
   23.9374  -22.8077   -7.2632 O   0  0  0  0  0  0  0  0  0  0  0  0
   22.2467  -21.3327   -7.4717 O   0  0  0  0  0  0  0  0  0  0  0  0
  2  1  1  6
  2  3  1  0
  4  5  2  0
  4  2  1  0
  6  4  1  0
  7  6  1  0
  7  8  1  1
  9 14  2  0
  9  8  1  0
 10  9  1  0
 11 12  1  0
 11 10  2  0
 12 13  2  0
 13 14  1  0
 15 16  2  0
 15  7  1  0
 17 18  1  0
 18 19  2  0
 20 21  1  0
 20 18  1  0
 21 22  1  0
 22 23  1  0
 24 23  1  6
 24 25  1  0
 25 15  1  0
 26 24  1  0
 27 26  1  0
 28 26  2  0
M  END
$$$$
