AFR.pdb
     RDKit          3D

 28 28  0  0  1  0  0  0  0  0999 V2000
   24.2314  -22.9173  -15.8738 C   0  0  0  0  0  0  0  0  0  0  0  0
   25.6436  -22.9417  -15.3653 C   0  0  2  0  0  0  0  0  0  0  0  0
   26.3490  -24.1203  -15.7628 N   0  0  0  0  0  0  0  0  0  0  0  0
   25.6015  -22.7717  -13.8848 C   0  0  0  0  0  0  0  0  0  0  0  0
   25.2338  -23.7235  -13.1516 O   0  0  0  0  0  0  0  0  0  0  0  0
   25.9630  -21.5622  -13.2359 N   0  0  0  0  0  0  0  0  0  0  0  0
   25.9315  -21.3642  -11.8001 C   0  0  1  0  0  0  0  0  0  0  0  0
   26.9194  -20.3459  -11.3396 C   0  0  0  0  0  0  0  0  0  0  0  0
   26.9692  -20.1431   -9.8823 C   0  0  0  0  0  0  0  0  0  0  0  0
   26.0833  -19.2695   -9.2732 C   0  0  0  0  0  0  0  0  0  0  0  0
   26.0890  -19.0429   -7.9137 C   0  0  0  0  0  0  0  0  0  0  0  0
   26.9882  -19.6840   -7.0894 C   0  0  0  0  0  0  0  0  0  0  0  0
   27.8768  -20.5567   -7.6802 C   0  0  0  0  0  0  0  0  0  0  0  0
   27.8651  -20.7808   -9.0556 C   0  0  0  0  0  0  0  0  0  0  0  0
   24.5415  -21.0703  -11.4028 C   0  0  0  0  0  0  0  0  0  0  0  0
   23.7903  -20.4090  -12.1722 O   0  0  0  0  0  0  0  0  0  0  0  0
   19.0835  -25.0002   -8.1999 N   0  0  0  0  0  0  0  0  0  0  0  0
   18.3824  -24.0645   -7.3974 C   0  0  0  0  0  0  0  0  0  0  0  0
   17.1035  -24.1331   -7.1783 N   0  0  0  0  0  0  0  0  0  0  0  0
   19.0976  -22.9905   -6.7955 N   0  0  0  0  0  0  0  0  0  0  0  0
   20.5455  -22.8436   -6.9293 C   0  0  0  0  0  0  0  0  0  0  0  0
   20.8110  -22.2413   -8.2744 C   0  0  0  0  0  0  0  0  0  0  0  0
   22.2491  -22.0361   -8.5937 C   0  0  0  0  0  0  0  0  0  0  0  0
   22.5059  -21.4547   -9.9726 C   0  0  2  0  0  0  0  0  0  0  0  0
   23.9462  -21.4879  -10.1755 N   0  0  0  0  0  0  0  0  0  0  0  0
   21.9319  -20.1066  -10.1131 C   0  0  0  0  0  0  0  0  0  0  0  0
   20.7548  -19.9570  -10.8283 O   0  0  0  0  0  0  0  0  0  0  0  0
   22.4441  -19.0776   -9.6239 O   0  0  0  0  0  0  0  0  0  0  0  0
  2  1  1  1
  2  3  1  0
  4  5  2  0
  4  2  1  0
  6  4  1  0
  7  6  1  0
  7  8  1  6
  9 14  2  0
  9  8  1  0
 10  9  1  0
 11 12  1  0
 11 10  2  0
 12 13  2  0
 13 14  1  0
 15 16  2  0
 15  7  1  0
 17 18  1  0
 18 19  2  0
 20 21  1  0
 20 18  1  0
 21 22  1  0
 22 23  1  0
 24 23  1  1
 24 25  1  0
 25 15  1  0
 26 24  1  0
 27 26  1  0
 28 26  2  0
M  END
$$$$
