AFR.pdb
     RDKit          3D

 28 28  0  0  1  0  0  0  0  0999 V2000
   26.6594  -20.1324  -17.0862 C   0  0  0  0  0  0  0  0  0  0  0  0
   27.9024  -20.7764  -16.5444 C   0  0  2  0  0  0  0  0  0  0  0  0
   28.2991  -21.9239  -17.2998 N   0  0  0  0  0  0  0  0  0  0  0  0
   27.6670  -21.0912  -15.1063 C   0  0  0  0  0  0  0  0  0  0  0  0
   27.0389  -22.1304  -14.7835 O   0  0  0  0  0  0  0  0  0  0  0  0
   28.1242  -20.2613  -14.0495 N   0  0  0  0  0  0  0  0  0  0  0  0
   27.8964  -20.5294  -12.6430 C   0  0  1  0  0  0  0  0  0  0  0  0
   28.8377  -19.7849  -11.7572 C   0  0  0  0  0  0  0  0  0  0  0  0
   28.5454  -19.8833  -10.3177 C   0  0  0  0  0  0  0  0  0  0  0  0
   29.1928  -20.8309   -9.5419 C   0  0  0  0  0  0  0  0  0  0  0  0
   28.9544  -20.9654   -8.1911 C   0  0  0  0  0  0  0  0  0  0  0  0
   28.0493  -20.1522   -7.5441 C   0  0  0  0  0  0  0  0  0  0  0  0
   27.3964  -19.2039   -8.3022 C   0  0  0  0  0  0  0  0  0  0  0  0
   27.6427  -19.0738   -9.6676 C   0  0  0  0  0  0  0  0  0  0  0  0
   26.4730  -20.2778  -12.3476 C   0  0  0  0  0  0  0  0  0  0  0  0
   25.8961  -19.2649  -12.8323 O   0  0  0  0  0  0  0  0  0  0  0  0
   19.1422  -23.2112  -15.0549 N   0  0  0  0  0  0  0  0  0  0  0  0
   18.7986  -22.2756  -14.0461 C   0  0  0  0  0  0  0  0  0  0  0  0
   17.5776  -21.8961  -13.8144 N   0  0  0  0  0  0  0  0  0  0  0  0
   19.8281  -21.7134  -13.2390 N   0  0  0  0  0  0  0  0  0  0  0  0
   21.2289  -22.1079  -13.3722 C   0  0  0  0  0  0  0  0  0  0  0  0
   22.0058  -21.3530  -12.3382 C   0  0  0  0  0  0  0  0  0  0  0  0
   23.4759  -21.5757  -12.3760 C   0  0  0  0  0  0  0  0  0  0  0  0
   24.2488  -20.8271  -11.3047 C   0  0  2  0  0  0  0  0  0  0  0  0
   25.6568  -21.1153  -11.5307 N   0  0  0  0  0  0  0  0  0  0  0  0
   23.7940  -21.1853   -9.9515 C   0  0  0  0  0  0  0  0  0  0  0  0
   24.6676  -21.8594   -9.1137 O   0  0  0  0  0  0  0  0  0  0  0  0
   22.6581  -20.9181   -9.5054 O   0  0  0  0  0  0  0  0  0  0  0  0
  2  1  1  6
  2  3  1  0
  4  5  2  0
  4  2  1  0
  6  4  1  0
  7  6  1  0
  7  8  1  1
  9 14  2  0
  9  8  1  0
 10  9  1  0
 11 12  1  0
 11 10  2  0
 12 13  2  0
 13 14  1  0
 15 16  2  0
 15  7  1  0
 17 18  1  0
 18 19  2  0
 20 21  1  0
 20 18  1  0
 21 22  1  0
 22 23  1  0
 24 23  1  6
 24 25  1  0
 25 15  1  0
 26 24  1  0
 27 26  1  0
 28 26  2  0
M  END
$$$$
