AFR.pdb
     RDKit          3D

 28 28  0  0  1  0  0  0  0  0999 V2000
   26.3901  -16.7898  -14.1308 C   0  0  0  0  0  0  0  0  0  0  0  0
   27.4956  -17.7986  -14.0137 C   0  0  2  0  0  0  0  0  0  0  0  0
   28.3757  -17.7805  -15.1404 N   0  0  0  0  0  0  0  0  0  0  0  0
   26.8751  -19.1361  -13.7934 C   0  0  0  0  0  0  0  0  0  0  0  0
   26.6044  -19.8741  -14.7736 O   0  0  0  0  0  0  0  0  0  0  0  0
   26.5631  -19.6395  -12.5035 N   0  0  0  0  0  0  0  0  0  0  0  0
   26.0968  -20.9873  -12.2431 C   0  0  1  0  0  0  0  0  0  0  0  0
   26.5560  -21.5083  -10.9229 C   0  0  0  0  0  0  0  0  0  0  0  0
   28.0138  -21.4851  -10.7189 C   0  0  0  0  0  0  0  0  0  0  0  0
   28.8605  -21.9457  -11.7138 C   0  0  0  0  0  0  0  0  0  0  0  0
   30.2315  -21.9472  -11.5725 C   0  0  0  0  0  0  0  0  0  0  0  0
   30.8283  -21.4843  -10.4198 C   0  0  0  0  0  0  0  0  0  0  0  0
   29.9993  -21.0225   -9.4199 C   0  0  0  0  0  0  0  0  0  0  0  0
   28.6139  -21.0241   -9.5700 C   0  0  0  0  0  0  0  0  0  0  0  0
   24.6323  -21.0134  -12.4189 C   0  0  0  0  0  0  0  0  0  0  0  0
   23.8823  -20.4760  -11.5573 O   0  0  0  0  0  0  0  0  0  0  0  0
   19.0243  -23.3615  -11.2596 N   0  0  0  0  0  0  0  0  0  0  0  0
   19.0153  -22.5491  -10.0971 C   0  0  0  0  0  0  0  0  0  0  0  0
   18.7332  -23.0048   -8.9135 N   0  0  0  0  0  0  0  0  0  0  0  0
   19.3267  -21.1647  -10.2136 N   0  0  0  0  0  0  0  0  0  0  0  0
   19.8723  -20.5867  -11.4400 C   0  0  0  0  0  0  0  0  0  0  0  0
   21.2997  -21.0276  -11.5449 C   0  0  0  0  0  0  0  0  0  0  0  0
   22.0441  -20.4625  -12.7019 C   0  0  0  0  0  0  0  0  0  0  0  0
   22.5224  -21.4987  -13.7033 C   0  0  2  0  0  0  0  0  0  0  0  0
   23.9617  -21.6151  -13.5248 N   0  0  0  0  0  0  0  0  0  0  0  0
   22.1357  -21.1483  -15.0795 C   0  0  0  0  0  0  0  0  0  0  0  0
   21.0575  -21.8022  -15.6535 O   0  0  0  0  0  0  0  0  0  0  0  0
   22.7242  -20.2902  -15.7708 O   0  0  0  0  0  0  0  0  0  0  0  0
  2  1  1  6
  2  3  1  0
  4  5  2  0
  4  2  1  0
  6  4  1  0
  7  6  1  0
  7  8  1  1
  9 14  2  0
  9  8  1  0
 10  9  1  0
 11 12  1  0
 11 10  2  0
 12 13  2  0
 13 14  1  0
 15 16  2  0
 15  7  1  0
 17 18  1  0
 18 19  2  0
 20 21  1  0
 20 18  1  0
 21 22  1  0
 22 23  1  0
 24 23  1  1
 24 25  1  0
 25 15  1  0
 26 24  1  0
 27 26  1  0
 28 26  2  0
M  END
$$$$
