SDW.pdb
     RDKit          3D

 29 30  0  0  1  0  0  0  0  0999 V2000
   28.8805  -22.2904  -13.6957 O   0  0  0  0  0  0  0  0  0  0  0  0
   28.3366  -21.8141  -14.9013 C   0  0  0  0  0  0  0  0  0  0  0  0
   28.0845  -20.3223  -14.8081 C   0  0  2  0  0  0  0  0  0  0  0  0
   29.3396  -19.6317  -14.4730 N   0  0  0  0  0  0  0  0  0  0  0  0
   27.1247  -19.9893  -13.7451 C   0  0  0  0  0  0  0  0  0  0  0  0
   27.3397  -19.0749  -12.8771 O   0  0  0  0  0  0  0  0  0  0  0  0
   25.8620  -20.6531  -13.5792 N   0  0  0  0  0  0  0  0  0  0  0  0
   24.8741  -20.2017  -12.6368 C   0  0  1  0  0  0  0  0  0  0  0  0
   23.4511  -20.4662  -13.0421 C   0  0  0  0  0  0  0  0  0  0  0  0
   23.0170  -19.4911  -14.0272 C   0  0  0  0  0  0  0  0  0  0  0  0
   21.8053  -19.4863  -14.3981 O   0  0  0  0  0  0  0  0  0  0  0  0
   25.0527  -20.8864  -11.3035 C   0  0  0  0  0  0  0  0  0  0  0  0
   25.1901  -22.1328  -11.2345 O   0  0  0  0  0  0  0  0  0  0  0  0
   23.8420  -18.5457  -14.6067 O   0  0  0  0  0  0  0  0  0  0  0  0
   25.0725  -20.1581  -10.0864 N   0  0  0  0  0  0  0  0  0  0  0  0
   24.9451  -20.7910   -8.7885 C   0  0  1  0  0  0  0  0  0  0  0  0
   25.5488  -19.9464   -7.6888 C   0  0  0  0  0  0  0  0  0  0  0  0
   27.0228  -20.1025   -7.6280 C   0  0  0  0  0  0  0  0  0  0  0  0
   27.8740  -20.3652   -8.6804 C   0  0  0  0  0  0  0  0  0  0  0  0
   29.1346  -20.4298   -8.2224 N   0  0  0  0  0  0  0  0  0  0  0  0
   29.1584  -20.2187   -6.8932 C   0  0  0  0  0  0  0  0  0  0  0  0
   30.1815  -20.1801   -5.9500 C   0  0  0  0  0  0  0  0  0  0  0  0
   29.8779  -19.9352   -4.6284 C   0  0  0  0  0  0  0  0  0  0  0  0
   28.5724  -19.7293   -4.2385 C   0  0  0  0  0  0  0  0  0  0  0  0
   27.5502  -19.7681   -5.1822 C   0  0  0  0  0  0  0  0  0  0  0  0
   27.8494  -20.0135   -6.5097 C   0  0  0  0  0  0  0  0  0  0  0  0
   23.5344  -21.1368   -8.5022 C   0  0  0  0  0  0  0  0  0  0  0  0
   23.1784  -22.0492   -7.5304 O   0  0  0  0  0  0  0  0  0  0  0  0
   22.6319  -20.5805   -9.1669 O   0  0  0  0  0  0  0  0  0  0  0  0
  2  1  1  0
  3  2  1  0
  3  4  1  1
  5  7  1  0
  5  3  1  0
  6  5  2  0
  8  9  1  6
  8  7  1  0
 10 14  1  0
 10  9  1  0
 11 10  2  0
 12  8  1  0
 12 13  2  0
 15 12  1  0
 16 15  1  0
 16 27  1  0
 16 17  1  1
 18 17  1  0
 19 18  2  0
 20 19  1  0
 21 26  2  0
 21 20  1  0
 22 21  1  0
 23 22  2  0
 23 24  1  0
 24 25  2  0
 25 26  1  0
 26 18  1  0
 27 29  2  0
 27 28  1  0
M  END
$$$$
