SDW.pdb
     RDKit          3D

 29 30  0  0  1  0  0  0  0  0999 V2000
   37.4898  -41.6414  -17.2757 O   0  0  0  0  0  0  0  0  0  0  0  0
   37.5044  -40.2852  -16.9057 C   0  0  0  0  0  0  0  0  0  0  0  0
   38.3660  -39.4902  -17.8665 C   0  0  2  0  0  0  0  0  0  0  0  0
   39.7835  -39.8088  -17.6344 N   0  0  0  0  0  0  0  0  0  0  0  0
   38.2230  -38.0403  -17.6670 C   0  0  0  0  0  0  0  0  0  0  0  0
   39.2204  -37.2654  -17.4660 O   0  0  0  0  0  0  0  0  0  0  0  0
   36.9592  -37.3584  -17.6784 N   0  0  0  0  0  0  0  0  0  0  0  0
   36.8592  -35.9242  -17.6496 C   0  0  1  0  0  0  0  0  0  0  0  0
   37.5702  -35.2213  -18.7719 C   0  0  0  0  0  0  0  0  0  0  0  0
   37.4911  -33.7816  -18.5967 C   0  0  0  0  0  0  0  0  0  0  0  0
   37.2676  -33.3121  -17.4411 O   0  0  0  0  0  0  0  0  0  0  0  0
   35.4179  -35.4853  -17.7414 C   0  0  0  0  0  0  0  0  0  0  0  0
   34.6940  -35.8528  -18.6995 O   0  0  0  0  0  0  0  0  0  0  0  0
   37.6434  -32.8611  -19.6164 O   0  0  0  0  0  0  0  0  0  0  0  0
   34.8277  -34.6486  -16.7596 N   0  0  0  0  0  0  0  0  0  0  0  0
   33.4338  -34.2525  -16.7981 C   0  0  1  0  0  0  0  0  0  0  0  0
   33.0843  -33.3131  -15.6657 C   0  0  0  0  0  0  0  0  0  0  0  0
   31.6304  -33.0198  -15.6293 C   0  0  0  0  0  0  0  0  0  0  0  0
   30.6338  -33.8238  -15.1182 C   0  0  0  0  0  0  0  0  0  0  0  0
   29.4502  -33.2072  -15.2666 N   0  0  0  0  0  0  0  0  0  0  0  0
   29.6194  -32.0121  -15.8623 C   0  0  0  0  0  0  0  0  0  0  0  0
   28.7414  -30.9999  -16.2399 C   0  0  0  0  0  0  0  0  0  0  0  0
   29.2340  -29.8655  -16.8477 C   0  0  0  0  0  0  0  0  0  0  0  0
   30.5850  -29.7296  -17.0821 C   0  0  0  0  0  0  0  0  0  0  0  0
   31.4620  -30.7420  -16.7042 C   0  0  0  0  0  0  0  0  0  0  0  0
   30.9730  -31.8824  -16.0939 C   0  0  0  0  0  0  0  0  0  0  0  0
   33.0810  -33.6777  -18.1158 C   0  0  0  0  0  0  0  0  0  0  0  0
   33.8935  -32.7758  -18.7717 O   0  0  0  0  0  0  0  0  0  0  0  0
   32.0055  -34.0230  -18.6542 O   0  0  0  0  0  0  0  0  0  0  0  0
  2  1  1  0
  3  2  1  0
  3  4  1  1
  5  7  1  0
  5  3  1  0
  6  5  2  0
  8  9  1  6
  8  7  1  0
 10 14  1  0
 10  9  1  0
 11 10  2  0
 12  8  1  0
 12 13  2  0
 15 12  1  0
 16 15  1  0
 16 27  1  0
 16 17  1  1
 18 17  1  0
 19 18  2  0
 20 19  1  0
 21 26  2  0
 21 20  1  0
 22 21  1  0
 23 22  2  0
 23 24  1  0
 24 25  2  0
 25 26  1  0
 26 18  1  0
 27 29  2  0
 27 28  1  0
M  END
$$$$
