SDW.pdb
     RDKit          3D

 29 30  0  0  1  0  0  0  0  0999 V2000
   17.5961   -7.9616  -20.8395 O   0  0  0  0  0  0  0  0  0  0  0  0
   17.5415   -6.7094  -21.4760 C   0  0  0  0  0  0  0  0  0  0  0  0
   18.7502   -6.5248  -22.3718 C   0  0  2  0  0  0  0  0  0  0  0  0
   18.7721   -7.5844  -23.3923 N   0  0  0  0  0  0  0  0  0  0  0  0
   20.0128   -6.6334  -21.6260 C   0  0  0  0  0  0  0  0  0  0  0  0
   21.0494   -7.2161  -22.0968 O   0  0  0  0  0  0  0  0  0  0  0  0
   20.2036   -6.0999  -20.3064 N   0  0  0  0  0  0  0  0  0  0  0  0
   21.4717   -6.1552  -19.6307 C   0  0  1  0  0  0  0  0  0  0  0  0
   22.2158   -4.8502  -19.5816 C   0  0  0  0  0  0  0  0  0  0  0  0
   23.5330   -5.0415  -19.0000 C   0  0  0  0  0  0  0  0  0  0  0  0
   23.7998   -4.5004  -17.8856 O   0  0  0  0  0  0  0  0  0  0  0  0
   21.2949   -6.5785  -18.1926 C   0  0  0  0  0  0  0  0  0  0  0  0
   20.4843   -5.9814  -17.4420 O   0  0  0  0  0  0  0  0  0  0  0  0
   24.5431   -5.7846  -19.5811 O   0  0  0  0  0  0  0  0  0  0  0  0
   22.0292   -7.6568  -17.6356 N   0  0  0  0  0  0  0  0  0  0  0  0
   21.7924   -8.1621  -16.2977 C   0  0  1  0  0  0  0  0  0  0  0  0
   22.1198   -9.6343  -16.1861 C   0  0  0  0  0  0  0  0  0  0  0  0
   23.5291   -9.8502  -15.7761 C   0  0  0  0  0  0  0  0  0  0  0  0
   23.9746  -10.4000  -14.5927 C   0  0  0  0  0  0  0  0  0  0  0  0
   25.3170  -10.4295  -14.5980 N   0  0  0  0  0  0  0  0  0  0  0  0
   25.7894   -9.9160  -15.7491 C   0  0  0  0  0  0  0  0  0  0  0  0
   27.0725   -9.7168  -16.2510 C   0  0  0  0  0  0  0  0  0  0  0  0
   27.2339   -9.1517  -17.4974 C   0  0  0  0  0  0  0  0  0  0  0  0
   26.1363   -8.7848  -18.2452 C   0  0  0  0  0  0  0  0  0  0  0  0
   24.8539   -8.9843  -17.7426 C   0  0  0  0  0  0  0  0  0  0  0  0
   24.6863   -9.5510  -16.4925 C   0  0  0  0  0  0  0  0  0  0  0  0
   22.5225   -7.3604  -15.2899 C   0  0  0  0  0  0  0  0  0  0  0  0
   23.4339   -6.3849  -15.6387 O   0  0  0  0  0  0  0  0  0  0  0  0
   22.3045   -7.5760  -14.0769 O   0  0  0  0  0  0  0  0  0  0  0  0
  2  1  1  0
  3  2  1  0
  3  4  1  6
  5  7  1  0
  5  3  1  0
  6  5  2  0
  8  9  1  1
  8  7  1  0
 10 14  1  0
 10  9  1  0
 11 10  2  0
 12  8  1  0
 12 13  2  0
 15 12  1  0
 16 15  1  0
 16 27  1  0
 16 17  1  6
 18 17  1  0
 19 18  2  0
 20 19  1  0
 21 26  2  0
 21 20  1  0
 22 21  1  0
 23 22  2  0
 23 24  1  0
 24 25  2  0
 25 26  1  0
 26 18  1  0
 27 29  2  0
 27 28  1  0
M  END
$$$$
