SDW.pdb
     RDKit          3D

 29 30  0  0  1  0  0  0  0  0999 V2000
   29.3757  -22.6761  -16.1604 O   0  0  0  0  0  0  0  0  0  0  0  0
   28.8981  -21.9565  -15.0512 C   0  0  0  0  0  0  0  0  0  0  0  0
   27.7526  -21.0548  -15.4664 C   0  0  2  0  0  0  0  0  0  0  0  0
   28.2815  -19.8948  -16.2007 N   0  0  0  0  0  0  0  0  0  0  0  0
   27.0214  -20.5211  -14.3077 C   0  0  0  0  0  0  0  0  0  0  0  0
   27.4586  -19.5514  -13.5974 O   0  0  0  0  0  0  0  0  0  0  0  0
   25.7549  -21.0325  -13.8640 N   0  0  0  0  0  0  0  0  0  0  0  0
   25.0854  -20.5220  -12.6982 C   0  0  1  0  0  0  0  0  0  0  0  0
   23.5852  -20.5983  -12.7506 C   0  0  0  0  0  0  0  0  0  0  0  0
   23.0491  -19.4836  -13.5120 C   0  0  0  0  0  0  0  0  0  0  0  0
   22.5452  -19.7021  -14.6540 O   0  0  0  0  0  0  0  0  0  0  0  0
   25.4905  -21.2942  -11.4662 C   0  0  0  0  0  0  0  0  0  0  0  0
   25.7086  -22.5295  -11.5248 O   0  0  0  0  0  0  0  0  0  0  0  0
   23.0459  -18.1712  -13.0786 O   0  0  0  0  0  0  0  0  0  0  0  0
   25.6401  -20.6631  -10.2046 N   0  0  0  0  0  0  0  0  0  0  0  0
   25.9897  -21.3876   -8.9988 C   0  0  1  0  0  0  0  0  0  0  0  0
   27.4520  -21.2256   -8.6487 C   0  0  0  0  0  0  0  0  0  0  0  0
   27.6673  -20.0917   -7.7166 C   0  0  0  0  0  0  0  0  0  0  0  0
   27.2057  -18.8004   -7.8594 C   0  0  0  0  0  0  0  0  0  0  0  0
   27.6053  -18.0701   -6.8058 N   0  0  0  0  0  0  0  0  0  0  0  0
   28.3223  -18.8305   -5.9575 C   0  0  0  0  0  0  0  0  0  0  0  0
   28.9543  -18.5725   -4.7443 C   0  0  0  0  0  0  0  0  0  0  0  0
   29.6280  -19.5875   -4.1002 C   0  0  0  0  0  0  0  0  0  0  0  0
   29.6785  -20.8503   -4.6492 C   0  0  0  0  0  0  0  0  0  0  0  0
   29.0464  -21.1073   -5.8622 C   0  0  0  0  0  0  0  0  0  0  0  0
   28.3689  -20.0924   -6.5127 C   0  0  0  0  0  0  0  0  0  0  0  0
   25.1104  -21.0005   -7.8725 C   0  0  0  0  0  0  0  0  0  0  0  0
   24.2034  -19.9648   -7.9635 O   0  0  0  0  0  0  0  0  0  0  0  0
   25.1935  -21.6368   -6.7983 O   0  0  0  0  0  0  0  0  0  0  0  0
  2  1  1  0
  3  2  1  0
  3  4  1  1
  5  7  1  0
  5  3  1  0
  6  5  2  0
  8  9  1  6
  8  7  1  0
 10 14  1  0
 10  9  1  0
 11 10  2  0
 12  8  1  0
 12 13  2  0
 15 12  1  0
 16 15  1  0
 16 27  1  0
 16 17  1  1
 18 17  1  0
 19 18  2  0
 20 19  1  0
 21 26  2  0
 21 20  1  0
 22 21  1  0
 23 22  2  0
 23 24  1  0
 24 25  2  0
 25 26  1  0
 26 18  1  0
 27 29  2  0
 27 28  1  0
M  END
$$$$
