SDW.pdb
     RDKit          3D

 29 30  0  0  1  0  0  0  0  0999 V2000
   27.3707  -23.5835  -18.0215 O   0  0  0  0  0  0  0  0  0  0  0  0
   28.4606  -22.8333  -18.4964 C   0  0  0  0  0  0  0  0  0  0  0  0
   29.4133  -22.5180  -17.3604 C   0  0  2  0  0  0  0  0  0  0  0  0
   29.9578  -23.7707  -16.8135 N   0  0  0  0  0  0  0  0  0  0  0  0
   28.7394  -21.8317  -16.2482 C   0  0  0  0  0  0  0  0  0  0  0  0
   29.0837  -21.9866  -15.0261 O   0  0  0  0  0  0  0  0  0  0  0  0
   27.6376  -20.9276  -16.4242 N   0  0  0  0  0  0  0  0  0  0  0  0
   27.1849  -20.0540  -15.3756 C   0  0  1  0  0  0  0  0  0  0  0  0
   26.5203  -18.7924  -15.8509 C   0  0  0  0  0  0  0  0  0  0  0  0
   26.0067  -18.0360  -14.7223 C   0  0  0  0  0  0  0  0  0  0  0  0
   24.9318  -17.3788  -14.8580 O   0  0  0  0  0  0  0  0  0  0  0  0
   26.1673  -20.7471  -14.5023 C   0  0  0  0  0  0  0  0  0  0  0  0
   25.1540  -21.2925  -15.0051 O   0  0  0  0  0  0  0  0  0  0  0  0
   26.6135  -17.9746  -13.4820 O   0  0  0  0  0  0  0  0  0  0  0  0
   26.3121  -20.8105  -13.0926 N   0  0  0  0  0  0  0  0  0  0  0  0
   25.5728  -21.7448  -12.2669 C   0  0  1  0  0  0  0  0  0  0  0  0
   26.3610  -22.1622  -11.0455 C   0  0  0  0  0  0  0  0  0  0  0  0
   26.3321  -21.1161   -9.9940 C   0  0  0  0  0  0  0  0  0  0  0  0
   25.3120  -20.2246   -9.7375 C   0  0  0  0  0  0  0  0  0  0  0  0
   25.6608  -19.4406   -8.7046 N   0  0  0  0  0  0  0  0  0  0  0  0
   26.8851  -19.7769   -8.2576 C   0  0  0  0  0  0  0  0  0  0  0  0
   27.6953  -19.2919   -7.2348 C   0  0  0  0  0  0  0  0  0  0  0  0
   28.9320  -19.8609   -7.0205 C   0  0  0  0  0  0  0  0  0  0  0  0
   29.3677  -20.9025   -7.8103 C   0  0  0  0  0  0  0  0  0  0  0  0
   28.5570  -21.3867   -8.8327 C   0  0  0  0  0  0  0  0  0  0  0  0
   27.3151  -20.8194   -9.0520 C   0  0  0  0  0  0  0  0  0  0  0  0
   24.2464  -21.1976  -11.9026 C   0  0  0  0  0  0  0  0  0  0  0  0
   23.2371  -21.9845  -11.3869 O   0  0  0  0  0  0  0  0  0  0  0  0
   24.0334  -19.9759  -12.0689 O   0  0  0  0  0  0  0  0  0  0  0  0
  2  1  1  0
  3  2  1  0
  3  4  1  1
  5  7  1  0
  5  3  1  0
  6  5  2  0
  8  9  1  6
  8  7  1  0
 10 14  1  0
 10  9  1  0
 11 10  2  0
 12  8  1  0
 12 13  2  0
 15 12  1  0
 16 15  1  0
 16 27  1  0
 16 17  1  1
 18 17  1  0
 19 18  2  0
 20 19  1  0
 21 26  2  0
 21 20  1  0
 22 21  1  0
 23 22  2  0
 23 24  1  0
 24 25  2  0
 25 26  1  0
 26 18  1  0
 27 29  2  0
 27 28  1  0
M  END
$$$$
