SDW.pdb
     RDKit          3D

 29 30  0  0  1  0  0  0  0  0999 V2000
   29.5036  -22.1497  -14.4118 O   0  0  0  0  0  0  0  0  0  0  0  0
   28.7766  -22.5509  -15.5461 C   0  0  0  0  0  0  0  0  0  0  0  0
   28.0381  -21.3678  -16.1396 C   0  0  2  0  0  0  0  0  0  0  0  0
   29.0077  -20.4162  -16.7045 N   0  0  0  0  0  0  0  0  0  0  0  0
   27.2683  -20.6316  -15.1260 C   0  0  0  0  0  0  0  0  0  0  0  0
   27.5154  -19.4161  -14.8140 O   0  0  0  0  0  0  0  0  0  0  0  0
   26.1725  -21.2011  -14.3930 N   0  0  0  0  0  0  0  0  0  0  0  0
   25.4127  -20.4446  -13.4347 C   0  0  1  0  0  0  0  0  0  0  0  0
   23.9222  -20.5203  -13.6130 C   0  0  0  0  0  0  0  0  0  0  0  0
   23.5160  -19.7748  -14.7916 C   0  0  0  0  0  0  0  0  0  0  0  0
   24.0660  -18.6597  -15.0360 O   0  0  0  0  0  0  0  0  0  0  0  0
   25.6812  -20.9329  -12.0319 C   0  0  0  0  0  0  0  0  0  0  0  0
   26.6812  -21.6501  -11.7815 O   0  0  0  0  0  0  0  0  0  0  0  0
   22.5528  -20.1960  -15.6888 O   0  0  0  0  0  0  0  0  0  0  0  0
   24.8243  -20.6052  -10.9500 N   0  0  0  0  0  0  0  0  0  0  0  0
   25.1157  -20.9687   -9.5774 C   0  0  1  0  0  0  0  0  0  0  0  0
   26.4709  -20.4625   -9.1367 C   0  0  0  0  0  0  0  0  0  0  0  0
   26.6734  -20.6446   -7.6783 C   0  0  0  0  0  0  0  0  0  0  0  0
   25.9000  -21.3974   -6.8203 C   0  0  0  0  0  0  0  0  0  0  0  0
   26.4085  -21.3142   -5.5804 N   0  0  0  0  0  0  0  0  0  0  0  0
   27.5011  -20.5280   -5.5770 C   0  0  0  0  0  0  0  0  0  0  0  0
   28.3819  -20.1204   -4.5791 C   0  0  0  0  0  0  0  0  0  0  0  0
   29.4332  -19.2890   -4.8993 C   0  0  0  0  0  0  0  0  0  0  0  0
   29.6153  -18.8616   -6.1966 C   0  0  0  0  0  0  0  0  0  0  0  0
   28.7341  -19.2696   -7.1936 C   0  0  0  0  0  0  0  0  0  0  0  0
   27.6776  -20.1039   -6.8777 C   0  0  0  0  0  0  0  0  0  0  0  0
   24.0392  -20.5158   -8.6678 C   0  0  0  0  0  0  0  0  0  0  0  0
   23.6771  -21.2227   -7.5395 O   0  0  0  0  0  0  0  0  0  0  0  0
   23.4355  -19.4524   -8.9328 O   0  0  0  0  0  0  0  0  0  0  0  0
  2  1  1  0
  3  2  1  0
  3  4  1  1
  5  7  1  0
  5  3  1  0
  6  5  2  0
  8  9  1  6
  8  7  1  0
 10 14  1  0
 10  9  1  0
 11 10  2  0
 12  8  1  0
 12 13  2  0
 15 12  1  0
 16 15  1  0
 16 27  1  0
 16 17  1  1
 18 17  1  0
 19 18  2  0
 20 19  1  0
 21 26  2  0
 21 20  1  0
 22 21  1  0
 23 22  2  0
 23 24  1  0
 24 25  2  0
 25 26  1  0
 26 18  1  0
 27 29  2  0
 27 28  1  0
M  END
$$$$
