DWF.pdb
     RDKit          3D

 34 36  0  0  1  0  0  0  0  0999 V2000
   10.3181  -18.6955   20.5521 N   0  0  0  0  0  0  0  0  0  0  0  0
   11.2543  -17.5668   20.5605 C   0  0  1  0  0  0  0  0  0  0  0  0
   11.3624  -17.0284   19.1901 C   0  0  0  0  0  0  0  0  0  0  0  0
   12.2207  -17.8133   18.2882 C   0  0  0  0  0  0  0  0  0  0  0  0
   12.7508  -18.8863   18.5975 O   0  0  0  0  0  0  0  0  0  0  0  0
   10.9800  -16.6592   21.6585 C   0  0  0  0  0  0  0  0  0  0  0  0
   11.8125  -15.6823   21.8008 O   0  0  0  0  0  0  0  0  0  0  0  0
   12.4442  -17.3164   17.0186 O   0  0  0  0  0  0  0  0  0  0  0  0
    9.9449  -16.6851   22.5976 N   0  0  0  0  0  0  0  0  0  0  0  0
    9.7536  -15.6736   23.6481 C   0  0  1  0  0  0  0  0  0  0  0  0
    8.3127  -15.4363   23.9173 C   0  0  0  0  0  0  0  0  0  0  0  0
    7.4654  -15.3457   22.7205 C   0  0  0  0  0  0  0  0  0  0  0  0
    6.5136  -16.1903   22.2111 C   0  0  0  0  0  0  0  0  0  0  0  0
    6.0127  -15.6463   21.0624 N   0  0  0  0  0  0  0  0  0  0  0  0
    6.6104  -14.4759   20.8112 C   0  0  0  0  0  0  0  0  0  0  0  0
    6.4684  -13.5534   19.7996 C   0  0  0  0  0  0  0  0  0  0  0  0
    7.2372  -12.4135   19.8039 C   0  0  0  0  0  0  0  0  0  0  0  0
    8.1665  -12.1607   20.8119 C   0  0  0  0  0  0  0  0  0  0  0  0
    8.2811  -13.1087   21.8092 C   0  0  0  0  0  0  0  0  0  0  0  0
    7.5240  -14.2756   21.8449 C   0  0  0  0  0  0  0  0  0  0  0  0
   10.3563  -16.2476   24.8782 C   0  0  0  0  0  0  0  0  0  0  0  0
   11.6113  -16.2106   25.0430 O   0  0  0  0  0  0  0  0  0  0  0  0
    9.5929  -16.8466   25.9025 N   0  0  0  0  0  0  0  0  0  0  0  0
   10.2071  -17.1599   27.2067 C   0  0  1  0  0  0  0  0  0  0  0  0
    9.3604  -16.4800   28.2517 C   0  0  0  0  0  0  0  0  0  0  0  0
    9.2729  -15.0276   28.0642 C   0  0  0  0  0  0  0  0  0  0  0  0
    8.0115  -14.5230   27.7341 C   0  0  0  0  0  0  0  0  0  0  0  0
    7.7724  -13.1878   27.5230 C   0  0  0  0  0  0  0  0  0  0  0  0
    8.8004  -12.2852   27.6347 C   0  0  0  0  0  0  0  0  0  0  0  0
   10.0505  -12.7636   27.9596 C   0  0  0  0  0  0  0  0  0  0  0  0
   10.2857  -14.1215   28.1727 C   0  0  0  0  0  0  0  0  0  0  0  0
   10.2167  -18.6283   27.3421 C   0  0  0  0  0  0  0  0  0  0  0  0
    9.6698  -19.4337   26.3726 O   0  0  0  0  0  0  0  0  0  0  0  0
   10.7283  -19.1567   28.3523 O   0  0  0  0  0  0  0  0  0  0  0  0
  2  1  1  6
  2  3  1  0
  3  4  1  0
  4  8  1  0
  5  4  2  0
  6  2  1  0
  6  7  2  0
  9  6  1  0
 10  9  1  0
 10 11  1  1
 11 12  1  0
 12 13  2  0
 12 20  1  0
 13 14  1  0
 14 15  1  0
 15 16  2  0
 16 17  1  0
 18 17  2  0
 19 18  1  0
 20 19  2  0
 20 15  1  0
 21 10  1  0
 22 21  2  0
 23 21  1  0
 24 25  1  1
 24 23  1  0
 25 26  1  0
 26 31  1  0
 27 26  2  0
 27 28  1  0
 28 29  2  0
 29 30  1  0
 31 30  2  0
 32 24  1  0
 33 32  1  0
 34 32  2  0
M  END
$$$$
