DWF.pdb
     RDKit          3D

 34 36  0  0  1  0  0  0  0  0999 V2000
    9.0020  -19.1648   19.4534 N   0  0  0  0  0  0  0  0  0  0  0  0
   10.0949  -19.0134   20.4193 C   0  0  1  0  0  0  0  0  0  0  0  0
   11.3374  -19.5358   19.8172 C   0  0  0  0  0  0  0  0  0  0  0  0
   11.2508  -20.9249   19.3384 C   0  0  0  0  0  0  0  0  0  0  0  0
   10.4550  -21.7608   19.7811 O   0  0  0  0  0  0  0  0  0  0  0  0
   10.0975  -17.6898   21.0131 C   0  0  0  0  0  0  0  0  0  0  0  0
   11.1948  -17.0204   20.8880 O   0  0  0  0  0  0  0  0  0  0  0  0
   12.1136  -21.3134   18.3318 O   0  0  0  0  0  0  0  0  0  0  0  0
    9.0851  -17.0252   21.7111 N   0  0  0  0  0  0  0  0  0  0  0  0
    9.1515  -15.6151   22.1244 C   0  0  1  0  0  0  0  0  0  0  0  0
    7.7974  -15.0133   22.2205 C   0  0  0  0  0  0  0  0  0  0  0  0
    7.1373  -15.1771   23.5227 C   0  0  0  0  0  0  0  0  0  0  0  0
    6.6113  -16.2786   24.1462 C   0  0  0  0  0  0  0  0  0  0  0  0
    6.1023  -15.8980   25.3555 N   0  0  0  0  0  0  0  0  0  0  0  0
    6.2816  -14.5843   25.5350 C   0  0  0  0  0  0  0  0  0  0  0  0
    5.9557  -13.7296   26.5635 C   0  0  0  0  0  0  0  0  0  0  0  0
    6.2737  -12.3954   26.4676 C   0  0  0  0  0  0  0  0  0  0  0  0
    6.9224  -11.8758   25.3485 C   0  0  0  0  0  0  0  0  0  0  0  0
    7.2329  -12.7631   24.3371 C   0  0  0  0  0  0  0  0  0  0  0  0
    6.9307  -14.1202   24.3918 C   0  0  0  0  0  0  0  0  0  0  0  0
    9.7438  -15.6193   23.4863 C   0  0  0  0  0  0  0  0  0  0  0  0
    9.8651  -14.5329   24.1254 O   0  0  0  0  0  0  0  0  0  0  0  0
   10.1899  -16.7937   24.1285 N   0  0  0  0  0  0  0  0  0  0  0  0
   10.6317  -16.7547   25.5355 C   0  0  1  0  0  0  0  0  0  0  0  0
    9.4354  -16.3290   26.3470 C   0  0  0  0  0  0  0  0  0  0  0  0
    9.7859  -15.4546   27.4716 C   0  0  0  0  0  0  0  0  0  0  0  0
    9.8500  -14.0861   27.1925 C   0  0  0  0  0  0  0  0  0  0  0  0
   10.1691  -13.1443   28.1389 C   0  0  0  0  0  0  0  0  0  0  0  0
   10.4424  -13.5363   29.4256 C   0  0  0  0  0  0  0  0  0  0  0  0
   10.3841  -14.8806   29.7198 C   0  0  0  0  0  0  0  0  0  0  0  0
   10.0589  -15.8315   28.7530 C   0  0  0  0  0  0  0  0  0  0  0  0
   11.1073  -18.1072   25.8804 C   0  0  0  0  0  0  0  0  0  0  0  0
   10.8570  -19.1786   25.0574 O   0  0  0  0  0  0  0  0  0  0  0  0
   11.7489  -18.2907   26.9368 O   0  0  0  0  0  0  0  0  0  0  0  0
  2  1  1  6
  2  3  1  0
  3  4  1  0
  4  8  1  0
  5  4  2  0
  6  2  1  0
  6  7  2  0
  9  6  1  0
 10  9  1  0
 10 11  1  1
 11 12  1  0
 12 13  2  0
 12 20  1  0
 13 14  1  0
 14 15  1  0
 15 16  2  0
 16 17  1  0
 18 17  2  0
 19 18  1  0
 20 19  2  0
 20 15  1  0
 21 10  1  0
 22 21  2  0
 23 21  1  0
 24 25  1  1
 24 23  1  0
 25 26  1  0
 26 31  1  0
 27 26  2  0
 27 28  1  0
 28 29  2  0
 29 30  1  0
 31 30  2  0
 32 24  1  0
 33 32  1  0
 34 32  2  0
M  END
$$$$
