DWF.pdb
     RDKit          3D

 34 36  0  0  1  0  0  0  0  0999 V2000
   10.7891  -18.9594   19.5596 N   0  0  0  0  0  0  0  0  0  0  0  0
   11.6905  -17.8717   19.9528 C   0  0  1  0  0  0  0  0  0  0  0  0
   12.0293  -17.0782   18.7549 C   0  0  0  0  0  0  0  0  0  0  0  0
   12.8690  -17.7803   17.7709 C   0  0  0  0  0  0  0  0  0  0  0  0
   13.1746  -18.9755   17.8496 O   0  0  0  0  0  0  0  0  0  0  0  0
   11.2124  -17.1910   21.1414 C   0  0  0  0  0  0  0  0  0  0  0  0
   11.9300  -16.1965   21.5459 O   0  0  0  0  0  0  0  0  0  0  0  0
   13.3418  -17.0547   16.6945 O   0  0  0  0  0  0  0  0  0  0  0  0
   10.0854  -17.4541   21.9254 N   0  0  0  0  0  0  0  0  0  0  0  0
    9.6715  -16.6427   23.0802 C   0  0  1  0  0  0  0  0  0  0  0  0
    8.1964  -16.6539   23.2508 C   0  0  0  0  0  0  0  0  0  0  0  0
    7.4397  -16.0569   22.1420 C   0  0  0  0  0  0  0  0  0  0  0  0
    6.4358  -16.5531   21.3517 C   0  0  0  0  0  0  0  0  0  0  0  0
    6.0688  -15.5925   20.4524 N   0  0  0  0  0  0  0  0  0  0  0  0
    6.8038  -14.4895   20.6348 C   0  0  0  0  0  0  0  0  0  0  0  0
    6.8252  -13.2670   20.0026 C   0  0  0  0  0  0  0  0  0  0  0  0
    7.7107  -12.3006   20.4177 C   0  0  0  0  0  0  0  0  0  0  0  0
    8.5975  -12.5232   21.4701 C   0  0  0  0  0  0  0  0  0  0  0  0
    8.5471  -13.7613   22.0795 C   0  0  0  0  0  0  0  0  0  0  0  0
    7.6677  -14.7679   21.6928 C   0  0  0  0  0  0  0  0  0  0  0  0
   10.2708  -17.2970   24.2711 C   0  0  0  0  0  0  0  0  0  0  0  0
   10.6727  -18.4956   24.1978 O   0  0  0  0  0  0  0  0  0  0  0  0
   10.4246  -16.6445   25.5126 N   0  0  0  0  0  0  0  0  0  0  0  0
   11.2314  -17.2578   26.5846 C   0  0  1  0  0  0  0  0  0  0  0  0
   11.7836  -16.1218   27.4066 C   0  0  0  0  0  0  0  0  0  0  0  0
   10.7393  -15.2517   27.9585 C   0  0  0  0  0  0  0  0  0  0  0  0
   10.5355  -15.3319   29.3393 C   0  0  0  0  0  0  0  0  0  0  0  0
    9.5927  -14.5844   30.0005 C   0  0  0  0  0  0  0  0  0  0  0  0
    8.8005  -13.7107   29.2984 C   0  0  0  0  0  0  0  0  0  0  0  0
    8.9868  -13.6176   27.9368 C   0  0  0  0  0  0  0  0  0  0  0  0
    9.9468  -14.3801   27.2722 C   0  0  0  0  0  0  0  0  0  0  0  0
   10.3347  -18.1401   27.3541 C   0  0  0  0  0  0  0  0  0  0  0  0
   10.8091  -18.8983   28.3972 O   0  0  0  0  0  0  0  0  0  0  0  0
    9.1223  -18.2054   27.0590 O   0  0  0  0  0  0  0  0  0  0  0  0
  2  1  1  6
  2  3  1  0
  3  4  1  0
  4  8  1  0
  5  4  2  0
  6  2  1  0
  6  7  2  0
  9  6  1  0
 10  9  1  0
 10 11  1  1
 11 12  1  0
 12 13  2  0
 12 20  1  0
 13 14  1  0
 14 15  1  0
 15 16  2  0
 16 17  1  0
 18 17  2  0
 19 18  1  0
 20 19  2  0
 20 15  1  0
 21 10  1  0
 22 21  2  0
 23 21  1  0
 24 25  1  1
 24 23  1  0
 25 26  1  0
 26 31  1  0
 27 26  2  0
 27 28  1  0
 28 29  2  0
 29 30  1  0
 31 30  2  0
 32 24  1  0
 33 32  1  0
 34 32  2  0
M  END
$$$$
