DWF.pdb
     RDKit          3D

 34 36  0  0  1  0  0  0  0  0999 V2000
   11.8646  -18.3171   20.6617 N   0  0  0  0  0  0  0  0  0  0  0  0
   12.4289  -17.1232   21.2992 C   0  0  1  0  0  0  0  0  0  0  0  0
   12.8262  -16.1657   20.2482 C   0  0  0  0  0  0  0  0  0  0  0  0
   14.1276  -16.4476   19.6211 C   0  0  0  0  0  0  0  0  0  0  0  0
   14.8779  -17.3668   19.9678 O   0  0  0  0  0  0  0  0  0  0  0  0
   11.5977  -16.6657   22.3967 C   0  0  0  0  0  0  0  0  0  0  0  0
   12.0187  -15.6162   23.0203 O   0  0  0  0  0  0  0  0  0  0  0  0
   14.5307  -15.6323   18.5812 O   0  0  0  0  0  0  0  0  0  0  0  0
   10.4021  -17.1966   22.8894 N   0  0  0  0  0  0  0  0  0  0  0  0
    9.5950  -16.5760   23.9508 C   0  0  1  0  0  0  0  0  0  0  0  0
    8.1478  -16.8506   23.7632 C   0  0  0  0  0  0  0  0  0  0  0  0
    7.5379  -16.1931   22.5995 C   0  0  0  0  0  0  0  0  0  0  0  0
    6.9334  -16.7001   21.4787 C   0  0  0  0  0  0  0  0  0  0  0  0
    6.5326  -15.6611   20.6873 N   0  0  0  0  0  0  0  0  0  0  0  0
    6.8590  -14.4967   21.2601 C   0  0  0  0  0  0  0  0  0  0  0  0
    6.6815  -13.1863   20.8779 C   0  0  0  0  0  0  0  0  0  0  0  0
    7.1313  -12.1726   21.6905 C   0  0  0  0  0  0  0  0  0  0  0  0
    7.7691  -12.4337   22.9023 C   0  0  0  0  0  0  0  0  0  0  0  0
    7.9295  -13.7598   23.2519 C   0  0  0  0  0  0  0  0  0  0  0  0
    7.4900  -14.8170   22.4611 C   0  0  0  0  0  0  0  0  0  0  0  0
   10.0199  -17.2269   25.2163 C   0  0  0  0  0  0  0  0  0  0  0  0
   10.7792  -18.2396   25.1815 O   0  0  0  0  0  0  0  0  0  0  0  0
    9.6183  -16.7706   26.4896 N   0  0  0  0  0  0  0  0  0  0  0  0
   10.1266  -17.4219   27.7117 C   0  0  1  0  0  0  0  0  0  0  0  0
    9.9357  -16.4337   28.8333 C   0  0  0  0  0  0  0  0  0  0  0  0
    9.8383  -15.0464   28.3660 C   0  0  0  0  0  0  0  0  0  0  0  0
   11.0385  -14.3324   28.2986 C   0  0  0  0  0  0  0  0  0  0  0  0
   11.1084  -13.0252   27.8853 C   0  0  0  0  0  0  0  0  0  0  0  0
    9.9632  -12.3649   27.5159 C   0  0  0  0  0  0  0  0  0  0  0  0
    8.7709  -13.0521   27.5754 C   0  0  0  0  0  0  0  0  0  0  0  0
    8.7079  -14.3801   27.9961 C   0  0  0  0  0  0  0  0  0  0  0  0
    9.3497  -18.6611   27.9002 C   0  0  0  0  0  0  0  0  0  0  0  0
    9.6694  -19.5546   28.8939 O   0  0  0  0  0  0  0  0  0  0  0  0
    8.3837  -18.9104   27.1480 O   0  0  0  0  0  0  0  0  0  0  0  0
  2  1  1  6
  2  3  1  0
  3  4  1  0
  4  8  1  0
  5  4  2  0
  6  2  1  0
  6  7  2  0
  9  6  1  0
 10  9  1  0
 10 11  1  6
 11 12  1  0
 12 13  2  0
 12 20  1  0
 13 14  1  0
 14 15  1  0
 15 16  2  0
 16 17  1  0
 18 17  2  0
 19 18  1  0
 20 19  2  0
 20 15  1  0
 21 10  1  0
 22 21  2  0
 23 21  1  0
 24 25  1  1
 24 23  1  0
 25 26  1  0
 26 31  1  0
 27 26  2  0
 27 28  1  0
 28 29  2  0
 29 30  1  0
 31 30  2  0
 32 24  1  0
 33 32  1  0
 34 32  2  0
M  END
$$$$
