DWF.pdb
     RDKit          3D

 34 36  0  0  1  0  0  0  0  0999 V2000
   11.3393  -18.2509   20.7260 N   0  0  0  0  0  0  0  0  0  0  0  0
   10.8536  -18.4345   22.0974 C   0  0  1  0  0  0  0  0  0  0  0  0
   11.8782  -19.1629   22.8713 C   0  0  0  0  0  0  0  0  0  0  0  0
   13.2667  -18.8649   22.4845 C   0  0  0  0  0  0  0  0  0  0  0  0
   13.6783  -18.8787   21.3190 O   0  0  0  0  0  0  0  0  0  0  0  0
   10.3028  -17.2041   22.6335 C   0  0  0  0  0  0  0  0  0  0  0  0
   10.8503  -16.1132   22.2117 O   0  0  0  0  0  0  0  0  0  0  0  0
   14.1610  -18.5504   23.4894 O   0  0  0  0  0  0  0  0  0  0  0  0
    9.2634  -17.0188   23.5496 N   0  0  0  0  0  0  0  0  0  0  0  0
    8.7804  -15.7047   24.0003 C   0  0  1  0  0  0  0  0  0  0  0  0
    7.3374  -15.5245   23.6999 C   0  0  0  0  0  0  0  0  0  0  0  0
    7.0174  -15.3521   22.2764 C   0  0  0  0  0  0  0  0  0  0  0  0
    6.3979  -16.1777   21.3746 C   0  0  0  0  0  0  0  0  0  0  0  0
    6.3469  -15.5468   20.1639 N   0  0  0  0  0  0  0  0  0  0  0  0
    6.9144  -14.3384   20.2529 C   0  0  0  0  0  0  0  0  0  0  0  0
    7.1143  -13.3313   19.3362 C   0  0  0  0  0  0  0  0  0  0  0  0
    7.7417  -12.1711   19.7244 C   0  0  0  0  0  0  0  0  0  0  0  0
    8.1870  -11.9815   21.0316 C   0  0  0  0  0  0  0  0  0  0  0  0
    7.9693  -13.0136   21.9227 C   0  0  0  0  0  0  0  0  0  0  0  0
    7.3388  -14.2039   21.5739 C   0  0  0  0  0  0  0  0  0  0  0  0
    8.9407  -15.6983   25.4768 C   0  0  0  0  0  0  0  0  0  0  0  0
    8.4700  -14.7409   26.1589 O   0  0  0  0  0  0  0  0  0  0  0  0
    9.6028  -16.7241   26.1839 N   0  0  0  0  0  0  0  0  0  0  0  0
   10.4586  -16.4019   27.3415 C   0  0  1  0  0  0  0  0  0  0  0  0
    9.6033  -15.6118   28.2981 C   0  0  0  0  0  0  0  0  0  0  0  0
    8.9902  -14.4311   27.6797 C   0  0  0  0  0  0  0  0  0  0  0  0
    9.7585  -13.2631   27.6845 C   0  0  0  0  0  0  0  0  0  0  0  0
    9.3201  -12.0778   27.1481 C   0  0  0  0  0  0  0  0  0  0  0  0
    8.0750  -12.0083   26.5747 C   0  0  0  0  0  0  0  0  0  0  0  0
    7.3034  -13.1492   26.5603 C   0  0  0  0  0  0  0  0  0  0  0  0
    7.7557  -14.3497   27.1070 C   0  0  0  0  0  0  0  0  0  0  0  0
   10.9231  -17.6811   27.9093 C   0  0  0  0  0  0  0  0  0  0  0  0
   10.6183  -18.8773   27.3060 O   0  0  0  0  0  0  0  0  0  0  0  0
   11.6053  -17.6861   28.9561 O   0  0  0  0  0  0  0  0  0  0  0  0
  2  1  1  6
  2  3  1  0
  3  4  1  0
  4  8  1  0
  5  4  2  0
  6  2  1  0
  6  7  2  0
  9  6  1  0
 10  9  1  0
 10 11  1  1
 11 12  1  0
 12 13  2  0
 12 20  1  0
 13 14  1  0
 14 15  1  0
 15 16  2  0
 16 17  1  0
 18 17  2  0
 19 18  1  0
 20 19  2  0
 20 15  1  0
 21 10  1  0
 22 21  2  0
 23 21  1  0
 24 25  1  1
 24 23  1  0
 25 26  1  0
 26 31  1  0
 27 26  2  0
 27 28  1  0
 28 29  2  0
 29 30  1  0
 31 30  2  0
 32 24  1  0
 33 32  1  0
 34 32  2  0
M  END
$$$$
