DWF.pdb
     RDKit          3D

 34 36  0  0  1  0  0  0  0  0999 V2000
    6.5326  -21.7904   22.5979 N   0  0  0  0  0  0  0  0  0  0  0  0
    6.7295  -20.6486   21.6990 C   0  0  1  0  0  0  0  0  0  0  0  0
    5.8307  -20.7973   20.5374 C   0  0  0  0  0  0  0  0  0  0  0  0
    6.2942  -21.7558   19.5212 C   0  0  0  0  0  0  0  0  0  0  0  0
    7.3241  -22.4315   19.6264 O   0  0  0  0  0  0  0  0  0  0  0  0
    6.7416  -19.3952   22.4295 C   0  0  0  0  0  0  0  0  0  0  0  0
    6.1126  -18.4146   21.8724 O   0  0  0  0  0  0  0  0  0  0  0  0
    5.5275  -21.9066   18.3819 O   0  0  0  0  0  0  0  0  0  0  0  0
    7.3407  -19.0839   23.6534 N   0  0  0  0  0  0  0  0  0  0  0  0
    7.3393  -17.7438   24.2596 C   0  0  1  0  0  0  0  0  0  0  0  0
    7.5011  -17.8147   25.7340 C   0  0  0  0  0  0  0  0  0  0  0  0
    7.4793  -16.5173   26.4231 C   0  0  0  0  0  0  0  0  0  0  0  0
    6.4740  -15.6070   26.6216 C   0  0  0  0  0  0  0  0  0  0  0  0
    6.9724  -14.5486   27.3269 N   0  0  0  0  0  0  0  0  0  0  0  0
    8.2693  -14.7442   27.5913 C   0  0  0  0  0  0  0  0  0  0  0  0
    9.2098  -13.9923   28.2583 C   0  0  0  0  0  0  0  0  0  0  0  0
   10.4974  -14.4599   28.3762 C   0  0  0  0  0  0  0  0  0  0  0  0
   10.8841  -15.6849   27.8348 C   0  0  0  0  0  0  0  0  0  0  0  0
    9.9138  -16.4107   27.1728 C   0  0  0  0  0  0  0  0  0  0  0  0
    8.5995  -15.9767   27.0297 C   0  0  0  0  0  0  0  0  0  0  0  0
    8.5283  -17.0471   23.7058 C   0  0  0  0  0  0  0  0  0  0  0  0
    9.6022  -17.6889   23.5104 O   0  0  0  0  0  0  0  0  0  0  0  0
    8.5320  -15.6757   23.3739 N   0  0  0  0  0  0  0  0  0  0  0  0
    9.5555  -15.1299   22.4625 C   0  0  1  0  0  0  0  0  0  0  0  0
    8.9769  -13.8673   21.8777 C   0  0  0  0  0  0  0  0  0  0  0  0
    8.3779  -12.9884   22.8881 C   0  0  0  0  0  0  0  0  0  0  0  0
    8.4061  -13.4544   24.2059 C   0  0  0  0  0  0  0  0  0  0  0  0
    7.8820  -12.7480   25.2600 C   0  0  0  0  0  0  0  0  0  0  0  0
    7.2977  -11.5259   25.0383 C   0  0  0  0  0  0  0  0  0  0  0  0
    7.2607  -11.0500   23.7462 C   0  0  0  0  0  0  0  0  0  0  0  0
    7.7954  -11.7733   22.6806 C   0  0  0  0  0  0  0  0  0  0  0  0
   10.7686  -14.8872   23.2650 C   0  0  0  0  0  0  0  0  0  0  0  0
   10.7807  -15.1166   24.6196 O   0  0  0  0  0  0  0  0  0  0  0  0
   11.8067  -14.4656   22.7118 O   0  0  0  0  0  0  0  0  0  0  0  0
  2  1  1  1
  2  3  1  0
  3  4  1  0
  4  8  1  0
  5  4  2  0
  6  2  1  0
  6  7  2  0
  9  6  1  0
 10  9  1  0
 10 11  1  1
 11 12  1  0
 12 13  2  0
 12 20  1  0
 13 14  1  0
 14 15  1  0
 15 16  2  0
 16 17  1  0
 18 17  2  0
 19 18  1  0
 20 19  2  0
 20 15  1  0
 21 10  1  0
 22 21  2  0
 23 21  1  0
 24 25  1  1
 24 23  1  0
 25 26  1  0
 26 31  1  0
 27 26  2  0
 27 28  1  0
 28 29  2  0
 29 30  1  0
 31 30  2  0
 32 24  1  0
 33 32  1  0
 34 32  2  0
M  END
$$$$
