DWF.pdb
     RDKit          3D

 34 36  0  0  1  0  0  0  0  0999 V2000
    9.4494  -19.2164   21.2659 N   0  0  0  0  0  0  0  0  0  0  0  0
   10.6687  -18.4225   21.0835 C   0  0  1  0  0  0  0  0  0  0  0  0
   11.0658  -18.4804   19.6628 C   0  0  0  0  0  0  0  0  0  0  0  0
   11.4627  -19.8167   19.1904 C   0  0  0  0  0  0  0  0  0  0  0  0
   11.7618  -20.7543   19.9384 O   0  0  0  0  0  0  0  0  0  0  0  0
   10.5633  -17.1318   21.7375 C   0  0  0  0  0  0  0  0  0  0  0  0
   11.6069  -16.3752   21.6582 O   0  0  0  0  0  0  0  0  0  0  0  0
   11.5015  -20.0314   17.8262 O   0  0  0  0  0  0  0  0  0  0  0  0
    9.4957  -16.5801   22.4514 N   0  0  0  0  0  0  0  0  0  0  0  0
    9.4947  -15.2261   23.0259 C   0  0  1  0  0  0  0  0  0  0  0  0
    8.1513  -14.5996   22.9367 C   0  0  0  0  0  0  0  0  0  0  0  0
    7.4977  -14.7185   21.6263 C   0  0  0  0  0  0  0  0  0  0  0  0
    6.5541  -15.5932   21.1540 C   0  0  0  0  0  0  0  0  0  0  0  0
    6.2776  -15.2812   19.8530 N   0  0  0  0  0  0  0  0  0  0  0  0
    7.0128  -14.2320   19.4674 C   0  0  0  0  0  0  0  0  0  0  0  0
    7.1057  -13.5435   18.2791 C   0  0  0  0  0  0  0  0  0  0  0  0
    7.9697  -12.4792   18.1739 C   0  0  0  0  0  0  0  0  0  0  0  0
    8.7635  -12.0717   19.2449 C   0  0  0  0  0  0  0  0  0  0  0  0
    8.6434  -12.7864   20.4203 C   0  0  0  0  0  0  0  0  0  0  0  0
    7.7825  -13.8691   20.5715 C   0  0  0  0  0  0  0  0  0  0  0  0
    9.8214  -15.3958   24.4647 C   0  0  0  0  0  0  0  0  0  0  0  0
   10.5332  -14.5320   25.0568 O   0  0  0  0  0  0  0  0  0  0  0  0
    9.3724  -16.4912   25.2323 N   0  0  0  0  0  0  0  0  0  0  0  0
    9.6783  -16.5698   26.6733 C   0  0  1  0  0  0  0  0  0  0  0  0
    8.4078  -16.2107   27.3998 C   0  0  0  0  0  0  0  0  0  0  0  0
    8.0703  -14.7867   27.2970 C   0  0  0  0  0  0  0  0  0  0  0  0
    6.8379  -14.4856   26.7094 C   0  0  0  0  0  0  0  0  0  0  0  0
    6.3848  -13.2009   26.5394 C   0  0  0  0  0  0  0  0  0  0  0  0
    7.1566  -12.1451   26.9561 C   0  0  0  0  0  0  0  0  0  0  0  0
    8.3741  -12.4220   27.5377 C   0  0  0  0  0  0  0  0  0  0  0  0
    8.8275  -13.7298   27.7072 C   0  0  0  0  0  0  0  0  0  0  0  0
   10.1273  -17.9471   26.9489 C   0  0  0  0  0  0  0  0  0  0  0  0
   10.1088  -18.9089   25.9679 O   0  0  0  0  0  0  0  0  0  0  0  0
   10.5323  -18.2530   28.0907 O   0  0  0  0  0  0  0  0  0  0  0  0
  2  1  1  6
  2  3  1  0
  3  4  1  0
  4  8  1  0
  5  4  2  0
  6  2  1  0
  6  7  2  0
  9  6  1  0
 10  9  1  0
 10 11  1  1
 11 12  1  0
 12 13  2  0
 12 20  1  0
 13 14  1  0
 14 15  1  0
 15 16  2  0
 16 17  1  0
 18 17  2  0
 19 18  1  0
 20 19  2  0
 20 15  1  0
 21 10  1  0
 22 21  2  0
 23 21  1  0
 24 25  1  1
 24 23  1  0
 25 26  1  0
 26 31  1  0
 27 26  2  0
 27 28  1  0
 28 29  2  0
 29 30  1  0
 31 30  2  0
 32 24  1  0
 33 32  1  0
 34 32  2  0
M  END
$$$$
