DWF.pdb
     RDKit          3D

 34 36  0  0  1  0  0  0  0  0999 V2000
   10.9287  -19.1576   19.8246 N   0  0  0  0  0  0  0  0  0  0  0  0
   11.7888  -18.0007   20.0932 C   0  0  1  0  0  0  0  0  0  0  0  0
   12.0301  -17.2831   18.8259 C   0  0  0  0  0  0  0  0  0  0  0  0
   13.0426  -17.9004   17.9540 C   0  0  0  0  0  0  0  0  0  0  0  0
   13.0242  -17.8367   16.7197 O   0  0  0  0  0  0  0  0  0  0  0  0
   11.3307  -17.2577   21.2519 C   0  0  0  0  0  0  0  0  0  0  0  0
   11.9863  -16.1784   21.5221 O   0  0  0  0  0  0  0  0  0  0  0  0
   14.0754  -18.5921   18.5570 O   0  0  0  0  0  0  0  0  0  0  0  0
   10.2809  -17.5380   22.1313 N   0  0  0  0  0  0  0  0  0  0  0  0
    9.8497  -16.6458   23.2182 C   0  0  1  0  0  0  0  0  0  0  0  0
    8.3764  -16.6844   23.3999 C   0  0  0  0  0  0  0  0  0  0  0  0
    7.6004  -16.1002   22.2976 C   0  0  0  0  0  0  0  0  0  0  0  0
    6.5908  -16.6096   21.5230 C   0  0  0  0  0  0  0  0  0  0  0  0
    6.2040  -15.6573   20.6230 N   0  0  0  0  0  0  0  0  0  0  0  0
    6.9318  -14.5470   20.7898 C   0  0  0  0  0  0  0  0  0  0  0  0
    6.9346  -13.3280   20.1505 C   0  0  0  0  0  0  0  0  0  0  0  0
    7.8170  -12.3517   20.5488 C   0  0  0  0  0  0  0  0  0  0  0  0
    8.7190  -12.5607   21.5909 C   0  0  0  0  0  0  0  0  0  0  0  0
    8.6871  -13.7956   22.2078 C   0  0  0  0  0  0  0  0  0  0  0  0
    7.8115  -14.8120   21.8382 C   0  0  0  0  0  0  0  0  0  0  0  0
   10.4734  -17.1822   24.4547 C   0  0  0  0  0  0  0  0  0  0  0  0
   10.8900  -18.3776   24.4844 O   0  0  0  0  0  0  0  0  0  0  0  0
   10.6352  -16.4179   25.6296 N   0  0  0  0  0  0  0  0  0  0  0  0
   11.4271  -16.9413   26.7588 C   0  0  1  0  0  0  0  0  0  0  0  0
   11.8415  -15.7473   27.5794 C   0  0  0  0  0  0  0  0  0  0  0  0
   10.7019  -14.9680   28.0759 C   0  0  0  0  0  0  0  0  0  0  0  0
   10.2578  -13.9304   27.2508 C   0  0  0  0  0  0  0  0  0  0  0  0
    9.2063  -13.1115   27.5799 C   0  0  0  0  0  0  0  0  0  0  0  0
    8.5430  -13.2977   28.7671 C   0  0  0  0  0  0  0  0  0  0  0  0
    8.9661  -14.3154   29.5933 C   0  0  0  0  0  0  0  0  0  0  0  0
   10.0350  -15.1433   29.2519 C   0  0  0  0  0  0  0  0  0  0  0  0
   10.5615  -17.8758   27.5018 C   0  0  0  0  0  0  0  0  0  0  0  0
    9.2596  -18.0928   27.1200 O   0  0  0  0  0  0  0  0  0  0  0  0
   11.0115  -18.4840   28.4962 O   0  0  0  0  0  0  0  0  0  0  0  0
  2  1  1  6
  2  3  1  0
  3  4  1  0
  4  8  1  0
  5  4  2  0
  6  2  1  0
  6  7  2  0
  9  6  1  0
 10  9  1  0
 10 11  1  1
 11 12  1  0
 12 13  2  0
 12 20  1  0
 13 14  1  0
 14 15  1  0
 15 16  2  0
 16 17  1  0
 18 17  2  0
 19 18  1  0
 20 19  2  0
 20 15  1  0
 21 10  1  0
 22 21  2  0
 23 21  1  0
 24 25  1  1
 24 23  1  0
 25 26  1  0
 26 31  1  0
 27 26  2  0
 27 28  1  0
 28 29  2  0
 29 30  1  0
 31 30  2  0
 32 24  1  0
 33 32  1  0
 34 32  2  0
M  END
$$$$
