DWF.pdb
     RDKit          3D

 34 36  0  0  1  0  0  0  0  0999 V2000
   10.3108  -18.9824   21.3221 N   0  0  0  0  0  0  0  0  0  0  0  0
   11.0782  -17.7395   21.1933 C   0  0  1  0  0  0  0  0  0  0  0  0
   11.4707  -17.5672   19.7806 C   0  0  0  0  0  0  0  0  0  0  0  0
   12.4864  -18.5203   19.3050 C   0  0  0  0  0  0  0  0  0  0  0  0
   12.7529  -19.5868   19.8705 O   0  0  0  0  0  0  0  0  0  0  0  0
   10.4304  -16.6426   21.8874 C   0  0  0  0  0  0  0  0  0  0  0  0
   11.0599  -15.5152   21.8668 O   0  0  0  0  0  0  0  0  0  0  0  0
   13.1817  -18.1991   18.1552 O   0  0  0  0  0  0  0  0  0  0  0  0
    9.2198  -16.6221   22.5859 N   0  0  0  0  0  0  0  0  0  0  0  0
    8.6307  -15.4163   23.1879 C   0  0  1  0  0  0  0  0  0  0  0  0
    7.2667  -15.1576   22.6612 C   0  0  0  0  0  0  0  0  0  0  0  0
    7.1748  -15.0633   21.1980 C   0  0  0  0  0  0  0  0  0  0  0  0
    6.7404  -15.9553   20.2522 C   0  0  0  0  0  0  0  0  0  0  0  0
    6.8623  -15.3818   19.0183 N   0  0  0  0  0  0  0  0  0  0  0  0
    7.3626  -14.1463   19.1348 C   0  0  0  0  0  0  0  0  0  0  0  0
    7.6704  -13.1730   18.2114 C   0  0  0  0  0  0  0  0  0  0  0  0
    8.1833  -11.9697   18.6350 C   0  0  0  0  0  0  0  0  0  0  0  0
    8.4041  -11.7023   19.9852 C   0  0  0  0  0  0  0  0  0  0  0  0
    8.0837  -12.7024   20.8817 C   0  0  0  0  0  0  0  0  0  0  0  0
    7.5626  -13.9342   20.4980 C   0  0  0  0  0  0  0  0  0  0  0  0
    8.5092  -15.7059   24.6395 C   0  0  0  0  0  0  0  0  0  0  0  0
    7.5441  -15.2220   25.3012 O   0  0  0  0  0  0  0  0  0  0  0  0
    9.4291  -16.5111   25.3438 N   0  0  0  0  0  0  0  0  0  0  0  0
   10.0398  -16.0275   26.5966 C   0  0  1  0  0  0  0  0  0  0  0  0
    8.9024  -15.6099   27.4926 C   0  0  0  0  0  0  0  0  0  0  0  0
    8.4267  -14.2490   27.2205 C   0  0  0  0  0  0  0  0  0  0  0  0
    7.0731  -14.1223   26.8944 C   0  0  0  0  0  0  0  0  0  0  0  0
    6.4825  -12.9161   26.6099 C   0  0  0  0  0  0  0  0  0  0  0  0
    7.2318  -11.7664   26.6396 C   0  0  0  0  0  0  0  0  0  0  0  0
    8.5674  -11.8713   26.9592 C   0  0  0  0  0  0  0  0  0  0  0  0
    9.1603  -13.1002   27.2472 C   0  0  0  0  0  0  0  0  0  0  0  0
   10.8304  -17.1406   27.1538 C   0  0  0  0  0  0  0  0  0  0  0  0
   10.9765  -18.3210   26.4659 O   0  0  0  0  0  0  0  0  0  0  0  0
   11.3794  -17.0167   28.2694 O   0  0  0  0  0  0  0  0  0  0  0  0
  2  1  1  6
  2  3  1  0
  3  4  1  0
  4  8  1  0
  5  4  2  0
  6  2  1  0
  6  7  2  0
  9  6  1  0
 10  9  1  0
 10 11  1  6
 11 12  1  0
 12 13  2  0
 12 20  1  0
 13 14  1  0
 14 15  1  0
 15 16  2  0
 16 17  1  0
 18 17  2  0
 19 18  1  0
 20 19  2  0
 20 15  1  0
 21 10  1  0
 22 21  2  0
 23 21  1  0
 24 25  1  1
 24 23  1  0
 25 26  1  0
 26 31  1  0
 27 26  2  0
 27 28  1  0
 28 29  2  0
 29 30  1  0
 31 30  2  0
 32 24  1  0
 33 32  1  0
 34 32  2  0
M  END
$$$$
