DWF.pdb
     RDKit          3D

 34 36  0  0  1  0  0  0  0  0999 V2000
   10.8029  -17.9973   18.7608 N   0  0  0  0  0  0  0  0  0  0  0  0
   11.8043  -17.8401   19.8205 C   0  0  1  0  0  0  0  0  0  0  0  0
   13.0799  -17.4160   19.2102 C   0  0  0  0  0  0  0  0  0  0  0  0
   13.6888  -18.4076   18.3090 C   0  0  0  0  0  0  0  0  0  0  0  0
   13.7462  -19.6186   18.5504 O   0  0  0  0  0  0  0  0  0  0  0  0
   11.2733  -17.0919   20.9443 C   0  0  0  0  0  0  0  0  0  0  0  0
   11.5992  -15.8432   20.9917 O   0  0  0  0  0  0  0  0  0  0  0  0
   14.2277  -17.9520   17.1213 O   0  0  0  0  0  0  0  0  0  0  0  0
   10.4595  -17.5227   21.9959 N   0  0  0  0  0  0  0  0  0  0  0  0
    9.9195  -16.6400   23.0412 C   0  0  1  0  0  0  0  0  0  0  0  0
    8.4526  -16.8130   23.1934 C   0  0  0  0  0  0  0  0  0  0  0  0
    7.6453  -16.2452   22.1052 C   0  0  0  0  0  0  0  0  0  0  0  0
    6.6873  -16.7985   21.2961 C   0  0  0  0  0  0  0  0  0  0  0  0
    6.2369  -15.8422   20.4307 N   0  0  0  0  0  0  0  0  0  0  0  0
    6.8734  -14.6866   20.6533 C   0  0  0  0  0  0  0  0  0  0  0  0
    6.7875  -13.4452   20.0649 C   0  0  0  0  0  0  0  0  0  0  0  0
    7.5862  -12.4208   20.5155 C   0  0  0  0  0  0  0  0  0  0  0  0
    8.4904  -12.6026   21.5608 C   0  0  0  0  0  0  0  0  0  0  0  0
    8.5487  -13.8612   22.1259 C   0  0  0  0  0  0  0  0  0  0  0  0
    7.7597  -14.9262   21.7023 C   0  0  0  0  0  0  0  0  0  0  0  0
   10.5613  -17.0729   24.3087 C   0  0  0  0  0  0  0  0  0  0  0  0
   10.9356  -18.2744   24.4487 O   0  0  0  0  0  0  0  0  0  0  0  0
   10.7862  -16.2009   25.3949 N   0  0  0  0  0  0  0  0  0  0  0  0
   11.4896  -16.6759   26.6015 C   0  0  1  0  0  0  0  0  0  0  0  0
   11.9646  -15.4456   27.3309 C   0  0  0  0  0  0  0  0  0  0  0  0
   10.8823  -14.5011   27.6293 C   0  0  0  0  0  0  0  0  0  0  0  0
   10.4360  -14.4728   28.9540 C   0  0  0  0  0  0  0  0  0  0  0  0
    9.4286  -13.6462   29.3858 C   0  0  0  0  0  0  0  0  0  0  0  0
    8.8143  -12.7989   28.4978 C   0  0  0  0  0  0  0  0  0  0  0  0
    9.2407  -12.8124   27.1881 C   0  0  0  0  0  0  0  0  0  0  0  0
   10.2649  -13.6549   26.7569 C   0  0  0  0  0  0  0  0  0  0  0  0
   10.5245  -17.4701   27.3840 C   0  0  0  0  0  0  0  0  0  0  0  0
    9.2167  -17.5945   26.9816 O   0  0  0  0  0  0  0  0  0  0  0  0
   10.8939  -18.0423   28.4316 O   0  0  0  0  0  0  0  0  0  0  0  0
  2  1  1  6
  2  3  1  0
  3  4  1  0
  4  8  1  0
  5  4  2  0
  6  2  1  0
  6  7  2  0
  9  6  1  0
 10  9  1  0
 10 11  1  1
 11 12  1  0
 12 13  2  0
 12 20  1  0
 13 14  1  0
 14 15  1  0
 15 16  2  0
 16 17  1  0
 18 17  2  0
 19 18  1  0
 20 19  2  0
 20 15  1  0
 21 10  1  0
 22 21  2  0
 23 21  1  0
 24 25  1  1
 24 23  1  0
 25 26  1  0
 26 31  1  0
 27 26  2  0
 27 28  1  0
 28 29  2  0
 29 30  1  0
 31 30  2  0
 32 24  1  0
 33 32  1  0
 34 32  2  0
M  END
$$$$
