THL.pdb
     RDKit          3D

 26 26  0  0  1  0  0  0  0  0999 V2000
   28.4321  -21.9467  -13.6811 C   0  0  0  0  0  0  0  0  0  0  0  0
   28.6063  -20.8526  -14.7044 C   0  0  1  0  0  0  0  0  0  0  0  0
   29.2359  -21.3814  -15.8233 O   0  0  0  0  0  0  0  0  0  0  0  0
   27.2720  -20.3033  -15.1431 C   0  0  2  0  0  0  0  0  0  0  0  0
   27.3636  -19.2859  -16.1405 N   0  0  0  0  0  0  0  0  0  0  0  0
   26.4748  -19.9093  -13.9565 C   0  0  0  0  0  0  0  0  0  0  0  0
   26.7403  -18.8037  -13.4283 O   0  0  0  0  0  0  0  0  0  0  0  0
   25.4461  -20.7042  -13.3982 N   0  0  0  0  0  0  0  0  0  0  0  0
   24.6547  -20.3039  -12.2395 C   0  0  1  0  0  0  0  0  0  0  0  0
   23.2274  -20.6635  -12.3854 C   0  0  0  0  0  0  0  0  0  0  0  0
   22.5509  -19.8080  -13.3837 C   0  0  0  0  0  0  0  0  0  0  0  0
   23.0457  -18.7251  -14.1011 C   0  0  0  0  0  0  0  0  0  0  0  0
   22.0652  -18.2214  -14.8690 N   0  0  0  0  0  0  0  0  0  0  0  0
   20.9498  -18.9411  -14.6738 C   0  0  0  0  0  0  0  0  0  0  0  0
   21.2453  -19.8937  -13.7805 N   0  0  0  0  0  0  0  0  0  0  0  0
   25.2112  -20.9611  -11.0360 C   0  0  0  0  0  0  0  0  0  0  0  0
   25.6535  -22.1540  -11.0836 O   0  0  0  0  0  0  0  0  0  0  0  0
   28.7677  -20.5739   -7.9302 C   0  0  0  0  0  0  0  0  0  0  0  0
   27.7191  -19.5235   -8.0242 C   0  0  2  0  0  0  0  0  0  0  0  0
   28.1779  -18.3480   -7.1388 C   0  0  0  0  0  0  0  0  0  0  0  0
   26.3168  -19.8682   -7.7775 C   0  0  0  0  0  0  0  0  0  0  0  0
   25.6642  -20.9346   -8.5890 C   0  0  2  0  0  0  0  0  0  0  0  0
   25.2365  -20.2229   -9.8315 N   0  0  0  0  0  0  0  0  0  0  0  0
   24.4243  -21.4511   -8.0218 C   0  0  0  0  0  0  0  0  0  0  0  0
   23.2905  -21.0710   -8.4215 O   0  0  0  0  0  0  0  0  0  0  0  0
   24.4766  -22.4134   -6.9864 O   0  0  0  0  0  0  0  0  0  0  0  0
  2  1  1  1
  3  2  1  0
  4  2  1  0
  4  6  1  0
  4  5  1  6
  6  7  2  0
  8  6  1  0
  8  9  1  0
  9 10  1  6
 11 10  1  0
 12 11  2  0
 13 12  1  0
 14 13  1  0
 14 15  2  0
 15 11  1  0
 16  9  1  0
 16 17  2  0
 19 18  1  1
 19 21  1  0
 19 20  1  0
 22 21  1  1
 22 23  1  0
 23 16  1  0
 24 26  1  0
 24 22  1  0
 25 24  2  0
M  END
$$$$
