THL.pdb
     RDKit          3D

 26 26  0  0  1  0  0  0  0  0999 V2000
   20.4040  -18.3588  -14.5117 C   0  0  0  0  0  0  0  0  0  0  0  0
   21.3575  -19.3907  -13.9635 C   0  0  1  0  0  0  0  0  0  0  0  0
   20.6230  -20.4208  -13.3915 O   0  0  0  0  0  0  0  0  0  0  0  0
   22.2046  -19.9835  -15.0616 C   0  0  2  0  0  0  0  0  0  0  0  0
   21.4950  -20.8710  -15.9259 N   0  0  0  0  0  0  0  0  0  0  0  0
   23.4395  -20.5679  -14.4853 C   0  0  0  0  0  0  0  0  0  0  0  0
   23.3092  -21.5788  -13.7553 O   0  0  0  0  0  0  0  0  0  0  0  0
   24.7369  -20.0517  -14.7131 N   0  0  0  0  0  0  0  0  0  0  0  0
   25.9467  -20.6207  -14.1284 C   0  0  1  0  0  0  0  0  0  0  0  0
   27.1510  -20.3226  -14.9337 C   0  0  0  0  0  0  0  0  0  0  0  0
   27.2360  -21.1923  -16.1264 C   0  0  0  0  0  0  0  0  0  0  0  0
   26.4275  -22.2584  -16.5031 C   0  0  0  0  0  0  0  0  0  0  0  0
   26.8990  -22.7856  -17.6453 N   0  0  0  0  0  0  0  0  0  0  0  0
   27.9871  -22.0974  -18.0227 C   0  0  0  0  0  0  0  0  0  0  0  0
   28.1869  -21.1406  -17.1075 N   0  0  0  0  0  0  0  0  0  0  0  0
   26.1152  -20.0743  -12.7633 C   0  0  0  0  0  0  0  0  0  0  0  0
   25.4321  -19.0762  -12.3659 O   0  0  0  0  0  0  0  0  0  0  0  0
   26.4819  -20.4771   -7.4355 C   0  0  0  0  0  0  0  0  0  0  0  0
   25.5307  -20.1685   -8.5363 C   0  0  2  0  0  0  0  0  0  0  0  0
   24.1472  -20.6854   -8.0948 C   0  0  0  0  0  0  0  0  0  0  0  0
   25.8451  -20.5758   -9.9080 C   0  0  0  0  0  0  0  0  0  0  0  0
   27.1577  -20.2022  -10.5072 C   0  0  2  0  0  0  0  0  0  0  0  0
   27.0584  -20.6955  -11.9144 N   0  0  0  0  0  0  0  0  0  0  0  0
   28.3003  -20.9177   -9.9518 C   0  0  0  0  0  0  0  0  0  0  0  0
   28.6133  -22.0807  -10.3246 O   0  0  0  0  0  0  0  0  0  0  0  0
   29.0969  -20.3001   -8.9594 O   0  0  0  0  0  0  0  0  0  0  0  0
  2  1  1  6
  3  2  1  0
  4  2  1  0
  4  6  1  0
  4  5  1  1
  6  7  2  0
  8  6  1  0
  8  9  1  0
  9 10  1  6
 11 10  1  0
 12 11  2  0
 13 12  1  0
 14 13  1  0
 14 15  2  0
 15 11  1  0
 16  9  1  0
 16 17  2  0
 19 18  1  1
 19 21  1  0
 19 20  1  0
 22 21  1  1
 22 23  1  0
 23 16  1  0
 24 26  1  0
 24 22  1  0
 25 24  2  0
M  END
$$$$
