THL.pdb
     RDKit          3D

 26 26  0  0  1  0  0  0  0  0999 V2000
   18.7593  -13.6058  -14.9194 C   0  0  0  0  0  0  0  0  0  0  0  0
   18.0295  -14.2816  -16.0531 C   0  0  1  0  0  0  0  0  0  0  0  0
   17.5191  -15.4909  -15.6002 O   0  0  0  0  0  0  0  0  0  0  0  0
   16.8706  -13.4417  -16.5287 C   0  0  2  0  0  0  0  0  0  0  0  0
   16.1008  -14.0502  -17.5658 N   0  0  0  0  0  0  0  0  0  0  0  0
   17.3405  -12.0737  -16.8552 C   0  0  0  0  0  0  0  0  0  0  0  0
   17.9461  -11.9193  -17.9420 O   0  0  0  0  0  0  0  0  0  0  0  0
   17.1439  -10.9513  -16.0166 N   0  0  0  0  0  0  0  0  0  0  0  0
   17.6892   -9.6275  -16.2980 C   0  0  1  0  0  0  0  0  0  0  0  0
   16.6665   -8.5650  -16.1832 C   0  0  0  0  0  0  0  0  0  0  0  0
   15.7791   -8.5350  -17.3655 C   0  0  0  0  0  0  0  0  0  0  0  0
   16.1004   -8.6229  -18.7150 C   0  0  0  0  0  0  0  0  0  0  0  0
   14.9767   -8.5112  -19.4427 N   0  0  0  0  0  0  0  0  0  0  0  0
   13.9362   -8.3533  -18.6104 C   0  0  0  0  0  0  0  0  0  0  0  0
   14.4221   -8.3680  -17.3628 N   0  0  0  0  0  0  0  0  0  0  0  0
   18.7926   -9.3582  -15.3492 C   0  0  0  0  0  0  0  0  0  0  0  0
   18.6389   -9.5282  -14.0969 O   0  0  0  0  0  0  0  0  0  0  0  0
   22.8643  -11.2127  -14.2874 C   0  0  0  0  0  0  0  0  0  0  0  0
   22.6995  -10.5198  -15.5929 C   0  0  2  0  0  0  0  0  0  0  0  0
   23.9671  -10.8101  -16.4206 C   0  0  0  0  0  0  0  0  0  0  0  0
   22.3493   -9.0977  -15.6252 C   0  0  0  0  0  0  0  0  0  0  0  0
   21.1293   -8.6208  -14.9139 C   0  0  2  0  0  0  0  0  0  0  0  0
   20.0229   -8.9065  -15.8770 N   0  0  0  0  0  0  0  0  0  0  0  0
   21.0726   -7.1777  -14.7139 C   0  0  0  0  0  0  0  0  0  0  0  0
   20.5317   -6.4024  -15.5482 O   0  0  0  0  0  0  0  0  0  0  0  0
   21.6386   -6.6105  -13.5482 O   0  0  0  0  0  0  0  0  0  0  0  0
  2  1  1  1
  3  2  1  0
  4  2  1  0
  4  6  1  0
  4  5  1  6
  6  7  2  0
  8  6  1  0
  8  9  1  0
  9 10  1  1
 11 10  1  0
 12 11  2  0
 13 12  1  0
 14 13  1  0
 14 15  2  0
 15 11  1  0
 16  9  1  0
 16 17  2  0
 19 18  1  1
 19 21  1  0
 19 20  1  0
 22 21  1  6
 22 23  1  0
 23 16  1  0
 24 26  1  0
 24 22  1  0
 25 24  2  0
M  END
$$$$
