THL.pdb
     RDKit          3D

 26 26  0  0  1  0  0  0  0  0999 V2000
   28.7415  -21.6745  -13.7552 C   0  0  0  0  0  0  0  0  0  0  0  0
   28.7797  -20.5844  -14.7968 C   0  0  1  0  0  0  0  0  0  0  0  0
   29.4853  -21.0439  -15.9009 O   0  0  0  0  0  0  0  0  0  0  0  0
   27.3889  -20.2246  -15.2559 C   0  0  2  0  0  0  0  0  0  0  0  0
   27.3545  -19.2124  -16.2623 N   0  0  0  0  0  0  0  0  0  0  0  0
   26.5309  -19.9323  -14.0824 C   0  0  0  0  0  0  0  0  0  0  0  0
   26.6888  -18.8240  -13.5181 O   0  0  0  0  0  0  0  0  0  0  0  0
   25.5585  -20.8257  -13.5745 N   0  0  0  0  0  0  0  0  0  0  0  0
   24.6335  -20.4862  -12.4983 C   0  0  1  0  0  0  0  0  0  0  0  0
   23.2525  -20.9306  -12.7864 C   0  0  0  0  0  0  0  0  0  0  0  0
   22.5797  -20.0274  -13.7443 C   0  0  0  0  0  0  0  0  0  0  0  0
   23.0336  -18.8416  -14.3103 C   0  0  0  0  0  0  0  0  0  0  0  0
   22.0712  -18.3339  -15.0982 N   0  0  0  0  0  0  0  0  0  0  0  0
   21.0072  -19.1504  -15.0625 C   0  0  0  0  0  0  0  0  0  0  0  0
   21.3162  -20.1671  -14.2478 N   0  0  0  0  0  0  0  0  0  0  0  0
   25.1080  -21.1205  -11.2482 C   0  0  0  0  0  0  0  0  0  0  0  0
   25.5755  -22.3047  -11.2483 O   0  0  0  0  0  0  0  0  0  0  0  0
   28.4376  -20.5582   -8.1963 C   0  0  0  0  0  0  0  0  0  0  0  0
   27.3309  -19.5647   -8.1981 C   0  0  2  0  0  0  0  0  0  0  0  0
   27.7537  -18.4171   -7.2598 C   0  0  0  0  0  0  0  0  0  0  0  0
   25.9582  -20.0009   -7.9308 C   0  0  0  0  0  0  0  0  0  0  0  0
   25.3451  -21.0682   -8.7714 C   0  0  2  0  0  0  0  0  0  0  0  0
   25.0262  -20.3702  -10.0538 N   0  0  0  0  0  0  0  0  0  0  0  0
   24.0558  -21.5496   -8.2900 C   0  0  0  0  0  0  0  0  0  0  0  0
   22.9624  -21.1251   -8.7526 O   0  0  0  0  0  0  0  0  0  0  0  0
   24.0114  -22.5276   -7.2690 O   0  0  0  0  0  0  0  0  0  0  0  0
  2  1  1  1
  3  2  1  0
  4  2  1  0
  4  6  1  0
  4  5  1  6
  6  7  2  0
  8  6  1  0
  8  9  1  0
  9 10  1  6
 11 10  1  0
 12 11  2  0
 13 12  1  0
 14 13  1  0
 14 15  2  0
 15 11  1  0
 16  9  1  0
 16 17  2  0
 19 18  1  1
 19 21  1  0
 19 20  1  0
 22 21  1  1
 22 23  1  0
 23 16  1  0
 24 26  1  0
 24 22  1  0
 25 24  2  0
M  END
$$$$
