THL.pdb
     RDKit          3D

 26 26  0  0  1  0  0  0  0  0999 V2000
   21.8909  -15.2392  -15.4772 C   0  0  0  0  0  0  0  0  0  0  0  0
   21.3151  -16.0937  -16.5785 C   0  0  1  0  0  0  0  0  0  0  0  0
   21.2851  -17.4147  -16.1519 O   0  0  0  0  0  0  0  0  0  0  0  0
   19.9006  -15.6815  -16.9010 C   0  0  2  0  0  0  0  0  0  0  0  0
   19.2574  -16.5193  -17.8615 N   0  0  0  0  0  0  0  0  0  0  0  0
   19.8617  -14.2390  -17.2423 C   0  0  0  0  0  0  0  0  0  0  0  0
   20.3054  -13.9032  -18.3657 O   0  0  0  0  0  0  0  0  0  0  0  0
   19.3577  -13.2377  -16.3792 N   0  0  0  0  0  0  0  0  0  0  0  0
   19.4604  -11.8083  -16.6535 C   0  0  1  0  0  0  0  0  0  0  0  0
   18.1540  -11.1228  -16.5469 C   0  0  0  0  0  0  0  0  0  0  0  0
   17.2347  -11.5341  -17.6295 C   0  0  0  0  0  0  0  0  0  0  0  0
   16.2394  -12.5045  -17.6237 C   0  0  0  0  0  0  0  0  0  0  0  0
   15.6780  -12.5657  -18.8426 N   0  0  0  0  0  0  0  0  0  0  0  0
   16.2760  -11.6675  -19.6400 C   0  0  0  0  0  0  0  0  0  0  0  0
   17.2111  -11.0494  -18.9077 N   0  0  0  0  0  0  0  0  0  0  0  0
   20.4145  -11.2091  -15.6939 C   0  0  0  0  0  0  0  0  0  0  0  0
   20.2187  -11.2848  -14.4382 O   0  0  0  0  0  0  0  0  0  0  0  0
   26.3534   -9.7416  -16.2329 C   0  0  0  0  0  0  0  0  0  0  0  0
   25.1459   -9.9150  -15.3821 C   0  0  2  0  0  0  0  0  0  0  0  0
   25.5414  -10.8518  -14.2236 C   0  0  0  0  0  0  0  0  0  0  0  0
   23.8760  -10.3181  -15.9910 C   0  0  0  0  0  0  0  0  0  0  0  0
   22.6006  -10.1062  -15.2491 C   0  0  2  0  0  0  0  0  0  0  0  0
   21.5505  -10.5502  -16.2152 N   0  0  0  0  0  0  0  0  0  0  0  0
   22.2818   -8.7085  -14.9838 C   0  0  0  0  0  0  0  0  0  0  0  0
   21.8008   -7.9475  -15.8666 O   0  0  0  0  0  0  0  0  0  0  0  0
   22.5133   -8.1707  -13.6961 O   0  0  0  0  0  0  0  0  0  0  0  0
  2  1  1  1
  3  2  1  0
  4  2  1  0
  4  6  1  0
  4  5  1  6
  6  7  2  0
  8  6  1  0
  8  9  1  0
  9 10  1  1
 11 10  1  0
 12 11  2  0
 13 12  1  0
 14 13  1  0
 14 15  2  0
 15 11  1  0
 16  9  1  0
 16 17  2  0
 19 18  1  6
 19 21  1  0
 19 20  1  0
 22 21  1  6
 22 23  1  0
 23 16  1  0
 24 26  1  0
 24 22  1  0
 25 24  2  0
M  END
$$$$
