THL.pdb
     RDKit          3D

 26 26  0  0  1  0  0  0  0  0999 V2000
   24.4863  -27.4694  -18.0458 C   0  0  0  0  0  0  0  0  0  0  0  0
   24.8972  -26.4733  -16.9906 C   0  0  1  0  0  0  0  0  0  0  0  0
   25.2737  -27.1626  -15.8456 O   0  0  0  0  0  0  0  0  0  0  0  0
   26.0805  -25.6572  -17.4471 C   0  0  2  0  0  0  0  0  0  0  0  0
   27.2719  -26.4203  -17.6378 N   0  0  0  0  0  0  0  0  0  0  0  0
   26.2563  -24.4837  -16.5577 C   0  0  0  0  0  0  0  0  0  0  0  0
   26.6870  -24.7004  -15.4005 O   0  0  0  0  0  0  0  0  0  0  0  0
   25.9675  -23.1530  -16.9417 N   0  0  0  0  0  0  0  0  0  0  0  0
   26.1866  -21.9975  -16.0780 C   0  0  1  0  0  0  0  0  0  0  0  0
   26.1891  -20.7262  -16.8341 C   0  0  0  0  0  0  0  0  0  0  0  0
   26.5129  -19.5765  -15.9626 C   0  0  0  0  0  0  0  0  0  0  0  0
   27.5972  -19.3879  -15.1135 C   0  0  0  0  0  0  0  0  0  0  0  0
   27.4634  -18.2083  -14.4847 N   0  0  0  0  0  0  0  0  0  0  0  0
   26.3279  -17.6246  -14.8971 C   0  0  0  0  0  0  0  0  0  0  0  0
   25.7591  -18.4497  -15.7851 N   0  0  0  0  0  0  0  0  0  0  0  0
   25.1194  -21.9630  -15.0533 C   0  0  0  0  0  0  0  0  0  0  0  0
   23.9256  -22.3033  -15.3358 O   0  0  0  0  0  0  0  0  0  0  0  0
   27.5424  -20.7518  -11.2005 C   0  0  0  0  0  0  0  0  0  0  0  0
   26.0724  -20.6091  -11.0254 C   0  0  2  0  0  0  0  0  0  0  0  0
   25.8314  -20.1885   -9.5622 C   0  0  0  0  0  0  0  0  0  0  0  0
   25.1806  -21.7001  -11.4259 C   0  0  0  0  0  0  0  0  0  0  0  0
   24.4089  -21.5949  -12.6968 C   0  0  2  0  0  0  0  0  0  0  0  0
   25.4670  -21.5404  -13.7507 N   0  0  0  0  0  0  0  0  0  0  0  0
   23.6744  -20.3455  -12.8553 C   0  0  0  0  0  0  0  0  0  0  0  0
   24.1279  -19.3771  -13.5233 O   0  0  0  0  0  0  0  0  0  0  0  0
   22.4067  -20.1974  -12.2454 O   0  0  0  0  0  0  0  0  0  0  0  0
  2  1  1  6
  3  2  1  0
  4  2  1  0
  4  6  1  0
  4  5  1  1
  6  7  2  0
  8  6  1  0
  8  9  1  0
  9 10  1  6
 11 10  1  0
 12 11  2  0
 13 12  1  0
 14 13  1  0
 14 15  2  0
 15 11  1  0
 16  9  1  0
 16 17  2  0
 19 18  1  1
 19 21  1  0
 19 20  1  0
 22 21  1  1
 22 23  1  0
 23 16  1  0
 24 26  1  0
 24 22  1  0
 25 24  2  0
M  END
$$$$
