THL.pdb
     RDKit          3D

 26 26  0  0  1  0  0  0  0  0999 V2000
   18.6355  -13.0068  -16.2881 C   0  0  0  0  0  0  0  0  0  0  0  0
   18.7359  -13.8664  -17.5232 C   0  0  1  0  0  0  0  0  0  0  0  0
   17.9603  -15.0038  -17.3422 O   0  0  0  0  0  0  0  0  0  0  0  0
   18.2098  -13.1380  -18.7346 C   0  0  2  0  0  0  0  0  0  0  0  0
   18.2206  -13.9184  -19.9301 N   0  0  0  0  0  0  0  0  0  0  0  0
   18.8895  -11.8269  -18.8685 C   0  0  0  0  0  0  0  0  0  0  0  0
   19.9881  -11.8093  -19.4722 O   0  0  0  0  0  0  0  0  0  0  0  0
   18.3703  -10.6138  -18.3583 N   0  0  0  0  0  0  0  0  0  0  0  0
   19.0850   -9.3429  -18.4132 C   0  0  1  0  0  0  0  0  0  0  0  0
   18.2692   -8.2678  -19.0187 C   0  0  0  0  0  0  0  0  0  0  0  0
   18.2743   -8.3480  -20.4952 C   0  0  0  0  0  0  0  0  0  0  0  0
   18.9827   -9.2024  -21.3321 C   0  0  0  0  0  0  0  0  0  0  0  0
   18.7093   -8.8921  -22.6103 N   0  0  0  0  0  0  0  0  0  0  0  0
   17.8472   -7.8642  -22.6312 C   0  0  0  0  0  0  0  0  0  0  0  0
   17.5880   -7.5397  -21.3583 N   0  0  0  0  0  0  0  0  0  0  0  0
   19.4716   -8.9570  -17.0378 C   0  0  0  0  0  0  0  0  0  0  0  0
   18.6449   -9.0445  -16.0736 O   0  0  0  0  0  0  0  0  0  0  0  0
   21.8908  -10.8619  -13.8241 C   0  0  0  0  0  0  0  0  0  0  0  0
   22.6016  -10.3227  -15.0139 C   0  0  2  0  0  0  0  0  0  0  0  0
   24.0584  -10.8202  -14.9325 C   0  0  0  0  0  0  0  0  0  0  0  0
   22.5377   -8.8905  -15.3151 C   0  0  0  0  0  0  0  0  0  0  0  0
   21.2127   -8.2161  -15.4213 C   0  0  2  0  0  0  0  0  0  0  0  0
   20.7879   -8.4884  -16.8279 N   0  0  0  0  0  0  0  0  0  0  0  0
   21.2669   -6.7618  -15.3337 C   0  0  0  0  0  0  0  0  0  0  0  0
   21.3394   -6.0272  -16.3559 O   0  0  0  0  0  0  0  0  0  0  0  0
   21.2376   -6.1360  -14.0655 O   0  0  0  0  0  0  0  0  0  0  0  0
  2  1  1  1
  3  2  1  0
  4  2  1  0
  4  6  1  0
  4  5  1  6
  6  7  2  0
  8  6  1  0
  8  9  1  0
  9 10  1  1
 11 10  1  0
 12 11  2  0
 13 12  1  0
 14 13  1  0
 14 15  2  0
 15 11  1  0
 16  9  1  0
 16 17  2  0
 19 18  1  1
 19 21  1  0
 19 20  1  0
 22 21  1  6
 22 23  1  0
 23 16  1  0
 24 26  1  0
 24 22  1  0
 25 24  2  0
M  END
$$$$
