THL.pdb
     RDKit          3D

 26 26  0  0  1  0  0  0  0  0999 V2000
   27.7196  -23.6961  -17.2803 C   0  0  0  0  0  0  0  0  0  0  0  0
   27.2665  -22.8245  -16.1359 C   0  0  1  0  0  0  0  0  0  0  0  0
   28.3563  -22.5551  -15.3188 O   0  0  0  0  0  0  0  0  0  0  0  0
   26.7299  -21.5072  -16.6374 C   0  0  2  0  0  0  0  0  0  0  0  0
   27.6166  -20.8179  -17.5188 N   0  0  0  0  0  0  0  0  0  0  0  0
   26.2623  -20.6860  -15.4947 C   0  0  0  0  0  0  0  0  0  0  0  0
   26.7841  -19.5554  -15.3494 O   0  0  0  0  0  0  0  0  0  0  0  0
   25.2733  -21.1059  -14.5744 N   0  0  0  0  0  0  0  0  0  0  0  0
   24.7853  -20.2755  -13.4783 C   0  0  1  0  0  0  0  0  0  0  0  0
   23.3165  -20.1048  -13.5165 C   0  0  0  0  0  0  0  0  0  0  0  0
   22.9083  -19.1439  -14.5636 C   0  0  0  0  0  0  0  0  0  0  0  0
   23.6913  -18.3047  -15.3478 C   0  0  0  0  0  0  0  0  0  0  0  0
   22.8922  -17.5734  -16.1423 N   0  0  0  0  0  0  0  0  0  0  0  0
   21.6161  -17.9096  -15.8999 C   0  0  0  0  0  0  0  0  0  0  0  0
   21.6295  -18.8536  -14.9505 N   0  0  0  0  0  0  0  0  0  0  0  0
   25.1784  -20.9033  -12.1971 C   0  0  0  0  0  0  0  0  0  0  0  0
   25.1175  -22.1649  -12.0373 O   0  0  0  0  0  0  0  0  0  0  0  0
   27.8332  -18.7754   -7.0455 C   0  0  0  0  0  0  0  0  0  0  0  0
   27.4824  -19.9346   -7.9087 C   0  0  2  0  0  0  0  0  0  0  0  0
   28.7056  -20.8725   -7.9227 C   0  0  0  0  0  0  0  0  0  0  0  0
   26.9622  -19.7078   -9.2592 C   0  0  0  0  0  0  0  0  0  0  0  0
   26.0279  -20.6975   -9.8670 C   0  0  2  0  0  0  0  0  0  0  0  0
   25.6238  -20.0583  -11.1560 N   0  0  0  0  0  0  0  0  0  0  0  0
   24.7761  -20.8711   -9.1400 C   0  0  0  0  0  0  0  0  0  0  0  0
   23.7580  -20.1646   -9.3725 O   0  0  0  0  0  0  0  0  0  0  0  0
   24.6825  -21.8629   -8.1357 O   0  0  0  0  0  0  0  0  0  0  0  0
  2  1  1  6
  3  2  1  0
  4  2  1  0
  4  6  1  0
  4  5  1  1
  6  7  2  0
  8  6  1  0
  8  9  1  0
  9 10  1  1
 11 10  1  0
 12 11  2  0
 13 12  1  0
 14 13  1  0
 14 15  2  0
 15 11  1  0
 16  9  1  0
 16 17  2  0
 19 18  1  6
 19 21  1  0
 19 20  1  0
 22 21  1  1
 22 23  1  0
 23 16  1  0
 24 26  1  0
 24 22  1  0
 25 24  2  0
M  END
$$$$
