THL.pdb
     RDKit          3D

 26 26  0  0  1  0  0  0  0  0999 V2000
   16.5903  -13.9291  -14.6727 C   0  0  0  0  0  0  0  0  0  0  0  0
   17.1153  -14.5603  -15.9378 C   0  0  1  0  0  0  0  0  0  0  0  0
   16.7333  -15.8950  -15.9649 O   0  0  0  0  0  0  0  0  0  0  0  0
   16.5360  -13.8904  -17.1586 C   0  0  2  0  0  0  0  0  0  0  0  0
   16.4607  -14.7387  -18.3045 N   0  0  0  0  0  0  0  0  0  0  0  0
   17.2350  -12.6067  -17.4081 C   0  0  0  0  0  0  0  0  0  0  0  0
   18.1975  -12.6242  -18.2111 O   0  0  0  0  0  0  0  0  0  0  0  0
   16.8774  -11.3822  -16.7962 N   0  0  0  0  0  0  0  0  0  0  0  0
   17.5468  -10.1155  -17.0724 C   0  0  1  0  0  0  0  0  0  0  0  0
   16.5871   -9.0145  -17.3060 C   0  0  0  0  0  0  0  0  0  0  0  0
   15.8285   -9.2119  -18.5597 C   0  0  0  0  0  0  0  0  0  0  0  0
   14.5102   -9.6135  -18.7421 C   0  0  0  0  0  0  0  0  0  0  0  0
   14.2538   -9.6961  -20.0582 N   0  0  0  0  0  0  0  0  0  0  0  0
   15.3620   -9.3618  -20.7367 C   0  0  0  0  0  0  0  0  0  0  0  0
   16.3064   -9.0714  -19.8330 N   0  0  0  0  0  0  0  0  0  0  0  0
   18.4170   -9.7793  -15.9235 C   0  0  0  0  0  0  0  0  0  0  0  0
   18.0201   -9.9505  -14.7260 O   0  0  0  0  0  0  0  0  0  0  0  0
   23.1843  -10.1675  -13.3901 C   0  0  0  0  0  0  0  0  0  0  0  0
   23.1380   -9.8031  -14.8312 C   0  0  2  0  0  0  0  0  0  0  0  0
   23.7698   -8.4032  -14.9628 C   0  0  0  0  0  0  0  0  0  0  0  0
   21.8744   -9.8949  -15.5668 C   0  0  0  0  0  0  0  0  0  0  0  0
   20.6719   -9.1725  -15.0629 C   0  0  2  0  0  0  0  0  0  0  0  0
   19.7031   -9.2623  -16.1972 N   0  0  0  0  0  0  0  0  0  0  0  0
   20.8667   -7.7412  -14.8647 C   0  0  0  0  0  0  0  0  0  0  0  0
   20.6879   -6.9023  -15.7889 O   0  0  0  0  0  0  0  0  0  0  0  0
   21.2697   -7.2592  -13.5974 O   0  0  0  0  0  0  0  0  0  0  0  0
  2  1  1  1
  3  2  1  0
  4  2  1  0
  4  6  1  0
  4  5  1  6
  6  7  2  0
  8  6  1  0
  8  9  1  0
  9 10  1  1
 11 10  1  0
 12 11  2  0
 13 12  1  0
 14 13  1  0
 14 15  2  0
 15 11  1  0
 16  9  1  0
 16 17  2  0
 19 18  1  1
 19 21  1  0
 19 20  1  0
 22 21  1  6
 22 23  1  0
 23 16  1  0
 24 26  1  0
 24 22  1  0
 25 24  2  0
M  END
$$$$
