HNK.pdb
     RDKit          3D

 28 28  0  0  1  0  0  0  0  0999 V2000
   25.7218  -21.2506  -16.4456 N   0  0  0  0  0  0  0  0  0  0  0  0
   25.3201  -22.6032  -16.1129 C   0  0  1  0  0  0  0  0  0  0  0  0
   26.4922  -23.2987  -15.4176 C   0  0  0  0  0  0  0  0  0  0  0  0
   27.6954  -23.2873  -16.2831 C   0  0  0  0  0  0  0  0  0  0  0  0
   27.8044  -22.8331  -17.5797 C   0  0  0  0  0  0  0  0  0  0  0  0
   29.0875  -23.0071  -17.9982 N   0  0  0  0  0  0  0  0  0  0  0  0
   29.7688  -23.5607  -16.9802 C   0  0  0  0  0  0  0  0  0  0  0  0
   28.9194  -23.7241  -15.9544 N   0  0  0  0  0  0  0  0  0  0  0  0
   24.1444  -22.5292  -15.2099 C   0  0  0  0  0  0  0  0  0  0  0  0
   23.6323  -23.5940  -14.7867 O   0  0  0  0  0  0  0  0  0  0  0  0
   20.3895  -21.1099  -12.1797 N   0  0  0  0  0  0  0  0  0  0  0  0
   21.1937  -19.9467  -12.2759 C   0  0  0  0  0  0  0  0  0  0  0  0
   20.9081  -18.9546  -11.5626 O   0  0  0  0  0  0  0  0  0  0  0  0
   22.3363  -19.9741  -13.2247 C   0  0  0  0  0  0  0  0  0  0  0  0
   22.3549  -21.2379  -14.0445 C   0  0  2  0  0  0  0  0  0  0  0  0
   23.5667  -21.3039  -14.7993 N   0  0  0  0  0  0  0  0  0  0  0  0
   21.1447  -21.3654  -14.8986 C   0  0  0  0  0  0  0  0  0  0  0  0
   21.0071  -20.5146  -15.8269 O   0  0  0  0  0  0  0  0  0  0  0  0
   20.1731  -22.3543  -14.7331 N   0  0  0  0  0  0  0  0  0  0  0  0
   18.9928  -22.4629  -15.6486 C   0  0  1  0  0  0  0  0  0  0  0  0
   18.6201  -23.8794  -15.7768 C   0  0  0  0  0  0  0  0  0  0  0  0
   17.5144  -24.3249  -16.6232 C   0  0  0  0  0  0  0  0  0  0  0  0
   17.1576  -25.7374  -16.7597 C   0  0  0  0  0  0  0  0  0  0  0  0
   16.0636  -26.1363  -17.6871 C   0  0  0  0  0  0  0  0  0  0  0  0
   15.8463  -27.5557  -17.7910 N   0  0  0  0  0  0  0  0  0  0  0  0
   17.9106  -21.6260  -15.0396 C   0  0  0  0  0  0  0  0  0  0  0  0
   17.0732  -20.8396  -15.8616 O   0  0  0  0  0  0  0  0  0  0  0  0
   17.6672  -21.5536  -13.8249 O   0  0  0  0  0  0  0  0  0  0  0  0
  2  1  1  1
  2  9  1  0
  3  2  1  0
  4  3  1  0
  5  4  2  0
  6  5  1  0
  7  6  1  0
  7  8  2  0
  8  4  1  0
  9 10  2  0
 11 12  1  0
 12 14  1  0
 13 12  2  0
 15 14  1  6
 15 17  1  0
 16  9  1  0
 16 15  1  0
 17 18  2  0
 19 20  1  0
 19 17  1  0
 20 26  1  0
 20 21  1  1
 22 21  1  0
 23 22  1  0
 24 23  1  0
 25 24  1  0
 26 28  2  0
 26 27  1  0
M  END
$$$$
