HNK.pdb
     RDKit          3D

 28 28  0  0  1  0  0  0  0  0999 V2000
   24.1426  -20.4368  -18.0051 N   0  0  0  0  0  0  0  0  0  0  0  0
   22.8418  -21.0562  -17.8446 C   0  0  1  0  0  0  0  0  0  0  0  0
   22.9794  -22.5523  -18.1339 C   0  0  0  0  0  0  0  0  0  0  0  0
   23.2218  -22.7860  -19.5773 C   0  0  0  0  0  0  0  0  0  0  0  0
   22.3602  -23.3287  -20.5060 C   0  0  0  0  0  0  0  0  0  0  0  0
   22.9835  -23.3609  -21.7153 N   0  0  0  0  0  0  0  0  0  0  0  0
   24.2139  -22.8469  -21.5450 C   0  0  0  0  0  0  0  0  0  0  0  0
   24.3443  -22.5051  -20.2541 N   0  0  0  0  0  0  0  0  0  0  0  0
   22.3902  -20.8318  -16.4485 C   0  0  0  0  0  0  0  0  0  0  0  0
   22.8572  -21.5523  -15.5331 O   0  0  0  0  0  0  0  0  0  0  0  0
   21.0909  -18.8019  -11.9654 N   0  0  0  0  0  0  0  0  0  0  0  0
   20.6157  -17.9494  -12.9933 C   0  0  0  0  0  0  0  0  0  0  0  0
   19.8150  -17.0309  -12.6937 O   0  0  0  0  0  0  0  0  0  0  0  0
   21.0995  -18.1984  -14.3754 C   0  0  0  0  0  0  0  0  0  0  0  0
   20.9858  -19.6516  -14.7566 C   0  0  2  0  0  0  0  0  0  0  0  0
   21.4488  -19.8352  -16.0961 N   0  0  0  0  0  0  0  0  0  0  0  0
   19.6090  -20.1743  -14.5535 C   0  0  0  0  0  0  0  0  0  0  0  0
   18.7876  -20.0075  -15.5033 O   0  0  0  0  0  0  0  0  0  0  0  0
   19.1846  -20.8260  -13.3940 N   0  0  0  0  0  0  0  0  0  0  0  0
   17.8388  -21.4766  -13.3013 C   0  0  1  0  0  0  0  0  0  0  0  0
   17.8274  -22.3809  -12.1421 C   0  0  0  0  0  0  0  0  0  0  0  0
   18.1833  -23.7950  -12.2483 C   0  0  0  0  0  0  0  0  0  0  0  0
   18.1182  -24.7031  -11.1029 C   0  0  0  0  0  0  0  0  0  0  0  0
   18.4548  -26.1422  -11.2815 C   0  0  0  0  0  0  0  0  0  0  0  0
   18.2574  -26.9592  -10.1126 N   0  0  0  0  0  0  0  0  0  0  0  0
   16.8421  -20.3649  -13.1858 C   0  0  0  0  0  0  0  0  0  0  0  0
   15.4739  -20.6083  -13.4392 O   0  0  0  0  0  0  0  0  0  0  0  0
   17.1155  -19.1952  -12.8742 O   0  0  0  0  0  0  0  0  0  0  0  0
  2  1  1  1
  2  9  1  0
  3  2  1  0
  4  3  1  0
  5  4  2  0
  6  5  1  0
  7  6  1  0
  7  8  2  0
  8  4  1  0
  9 10  2  0
 11 12  1  0
 12 14  1  0
 13 12  2  0
 15 14  1  6
 15 17  1  0
 16  9  1  0
 16 15  1  0
 17 18  2  0
 19 20  1  0
 19 17  1  0
 20 26  1  0
 20 21  1  1
 22 21  1  0
 23 22  1  0
 24 23  1  0
 25 24  1  0
 26 28  2  0
 26 27  1  0
M  END
$$$$
