HNK.pdb
     RDKit          3D

 28 28  0  0  1  0  0  0  0  0999 V2000
   18.3882  -15.0761    7.7965 N   0  0  0  0  0  0  0  0  0  0  0  0
   17.0686  -15.3647    7.2702 C   0  0  1  0  0  0  0  0  0  0  0  0
   16.9615  -14.7536    5.8716 C   0  0  0  0  0  0  0  0  0  0  0  0
   17.9945  -13.7087    5.6767 C   0  0  0  0  0  0  0  0  0  0  0  0
   18.9243  -13.2538    6.5865 C   0  0  0  0  0  0  0  0  0  0  0  0
   19.6807  -12.2897    5.9948 N   0  0  0  0  0  0  0  0  0  0  0  0
   19.2311  -12.1446    4.7362 C   0  0  0  0  0  0  0  0  0  0  0  0
   18.2164  -13.0043    4.5579 N   0  0  0  0  0  0  0  0  0  0  0  0
   16.9045  -16.8388    7.2118 C   0  0  0  0  0  0  0  0  0  0  0  0
   15.7891  -17.3162    6.8906 O   0  0  0  0  0  0  0  0  0  0  0  0
   16.9647  -21.7342    7.3811 N   0  0  0  0  0  0  0  0  0  0  0  0
   17.6552  -21.2255    6.2525 C   0  0  0  0  0  0  0  0  0  0  0  0
   17.8489  -21.9832    5.2713 O   0  0  0  0  0  0  0  0  0  0  0  0
   18.1114  -19.8127    6.3016 C   0  0  0  0  0  0  0  0  0  0  0  0
   17.7530  -19.1521    7.6074 C   0  0  2  0  0  0  0  0  0  0  0  0
   17.9552  -17.7411    7.5041 N   0  0  0  0  0  0  0  0  0  0  0  0
   18.4869  -19.7500    8.7536 C   0  0  0  0  0  0  0  0  0  0  0  0
   19.7024  -20.0501    8.5612 O   0  0  0  0  0  0  0  0  0  0  0  0
   17.9167  -19.9921   10.0049 N   0  0  0  0  0  0  0  0  0  0  0  0
   18.7172  -20.5436   11.1442 C   0  0  1  0  0  0  0  0  0  0  0  0
   18.8476  -21.9981   10.9727 C   0  0  0  0  0  0  0  0  0  0  0  0
   17.6880  -22.8860   10.9066 C   0  0  0  0  0  0  0  0  0  0  0  0
   17.8238  -24.3410   10.8327 C   0  0  0  0  0  0  0  0  0  0  0  0
   16.6080  -25.1990   10.8716 C   0  0  0  0  0  0  0  0  0  0  0  0
   16.8637  -26.6141   10.7998 N   0  0  0  0  0  0  0  0  0  0  0  0
   20.0339  -19.8309   11.1161 C   0  0  0  0  0  0  0  0  0  0  0  0
   21.0170  -20.1159   12.0896 O   0  0  0  0  0  0  0  0  0  0  0  0
   20.3598  -18.9734   10.2803 O   0  0  0  0  0  0  0  0  0  0  0  0
  2  1  1  6
  2  9  1  0
  3  2  1  0
  4  3  1  0
  5  4  2  0
  6  5  1  0
  7  6  1  0
  7  8  2  0
  8  4  1  0
  9 10  2  0
 11 12  1  0
 12 14  1  0
 13 12  2  0
 15 14  1  6
 15 17  1  0
 16  9  1  0
 16 15  1  0
 17 18  2  0
 19 20  1  0
 19 17  1  0
 20 26  1  0
 20 21  1  6
 22 21  1  0
 23 22  1  0
 24 23  1  0
 25 24  1  0
 26 28  2  0
 26 27  1  0
M  END
$$$$
