HNK.pdb
     RDKit          3D

 28 28  0  0  1  0  0  0  0  0999 V2000
   27.5881  -19.9958  -13.5730 N   0  0  0  0  0  0  0  0  0  0  0  0
   26.7017  -20.7978  -12.7528 C   0  0  1  0  0  0  0  0  0  0  0  0
   27.1220  -20.6405  -11.2900 C   0  0  0  0  0  0  0  0  0  0  0  0
   28.5065  -21.1296  -11.0879 C   0  0  0  0  0  0  0  0  0  0  0  0
   29.3632  -21.6649  -12.0254 C   0  0  0  0  0  0  0  0  0  0  0  0
   30.5373  -21.9821  -11.4150 N   0  0  0  0  0  0  0  0  0  0  0  0
   30.4163  -21.6506  -10.1179 C   0  0  0  0  0  0  0  0  0  0  0  0
   29.1896  -21.1388   -9.9346 N   0  0  0  0  0  0  0  0  0  0  0  0
   25.3145  -20.3099  -12.9547 C   0  0  0  0  0  0  0  0  0  0  0  0
   25.0430  -19.1145  -12.6853 O   0  0  0  0  0  0  0  0  0  0  0  0
   20.8601  -19.8659  -16.5710 N   0  0  0  0  0  0  0  0  0  0  0  0
   21.4440  -19.5908  -15.3091 C   0  0  0  0  0  0  0  0  0  0  0  0
   20.7908  -18.9174  -14.4756 O   0  0  0  0  0  0  0  0  0  0  0  0
   22.8066  -20.1218  -15.0485 C   0  0  0  0  0  0  0  0  0  0  0  0
   22.9419  -20.6565  -13.6465 C   0  0  2  0  0  0  0  0  0  0  0  0
   24.2725  -21.1356  -13.4407 N   0  0  0  0  0  0  0  0  0  0  0  0
   21.9130  -21.6852  -13.3413 C   0  0  0  0  0  0  0  0  0  0  0  0
   22.1348  -22.8592  -13.7622 O   0  0  0  0  0  0  0  0  0  0  0  0
   20.7397  -21.4286  -12.6292 N   0  0  0  0  0  0  0  0  0  0  0  0
   19.7337  -22.5027  -12.3511 C   0  0  1  0  0  0  0  0  0  0  0  0
   19.5861  -22.6496  -10.8956 C   0  0  0  0  0  0  0  0  0  0  0  0
   18.8197  -23.7385  -10.2920 C   0  0  0  0  0  0  0  0  0  0  0  0
   18.7504  -23.9330   -8.8434 C   0  0  0  0  0  0  0  0  0  0  0  0
   17.9993  -25.0927   -8.2893 C   0  0  0  0  0  0  0  0  0  0  0  0
   17.8965  -25.1164   -6.8534 N   0  0  0  0  0  0  0  0  0  0  0  0
   18.4673  -22.0773  -13.0276 C   0  0  0  0  0  0  0  0  0  0  0  0
   17.6524  -23.0322  -13.6751 O   0  0  0  0  0  0  0  0  0  0  0  0
   18.0450  -20.9113  -13.0762 O   0  0  0  0  0  0  0  0  0  0  0  0
  2  1  1  6
  2  9  1  0
  3  2  1  0
  4  3  1  0
  5  4  2  0
  6  5  1  0
  7  6  1  0
  7  8  2  0
  8  4  1  0
  9 10  2  0
 11 12  1  0
 12 14  1  0
 13 12  2  0
 15 14  1  6
 15 17  1  0
 16  9  1  0
 16 15  1  0
 17 18  2  0
 19 20  1  0
 19 17  1  0
 20 26  1  0
 20 21  1  1
 22 21  1  0
 23 22  1  0
 24 23  1  0
 25 24  1  0
 26 28  2  0
 26 27  1  0
M  END
$$$$
