HNK.pdb
     RDKit          3D

 28 28  0  0  1  0  0  0  0  0999 V2000
   18.0605  -26.3942   -8.8420 N   0  0  0  0  0  0  0  0  0  0  0  0
   18.1442  -25.4342   -7.7589 C   0  0  1  0  0  0  0  0  0  0  0  0
   17.2376  -24.2479   -8.0930 C   0  0  0  0  0  0  0  0  0  0  0  0
   17.7908  -23.4696   -9.2267 C   0  0  0  0  0  0  0  0  0  0  0  0
   19.1047  -23.1247   -9.4588 C   0  0  0  0  0  0  0  0  0  0  0  0
   19.1721  -22.4096  -10.6146 N   0  0  0  0  0  0  0  0  0  0  0  0
   17.9212  -22.3094  -11.0966 C   0  0  0  0  0  0  0  0  0  0  0  0
   17.0999  -22.9514  -10.2519 N   0  0  0  0  0  0  0  0  0  0  0  0
   17.6951  -26.1018   -6.5115 C   0  0  0  0  0  0  0  0  0  0  0  0
   16.6541  -26.8024   -6.5353 O   0  0  0  0  0  0  0  0  0  0  0  0
   17.2627  -27.9871   -1.8583 N   0  0  0  0  0  0  0  0  0  0  0  0
   18.6082  -27.5444   -1.9121 C   0  0  0  0  0  0  0  0  0  0  0  0
   19.3628  -27.7869   -0.9393 O   0  0  0  0  0  0  0  0  0  0  0  0
   19.0463  -26.8135   -3.1288 C   0  0  0  0  0  0  0  0  0  0  0  0
   17.8965  -26.5384   -4.0627 C   0  0  2  0  0  0  0  0  0  0  0  0
   18.3907  -25.9851   -5.2842 N   0  0  0  0  0  0  0  0  0  0  0  0
   16.8576  -25.6837   -3.4299 C   0  0  0  0  0  0  0  0  0  0  0  0
   17.0366  -24.4308   -3.4835 O   0  0  0  0  0  0  0  0  0  0  0  0
   15.7189  -26.1812   -2.7934 N   0  0  0  0  0  0  0  0  0  0  0  0
   14.6810  -25.2736   -2.2085 C   0  0  1  0  0  0  0  0  0  0  0  0
   13.3572  -25.6922   -2.6923 C   0  0  0  0  0  0  0  0  0  0  0  0
   12.1230  -25.0363   -2.2631 C   0  0  0  0  0  0  0  0  0  0  0  0
   10.8072  -25.4631   -2.7400 C   0  0  0  0  0  0  0  0  0  0  0  0
    9.5938  -24.6981   -2.3421 C   0  0  0  0  0  0  0  0  0  0  0  0
    8.3695  -25.1442   -2.9545 N   0  0  0  0  0  0  0  0  0  0  0  0
   14.8207  -25.3795   -0.7213 C   0  0  0  0  0  0  0  0  0  0  0  0
   14.6086  -24.2461    0.0947 O   0  0  0  0  0  0  0  0  0  0  0  0
   15.1189  -26.4162   -0.1078 O   0  0  0  0  0  0  0  0  0  0  0  0
  2  1  1  6
  2  9  1  0
  3  2  1  0
  4  3  1  0
  5  4  2  0
  6  5  1  0
  7  6  1  0
  7  8  2  0
  8  4  1  0
  9 10  2  0
 11 12  1  0
 12 14  1  0
 13 12  2  0
 15 14  1  1
 15 17  1  0
 16  9  1  0
 16 15  1  0
 17 18  2  0
 19 20  1  0
 19 17  1  0
 20 26  1  0
 20 21  1  1
 22 21  1  0
 23 22  1  0
 24 23  1  0
 25 24  1  0
 26 28  2  0
 26 27  1  0
M  END
$$$$
