HNK.pdb
     RDKit          3D

 28 28  0  0  1  0  0  0  0  0999 V2000
   22.0636  -10.0577  -18.1833 N   0  0  0  0  0  0  0  0  0  0  0  0
   21.0802   -9.5128  -19.0985 C   0  0  1  0  0  0  0  0  0  0  0  0
   20.0735  -10.6138  -19.4385 C   0  0  0  0  0  0  0  0  0  0  0  0
   20.7236  -11.6952  -20.2160 C   0  0  0  0  0  0  0  0  0  0  0  0
   21.0845  -11.6857  -21.5461 C   0  0  0  0  0  0  0  0  0  0  0  0
   21.6539  -12.8827  -21.8539 N   0  0  0  0  0  0  0  0  0  0  0  0
   21.6489  -13.6277  -20.7349 C   0  0  0  0  0  0  0  0  0  0  0  0
   21.0863  -12.9014  -19.7570 N   0  0  0  0  0  0  0  0  0  0  0  0
   20.4044   -8.3734  -18.4289 C   0  0  0  0  0  0  0  0  0  0  0  0
   19.1884   -8.4730  -18.1345 O   0  0  0  0  0  0  0  0  0  0  0  0
   20.1296   -7.2132  -15.0884 N   0  0  0  0  0  0  0  0  0  0  0  0
   21.0593   -6.1442  -15.1322 C   0  0  0  0  0  0  0  0  0  0  0  0
   21.6683   -5.8303  -14.0810 O   0  0  0  0  0  0  0  0  0  0  0  0
   21.2572   -5.4545  -16.4329 C   0  0  0  0  0  0  0  0  0  0  0  0
   20.4001   -6.0494  -17.5197 C   0  0  2  0  0  0  0  0  0  0  0  0
   21.0712   -7.1680  -18.1035 N   0  0  0  0  0  0  0  0  0  0  0  0
   19.9991   -5.0354  -18.5302 C   0  0  0  0  0  0  0  0  0  0  0  0
   20.6373   -5.0342  -19.6244 O   0  0  0  0  0  0  0  0  0  0  0  0
   18.9765   -4.1043  -18.3386 N   0  0  0  0  0  0  0  0  0  0  0  0
   18.6186   -3.0971  -19.3876 C   0  0  1  0  0  0  0  0  0  0  0  0
   17.3244   -2.4909  -19.0420 C   0  0  0  0  0  0  0  0  0  0  0  0
   16.6965   -1.4608  -19.8679 C   0  0  0  0  0  0  0  0  0  0  0  0
   15.4445   -0.8090  -19.4824 C   0  0  0  0  0  0  0  0  0  0  0  0
   14.8689    0.2556  -20.3492 C   0  0  0  0  0  0  0  0  0  0  0  0
   13.6715    0.8701  -19.8381 N   0  0  0  0  0  0  0  0  0  0  0  0
   19.7400   -2.1050  -19.4171 C   0  0  0  0  0  0  0  0  0  0  0  0
   20.1497   -1.5321  -20.6416 O   0  0  0  0  0  0  0  0  0  0  0  0
   20.3738   -1.7195  -18.4222 O   0  0  0  0  0  0  0  0  0  0  0  0
  2  1  1  1
  2  9  1  0
  3  2  1  0
  4  3  1  0
  5  4  2  0
  6  5  1  0
  7  6  1  0
  7  8  2  0
  8  4  1  0
  9 10  2  0
 11 12  1  0
 12 14  1  0
 13 12  2  0
 15 14  1  1
 15 17  1  0
 16  9  1  0
 16 15  1  0
 17 18  2  0
 19 20  1  0
 19 17  1  0
 20 26  1  0
 20 21  1  1
 22 21  1  0
 23 22  1  0
 24 23  1  0
 25 24  1  0
 26 28  2  0
 26 27  1  0
M  END
$$$$
