HNK.pdb
     RDKit          3D

 28 28  0  0  1  0  0  0  0  0999 V2000
   18.6768  -12.2409  -15.9324 N   0  0  0  0  0  0  0  0  0  0  0  0
   18.8976  -10.9447  -16.5431 C   0  0  1  0  0  0  0  0  0  0  0  0
   17.5390  -10.2765  -16.7640 C   0  0  0  0  0  0  0  0  0  0  0  0
   16.7563  -11.0082  -17.7882 C   0  0  0  0  0  0  0  0  0  0  0  0
   16.9496  -11.0251  -19.1526 C   0  0  0  0  0  0  0  0  0  0  0  0
   16.0067  -11.8267  -19.7185 N   0  0  0  0  0  0  0  0  0  0  0  0
   15.2372  -12.3027  -18.7243 C   0  0  0  0  0  0  0  0  0  0  0  0
   15.6990  -11.8024  -17.5681 N   0  0  0  0  0  0  0  0  0  0  0  0
   19.7363  -10.1355  -15.6240 C   0  0  0  0  0  0  0  0  0  0  0  0
   19.4067  -10.0468  -14.4162 O   0  0  0  0  0  0  0  0  0  0  0  0
   22.5326  -11.1397  -14.3677 N   0  0  0  0  0  0  0  0  0  0  0  0
   23.5604  -10.2904  -14.8487 C   0  0  0  0  0  0  0  0  0  0  0  0
   24.7495  -10.6864  -14.7861 O   0  0  0  0  0  0  0  0  0  0  0  0
   23.1626   -8.9708  -15.4026 C   0  0  0  0  0  0  0  0  0  0  0  0
   21.7057   -8.6754  -15.1576 C   0  0  2  0  0  0  0  0  0  0  0  0
   20.9011   -9.4519  -16.0477 N   0  0  0  0  0  0  0  0  0  0  0  0
   21.4101   -7.2211  -15.2453 C   0  0  0  0  0  0  0  0  0  0  0  0
   21.9609   -6.4721  -14.3849 O   0  0  0  0  0  0  0  0  0  0  0  0
   20.5741   -6.6510  -16.2073 N   0  0  0  0  0  0  0  0  0  0  0  0
   20.2790   -5.1828  -16.2271 C   0  0  1  0  0  0  0  0  0  0  0  0
   19.7191   -4.8287  -17.5397 C   0  0  0  0  0  0  0  0  0  0  0  0
   18.2956   -4.9620  -17.8458 C   0  0  0  0  0  0  0  0  0  0  0  0
   17.7388   -4.5815  -19.1443 C   0  0  0  0  0  0  0  0  0  0  0  0
   16.2886   -4.7827  -19.4133 C   0  0  0  0  0  0  0  0  0  0  0  0
   15.8493   -4.3511  -20.7147 N   0  0  0  0  0  0  0  0  0  0  0  0
   19.3282   -4.9304  -15.0981 C   0  0  0  0  0  0  0  0  0  0  0  0
   19.1993   -3.6329  -14.5545 O   0  0  0  0  0  0  0  0  0  0  0  0
   18.6086   -5.7921  -14.5691 O   0  0  0  0  0  0  0  0  0  0  0  0
  2  1  1  1
  2  9  1  0
  3  2  1  0
  4  3  1  0
  5  4  2  0
  6  5  1  0
  7  6  1  0
  7  8  2  0
  8  4  1  0
  9 10  2  0
 11 12  1  0
 12 14  1  0
 13 12  2  0
 15 14  1  6
 15 17  1  0
 16  9  1  0
 16 15  1  0
 17 18  2  0
 19 20  1  0
 19 17  1  0
 20 26  1  0
 20 21  1  6
 22 21  1  0
 23 22  1  0
 24 23  1  0
 25 24  1  0
 26 28  2  0
 26 27  1  0
M  END
$$$$
