HRD.pdb
     RDKit          3D

 30 30  0  0  1  0  0  0  0  0999 V2000
    6.2429  -15.6596   26.0103 N   0  0  0  0  0  0  0  0  0  0  0  0
    7.0330  -15.0539   24.9296 C   0  0  1  0  0  0  0  0  0  0  0  0
    8.1328  -14.3013   25.6528 C   0  0  0  0  0  0  0  0  0  0  0  0
    7.4841  -13.2001   26.4087 C   0  0  0  0  0  0  0  0  0  0  0  0
    6.5250  -12.2905   26.0027 C   0  0  0  0  0  0  0  0  0  0  0  0
    6.2180  -11.4617   27.0089 N   0  0  0  0  0  0  0  0  0  0  0  0
    6.9555  -11.8110   28.0627 C   0  0  0  0  0  0  0  0  0  0  0  0
    7.7268  -12.8643   27.7088 N   0  0  0  0  0  0  0  0  0  0  0  0
    7.5535  -16.1472   24.0945 C   0  0  0  0  0  0  0  0  0  0  0  0
    7.5794  -17.3028   24.5705 O   0  0  0  0  0  0  0  0  0  0  0  0
    7.5624  -12.8505   19.2249 N   0  0  0  0  0  0  0  0  0  0  0  0
    8.5387  -13.2144   18.2793 C   0  0  0  0  0  0  0  0  0  0  0  0
    9.3733  -12.3283   17.8338 N   0  0  0  0  0  0  0  0  0  0  0  0
    8.6514  -14.5391   17.7782 N   0  0  0  0  0  0  0  0  0  0  0  0
    8.0071  -15.6555   18.4319 C   0  0  0  0  0  0  0  0  0  0  0  0
    8.4847  -15.8349   19.8623 C   0  0  0  0  0  0  0  0  0  0  0  0
    7.8905  -17.0266   20.5517 C   0  0  0  0  0  0  0  0  0  0  0  0
    8.3612  -17.1585   21.9343 C   0  0  2  0  0  0  0  0  0  0  0  0
    8.0366  -16.0193   22.7841 N   0  0  0  0  0  0  0  0  0  0  0  0
    9.8253  -17.3170   22.0039 C   0  0  0  0  0  0  0  0  0  0  0  0
   10.3960  -18.2601   21.4243 O   0  0  0  0  0  0  0  0  0  0  0  0
   10.1000  -12.5151   17.1276 N   0  0  0  0  0  0  0  0  0  0  0  0
   10.6706  -16.4207   22.7247 C   0  0  2  0  0  0  0  0  0  0  0  0
   12.0586  -16.7106   23.0232 C   0  0  0  0  0  0  0  0  0  0  0  0
   12.8618  -15.4710   22.6466 C   0  0  0  0  0  0  0  0  0  0  0  0
   12.9845  -15.3755   21.1769 O   0  0  0  0  0  0  0  0  0  0  0  0
   12.3973  -16.2306   20.4406 C   0  0  0  0  0  0  0  0  0  0  0  0
   12.2629  -17.0067   24.4499 O   0  0  0  0  0  0  0  0  0  0  0  0
   13.5224  -17.3509   24.8996 O   0  0  0  0  0  0  0  0  0  0  0  0
   13.7309  -14.3692   20.5936 O   0  0  0  0  0  0  0  0  0  0  0  0
  2  1  1  1
  2  3  1  0
  2  9  1  0
  3  4  1  0
  4  5  2  0
  4  8  1  0
  5  6  1  0
  6  7  1  0
  8  7  2  0
  9 10  2  0
 12 11  1  0
 12 14  1  0
 13 12  2  0
 15 14  1  0
 15 16  1  0
 18 17  1  6
 17 16  1  0
 19  9  1  0
 19 18  1  0
 20 21  2  0
 20 18  1  0
 22 20  1  0
 23 27  1  0
 23 22  1  0
 23 24  1  6
 25 24  1  0
 25 26  2  0
 27 28  1  0
 29 25  1  0
 30 27  2  0
M  END
$$$$
