HRD.pdb
     RDKit          3D

 30 30  0  0  1  0  0  0  0  0999 V2000
    9.6980  -16.0685   17.4491 N   0  0  0  0  0  0  0  0  0  0  0  0
   10.4849  -15.1791   18.3146 C   0  0  1  0  0  0  0  0  0  0  0  0
    9.6350  -15.0295   19.5612 C   0  0  0  0  0  0  0  0  0  0  0  0
    8.5078  -14.1269   19.2156 C   0  0  0  0  0  0  0  0  0  0  0  0
    8.1477  -13.5848   17.9954 C   0  0  0  0  0  0  0  0  0  0  0  0
    7.0580  -12.8186   18.1329 N   0  0  0  0  0  0  0  0  0  0  0  0
    6.6988  -12.8493   19.4161 C   0  0  0  0  0  0  0  0  0  0  0  0
    7.5719  -13.6400   20.0810 N   0  0  0  0  0  0  0  0  0  0  0  0
   11.7686  -15.8447   18.5843 C   0  0  0  0  0  0  0  0  0  0  0  0
   11.7970  -17.0938   18.6269 O   0  0  0  0  0  0  0  0  0  0  0  0
   14.6230  -14.1899   12.7203 N   0  0  0  0  0  0  0  0  0  0  0  0
   15.5132  -14.0113   13.7953 C   0  0  0  0  0  0  0  0  0  0  0  0
   16.0096  -12.8392   14.0394 N   0  0  0  0  0  0  0  0  0  0  0  0
   15.9026  -15.0833   14.6426 N   0  0  0  0  0  0  0  0  0  0  0  0
   14.9280  -15.9288   15.2939 C   0  0  0  0  0  0  0  0  0  0  0  0
   14.4427  -15.3373   16.6058 C   0  0  0  0  0  0  0  0  0  0  0  0
   15.1262  -15.9058   17.8134 C   0  0  0  0  0  0  0  0  0  0  0  0
   14.2527  -15.9150   18.9913 C   0  0  2  0  0  0  0  0  0  0  0  0
   12.9952  -15.2015   18.8046 N   0  0  0  0  0  0  0  0  0  0  0  0
   14.9027  -15.2993   20.1626 C   0  0  0  0  0  0  0  0  0  0  0  0
   15.1293  -14.0753   20.1999 O   0  0  0  0  0  0  0  0  0  0  0  0
   16.6430  -12.6261   14.8237 N   0  0  0  0  0  0  0  0  0  0  0  0
   15.3082  -16.0472   21.3088 C   0  0  1  0  0  0  0  0  0  0  0  0
   16.0165  -15.4580   22.4272 C   0  0  0  0  0  0  0  0  0  0  0  0
   16.0187  -16.4932   23.5461 C   0  0  0  0  0  0  0  0  0  0  0  0
   14.6318  -16.7954   23.9577 O   0  0  0  0  0  0  0  0  0  0  0  0
   13.7696  -15.8609   23.9945 C   0  0  0  0  0  0  0  0  0  0  0  0
   17.4046  -15.1161   22.0793 O   0  0  0  0  0  0  0  0  0  0  0  0
   18.2095  -14.5014   23.0180 O   0  0  0  0  0  0  0  0  0  0  0  0
   14.2614  -18.0810   24.3045 O   0  0  0  0  0  0  0  0  0  0  0  0
  2  1  1  6
  2  3  1  0
  2  9  1  0
  3  4  1  0
  4  5  2  0
  4  8  1  0
  5  6  1  0
  6  7  1  0
  8  7  2  0
  9 10  2  0
 12 11  1  0
 12 14  1  0
 13 12  2  0
 15 14  1  0
 15 16  1  0
 18 17  1  6
 17 16  1  0
 19  9  1  0
 19 18  1  0
 20 21  2  0
 20 18  1  0
 22 20  1  0
 23 27  1  0
 23 22  1  0
 23 24  1  1
 25 24  1  0
 25 26  2  0
 27 28  1  0
 29 25  1  0
 30 27  2  0
M  END
$$$$
