HRD.pdb
     RDKit          3D

 30 30  0  0  1  0  0  0  0  0999 V2000
    6.8805  -16.8940   26.4274 N   0  0  0  0  0  0  0  0  0  0  0  0
    6.9754  -15.5984   25.7407 C   0  0  1  0  0  0  0  0  0  0  0  0
    7.8740  -14.7696   26.6377 C   0  0  0  0  0  0  0  0  0  0  0  0
    7.0882  -13.5858   27.0692 C   0  0  0  0  0  0  0  0  0  0  0  0
    6.2502  -12.7633   26.3387 C   0  0  0  0  0  0  0  0  0  0  0  0
    5.7405  -11.8065   27.1249 N   0  0  0  0  0  0  0  0  0  0  0  0
    6.2272  -11.9868   28.3525 C   0  0  0  0  0  0  0  0  0  0  0  0
    7.0457  -13.0635   28.3290 N   0  0  0  0  0  0  0  0  0  0  0  0
    7.5694  -15.8406   24.4170 C   0  0  0  0  0  0  0  0  0  0  0  0
    8.0870  -16.9554   24.1890 O   0  0  0  0  0  0  0  0  0  0  0  0
    8.5979  -14.5132   15.4353 N   0  0  0  0  0  0  0  0  0  0  0  0
    8.3600  -13.9346   16.6956 C   0  0  0  0  0  0  0  0  0  0  0  0
    9.1065  -12.9614   17.1147 N   0  0  0  0  0  0  0  0  0  0  0  0
    7.3159  -14.3813   17.5494 N   0  0  0  0  0  0  0  0  0  0  0  0
    7.5750  -15.2482   18.6763 C   0  0  0  0  0  0  0  0  0  0  0  0
    8.4971  -14.6022   19.6956 C   0  0  0  0  0  0  0  0  0  0  0  0
    7.8271  -14.2839   20.9988 C   0  0  0  0  0  0  0  0  0  0  0  0
    8.2042  -15.2237   22.0595 C   0  0  2  0  0  0  0  0  0  0  0  0
    7.6148  -14.9219   23.3584 N   0  0  0  0  0  0  0  0  0  0  0  0
    9.6630  -15.2586   22.2702 C   0  0  0  0  0  0  0  0  0  0  0  0
   10.2302  -14.3978   22.9688 O   0  0  0  0  0  0  0  0  0  0  0  0
    8.9498  -12.4418   17.9906 N   0  0  0  0  0  0  0  0  0  0  0  0
   10.5067  -16.2590   21.7003 C   0  0  2  0  0  0  0  0  0  0  0  0
   11.9487  -16.2517   21.8422 C   0  0  0  0  0  0  0  0  0  0  0  0
   12.3906  -17.7060   21.9583 C   0  0  0  0  0  0  0  0  0  0  0  0
   12.0643  -18.2276   23.3020 O   0  0  0  0  0  0  0  0  0  0  0  0
   11.1937  -19.1469   23.4247 C   0  0  0  0  0  0  0  0  0  0  0  0
   12.6112  -15.6340   20.6827 O   0  0  0  0  0  0  0  0  0  0  0  0
   13.9873  -15.5194   20.6668 O   0  0  0  0  0  0  0  0  0  0  0  0
   12.6928  -17.7271   24.4265 O   0  0  0  0  0  0  0  0  0  0  0  0
  2  1  1  1
  2  3  1  0
  2  9  1  0
  3  4  1  0
  4  5  2  0
  4  8  1  0
  5  6  1  0
  6  7  1  0
  8  7  2  0
  9 10  2  0
 12 11  1  0
 12 14  1  0
 13 12  2  0
 15 14  1  0
 15 16  1  0
 18 17  1  6
 17 16  1  0
 19  9  1  0
 19 18  1  0
 20 21  2  0
 20 18  1  0
 22 20  1  0
 23 27  1  0
 23 22  1  0
 23 24  1  1
 25 24  1  0
 25 26  2  0
 27 28  1  0
 29 25  1  0
 30 27  2  0
M  END
$$$$
