HRD.pdb
     RDKit          3D

 30 30  0  0  1  0  0  0  0  0999 V2000
   10.4563  -13.7536   20.0996 N   0  0  0  0  0  0  0  0  0  0  0  0
    9.9309  -15.1253   20.0605 C   0  0  1  0  0  0  0  0  0  0  0  0
    9.3340  -15.2532   18.6726 C   0  0  0  0  0  0  0  0  0  0  0  0
    8.3127  -14.1840   18.5362 C   0  0  0  0  0  0  0  0  0  0  0  0
    7.9948  -13.1467   19.3936 C   0  0  0  0  0  0  0  0  0  0  0  0
    7.0026  -12.4088   18.8793 N   0  0  0  0  0  0  0  0  0  0  0  0
    6.6666  -12.9416   17.7046 C   0  0  0  0  0  0  0  0  0  0  0  0
    7.4554  -14.0187   17.4877 N   0  0  0  0  0  0  0  0  0  0  0  0
   11.0629  -16.0400   20.2735 C   0  0  0  0  0  0  0  0  0  0  0  0
   10.8560  -17.2714   20.2135 O   0  0  0  0  0  0  0  0  0  0  0  0
   15.2490  -16.4195   16.4023 N   0  0  0  0  0  0  0  0  0  0  0  0
   15.7756  -15.1179   16.3099 C   0  0  0  0  0  0  0  0  0  0  0  0
   15.8253  -14.5175   15.1623 N   0  0  0  0  0  0  0  0  0  0  0  0
   16.2682  -14.4178   17.4438 N   0  0  0  0  0  0  0  0  0  0  0  0
   16.2438  -15.0010   18.7659 C   0  0  0  0  0  0  0  0  0  0  0  0
   14.8517  -15.4596   19.1638 C   0  0  0  0  0  0  0  0  0  0  0  0
   14.7951  -16.1172   20.5103 C   0  0  0  0  0  0  0  0  0  0  0  0
   13.4517  -16.6111   20.8295 C   0  0  2  0  0  0  0  0  0  0  0  0
   12.3850  -15.6589   20.5449 N   0  0  0  0  0  0  0  0  0  0  0  0
   13.3188  -16.9604   22.2556 C   0  0  0  0  0  0  0  0  0  0  0  0
   13.4397  -16.0935   23.1416 O   0  0  0  0  0  0  0  0  0  0  0  0
   16.1411  -13.5462   15.0256 N   0  0  0  0  0  0  0  0  0  0  0  0
   13.0487  -18.2866   22.7090 C   0  0  1  0  0  0  0  0  0  0  0  0
   13.0162  -18.6517   24.1109 C   0  0  0  0  0  0  0  0  0  0  0  0
   11.9271  -19.7063   24.2697 C   0  0  0  0  0  0  0  0  0  0  0  0
   11.8646  -20.1607   25.6746 O   0  0  0  0  0  0  0  0  0  0  0  0
   12.5861  -19.5890   26.5525 C   0  0  0  0  0  0  0  0  0  0  0  0
   14.3009  -19.2086   24.5630 O   0  0  0  0  0  0  0  0  0  0  0  0
   15.3314  -19.3640   23.6570 O   0  0  0  0  0  0  0  0  0  0  0  0
   11.0326  -21.2002   26.0452 O   0  0  0  0  0  0  0  0  0  0  0  0
  2  1  1  6
  2  3  1  0
  2  9  1  0
  3  4  1  0
  4  5  2  0
  4  8  1  0
  5  6  1  0
  6  7  1  0
  8  7  2  0
  9 10  2  0
 12 11  1  0
 12 14  1  0
 13 12  2  0
 15 14  1  0
 15 16  1  0
 18 17  1  1
 17 16  1  0
 19  9  1  0
 19 18  1  0
 20 21  2  0
 20 18  1  0
 22 20  1  0
 23 27  1  0
 23 22  1  0
 23 24  1  6
 25 24  1  0
 25 26  2  0
 27 28  1  0
 29 25  1  0
 30 27  2  0
M  END
$$$$
