HRD.pdb
     RDKit          3D

 30 30  0  0  1  0  0  0  0  0999 V2000
    6.4270  -16.4936   25.8433 N   0  0  0  0  0  0  0  0  0  0  0  0
    7.1055  -15.5355   24.9595 C   0  0  1  0  0  0  0  0  0  0  0  0
    7.9683  -14.7143   25.8975 C   0  0  0  0  0  0  0  0  0  0  0  0
    7.1008  -13.6567   26.4755 C   0  0  0  0  0  0  0  0  0  0  0  0
    5.7473  -13.4295   26.3067 C   0  0  0  0  0  0  0  0  0  0  0  0
    5.3660  -12.3589   27.0150 N   0  0  0  0  0  0  0  0  0  0  0  0
    6.4410  -11.8828   27.6428 C   0  0  0  0  0  0  0  0  0  0  0  0
    7.4983  -12.6630   27.3219 N   0  0  0  0  0  0  0  0  0  0  0  0
    7.9011  -16.3093   23.9942 C   0  0  0  0  0  0  0  0  0  0  0  0
    7.8406  -17.5573   24.0337 O   0  0  0  0  0  0  0  0  0  0  0  0
    9.5695  -11.7948   18.9981 N   0  0  0  0  0  0  0  0  0  0  0  0
    8.4590  -12.6552   18.9174 C   0  0  0  0  0  0  0  0  0  0  0  0
    7.3858  -12.3957   19.5962 N   0  0  0  0  0  0  0  0  0  0  0  0
    8.4629  -13.8232   18.1084 N   0  0  0  0  0  0  0  0  0  0  0  0
    8.3676  -15.1456   18.6837 C   0  0  0  0  0  0  0  0  0  0  0  0
    8.9772  -15.2108   20.0731 C   0  0  0  0  0  0  0  0  0  0  0  0
    8.9143  -16.5733   20.6961 C   0  0  0  0  0  0  0  0  0  0  0  0
    9.4771  -16.5898   22.0502 C   0  0  2  0  0  0  0  0  0  0  0  0
    8.7431  -15.7731   23.0092 N   0  0  0  0  0  0  0  0  0  0  0  0
   10.8671  -16.0990   22.0740 C   0  0  0  0  0  0  0  0  0  0  0  0
   11.1381  -14.9626   22.5052 O   0  0  0  0  0  0  0  0  0  0  0  0
    6.5772  -13.0298   19.6735 N   0  0  0  0  0  0  0  0  0  0  0  0
   11.9733  -16.8753   21.6143 C   0  0  2  0  0  0  0  0  0  0  0  0
   13.3534  -16.4961   21.8400 C   0  0  0  0  0  0  0  0  0  0  0  0
   13.5272  -15.0931   21.2698 C   0  0  0  0  0  0  0  0  0  0  0  0
   13.6833  -15.1602   19.8017 O   0  0  0  0  0  0  0  0  0  0  0  0
   14.2039  -16.1928   19.2718 C   0  0  0  0  0  0  0  0  0  0  0  0
   13.6920  -16.4836   23.2719 O   0  0  0  0  0  0  0  0  0  0  0  0
   14.9940  -16.2376   23.6608 O   0  0  0  0  0  0  0  0  0  0  0  0
   13.2718  -14.1136   18.9984 O   0  0  0  0  0  0  0  0  0  0  0  0
  2  1  1  1
  2  3  1  0
  2  9  1  0
  3  4  1  0
  4  5  2  0
  4  8  1  0
  5  6  1  0
  6  7  1  0
  8  7  2  0
  9 10  2  0
 12 11  1  0
 12 14  1  0
 13 12  2  0
 15 14  1  0
 15 16  1  0
 18 17  1  6
 17 16  1  0
 19  9  1  0
 19 18  1  0
 20 21  2  0
 20 18  1  0
 22 20  1  0
 23 27  1  0
 23 22  1  0
 23 24  1  6
 25 24  1  0
 25 26  2  0
 27 28  1  0
 29 25  1  0
 30 27  2  0
M  END
$$$$
