HRD.pdb
     RDKit          3D

 30 30  0  0  1  0  0  0  0  0999 V2000
    8.8788  -17.1793   27.0649 N   0  0  0  0  0  0  0  0  0  0  0  0
    9.5306  -16.0813   26.3377 C   0  0  1  0  0  0  0  0  0  0  0  0
   10.9193  -16.0106   26.9422 C   0  0  0  0  0  0  0  0  0  0  0  0
   10.7755  -15.4252   28.2993 C   0  0  0  0  0  0  0  0  0  0  0  0
   11.1871  -15.9157   29.5249 C   0  0  0  0  0  0  0  0  0  0  0  0
   10.8526  -15.0620   30.5010 N   0  0  0  0  0  0  0  0  0  0  0  0
   10.2320  -14.0249   29.9390 C   0  0  0  0  0  0  0  0  0  0  0  0
   10.1802  -14.2358   28.6039 N   0  0  0  0  0  0  0  0  0  0  0  0
    9.5543  -16.4456   24.9128 C   0  0  0  0  0  0  0  0  0  0  0  0
    9.6429  -17.6543   24.6062 O   0  0  0  0  0  0  0  0  0  0  0  0
    8.5977  -12.8081   17.8078 N   0  0  0  0  0  0  0  0  0  0  0  0
    7.8578  -13.7455   18.5519 C   0  0  0  0  0  0  0  0  0  0  0  0
    7.4955  -14.8653   18.0089 N   0  0  0  0  0  0  0  0  0  0  0  0
    7.4799  -13.5129   19.9016 N   0  0  0  0  0  0  0  0  0  0  0  0
    6.6312  -14.4345   20.6221 C   0  0  0  0  0  0  0  0  0  0  0  0
    7.4253  -15.3424   21.5448 C   0  0  0  0  0  0  0  0  0  0  0  0
    8.9056  -15.1088   21.4934 C   0  0  0  0  0  0  0  0  0  0  0  0
    9.6334  -15.9559   22.4439 C   0  0  2  0  0  0  0  0  0  0  0  0
    9.4862  -15.5494   23.8363 N   0  0  0  0  0  0  0  0  0  0  0  0
   11.0824  -15.9678   22.1721 C   0  0  0  0  0  0  0  0  0  0  0  0
   11.8813  -15.3855   22.9295 O   0  0  0  0  0  0  0  0  0  0  0  0
    6.9605  -15.6014   18.4922 N   0  0  0  0  0  0  0  0  0  0  0  0
   11.6565  -16.6326   21.0470 C   0  0  2  0  0  0  0  0  0  0  0  0
   13.0850  -16.8044   20.8743 C   0  0  0  0  0  0  0  0  0  0  0  0
   13.5709  -17.6697   22.0313 C   0  0  0  0  0  0  0  0  0  0  0  0
   15.0202  -17.9260   21.8967 O   0  0  0  0  0  0  0  0  0  0  0  0
   15.6615  -17.4122   20.9257 C   0  0  0  0  0  0  0  0  0  0  0  0
   13.4080  -17.4689   19.6019 O   0  0  0  0  0  0  0  0  0  0  0  0
   14.3748  -16.9272   18.7779 O   0  0  0  0  0  0  0  0  0  0  0  0
   15.6861  -18.7184   22.8124 O   0  0  0  0  0  0  0  0  0  0  0  0
  2  1  1  1
  2  3  1  0
  2  9  1  0
  3  4  1  0
  4  5  2  0
  4  8  1  0
  5  6  1  0
  6  7  1  0
  8  7  2  0
  9 10  2  0
 12 11  1  0
 12 14  1  0
 13 12  2  0
 15 14  1  0
 15 16  1  0
 18 17  1  6
 17 16  1  0
 19  9  1  0
 19 18  1  0
 20 21  2  0
 20 18  1  0
 22 20  1  0
 23 27  1  0
 23 22  1  0
 23 24  1  6
 25 24  1  0
 25 26  2  0
 27 28  1  0
 29 25  1  0
 30 27  2  0
M  END
$$$$
