HRD.pdb
     RDKit          3D

 30 30  0  0  1  0  0  0  0  0999 V2000
   10.3167  -14.1875   17.9817 N   0  0  0  0  0  0  0  0  0  0  0  0
   10.4647  -14.5594   19.3955 C   0  0  1  0  0  0  0  0  0  0  0  0
    9.1232  -15.1641   19.7611 C   0  0  0  0  0  0  0  0  0  0  0  0
    8.1032  -14.0984   19.5921 C   0  0  0  0  0  0  0  0  0  0  0  0
    7.5854  -13.2115   20.5181 C   0  0  0  0  0  0  0  0  0  0  0  0
    6.6795  -12.4136   19.9383 N   0  0  0  0  0  0  0  0  0  0  0  0
    6.5953  -12.7600   18.6540 C   0  0  0  0  0  0  0  0  0  0  0  0
    7.4548  -13.7810   18.4342 N   0  0  0  0  0  0  0  0  0  0  0  0
   11.5645  -15.5320   19.4853 C   0  0  0  0  0  0  0  0  0  0  0  0
   11.6786  -16.2108   20.5288 O   0  0  0  0  0  0  0  0  0  0  0  0
   15.5923  -13.6449   14.5307 N   0  0  0  0  0  0  0  0  0  0  0  0
   16.6432  -14.5669   14.6907 C   0  0  0  0  0  0  0  0  0  0  0  0
   17.8740  -14.1636   14.6414 N   0  0  0  0  0  0  0  0  0  0  0  0
   16.4097  -15.9516   14.9066 N   0  0  0  0  0  0  0  0  0  0  0  0
   15.0790  -16.4728   15.1217 C   0  0  0  0  0  0  0  0  0  0  0  0
   14.5079  -16.0485   16.4635 C   0  0  0  0  0  0  0  0  0  0  0  0
   14.1829  -17.1970   17.3711 C   0  0  0  0  0  0  0  0  0  0  0  0
   13.5993  -16.7518   18.6407 C   0  0  2  0  0  0  0  0  0  0  0  0
   12.5229  -15.7798   18.4919 N   0  0  0  0  0  0  0  0  0  0  0  0
   14.6035  -16.1196   19.5157 C   0  0  0  0  0  0  0  0  0  0  0  0
   14.9727  -14.9459   19.3235 O   0  0  0  0  0  0  0  0  0  0  0  0
   18.6935  -14.7875   14.6706 N   0  0  0  0  0  0  0  0  0  0  0  0
   15.2083  -16.7945   20.6185 C   0  0  1  0  0  0  0  0  0  0  0  0
   16.2513  -16.2027   21.4319 C   0  0  0  0  0  0  0  0  0  0  0  0
   16.1404  -16.8265   22.8184 C   0  0  0  0  0  0  0  0  0  0  0  0
   16.8962  -16.0182   23.7980 O   0  0  0  0  0  0  0  0  0  0  0  0
   17.5756  -15.0199   23.3980 C   0  0  0  0  0  0  0  0  0  0  0  0
   17.5912  -16.4691   20.8854 O   0  0  0  0  0  0  0  0  0  0  0  0
   18.5329  -15.4593   20.8708 O   0  0  0  0  0  0  0  0  0  0  0  0
   16.8746  -16.3353   25.1430 O   0  0  0  0  0  0  0  0  0  0  0  0
  2  1  1  6
  2  3  1  0
  2  9  1  0
  3  4  1  0
  4  5  2  0
  4  8  1  0
  5  6  1  0
  6  7  1  0
  8  7  2  0
  9 10  2  0
 12 11  1  0
 12 14  1  0
 13 12  2  0
 15 14  1  0
 15 16  1  0
 18 17  1  6
 17 16  1  0
 19  9  1  0
 19 18  1  0
 20 21  2  0
 20 18  1  0
 22 20  1  0
 23 27  1  0
 23 22  1  0
 23 24  1  1
 25 24  1  0
 25 26  2  0
 27 28  1  0
 29 25  1  0
 30 27  2  0
M  END
$$$$
