HRD.pdb
     RDKit          3D

 30 30  0  0  1  0  0  0  0  0999 V2000
    8.1064  -16.8707   17.7331 N   0  0  0  0  0  0  0  0  0  0  0  0
    8.3303  -15.5493   18.3355 C   0  0  1  0  0  0  0  0  0  0  0  0
    7.2609  -14.6732   17.7128 C   0  0  0  0  0  0  0  0  0  0  0  0
    7.5437  -14.6073   16.2566 C   0  0  0  0  0  0  0  0  0  0  0  0
    8.5588  -15.1932   15.5229 C   0  0  0  0  0  0  0  0  0  0  0  0
    8.4399  -14.8706   14.2286 N   0  0  0  0  0  0  0  0  0  0  0  0
    7.3689  -14.0873   14.1016 C   0  0  0  0  0  0  0  0  0  0  0  0
    6.8186  -13.9217   15.3260 N   0  0  0  0  0  0  0  0  0  0  0  0
    8.1657  -15.6915   19.7903 C   0  0  0  0  0  0  0  0  0  0  0  0
    7.1936  -15.1294   20.3396 O   0  0  0  0  0  0  0  0  0  0  0  0
    6.1908  -22.5061   22.8487 N   0  0  0  0  0  0  0  0  0  0  0  0
    6.1421  -21.2397   23.4601 C   0  0  0  0  0  0  0  0  0  0  0  0
    6.5932  -21.0827   24.6651 N   0  0  0  0  0  0  0  0  0  0  0  0
    5.6064  -20.1005   22.8014 N   0  0  0  0  0  0  0  0  0  0  0  0
    5.6247  -18.7912   23.4131 C   0  0  0  0  0  0  0  0  0  0  0  0
    6.9953  -18.1417   23.3345 C   0  0  0  0  0  0  0  0  0  0  0  0
    7.3357  -17.6145   21.9726 C   0  0  0  0  0  0  0  0  0  0  0  0
    8.6080  -16.8852   21.9630 C   0  0  2  0  0  0  0  0  0  0  0  0
    9.0125  -16.4126   20.6445 N   0  0  0  0  0  0  0  0  0  0  0  0
    9.7210  -17.7147   22.4597 C   0  0  0  0  0  0  0  0  0  0  0  0
    9.7661  -18.9361   22.2207 O   0  0  0  0  0  0  0  0  0  0  0  0
    7.0185  -21.8317   25.2306 N   0  0  0  0  0  0  0  0  0  0  0  0
   10.7992  -17.1868   23.2318 C   0  0  1  0  0  0  0  0  0  0  0  0
   11.8600  -18.0107   23.7755 C   0  0  0  0  0  0  0  0  0  0  0  0
   13.0954  -17.1252   23.8898 C   0  0  0  0  0  0  0  0  0  0  0  0
   13.4596  -16.5918   22.5605 O   0  0  0  0  0  0  0  0  0  0  0  0
   13.6959  -17.3962   21.6039 C   0  0  0  0  0  0  0  0  0  0  0  0
   11.5172  -18.5400   25.1049 O   0  0  0  0  0  0  0  0  0  0  0  0
   12.3634  -19.4441   25.7160 O   0  0  0  0  0  0  0  0  0  0  0  0
   13.5477  -15.2294   22.3453 O   0  0  0  0  0  0  0  0  0  0  0  0
  2  1  1  6
  2  3  1  0
  2  9  1  0
  3  4  1  0
  4  5  2  0
  4  8  1  0
  5  6  1  0
  6  7  1  0
  8  7  2  0
  9 10  2  0
 12 11  1  0
 12 14  1  0
 13 12  2  0
 15 14  1  0
 15 16  1  0
 18 17  1  6
 17 16  1  0
 19  9  1  0
 19 18  1  0
 20 21  2  0
 20 18  1  0
 22 20  1  0
 23 27  1  0
 23 22  1  0
 23 24  1  1
 25 24  1  0
 25 26  2  0
 27 28  1  0
 29 25  1  0
 30 27  2  0
M  END
$$$$
