CLQ.pdb
     RDKit          3D

 24 23  0  0  1  0  0  0  0  0999 V2000
   28.7013  -23.8431  -17.6463 N   0  0  0  0  0  0  0  0  0  0  0  0
   29.1005  -24.9021  -16.7491 C   0  0  1  0  0  0  0  0  0  0  0  0
   28.4097  -26.2049  -17.1014 C   0  0  0  0  0  0  0  0  0  0  0  0
   26.6816  -26.1326  -16.5859 S   0  0  0  0  0  0  0  0  0  0  0  0
   30.5744  -25.0834  -16.7226 C   0  0  0  0  0  0  0  0  0  0  0  0
   31.1857  -24.8931  -17.8088 O   0  0  0  0  0  0  0  0  0  0  0  0
   35.3728  -26.0528  -15.8101 C   0  0  0  0  0  0  0  0  0  0  0  0
   34.9255  -25.6102  -14.4036 C   0  0  2  0  0  0  0  0  0  0  0  0
   35.5859  -26.4914  -13.3938 C   0  0  0  0  0  0  0  0  0  0  0  0
   33.4289  -25.6107  -14.3129 C   0  0  0  0  0  0  0  0  0  0  0  0
   32.6900  -25.6839  -15.5974 C   0  0  2  0  0  0  0  0  0  0  0  0
   31.2922  -25.4490  -15.5630 N   0  0  0  0  0  0  0  0  0  0  0  0
   33.0289  -27.0021  -16.2300 C   0  0  0  0  0  0  0  0  0  0  0  0
   33.0802  -27.9930  -15.4643 O   0  0  0  0  0  0  0  0  0  0  0  0
   31.6037  -31.2284  -16.2442 N   0  0  0  0  0  0  0  0  0  0  0  0
   31.8414  -31.6081  -17.5866 C   0  0  0  0  0  0  0  0  0  0  0  0
   31.9050  -32.8115  -17.9077 O   0  0  0  0  0  0  0  0  0  0  0  0
   32.0128  -30.5339  -18.6005 C   0  0  0  0  0  0  0  0  0  0  0  0
   31.9419  -29.1915  -17.9035 C   0  0  0  0  0  0  0  0  0  0  0  0
   33.2371  -28.4619  -18.1957 C   0  0  2  0  0  0  0  0  0  0  0  0
   33.2831  -27.1606  -17.6088 N   0  0  0  0  0  0  0  0  0  0  0  0
   33.5019  -28.3632  -19.6389 C   0  0  0  0  0  0  0  0  0  0  0  0
   33.6118  -29.3679  -20.3894 O   0  0  0  0  0  0  0  0  0  0  0  0
   33.6413  -27.1187  -20.2248 O   0  0  0  0  0  0  0  0  0  0  0  0
  2  1  1  6
  3  2  1  0
  4  3  1  0
  5  6  2  0
  5  2  1  0
  8 10  1  0
  8  7  1  6
  9  8  1  0
 11 10  1  1
 11 12  1  0
 12  5  1  0
 13 11  1  0
 14 13  2  0
 16 15  1  0
 17 16  2  0
 18 16  1  0
 19 18  1  0
 20 19  1  6
 20 21  1  0
 21 13  1  0
 22 24  1  0
 22 20  1  0
 23 22  2  0
M  END
$$$$
