CLQ.pdb
     RDKit          3D

 24 23  0  0  1  0  0  0  0  0999 V2000
   28.4257  -20.5059  -15.8798 N   0  0  0  0  0  0  0  0  0  0  0  0
   27.6043  -19.6117  -15.0979 C   0  0  1  0  0  0  0  0  0  0  0  0
   27.0294  -18.5050  -15.9602 C   0  0  0  0  0  0  0  0  0  0  0  0
   28.3220  -17.3072  -16.3493 S   0  0  0  0  0  0  0  0  0  0  0  0
   26.5204  -20.3329  -14.3831 C   0  0  0  0  0  0  0  0  0  0  0  0
   26.0614  -21.3632  -14.9468 O   0  0  0  0  0  0  0  0  0  0  0  0
   26.4936  -22.1223  -10.1937 C   0  0  0  0  0  0  0  0  0  0  0  0
   26.0581  -20.6456  -10.1339 C   0  0  2  0  0  0  0  0  0  0  0  0
   25.8458  -20.2685   -8.7039 C   0  0  0  0  0  0  0  0  0  0  0  0
   24.8521  -20.4267  -10.9973 C   0  0  0  0  0  0  0  0  0  0  0  0
   25.0244  -20.6825  -12.4486 C   0  0  2  0  0  0  0  0  0  0  0  0
   26.0024  -19.9202  -13.1362 N   0  0  0  0  0  0  0  0  0  0  0  0
   23.6687  -20.5716  -13.0830 C   0  0  0  0  0  0  0  0  0  0  0  0
   23.2736  -19.4146  -13.3590 O   0  0  0  0  0  0  0  0  0  0  0  0
   20.8171  -24.5593  -16.8615 N   0  0  0  0  0  0  0  0  0  0  0  0
   19.9286  -23.4578  -16.8619 C   0  0  0  0  0  0  0  0  0  0  0  0
   18.9466  -23.4303  -17.6303 O   0  0  0  0  0  0  0  0  0  0  0  0
   20.1988  -22.3373  -15.9225 C   0  0  0  0  0  0  0  0  0  0  0  0
   21.4357  -22.6679  -15.1141 C   0  0  0  0  0  0  0  0  0  0  0  0
   21.6712  -21.5169  -14.1576 C   0  0  2  0  0  0  0  0  0  0  0  0
   22.8509  -21.6849  -13.3701 N   0  0  0  0  0  0  0  0  0  0  0  0
   20.5169  -21.2861  -13.2761 C   0  0  0  0  0  0  0  0  0  0  0  0
   19.4724  -20.6914  -13.6505 O   0  0  0  0  0  0  0  0  0  0  0  0
   20.5549  -21.7337  -11.9686 O   0  0  0  0  0  0  0  0  0  0  0  0
  2  1  1  6
  3  2  1  0
  4  3  1  0
  5  6  2  0
  5  2  1  0
  8 10  1  0
  8  7  1  1
  9  8  1  0
 11 10  1  1
 11 12  1  0
 12  5  1  0
 13 11  1  0
 14 13  2  0
 16 15  1  0
 17 16  2  0
 18 16  1  0
 19 18  1  0
 20 19  1  1
 20 21  1  0
 21 13  1  0
 22 24  1  0
 22 20  1  0
 23 22  2  0
M  END
$$$$
