CLQ.pdb
     RDKit          3D

 24 23  0  0  1  0  0  0  0  0999 V2000
   26.9948  -20.1536  -15.9118 N   0  0  0  0  0  0  0  0  0  0  0  0
   26.6319  -21.5467  -15.7968 C   0  0  1  0  0  0  0  0  0  0  0  0
   27.8316  -22.3936  -15.4200 C   0  0  0  0  0  0  0  0  0  0  0  0
   29.2109  -22.0130  -16.5198 S   0  0  0  0  0  0  0  0  0  0  0  0
   25.5220  -21.7552  -14.8321 C   0  0  0  0  0  0  0  0  0  0  0  0
   24.9329  -22.8689  -14.8823 O   0  0  0  0  0  0  0  0  0  0  0  0
   25.3857  -22.4547  -10.6144 C   0  0  0  0  0  0  0  0  0  0  0  0
   25.4261  -20.9287  -10.8238 C   0  0  2  0  0  0  0  0  0  0  0  0
   25.5597  -20.2677   -9.4906 C   0  0  0  0  0  0  0  0  0  0  0  0
   24.2223  -20.4809  -11.5974 C   0  0  0  0  0  0  0  0  0  0  0  0
   24.0730  -21.0359  -12.9652 C   0  0  2  0  0  0  0  0  0  0  0  0
   25.1160  -20.7834  -13.8918 N   0  0  0  0  0  0  0  0  0  0  0  0
   22.7354  -20.5915  -13.4810 C   0  0  0  0  0  0  0  0  0  0  0  0
   22.6889  -19.4558  -14.0090 O   0  0  0  0  0  0  0  0  0  0  0  0
   18.0139  -23.7956  -15.8585 N   0  0  0  0  0  0  0  0  0  0  0  0
   17.4863  -22.4826  -15.8377 C   0  0  0  0  0  0  0  0  0  0  0  0
   16.3879  -22.2277  -16.3707 O   0  0  0  0  0  0  0  0  0  0  0  0
   18.2769  -21.4186  -15.1641 C   0  0  0  0  0  0  0  0  0  0  0  0
   19.5983  -22.0055  -14.7145 C   0  0  0  0  0  0  0  0  0  0  0  0
   20.3513  -20.9142  -13.9817 C   0  0  2  0  0  0  0  0  0  0  0  0
   21.5680  -21.3795  -13.3959 N   0  0  0  0  0  0  0  0  0  0  0  0
   19.5233  -20.2666  -12.9532 C   0  0  0  0  0  0  0  0  0  0  0  0
   19.6814  -20.4598  -11.7193 O   0  0  0  0  0  0  0  0  0  0  0  0
   18.5157  -19.3993  -13.3329 O   0  0  0  0  0  0  0  0  0  0  0  0
  2  1  1  1
  3  2  1  0
  4  3  1  0
  5  6  2  0
  5  2  1  0
  8 10  1  0
  8  7  1  1
  9  8  1  0
 11 10  1  1
 11 12  1  0
 12  5  1  0
 13 11  1  0
 14 13  2  0
 16 15  1  0
 17 16  2  0
 18 16  1  0
 19 18  1  0
 20 19  1  1
 20 21  1  0
 21 13  1  0
 22 24  1  0
 22 20  1  0
 23 22  2  0
M  END
$$$$
