CLQ.pdb
     RDKit          3D

 24 23  0  0  1  0  0  0  0  0999 V2000
   26.8932  -24.0203  -18.3400 N   0  0  0  0  0  0  0  0  0  0  0  0
   26.3397  -22.7020  -18.1368 C   0  0  1  0  0  0  0  0  0  0  0  0
   25.2978  -22.3796  -19.1900 C   0  0  0  0  0  0  0  0  0  0  0  0
   26.1094  -22.0879  -20.7753 S   0  0  0  0  0  0  0  0  0  0  0  0
   25.7716  -22.5404  -16.7740 C   0  0  0  0  0  0  0  0  0  0  0  0
   25.1793  -23.5416  -16.2875 O   0  0  0  0  0  0  0  0  0  0  0  0
   27.5291  -21.6731  -12.6225 C   0  0  0  0  0  0  0  0  0  0  0  0
   27.3333  -20.4064  -13.4776 C   0  0  2  0  0  0  0  0  0  0  0  0
   27.9260  -19.2437  -12.7503 C   0  0  0  0  0  0  0  0  0  0  0  0
   25.8829  -20.2281  -13.8131 C   0  0  0  0  0  0  0  0  0  0  0  0
   25.2919  -21.2265  -14.7378 C   0  0  2  0  0  0  0  0  0  0  0  0
   25.8678  -21.3456  -16.0280 N   0  0  0  0  0  0  0  0  0  0  0  0
   23.8165  -20.9579  -14.7971 C   0  0  0  0  0  0  0  0  0  0  0  0
   23.4516  -19.9968  -15.5140 O   0  0  0  0  0  0  0  0  0  0  0  0
   18.7578  -24.2657  -12.9454 N   0  0  0  0  0  0  0  0  0  0  0  0
   18.2131  -23.0062  -13.2916 C   0  0  0  0  0  0  0  0  0  0  0  0
   16.9882  -22.7923  -13.1948 O   0  0  0  0  0  0  0  0  0  0  0  0
   19.1406  -21.9482  -13.7727 C   0  0  0  0  0  0  0  0  0  0  0  0
   20.5597  -22.4689  -13.6850 C   0  0  0  0  0  0  0  0  0  0  0  0
   21.4774  -21.3616  -14.1613 C   0  0  2  0  0  0  0  0  0  0  0  0
   22.8580  -21.7224  -14.0988 N   0  0  0  0  0  0  0  0  0  0  0  0
   21.2600  -20.1082  -13.4234 C   0  0  0  0  0  0  0  0  0  0  0  0
   21.8285  -19.8442  -12.3316 O   0  0  0  0  0  0  0  0  0  0  0  0
   20.3945  -19.1572  -13.9312 O   0  0  0  0  0  0  0  0  0  0  0  0
  2  1  1  6
  3  2  1  0
  4  3  1  0
  5  6  2  0
  5  2  1  0
  8 10  1  0
  8  7  1  1
  9  8  1  0
 11 10  1  6
 11 12  1  0
 12  5  1  0
 13 11  1  0
 14 13  2  0
 16 15  1  0
 17 16  2  0
 18 16  1  0
 19 18  1  0
 20 19  1  1
 20 21  1  0
 21 13  1  0
 22 24  1  0
 22 20  1  0
 23 22  2  0
M  END
$$$$
