CLQ.pdb
     RDKit          3D

 24 23  0  0  1  0  0  0  0  0999 V2000
   25.9602  -21.5664  -11.5134 N   0  0  0  0  0  0  0  0  0  0  0  0
   25.6695  -21.4455  -12.9229 C   0  0  1  0  0  0  0  0  0  0  0  0
   24.4807  -22.3032  -13.3100 C   0  0  0  0  0  0  0  0  0  0  0  0
   24.9611  -24.0428  -13.3021 S   0  0  0  0  0  0  0  0  0  0  0  0
   25.4480  -20.0335  -13.3267 C   0  0  0  0  0  0  0  0  0  0  0  0
   24.7033  -19.3433  -12.5792 O   0  0  0  0  0  0  0  0  0  0  0  0
   25.7310  -15.2907  -14.6688 C   0  0  0  0  0  0  0  0  0  0  0  0
   26.6898  -15.8962  -15.7118 C   0  0  2  0  0  0  0  0  0  0  0  0
   26.1250  -15.6575  -17.0743 C   0  0  0  0  0  0  0  0  0  0  0  0
   26.9353  -17.3441  -15.4095 C   0  0  0  0  0  0  0  0  0  0  0  0
   25.8012  -18.0962  -14.8182 C   0  0  2  0  0  0  0  0  0  0  0  0
   26.0223  -19.4552  -14.4796 N   0  0  0  0  0  0  0  0  0  0  0  0
   24.6270  -17.9237  -15.7369 C   0  0  0  0  0  0  0  0  0  0  0  0
   24.6351  -18.6055  -16.7886 O   0  0  0  0  0  0  0  0  0  0  0  0
   17.7182  -19.0451  -15.6873 N   0  0  0  0  0  0  0  0  0  0  0  0
   18.9776  -18.7310  -15.1232 C   0  0  0  0  0  0  0  0  0  0  0  0
   19.1921  -18.9012  -13.9065 O   0  0  0  0  0  0  0  0  0  0  0  0
   20.0346  -18.1936  -16.0203 C   0  0  0  0  0  0  0  0  0  0  0  0
   21.2969  -17.9808  -15.2116 C   0  0  0  0  0  0  0  0  0  0  0  0
   22.2889  -17.2623  -16.1031 C   0  0  2  0  0  0  0  0  0  0  0  0
   23.5509  -17.0514  -15.4686 N   0  0  0  0  0  0  0  0  0  0  0  0
   21.7621  -15.9802  -16.5946 C   0  0  0  0  0  0  0  0  0  0  0  0
   21.8846  -14.8978  -15.9635 O   0  0  0  0  0  0  0  0  0  0  0  0
   21.0961  -15.9337  -17.8053 O   0  0  0  0  0  0  0  0  0  0  0  0
  2  1  1  1
  3  2  1  0
  4  3  1  0
  5  6  2  0
  5  2  1  0
  8 10  1  0
  8  7  1  1
  9  8  1  0
 11 10  1  6
 11 12  1  0
 12  5  1  0
 13 11  1  0
 14 13  2  0
 16 15  1  0
 17 16  2  0
 18 16  1  0
 19 18  1  0
 20 19  1  1
 20 21  1  0
 21 13  1  0
 22 24  1  0
 22 20  1  0
 23 22  2  0
M  END
$$$$
