CLQ.pdb
     RDKit          3D

 24 23  0  0  1  0  0  0  0  0999 V2000
   29.5197  -23.6516  -17.2374 N   0  0  0  0  0  0  0  0  0  0  0  0
   28.3499  -22.9498  -17.7114 C   0  0  1  0  0  0  0  0  0  0  0  0
   27.2586  -23.9209  -18.1174 C   0  0  0  0  0  0  0  0  0  0  0  0
   26.6064  -24.7463  -16.6509 S   0  0  0  0  0  0  0  0  0  0  0  0
   27.8389  -21.9791  -16.7101 C   0  0  0  0  0  0  0  0  0  0  0  0
   28.2639  -22.1095  -15.5303 O   0  0  0  0  0  0  0  0  0  0  0  0
   28.5434  -17.6480  -15.6361 C   0  0  0  0  0  0  0  0  0  0  0  0
   27.6877  -17.8073  -16.9074 C   0  0  2  0  0  0  0  0  0  0  0  0
   27.4473  -16.4540  -17.4932 C   0  0  0  0  0  0  0  0  0  0  0  0
   26.4280  -18.5569  -16.5924 C   0  0  0  0  0  0  0  0  0  0  0  0
   26.5934  -19.9402  -16.0822 C   0  0  2  0  0  0  0  0  0  0  0  0
   26.9244  -20.9494  -17.0215 N   0  0  0  0  0  0  0  0  0  0  0  0
   25.3571  -20.2759  -15.3003 C   0  0  0  0  0  0  0  0  0  0  0  0
   24.3972  -20.7530  -15.9497 O   0  0  0  0  0  0  0  0  0  0  0  0
   24.2249  -20.6358   -9.0857 N   0  0  0  0  0  0  0  0  0  0  0  0
   22.9913  -21.0087   -9.6705 C   0  0  0  0  0  0  0  0  0  0  0  0
   22.0349  -21.3791   -8.9609 O   0  0  0  0  0  0  0  0  0  0  0  0
   22.8686  -20.9465  -11.1510 C   0  0  0  0  0  0  0  0  0  0  0  0
   24.1949  -20.5017  -11.7307 C   0  0  0  0  0  0  0  0  0  0  0  0
   24.0348  -20.4485  -13.2362 C   0  0  2  0  0  0  0  0  0  0  0  0
   25.2404  -20.0803  -13.9078 N   0  0  0  0  0  0  0  0  0  0  0  0
   22.9464  -19.5476  -13.6445 C   0  0  0  0  0  0  0  0  0  0  0  0
   21.7596  -19.9328  -13.8117 O   0  0  0  0  0  0  0  0  0  0  0  0
   23.2125  -18.2084  -13.8615 O   0  0  0  0  0  0  0  0  0  0  0  0
  2  1  1  1
  3  2  1  0
  4  3  1  0
  5  6  2  0
  5  2  1  0
  8 10  1  0
  8  7  1  1
  9  8  1  0
 11 10  1  6
 11 12  1  0
 12  5  1  0
 13 11  1  0
 14 13  2  0
 16 15  1  0
 17 16  2  0
 18 16  1  0
 19 18  1  0
 20 19  1  1
 20 21  1  0
 21 13  1  0
 22 24  1  0
 22 20  1  0
 23 22  2  0
M  END
$$$$
