CLQ.pdb
     RDKit          3D

 24 23  0  0  1  0  0  0  0  0999 V2000
   22.0990  -15.3668  -19.0448 N   0  0  0  0  0  0  0  0  0  0  0  0
   22.3271  -14.0207  -19.5154 C   0  0  1  0  0  0  0  0  0  0  0  0
   21.0947  -13.4674  -20.2037 C   0  0  0  0  0  0  0  0  0  0  0  0
   20.8392  -14.3262  -21.7703 S   0  0  0  0  0  0  0  0  0  0  0  0
   22.7653  -13.1154  -18.4225 C   0  0  0  0  0  0  0  0  0  0  0  0
   22.0437  -13.0886  -17.3889 O   0  0  0  0  0  0  0  0  0  0  0  0
   27.5317   -9.6461  -16.3608 C   0  0  0  0  0  0  0  0  0  0  0  0
   26.0693  -10.1104  -16.2197 C   0  0  2  0  0  0  0  0  0  0  0  0
   25.8857  -10.7017  -14.8599 C   0  0  0  0  0  0  0  0  0  0  0  0
   25.7146  -11.0482  -17.3345 C   0  0  0  0  0  0  0  0  0  0  0  0
   24.2856  -11.4317  -17.4445 C   0  0  2  0  0  0  0  0  0  0  0  0
   23.9226  -12.3100  -18.4968 N   0  0  0  0  0  0  0  0  0  0  0  0
   23.4854  -10.1621  -17.4631 C   0  0  0  0  0  0  0  0  0  0  0  0
   23.5487   -9.4765  -18.5104 O   0  0  0  0  0  0  0  0  0  0  0  0
   17.7775   -9.0726  -16.5170 N   0  0  0  0  0  0  0  0  0  0  0  0
   18.2334   -7.7330  -16.5407 C   0  0  0  0  0  0  0  0  0  0  0  0
   17.4245   -6.7840  -16.5628 O   0  0  0  0  0  0  0  0  0  0  0  0
   19.7004   -7.4902  -16.5387 C   0  0  0  0  0  0  0  0  0  0  0  0
   20.4136   -8.8224  -16.4405 C   0  0  0  0  0  0  0  0  0  0  0  0
   21.9013   -8.5443  -16.5083 C   0  0  2  0  0  0  0  0  0  0  0  0
   22.6913   -9.7274  -16.3808 N   0  0  0  0  0  0  0  0  0  0  0  0
   22.3249   -7.5563  -15.5046 C   0  0  0  0  0  0  0  0  0  0  0  0
   22.7741   -7.8739  -14.3723 O   0  0  0  0  0  0  0  0  0  0  0  0
   22.2359   -6.2072  -15.7933 O   0  0  0  0  0  0  0  0  0  0  0  0
  2  1  1  1
  3  2  1  0
  4  3  1  0
  5  6  2  0
  5  2  1  0
  8 10  1  0
  8  7  1  6
  9  8  1  0
 11 10  1  6
 11 12  1  0
 12  5  1  0
 13 11  1  0
 14 13  2  0
 16 15  1  0
 17 16  2  0
 18 16  1  0
 19 18  1  0
 20 19  1  1
 20 21  1  0
 21 13  1  0
 22 24  1  0
 22 20  1  0
 23 22  2  0
M  END
$$$$
