CLQ.pdb
     RDKit          3D

 24 23  0  0  1  0  0  0  0  0999 V2000
   27.9563  -28.1742  -16.7403 N   0  0  0  0  0  0  0  0  0  0  0  0
   27.0750  -27.1723  -17.2928 C   0  0  1  0  0  0  0  0  0  0  0  0
   25.6369  -27.6526  -17.2954 C   0  0  0  0  0  0  0  0  0  0  0  0
   25.5115  -29.1833  -18.2431 S   0  0  0  0  0  0  0  0  0  0  0  0
   27.1906  -25.8746  -16.5797 C   0  0  0  0  0  0  0  0  0  0  0  0
   27.5191  -25.9267  -15.3635 O   0  0  0  0  0  0  0  0  0  0  0  0
   30.0903  -22.7725  -16.8941 C   0  0  0  0  0  0  0  0  0  0  0  0
   29.0375  -22.4177  -17.9616 C   0  0  2  0  0  0  0  0  0  0  0  0
   29.4966  -21.2019  -18.6987 C   0  0  0  0  0  0  0  0  0  0  0  0
   27.6889  -22.2600  -17.3256 C   0  0  0  0  0  0  0  0  0  0  0  0
   27.2026  -23.4051  -16.5172 C   0  0  2  0  0  0  0  0  0  0  0  0
   26.9537  -24.6257  -17.1942 N   0  0  0  0  0  0  0  0  0  0  0  0
   26.0056  -22.9285  -15.7473 C   0  0  0  0  0  0  0  0  0  0  0  0
   24.8896  -23.0844  -16.2960 O   0  0  0  0  0  0  0  0  0  0  0  0
   25.2857  -21.0006   -9.7667 N   0  0  0  0  0  0  0  0  0  0  0  0
   23.9747  -20.9376  -10.2961 C   0  0  0  0  0  0  0  0  0  0  0  0
   23.0072  -20.6341   -9.5699 O   0  0  0  0  0  0  0  0  0  0  0  0
   23.7845  -21.2426  -11.7389 C   0  0  0  0  0  0  0  0  0  0  0  0
   25.1342  -21.5489  -12.3533 C   0  0  0  0  0  0  0  0  0  0  0  0
   24.8984  -21.9055  -13.8067 C   0  0  2  0  0  0  0  0  0  0  0  0
   26.0886  -22.3315  -14.4715 N   0  0  0  0  0  0  0  0  0  0  0  0
   24.2835  -20.7984  -14.5544 C   0  0  0  0  0  0  0  0  0  0  0  0
   24.9514  -19.8844  -15.1050 O   0  0  0  0  0  0  0  0  0  0  0  0
   22.9076  -20.7348  -14.6734 O   0  0  0  0  0  0  0  0  0  0  0  0
  2  1  1  1
  3  2  1  0
  4  3  1  0
  5  6  2  0
  5  2  1  0
  8 10  1  0
  8  7  1  1
  9  8  1  0
 11 10  1  6
 11 12  1  0
 12  5  1  0
 13 11  1  0
 14 13  2  0
 16 15  1  0
 17 16  2  0
 18 16  1  0
 19 18  1  0
 20 19  1  1
 20 21  1  0
 21 13  1  0
 22 24  1  0
 22 20  1  0
 23 22  2  0
M  END
$$$$
