CLQ.pdb
     RDKit          3D

 24 23  0  0  1  0  0  0  0  0999 V2000
   21.0799  -13.0521  -17.3907 N   0  0  0  0  0  0  0  0  0  0  0  0
   21.5798  -11.9121  -18.1230 C   0  0  1  0  0  0  0  0  0  0  0  0
   20.4814  -11.2680  -18.9459 C   0  0  0  0  0  0  0  0  0  0  0  0
   19.8102  -12.4736  -20.1092 S   0  0  0  0  0  0  0  0  0  0  0  0
   22.2171  -10.9118  -17.2290 C   0  0  0  0  0  0  0  0  0  0  0  0
   21.6161  -10.6553  -16.1507 O   0  0  0  0  0  0  0  0  0  0  0  0
   26.0446  -11.0859  -15.0293 C   0  0  0  0  0  0  0  0  0  0  0  0
   26.3258  -10.5391  -16.4421 C   0  0  2  0  0  0  0  0  0  0  0  0
   27.8011  -10.3639  -16.6008 C   0  0  0  0  0  0  0  0  0  0  0  0
   25.5439   -9.2812  -16.6748 C   0  0  0  0  0  0  0  0  0  0  0  0
   24.0668   -9.3993  -16.6015 C   0  0  2  0  0  0  0  0  0  0  0  0
   23.4316  -10.2591  -17.5330 N   0  0  0  0  0  0  0  0  0  0  0  0
   23.5075   -8.0071  -16.6411 C   0  0  0  0  0  0  0  0  0  0  0  0
   23.4540   -7.4578  -17.7664 O   0  0  0  0  0  0  0  0  0  0  0  0
   18.8723   -6.4259  -18.0038 N   0  0  0  0  0  0  0  0  0  0  0  0
   19.1305   -5.1531  -17.4416 C   0  0  0  0  0  0  0  0  0  0  0  0
   18.3649   -4.1927  -17.6582 O   0  0  0  0  0  0  0  0  0  0  0  0
   20.3373   -4.9943  -16.5876 C   0  0  0  0  0  0  0  0  0  0  0  0
   21.0445   -6.3298  -16.4918 C   0  0  0  0  0  0  0  0  0  0  0  0
   22.2823   -6.1256  -15.6425 C   0  0  2  0  0  0  0  0  0  0  0  0
   23.0552   -7.3177  -15.4961 N   0  0  0  0  0  0  0  0  0  0  0  0
   21.9580   -5.5805  -14.3156 C   0  0  0  0  0  0  0  0  0  0  0  0
   21.9485   -6.2782  -13.2678 O   0  0  0  0  0  0  0  0  0  0  0  0
   21.6448   -4.2402  -14.1851 O   0  0  0  0  0  0  0  0  0  0  0  0
  2  1  1  1
  3  2  1  0
  4  3  1  0
  5  6  2  0
  5  2  1  0
  8 10  1  0
  8  7  1  1
  9  8  1  0
 11 10  1  6
 11 12  1  0
 12  5  1  0
 13 11  1  0
 14 13  2  0
 16 15  1  0
 17 16  2  0
 18 16  1  0
 19 18  1  0
 20 19  1  1
 20 21  1  0
 21 13  1  0
 22 24  1  0
 22 20  1  0
 23 22  2  0
M  END
$$$$
