FDP.pdb
     RDKit          3D

 27 28  0  0  1  0  0  0  0  0999 V2000
    7.4266  -17.2988   19.7267 N   0  0  0  0  0  0  0  0  0  0  0  0
    8.3052  -17.1437   20.8455 C   0  0  1  0  0  0  0  0  0  0  0  0
    9.2981  -16.0585   20.5329 C   0  0  0  0  0  0  0  0  0  0  0  0
    8.5498  -14.7757   20.4819 C   0  0  0  0  0  0  0  0  0  0  0  0
    8.0528  -14.2434   19.3041 C   0  0  0  0  0  0  0  0  0  0  0  0
    7.3564  -13.0439   19.2774 C   0  0  0  0  0  0  0  0  0  0  0  0
    7.1358  -12.3379   20.4365 C   0  0  0  0  0  0  0  0  0  0  0  0
    7.6341  -12.8695   21.6257 C   0  0  0  0  0  0  0  0  0  0  0  0
    8.3169  -14.0489   21.6393 C   0  0  0  0  0  0  0  0  0  0  0  0
    7.5573  -16.8568   22.1156 C   0  0  0  0  0  0  0  0  0  0  0  0
    6.3210  -17.0644   22.1187 O   0  0  0  0  0  0  0  0  0  0  0  0
    8.2040  -16.3747   23.2621 N   0  0  0  0  0  0  0  0  0  0  0  0
    7.7953  -16.5453   24.6573 C   0  0  1  0  0  0  0  0  0  0  0  0
    7.2358  -17.8782   24.8554 C   0  0  0  0  0  0  0  0  0  0  0  0
    6.8052  -18.2311   26.2253 C   0  0  0  0  0  0  0  0  0  0  0  0
    5.8080  -17.7206   26.7900 O   0  0  0  0  0  0  0  0  0  0  0  0
    8.5911  -15.8381   25.6227 C   0  0  0  0  0  0  0  0  0  0  0  0
    9.4770  -16.5898   26.1987 O   0  0  0  0  0  0  0  0  0  0  0  0
    7.5133  -19.1711   26.9581 O   0  0  0  0  0  0  0  0  0  0  0  0
    8.5706  -14.5188   26.0292 N   0  0  0  0  0  0  0  0  0  0  0  0
    8.1459  -13.3344   25.2453 C   0  0  0  0  0  0  0  0  0  0  0  0
    7.0905  -12.7608   26.2292 C   0  0  0  0  0  0  0  0  0  0  0  0
    7.5334  -13.2894   27.6028 C   0  0  0  0  0  0  0  0  0  0  0  0
    8.9402  -13.8207   27.2502 C   0  0  1  0  0  0  0  0  0  0  0  0
    9.5887  -14.5564   28.2805 C   0  0  0  0  0  0  0  0  0  0  0  0
   10.4346  -13.9008   29.0339 O   0  0  0  0  0  0  0  0  0  0  0  0
    9.4782  -15.8670   28.6220 O   0  0  0  0  0  0  0  0  0  0  0  0
  2  1  1  6
  3  2  1  0
  4  3  1  0
  5  4  2  0
  6  5  1  0
  7  6  2  0
  7  8  1  0
  8  9  2  0
  9  4  1  0
 10 11  2  0
 10  2  1  0
 12 10  1  0
 13 12  1  0
 13 14  1  1
 15 16  2  0
 15 14  1  0
 17 13  1  0
 18 17  2  0
 19 15  1  0
 20 21  1  0
 20 17  1  0
 22 21  1  0
 23 24  1  0
 23 22  1  0
 24 20  1  0
 25 27  1  0
 24 25  1  1
 26 25  2  0
M  END
$$$$
