FDP.pdb
     RDKit          3D

 27 28  0  0  1  0  0  0  0  0999 V2000
    6.5253  -16.3543   25.9893 N   0  0  0  0  0  0  0  0  0  0  0  0
    6.5648  -16.3071   24.5596 C   0  0  1  0  0  0  0  0  0  0  0  0
    6.1107  -14.9464   24.1087 C   0  0  0  0  0  0  0  0  0  0  0  0
    6.5626  -13.9679   25.1316 C   0  0  0  0  0  0  0  0  0  0  0  0
    7.8389  -13.4306   25.1438 C   0  0  0  0  0  0  0  0  0  0  0  0
    8.2417  -12.5180   26.1078 C   0  0  0  0  0  0  0  0  0  0  0  0
    7.3729  -12.1141   27.0940 C   0  0  0  0  0  0  0  0  0  0  0  0
    6.0861  -12.6520   27.0866 C   0  0  0  0  0  0  0  0  0  0  0  0
    5.7020  -13.5479   26.1342 C   0  0  0  0  0  0  0  0  0  0  0  0
    7.9264  -16.6400   24.0208 C   0  0  0  0  0  0  0  0  0  0  0  0
    8.5573  -17.5697   24.5767 O   0  0  0  0  0  0  0  0  0  0  0  0
    8.4833  -15.9459   22.9378 N   0  0  0  0  0  0  0  0  0  0  0  0
    9.7198  -16.2556   22.2182 C   0  0  1  0  0  0  0  0  0  0  0  0
    9.6760  -15.6811   20.8777 C   0  0  0  0  0  0  0  0  0  0  0  0
    8.8070  -16.3504   19.8861 C   0  0  0  0  0  0  0  0  0  0  0  0
    8.5171  -17.5702   19.9319 O   0  0  0  0  0  0  0  0  0  0  0  0
   10.9000  -16.3466   23.0333 C   0  0  0  0  0  0  0  0  0  0  0  0
   11.1437  -15.2594   23.6969 O   0  0  0  0  0  0  0  0  0  0  0  0
    8.2637  -15.6277   18.8351 O   0  0  0  0  0  0  0  0  0  0  0  0
   11.7977  -17.3780   23.2245 N   0  0  0  0  0  0  0  0  0  0  0  0
   11.5531  -18.8327   23.0771 C   0  0  0  0  0  0  0  0  0  0  0  0
   12.6931  -19.1681   22.0777 C   0  0  0  0  0  0  0  0  0  0  0  0
   13.7394  -18.0688   22.3209 C   0  0  0  0  0  0  0  0  0  0  0  0
   13.1923  -17.4560   23.6290 C   0  0  1  0  0  0  0  0  0  0  0  0
   13.8395  -16.2649   24.0601 C   0  0  0  0  0  0  0  0  0  0  0  0
   15.0230  -16.3972   24.6030 O   0  0  0  0  0  0  0  0  0  0  0  0
   13.4212  -14.9732   24.0060 O   0  0  0  0  0  0  0  0  0  0  0  0
  2  1  1  1
  3  2  1  0
  4  3  1  0
  5  4  2  0
  6  5  1  0
  7  6  2  0
  7  8  1  0
  8  9  2  0
  9  4  1  0
 10 11  2  0
 10  2  1  0
 12 10  1  0
 13 12  1  0
 13 14  1  6
 15 16  2  0
 15 14  1  0
 17 13  1  0
 18 17  2  0
 19 15  1  0
 20 21  1  0
 20 17  1  0
 22 21  1  0
 23 24  1  0
 23 22  1  0
 24 20  1  0
 25 27  1  0
 24 25  1  6
 26 25  2  0
M  END
$$$$
