FDP.pdb
     RDKit          3D

 27 28  0  0  1  0  0  0  0  0999 V2000
    7.3410  -16.3109   26.9751 N   0  0  0  0  0  0  0  0  0  0  0  0
    7.0586  -16.2390   25.5741 C   0  0  1  0  0  0  0  0  0  0  0  0
    5.9666  -15.2291   25.3529 C   0  0  0  0  0  0  0  0  0  0  0  0
    6.4487  -13.9311   25.8922 C   0  0  0  0  0  0  0  0  0  0  0  0
    7.3063  -13.0996   25.1916 C   0  0  0  0  0  0  0  0  0  0  0  0
    7.7451  -11.8912   25.7127 C   0  0  0  0  0  0  0  0  0  0  0  0
    7.3355  -11.4773   26.9583 C   0  0  0  0  0  0  0  0  0  0  0  0
    6.4717  -12.3109   27.6684 C   0  0  0  0  0  0  0  0  0  0  0  0
    6.0474  -13.4959   27.1458 C   0  0  0  0  0  0  0  0  0  0  0  0
    8.2823  -15.9127   24.7672 C   0  0  0  0  0  0  0  0  0  0  0  0
    9.3037  -15.5388   25.3905 O   0  0  0  0  0  0  0  0  0  0  0  0
    8.2964  -16.0177   23.3695 N   0  0  0  0  0  0  0  0  0  0  0  0
    9.4020  -15.7097   22.4610 C   0  0  1  0  0  0  0  0  0  0  0  0
   10.6444  -16.2770   22.9744 C   0  0  0  0  0  0  0  0  0  0  0  0
   11.9048  -15.7991   22.3667 C   0  0  0  0  0  0  0  0  0  0  0  0
   12.2456  -16.0575   21.1872 O   0  0  0  0  0  0  0  0  0  0  0  0
    9.0511  -15.6281   21.0697 C   0  0  0  0  0  0  0  0  0  0  0  0
    9.4933  -16.6300   20.3751 O   0  0  0  0  0  0  0  0  0  0  0  0
   12.7839  -15.0219   23.1051 O   0  0  0  0  0  0  0  0  0  0  0  0
    8.3351  -14.6811   20.3649 N   0  0  0  0  0  0  0  0  0  0  0  0
    7.4334  -13.6366   20.9068 C   0  0  0  0  0  0  0  0  0  0  0  0
    8.0847  -12.3910   20.2473 C   0  0  0  0  0  0  0  0  0  0  0  0
    8.7817  -12.9510   18.9970 C   0  0  0  0  0  0  0  0  0  0  0  0
    8.1686  -14.3681   18.9545 C   0  0  1  0  0  0  0  0  0  0  0  0
    8.7383  -15.2490   17.9939 C   0  0  0  0  0  0  0  0  0  0  0  0
    8.0067  -15.5380   16.9480 O   0  0  0  0  0  0  0  0  0  0  0  0
    9.9500  -15.8639   17.9811 O   0  0  0  0  0  0  0  0  0  0  0  0
  2  1  1  1
  3  2  1  0
  4  3  1  0
  5  4  2  0
  6  5  1  0
  7  6  2  0
  7  8  1  0
  8  9  2  0
  9  4  1  0
 10 11  2  0
 10  2  1  0
 12 10  1  0
 13 12  1  0
 13 14  1  6
 15 16  2  0
 15 14  1  0
 17 13  1  0
 18 17  2  0
 19 15  1  0
 20 21  1  0
 20 17  1  0
 22 21  1  0
 23 24  1  0
 23 22  1  0
 24 20  1  0
 25 27  1  0
 24 25  1  6
 26 25  2  0
M  END
$$$$
