FDP.pdb
     RDKit          3D

 27 28  0  0  1  0  0  0  0  0999 V2000
    7.4860  -15.9786   26.4219 N   0  0  0  0  0  0  0  0  0  0  0  0
    7.6481  -15.4255   25.1121 C   0  0  1  0  0  0  0  0  0  0  0  0
    8.2533  -14.0547   25.2383 C   0  0  0  0  0  0  0  0  0  0  0  0
    7.2998  -13.2201   26.0146 C   0  0  0  0  0  0  0  0  0  0  0  0
    6.0139  -12.9480   25.5787 C   0  0  0  0  0  0  0  0  0  0  0  0
    5.1385  -12.1663   26.3183 C   0  0  0  0  0  0  0  0  0  0  0  0
    5.5274  -11.6309   27.5236 C   0  0  0  0  0  0  0  0  0  0  0  0
    6.8216  -11.9018   27.9674 C   0  0  0  0  0  0  0  0  0  0  0  0
    7.6726  -12.6713   27.2318 C   0  0  0  0  0  0  0  0  0  0  0  0
    8.4721  -16.3116   24.2228 C   0  0  0  0  0  0  0  0  0  0  0  0
    9.2670  -17.1079   24.7755 O   0  0  0  0  0  0  0  0  0  0  0  0
    8.3668  -16.2611   22.8259 N   0  0  0  0  0  0  0  0  0  0  0  0
    9.4524  -16.1415   21.8514 C   0  0  1  0  0  0  0  0  0  0  0  0
   10.5672  -17.0006   22.2362 C   0  0  0  0  0  0  0  0  0  0  0  0
   11.8198  -16.3334   22.6511 C   0  0  0  0  0  0  0  0  0  0  0  0
   12.2522  -16.3445   23.8288 O   0  0  0  0  0  0  0  0  0  0  0  0
    9.0397  -15.8904   20.4979 C   0  0  0  0  0  0  0  0  0  0  0  0
    9.3692  -16.8429   19.6818 O   0  0  0  0  0  0  0  0  0  0  0  0
   12.5862  -15.6487   21.7205 O   0  0  0  0  0  0  0  0  0  0  0  0
    8.3636  -14.8268   19.9341 N   0  0  0  0  0  0  0  0  0  0  0  0
    7.5793  -13.7787   20.6299 C   0  0  0  0  0  0  0  0  0  0  0  0
    8.2903  -12.5243   20.0539 C   0  0  0  0  0  0  0  0  0  0  0  0
    8.8702  -13.0051   18.7141 C   0  0  0  0  0  0  0  0  0  0  0  0
    8.1448  -14.3615   18.5738 C   0  0  1  0  0  0  0  0  0  0  0  0
    8.5886  -15.1805   17.4988 C   0  0  0  0  0  0  0  0  0  0  0  0
    7.8125  -15.2496   16.4473 O   0  0  0  0  0  0  0  0  0  0  0  0
    9.7154  -15.9303   17.3776 O   0  0  0  0  0  0  0  0  0  0  0  0
  2  1  1  1
  3  2  1  0
  4  3  1  0
  5  4  2  0
  6  5  1  0
  7  6  2  0
  7  8  1  0
  8  9  2  0
  9  4  1  0
 10 11  2  0
 10  2  1  0
 12 10  1  0
 13 12  1  0
 13 14  1  6
 15 16  2  0
 15 14  1  0
 17 13  1  0
 18 17  2  0
 19 15  1  0
 20 21  1  0
 20 17  1  0
 22 21  1  0
 23 24  1  0
 23 22  1  0
 24 20  1  0
 25 27  1  0
 24 25  1  6
 26 25  2  0
M  END
$$$$
