FDP.pdb
     RDKit          3D

 27 28  0  0  1  0  0  0  0  0999 V2000
    7.5348  -17.3033   19.7401 N   0  0  0  0  0  0  0  0  0  0  0  0
    7.7781  -16.2203   20.6432 C   0  0  1  0  0  0  0  0  0  0  0  0
    6.6249  -15.2583   20.5655 C   0  0  0  0  0  0  0  0  0  0  0  0
    6.9223  -14.1358   21.4927 C   0  0  0  0  0  0  0  0  0  0  0  0
    6.4605  -14.0982   22.7977 C   0  0  0  0  0  0  0  0  0  0  0  0
    6.7492  -13.0407   23.6480 C   0  0  0  0  0  0  0  0  0  0  0  0
    7.5134  -11.9834   23.2138 C   0  0  0  0  0  0  0  0  0  0  0  0
    7.9811  -12.0160   21.9002 C   0  0  0  0  0  0  0  0  0  0  0  0
    7.6909  -13.0605   21.0742 C   0  0  0  0  0  0  0  0  0  0  0  0
    8.0039  -16.6971   22.0492 C   0  0  0  0  0  0  0  0  0  0  0  0
    7.3722  -17.7128   22.4242 O   0  0  0  0  0  0  0  0  0  0  0  0
    8.8847  -16.0412   22.9202 N   0  0  0  0  0  0  0  0  0  0  0  0
    9.5389  -16.5889   24.1096 C   0  0  1  0  0  0  0  0  0  0  0  0
   10.1406  -17.8814   23.7993 C   0  0  0  0  0  0  0  0  0  0  0  0
   10.7572  -18.6237   24.9197 C   0  0  0  0  0  0  0  0  0  0  0  0
   10.1408  -18.9306   25.9685 O   0  0  0  0  0  0  0  0  0  0  0  0
   10.1017  -15.6162   25.0056 C   0  0  0  0  0  0  0  0  0  0  0  0
   11.3954  -15.6764   25.0725 O   0  0  0  0  0  0  0  0  0  0  0  0
   12.0838  -19.0199   24.8471 O   0  0  0  0  0  0  0  0  0  0  0  0
    9.5066  -14.6478   25.7892 N   0  0  0  0  0  0  0  0  0  0  0  0
    8.5901  -13.5664   25.3553 C   0  0  0  0  0  0  0  0  0  0  0  0
    7.4052  -13.8555   26.3162 C   0  0  0  0  0  0  0  0  0  0  0  0
    8.0573  -14.5728   27.5090 C   0  0  0  0  0  0  0  0  0  0  0  0
    9.5484  -14.3105   27.2032 C   0  0  1  0  0  0  0  0  0  0  0  0
   10.4711  -15.0015   28.0367 C   0  0  0  0  0  0  0  0  0  0  0  0
   10.9833  -14.3304   29.0368 O   0  0  0  0  0  0  0  0  0  0  0  0
   10.9282  -16.2791   27.9646 O   0  0  0  0  0  0  0  0  0  0  0  0
  2  1  1  6
  3  2  1  0
  4  3  1  0
  5  4  2  0
  6  5  1  0
  7  6  2  0
  7  8  1  0
  8  9  2  0
  9  4  1  0
 10 11  2  0
 10  2  1  0
 12 10  1  0
 13 12  1  0
 13 14  1  6
 15 16  2  0
 15 14  1  0
 17 13  1  0
 18 17  2  0
 19 15  1  0
 20 21  1  0
 20 17  1  0
 22 21  1  0
 23 24  1  0
 23 22  1  0
 24 20  1  0
 25 27  1  0
 24 25  1  1
 26 25  2  0
M  END
$$$$
