FDP.pdb
     RDKit          3D

 27 28  0  0  1  0  0  0  0  0999 V2000
    7.5318  -16.1158   26.3866 N   0  0  0  0  0  0  0  0  0  0  0  0
    6.6671  -16.1040   25.2465 C   0  0  1  0  0  0  0  0  0  0  0  0
    5.5813  -15.0890   25.4744 C   0  0  0  0  0  0  0  0  0  0  0  0
    6.2052  -13.9158   26.1395 C   0  0  0  0  0  0  0  0  0  0  0  0
    5.8553  -13.5020   27.4139 C   0  0  0  0  0  0  0  0  0  0  0  0
    6.4498  -12.4036   28.0178 C   0  0  0  0  0  0  0  0  0  0  0  0
    7.4181  -11.6829   27.3593 C   0  0  0  0  0  0  0  0  0  0  0  0
    7.7744  -12.0953   26.0754 C   0  0  0  0  0  0  0  0  0  0  0  0
    7.1831  -13.1761   25.4926 C   0  0  0  0  0  0  0  0  0  0  0  0
    7.4153  -15.8337   23.9729 C   0  0  0  0  0  0  0  0  0  0  0  0
    6.7413  -15.6812   22.9270 O   0  0  0  0  0  0  0  0  0  0  0  0
    8.8143  -15.7523   23.9399 N   0  0  0  0  0  0  0  0  0  0  0  0
    9.6716  -15.5692   22.7676 C   0  0  1  0  0  0  0  0  0  0  0  0
   11.0448  -15.9441   23.0884 C   0  0  0  0  0  0  0  0  0  0  0  0
   12.0322  -15.8894   21.9891 C   0  0  0  0  0  0  0  0  0  0  0  0
   12.5646  -14.8259   21.5898 O   0  0  0  0  0  0  0  0  0  0  0  0
    9.0354  -15.7935   21.4986 C   0  0  0  0  0  0  0  0  0  0  0  0
    9.1006  -17.0289   21.1095 O   0  0  0  0  0  0  0  0  0  0  0  0
   12.4170  -17.0521   21.3393 O   0  0  0  0  0  0  0  0  0  0  0  0
    8.3788  -14.9308   20.6437 N   0  0  0  0  0  0  0  0  0  0  0  0
    7.5914  -13.7261   20.9988 C   0  0  0  0  0  0  0  0  0  0  0  0
    8.3235  -12.6884   20.1055 C   0  0  0  0  0  0  0  0  0  0  0  0
    8.9231  -13.5307   18.9682 C   0  0  0  0  0  0  0  0  0  0  0  0
    8.1885  -14.8690   19.2033 C   0  0  1  0  0  0  0  0  0  0  0  0
    8.6444  -15.9603   18.4130 C   0  0  0  0  0  0  0  0  0  0  0  0
    7.7607  -16.5453   17.6450 O   0  0  0  0  0  0  0  0  0  0  0  0
    9.8800  -16.5183   18.3216 O   0  0  0  0  0  0  0  0  0  0  0  0
  2  1  1  1
  3  2  1  0
  4  3  1  0
  5  4  2  0
  6  5  1  0
  7  6  2  0
  7  8  1  0
  8  9  2  0
  9  4  1  0
 10 11  2  0
 10  2  1  0
 12 10  1  0
 13 12  1  0
 13 14  1  1
 15 16  2  0
 15 14  1  0
 17 13  1  0
 18 17  2  0
 19 15  1  0
 20 21  1  0
 20 17  1  0
 22 21  1  0
 23 24  1  0
 23 22  1  0
 24 20  1  0
 25 27  1  0
 24 25  1  6
 26 25  2  0
M  END
$$$$
