FDP.pdb
     RDKit          3D

 27 28  0  0  1  0  0  0  0  0999 V2000
    5.9305  -17.1670   23.7737 N   0  0  0  0  0  0  0  0  0  0  0  0
    6.8269  -16.2098   24.3464 C   0  0  1  0  0  0  0  0  0  0  0  0
    6.2428  -15.7153   25.6408 C   0  0  0  0  0  0  0  0  0  0  0  0
    6.3411  -14.2326   25.6325 C   0  0  0  0  0  0  0  0  0  0  0  0
    7.2604  -13.5460   24.8571 C   0  0  0  0  0  0  0  0  0  0  0  0
    7.3364  -12.1608   24.8633 C   0  0  0  0  0  0  0  0  0  0  0  0
    6.4889  -11.4179   25.6510 C   0  0  0  0  0  0  0  0  0  0  0  0
    5.5610  -12.1043   26.4340 C   0  0  0  0  0  0  0  0  0  0  0  0
    5.4959  -13.4655   26.4194 C   0  0  0  0  0  0  0  0  0  0  0  0
    8.2047  -16.7735   24.5436 C   0  0  0  0  0  0  0  0  0  0  0  0
    8.2935  -17.9437   24.9842 O   0  0  0  0  0  0  0  0  0  0  0  0
    9.3568  -16.0308   24.2503 N   0  0  0  0  0  0  0  0  0  0  0  0
   10.7503  -16.4694   24.3415 C   0  0  1  0  0  0  0  0  0  0  0  0
   11.4414  -16.2050   23.0840 C   0  0  0  0  0  0  0  0  0  0  0  0
   12.8355  -16.6841   22.9679 C   0  0  0  0  0  0  0  0  0  0  0  0
   13.1444  -17.8961   22.8694 O   0  0  0  0  0  0  0  0  0  0  0  0
   11.3467  -16.3580   25.6443 C   0  0  0  0  0  0  0  0  0  0  0  0
   12.3391  -17.1742   25.8197 O   0  0  0  0  0  0  0  0  0  0  0  0
   13.8856  -15.7790   22.9637 O   0  0  0  0  0  0  0  0  0  0  0  0
   11.0461  -15.5426   26.7171 N   0  0  0  0  0  0  0  0  0  0  0  0
   10.7442  -14.0914   26.6971 C   0  0  0  0  0  0  0  0  0  0  0  0
    9.3779  -14.1199   27.4341 C   0  0  0  0  0  0  0  0  0  0  0  0
    9.4384  -15.3985   28.2849 C   0  0  0  0  0  0  0  0  0  0  0  0
   10.9383  -15.7431   28.1534 C   0  0  1  0  0  0  0  0  0  0  0  0
   11.3227  -17.0025   28.6916 C   0  0  0  0  0  0  0  0  0  0  0  0
   11.7329  -17.0151   29.9343 O   0  0  0  0  0  0  0  0  0  0  0  0
   11.3408  -18.2321   28.1136 O   0  0  0  0  0  0  0  0  0  0  0  0
  2  1  1  1
  3  2  1  0
  4  3  1  0
  5  4  2  0
  6  5  1  0
  7  6  2  0
  7  8  1  0
  8  9  2  0
  9  4  1  0
 10 11  2  0
 10  2  1  0
 12 10  1  0
 13 12  1  0
 13 14  1  6
 15 16  2  0
 15 14  1  0
 17 13  1  0
 18 17  2  0
 19 15  1  0
 20 21  1  0
 20 17  1  0
 22 21  1  0
 23 24  1  0
 23 22  1  0
 24 20  1  0
 25 27  1  0
 24 25  1  6
 26 25  2  0
M  END
$$$$
