FDP.pdb
     RDKit          3D

 27 28  0  0  1  0  0  0  0  0999 V2000
    5.9189  -17.0287   21.2519 N   0  0  0  0  0  0  0  0  0  0  0  0
    6.8413  -16.1894   21.9539 C   0  0  1  0  0  0  0  0  0  0  0  0
    6.2936  -14.7893   21.9839 C   0  0  0  0  0  0  0  0  0  0  0  0
    7.0802  -13.9859   21.0124 C   0  0  0  0  0  0  0  0  0  0  0  0
    8.0859  -13.1157   21.3987 C   0  0  0  0  0  0  0  0  0  0  0  0
    8.8091  -12.3742   20.4758 C   0  0  0  0  0  0  0  0  0  0  0  0
    8.5449  -12.4829   19.1309 C   0  0  0  0  0  0  0  0  0  0  0  0
    7.5330  -13.3578   18.7362 C   0  0  0  0  0  0  0  0  0  0  0  0
    6.8293  -14.0811   19.6522 C   0  0  0  0  0  0  0  0  0  0  0  0
    7.1281  -16.6985   23.3372 C   0  0  0  0  0  0  0  0  0  0  0  0
    6.1557  -17.0982   24.0199 O   0  0  0  0  0  0  0  0  0  0  0  0
    8.4289  -16.7314   23.8584 N   0  0  0  0  0  0  0  0  0  0  0  0
    8.8443  -17.1449   25.1997 C   0  0  1  0  0  0  0  0  0  0  0  0
    8.8586  -18.6009   25.2926 C   0  0  0  0  0  0  0  0  0  0  0  0
    9.3165  -19.1899   26.5692 C   0  0  0  0  0  0  0  0  0  0  0  0
   10.5169  -19.4589   26.8158 O   0  0  0  0  0  0  0  0  0  0  0  0
    9.7835  -16.2724   25.8495 C   0  0  0  0  0  0  0  0  0  0  0  0
   11.0026  -16.7119   25.8003 O   0  0  0  0  0  0  0  0  0  0  0  0
    8.4033  -19.4751   27.5725 O   0  0  0  0  0  0  0  0  0  0  0  0
    9.6075  -15.0686   26.5024 N   0  0  0  0  0  0  0  0  0  0  0  0
    8.8600  -13.8797   26.0276 C   0  0  0  0  0  0  0  0  0  0  0  0
    7.9048  -13.6971   27.2379 C   0  0  0  0  0  0  0  0  0  0  0  0
    8.6581  -14.3458   28.4102 C   0  0  0  0  0  0  0  0  0  0  0  0
   10.0543  -14.5216   27.7736 C   0  0  1  0  0  0  0  0  0  0  0  0
   10.9842  -15.2731   28.5442 C   0  0  0  0  0  0  0  0  0  0  0  0
   10.8218  -16.5715   28.5673 O   0  0  0  0  0  0  0  0  0  0  0  0
   12.0429  -14.8568   29.2875 O   0  0  0  0  0  0  0  0  0  0  0  0
  2  1  1  1
  3  2  1  0
  4  3  1  0
  5  4  2  0
  6  5  1  0
  7  6  2  0
  7  8  1  0
  8  9  2  0
  9  4  1  0
 10 11  2  0
 10  2  1  0
 12 10  1  0
 13 12  1  0
 13 14  1  6
 15 16  2  0
 15 14  1  0
 17 13  1  0
 18 17  2  0
 19 15  1  0
 20 21  1  0
 20 17  1  0
 22 21  1  0
 23 24  1  0
 23 22  1  0
 24 20  1  0
 25 27  1  0
 24 25  1  1
 26 25  2  0
M  END
$$$$
