QQG.pdb
     RDKit          3D

 23 22  0  0  1  0  0  0  0  0999 V2000
   16.6760  -16.4625   17.7598 N   0  0  0  0  0  0  0  0  0  0  0  0
   15.8524  -16.0324   16.6978 C   0  0  0  0  0  0  0  0  0  0  0  0
   16.0016  -16.5367   15.5638 O   0  0  0  0  0  0  0  0  0  0  0  0
   14.8130  -14.9973   16.8890 C   0  0  0  0  0  0  0  0  0  0  0  0
   14.8065  -14.4947   18.3318 C   0  0  0  0  0  0  0  0  0  0  0  0
   13.4529  -14.7638   18.9355 C   0  0  2  0  0  0  0  0  0  0  0  0
   12.4907  -13.8021   18.4806 N   0  0  0  0  0  0  0  0  0  0  0  0
   13.5766  -14.7940   20.4094 C   0  0  0  0  0  0  0  0  0  0  0  0
   13.4981  -13.7094   21.0636 O   0  0  0  0  0  0  0  0  0  0  0  0
   10.5456  -17.2686   24.5326 N   0  0  0  0  0  0  0  0  0  0  0  0
   11.7409  -17.3878   25.2803 C   0  0  0  0  0  0  0  0  0  0  0  0
   11.6861  -17.5571   26.5293 O   0  0  0  0  0  0  0  0  0  0  0  0
   13.0686  -17.3279   24.6443 C   0  0  0  0  0  0  0  0  0  0  0  0
   13.1053  -17.1070   23.1894 C   0  0  0  0  0  0  0  0  0  0  0  0
   13.8393  -15.9347   22.6503 C   0  0  2  0  0  0  0  0  0  0  0  0
   13.7817  -15.9767   21.1632 N   0  0  0  0  0  0  0  0  0  0  0  0
   15.2536  -15.7915   22.9930 C   0  0  0  0  0  0  0  0  0  0  0  0
   15.6858  -15.3660   24.1149 O   0  0  0  0  0  0  0  0  0  0  0  0
   16.3000  -16.1278   22.0675 N   0  0  0  0  0  0  0  0  0  0  0  0
   17.6872  -16.1573   22.4631 C   0  0  0  0  0  0  0  0  0  0  0  0
   18.4195  -14.9489   21.9750 C   0  0  0  0  0  0  0  0  0  0  0  0
   17.7952  -13.9069   21.3383 O   0  0  0  0  0  0  0  0  0  0  0  0
   19.6452  -14.8885   22.1551 O   0  0  0  0  0  0  0  0  0  0  0  0
  1  2  1  0
  2  3  2  0
  4  5  1  0
  4  2  1  0
  6  8  1  0
  6  7  1  1
  6  5  1  0
  8  9  2  0
 10 11  1  0
 11 12  2  0
 13 11  1  0
 13 14  1  0
 15 14  1  1
 15 17  1  0
 16 15  1  0
 16  8  1  0
 17 18  2  0
 17 19  1  0
 19 20  1  0
 21 20  1  0
 21 22  1  0
 23 21  2  0
M  END
$$$$
