QQG.pdb
     RDKit          3D

 23 22  0  0  1  0  0  0  0  0999 V2000
    7.3426  -17.4130   19.3731 N   0  0  0  0  0  0  0  0  0  0  0  0
    7.3514  -16.7144   18.1471 C   0  0  0  0  0  0  0  0  0  0  0  0
    6.7337  -17.1867   17.1684 O   0  0  0  0  0  0  0  0  0  0  0  0
    8.0738  -15.4335   17.9864 C   0  0  0  0  0  0  0  0  0  0  0  0
    8.7047  -14.9968   19.3076 C   0  0  0  0  0  0  0  0  0  0  0  0
    7.8659  -13.8994   19.9089 C   0  0  2  0  0  0  0  0  0  0  0  0
    7.9991  -12.6850   19.1573 N   0  0  0  0  0  0  0  0  0  0  0  0
    8.2333  -13.7328   21.3322 C   0  0  0  0  0  0  0  0  0  0  0  0
    9.2004  -12.9714   21.6410 O   0  0  0  0  0  0  0  0  0  0  0  0
    5.9600  -11.6434   25.7631 N   0  0  0  0  0  0  0  0  0  0  0  0
    6.5099  -12.6302   26.6151 C   0  0  0  0  0  0  0  0  0  0  0  0
    6.6850  -12.3767   27.8385 O   0  0  0  0  0  0  0  0  0  0  0  0
    6.8852  -13.9667   26.1212 C   0  0  0  0  0  0  0  0  0  0  0  0
    6.7581  -14.2063   24.6744 C   0  0  0  0  0  0  0  0  0  0  0  0
    7.9660  -14.1263   23.8153 C   0  0  2  0  0  0  0  0  0  0  0  0
    7.5665  -14.3784   22.4034 N   0  0  0  0  0  0  0  0  0  0  0  0
    9.0684  -15.0467   24.0907 C   0  0  0  0  0  0  0  0  0  0  0  0
    9.8850  -14.9257   25.0627 O   0  0  0  0  0  0  0  0  0  0  0  0
    9.3278  -16.1939   23.2653 N   0  0  0  0  0  0  0  0  0  0  0  0
   10.4583  -17.0599   23.4972 C   0  0  0  0  0  0  0  0  0  0  0  0
   10.4048  -17.6738   24.8592 C   0  0  0  0  0  0  0  0  0  0  0  0
   11.5292  -17.9797   25.5824 O   0  0  0  0  0  0  0  0  0  0  0  0
    9.2938  -17.9160   25.3545 O   0  0  0  0  0  0  0  0  0  0  0  0
  1  2  1  0
  2  3  2  0
  4  5  1  0
  4  2  1  0
  6  8  1  0
  6  7  1  6
  6  5  1  0
  8  9  2  0
 10 11  1  0
 11 12  2  0
 13 11  1  0
 13 14  1  0
 15 14  1  1
 15 17  1  0
 16 15  1  0
 16  8  1  0
 17 18  2  0
 17 19  1  0
 19 20  1  0
 21 20  1  0
 21 22  1  0
 23 21  2  0
M  END
$$$$
