QQG.pdb
     RDKit          3D

 23 22  0  0  1  0  0  0  0  0999 V2000
    9.6633  -14.2189   18.0801 N   0  0  0  0  0  0  0  0  0  0  0  0
    8.4390  -13.6955   17.6130 C   0  0  0  0  0  0  0  0  0  0  0  0
    8.1711  -13.7586   16.3937 O   0  0  0  0  0  0  0  0  0  0  0  0
    7.4592  -13.0715   18.5291 C   0  0  0  0  0  0  0  0  0  0  0  0
    7.8633  -13.2897   19.9863 C   0  0  0  0  0  0  0  0  0  0  0  0
    7.4477  -14.6757   20.4051 C   0  0  2  0  0  0  0  0  0  0  0  0
    6.0252  -14.7536   20.5714 N   0  0  0  0  0  0  0  0  0  0  0  0
    8.1869  -15.0546   21.6292 C   0  0  0  0  0  0  0  0  0  0  0  0
    7.8238  -14.5795   22.7485 O   0  0  0  0  0  0  0  0  0  0  0  0
   12.0358  -20.0110   24.9246 N   0  0  0  0  0  0  0  0  0  0  0  0
   10.8480  -19.6007   24.2743 C   0  0  0  0  0  0  0  0  0  0  0  0
   10.2530  -20.3940   23.4943 O   0  0  0  0  0  0  0  0  0  0  0  0
   10.2662  -18.2631   24.4825 C   0  0  0  0  0  0  0  0  0  0  0  0
    9.5979  -17.6363   23.3304 C   0  0  0  0  0  0  0  0  0  0  0  0
    9.9937  -16.2667   22.9170 C   0  0  2  0  0  0  0  0  0  0  0  0
    9.2999  -15.9322   21.6429 N   0  0  0  0  0  0  0  0  0  0  0  0
   11.4126  -16.0018   22.6827 C   0  0  0  0  0  0  0  0  0  0  0  0
   12.0217  -16.2435   21.5886 O   0  0  0  0  0  0  0  0  0  0  0  0
   12.2588  -15.4320   23.6945 N   0  0  0  0  0  0  0  0  0  0  0  0
   13.6306  -15.0729   23.4276 C   0  0  0  0  0  0  0  0  0  0  0  0
   14.5519  -16.2268   23.6611 C   0  0  0  0  0  0  0  0  0  0  0  0
   15.9150  -16.1253   23.5492 O   0  0  0  0  0  0  0  0  0  0  0  0
   14.0594  -17.3226   23.9694 O   0  0  0  0  0  0  0  0  0  0  0  0
  1  2  1  0
  2  3  2  0
  4  5  1  0
  4  2  1  0
  6  8  1  0
  6  7  1  1
  6  5  1  0
  8  9  2  0
 10 11  1  0
 11 12  2  0
 13 11  1  0
 13 14  1  0
 15 14  1  6
 15 17  1  0
 16 15  1  0
 16  8  1  0
 17 18  2  0
 17 19  1  0
 19 20  1  0
 21 20  1  0
 21 22  1  0
 23 21  2  0
M  END
$$$$
