QQG.pdb
     RDKit          3D

 23 22  0  0  1  0  0  0  0  0999 V2000
    6.7675  -13.5645   20.1783 N   0  0  0  0  0  0  0  0  0  0  0  0
    6.8331  -12.9443   18.9125 C   0  0  0  0  0  0  0  0  0  0  0  0
    6.0055  -12.0533   18.6232 O   0  0  0  0  0  0  0  0  0  0  0  0
    7.8578  -13.3201   17.9138 C   0  0  0  0  0  0  0  0  0  0  0  0
    8.7365  -14.4545   18.4385 C   0  0  0  0  0  0  0  0  0  0  0  0
    9.7102  -14.8549   17.3611 C   0  0  2  0  0  0  0  0  0  0  0  0
    9.1405  -15.8539   16.5038 N   0  0  0  0  0  0  0  0  0  0  0  0
   10.9746  -15.2961   17.9896 C   0  0  0  0  0  0  0  0  0  0  0  0
   11.1392  -16.5243   18.2629 O   0  0  0  0  0  0  0  0  0  0  0  0
   16.7401  -12.8698   17.2713 N   0  0  0  0  0  0  0  0  0  0  0  0
   16.9272  -13.8251   18.2981 C   0  0  0  0  0  0  0  0  0  0  0  0
   18.0916  -14.0889   18.7059 O   0  0  0  0  0  0  0  0  0  0  0  0
   15.7948  -14.5295   18.9245 C   0  0  0  0  0  0  0  0  0  0  0  0
   14.4472  -14.2055   18.4288 C   0  0  0  0  0  0  0  0  0  0  0  0
   13.2768  -14.9394   18.9721 C   0  0  2  0  0  0  0  0  0  0  0  0
   12.0430  -14.4240   18.3173 N   0  0  0  0  0  0  0  0  0  0  0  0
   13.0271  -14.8677   20.4111 C   0  0  0  0  0  0  0  0  0  0  0  0
   12.1996  -14.0688   20.9619 O   0  0  0  0  0  0  0  0  0  0  0  0
   13.7132  -15.7151   21.3468 N   0  0  0  0  0  0  0  0  0  0  0  0
   13.5171  -15.5937   22.7712 C   0  0  0  0  0  0  0  0  0  0  0  0
   14.3404  -16.5902   23.5221 C   0  0  0  0  0  0  0  0  0  0  0  0
   14.4677  -16.5726   24.8875 O   0  0  0  0  0  0  0  0  0  0  0  0
   14.9331  -17.4703   22.8798 O   0  0  0  0  0  0  0  0  0  0  0  0
  1  2  1  0
  2  3  2  0
  4  5  1  0
  4  2  1  0
  6  8  1  0
  6  7  1  1
  6  5  1  0
  8  9  2  0
 10 11  1  0
 11 12  2  0
 13 11  1  0
 13 14  1  0
 15 14  1  1
 15 17  1  0
 16 15  1  0
 16  8  1  0
 17 18  2  0
 17 19  1  0
 19 20  1  0
 21 20  1  0
 21 22  1  0
 23 21  2  0
M  END
$$$$
