QQG.pdb
     RDKit          3D

 23 22  0  0  1  0  0  0  0  0999 V2000
   12.3308  -18.3420   20.3136 N   0  0  0  0  0  0  0  0  0  0  0  0
   11.0379  -18.7528   20.7020 C   0  0  0  0  0  0  0  0  0  0  0  0
   10.1134  -18.7428   19.8609 O   0  0  0  0  0  0  0  0  0  0  0  0
   10.7442  -19.1968   22.0823 C   0  0  0  0  0  0  0  0  0  0  0  0
   12.0057  -19.1620   22.9436 C   0  0  0  0  0  0  0  0  0  0  0  0
   11.6698  -19.6719   24.3207 C   0  0  2  0  0  0  0  0  0  0  0  0
   10.3388  -20.2053   24.3569 N   0  0  0  0  0  0  0  0  0  0  0  0
   11.8763  -18.5858   25.3036 C   0  0  0  0  0  0  0  0  0  0  0  0
   13.0152  -18.0331   25.3913 O   0  0  0  0  0  0  0  0  0  0  0  0
    8.3091  -13.7461   26.3538 N   0  0  0  0  0  0  0  0  0  0  0  0
    9.2215  -13.6441   27.4305 C   0  0  0  0  0  0  0  0  0  0  0  0
    9.1662  -12.6526   28.2086 O   0  0  0  0  0  0  0  0  0  0  0  0
   10.2455  -14.6723   27.6859 C   0  0  0  0  0  0  0  0  0  0  0  0
   10.2127  -15.8756   26.8388 C   0  0  0  0  0  0  0  0  0  0  0  0
   11.1467  -16.9930   27.1265 C   0  0  2  0  0  0  0  0  0  0  0  0
   10.8685  -18.1055   26.1770 N   0  0  0  0  0  0  0  0  0  0  0  0
   11.1167  -17.5882   28.4617 C   0  0  0  0  0  0  0  0  0  0  0  0
   11.3660  -16.9556   29.5406 O   0  0  0  0  0  0  0  0  0  0  0  0
   10.7951  -18.9728   28.6719 N   0  0  0  0  0  0  0  0  0  0  0  0
   10.6648  -19.5327   29.9954 C   0  0  0  0  0  0  0  0  0  0  0  0
   11.8771  -20.3199   30.3765 C   0  0  0  0  0  0  0  0  0  0  0  0
   11.9844  -20.9915   31.5674 O   0  0  0  0  0  0  0  0  0  0  0  0
   12.8259  -20.3660   29.5789 O   0  0  0  0  0  0  0  0  0  0  0  0
  1  2  1  0
  2  3  2  0
  4  5  1  0
  4  2  1  0
  6  8  1  0
  6  7  1  6
  6  5  1  0
  8  9  2  0
 10 11  1  0
 11 12  2  0
 13 11  1  0
 13 14  1  0
 15 14  1  1
 15 17  1  0
 16 15  1  0
 16  8  1  0
 17 18  2  0
 17 19  1  0
 19 20  1  0
 21 20  1  0
 21 22  1  0
 23 21  2  0
M  END
$$$$
