QQG.pdb
     RDKit          3D

 23 22  0  0  1  0  0  0  0  0999 V2000
   11.9909  -14.7390   18.6856 N   0  0  0  0  0  0  0  0  0  0  0  0
   10.7605  -15.2962   18.2770 C   0  0  0  0  0  0  0  0  0  0  0  0
   10.4703  -16.4614   18.6242 O   0  0  0  0  0  0  0  0  0  0  0  0
    9.8003  -14.5375   17.4458 C   0  0  0  0  0  0  0  0  0  0  0  0
    8.3671  -14.7747   17.9190 C   0  0  0  0  0  0  0  0  0  0  0  0
    7.9285  -13.5996   18.7533 C   0  0  2  0  0  0  0  0  0  0  0  0
    8.3674  -12.3659   18.1679 N   0  0  0  0  0  0  0  0  0  0  0  0
    8.4161  -13.7793   20.1384 C   0  0  0  0  0  0  0  0  0  0  0  0
    9.5445  -13.3017   20.4686 O   0  0  0  0  0  0  0  0  0  0  0  0
    6.0843  -16.5633   25.3934 N   0  0  0  0  0  0  0  0  0  0  0  0
    6.7069  -15.3764   25.8470 C   0  0  0  0  0  0  0  0  0  0  0  0
    6.7791  -15.1384   27.0838 O   0  0  0  0  0  0  0  0  0  0  0  0
    7.2900  -14.3955   24.9149 C   0  0  0  0  0  0  0  0  0  0  0  0
    7.0679  -14.6228   23.4776 C   0  0  0  0  0  0  0  0  0  0  0  0
    8.2173  -14.5380   22.5420 C   0  0  2  0  0  0  0  0  0  0  0  0
    7.6960  -14.4638   21.1493 N   0  0  0  0  0  0  0  0  0  0  0  0
    9.1913  -15.6285   22.5481 C   0  0  0  0  0  0  0  0  0  0  0  0
    9.0295  -16.7453   21.9541 O   0  0  0  0  0  0  0  0  0  0  0  0
   10.4446  -15.5271   23.2436 N   0  0  0  0  0  0  0  0  0  0  0  0
   11.3337  -16.6552   23.3810 C   0  0  0  0  0  0  0  0  0  0  0  0
   12.6305  -16.2546   24.0075 C   0  0  0  0  0  0  0  0  0  0  0  0
   13.8398  -16.4099   23.3796 O   0  0  0  0  0  0  0  0  0  0  0  0
   12.6089  -15.7604   25.1449 O   0  0  0  0  0  0  0  0  0  0  0  0
  1  2  1  0
  2  3  2  0
  4  5  1  0
  4  2  1  0
  6  8  1  0
  6  7  1  6
  6  5  1  0
  8  9  2  0
 10 11  1  0
 11 12  2  0
 13 11  1  0
 13 14  1  0
 15 14  1  1
 15 17  1  0
 16 15  1  0
 16  8  1  0
 17 18  2  0
 17 19  1  0
 19 20  1  0
 21 20  1  0
 21 22  1  0
 23 21  2  0
M  END
$$$$
