QQG.pdb
     RDKit          3D

 23 22  0  0  1  0  0  0  0  0999 V2000
    9.0559  -13.2985   15.3554 N   0  0  0  0  0  0  0  0  0  0  0  0
    7.6804  -13.5212   15.5776 C   0  0  0  0  0  0  0  0  0  0  0  0
    6.9239  -13.7064   14.5998 O   0  0  0  0  0  0  0  0  0  0  0  0
    7.1055  -13.5419   16.9405 C   0  0  0  0  0  0  0  0  0  0  0  0
    8.1928  -13.3238   17.9915 C   0  0  0  0  0  0  0  0  0  0  0  0
    9.0947  -14.5301   18.0172 C   0  0  2  0  0  0  0  0  0  0  0  0
    8.3297  -15.7368   18.1445 N   0  0  0  0  0  0  0  0  0  0  0  0
   10.0899  -14.3686   19.0998 C   0  0  0  0  0  0  0  0  0  0  0  0
   10.7407  -13.2830   19.1910 O   0  0  0  0  0  0  0  0  0  0  0  0
   11.3866  -14.4793   24.3876 N   0  0  0  0  0  0  0  0  0  0  0  0
   10.2527  -15.2776   24.1063 C   0  0  0  0  0  0  0  0  0  0  0  0
    9.2265  -15.1897   24.8348 O   0  0  0  0  0  0  0  0  0  0  0  0
   10.2220  -16.2176   22.9721 C   0  0  0  0  0  0  0  0  0  0  0  0
   11.3935  -16.2311   22.0810 C   0  0  0  0  0  0  0  0  0  0  0  0
   11.5106  -15.2012   21.0183 C   0  0  2  0  0  0  0  0  0  0  0  0
   10.3765  -15.3639   20.0675 N   0  0  0  0  0  0  0  0  0  0  0  0
   12.7222  -15.1919   20.1997 C   0  0  0  0  0  0  0  0  0  0  0  0
   13.1253  -16.1749   19.4944 O   0  0  0  0  0  0  0  0  0  0  0  0
   13.5806  -14.0422   20.1219 N   0  0  0  0  0  0  0  0  0  0  0  0
   14.7119  -13.9947   19.2275 C   0  0  0  0  0  0  0  0  0  0  0  0
   15.9269  -14.6014   19.8522 C   0  0  0  0  0  0  0  0  0  0  0  0
   16.3493  -15.8761   19.5738 O   0  0  0  0  0  0  0  0  0  0  0  0
   16.5797  -13.9200   20.6572 O   0  0  0  0  0  0  0  0  0  0  0  0
  1  2  1  0
  2  3  2  0
  4  5  1  0
  4  2  1  0
  6  8  1  0
  6  7  1  1
  6  5  1  0
  8  9  2  0
 10 11  1  0
 11 12  2  0
 13 11  1  0
 13 14  1  0
 15 14  1  1
 15 17  1  0
 16 15  1  0
 16  8  1  0
 17 18  2  0
 17 19  1  0
 19 20  1  0
 21 20  1  0
 21 22  1  0
 23 21  2  0
M  END
$$$$
