QQG.pdb
     RDKit          3D

 23 22  0  0  1  0  0  0  0  0999 V2000
    8.8593  -12.5285   17.5873 N   0  0  0  0  0  0  0  0  0  0  0  0
    7.6698  -13.2757   17.4531 C   0  0  0  0  0  0  0  0  0  0  0  0
    7.2246  -13.5188   16.3107 O   0  0  0  0  0  0  0  0  0  0  0  0
    6.9316  -13.7818   18.6309 C   0  0  0  0  0  0  0  0  0  0  0  0
    7.8959  -14.3316   19.6807 C   0  0  0  0  0  0  0  0  0  0  0  0
    8.8075  -15.3366   19.0263 C   0  0  2  0  0  0  0  0  0  0  0  0
    8.0687  -16.4837   18.5839 N   0  0  0  0  0  0  0  0  0  0  0  0
    9.8966  -15.6864   19.9643 C   0  0  0  0  0  0  0  0  0  0  0  0
    9.8350  -16.7757   20.6124 O   0  0  0  0  0  0  0  0  0  0  0  0
   15.6816  -15.4570   19.4358 N   0  0  0  0  0  0  0  0  0  0  0  0
   15.7376  -15.2327   20.8317 C   0  0  0  0  0  0  0  0  0  0  0  0
   16.8154  -15.4307   21.4568 O   0  0  0  0  0  0  0  0  0  0  0  0
   14.5679  -14.7620   21.5941 C   0  0  0  0  0  0  0  0  0  0  0  0
   13.3345  -14.4996   20.8348 C   0  0  0  0  0  0  0  0  0  0  0  0
   12.1323  -15.3320   21.0907 C   0  0  2  0  0  0  0  0  0  0  0  0
   11.0332  -14.8722   20.1977 N   0  0  0  0  0  0  0  0  0  0  0  0
   11.5748  -15.3382   22.4425 C   0  0  0  0  0  0  0  0  0  0  0  0
   10.6157  -14.5933   22.8320 O   0  0  0  0  0  0  0  0  0  0  0  0
   12.0767  -16.2083   23.4699 N   0  0  0  0  0  0  0  0  0  0  0  0
   11.6345  -16.1050   24.8395 C   0  0  0  0  0  0  0  0  0  0  0  0
   12.3580  -17.0718   25.7207 C   0  0  0  0  0  0  0  0  0  0  0  0
   12.2534  -17.0547   27.0880 O   0  0  0  0  0  0  0  0  0  0  0  0
   13.0839  -17.9257   25.1894 O   0  0  0  0  0  0  0  0  0  0  0  0
  1  2  1  0
  2  3  2  0
  4  5  1  0
  4  2  1  0
  6  8  1  0
  6  7  1  1
  6  5  1  0
  8  9  2  0
 10 11  1  0
 11 12  2  0
 13 11  1  0
 13 14  1  0
 15 14  1  1
 15 17  1  0
 16 15  1  0
 16  8  1  0
 17 18  2  0
 17 19  1  0
 19 20  1  0
 21 20  1  0
 21 22  1  0
 23 21  2  0
M  END
$$$$
