YPG.pdb
     RDKit          3D

 24 25  0  0  1  0  0  0  0  0999 V2000
    7.6999  -13.3217   16.6270 O   0  0  0  0  0  0  0  0  0  0  0  0
    7.6528  -13.5858   17.9771 C   0  0  0  0  0  0  0  0  0  0  0  0
    7.4146  -14.8639   18.4267 C   0  0  0  0  0  0  0  0  0  0  0  0
    7.3647  -15.1428   19.7965 C   0  0  0  0  0  0  0  0  0  0  0  0
    7.5547  -14.1338   20.6931 C   0  0  0  0  0  0  0  0  0  0  0  0
    7.5021  -14.4276   22.1438 C   0  0  0  0  0  0  0  0  0  0  0  0
    8.8490  -14.0466   22.7856 C   0  0  2  0  0  0  0  0  0  0  0  0
    9.8849  -14.7260   22.0072 N   0  0  0  0  0  0  0  0  0  0  0  0
    8.9007  -14.5097   24.1762 C   0  0  0  0  0  0  0  0  0  0  0  0
    9.8359  -15.3276   24.4950 O   0  0  0  0  0  0  0  0  0  0  0  0
    7.7950  -12.8440   20.2402 C   0  0  0  0  0  0  0  0  0  0  0  0
    7.8429  -12.5762   18.8843 C   0  0  0  0  0  0  0  0  0  0  0  0
    8.0133  -14.1385   25.2075 N   0  0  0  0  0  0  0  0  0  0  0  0
    6.7315  -13.4774   25.0757 C   0  0  0  0  0  0  0  0  0  0  0  0
    6.6620  -12.6093   26.3097 C   0  0  0  0  0  0  0  0  0  0  0  0
    7.8618  -12.9632   27.1607 C   0  0  0  0  0  0  0  0  0  0  0  0
    8.2163  -14.3381   26.6216 C   0  0  1  0  0  0  0  0  0  0  0  0
    7.2378  -15.3207   27.1937 C   0  0  0  0  0  0  0  0  0  0  0  0
    5.9959  -15.2070   27.1034 O   0  0  0  0  0  0  0  0  0  0  0  0
    7.7947  -16.4447   27.8776 N   0  0  0  0  0  0  0  0  0  0  0  0
    9.2325  -16.5995   27.9255 C   0  0  0  0  0  0  0  0  0  0  0  0
    9.6076  -17.8092   28.6898 C   0  0  0  0  0  0  0  0  0  0  0  0
   10.9458  -18.0724   28.9095 O   0  0  0  0  0  0  0  0  0  0  0  0
    8.7310  -18.5837   29.1318 O   0  0  0  0  0  0  0  0  0  0  0  0
  2  1  1  0
  3  2  2  0
  4  3  1  0
  5 11  1  0
  5  4  2  0
  6  5  1  0
  7  6  1  0
  7  9  1  0
  7  8  1  6
  9 13  1  0
 10  9  2  0
 11 12  2  0
 12  2  1  0
 13 17  1  0
 13 14  1  0
 14 15  1  0
 16 15  1  0
 17 16  1  0
 18 19  2  0
 17 18  1  1
 20 18  1  0
 21 20  1  0
 22 21  1  0
 22 23  1  0
 24 22  2  0
M  END
$$$$
