YPG.pdb
     RDKit          3D

 24 25  0  0  1  0  0  0  0  0999 V2000
    6.4883  -10.5881   26.8761 O   0  0  0  0  0  0  0  0  0  0  0  0
    6.6946  -11.9370   26.6948 C   0  0  0  0  0  0  0  0  0  0  0  0
    5.7360  -12.8443   27.0823 C   0  0  0  0  0  0  0  0  0  0  0  0
    5.9358  -14.2170   26.9025 C   0  0  0  0  0  0  0  0  0  0  0  0
    7.0952  -14.6568   26.3364 C   0  0  0  0  0  0  0  0  0  0  0  0
    7.3083  -16.1100   26.1453 C   0  0  0  0  0  0  0  0  0  0  0  0
    6.5166  -16.5787   24.9107 C   0  0  2  0  0  0  0  0  0  0  0  0
    5.9012  -17.8554   25.2741 N   0  0  0  0  0  0  0  0  0  0  0  0
    7.4186  -16.7784   23.7717 C   0  0  0  0  0  0  0  0  0  0  0  0
    7.8493  -17.9674   23.5569 O   0  0  0  0  0  0  0  0  0  0  0  0
    8.0629  -13.7419   25.9452 C   0  0  0  0  0  0  0  0  0  0  0  0
    7.8579  -12.3864   26.1263 C   0  0  0  0  0  0  0  0  0  0  0  0
    7.8622  -15.7799   22.8800 N   0  0  0  0  0  0  0  0  0  0  0  0
    7.5265  -14.3712   22.8922 C   0  0  0  0  0  0  0  0  0  0  0  0
    7.5000  -14.0096   21.4260 C   0  0  0  0  0  0  0  0  0  0  0  0
    7.9910  -15.2234   20.6680 C   0  0  0  0  0  0  0  0  0  0  0  0
    8.7442  -15.9707   21.7546 C   0  0  1  0  0  0  0  0  0  0  0  0
   10.0622  -15.2826   21.9544 C   0  0  0  0  0  0  0  0  0  0  0  0
   10.2615  -14.0695   21.7263 O   0  0  0  0  0  0  0  0  0  0  0  0
   11.1343  -16.0946   22.4365 N   0  0  0  0  0  0  0  0  0  0  0  0
   12.2100  -16.4496   21.5362 C   0  0  0  0  0  0  0  0  0  0  0  0
   13.2033  -17.3106   22.2146 C   0  0  0  0  0  0  0  0  0  0  0  0
   12.9493  -17.7352   23.5043 O   0  0  0  0  0  0  0  0  0  0  0  0
   14.2571  -17.6511   21.6338 O   0  0  0  0  0  0  0  0  0  0  0  0
  2  1  1  0
  3  2  2  0
  4  3  1  0
  5 11  1  0
  5  4  2  0
  6  5  1  0
  7  6  1  0
  7  9  1  0
  7  8  1  1
  9 13  1  0
 10  9  2  0
 11 12  2  0
 12  2  1  0
 13 17  1  0
 13 14  1  0
 14 15  1  0
 16 15  1  0
 17 16  1  0
 18 19  2  0
 17 18  1  1
 20 18  1  0
 21 20  1  0
 22 21  1  0
 22 23  1  0
 24 22  2  0
M  END
$$$$
