YPG.pdb
     RDKit          3D

 24 25  0  0  1  0  0  0  0  0999 V2000
    6.2631  -10.6700   27.0157 O   0  0  0  0  0  0  0  0  0  0  0  0
    6.5838  -11.9608   26.6607 C   0  0  0  0  0  0  0  0  0  0  0  0
    5.6834  -12.9808   26.8637 C   0  0  0  0  0  0  0  0  0  0  0  0
    5.9994  -14.2958   26.5065 C   0  0  0  0  0  0  0  0  0  0  0  0
    7.2147  -14.5655   25.9512 C   0  0  0  0  0  0  0  0  0  0  0  0
    7.5508  -15.9574   25.5725 C   0  0  0  0  0  0  0  0  0  0  0  0
    6.5795  -16.4311   24.4756 C   0  0  2  0  0  0  0  0  0  0  0  0
    5.9343  -17.6400   24.9884 N   0  0  0  0  0  0  0  0  0  0  0  0
    7.3143  -16.7533   23.2479 C   0  0  0  0  0  0  0  0  0  0  0  0
    7.4178  -17.9905   22.9254 O   0  0  0  0  0  0  0  0  0  0  0  0
    8.1237  -13.5369   25.7461 C   0  0  0  0  0  0  0  0  0  0  0  0
    7.8039  -12.2394   26.1019 C   0  0  0  0  0  0  0  0  0  0  0  0
    7.9234  -15.8252   22.3781 N   0  0  0  0  0  0  0  0  0  0  0  0
    8.0465  -14.3936   22.5584 C   0  0  0  0  0  0  0  0  0  0  0  0
    7.9391  -13.8575   21.1506 C   0  0  0  0  0  0  0  0  0  0  0  0
    7.9236  -15.0558   20.2270 C   0  0  0  0  0  0  0  0  0  0  0  0
    8.5449  -16.1232   21.1109 C   0  0  1  0  0  0  0  0  0  0  0  0
   10.0256  -15.8851   21.1447 C   0  0  0  0  0  0  0  0  0  0  0  0
   10.6061  -14.9859   20.4983 O   0  0  0  0  0  0  0  0  0  0  0  0
   10.7891  -16.7589   21.9782 N   0  0  0  0  0  0  0  0  0  0  0  0
   11.3384  -17.9719   21.4120 C   0  0  0  0  0  0  0  0  0  0  0  0
   12.5537  -17.6812   20.6201 C   0  0  0  0  0  0  0  0  0  0  0  0
   13.7009  -17.2832   21.2787 O   0  0  0  0  0  0  0  0  0  0  0  0
   12.5470  -17.7926   19.3746 O   0  0  0  0  0  0  0  0  0  0  0  0
  2  1  1  0
  3  2  2  0
  4  3  1  0
  5 11  1  0
  5  4  2  0
  6  5  1  0
  7  6  1  0
  7  9  1  0
  7  8  1  1
  9 13  1  0
 10  9  2  0
 11 12  2  0
 12  2  1  0
 13 17  1  0
 13 14  1  0
 14 15  1  0
 16 15  1  0
 17 16  1  0
 18 19  2  0
 17 18  1  1
 20 18  1  0
 21 20  1  0
 22 21  1  0
 22 23  1  0
 24 22  2  0
M  END
$$$$
