YPG.pdb
     RDKit          3D

 24 25  0  0  1  0  0  0  0  0999 V2000
   11.3828  -14.9447   31.5558 O   0  0  0  0  0  0  0  0  0  0  0  0
   10.8395  -15.3004   30.3420 C   0  0  0  0  0  0  0  0  0  0  0  0
   10.3898  -14.3337   29.4726 C   0  0  0  0  0  0  0  0  0  0  0  0
    9.8362  -14.6846   28.2368 C   0  0  0  0  0  0  0  0  0  0  0  0
    9.7430  -16.0005   27.8938 C   0  0  0  0  0  0  0  0  0  0  0  0
    9.1570  -16.3736   26.5857 C   0  0  0  0  0  0  0  0  0  0  0  0
    7.6309  -16.5120   26.7368 C   0  0  2  0  0  0  0  0  0  0  0  0
    7.3303  -17.9383   26.6104 N   0  0  0  0  0  0  0  0  0  0  0  0
    6.9437  -15.7722   25.6730 C   0  0  0  0  0  0  0  0  0  0  0  0
    6.2053  -16.4420   24.8659 O   0  0  0  0  0  0  0  0  0  0  0  0
   10.1965  -16.9763   28.7705 C   0  0  0  0  0  0  0  0  0  0  0  0
   10.7426  -16.6215   29.9904 C   0  0  0  0  0  0  0  0  0  0  0  0
    7.0159  -14.3816   25.4499 N   0  0  0  0  0  0  0  0  0  0  0  0
    7.6145  -13.3787   26.3062 C   0  0  0  0  0  0  0  0  0  0  0  0
    6.7267  -12.1743   26.1005 C   0  0  0  0  0  0  0  0  0  0  0  0
    5.7572  -12.5302   24.9949 C   0  0  0  0  0  0  0  0  0  0  0  0
    6.4893  -13.6712   24.3103 C   0  0  1  0  0  0  0  0  0  0  0  0
    7.5800  -13.0765   23.4694 C   0  0  0  0  0  0  0  0  0  0  0  0
    8.0535  -11.9321   23.6420 O   0  0  0  0  0  0  0  0  0  0  0  0
    8.0860  -13.8968   22.4148 N   0  0  0  0  0  0  0  0  0  0  0  0
    7.2467  -14.1679   21.2678 C   0  0  0  0  0  0  0  0  0  0  0  0
    7.9078  -15.1135   20.3420 C   0  0  0  0  0  0  0  0  0  0  0  0
    8.5858  -16.1972   20.8655 O   0  0  0  0  0  0  0  0  0  0  0  0
    7.8564  -14.9385   19.1048 O   0  0  0  0  0  0  0  0  0  0  0  0
  2  1  1  0
  3  2  2  0
  4  3  1  0
  5 11  1  0
  5  4  2  0
  6  5  1  0
  7  6  1  0
  7  9  1  0
  7  8  1  6
  9 13  1  0
 10  9  2  0
 11 12  2  0
 12  2  1  0
 13 17  1  0
 13 14  1  0
 14 15  1  0
 16 15  1  0
 17 16  1  0
 18 19  2  0
 17 18  1  6
 20 18  1  0
 21 20  1  0
 22 21  1  0
 22 23  1  0
 24 22  2  0
M  END
$$$$
