YPG.pdb
     RDKit          3D

 24 25  0  0  1  0  0  0  0  0999 V2000
    5.7356  -10.9063   28.5058 O   0  0  0  0  0  0  0  0  0  0  0  0
    6.3119  -11.7661   27.5984 C   0  0  0  0  0  0  0  0  0  0  0  0
    7.3637  -12.5692   27.9741 C   0  0  0  0  0  0  0  0  0  0  0  0
    7.9564  -13.4463   27.0598 C   0  0  0  0  0  0  0  0  0  0  0  0
    7.4835  -13.5030   25.7826 C   0  0  0  0  0  0  0  0  0  0  0  0
    8.1101  -14.4312   24.8133 C   0  0  0  0  0  0  0  0  0  0  0  0
    7.0204  -15.3248   24.1927 C   0  0  2  0  0  0  0  0  0  0  0  0
    6.7610  -16.3923   25.1590 N   0  0  0  0  0  0  0  0  0  0  0  0
    7.4958  -15.9099   22.9347 C   0  0  0  0  0  0  0  0  0  0  0  0
    7.4807  -17.1884   22.8317 O   0  0  0  0  0  0  0  0  0  0  0  0
    6.4224  -12.6930   25.4028 C   0  0  0  0  0  0  0  0  0  0  0  0
    5.8417  -11.8284   26.3126 C   0  0  0  0  0  0  0  0  0  0  0  0
    7.9719  -15.1960   21.8155 N   0  0  0  0  0  0  0  0  0  0  0  0
    8.1923  -13.7689   21.7056 C   0  0  0  0  0  0  0  0  0  0  0  0
    7.8460  -13.4758   20.2650 C   0  0  0  0  0  0  0  0  0  0  0  0
    7.6017  -14.8099   19.5945 C   0  0  0  0  0  0  0  0  0  0  0  0
    8.3289  -15.7552   20.5347 C   0  0  1  0  0  0  0  0  0  0  0  0
    9.7988  -15.6324   20.2612 C   0  0  0  0  0  0  0  0  0  0  0  0
   10.4765  -14.6128   20.5152 O   0  0  0  0  0  0  0  0  0  0  0  0
   10.4314  -16.7707   19.6736 N   0  0  0  0  0  0  0  0  0  0  0  0
   11.5307  -17.4040   20.3694 C   0  0  0  0  0  0  0  0  0  0  0  0
   12.0230  -18.5797   19.6185 C   0  0  0  0  0  0  0  0  0  0  0  0
   11.1793  -19.6585   19.4383 O   0  0  0  0  0  0  0  0  0  0  0  0
   13.1833  -18.6008   19.1528 O   0  0  0  0  0  0  0  0  0  0  0  0
  2  1  1  0
  3  2  2  0
  4  3  1  0
  5 11  1  0
  5  4  2  0
  6  5  1  0
  7  6  1  0
  7  9  1  0
  7  8  1  1
  9 13  1  0
 10  9  2  0
 11 12  2  0
 12  2  1  0
 13 17  1  0
 13 14  1  0
 14 15  1  0
 16 15  1  0
 17 16  1  0
 18 19  2  0
 17 18  1  6
 20 18  1  0
 21 20  1  0
 22 21  1  0
 22 23  1  0
 24 22  2  0
M  END
$$$$
