DEC.pdb
     RDKit          3D

 24 23  0  0  1  0  0  0  0  0999 V2000
   11.1314  -16.7434   20.3527 N   0  0  0  0  0  0  0  0  0  0  0  0
    9.8693  -17.1672   20.8711 C   0  0  1  0  0  0  0  0  0  0  0  0
    9.3934  -18.4587   20.2720 C   0  0  0  0  0  0  0  0  0  0  0  0
    9.1904  -18.2669   18.8230 C   0  0  0  0  0  0  0  0  0  0  0  0
   10.1505  -18.3783   18.0413 O   0  0  0  0  0  0  0  0  0  0  0  0
    9.8757  -17.2423   22.3657 C   0  0  0  0  0  0  0  0  0  0  0  0
    8.7874  -17.4640   22.9318 O   0  0  0  0  0  0  0  0  0  0  0  0
    7.8842  -17.9609   18.4050 O   0  0  0  0  0  0  0  0  0  0  0  0
   11.0251  -17.0778   23.1342 N   0  0  0  0  0  0  0  0  0  0  0  0
   10.9278  -17.1886   24.6039 C   0  0  1  0  0  0  0  0  0  0  0  0
   12.2427  -17.6630   25.1336 C   0  0  0  0  0  0  0  0  0  0  0  0
   13.3316  -16.6709   24.9514 C   0  0  0  0  0  0  0  0  0  0  0  0
   14.6504  -17.0643   25.4926 C   0  0  0  0  0  0  0  0  0  0  0  0
   15.6445  -16.3580   25.2243 O   0  0  0  0  0  0  0  0  0  0  0  0
   10.4958  -15.8610   25.0854 C   0  0  0  0  0  0  0  0  0  0  0  0
   10.9240  -14.8302   24.4600 O   0  0  0  0  0  0  0  0  0  0  0  0
   14.8549  -18.1699   26.2809 O   0  0  0  0  0  0  0  0  0  0  0  0
    9.6383  -15.6254   26.1848 N   0  0  0  0  0  0  0  0  0  0  0  0
    9.3279  -14.3278   26.7149 C   0  0  1  0  0  0  0  0  0  0  0  0
    7.9894  -13.7952   26.3312 C   0  0  0  0  0  0  0  0  0  0  0  0
    7.6231  -12.2680   27.2679 S   0  0  0  0  0  0  0  0  0  0  0  0
    9.6092  -14.2195   28.1771 C   0  0  0  0  0  0  0  0  0  0  0  0
    9.4152  -13.1566   28.7893 O   0  0  0  0  0  0  0  0  0  0  0  0
   10.0925  -15.3112   28.8688 O   0  0  0  0  0  0  0  0  0  0  0  0
  2  1  1  6
  2  3  1  0
  3  4  1  0
  4  5  2  0
  4  8  1  0
  6  2  1  0
  6  9  1  0
  7  6  2  0
 10  9  1  0
 10 15  1  0
 10 11  1  1
 12 11  1  0
 13 12  1  0
 14 13  2  0
 15 18  1  0
 16 15  2  0
 17 13  1  0
 18 19  1  0
 19 20  1  1
 19 22  1  0
 20 21  1  0
 22 24  1  0
 23 22  2  0
M  END
$$$$
