ESE.pdb
     RDKit          3D

 25 24  0  0  1  0  0  0  0  0999 V2000
    6.6429  -17.5882   16.8307 N   0  0  0  0  0  0  0  0  0  0  0  0
    7.7183  -18.0470   17.7531 C   0  0  1  0  0  0  0  0  0  0  0  0
    8.9491  -18.0451   16.9031 C   0  0  0  0  0  0  0  0  0  0  0  0
    9.5817  -19.3180   16.5393 C   0  0  0  0  0  0  0  0  0  0  0  0
   10.7457  -19.3036   15.6606 C   0  0  0  0  0  0  0  0  0  0  0  0
   10.7849  -20.0405   14.6185 O   0  0  0  0  0  0  0  0  0  0  0  0
    7.8164  -17.0948   18.8724 C   0  0  0  0  0  0  0  0  0  0  0  0
    7.6528  -15.8745   18.6727 O   0  0  0  0  0  0  0  0  0  0  0  0
   11.8388  -18.4821   15.9412 O   0  0  0  0  0  0  0  0  0  0  0  0
    5.7553  -17.2378   22.0114 O   0  0  0  0  0  0  0  0  0  0  0  0
    6.5091  -16.2006   21.4584 C   0  0  0  0  0  0  0  0  0  0  0  0
    7.9573  -16.6083   21.3554 C   0  0  2  0  0  0  0  0  0  0  0  0
    8.0948  -17.4778   20.2130 N   0  0  0  0  0  0  0  0  0  0  0  0
    8.4961  -17.2082   22.5949 C   0  0  0  0  0  0  0  0  0  0  0  0
    8.4633  -18.4712   22.6632 O   0  0  0  0  0  0  0  0  0  0  0  0
    9.0282  -16.4733   23.6739 N   0  0  0  0  0  0  0  0  0  0  0  0
   10.2929  -16.8529   24.3555 C   0  0  1  0  0  0  0  0  0  0  0  0
   11.3541  -16.0333   23.7148 C   0  0  0  0  0  0  0  0  0  0  0  0
   12.4446  -16.8229   23.0729 C   0  0  0  0  0  0  0  0  0  0  0  0
   13.4738  -16.0158   22.3975 C   0  0  0  0  0  0  0  0  0  0  0  0
   13.5741  -16.0758   21.1469 O   0  0  0  0  0  0  0  0  0  0  0  0
   10.1670  -16.9325   25.7808 C   0  0  0  0  0  0  0  0  0  0  0  0
    9.2304  -16.3008   26.3740 O   0  0  0  0  0  0  0  0  0  0  0  0
   14.3270  -15.1974   23.0990 O   0  0  0  0  0  0  0  0  0  0  0  0
   11.0382  -17.6967   26.5741 O   0  0  0  0  0  0  0  0  0  0  0  0
  2  1  1  6
  3  2  1  0
  4  3  1  0
  5  9  1  0
  5  4  1  0
  6  5  2  0
  7  2  1  0
  7  8  2  0
 10 11  1  0
 12 11  1  1
 12 13  1  0
 12 14  1  0
 13  7  1  0
 14 16  1  0
 15 14  2  0
 16 17  1  0
 17 22  1  0
 18 19  1  0
 17 18  1  1
 19 20  1  0
 20 21  2  0
 20 24  1  0
 22 23  2  0
 22 25  1  0
M  END
$$$$
