ESE.pdb
     RDKit          3D

 25 24  0  0  1  0  0  0  0  0999 V2000
   11.1213  -18.4376   20.3225 N   0  0  0  0  0  0  0  0  0  0  0  0
   11.7964  -19.2291   21.3882 C   0  0  1  0  0  0  0  0  0  0  0  0
   13.1380  -18.5821   21.5244 C   0  0  0  0  0  0  0  0  0  0  0  0
   14.0131  -18.4722   20.3519 C   0  0  0  0  0  0  0  0  0  0  0  0
   15.2699  -17.7422   20.4734 C   0  0  0  0  0  0  0  0  0  0  0  0
   16.0267  -17.5739   19.4587 O   0  0  0  0  0  0  0  0  0  0  0  0
   11.0033  -19.1260   22.6250 C   0  0  0  0  0  0  0  0  0  0  0  0
   10.3190  -18.1070   22.8471 O   0  0  0  0  0  0  0  0  0  0  0  0
   15.6688  -17.2117   21.7014 O   0  0  0  0  0  0  0  0  0  0  0  0
   10.9865  -22.0938   25.7741 O   0  0  0  0  0  0  0  0  0  0  0  0
    9.8486  -21.4605   25.2701 C   0  0  0  0  0  0  0  0  0  0  0  0
   10.1849  -20.0562   24.8355 C   0  0  2  0  0  0  0  0  0  0  0  0
   10.9588  -20.1392   23.6214 N   0  0  0  0  0  0  0  0  0  0  0  0
   10.8531  -19.2535   25.8823 C   0  0  0  0  0  0  0  0  0  0  0  0
   11.7746  -18.4806   25.4891 O   0  0  0  0  0  0  0  0  0  0  0  0
   10.5311  -19.2999   27.2540 N   0  0  0  0  0  0  0  0  0  0  0  0
   10.9951  -18.2717   28.2212 C   0  0  1  0  0  0  0  0  0  0  0  0
   10.6395  -16.9626   27.6145 C   0  0  0  0  0  0  0  0  0  0  0  0
   10.9508  -15.7791   28.4673 C   0  0  0  0  0  0  0  0  0  0  0  0
   10.6125  -14.4795   27.8643 C   0  0  0  0  0  0  0  0  0  0  0  0
   10.8646  -13.4264   28.5007 O   0  0  0  0  0  0  0  0  0  0  0  0
   10.6633  -18.5813   29.5804 C   0  0  0  0  0  0  0  0  0  0  0  0
    9.6058  -19.2452   29.8429 O   0  0  0  0  0  0  0  0  0  0  0  0
   10.0292  -14.3880   26.6228 O   0  0  0  0  0  0  0  0  0  0  0  0
   11.4684  -18.1888   30.6623 O   0  0  0  0  0  0  0  0  0  0  0  0
  2  1  1  6
  3  2  1  0
  4  3  1  0
  5  9  1  0
  5  4  1  0
  6  5  2  0
  7  2  1  0
  7  8  2  0
 10 11  1  0
 12 11  1  1
 12 13  1  0
 12 14  1  0
 13  7  1  0
 14 16  1  0
 15 14  2  0
 16 17  1  0
 17 22  1  0
 18 19  1  0
 17 18  1  6
 19 20  1  0
 20 21  2  0
 20 24  1  0
 22 23  2  0
 22 25  1  0
M  END
$$$$
