ESE.pdb
     RDKit          3D

 25 24  0  0  1  0  0  0  0  0999 V2000
   11.1042  -15.5659   16.8850 N   0  0  0  0  0  0  0  0  0  0  0  0
   10.9088  -16.5727   17.9649 C   0  0  1  0  0  0  0  0  0  0  0  0
   11.8201  -17.6953   17.5821 C   0  0  0  0  0  0  0  0  0  0  0  0
   13.0013  -17.4216   16.7560 C   0  0  0  0  0  0  0  0  0  0  0  0
   13.9437  -18.5024   16.4892 C   0  0  0  0  0  0  0  0  0  0  0  0
   14.9347  -18.3241   15.7040 O   0  0  0  0  0  0  0  0  0  0  0  0
   11.2897  -15.9637   19.2507 C   0  0  0  0  0  0  0  0  0  0  0  0
   12.1950  -15.1068   19.2941 O   0  0  0  0  0  0  0  0  0  0  0  0
   13.7810  -19.7523   17.0890 O   0  0  0  0  0  0  0  0  0  0  0  0
    9.0108  -16.3774   22.7836 O   0  0  0  0  0  0  0  0  0  0  0  0
    9.8152  -15.2793   22.4724 C   0  0  0  0  0  0  0  0  0  0  0  0
   11.0662  -15.7354   21.7646 C   0  0  2  0  0  0  0  0  0  0  0  0
   10.6795  -16.2930   20.4920 N   0  0  0  0  0  0  0  0  0  0  0  0
   11.8969  -16.6624   22.5629 C   0  0  0  0  0  0  0  0  0  0  0  0
   11.5575  -17.8810   22.5341 O   0  0  0  0  0  0  0  0  0  0  0  0
   13.0131  -16.2760   23.3324 N   0  0  0  0  0  0  0  0  0  0  0  0
   13.7709  -17.2318   24.1811 C   0  0  1  0  0  0  0  0  0  0  0  0
   15.2005  -17.0354   23.8261 C   0  0  0  0  0  0  0  0  0  0  0  0
   15.7330  -15.6750   24.1277 C   0  0  0  0  0  0  0  0  0  0  0  0
   17.0067  -15.3513   23.4645 C   0  0  0  0  0  0  0  0  0  0  0  0
   17.5421  -16.2081   22.7184 O   0  0  0  0  0  0  0  0  0  0  0  0
   13.3342  -17.2476   25.5458 C   0  0  0  0  0  0  0  0  0  0  0  0
   12.4847  -16.3869   25.9531 O   0  0  0  0  0  0  0  0  0  0  0  0
   17.6248  -14.1359   23.6393 O   0  0  0  0  0  0  0  0  0  0  0  0
   13.7988  -18.1915   26.4763 O   0  0  0  0  0  0  0  0  0  0  0  0
  2  1  1  6
  3  2  1  0
  4  3  1  0
  5  9  1  0
  5  4  1  0
  6  5  2  0
  7  2  1  0
  7  8  2  0
 10 11  1  0
 12 11  1  1
 12 13  1  0
 12 14  1  0
 13  7  1  0
 14 16  1  0
 15 14  2  0
 16 17  1  0
 17 22  1  0
 18 19  1  0
 17 18  1  1
 19 20  1  0
 20 21  2  0
 20 24  1  0
 22 23  2  0
 22 25  1  0
M  END
$$$$
