ESE.pdb
     RDKit          3D

 25 24  0  0  1  0  0  0  0  0999 V2000
    8.0720  -17.2628   16.1922 N   0  0  0  0  0  0  0  0  0  0  0  0
    8.3468  -18.0285   17.4397 C   0  0  1  0  0  0  0  0  0  0  0  0
    9.3670  -19.0409   17.0256 C   0  0  0  0  0  0  0  0  0  0  0  0
    9.9370  -19.9485   18.0276 C   0  0  0  0  0  0  0  0  0  0  0  0
   10.9372  -20.9245   17.6102 C   0  0  0  0  0  0  0  0  0  0  0  0
   11.3066  -20.9983   16.3901 O   0  0  0  0  0  0  0  0  0  0  0  0
    8.8688  -17.0998   18.4567 C   0  0  0  0  0  0  0  0  0  0  0  0
    9.8927  -16.4267   18.2236 O   0  0  0  0  0  0  0  0  0  0  0  0
   11.5112  -21.7959   18.5374 O   0  0  0  0  0  0  0  0  0  0  0  0
    6.9510  -16.5607   22.1742 O   0  0  0  0  0  0  0  0  0  0  0  0
    7.6036  -15.5008   21.5414 C   0  0  0  0  0  0  0  0  0  0  0  0
    8.7765  -16.0140   20.7445 C   0  0  2  0  0  0  0  0  0  0  0  0
    8.2701  -16.9072   19.7319 N   0  0  0  0  0  0  0  0  0  0  0  0
    9.8329  -16.6339   21.5730 C   0  0  0  0  0  0  0  0  0  0  0  0
    9.8468  -17.8988   21.6043 O   0  0  0  0  0  0  0  0  0  0  0  0
   10.7972  -15.9158   22.3092 N   0  0  0  0  0  0  0  0  0  0  0  0
   11.8069  -16.5827   23.1715 C   0  0  1  0  0  0  0  0  0  0  0  0
   13.1167  -16.0033   22.7751 C   0  0  0  0  0  0  0  0  0  0  0  0
   14.2900  -16.5674   23.5032 C   0  0  0  0  0  0  0  0  0  0  0  0
   15.5916  -16.0124   23.0973 C   0  0  0  0  0  0  0  0  0  0  0  0
   15.9499  -16.1096   21.8974 O   0  0  0  0  0  0  0  0  0  0  0  0
   11.4114  -16.6672   24.5463 C   0  0  0  0  0  0  0  0  0  0  0  0
   10.5004  -15.8951   24.9958 O   0  0  0  0  0  0  0  0  0  0  0  0
   16.4245  -15.3896   23.9963 O   0  0  0  0  0  0  0  0  0  0  0  0
   11.9838  -17.5856   25.4415 O   0  0  0  0  0  0  0  0  0  0  0  0
  2  1  1  6
  3  2  1  0
  4  3  1  0
  5  9  1  0
  5  4  1  0
  6  5  2  0
  7  2  1  0
  7  8  2  0
 10 11  1  0
 12 11  1  1
 12 13  1  0
 12 14  1  0
 13  7  1  0
 14 16  1  0
 15 14  2  0
 16 17  1  0
 17 22  1  0
 18 19  1  0
 17 18  1  1
 19 20  1  0
 20 21  2  0
 20 24  1  0
 22 23  2  0
 22 25  1  0
M  END
$$$$
