ESE.pdb
     RDKit          3D

 25 24  0  0  1  0  0  0  0  0999 V2000
    9.3488  -16.9887   16.4223 N   0  0  0  0  0  0  0  0  0  0  0  0
    8.8737  -17.6072   17.6911 C   0  0  1  0  0  0  0  0  0  0  0  0
    9.4361  -18.9926   17.6510 C   0  0  0  0  0  0  0  0  0  0  0  0
    9.2849  -19.8711   18.8163 C   0  0  0  0  0  0  0  0  0  0  0  0
    9.5880  -21.2908   18.6759 C   0  0  0  0  0  0  0  0  0  0  0  0
    9.5000  -22.0784   19.6771 O   0  0  0  0  0  0  0  0  0  0  0  0
    9.4033  -16.8267   18.8223 C   0  0  0  0  0  0  0  0  0  0  0  0
   10.6088  -16.5081   18.8536 O   0  0  0  0  0  0  0  0  0  0  0  0
    9.9785  -21.8163   17.4430 O   0  0  0  0  0  0  0  0  0  0  0  0
    7.2644  -16.0747   22.4266 O   0  0  0  0  0  0  0  0  0  0  0  0
    7.8958  -15.0317   21.7459 C   0  0  0  0  0  0  0  0  0  0  0  0
    9.0925  -15.5531   20.9910 C   0  0  2  0  0  0  0  0  0  0  0  0
    8.6128  -16.3942   19.9221 N   0  0  0  0  0  0  0  0  0  0  0  0
   10.0863  -16.2342   21.8484 C   0  0  0  0  0  0  0  0  0  0  0  0
   10.0876  -17.4988   21.8041 O   0  0  0  0  0  0  0  0  0  0  0  0
   11.0052  -15.5732   22.6886 N   0  0  0  0  0  0  0  0  0  0  0  0
   11.9730  -16.3027   23.5485 C   0  0  1  0  0  0  0  0  0  0  0  0
   13.3065  -15.7343   23.2210 C   0  0  0  0  0  0  0  0  0  0  0  0
   14.4311  -16.2850   24.0314 C   0  0  0  0  0  0  0  0  0  0  0  0
   15.7404  -15.6653   23.7690 C   0  0  0  0  0  0  0  0  0  0  0  0
   15.8400  -14.8124   22.8524 O   0  0  0  0  0  0  0  0  0  0  0  0
   11.5322  -16.4436   24.9047 C   0  0  0  0  0  0  0  0  0  0  0  0
   12.1816  -17.1889   25.7115 O   0  0  0  0  0  0  0  0  0  0  0  0
   16.8563  -15.9946   24.5012 O   0  0  0  0  0  0  0  0  0  0  0  0
   10.4000  -15.7790   25.4036 O   0  0  0  0  0  0  0  0  0  0  0  0
  2  1  1  6
  3  2  1  0
  4  3  1  0
  5  9  1  0
  5  4  1  0
  6  5  2  0
  7  2  1  0
  7  8  2  0
 10 11  1  0
 12 11  1  1
 12 13  1  0
 12 14  1  0
 13  7  1  0
 14 16  1  0
 15 14  2  0
 16 17  1  0
 17 22  1  0
 18 19  1  0
 17 18  1  1
 19 20  1  0
 20 21  2  0
 20 24  1  0
 22 23  2  0
 22 25  1  0
M  END
$$$$
