ESE.pdb
     RDKit          3D

 25 24  0  0  1  0  0  0  0  0999 V2000
   -2.5348  -25.0123   23.6733 N   0  0  0  0  0  0  0  0  0  0  0  0
   -2.2869  -24.2100   24.9032 C   0  0  1  0  0  0  0  0  0  0  0  0
   -2.3913  -22.7923   24.4376 C   0  0  0  0  0  0  0  0  0  0  0  0
   -1.4323  -22.2796   23.4528 C   0  0  0  0  0  0  0  0  0  0  0  0
   -1.6114  -20.9310   22.9269 C   0  0  0  0  0  0  0  0  0  0  0  0
   -2.6491  -20.2483   23.2230 O   0  0  0  0  0  0  0  0  0  0  0  0
   -3.3197  -24.5436   25.8989 C   0  0  0  0  0  0  0  0  0  0  0  0
   -4.4623  -24.8790   25.5279 O   0  0  0  0  0  0  0  0  0  0  0  0
   -0.6505  -20.3601   22.0907 O   0  0  0  0  0  0  0  0  0  0  0  0
   -2.6200  -24.1226   30.0285 O   0  0  0  0  0  0  0  0  0  0  0  0
   -3.4341  -25.1626   29.5753 C   0  0  0  0  0  0  0  0  0  0  0  0
   -4.1205  -24.7644   28.2930 C   0  0  2  0  0  0  0  0  0  0  0  0
   -3.1025  -24.5098   27.3037 N   0  0  0  0  0  0  0  0  0  0  0  0
   -5.0593  -23.6324   28.4475 C   0  0  0  0  0  0  0  0  0  0  0  0
   -4.7827  -22.5852   27.7932 O   0  0  0  0  0  0  0  0  0  0  0  0
   -6.2114  -23.6533   29.2597 N   0  0  0  0  0  0  0  0  0  0  0  0
   -7.2297  -22.5715   29.2338 C   0  0  1  0  0  0  0  0  0  0  0  0
   -7.5125  -22.3228   27.7962 C   0  0  0  0  0  0  0  0  0  0  0  0
   -8.4785  -21.2163   27.5367 C   0  0  0  0  0  0  0  0  0  0  0  0
   -8.7699  -20.9741   26.1143 C   0  0  0  0  0  0  0  0  0  0  0  0
   -8.2483  -21.7193   25.2482 O   0  0  0  0  0  0  0  0  0  0  0  0
   -8.2868  -22.7650   30.1817 C   0  0  0  0  0  0  0  0  0  0  0  0
   -8.6086  -23.9451   30.5452 O   0  0  0  0  0  0  0  0  0  0  0  0
   -9.5987  -19.9549   25.7090 O   0  0  0  0  0  0  0  0  0  0  0  0
   -8.9961  -21.6946   30.7506 O   0  0  0  0  0  0  0  0  0  0  0  0
  2  1  1  6
  3  2  1  0
  4  3  1  0
  5  9  1  0
  5  4  1  0
  6  5  2  0
  7  2  1  0
  7  8  2  0
 10 11  1  0
 12 11  1  1
 12 13  1  0
 12 14  1  0
 13  7  1  0
 14 16  1  0
 15 14  2  0
 16 17  1  0
 17 22  1  0
 18 19  1  0
 17 18  1  6
 19 20  1  0
 20 21  2  0
 20 24  1  0
 22 23  2  0
 22 25  1  0
M  END
$$$$
