ILD.pdb
     RDKit          3D

 25 24  0  0  1  0  0  0  0  0999 V2000
   17.0562  -13.8779  -18.8327 C   0  0  0  0  0  0  0  0  0  0  0  0
   17.6248  -12.4915  -18.9349 C   0  0  0  0  0  0  0  0  0  0  0  0
   18.2676  -11.9886  -17.6825 C   0  0  2  0  0  0  0  0  0  0  0  0
   17.2146  -12.0007  -16.5900 C   0  0  0  0  0  0  0  0  0  0  0  0
   18.8500  -10.6100  -17.8729 C   0  0  2  0  0  0  0  0  0  0  0  0
   19.9554  -10.7185  -18.8703 N   0  0  0  0  0  0  0  0  0  0  0  0
   19.5005  -10.0575  -16.6650 C   0  0  0  0  0  0  0  0  0  0  0  0
   18.8221   -9.8965  -15.5858 O   0  0  0  0  0  0  0  0  0  0  0  0
   22.6409  -11.3754  -13.8374 C   0  0  0  0  0  0  0  0  0  0  0  0
   23.1667  -10.8438  -15.1855 C   0  0  2  0  0  0  0  0  0  0  0  0
   24.6143  -11.1822  -15.2492 C   0  0  0  0  0  0  0  0  0  0  0  0
   22.8287   -9.4134  -15.3062 C   0  0  0  0  0  0  0  0  0  0  0  0
   21.3843   -9.0375  -15.3109 C   0  0  2  0  0  0  0  0  0  0  0  0
   20.8498   -9.6673  -16.5484 N   0  0  0  0  0  0  0  0  0  0  0  0
   21.1313   -7.5791  -15.4049 C   0  0  0  0  0  0  0  0  0  0  0  0
   21.5203   -6.8223  -14.4610 O   0  0  0  0  0  0  0  0  0  0  0  0
   20.4876   -6.9397  -16.4680 N   0  0  0  0  0  0  0  0  0  0  0  0
   20.2697   -5.4829  -16.4947 C   0  0  1  0  0  0  0  0  0  0  0  0
   20.3846   -4.9414  -17.8743 C   0  0  0  0  0  0  0  0  0  0  0  0
   20.1883   -3.4848  -17.8659 C   0  0  0  0  0  0  0  0  0  0  0  0
   20.1797   -2.7990  -16.8215 O   0  0  0  0  0  0  0  0  0  0  0  0
   18.9231   -5.1980  -15.9536 C   0  0  0  0  0  0  0  0  0  0  0  0
   18.6160   -4.0214  -15.3144 O   0  0  0  0  0  0  0  0  0  0  0  0
   20.0036   -2.8371  -19.0732 O   0  0  0  0  0  0  0  0  0  0  0  0
   17.9970   -6.0494  -16.0656 O   0  0  0  0  0  0  0  0  0  0  0  0
  2  1  1  0
  3  2  1  0
  3  4  1  1
  3  5  1  0
  5  6  1  6
  7  8  2  0
  7  5  1  0
 10  9  1  1
 10 12  1  0
 11 10  1  0
 13 12  1  6
 13 14  1  0
 14  7  1  0
 15 13  1  0
 16 15  2  0
 17 15  1  0
 18 22  1  0
 18 17  1  0
 19 20  1  0
 18 19  1  6
 20 24  1  0
 21 20  2  0
 22 23  1  0
 25 22  2  0
M  END
$$$$
