ILD.pdb
     RDKit          3D

 25 24  0  0  1  0  0  0  0  0999 V2000
   15.4548  -12.4793  -19.7452 C   0  0  0  0  0  0  0  0  0  0  0  0
   16.5017  -11.4060  -19.8337 C   0  0  0  0  0  0  0  0  0  0  0  0
   16.9522  -10.8659  -18.5145 C   0  0  2  0  0  0  0  0  0  0  0  0
   15.7401  -10.2652  -17.8271 C   0  0  0  0  0  0  0  0  0  0  0  0
   18.0544   -9.8489  -18.6787 C   0  0  2  0  0  0  0  0  0  0  0  0
   19.0680  -10.4252  -19.6108 N   0  0  0  0  0  0  0  0  0  0  0  0
   18.8123   -9.5747  -17.4387 C   0  0  0  0  0  0  0  0  0  0  0  0
   18.2047   -9.1254  -16.3996 O   0  0  0  0  0  0  0  0  0  0  0  0
   24.3250  -10.9180  -15.1741 C   0  0  0  0  0  0  0  0  0  0  0  0
   23.1021  -10.0152  -14.9171 C   0  0  2  0  0  0  0  0  0  0  0  0
   22.6925  -10.2337  -13.5034 C   0  0  0  0  0  0  0  0  0  0  0  0
   22.0757  -10.2888  -15.9399 C   0  0  0  0  0  0  0  0  0  0  0  0
   20.8706   -9.4087  -15.9695 C   0  0  2  0  0  0  0  0  0  0  0  0
   20.1965   -9.7597  -17.2485 N   0  0  0  0  0  0  0  0  0  0  0  0
   21.1731   -7.9571  -16.0060 C   0  0  0  0  0  0  0  0  0  0  0  0
   21.7553   -7.4726  -17.0265 O   0  0  0  0  0  0  0  0  0  0  0  0
   20.8661   -7.0442  -14.9931 N   0  0  0  0  0  0  0  0  0  0  0  0
   21.2525   -5.6246  -15.0693 C   0  0  1  0  0  0  0  0  0  0  0  0
   20.0807   -4.7573  -15.3596 C   0  0  0  0  0  0  0  0  0  0  0  0
   20.4899   -3.3460  -15.3944 C   0  0  0  0  0  0  0  0  0  0  0  0
   19.7133   -2.3995  -15.1449 O   0  0  0  0  0  0  0  0  0  0  0  0
   21.8609   -5.2322  -13.7797 C   0  0  0  0  0  0  0  0  0  0  0  0
   21.8859   -6.0668  -12.6887 O   0  0  0  0  0  0  0  0  0  0  0  0
   21.7998   -3.0468  -15.7193 O   0  0  0  0  0  0  0  0  0  0  0  0
   22.3853   -4.0916  -13.6421 O   0  0  0  0  0  0  0  0  0  0  0  0
  2  1  1  0
  3  2  1  0
  3  4  1  6
  3  5  1  0
  5  6  1  6
  7  8  2  0
  7  5  1  0
 10  9  1  6
 10 12  1  0
 11 10  1  0
 13 12  1  6
 13 14  1  0
 14  7  1  0
 15 13  1  0
 16 15  2  0
 17 15  1  0
 18 22  1  0
 18 17  1  0
 19 20  1  0
 18 19  1  1
 20 24  1  0
 21 20  2  0
 22 23  1  0
 25 22  2  0
M  END
$$$$
