ILD.pdb
     RDKit          3D

 25 24  0  0  1  0  0  0  0  0999 V2000
   16.1552  -11.1861  -19.2606 C   0  0  0  0  0  0  0  0  0  0  0  0
   17.4805  -11.8148  -18.9378 C   0  0  0  0  0  0  0  0  0  0  0  0
   18.1684  -11.2375  -17.7426 C   0  0  2  0  0  0  0  0  0  0  0  0
   18.3754   -9.7571  -18.0033 C   0  0  0  0  0  0  0  0  0  0  0  0
   19.4756  -11.9370  -17.4633 C   0  0  2  0  0  0  0  0  0  0  0  0
   19.1691  -13.3657  -17.1578 N   0  0  0  0  0  0  0  0  0  0  0  0
   20.1764  -11.4474  -16.2565 C   0  0  0  0  0  0  0  0  0  0  0  0
   19.6807  -11.6665  -15.0915 O   0  0  0  0  0  0  0  0  0  0  0  0
   23.6476  -12.6836  -14.1527 C   0  0  0  0  0  0  0  0  0  0  0  0
   23.9414  -11.8166  -15.3930 C   0  0  2  0  0  0  0  0  0  0  0  0
   25.3936  -11.9572  -15.6851 C   0  0  0  0  0  0  0  0  0  0  0  0
   23.4583  -10.4447  -15.1493 C   0  0  0  0  0  0  0  0  0  0  0  0
   21.9914  -10.2472  -14.9573 C   0  0  2  0  0  0  0  0  0  0  0  0
   21.3906  -10.7323  -16.2290 N   0  0  0  0  0  0  0  0  0  0  0  0
   21.5821   -8.8327  -14.7791 C   0  0  0  0  0  0  0  0  0  0  0  0
   21.9332   -8.2158  -13.7249 O   0  0  0  0  0  0  0  0  0  0  0  0
   20.8254   -8.0917  -15.6912 N   0  0  0  0  0  0  0  0  0  0  0  0
   20.4501   -6.6884  -15.4459 C   0  0  1  0  0  0  0  0  0  0  0  0
   20.7455   -5.8328  -16.6250 C   0  0  0  0  0  0  0  0  0  0  0  0
   20.2381   -4.4711  -16.4040 C   0  0  0  0  0  0  0  0  0  0  0  0
   20.5846   -3.7574  -15.4388 O   0  0  0  0  0  0  0  0  0  0  0  0
   19.0051   -6.6346  -15.1354 C   0  0  0  0  0  0  0  0  0  0  0  0
   18.3849   -5.4907  -14.6946 O   0  0  0  0  0  0  0  0  0  0  0  0
   19.3313   -3.9502  -17.3082 O   0  0  0  0  0  0  0  0  0  0  0  0
   18.2849   -7.6634  -15.2685 O   0  0  0  0  0  0  0  0  0  0  0  0
  2  1  1  0
  3  2  1  0
  3  4  1  6
  3  5  1  0
  5  6  1  1
  7  8  2  0
  7  5  1  0
 10  9  1  1
 10 12  1  0
 11 10  1  0
 13 12  1  6
 13 14  1  0
 14  7  1  0
 15 13  1  0
 16 15  2  0
 17 15  1  0
 18 22  1  0
 18 17  1  0
 19 20  1  0
 18 19  1  6
 20 24  1  0
 21 20  2  0
 22 23  1  0
 25 22  2  0
M  END
$$$$
