ILD.pdb
     RDKit          3D

 25 24  0  0  1  0  0  0  0  0999 V2000
   18.9147  -23.5431   -9.1447 C   0  0  0  0  0  0  0  0  0  0  0  0
   20.1392  -23.3169   -8.3050 C   0  0  0  0  0  0  0  0  0  0  0  0
   21.0108  -22.1931   -8.7656 C   0  0  2  0  0  0  0  0  0  0  0  0
   21.2940  -22.4077  -10.2408 C   0  0  0  0  0  0  0  0  0  0  0  0
   22.2865  -22.1161   -7.9639 C   0  0  2  0  0  0  0  0  0  0  0  0
   21.9147  -21.8312   -6.5465 N   0  0  0  0  0  0  0  0  0  0  0  0
   23.1705  -20.9926   -8.3428 C   0  0  0  0  0  0  0  0  0  0  0  0
   22.7270  -19.7871   -8.3135 O   0  0  0  0  0  0  0  0  0  0  0  0
   27.2047  -19.5824   -6.3446 C   0  0  0  0  0  0  0  0  0  0  0  0
   26.7213  -20.4204   -7.5448 C   0  0  2  0  0  0  0  0  0  0  0  0
   27.8346  -21.3382   -7.9082 C   0  0  0  0  0  0  0  0  0  0  0  0
   26.2532  -19.5143   -8.6099 C   0  0  0  0  0  0  0  0  0  0  0  0
   25.1848  -20.0106   -9.5264 C   0  0  2  0  0  0  0  0  0  0  0  0
   24.5156  -21.0905   -8.7521 N   0  0  0  0  0  0  0  0  0  0  0  0
   25.6883  -20.6088  -10.7868 C   0  0  0  0  0  0  0  0  0  0  0  0
   26.9427  -20.6922  -10.9734 O   0  0  0  0  0  0  0  0  0  0  0  0
   24.8878  -21.1068  -11.8186 N   0  0  0  0  0  0  0  0  0  0  0  0
   24.9149  -20.5413  -13.1787 C   0  0  1  0  0  0  0  0  0  0  0  0
   25.6927  -21.4008  -14.1092 C   0  0  0  0  0  0  0  0  0  0  0  0
   27.1336  -21.1861  -13.9142 C   0  0  0  0  0  0  0  0  0  0  0  0
   27.6016  -20.2714  -13.2033 O   0  0  0  0  0  0  0  0  0  0  0  0
   23.5233  -20.4088  -13.6616 C   0  0  0  0  0  0  0  0  0  0  0  0
   23.1331  -19.4210  -14.5330 O   0  0  0  0  0  0  0  0  0  0  0  0
   28.0192  -22.0377  -14.5480 O   0  0  0  0  0  0  0  0  0  0  0  0
   22.6339  -21.2182  -13.2757 O   0  0  0  0  0  0  0  0  0  0  0  0
  2  1  1  0
  3  2  1  0
  3  4  1  6
  3  5  1  0
  5  6  1  1
  7  8  2  0
  7  5  1  0
 10  9  1  1
 10 12  1  0
 11 10  1  0
 13 12  1  1
 13 14  1  0
 14  7  1  0
 15 13  1  0
 16 15  2  0
 17 15  1  0
 18 22  1  0
 18 17  1  0
 19 20  1  0
 18 19  1  6
 20 24  1  0
 21 20  2  0
 22 23  1  0
 25 22  2  0
M  END
$$$$
