ILD.pdb
     RDKit          3D

 25 24  0  0  1  0  0  0  0  0999 V2000
   15.0390  -10.5277  -18.6328 C   0  0  0  0  0  0  0  0  0  0  0  0
   16.5012  -10.5519  -18.2902 C   0  0  0  0  0  0  0  0  0  0  0  0
   16.9218   -9.5288  -17.2847 C   0  0  2  0  0  0  0  0  0  0  0  0
   16.6385   -8.1606  -17.8768 C   0  0  0  0  0  0  0  0  0  0  0  0
   18.3766   -9.6799  -16.9147 C   0  0  2  0  0  0  0  0  0  0  0  0
   18.5366  -10.9989  -16.2342 N   0  0  0  0  0  0  0  0  0  0  0  0
   18.8517   -8.6948  -15.9192 C   0  0  0  0  0  0  0  0  0  0  0  0
   18.4653   -8.7785  -14.6966 O   0  0  0  0  0  0  0  0  0  0  0  0
   23.4843   -5.0158  -14.8351 C   0  0  0  0  0  0  0  0  0  0  0  0
   21.9798   -5.1374  -14.5221 C   0  0  2  0  0  0  0  0  0  0  0  0
   21.8414   -5.0993  -13.0411 C   0  0  0  0  0  0  0  0  0  0  0  0
   21.4415   -6.3349  -15.1936 C   0  0  0  0  0  0  0  0  0  0  0  0
   19.9651   -6.5508  -15.1539 C   0  0  2  0  0  0  0  0  0  0  0  0
   19.7274   -7.6178  -16.1631 N   0  0  0  0  0  0  0  0  0  0  0  0
   19.1625   -5.3692  -15.5534 C   0  0  0  0  0  0  0  0  0  0  0  0
   19.2056   -4.9719  -16.7599 O   0  0  0  0  0  0  0  0  0  0  0  0
   18.3362   -4.6309  -14.7016 N   0  0  0  0  0  0  0  0  0  0  0  0
   17.4578   -3.5557  -15.1942 C   0  0  1  0  0  0  0  0  0  0  0  0
   16.1559   -3.5459  -14.4768 C   0  0  0  0  0  0  0  0  0  0  0  0
   15.3252   -2.4285  -14.9474 C   0  0  0  0  0  0  0  0  0  0  0  0
   15.1796   -2.1420  -16.1548 O   0  0  0  0  0  0  0  0  0  0  0  0
   18.1462   -2.2606  -15.0037 C   0  0  0  0  0  0  0  0  0  0  0  0
   18.0406   -1.2270  -15.9026 O   0  0  0  0  0  0  0  0  0  0  0  0
   14.6701   -1.6527  -14.0093 O   0  0  0  0  0  0  0  0  0  0  0  0
   18.8684   -2.0652  -13.9863 O   0  0  0  0  0  0  0  0  0  0  0  0
  2  1  1  0
  3  2  1  0
  3  4  1  6
  3  5  1  0
  5  6  1  1
  7  8  2  0
  7  5  1  0
 10  9  1  1
 10 12  1  0
 11 10  1  0
 13 12  1  6
 13 14  1  0
 14  7  1  0
 15 13  1  0
 16 15  2  0
 17 15  1  0
 18 22  1  0
 18 17  1  0
 19 20  1  0
 18 19  1  1
 20 24  1  0
 21 20  2  0
 22 23  1  0
 25 22  2  0
M  END
$$$$
