ILD.pdb
     RDKit          3D

 25 24  0  0  1  0  0  0  0  0999 V2000
   28.1398  -27.0605  -16.7758 C   0  0  0  0  0  0  0  0  0  0  0  0
   27.3361  -25.8609  -17.1892 C   0  0  0  0  0  0  0  0  0  0  0  0
   26.2546  -25.4763  -16.2315 C   0  0  2  0  0  0  0  0  0  0  0  0
   25.3025  -26.6525  -16.1187 C   0  0  0  0  0  0  0  0  0  0  0  0
   25.5375  -24.2262  -16.6774 C   0  0  2  0  0  0  0  0  0  0  0  0
   26.5696  -23.1790  -16.9356 N   0  0  0  0  0  0  0  0  0  0  0  0
   24.6631  -23.6307  -15.6439 C   0  0  0  0  0  0  0  0  0  0  0  0
   23.5946  -24.2417  -15.2754 O   0  0  0  0  0  0  0  0  0  0  0  0
   25.0517  -22.4967  -11.2259 C   0  0  0  0  0  0  0  0  0  0  0  0
   25.7444  -21.5856  -12.2587 C   0  0  2  0  0  0  0  0  0  0  0  0
   26.6088  -20.6454  -11.4953 C   0  0  0  0  0  0  0  0  0  0  0  0
   24.7209  -20.9696  -13.1234 C   0  0  0  0  0  0  0  0  0  0  0  0
   23.9021  -21.8727  -13.9847 C   0  0  2  0  0  0  0  0  0  0  0  0
   24.8739  -22.4075  -14.9762 N   0  0  0  0  0  0  0  0  0  0  0  0
   22.8236  -21.1883  -14.7384 C   0  0  0  0  0  0  0  0  0  0  0  0
   23.1213  -20.2078  -15.4902 O   0  0  0  0  0  0  0  0  0  0  0  0
   21.4696  -21.5329  -14.6999 N   0  0  0  0  0  0  0  0  0  0  0  0
   20.4525  -20.8175  -15.4899 C   0  0  1  0  0  0  0  0  0  0  0  0
   19.6625  -21.7528  -16.3330 C   0  0  0  0  0  0  0  0  0  0  0  0
   18.7366  -22.5307  -15.4976 C   0  0  0  0  0  0  0  0  0  0  0  0
   19.0990  -23.1837  -14.4959 O   0  0  0  0  0  0  0  0  0  0  0  0
   19.5546  -20.0980  -14.5607 C   0  0  0  0  0  0  0  0  0  0  0  0
   18.6570  -19.1485  -14.9852 O   0  0  0  0  0  0  0  0  0  0  0  0
   17.3959  -22.5428  -15.8342 O   0  0  0  0  0  0  0  0  0  0  0  0
   19.5902  -20.3413  -13.3219 O   0  0  0  0  0  0  0  0  0  0  0  0
  2  1  1  0
  3  2  1  0
  3  4  1  6
  3  5  1  0
  5  6  1  1
  7  8  2  0
  7  5  1  0
 10  9  1  1
 10 12  1  0
 11 10  1  0
 13 12  1  1
 13 14  1  0
 14  7  1  0
 15 13  1  0
 16 15  2  0
 17 15  1  0
 18 22  1  0
 18 17  1  0
 19 20  1  0
 18 19  1  1
 20 24  1  0
 21 20  2  0
 22 23  1  0
 25 22  2  0
M  END
$$$$
