ILD.pdb
     RDKit          3D

 25 24  0  0  1  0  0  0  0  0999 V2000
   23.5246  -27.5899   11.1849 C   0  0  0  0  0  0  0  0  0  0  0  0
   24.0323  -26.4110   10.4049 C   0  0  0  0  0  0  0  0  0  0  0  0
   25.3984  -25.9473   10.7967 C   0  0  2  0  0  0  0  0  0  0  0  0
   25.3416  -25.5348   12.2559 C   0  0  0  0  0  0  0  0  0  0  0  0
   25.8720  -24.8141    9.9206 C   0  0  2  0  0  0  0  0  0  0  0  0
   25.8718  -25.3013    8.5095 N   0  0  0  0  0  0  0  0  0  0  0  0
   27.2720  -24.4057   10.1661 C   0  0  0  0  0  0  0  0  0  0  0  0
   28.2242  -25.2572   10.0270 O   0  0  0  0  0  0  0  0  0  0  0  0
   30.9917  -22.9455    8.4193 C   0  0  0  0  0  0  0  0  0  0  0  0
   29.7495  -22.0348    8.4844 C   0  0  2  0  0  0  0  0  0  0  0  0
   30.0109  -20.8813    7.5815 C   0  0  0  0  0  0  0  0  0  0  0  0
   29.4653  -21.7047    9.8933 C   0  0  0  0  0  0  0  0  0  0  0  0
   29.1454  -22.8295   10.8208 C   0  0  2  0  0  0  0  0  0  0  0  0
   27.7118  -23.1238   10.5531 N   0  0  0  0  0  0  0  0  0  0  0  0
   29.2727  -22.4920   12.2595 C   0  0  0  0  0  0  0  0  0  0  0  0
   28.3990  -21.7425   12.7981 O   0  0  0  0  0  0  0  0  0  0  0  0
   30.2933  -22.9368   13.1044 N   0  0  0  0  0  0  0  0  0  0  0  0
   30.3629  -22.5523   14.5248 C   0  0  1  0  0  0  0  0  0  0  0  0
   31.1995  -23.5019   15.3046 C   0  0  0  0  0  0  0  0  0  0  0  0
   30.6042  -24.8454   15.2749 C   0  0  0  0  0  0  0  0  0  0  0  0
   29.3941  -25.0654   15.4952 O   0  0  0  0  0  0  0  0  0  0  0  0
   30.9310  -21.1898   14.6167 C   0  0  0  0  0  0  0  0  0  0  0  0
   31.0213  -20.5040   15.8037 O   0  0  0  0  0  0  0  0  0  0  0  0
   31.4216  -25.9230   14.9890 O   0  0  0  0  0  0  0  0  0  0  0  0
   31.3573  -20.6049   13.5817 O   0  0  0  0  0  0  0  0  0  0  0  0
  2  1  1  0
  3  2  1  0
  3  4  1  1
  3  5  1  0
  5  6  1  6
  7  8  2  0
  7  5  1  0
 10  9  1  1
 10 12  1  0
 11 10  1  0
 13 12  1  6
 13 14  1  0
 14  7  1  0
 15 13  1  0
 16 15  2  0
 17 15  1  0
 18 22  1  0
 18 17  1  0
 19 20  1  0
 18 19  1  1
 20 24  1  0
 21 20  2  0
 22 23  1  0
 25 22  2  0
M  END
$$$$
