ILD.pdb
     RDKit          3D

 25 24  0  0  1  0  0  0  0  0999 V2000
   18.1408  -14.2805  -16.4871 C   0  0  0  0  0  0  0  0  0  0  0  0
   18.5732  -12.9577  -17.0519 C   0  0  0  0  0  0  0  0  0  0  0  0
   19.5608  -12.2148  -16.2108 C   0  0  2  0  0  0  0  0  0  0  0  0
   18.9615  -12.0646  -14.8249 C   0  0  0  0  0  0  0  0  0  0  0  0
   19.9044  -10.8745  -16.8121 C   0  0  2  0  0  0  0  0  0  0  0  0
   20.4377  -11.1168  -18.1851 N   0  0  0  0  0  0  0  0  0  0  0  0
   20.9978  -10.1629  -16.1155 C   0  0  0  0  0  0  0  0  0  0  0  0
   20.8247   -9.7333  -14.9170 O   0  0  0  0  0  0  0  0  0  0  0  0
   25.2921  -10.9873  -14.6750 C   0  0  0  0  0  0  0  0  0  0  0  0
   25.1004  -10.8327  -16.1968 C   0  0  2  0  0  0  0  0  0  0  0  0
   26.3958  -11.1918  -16.8348 C   0  0  0  0  0  0  0  0  0  0  0  0
   24.5881   -9.4802  -16.4846 C   0  0  0  0  0  0  0  0  0  0  0  0
   23.2807   -9.0879  -15.8806 C   0  0  2  0  0  0  0  0  0  0  0  0
   22.2781   -9.8864  -16.6359 N   0  0  0  0  0  0  0  0  0  0  0  0
   22.9330   -7.6560  -16.0497 C   0  0  0  0  0  0  0  0  0  0  0  0
   22.8155   -7.1830  -17.2235 O   0  0  0  0  0  0  0  0  0  0  0  0
   22.7133   -6.7514  -15.0072 N   0  0  0  0  0  0  0  0  0  0  0  0
   22.1720   -5.4008  -15.2380 C   0  0  1  0  0  0  0  0  0  0  0  0
   20.8040   -5.4552  -15.8171 C   0  0  0  0  0  0  0  0  0  0  0  0
   20.2774   -4.0958  -16.0040 C   0  0  0  0  0  0  0  0  0  0  0  0
   20.9936   -3.1173  -16.3053 O   0  0  0  0  0  0  0  0  0  0  0  0
   22.1431   -4.6782  -13.9479 C   0  0  0  0  0  0  0  0  0  0  0  0
   22.4143   -5.2924  -12.7492 O   0  0  0  0  0  0  0  0  0  0  0  0
   18.9212   -3.8852  -15.8388 O   0  0  0  0  0  0  0  0  0  0  0  0
   21.8601   -3.4480  -13.9115 O   0  0  0  0  0  0  0  0  0  0  0  0
  2  1  1  0
  3  2  1  0
  3  4  1  1
  3  5  1  0
  5  6  1  6
  7  8  2  0
  7  5  1  0
 10  9  1  1
 10 12  1  0
 11 10  1  0
 13 12  1  6
 13 14  1  0
 14  7  1  0
 15 13  1  0
 16 15  2  0
 17 15  1  0
 18 22  1  0
 18 17  1  0
 19 20  1  0
 18 19  1  1
 20 24  1  0
 21 20  2  0
 22 23  1  0
 25 22  2  0
M  END
$$$$
