ILD.pdb
     RDKit          3D

 25 24  0  0  1  0  0  0  0  0999 V2000
   20.8710  -19.5087  -15.7368 C   0  0  0  0  0  0  0  0  0  0  0  0
   22.1028  -19.4502  -14.8795 C   0  0  0  0  0  0  0  0  0  0  0  0
   21.9944  -20.1870  -13.5832 C   0  0  2  0  0  0  0  0  0  0  0  0
   20.7628  -19.6697  -12.8635 C   0  0  0  0  0  0  0  0  0  0  0  0
   23.2364  -20.0180  -12.7436 C   0  0  2  0  0  0  0  0  0  0  0  0
   24.3889  -20.5550  -13.5257 N   0  0  0  0  0  0  0  0  0  0  0  0
   23.2363  -20.8158  -11.4984 C   0  0  0  0  0  0  0  0  0  0  0  0
   23.3235  -22.0965  -11.5550 O   0  0  0  0  0  0  0  0  0  0  0  0
   26.1191  -21.6207   -8.2091 C   0  0  0  0  0  0  0  0  0  0  0  0
   25.4072  -20.2540   -8.2528 C   0  0  2  0  0  0  0  0  0  0  0  0
   26.1322  -19.3583   -7.3114 C   0  0  0  0  0  0  0  0  0  0  0  0
   23.9700  -20.4487   -7.9864 C   0  0  0  0  0  0  0  0  0  0  0  0
   23.1714  -21.2056   -8.9951 C   0  0  2  0  0  0  0  0  0  0  0  0
   23.1498  -20.3124  -10.1847 N   0  0  0  0  0  0  0  0  0  0  0  0
   21.7647  -21.4579   -8.5983 C   0  0  0  0  0  0  0  0  0  0  0  0
   20.9161  -20.5171   -8.6985 O   0  0  0  0  0  0  0  0  0  0  0  0
   21.2697  -22.6712   -8.1122 N   0  0  0  0  0  0  0  0  0  0  0  0
   19.8287  -22.9165   -7.9290 C   0  0  1  0  0  0  0  0  0  0  0  0
   19.3009  -23.8492   -8.9591 C   0  0  0  0  0  0  0  0  0  0  0  0
   17.8780  -24.1240   -8.7139 C   0  0  0  0  0  0  0  0  0  0  0  0
   17.0488  -23.2379   -8.4164 O   0  0  0  0  0  0  0  0  0  0  0  0
   19.6154  -23.4847   -6.5802 C   0  0  0  0  0  0  0  0  0  0  0  0
   18.3638  -23.6751   -6.0467 O   0  0  0  0  0  0  0  0  0  0  0  0
   17.4307  -25.4280   -8.8168 O   0  0  0  0  0  0  0  0  0  0  0  0
   20.6013  -23.8170   -5.8643 O   0  0  0  0  0  0  0  0  0  0  0  0
  2  1  1  0
  3  2  1  0
  3  4  1  1
  3  5  1  0
  5  6  1  6
  7  8  2  0
  7  5  1  0
 10  9  1  1
 10 12  1  0
 11 10  1  0
 13 12  1  1
 13 14  1  0
 14  7  1  0
 15 13  1  0
 16 15  2  0
 17 15  1  0
 18 22  1  0
 18 17  1  0
 19 20  1  0
 18 19  1  6
 20 24  1  0
 21 20  2  0
 22 23  1  0
 25 22  2  0
M  END
$$$$
