ILD.pdb
     RDKit          3D

 25 24  0  0  1  0  0  0  0  0999 V2000
   35.0432  -37.3586   -5.3016 C   0  0  0  0  0  0  0  0  0  0  0  0
   33.9133  -36.6410   -5.9830 C   0  0  0  0  0  0  0  0  0  0  0  0
   32.8828  -36.0809   -5.0562 C   0  0  2  0  0  0  0  0  0  0  0  0
   32.3956  -37.2148   -4.1733 C   0  0  0  0  0  0  0  0  0  0  0  0
   31.7446  -35.4423   -5.8130 C   0  0  2  0  0  0  0  0  0  0  0  0
   32.3000  -34.2856   -6.5759 N   0  0  0  0  0  0  0  0  0  0  0  0
   30.7049  -34.8441   -4.9478 C   0  0  0  0  0  0  0  0  0  0  0  0
   30.9827  -33.8210   -4.2220 O   0  0  0  0  0  0  0  0  0  0  0  0
   26.7959  -32.1353   -4.1090 C   0  0  0  0  0  0  0  0  0  0  0  0
   26.8547  -33.1762   -5.2446 C   0  0  2  0  0  0  0  0  0  0  0  0
   25.5754  -33.0688   -5.9967 C   0  0  0  0  0  0  0  0  0  0  0  0
   27.1615  -34.5000   -4.6716 C   0  0  0  0  0  0  0  0  0  0  0  0
   28.4171  -34.6404   -3.8769 C   0  0  2  0  0  0  0  0  0  0  0  0
   29.3722  -35.2841   -4.8187 N   0  0  0  0  0  0  0  0  0  0  0  0
   28.2954  -35.5216   -2.6900 C   0  0  0  0  0  0  0  0  0  0  0  0
   28.1511  -36.7726   -2.8612 O   0  0  0  0  0  0  0  0  0  0  0  0
   28.3280  -35.0918   -1.3605 N   0  0  0  0  0  0  0  0  0  0  0  0
   28.2205  -36.0277   -0.2279 C   0  0  1  0  0  0  0  0  0  0  0  0
   28.9299  -35.5121    0.9724 C   0  0  0  0  0  0  0  0  0  0  0  0
   28.8261  -36.4765    2.0767 C   0  0  0  0  0  0  0  0  0  0  0  0
   28.2558  -37.5831    1.9707 O   0  0  0  0  0  0  0  0  0  0  0  0
   26.7886  -36.2290    0.0826 C   0  0  0  0  0  0  0  0  0  0  0  0
   25.7882  -35.5389   -0.5582 O   0  0  0  0  0  0  0  0  0  0  0  0
   29.3870  -36.1458    3.2962 O   0  0  0  0  0  0  0  0  0  0  0  0
   26.4377  -37.0591    0.9673 O   0  0  0  0  0  0  0  0  0  0  0  0
  2  1  1  0
  3  2  1  0
  3  4  1  6
  3  5  1  0
  5  6  1  6
  7  8  2  0
  7  5  1  0
 10  9  1  1
 10 12  1  0
 11 10  1  0
 13 12  1  6
 13 14  1  0
 14  7  1  0
 15 13  1  0
 16 15  2  0
 17 15  1  0
 18 22  1  0
 18 17  1  0
 19 20  1  0
 18 19  1  1
 20 24  1  0
 21 20  2  0
 22 23  1  0
 25 22  2  0
M  END
$$$$
