ILD.pdb
     RDKit          3D

 25 24  0  0  1  0  0  0  0  0999 V2000
   23.1603  -17.7669  -16.4171 C   0  0  0  0  0  0  0  0  0  0  0  0
   22.5217  -18.4412  -15.2368 C   0  0  0  0  0  0  0  0  0  0  0  0
   23.4790  -19.1424  -14.3275 C   0  0  2  0  0  0  0  0  0  0  0  0
   24.2318  -20.1666  -15.1563 C   0  0  0  0  0  0  0  0  0  0  0  0
   22.7676  -19.7883  -13.1645 C   0  0  2  0  0  0  0  0  0  0  0  0
   22.0998  -18.7054  -12.3835 N   0  0  0  0  0  0  0  0  0  0  0  0
   23.6706  -20.4381  -12.1900 C   0  0  0  0  0  0  0  0  0  0  0  0
   24.2243  -21.5616  -12.4762 O   0  0  0  0  0  0  0  0  0  0  0  0
   26.8033  -18.9315   -7.1803 C   0  0  0  0  0  0  0  0  0  0  0  0
   26.4378  -20.1380   -8.0676 C   0  0  2  0  0  0  0  0  0  0  0  0
   27.7173  -20.7798   -8.4738 C   0  0  0  0  0  0  0  0  0  0  0  0
   25.5626  -19.6842   -9.1642 C   0  0  0  0  0  0  0  0  0  0  0  0
   24.8610  -20.7254   -9.9713 C   0  0  2  0  0  0  0  0  0  0  0  0
   24.0179  -19.9447  -10.9163 N   0  0  0  0  0  0  0  0  0  0  0  0
   23.9593  -21.6038   -9.1868 C   0  0  0  0  0  0  0  0  0  0  0  0
   24.4354  -22.6474   -8.6396 O   0  0  0  0  0  0  0  0  0  0  0  0
   22.5941  -21.3828   -8.9848 N   0  0  0  0  0  0  0  0  0  0  0  0
   21.7304  -22.3628   -8.3037 C   0  0  1  0  0  0  0  0  0  0  0  0
   21.1695  -21.8094   -7.0433 C   0  0  0  0  0  0  0  0  0  0  0  0
   20.4627  -22.8605   -6.2976 C   0  0  0  0  0  0  0  0  0  0  0  0
   19.6579  -22.6228   -5.3718 O   0  0  0  0  0  0  0  0  0  0  0  0
   20.6321  -22.7396   -9.2197 C   0  0  0  0  0  0  0  0  0  0  0  0
   20.0623  -21.8496  -10.0975 O   0  0  0  0  0  0  0  0  0  0  0  0
   20.6977  -24.1803   -6.6349 O   0  0  0  0  0  0  0  0  0  0  0  0
   20.1760  -23.9173   -9.2190 O   0  0  0  0  0  0  0  0  0  0  0  0
  2  1  1  0
  3  2  1  0
  3  4  1  6
  3  5  1  0
  5  6  1  1
  7  8  2  0
  7  5  1  0
 10  9  1  1
 10 12  1  0
 11 10  1  0
 13 12  1  1
 13 14  1  0
 14  7  1  0
 15 13  1  0
 16 15  2  0
 17 15  1  0
 18 22  1  0
 18 17  1  0
 19 20  1  0
 18 19  1  1
 20 24  1  0
 21 20  2  0
 22 23  1  0
 25 22  2  0
M  END
$$$$
