ILD.pdb
     RDKit          3D

 25 24  0  0  1  0  0  0  0  0999 V2000
   29.4080  -17.0838  -16.7282 C   0  0  0  0  0  0  0  0  0  0  0  0
   27.9916  -16.8939  -16.2662 C   0  0  0  0  0  0  0  0  0  0  0  0
   27.3278  -18.1369  -15.7672 C   0  0  2  0  0  0  0  0  0  0  0  0
   27.4313  -19.1829  -16.8617 C   0  0  0  0  0  0  0  0  0  0  0  0
   25.8919  -17.8822  -15.3809 C   0  0  2  0  0  0  0  0  0  0  0  0
   25.8803  -16.7665  -14.3891 N   0  0  0  0  0  0  0  0  0  0  0  0
   25.2488  -19.0090  -14.6710 C   0  0  0  0  0  0  0  0  0  0  0  0
   24.9445  -20.0817  -15.3094 O   0  0  0  0  0  0  0  0  0  0  0  0
   26.3563  -21.9382  -11.4470 C   0  0  0  0  0  0  0  0  0  0  0  0
   26.0386  -20.5023  -10.9846 C   0  0  2  0  0  0  0  0  0  0  0  0
   26.4490  -20.4065   -9.5575 C   0  0  0  0  0  0  0  0  0  0  0  0
   24.6241  -20.2029  -11.2746 C   0  0  0  0  0  0  0  0  0  0  0  0
   24.1908  -20.2048  -12.7029 C   0  0  2  0  0  0  0  0  0  0  0  0
   24.9136  -19.0509  -13.3027 N   0  0  0  0  0  0  0  0  0  0  0  0
   22.7389  -19.9772  -12.9028 C   0  0  0  0  0  0  0  0  0  0  0  0
   22.1990  -18.9459  -12.3929 O   0  0  0  0  0  0  0  0  0  0  0  0
   21.8835  -20.8152  -13.6236 N   0  0  0  0  0  0  0  0  0  0  0  0
   20.4637  -20.4895  -13.8437 C   0  0  1  0  0  0  0  0  0  0  0  0
   20.2116  -20.0812  -15.2505 C   0  0  0  0  0  0  0  0  0  0  0  0
   18.7868  -19.7755  -15.4428 C   0  0  0  0  0  0  0  0  0  0  0  0
   17.9584  -19.7465  -14.5079 O   0  0  0  0  0  0  0  0  0  0  0  0
   19.6506  -21.6797  -13.5124 C   0  0  0  0  0  0  0  0  0  0  0  0
   18.4132  -21.5899  -12.9224 O   0  0  0  0  0  0  0  0  0  0  0  0
   18.3367  -19.5058  -16.7218 O   0  0  0  0  0  0  0  0  0  0  0  0
   20.0824  -22.8388  -13.7674 O   0  0  0  0  0  0  0  0  0  0  0  0
  2  1  1  0
  3  2  1  0
  3  4  1  6
  3  5  1  0
  5  6  1  1
  7  8  2  0
  7  5  1  0
 10  9  1  1
 10 12  1  0
 11 10  1  0
 13 12  1  1
 13 14  1  0
 14  7  1  0
 15 13  1  0
 16 15  2  0
 17 15  1  0
 18 22  1  0
 18 17  1  0
 19 20  1  0
 18 19  1  6
 20 24  1  0
 21 20  2  0
 22 23  1  0
 25 22  2  0
M  END
$$$$
