CCC.pdb
     RDKit          3D

 19 18  0  0  1  0  0  0  0  0999 V2000
   18.9028  -12.6056  -17.8898 N   0  0  0  0  0  0  0  0  0  0  0  0
   20.0805  -11.7709  -17.7577 C   0  0  1  0  0  0  0  0  0  0  0  0
   20.5132  -11.2223  -19.0985 C   0  0  0  0  0  0  0  0  0  0  0  0
   21.2306  -12.4955  -20.1494 S   0  0  0  0  0  0  0  0  0  0  0  0
   19.7425  -10.6434  -16.8453 C   0  0  0  0  0  0  0  0  0  0  0  0
   18.6085  -10.0956  -16.8721 O   0  0  0  0  0  0  0  0  0  0  0  0
   20.6767  -10.1340  -15.9063 N   0  0  0  0  0  0  0  0  0  0  0  0
   20.3169   -9.0327  -14.9773 C   0  0  1  0  0  0  0  0  0  0  0  0
   20.2501   -9.6033  -13.5775 C   0  0  0  0  0  0  0  0  0  0  0  0
   20.0773   -8.3458  -12.3031 S   0  0  0  0  0  0  0  0  0  0  0  0
   21.2943   -7.9293  -15.1226 C   0  0  0  0  0  0  0  0  0  0  0  0
   22.5428   -8.2352  -15.0903 O   0  0  0  0  0  0  0  0  0  0  0  0
   20.9239   -6.5791  -15.2941 N   0  0  0  0  0  0  0  0  0  0  0  0
   21.9063   -5.5234  -15.4220 C   0  0  1  0  0  0  0  0  0  0  0  0
   21.6308   -4.6084  -16.5868 C   0  0  0  0  0  0  0  0  0  0  0  0
   21.6882   -5.6410  -18.0935 S   0  0  0  0  0  0  0  0  0  0  0  0
   21.8859   -4.6929  -14.1924 C   0  0  0  0  0  0  0  0  0  0  0  0
   20.8909   -4.7242  -13.4296 O   0  0  0  0  0  0  0  0  0  0  0  0
   22.9364   -3.8667  -13.8397 O   0  0  0  0  0  0  0  0  0  0  0  0
  2  3  1  0
  2  1  1  6
  3  4  1  0
  5  2  1  0
  5  6  2  0
  7  5  1  0
  8  7  1  0
  9 10  1  0
  8  9  1  1
 11  8  1  0
 11 13  1  0
 12 11  2  0
 14 13  1  0
 14 17  1  0
 14 15  1  6
 16 15  1  0
 17 18  2  0
 17 19  1  0
M  END
$$$$
