CCC.pdb
     RDKit          3D

 19 18  0  0  1  0  0  0  0  0999 V2000
   29.2899  -20.9243  -18.8499 N   0  0  0  0  0  0  0  0  0  0  0  0
   28.4203  -21.6316  -17.9309 C   0  0  1  0  0  0  0  0  0  0  0  0
   28.8987  -23.0485  -17.7087 C   0  0  0  0  0  0  0  0  0  0  0  0
   30.4624  -23.3715  -18.5398 S   0  0  0  0  0  0  0  0  0  0  0  0
   28.4275  -20.8961  -16.6360 C   0  0  0  0  0  0  0  0  0  0  0  0
   29.1979  -19.9185  -16.4413 O   0  0  0  0  0  0  0  0  0  0  0  0
   27.5714  -21.2588  -15.5639 N   0  0  0  0  0  0  0  0  0  0  0  0
   27.3902  -20.3733  -14.3855 C   0  0  1  0  0  0  0  0  0  0  0  0
   26.9432  -19.0162  -14.8833 C   0  0  0  0  0  0  0  0  0  0  0  0
   26.4229  -17.9095  -13.5643 S   0  0  0  0  0  0  0  0  0  0  0  0
   26.4382  -21.0023  -13.4411 C   0  0  0  0  0  0  0  0  0  0  0  0
   25.6876  -21.9429  -13.8942 O   0  0  0  0  0  0  0  0  0  0  0  0
   26.3205  -20.6239  -12.0873 N   0  0  0  0  0  0  0  0  0  0  0  0
   25.4025  -21.2833  -11.1825 C   0  0  1  0  0  0  0  0  0  0  0  0
   25.8579  -21.2284   -9.7474 C   0  0  0  0  0  0  0  0  0  0  0  0
   25.9213  -19.4624   -9.2816 S   0  0  0  0  0  0  0  0  0  0  0  0
   24.0838  -20.6066  -11.2543 C   0  0  0  0  0  0  0  0  0  0  0  0
   23.9739  -19.5057  -11.8449 O   0  0  0  0  0  0  0  0  0  0  0  0
   22.9437  -21.1451  -10.6878 O   0  0  0  0  0  0  0  0  0  0  0  0
  2  3  1  0
  2  1  1  6
  3  4  1  0
  5  2  1  0
  5  6  2  0
  7  5  1  0
  8  7  1  0
  9 10  1  0
  8  9  1  6
 11  8  1  0
 11 13  1  0
 12 11  2  0
 14 13  1  0
 14 17  1  0
 14 15  1  1
 16 15  1  0
 17 18  2  0
 17 19  1  0
M  END
$$$$
