CCC.pdb
     RDKit          3D

 19 18  0  0  1  0  0  0  0  0999 V2000
   19.1338  -12.6195  -18.1194 N   0  0  0  0  0  0  0  0  0  0  0  0
   19.1445  -12.5874  -16.6703 C   0  0  1  0  0  0  0  0  0  0  0  0
   19.4666  -13.9489  -16.0971 C   0  0  0  0  0  0  0  0  0  0  0  0
   18.1788  -15.1545  -16.4556 S   0  0  0  0  0  0  0  0  0  0  0  0
   20.1829  -11.6098  -16.2417 C   0  0  0  0  0  0  0  0  0  0  0  0
   20.3961  -11.3716  -15.0231 O   0  0  0  0  0  0  0  0  0  0  0  0
   20.9786  -10.9027  -17.1801 N   0  0  0  0  0  0  0  0  0  0  0  0
   21.8752   -9.7973  -16.7563 C   0  0  1  0  0  0  0  0  0  0  0  0
   22.9099   -9.5910  -17.8408 C   0  0  0  0  0  0  0  0  0  0  0  0
   23.9409   -8.1413  -17.5753 S   0  0  0  0  0  0  0  0  0  0  0  0
   21.0652   -8.5905  -16.4713 C   0  0  0  0  0  0  0  0  0  0  0  0
   20.0976   -8.3225  -17.2747 O   0  0  0  0  0  0  0  0  0  0  0  0
   21.3017   -7.7356  -15.3745 N   0  0  0  0  0  0  0  0  0  0  0  0
   20.5649   -6.5034  -15.1882 C   0  0  1  0  0  0  0  0  0  0  0  0
   19.5338   -6.6002  -14.0939 C   0  0  0  0  0  0  0  0  0  0  0  0
   18.8285   -4.9273  -13.8847 S   0  0  0  0  0  0  0  0  0  0  0  0
   21.5126   -5.4264  -14.8090 C   0  0  0  0  0  0  0  0  0  0  0  0
   21.1059   -4.2466  -14.6846 O   0  0  0  0  0  0  0  0  0  0  0  0
   22.8545   -5.6677  -14.5810 O   0  0  0  0  0  0  0  0  0  0  0  0
  2  3  1  0
  2  1  1  6
  3  4  1  0
  5  2  1  0
  5  6  2  0
  7  5  1  0
  8  7  1  0
  9 10  1  0
  8  9  1  6
 11  8  1  0
 11 13  1  0
 12 11  2  0
 14 13  1  0
 14 17  1  0
 14 15  1  1
 16 15  1  0
 17 18  2  0
 17 19  1  0
M  END
$$$$
