CCC.pdb
     RDKit          3D

 19 18  0  0  1  0  0  0  0  0999 V2000
   29.7913  -23.4566  -16.6118 N   0  0  0  0  0  0  0  0  0  0  0  0
   28.7546  -22.6997  -17.2851 C   0  0  1  0  0  0  0  0  0  0  0  0
   27.7925  -23.6157  -18.0072 C   0  0  0  0  0  0  0  0  0  0  0  0
   28.5554  -24.4088  -19.4317 S   0  0  0  0  0  0  0  0  0  0  0  0
   28.0169  -21.9170  -16.2551 C   0  0  0  0  0  0  0  0  0  0  0  0
   27.9766  -22.2899  -15.0525 O   0  0  0  0  0  0  0  0  0  0  0  0
   27.3270  -20.7193  -16.5765 N   0  0  0  0  0  0  0  0  0  0  0  0
   26.6820  -19.8924  -15.5250 C   0  0  1  0  0  0  0  0  0  0  0  0
   27.3841  -18.5526  -15.4859 C   0  0  0  0  0  0  0  0  0  0  0  0
   28.6719  -18.3866  -16.7306 S   0  0  0  0  0  0  0  0  0  0  0  0
   25.2300  -19.7939  -15.8002 C   0  0  0  0  0  0  0  0  0  0  0  0
   24.8580  -19.8013  -17.0311 O   0  0  0  0  0  0  0  0  0  0  0  0
   24.2512  -19.6958  -14.7893 N   0  0  0  0  0  0  0  0  0  0  0  0
   22.8374  -19.6260  -15.0932 C   0  0  1  0  0  0  0  0  0  0  0  0
   21.9707  -19.7451  -13.8666 C   0  0  0  0  0  0  0  0  0  0  0  0
   20.3828  -20.4677  -14.4111 S   0  0  0  0  0  0  0  0  0  0  0  0
   22.5418  -18.3129  -15.7179 C   0  0  0  0  0  0  0  0  0  0  0  0
   23.2636  -17.3194  -15.4635 O   0  0  0  0  0  0  0  0  0  0  0  0
   21.4834  -18.1285  -16.5877 O   0  0  0  0  0  0  0  0  0  0  0  0
  2  3  1  0
  2  1  1  1
  3  4  1  0
  5  2  1  0
  5  6  2  0
  7  5  1  0
  8  7  1  0
  9 10  1  0
  8  9  1  6
 11  8  1  0
 11 13  1  0
 12 11  2  0
 14 13  1  0
 14 17  1  0
 14 15  1  1
 16 15  1  0
 17 18  2  0
 17 19  1  0
M  END
$$$$
