CCC.pdb
     RDKit          3D

 19 18  0  0  1  0  0  0  0  0999 V2000
   20.5354  -12.0844  -15.3961 N   0  0  0  0  0  0  0  0  0  0  0  0
   20.7675  -11.0166  -16.3485 C   0  0  1  0  0  0  0  0  0  0  0  0
   19.7488  -11.0511  -17.4652 C   0  0  0  0  0  0  0  0  0  0  0  0
   20.0640   -9.7859  -18.7062 S   0  0  0  0  0  0  0  0  0  0  0  0
   20.6619   -9.7222  -15.6197 C   0  0  0  0  0  0  0  0  0  0  0  0
   19.6854   -9.4729  -14.8639 O   0  0  0  0  0  0  0  0  0  0  0  0
   21.6511   -8.7118  -15.7406 N   0  0  0  0  0  0  0  0  0  0  0  0
   21.4584   -7.3657  -15.1437 C   0  0  1  0  0  0  0  0  0  0  0  0
   22.3346   -7.2685  -13.9139 C   0  0  0  0  0  0  0  0  0  0  0  0
   22.3761   -5.6192  -13.1975 S   0  0  0  0  0  0  0  0  0  0  0  0
   21.7489   -6.3310  -16.1629 C   0  0  0  0  0  0  0  0  0  0  0  0
   22.8529   -6.4338  -16.8142 O   0  0  0  0  0  0  0  0  0  0  0  0
   20.8823   -5.2555  -16.4490 N   0  0  0  0  0  0  0  0  0  0  0  0
   21.2143   -4.2407  -17.4268 C   0  0  1  0  0  0  0  0  0  0  0  0
   20.1325   -4.0480  -18.4575 C   0  0  0  0  0  0  0  0  0  0  0  0
   19.8782   -5.6680  -19.2641 S   0  0  0  0  0  0  0  0  0  0  0  0
   21.3996   -2.9426  -16.7319 C   0  0  0  0  0  0  0  0  0  0  0  0
   21.1159   -2.8352  -15.5151 O   0  0  0  0  0  0  0  0  0  0  0  0
   21.8816   -1.8196  -17.3778 O   0  0  0  0  0  0  0  0  0  0  0  0
  2  3  1  0
  2  1  1  1
  3  4  1  0
  5  2  1  0
  5  6  2  0
  7  5  1  0
  8  7  1  0
  9 10  1  0
  8  9  1  1
 11  8  1  0
 11 13  1  0
 12 11  2  0
 14 13  1  0
 14 17  1  0
 14 15  1  6
 16 15  1  0
 17 18  2  0
 17 19  1  0
M  END
$$$$
