CCC.pdb
     RDKit          3D

 19 18  0  0  1  0  0  0  0  0999 V2000
   22.8446  -11.5904  -17.9231 N   0  0  0  0  0  0  0  0  0  0  0  0
   23.3538  -10.3309  -17.4176 C   0  0  1  0  0  0  0  0  0  0  0  0
   23.9559   -9.5009  -18.5287 C   0  0  0  0  0  0  0  0  0  0  0  0
   25.3702  -10.3144  -19.2889 S   0  0  0  0  0  0  0  0  0  0  0  0
   22.2164   -9.5901  -16.8048 C   0  0  0  0  0  0  0  0  0  0  0  0
   21.0714   -9.5952  -17.3302 O   0  0  0  0  0  0  0  0  0  0  0  0
   22.3663   -8.8464  -15.6055 N   0  0  0  0  0  0  0  0  0  0  0  0
   21.2010   -8.2123  -14.9381 C   0  0  1  0  0  0  0  0  0  0  0  0
   21.4481   -8.2315  -13.4455 C   0  0  0  0  0  0  0  0  0  0  0  0
   20.4026   -9.4007  -12.5652 S   0  0  0  0  0  0  0  0  0  0  0  0
   21.0003   -6.8523  -15.4892 C   0  0  0  0  0  0  0  0  0  0  0  0
   22.0498   -6.1505  -15.7332 O   0  0  0  0  0  0  0  0  0  0  0  0
   19.7299   -6.3006  -15.7566 N   0  0  0  0  0  0  0  0  0  0  0  0
   19.5707   -4.9774  -16.3222 C   0  0  1  0  0  0  0  0  0  0  0  0
   19.3069   -5.0051  -17.8053 C   0  0  0  0  0  0  0  0  0  0  0  0
   19.0998   -3.2688  -18.3364 S   0  0  0  0  0  0  0  0  0  0  0  0
   18.4100   -4.3134  -15.6788 C   0  0  0  0  0  0  0  0  0  0  0  0
   17.3579   -4.9601  -15.4601 O   0  0  0  0  0  0  0  0  0  0  0  0
   18.4341   -2.9843  -15.3000 O   0  0  0  0  0  0  0  0  0  0  0  0
  2  3  1  0
  2  1  1  6
  3  4  1  0
  5  2  1  0
  5  6  2  0
  7  5  1  0
  8  7  1  0
  9 10  1  0
  8  9  1  1
 11  8  1  0
 11 13  1  0
 12 11  2  0
 14 13  1  0
 14 17  1  0
 14 15  1  6
 16 15  1  0
 17 18  2  0
 17 19  1  0
M  END
$$$$
