CCC.pdb
     RDKit          3D

 19 18  0  0  1  0  0  0  0  0999 V2000
   17.4687  -11.8421  -17.7687 N   0  0  0  0  0  0  0  0  0  0  0  0
   18.3185  -10.7372  -18.1662 C   0  0  1  0  0  0  0  0  0  0  0  0
   17.5092   -9.6259  -18.7955 C   0  0  0  0  0  0  0  0  0  0  0  0
   17.0688   -9.9939  -20.5016 S   0  0  0  0  0  0  0  0  0  0  0  0
   19.0027  -10.2242  -16.9470 C   0  0  0  0  0  0  0  0  0  0  0  0
   18.4183  -10.1924  -15.8315 O   0  0  0  0  0  0  0  0  0  0  0  0
   20.3394   -9.7488  -16.9824 N   0  0  0  0  0  0  0  0  0  0  0  0
   21.0067   -9.2262  -15.7630 C   0  0  1  0  0  0  0  0  0  0  0  0
   22.2655  -10.0342  -15.5347 C   0  0  0  0  0  0  0  0  0  0  0  0
   23.2981   -9.3861  -14.2123 S   0  0  0  0  0  0  0  0  0  0  0  0
   21.2540   -7.7746  -15.9230 C   0  0  0  0  0  0  0  0  0  0  0  0
   21.7804   -7.3811  -17.0282 O   0  0  0  0  0  0  0  0  0  0  0  0
   20.9413   -6.8183  -14.9343 N   0  0  0  0  0  0  0  0  0  0  0  0
   21.2514   -5.4138  -15.0989 C   0  0  1  0  0  0  0  0  0  0  0  0
   20.0279   -4.5363  -15.0457 C   0  0  0  0  0  0  0  0  0  0  0  0
   18.9553   -5.0425  -16.4360 S   0  0  0  0  0  0  0  0  0  0  0  0
   22.1511   -4.9856  -13.9992 C   0  0  0  0  0  0  0  0  0  0  0  0
   22.4363   -5.7830  -13.0742 O   0  0  0  0  0  0  0  0  0  0  0  0
   22.7027   -3.7193  -13.9448 O   0  0  0  0  0  0  0  0  0  0  0  0
  2  3  1  0
  2  1  1  1
  3  4  1  0
  5  2  1  0
  5  6  2  0
  7  5  1  0
  8  7  1  0
  9 10  1  0
  8  9  1  6
 11  8  1  0
 11 13  1  0
 12 11  2  0
 14 13  1  0
 14 17  1  0
 14 15  1  1
 16 15  1  0
 17 18  2  0
 17 19  1  0
M  END
$$$$
