CCC.pdb
     RDKit          3D

 19 18  0  0  1  0  0  0  0  0999 V2000
   27.8099  -21.4502  -10.1461 N   0  0  0  0  0  0  0  0  0  0  0  0
   26.4046  -21.1916  -10.3894 C   0  0  1  0  0  0  0  0  0  0  0  0
   25.9152  -20.0212   -9.5669 C   0  0  0  0  0  0  0  0  0  0  0  0
   24.1540  -20.1343   -9.2124 S   0  0  0  0  0  0  0  0  0  0  0  0
   26.2395  -20.8846  -11.8373 C   0  0  0  0  0  0  0  0  0  0  0  0
   27.0796  -20.1807  -12.4583 O   0  0  0  0  0  0  0  0  0  0  0  0
   25.1336  -21.3676  -12.5840 N   0  0  0  0  0  0  0  0  0  0  0  0
   25.0627  -21.1991  -14.0577 C   0  0  1  0  0  0  0  0  0  0  0  0
   24.2186  -22.3229  -14.6180 C   0  0  0  0  0  0  0  0  0  0  0  0
   25.0003  -23.9370  -14.4822 S   0  0  0  0  0  0  0  0  0  0  0  0
   24.5394  -19.8497  -14.3725 C   0  0  0  0  0  0  0  0  0  0  0  0
   23.4981  -19.4530  -13.7307 O   0  0  0  0  0  0  0  0  0  0  0  0
   25.1231  -18.9920  -15.3283 N   0  0  0  0  0  0  0  0  0  0  0  0
   24.6215  -17.6554  -15.5688 C   0  0  1  0  0  0  0  0  0  0  0  0
   25.6972  -16.7009  -16.0178 C   0  0  0  0  0  0  0  0  0  0  0  0
   26.9751  -16.6944  -14.7113 S   0  0  0  0  0  0  0  0  0  0  0  0
   23.6004  -17.7089  -16.6443 C   0  0  0  0  0  0  0  0  0  0  0  0
   23.6642  -18.5970  -17.5275 O   0  0  0  0  0  0  0  0  0  0  0  0
   22.5577  -16.8047  -16.7205 O   0  0  0  0  0  0  0  0  0  0  0  0
  2  3  1  0
  2  1  1  6
  3  4  1  0
  5  2  1  0
  5  6  2  0
  7  5  1  0
  8  7  1  0
  9 10  1  0
  8  9  1  1
 11  8  1  0
 11 13  1  0
 12 11  2  0
 14 13  1  0
 14 17  1  0
 14 15  1  6
 16 15  1  0
 17 18  2  0
 17 19  1  0
M  END
$$$$
