CCC.pdb
     RDKit          3D

 19 18  0  0  1  0  0  0  0  0999 V2000
   22.5635  -11.5406  -20.3178 N   0  0  0  0  0  0  0  0  0  0  0  0
   21.7363  -11.2189  -19.1718 C   0  0  1  0  0  0  0  0  0  0  0  0
   21.2675  -12.4726  -18.4686 C   0  0  0  0  0  0  0  0  0  0  0  0
   20.4397  -12.1050  -16.9130 S   0  0  0  0  0  0  0  0  0  0  0  0
   22.5522  -10.3989  -18.2339 C   0  0  0  0  0  0  0  0  0  0  0  0
   23.7438  -10.7044  -17.9623 O   0  0  0  0  0  0  0  0  0  0  0  0
   22.0299   -9.2397  -17.6037 N   0  0  0  0  0  0  0  0  0  0  0  0
   22.8848   -8.3665  -16.7600 C   0  0  1  0  0  0  0  0  0  0  0  0
   23.8751   -7.6654  -17.6640 C   0  0  0  0  0  0  0  0  0  0  0  0
   24.8623   -6.4255  -16.8136 S   0  0  0  0  0  0  0  0  0  0  0  0
   22.0269   -7.4390  -15.9871 C   0  0  0  0  0  0  0  0  0  0  0  0
   21.1029   -6.8139  -16.6266 O   0  0  0  0  0  0  0  0  0  0  0  0
   22.1734   -7.2148  -14.6021 N   0  0  0  0  0  0  0  0  0  0  0  0
   21.3099   -6.3082  -13.8752 C   0  0  1  0  0  0  0  0  0  0  0  0
   21.1758   -6.6720  -12.4193 C   0  0  0  0  0  0  0  0  0  0  0  0
   20.4450   -8.3460  -12.3594 S   0  0  0  0  0  0  0  0  0  0  0  0
   21.8824   -4.9406  -13.9386 C   0  0  0  0  0  0  0  0  0  0  0  0
   23.0201   -4.7581  -14.4337 O   0  0  0  0  0  0  0  0  0  0  0  0
   21.2050   -3.8320  -13.4665 O   0  0  0  0  0  0  0  0  0  0  0  0
  2  3  1  0
  2  1  1  6
  3  4  1  0
  5  2  1  0
  5  6  2  0
  7  5  1  0
  8  7  1  0
  9 10  1  0
  8  9  1  6
 11  8  1  0
 11 13  1  0
 12 11  2  0
 14 13  1  0
 14 17  1  0
 14 15  1  1
 16 15  1  0
 17 18  2  0
 17 19  1  0
M  END
$$$$
