CCC.pdb
     RDKit          3D

 19 18  0  0  1  0  0  0  0  0999 V2000
   20.5073  -14.1013  -16.6099 N   0  0  0  0  0  0  0  0  0  0  0  0
   19.4914  -13.0752  -16.7369 C   0  0  1  0  0  0  0  0  0  0  0  0
   18.4782  -13.1696  -15.6186 C   0  0  0  0  0  0  0  0  0  0  0  0
   17.3896  -14.5902  -15.8118 S   0  0  0  0  0  0  0  0  0  0  0  0
   20.1694  -11.7504  -16.6823 C   0  0  0  0  0  0  0  0  0  0  0  0
   21.1513  -11.5472  -15.9198 O   0  0  0  0  0  0  0  0  0  0  0  0
   19.7445  -10.6580  -17.4824 N   0  0  0  0  0  0  0  0  0  0  0  0
   20.4732   -9.3641  -17.4743 C   0  0  1  0  0  0  0  0  0  0  0  0
   20.3584   -8.7529  -18.8537 C   0  0  0  0  0  0  0  0  0  0  0  0
   21.6911   -7.6080  -19.2388 S   0  0  0  0  0  0  0  0  0  0  0  0
   19.9328   -8.5035  -16.3968 C   0  0  0  0  0  0  0  0  0  0  0  0
   18.6780   -8.6009  -16.1334 O   0  0  0  0  0  0  0  0  0  0  0  0
   20.7200   -7.5971  -15.6562 N   0  0  0  0  0  0  0  0  0  0  0  0
   20.1567   -6.7625  -14.6159 C   0  0  1  0  0  0  0  0  0  0  0  0
   20.9417   -6.8223  -13.3314 C   0  0  0  0  0  0  0  0  0  0  0  0
   22.6367   -6.2623  -13.7228 S   0  0  0  0  0  0  0  0  0  0  0  0
   20.1629   -5.3507  -15.0729 C   0  0  0  0  0  0  0  0  0  0  0  0
   19.5997   -4.4654  -14.3858 O   0  0  0  0  0  0  0  0  0  0  0  0
   20.7746   -4.9557  -16.2478 O   0  0  0  0  0  0  0  0  0  0  0  0
  2  3  1  0
  2  1  1  1
  3  4  1  0
  5  2  1  0
  5  6  2  0
  7  5  1  0
  8  7  1  0
  9 10  1  0
  8  9  1  6
 11  8  1  0
 11 13  1  0
 12 11  2  0
 14 13  1  0
 14 17  1  0
 14 15  1  1
 16 15  1  0
 17 18  2  0
 17 19  1  0
M  END
$$$$
