CCC.pdb
     RDKit          3D

 19 18  0  0  1  0  0  0  0  0999 V2000
   15.8445  -13.2132  -17.3483 N   0  0  0  0  0  0  0  0  0  0  0  0
   15.8289  -12.4391  -16.1229 C   0  0  1  0  0  0  0  0  0  0  0  0
   16.5293  -13.1758  -15.0036 C   0  0  0  0  0  0  0  0  0  0  0  0
   15.4486  -14.3716  -14.2021 S   0  0  0  0  0  0  0  0  0  0  0  0
   16.5302  -11.1519  -16.3855 C   0  0  0  0  0  0  0  0  0  0  0  0
   17.6112  -11.1140  -17.0313 O   0  0  0  0  0  0  0  0  0  0  0  0
   16.0176   -9.9119  -15.9235 N   0  0  0  0  0  0  0  0  0  0  0  0
   16.6557   -8.6240  -16.2972 C   0  0  1  0  0  0  0  0  0  0  0  0
   15.5794   -7.5611  -16.3345 C   0  0  0  0  0  0  0  0  0  0  0  0
   16.2334   -5.8859  -16.3690 S   0  0  0  0  0  0  0  0  0  0  0  0
   17.7519   -8.3257  -15.3468 C   0  0  0  0  0  0  0  0  0  0  0  0
   17.5612   -8.6212  -14.1100 O   0  0  0  0  0  0  0  0  0  0  0  0
   18.9777   -7.7429  -15.7309 N   0  0  0  0  0  0  0  0  0  0  0  0
   19.9986   -7.3949  -14.7651 C   0  0  1  0  0  0  0  0  0  0  0  0
   21.0221   -8.4848  -14.5801 C   0  0  0  0  0  0  0  0  0  0  0  0
   22.2769   -7.8382  -13.4194 S   0  0  0  0  0  0  0  0  0  0  0  0
   20.7192   -6.1869  -15.2381 C   0  0  0  0  0  0  0  0  0  0  0  0
   20.6848   -5.8693  -16.4508 O   0  0  0  0  0  0  0  0  0  0  0  0
   21.4439   -5.3760  -14.3849 O   0  0  0  0  0  0  0  0  0  0  0  0
  2  3  1  0
  2  1  1  6
  3  4  1  0
  5  2  1  0
  5  6  2  0
  7  5  1  0
  8  7  1  0
  9 10  1  0
  8  9  1  1
 11  8  1  0
 11 13  1  0
 12 11  2  0
 14 13  1  0
 14 17  1  0
 14 15  1  6
 16 15  1  0
 17 18  2  0
 17 19  1  0
M  END
$$$$
