IHD.pdb
     RDKit          3D

 27 27  0  0  1  0  0  0  0  0999 V2000
   29.3657  -11.0711  -16.7093 C   0  0  0  0  0  0  0  0  0  0  0  0
   28.2564  -12.0983  -16.4405 C   0  0  0  0  0  0  0  0  0  0  0  0
   26.9329  -11.4015  -16.4352 C   0  0  2  0  0  0  0  0  0  0  0  0
   26.8522  -10.3644  -15.3074 C   0  0  0  0  0  0  0  0  0  0  0  0
   25.7395  -12.2985  -16.4301 C   0  0  2  0  0  0  0  0  0  0  0  0
   25.9823  -13.3231  -17.4383 N   0  0  0  0  0  0  0  0  0  0  0  0
   24.4534  -11.6026  -16.6842 C   0  0  0  0  0  0  0  0  0  0  0  0
   24.2019  -11.0336  -17.7711 O   0  0  0  0  0  0  0  0  0  0  0  0
   23.4818  -11.5783  -15.6755 N   0  0  0  0  0  0  0  0  0  0  0  0
   22.2036  -10.9149  -15.7460 C   0  0  1  0  0  0  0  0  0  0  0  0
   21.1731  -11.8997  -15.2546 C   0  0  0  0  0  0  0  0  0  0  0  0
   19.7910  -11.3741  -15.3098 C   0  0  0  0  0  0  0  0  0  0  0  0
   19.3999  -10.1031  -15.6544 C   0  0  0  0  0  0  0  0  0  0  0  0
   18.0383   -9.9994  -15.5884 N   0  0  0  0  0  0  0  0  0  0  0  0
   17.5945  -11.2067  -15.2033 C   0  0  0  0  0  0  0  0  0  0  0  0
   18.6316  -12.0421  -15.0320 N   0  0  0  0  0  0  0  0  0  0  0  0
   22.1652   -9.6011  -15.1116 C   0  0  0  0  0  0  0  0  0  0  0  0
   22.9466   -9.3779  -14.1520 O   0  0  0  0  0  0  0  0  0  0  0  0
   21.2980   -8.5830  -15.5273 N   0  0  0  0  0  0  0  0  0  0  0  0
   21.2756   -7.2456  -14.9413 C   0  0  1  0  0  0  0  0  0  0  0  0
   22.6737   -6.6485  -14.9732 C   0  0  0  0  0  0  0  0  0  0  0  0
   22.7634   -5.2815  -14.4627 C   0  0  0  0  0  0  0  0  0  0  0  0
   22.8984   -4.3523  -15.3333 O   0  0  0  0  0  0  0  0  0  0  0  0
   20.2696   -6.3952  -15.6022 C   0  0  0  0  0  0  0  0  0  0  0  0
   19.8427   -5.2479  -14.8960 O   0  0  0  0  0  0  0  0  0  0  0  0
   22.7211   -4.8860  -13.1605 O   0  0  0  0  0  0  0  0  0  0  0  0
   19.7503   -6.5678  -16.7090 O   0  0  0  0  0  0  0  0  0  0  0  0
  2  3  1  0
  2  1  1  0
  3  5  1  0
  3  4  1  1
  5  6  1  6
  7  5  1  0
  8  7  2  0
  9  7  1  0
 10  9  1  0
 10 11  1  1
 11 12  1  0
 12 13  2  0
 12 16  1  0
 13 14  1  0
 14 15  1  0
 16 15  2  0
 17 19  1  0
 17 10  1  0
 18 17  2  0
 20 19  1  0
 20 24  1  0
 20 21  1  6
 22 23  2  0
 22 21  1  0
 24 25  1  0
 26 22  1  0
 27 24  2  0
M  END
$$$$
