IHD.pdb
     RDKit          3D

 27 27  0  0  1  0  0  0  0  0999 V2000
   18.3382  -17.7700  -14.4087 C   0  0  0  0  0  0  0  0  0  0  0  0
   17.2095  -16.7866  -14.0672 C   0  0  0  0  0  0  0  0  0  0  0  0
   17.7952  -15.4316  -13.8256 C   0  0  2  0  0  0  0  0  0  0  0  0
   18.9525  -15.4946  -12.8202 C   0  0  0  0  0  0  0  0  0  0  0  0
   16.8143  -14.3694  -13.4538 C   0  0  2  0  0  0  0  0  0  0  0  0
   15.7938  -14.3598  -14.4948 N   0  0  0  0  0  0  0  0  0  0  0  0
   17.4109  -13.0206  -13.2874 C   0  0  0  0  0  0  0  0  0  0  0  0
   18.2708  -12.7707  -12.4118 O   0  0  0  0  0  0  0  0  0  0  0  0
   17.0014  -11.9857  -14.1379 N   0  0  0  0  0  0  0  0  0  0  0  0
   17.4898  -10.6293  -14.1180 C   0  0  1  0  0  0  0  0  0  0  0  0
   17.6650  -10.2073  -15.5549 C   0  0  0  0  0  0  0  0  0  0  0  0
   18.7444  -10.9419  -16.2511 C   0  0  0  0  0  0  0  0  0  0  0  0
   20.0735  -10.5999  -16.3146 C   0  0  0  0  0  0  0  0  0  0  0  0
   20.7597  -11.5267  -17.0488 N   0  0  0  0  0  0  0  0  0  0  0  0
   19.8516  -12.4370  -17.4356 C   0  0  0  0  0  0  0  0  0  0  0  0
   18.6391  -12.1017  -16.9662 N   0  0  0  0  0  0  0  0  0  0  0  0
   16.7109   -9.7152  -13.2886 C   0  0  0  0  0  0  0  0  0  0  0  0
   15.4571   -9.8072  -13.3133 O   0  0  0  0  0  0  0  0  0  0  0  0
   17.3009   -8.7450  -12.4688 N   0  0  0  0  0  0  0  0  0  0  0  0
   16.5425   -7.7787  -11.6791 C   0  0  1  0  0  0  0  0  0  0  0  0
   16.5829   -8.1723  -10.2110 C   0  0  0  0  0  0  0  0  0  0  0  0
   16.0180   -7.1792   -9.2988 C   0  0  0  0  0  0  0  0  0  0  0  0
   15.4430   -6.1691   -9.8362 O   0  0  0  0  0  0  0  0  0  0  0  0
   17.0202   -6.4059  -11.9220 C   0  0  0  0  0  0  0  0  0  0  0  0
   18.3021   -6.2708  -12.5013 O   0  0  0  0  0  0  0  0  0  0  0  0
   16.0371   -7.2084   -7.9377 O   0  0  0  0  0  0  0  0  0  0  0  0
   16.4285   -5.3502  -11.6768 O   0  0  0  0  0  0  0  0  0  0  0  0
  2  3  1  0
  2  1  1  0
  3  5  1  0
  3  4  1  1
  5  6  1  6
  7  5  1  0
  8  7  2  0
  9  7  1  0
 10  9  1  0
 10 11  1  6
 11 12  1  0
 12 13  2  0
 12 16  1  0
 13 14  1  0
 14 15  1  0
 16 15  2  0
 17 19  1  0
 17 10  1  0
 18 17  2  0
 20 19  1  0
 20 24  1  0
 20 21  1  1
 22 23  2  0
 22 21  1  0
 24 25  1  0
 26 22  1  0
 27 24  2  0
M  END
$$$$
