IHD.pdb
     RDKit          3D

 27 27  0  0  1  0  0  0  0  0999 V2000
   11.5022  -12.9789  -15.1837 C   0  0  0  0  0  0  0  0  0  0  0  0
   12.9006  -13.2863  -15.7385 C   0  0  0  0  0  0  0  0  0  0  0  0
   13.9193  -12.5242  -14.9519 C   0  0  2  0  0  0  0  0  0  0  0  0
   13.5821  -11.0282  -14.9027 C   0  0  0  0  0  0  0  0  0  0  0  0
   15.3378  -12.7445  -15.3620 C   0  0  2  0  0  0  0  0  0  0  0  0
   15.5865  -14.1769  -15.2539 N   0  0  0  0  0  0  0  0  0  0  0  0
   16.3280  -11.9757  -14.5674 C   0  0  0  0  0  0  0  0  0  0  0  0
   16.6320  -12.2862  -13.3929 O   0  0  0  0  0  0  0  0  0  0  0  0
   16.9482  -10.8616  -15.1471 N   0  0  0  0  0  0  0  0  0  0  0  0
   17.9601  -10.0393  -14.5316 C   0  0  1  0  0  0  0  0  0  0  0  0
   19.0538   -9.8553  -15.5530 C   0  0  0  0  0  0  0  0  0  0  0  0
   20.2179   -9.1050  -15.0323 C   0  0  0  0  0  0  0  0  0  0  0  0
   20.4038   -8.6466  -13.7507 C   0  0  0  0  0  0  0  0  0  0  0  0
   21.6040   -7.9989  -13.6558 N   0  0  0  0  0  0  0  0  0  0  0  0
   22.1542   -8.0602  -14.8790 C   0  0  0  0  0  0  0  0  0  0  0  0
   21.3368   -8.7194  -15.7157 N   0  0  0  0  0  0  0  0  0  0  0  0
   17.4581   -8.8105  -13.9249 C   0  0  0  0  0  0  0  0  0  0  0  0
   16.6296   -8.1201  -14.5715 O   0  0  0  0  0  0  0  0  0  0  0  0
   17.8590   -8.3719  -12.6567 N   0  0  0  0  0  0  0  0  0  0  0  0
   17.2928   -7.2059  -11.9841 C   0  0  1  0  0  0  0  0  0  0  0  0
   17.2095   -7.4671  -10.4885 C   0  0  0  0  0  0  0  0  0  0  0  0
   16.6702   -6.3563   -9.7057 C   0  0  0  0  0  0  0  0  0  0  0  0
   15.9670   -5.4956  -10.3414 O   0  0  0  0  0  0  0  0  0  0  0  0
   18.0487   -5.9850  -12.3156 C   0  0  0  0  0  0  0  0  0  0  0  0
   17.2943   -4.8138  -12.5532 O   0  0  0  0  0  0  0  0  0  0  0  0
   16.8347   -6.1341   -8.3726 O   0  0  0  0  0  0  0  0  0  0  0  0
   19.2736   -5.8627  -12.4121 O   0  0  0  0  0  0  0  0  0  0  0  0
  2  3  1  0
  2  1  1  0
  3  5  1  0
  3  4  1  6
  5  6  1  1
  7  5  1  0
  8  7  2  0
  9  7  1  0
 10  9  1  0
 10 11  1  6
 11 12  1  0
 12 13  2  0
 12 16  1  0
 13 14  1  0
 14 15  1  0
 16 15  2  0
 17 19  1  0
 17 10  1  0
 18 17  2  0
 20 19  1  0
 20 24  1  0
 20 21  1  1
 22 23  2  0
 22 21  1  0
 24 25  1  0
 26 22  1  0
 27 24  2  0
M  END
$$$$
