IHD.pdb
     RDKit          3D

 27 27  0  0  1  0  0  0  0  0999 V2000
   14.6429  -13.2974  -17.4066 C   0  0  0  0  0  0  0  0  0  0  0  0
   16.1649  -13.1484  -17.5440 C   0  0  0  0  0  0  0  0  0  0  0  0
   16.6227  -11.9951  -16.7089 C   0  0  2  0  0  0  0  0  0  0  0  0
   15.8824  -10.7048  -17.0847 C   0  0  0  0  0  0  0  0  0  0  0  0
   18.0995  -11.7793  -16.6734 C   0  0  2  0  0  0  0  0  0  0  0  0
   18.6978  -13.0471  -16.2737 N   0  0  0  0  0  0  0  0  0  0  0  0
   18.5335  -10.6835  -15.7713 C   0  0  0  0  0  0  0  0  0  0  0  0
   18.4301  -10.7595  -14.5255 O   0  0  0  0  0  0  0  0  0  0  0  0
   19.0794   -9.5197  -16.3278 N   0  0  0  0  0  0  0  0  0  0  0  0
   19.4560   -8.3307  -15.6045 C   0  0  1  0  0  0  0  0  0  0  0  0
   20.9617   -8.2585  -15.6370 C   0  0  0  0  0  0  0  0  0  0  0  0
   21.5029   -7.0588  -14.9609 C   0  0  0  0  0  0  0  0  0  0  0  0
   21.6756   -6.8744  -13.6105 C   0  0  0  0  0  0  0  0  0  0  0  0
   22.2025   -5.6357  -13.3719 N   0  0  0  0  0  0  0  0  0  0  0  0
   22.3528   -5.0604  -14.5758 C   0  0  0  0  0  0  0  0  0  0  0  0
   21.9385   -5.8994  -15.5386 N   0  0  0  0  0  0  0  0  0  0  0  0
   18.7628   -7.1177  -16.0267 C   0  0  0  0  0  0  0  0  0  0  0  0
   18.6196   -6.9094  -17.2584 O   0  0  0  0  0  0  0  0  0  0  0  0
   18.2516   -6.1812  -15.1193 N   0  0  0  0  0  0  0  0  0  0  0  0
   17.6445   -4.9137  -15.5160 C   0  0  1  0  0  0  0  0  0  0  0  0
   16.2574   -4.7963  -14.9044 C   0  0  0  0  0  0  0  0  0  0  0  0
   15.2542   -5.6794  -15.4972 C   0  0  0  0  0  0  0  0  0  0  0  0
   15.2598   -5.7776  -16.7738 O   0  0  0  0  0  0  0  0  0  0  0  0
   18.5219   -3.7785  -15.1790 C   0  0  0  0  0  0  0  0  0  0  0  0
   18.7348   -2.8158  -16.1915 O   0  0  0  0  0  0  0  0  0  0  0  0
   14.3110   -6.4095  -14.8405 O   0  0  0  0  0  0  0  0  0  0  0  0
   19.0988   -3.5670  -14.1080 O   0  0  0  0  0  0  0  0  0  0  0  0
  2  3  1  0
  2  1  1  0
  3  5  1  0
  3  4  1  6
  5  6  1  1
  7  5  1  0
  8  7  2  0
  9  7  1  0
 10  9  1  0
 10 11  1  6
 11 12  1  0
 12 13  2  0
 12 16  1  0
 13 14  1  0
 14 15  1  0
 16 15  2  0
 17 19  1  0
 17 10  1  0
 18 17  2  0
 20 19  1  0
 20 24  1  0
 20 21  1  1
 22 23  2  0
 22 21  1  0
 24 25  1  0
 26 22  1  0
 27 24  2  0
M  END
$$$$
