IHD.pdb
     RDKit          3D

 27 27  0  0  1  0  0  0  0  0999 V2000
   12.0751  -14.4891  -14.8676 C   0  0  0  0  0  0  0  0  0  0  0  0
   12.9619  -13.9059  -15.9772 C   0  0  0  0  0  0  0  0  0  0  0  0
   13.8017  -12.8069  -15.4079 C   0  0  2  0  0  0  0  0  0  0  0  0
   12.9333  -11.7043  -14.7880 C   0  0  0  0  0  0  0  0  0  0  0  0
   14.8189  -12.2338  -16.3382 C   0  0  2  0  0  0  0  0  0  0  0  0
   15.6071  -13.3540  -16.8373 N   0  0  0  0  0  0  0  0  0  0  0  0
   15.6947  -11.2048  -15.7240 C   0  0  0  0  0  0  0  0  0  0  0  0
   15.2410  -10.2609  -15.0372 O   0  0  0  0  0  0  0  0  0  0  0  0
   17.0797  -11.2873  -15.9161 N   0  0  0  0  0  0  0  0  0  0  0  0
   18.0637  -10.3727  -15.3925 C   0  0  1  0  0  0  0  0  0  0  0  0
   19.4018  -11.0580  -15.5084 C   0  0  0  0  0  0  0  0  0  0  0  0
   20.5278  -10.2228  -15.0354 C   0  0  0  0  0  0  0  0  0  0  0  0
   20.4517   -8.9847  -14.4449 C   0  0  0  0  0  0  0  0  0  0  0  0
   21.7065   -8.5316  -14.1465 N   0  0  0  0  0  0  0  0  0  0  0  0
   22.5522   -9.4917  -14.5538 C   0  0  0  0  0  0  0  0  0  0  0  0
   21.8624  -10.5119  -15.0888 N   0  0  0  0  0  0  0  0  0  0  0  0
   18.0004   -9.0264  -15.9522 C   0  0  0  0  0  0  0  0  0  0  0  0
   17.9388   -8.9011  -17.2018 O   0  0  0  0  0  0  0  0  0  0  0  0
   18.0039   -7.8734  -15.1572 N   0  0  0  0  0  0  0  0  0  0  0  0
   17.9841   -6.5159  -15.6951 C   0  0  1  0  0  0  0  0  0  0  0  0
   16.5631   -5.9753  -15.6699 C   0  0  0  0  0  0  0  0  0  0  0  0
   16.0234   -5.7446  -14.3309 C   0  0  0  0  0  0  0  0  0  0  0  0
   16.7224   -6.1767  -13.3490 O   0  0  0  0  0  0  0  0  0  0  0  0
   18.9433   -5.6513  -14.9848 C   0  0  0  0  0  0  0  0  0  0  0  0
   19.1627   -4.3645  -15.5263 O   0  0  0  0  0  0  0  0  0  0  0  0
   14.8559   -5.1211  -14.0115 O   0  0  0  0  0  0  0  0  0  0  0  0
   19.5842   -5.9201  -13.9643 O   0  0  0  0  0  0  0  0  0  0  0  0
  2  3  1  0
  2  1  1  0
  3  5  1  0
  3  4  1  6
  5  6  1  1
  7  5  1  0
  8  7  2  0
  9  7  1  0
 10  9  1  0
 10 11  1  6
 11 12  1  0
 12 13  2  0
 12 16  1  0
 13 14  1  0
 14 15  1  0
 16 15  2  0
 17 19  1  0
 17 10  1  0
 18 17  2  0
 20 19  1  0
 20 24  1  0
 20 21  1  1
 22 23  2  0
 22 21  1  0
 24 25  1  0
 26 22  1  0
 27 24  2  0
M  END
$$$$
