IHD.pdb
     RDKit          3D

 27 27  0  0  1  0  0  0  0  0999 V2000
   26.9175  -13.9817  -15.1404 C   0  0  0  0  0  0  0  0  0  0  0  0
   25.4488  -14.4145  -15.2561 C   0  0  0  0  0  0  0  0  0  0  0  0
   24.6099  -13.2212  -15.5869 C   0  0  2  0  0  0  0  0  0  0  0  0
   24.8481  -12.0778  -14.5920 C   0  0  0  0  0  0  0  0  0  0  0  0
   23.1519  -13.4935  -15.7572 C   0  0  2  0  0  0  0  0  0  0  0  0
   23.0431  -14.6636  -16.6201 N   0  0  0  0  0  0  0  0  0  0  0  0
   22.3804  -12.3542  -16.3137 C   0  0  0  0  0  0  0  0  0  0  0  0
   22.5719  -11.9159  -17.4711 O   0  0  0  0  0  0  0  0  0  0  0  0
   21.4012  -11.7431  -15.5201 N   0  0  0  0  0  0  0  0  0  0  0  0
   20.5750  -10.6257  -15.9044 C   0  0  1  0  0  0  0  0  0  0  0  0
   19.1603  -11.1394  -15.9938 C   0  0  0  0  0  0  0  0  0  0  0  0
   18.1884  -10.1031  -16.4070 C   0  0  0  0  0  0  0  0  0  0  0  0
   17.8169   -9.7781  -17.6891 C   0  0  0  0  0  0  0  0  0  0  0  0
   16.8943   -8.7694  -17.6665 N   0  0  0  0  0  0  0  0  0  0  0  0
   16.7001   -8.4758  -16.3708 C   0  0  0  0  0  0  0  0  0  0  0  0
   17.4677   -9.2655  -15.6028 N   0  0  0  0  0  0  0  0  0  0  0  0
   20.7550   -9.4284  -15.0894 C   0  0  0  0  0  0  0  0  0  0  0  0
   21.0647   -9.5705  -13.8791 O   0  0  0  0  0  0  0  0  0  0  0  0
   20.5988   -8.1333  -15.5991 N   0  0  0  0  0  0  0  0  0  0  0  0
   20.7152   -6.9228  -14.7906 C   0  0  1  0  0  0  0  0  0  0  0  0
   22.1555   -6.4358  -14.8015 C   0  0  0  0  0  0  0  0  0  0  0  0
   22.3715   -5.1592  -14.1223 C   0  0  0  0  0  0  0  0  0  0  0  0
   21.7082   -4.9641  -13.0446 O   0  0  0  0  0  0  0  0  0  0  0  0
   19.7553   -5.8962  -15.2340 C   0  0  0  0  0  0  0  0  0  0  0  0
   19.1289   -5.1315  -14.2240 O   0  0  0  0  0  0  0  0  0  0  0  0
   23.2005   -4.1515  -14.5108 O   0  0  0  0  0  0  0  0  0  0  0  0
   19.4300   -5.6226  -16.3933 O   0  0  0  0  0  0  0  0  0  0  0  0
  2  3  1  0
  2  1  1  0
  3  5  1  0
  3  4  1  1
  5  6  1  6
  7  5  1  0
  8  7  2  0
  9  7  1  0
 10  9  1  0
 10 11  1  1
 11 12  1  0
 12 13  2  0
 12 16  1  0
 13 14  1  0
 14 15  1  0
 16 15  2  0
 17 19  1  0
 17 10  1  0
 18 17  2  0
 20 19  1  0
 20 24  1  0
 20 21  1  6
 22 23  2  0
 22 21  1  0
 24 25  1  0
 26 22  1  0
 27 24  2  0
M  END
$$$$
