AMP.pdb
     RDKit          3D

 21 21  0  0  1  0  0  0  0  0999 V2000
   23.5737  -16.6551  -16.7034 C   0  0  0  0  0  0  0  0  0  0  0  0
   24.2998  -16.2816  -15.4552 C   0  0  2  0  0  0  0  0  0  0  0  0
   24.9333  -14.9870  -15.5102 N   0  0  0  0  0  0  0  0  0  0  0  0
   25.3306  -17.3619  -15.1769 C   0  0  0  0  0  0  0  0  0  0  0  0
   26.4614  -17.1111  -15.6576 O   0  0  0  0  0  0  0  0  0  0  0  0
   25.3309  -19.7400   -9.3750 C   0  0  0  0  0  0  0  0  0  0  0  0
   25.7273  -21.2654  -10.3051 S   0  0  0  0  0  0  0  0  0  0  0  0
   26.4385  -20.8356  -11.9228 C   0  0  0  0  0  0  0  0  0  0  0  0
   25.6417  -19.8763  -12.7003 C   0  0  0  0  0  0  0  0  0  0  0  0
   26.0440  -19.4482  -14.0488 C   0  0  2  0  0  0  0  0  0  0  0  0
   24.9684  -18.5065  -14.4404 N   0  0  0  0  0  0  0  0  0  0  0  0
   26.1435  -20.4036  -15.1355 C   0  0  0  0  0  0  0  0  0  0  0  0
   25.0140  -20.7814  -15.6859 O   0  0  0  0  0  0  0  0  0  0  0  0
   27.2451  -21.0196  -15.7353 N   0  0  0  0  0  0  0  0  0  0  0  0
   28.6342  -20.7113  -15.3451 C   0  0  0  0  0  0  0  0  0  0  0  0
   29.4629  -21.1117  -16.5452 C   0  0  0  0  0  0  0  0  0  0  0  0
   28.7862  -22.3929  -16.9408 C   0  0  0  0  0  0  0  0  0  0  0  0
   27.2999  -22.0322  -16.7415 C   0  0  1  0  0  0  0  0  0  0  0  0
   26.6820  -23.3141  -16.2944 C   0  0  0  0  0  0  0  0  0  0  0  0
   26.3851  -23.5088  -14.9624 O   0  0  0  0  0  0  0  0  0  0  0  0
   26.4328  -24.2110  -17.1205 O   0  0  0  0  0  0  0  0  0  0  0  0
  2  1  1  6
  3  2  1  0
  4  2  1  0
  4 11  1  0
  5  4  2  0
  7  6  1  0
  8  7  1  0
  9  8  1  0
 10  9  1  1
 10 11  1  0
 10 12  1  0
 12 14  1  0
 13 12  2  0
 14 15  1  0
 14 18  1  0
 15 16  1  0
 16 17  1  0
 18 19  1  1
 18 17  1  0
 19 20  1  0
 21 19  2  0
M  END
$$$$
