AMP.pdb
     RDKit          3D

 21 21  0  0  1  0  0  0  0  0999 V2000
   22.4416  -18.6864  -15.3554 C   0  0  0  0  0  0  0  0  0  0  0  0
   22.7658  -17.7856  -14.2116 C   0  0  2  0  0  0  0  0  0  0  0  0
   22.9929  -16.4131  -14.5920 N   0  0  0  0  0  0  0  0  0  0  0  0
   23.9901  -18.3482  -13.5104 C   0  0  0  0  0  0  0  0  0  0  0  0
   25.0697  -17.8530  -13.9128 O   0  0  0  0  0  0  0  0  0  0  0  0
   27.1250  -18.9901   -7.9625 C   0  0  0  0  0  0  0  0  0  0  0  0
   25.6061  -20.0109   -7.9508 S   0  0  0  0  0  0  0  0  0  0  0  0
   25.4440  -20.8955   -9.5316 C   0  0  0  0  0  0  0  0  0  0  0  0
   24.5707  -20.2332  -10.5107 C   0  0  0  0  0  0  0  0  0  0  0  0
   25.0622  -19.8245  -11.8354 C   0  0  2  0  0  0  0  0  0  0  0  0
   23.8396  -19.3313  -12.5131 N   0  0  0  0  0  0  0  0  0  0  0  0
   25.6506  -20.7909  -12.7429 C   0  0  0  0  0  0  0  0  0  0  0  0
   24.8281  -21.6546  -13.2895 O   0  0  0  0  0  0  0  0  0  0  0  0
   26.9675  -20.9873  -13.1674 N   0  0  0  0  0  0  0  0  0  0  0  0
   28.0873  -20.1575  -12.6836 C   0  0  0  0  0  0  0  0  0  0  0  0
   29.1500  -20.2950  -13.7510 C   0  0  0  0  0  0  0  0  0  0  0  0
   29.0424  -21.7589  -14.0694 C   0  0  0  0  0  0  0  0  0  0  0  0
   27.5144  -21.9684  -14.0501 C   0  0  1  0  0  0  0  0  0  0  0  0
   27.3544  -23.3567  -13.5289 C   0  0  0  0  0  0  0  0  0  0  0  0
   27.6245  -24.4349  -14.3442 O   0  0  0  0  0  0  0  0  0  0  0  0
   26.9770  -23.5466  -12.3581 O   0  0  0  0  0  0  0  0  0  0  0  0
  2  1  1  6
  3  2  1  0
  4  2  1  0
  4 11  1  0
  5  4  2  0
  7  6  1  0
  8  7  1  0
  9  8  1  0
 10  9  1  1
 10 11  1  0
 10 12  1  0
 12 14  1  0
 13 12  2  0
 14 15  1  0
 14 18  1  0
 15 16  1  0
 16 17  1  0
 18 19  1  1
 18 17  1  0
 19 20  1  0
 21 19  2  0
M  END
$$$$
