AMP.pdb
     RDKit          3D

 21 21  0  0  1  0  0  0  0  0999 V2000
   26.2247  -23.7300  -16.9639 C   0  0  0  0  0  0  0  0  0  0  0  0
   26.1598  -24.4847  -15.6789 C   0  0  2  0  0  0  0  0  0  0  0  0
   25.6138  -25.8135  -15.8062 N   0  0  0  0  0  0  0  0  0  0  0  0
   25.3342  -23.6665  -14.7013 C   0  0  0  0  0  0  0  0  0  0  0  0
   24.1140  -23.9561  -14.7109 O   0  0  0  0  0  0  0  0  0  0  0  0
   25.9961  -19.6380   -8.0305 C   0  0  0  0  0  0  0  0  0  0  0  0
   26.6087  -20.7808   -9.3219 S   0  0  0  0  0  0  0  0  0  0  0  0
   25.6379  -20.5695  -10.8451 C   0  0  0  0  0  0  0  0  0  0  0  0
   26.0582  -21.4334  -11.9573 C   0  0  0  0  0  0  0  0  0  0  0  0
   25.1057  -21.9072  -12.9731 C   0  0  2  0  0  0  0  0  0  0  0  0
   25.9580  -22.6937  -13.8961 N   0  0  0  0  0  0  0  0  0  0  0  0
   24.3816  -20.9701  -13.8105 C   0  0  0  0  0  0  0  0  0  0  0  0
   25.0600  -20.4143  -14.7862 O   0  0  0  0  0  0  0  0  0  0  0  0
   23.0554  -20.5304  -13.7837 N   0  0  0  0  0  0  0  0  0  0  0  0
   22.1047  -20.9454  -12.7346 C   0  0  0  0  0  0  0  0  0  0  0  0
   20.7412  -20.7456  -13.3578 C   0  0  0  0  0  0  0  0  0  0  0  0
   20.9471  -19.4422  -14.0752 C   0  0  0  0  0  0  0  0  0  0  0  0
   22.3671  -19.6254  -14.6487 C   0  0  1  0  0  0  0  0  0  0  0  0
   22.9439  -18.2504  -14.6106 C   0  0  0  0  0  0  0  0  0  0  0  0
   22.5263  -17.3020  -15.5196 O   0  0  0  0  0  0  0  0  0  0  0  0
   23.8028  -17.9547  -13.7597 O   0  0  0  0  0  0  0  0  0  0  0  0
  2  1  1  6
  3  2  1  0
  4  2  1  0
  4 11  1  0
  5  4  2  0
  7  6  1  0
  8  7  1  0
  9  8  1  0
 10  9  1  1
 10 11  1  0
 10 12  1  0
 12 14  1  0
 13 12  2  0
 14 15  1  0
 14 18  1  0
 15 16  1  0
 16 17  1  0
 18 19  1  1
 18 17  1  0
 19 20  1  0
 21 19  2  0
M  END
$$$$
