AMP.pdb
     RDKit          3D

 21 21  0  0  1  0  0  0  0  0999 V2000
   21.0125  -21.2786  -15.3770 C   0  0  0  0  0  0  0  0  0  0  0  0
   20.9695  -20.9534  -13.9219 C   0  0  2  0  0  0  0  0  0  0  0  0
   19.9379  -20.0120  -13.5616 N   0  0  0  0  0  0  0  0  0  0  0  0
   22.3344  -20.4177  -13.5256 C   0  0  0  0  0  0  0  0  0  0  0  0
   22.4232  -19.1689  -13.5993 O   0  0  0  0  0  0  0  0  0  0  0  0
   25.9166  -18.8628   -8.8032 C   0  0  0  0  0  0  0  0  0  0  0  0
   25.7690  -20.6785   -8.9779 S   0  0  0  0  0  0  0  0  0  0  0  0
   26.1651  -21.1694  -10.6837 C   0  0  0  0  0  0  0  0  0  0  0  0
   24.9939  -21.5011  -11.5072 C   0  0  0  0  0  0  0  0  0  0  0  0
   24.6532  -20.7332  -12.7145 C   0  0  2  0  0  0  0  0  0  0  0  0
   23.3498  -21.3076  -13.1250 N   0  0  0  0  0  0  0  0  0  0  0  0
   25.4947  -20.7874  -13.8946 C   0  0  0  0  0  0  0  0  0  0  0  0
   25.3528  -21.8401  -14.6648 O   0  0  0  0  0  0  0  0  0  0  0  0
   26.4581  -19.9059  -14.3921 N   0  0  0  0  0  0  0  0  0  0  0  0
   26.8474  -18.6742  -13.6794 C   0  0  0  0  0  0  0  0  0  0  0  0
   27.4260  -17.7810  -14.7541 C   0  0  0  0  0  0  0  0  0  0  0  0
   28.2161  -18.7771  -15.5537 C   0  0  0  0  0  0  0  0  0  0  0  0
   27.2606  -19.9878  -15.5712 C   0  0  1  0  0  0  0  0  0  0  0  0
   28.1788  -21.1631  -15.5554 C   0  0  0  0  0  0  0  0  0  0  0  0
   28.7699  -21.5921  -16.7245 O   0  0  0  0  0  0  0  0  0  0  0  0
   28.4142  -21.7598  -14.4888 O   0  0  0  0  0  0  0  0  0  0  0  0
  2  1  1  6
  3  2  1  0
  4  2  1  0
  4 11  1  0
  5  4  2  0
  7  6  1  0
  8  7  1  0
  9  8  1  0
 10  9  1  1
 10 11  1  0
 10 12  1  0
 12 14  1  0
 13 12  2  0
 14 15  1  0
 14 18  1  0
 15 16  1  0
 16 17  1  0
 18 19  1  1
 18 17  1  0
 19 20  1  0
 21 19  2  0
M  END
$$$$
