AMP.pdb
     RDKit          3D

 21 21  0  0  1  0  0  0  0  0999 V2000
   20.8084  -19.9369  -15.0565 C   0  0  0  0  0  0  0  0  0  0  0  0
   21.2020  -18.8388  -14.1269 C   0  0  2  0  0  0  0  0  0  0  0  0
   21.0879  -17.5188  -14.6968 N   0  0  0  0  0  0  0  0  0  0  0  0
   22.6302  -19.0987  -13.6799 C   0  0  0  0  0  0  0  0  0  0  0  0
   23.4916  -18.5697  -14.4220 O   0  0  0  0  0  0  0  0  0  0  0  0
   26.0776  -18.8602   -7.9251 C   0  0  0  0  0  0  0  0  0  0  0  0
   25.3329  -20.5097   -8.1960 S   0  0  0  0  0  0  0  0  0  0  0  0
   25.3737  -20.9229   -9.9666 C   0  0  0  0  0  0  0  0  0  0  0  0
   24.2033  -20.4592  -10.7250 C   0  0  0  0  0  0  0  0  0  0  0  0
   24.2884  -20.1292  -12.1558 C   0  0  2  0  0  0  0  0  0  0  0  0
   22.8771  -19.8716  -12.5286 N   0  0  0  0  0  0  0  0  0  0  0  0
   24.7770  -21.0994  -13.1168 C   0  0  0  0  0  0  0  0  0  0  0  0
   23.9350  -22.0387  -13.4776 O   0  0  0  0  0  0  0  0  0  0  0  0
   26.0106  -21.2329  -13.7596 N   0  0  0  0  0  0  0  0  0  0  0  0
   27.1687  -20.3782  -13.4355 C   0  0  0  0  0  0  0  0  0  0  0  0
   28.0433  -20.4413  -14.6678 C   0  0  0  0  0  0  0  0  0  0  0  0
   27.9301  -21.8970  -15.0200 C   0  0  0  0  0  0  0  0  0  0  0  0
   26.4337  -22.1636  -14.7574 C   0  0  1  0  0  0  0  0  0  0  0  0
   26.4059  -23.5732  -14.2705 C   0  0  0  0  0  0  0  0  0  0  0  0
   26.4750  -24.6151  -15.1704 O   0  0  0  0  0  0  0  0  0  0  0  0
   26.3203  -23.8136  -13.0523 O   0  0  0  0  0  0  0  0  0  0  0  0
  2  1  1  6
  3  2  1  0
  4  2  1  0
  4 11  1  0
  5  4  2  0
  7  6  1  0
  8  7  1  0
  9  8  1  0
 10  9  1  1
 10 11  1  0
 10 12  1  0
 12 14  1  0
 13 12  2  0
 14 15  1  0
 14 18  1  0
 15 16  1  0
 16 17  1  0
 18 19  1  1
 18 17  1  0
 19 20  1  0
 21 19  2  0
M  END
$$$$
