AMP.pdb
     RDKit          3D

 21 21  0  0  1  0  0  0  0  0999 V2000
   19.9666  -19.7374  -13.4451 C   0  0  0  0  0  0  0  0  0  0  0  0
   20.9569  -20.7827  -13.8345 C   0  0  2  0  0  0  0  0  0  0  0  0
   20.7049  -22.0765  -13.2491 N   0  0  0  0  0  0  0  0  0  0  0  0
   22.3366  -20.2849  -13.4399 C   0  0  0  0  0  0  0  0  0  0  0  0
   22.3884  -19.0454  -13.2560 O   0  0  0  0  0  0  0  0  0  0  0  0
   26.0193  -19.1839   -8.6329 C   0  0  0  0  0  0  0  0  0  0  0  0
   25.9155  -20.9649   -9.0406 S   0  0  0  0  0  0  0  0  0  0  0  0
   26.1815  -21.2074  -10.8233 C   0  0  0  0  0  0  0  0  0  0  0  0
   24.9481  -21.3902  -11.6014 C   0  0  0  0  0  0  0  0  0  0  0  0
   24.7140  -20.6707  -12.8627 C   0  0  2  0  0  0  0  0  0  0  0  0
   23.4035  -21.1958  -13.3142 N   0  0  0  0  0  0  0  0  0  0  0  0
   25.6110  -20.8327  -13.9909 C   0  0  0  0  0  0  0  0  0  0  0  0
   25.5391  -21.9736  -14.6348 O   0  0  0  0  0  0  0  0  0  0  0  0
   26.5680  -19.9809  -14.5490 N   0  0  0  0  0  0  0  0  0  0  0  0
   26.8784  -18.6565  -13.9776 C   0  0  0  0  0  0  0  0  0  0  0  0
   27.4802  -17.8792  -15.1270 C   0  0  0  0  0  0  0  0  0  0  0  0
   28.3434  -18.9334  -15.7593 C   0  0  0  0  0  0  0  0  0  0  0  0
   27.4317  -20.1743  -15.6703 C   0  0  1  0  0  0  0  0  0  0  0  0
   28.3874  -21.3011  -15.4661 C   0  0  0  0  0  0  0  0  0  0  0  0
   29.0911  -21.8111  -16.5362 O   0  0  0  0  0  0  0  0  0  0  0  0
   28.5528  -21.7844  -14.3311 O   0  0  0  0  0  0  0  0  0  0  0  0
  2  1  1  1
  3  2  1  0
  4  2  1  0
  4 11  1  0
  5  4  2  0
  7  6  1  0
  8  7  1  0
  9  8  1  0
 10  9  1  1
 10 11  1  0
 10 12  1  0
 12 14  1  0
 13 12  2  0
 14 15  1  0
 14 18  1  0
 15 16  1  0
 16 17  1  0
 18 19  1  1
 18 17  1  0
 19 20  1  0
 21 19  2  0
M  END
$$$$
