AMP.pdb
     RDKit          3D

 21 21  0  0  1  0  0  0  0  0999 V2000
   20.7485  -20.6904  -15.7872 C   0  0  0  0  0  0  0  0  0  0  0  0
   21.0031  -21.0685  -14.3670 C   0  0  2  0  0  0  0  0  0  0  0  0
   19.9647  -20.6557  -13.4551 N   0  0  0  0  0  0  0  0  0  0  0  0
   22.3354  -20.4647  -13.9576 C   0  0  0  0  0  0  0  0  0  0  0  0
   22.2923  -19.2226  -13.7903 O   0  0  0  0  0  0  0  0  0  0  0  0
   25.5624  -19.8782   -8.9102 C   0  0  0  0  0  0  0  0  0  0  0  0
   26.1739  -21.4273   -9.6688 S   0  0  0  0  0  0  0  0  0  0  0  0
   26.3692  -21.2016  -11.4628 C   0  0  0  0  0  0  0  0  0  0  0  0
   25.1654  -21.5094  -12.2476 C   0  0  0  0  0  0  0  0  0  0  0  0
   24.7330  -20.6604  -13.3682 C   0  0  2  0  0  0  0  0  0  0  0  0
   23.4644  -21.2923  -13.8023 N   0  0  0  0  0  0  0  0  0  0  0  0
   25.5409  -20.5392  -14.5666 C   0  0  0  0  0  0  0  0  0  0  0  0
   25.4048  -21.4895  -15.4609 O   0  0  0  0  0  0  0  0  0  0  0  0
   26.4655  -19.5731  -14.9720 N   0  0  0  0  0  0  0  0  0  0  0  0
   26.8064  -18.4045  -14.1384 C   0  0  0  0  0  0  0  0  0  0  0  0
   27.3440  -17.3844  -15.1170 C   0  0  0  0  0  0  0  0  0  0  0  0
   28.1716  -18.2613  -16.0127 C   0  0  0  0  0  0  0  0  0  0  0  0
   27.2665  -19.5024  -16.1528 C   0  0  1  0  0  0  0  0  0  0  0  0
   28.2323  -20.6344  -16.2551 C   0  0  0  0  0  0  0  0  0  0  0  0
   28.9014  -20.8653  -17.4380 O   0  0  0  0  0  0  0  0  0  0  0  0
   28.4372  -21.3736  -15.2749 O   0  0  0  0  0  0  0  0  0  0  0  0
  2  1  1  6
  3  2  1  0
  4  2  1  0
  4 11  1  0
  5  4  2  0
  7  6  1  0
  8  7  1  0
  9  8  1  0
 10  9  1  1
 10 11  1  0
 10 12  1  0
 12 14  1  0
 13 12  2  0
 14 15  1  0
 14 18  1  0
 15 16  1  0
 16 17  1  0
 18 19  1  1
 18 17  1  0
 19 20  1  0
 21 19  2  0
M  END
$$$$
