DAY.pdb
     RDKit          3D

 26 26  0  0  1  0  0  0  0  0999 V2000
   16.9598  -11.8628  -16.0339 N   0  0  0  0  0  0  0  0  0  0  0  0
   18.3515  -12.2230  -15.9880 C   0  0  1  0  0  0  0  0  0  0  0  0
   18.5769  -13.3702  -16.9797 C   0  0  0  0  0  0  0  0  0  0  0  0
   17.9470  -14.6119  -16.4657 C   0  0  0  0  0  0  0  0  0  0  0  0
   17.4113  -14.6539  -15.3454 O   0  0  0  0  0  0  0  0  0  0  0  0
   19.1811  -11.0795  -16.4625 C   0  0  0  0  0  0  0  0  0  0  0  0
   20.4269  -11.2147  -16.5655 O   0  0  0  0  0  0  0  0  0  0  0  0
   17.9647  -15.7417  -17.2645 O   0  0  0  0  0  0  0  0  0  0  0  0
   18.5556   -7.4932  -17.4253 C   0  0  0  0  0  0  0  0  0  0  0  0
   19.4417   -8.7014  -17.2101 C   0  0  2  0  0  0  0  0  0  0  0  0
   18.6217   -9.8269  -16.8083 N   0  0  0  0  0  0  0  0  0  0  0  0
   20.4949   -8.4071  -16.2089 C   0  0  0  0  0  0  0  0  0  0  0  0
   20.2568   -8.5173  -14.9804 O   0  0  0  0  0  0  0  0  0  0  0  0
   27.9148  -11.5878  -17.1590 O   0  0  0  0  0  0  0  0  0  0  0  0
   26.7567  -10.9915  -16.6538 C   0  0  0  0  0  0  0  0  0  0  0  0
   26.6499  -10.6503  -15.3216 C   0  0  0  0  0  0  0  0  0  0  0  0
   25.5117  -10.0614  -14.8122 C   0  0  0  0  0  0  0  0  0  0  0  0
   24.4194   -9.7842  -15.6169 C   0  0  0  0  0  0  0  0  0  0  0  0
   23.1889   -9.1512  -15.0803 C   0  0  0  0  0  0  0  0  0  0  0  0
   22.8990   -7.8041  -15.6960 C   0  0  2  0  0  0  0  0  0  0  0  0
   21.7835   -7.9983  -16.6105 N   0  0  0  0  0  0  0  0  0  0  0  0
   24.0522   -7.1815  -16.3591 C   0  0  0  0  0  0  0  0  0  0  0  0
   24.0756   -7.0391  -17.7363 O   0  0  0  0  0  0  0  0  0  0  0  0
   24.5313  -10.1279  -16.9514 C   0  0  0  0  0  0  0  0  0  0  0  0
   25.6706  -10.7167  -17.4587 C   0  0  0  0  0  0  0  0  0  0  0  0
   25.0692   -6.7480  -15.7358 O   0  0  0  0  0  0  0  0  0  0  0  0
  2  1  1  6
  2  3  1  0
  4  3  1  0
  4  8  1  0
  5  4  2  0
  6  2  1  0
  7  6  2  0
 10  9  1  1
 10 11  1  0
 11  6  1  0
 12 10  1  0
 12 21  1  0
 13 12  2  0
 15 14  1  0
 16 15  2  0
 17 16  1  0
 18 24  1  0
 18 17  2  0
 19 18  1  0
 20 21  1  0
 20 22  1  0
 20 19  1  6
 22 26  2  0
 22 23  1  0
 24 25  2  0
 25 15  1  0
M  END
$$$$
