DAY.pdb
     RDKit          3D

 26 26  0  0  1  0  0  0  0  0999 V2000
   18.1838  -14.8124  -16.0822 N   0  0  0  0  0  0  0  0  0  0  0  0
   18.0794  -13.5668  -16.7937 C   0  0  1  0  0  0  0  0  0  0  0  0
   17.2603  -12.5973  -15.9339 C   0  0  0  0  0  0  0  0  0  0  0  0
   15.8472  -13.0470  -15.8742 C   0  0  0  0  0  0  0  0  0  0  0  0
   15.1710  -12.9315  -14.8382 O   0  0  0  0  0  0  0  0  0  0  0  0
   19.4329  -12.9622  -16.9470 C   0  0  0  0  0  0  0  0  0  0  0  0
   20.0947  -12.6502  -15.9245 O   0  0  0  0  0  0  0  0  0  0  0  0
   15.2830  -13.6065  -17.0072 O   0  0  0  0  0  0  0  0  0  0  0  0
   21.8444  -12.3735  -19.7530 C   0  0  0  0  0  0  0  0  0  0  0  0
   21.3304  -12.1209  -18.3518 C   0  0  2  0  0  0  0  0  0  0  0  0
   20.0175  -12.7186  -18.2120 N   0  0  0  0  0  0  0  0  0  0  0  0
   21.3040  -10.6680  -18.0574 C   0  0  0  0  0  0  0  0  0  0  0  0
   20.2605   -9.9961  -18.2511 O   0  0  0  0  0  0  0  0  0  0  0  0
   24.1377   -2.7934  -14.9916 O   0  0  0  0  0  0  0  0  0  0  0  0
   23.9282   -4.1477  -15.2632 C   0  0  0  0  0  0  0  0  0  0  0  0
   22.8483   -4.8248  -14.7362 C   0  0  0  0  0  0  0  0  0  0  0  0
   22.6317   -6.1615  -14.9976 C   0  0  0  0  0  0  0  0  0  0  0  0
   23.4911   -6.8886  -15.8039 C   0  0  0  0  0  0  0  0  0  0  0  0
   23.2690   -8.3275  -16.0922 C   0  0  0  0  0  0  0  0  0  0  0  0
   22.5497   -8.5659  -17.3974 C   0  0  2  0  0  0  0  0  0  0  0  0
   22.4452  -10.0090  -17.5549 N   0  0  0  0  0  0  0  0  0  0  0  0
   23.1811   -7.9296  -18.5608 C   0  0  0  0  0  0  0  0  0  0  0  0
   22.7867   -6.6662  -18.9681 O   0  0  0  0  0  0  0  0  0  0  0  0
   24.5721   -6.2055  -16.3299 C   0  0  0  0  0  0  0  0  0  0  0  0
   24.7866   -4.8687  -16.0672 C   0  0  0  0  0  0  0  0  0  0  0  0
   24.0980   -8.4763  -19.2471 O   0  0  0  0  0  0  0  0  0  0  0  0
  2  1  1  1
  2  3  1  0
  4  3  1  0
  4  8  1  0
  5  4  2  0
  6  2  1  0
  7  6  2  0
 10  9  1  6
 10 11  1  0
 11  6  1  0
 12 10  1  0
 12 21  1  0
 13 12  2  0
 15 14  1  0
 16 15  2  0
 17 16  1  0
 18 24  1  0
 18 17  2  0
 19 18  1  0
 20 21  1  0
 20 22  1  0
 20 19  1  1
 22 26  2  0
 22 23  1  0
 24 25  2  0
 25 15  1  0
M  END
$$$$
