DAY.pdb
     RDKit          3D

 26 26  0  0  1  0  0  0  0  0999 V2000
   21.4101  -10.6058  -19.4442 N   0  0  0  0  0  0  0  0  0  0  0  0
   22.0899  -10.0892  -18.2868 C   0  0  1  0  0  0  0  0  0  0  0  0
   23.2137   -9.1654  -18.7705 C   0  0  0  0  0  0  0  0  0  0  0  0
   24.3446   -9.9754  -19.2878 C   0  0  0  0  0  0  0  0  0  0  0  0
   24.4571  -11.1829  -19.0172 O   0  0  0  0  0  0  0  0  0  0  0  0
   21.1547   -9.2436  -17.4922 C   0  0  0  0  0  0  0  0  0  0  0  0
   20.3347   -8.4968  -18.0844 O   0  0  0  0  0  0  0  0  0  0  0  0
   25.2883   -9.3574  -20.0892 O   0  0  0  0  0  0  0  0  0  0  0  0
   19.7457   -9.2992  -14.1117 C   0  0  0  0  0  0  0  0  0  0  0  0
   20.1763   -8.4850  -15.3129 C   0  0  2  0  0  0  0  0  0  0  0  0
   21.1471   -9.2423  -16.0775 N   0  0  0  0  0  0  0  0  0  0  0  0
   20.7184   -7.1718  -14.8887 C   0  0  0  0  0  0  0  0  0  0  0  0
   21.6845   -7.1082  -14.0884 O   0  0  0  0  0  0  0  0  0  0  0  0
   26.1978   -6.4216  -17.7557 O   0  0  0  0  0  0  0  0  0  0  0  0
   24.9818   -5.8396  -17.3889 C   0  0  0  0  0  0  0  0  0  0  0  0
   24.9039   -4.9420  -16.3445 C   0  0  0  0  0  0  0  0  0  0  0  0
   23.7091   -4.3615  -15.9738 C   0  0  0  0  0  0  0  0  0  0  0  0
   22.5281   -4.6536  -16.6351 C   0  0  0  0  0  0  0  0  0  0  0  0
   21.2361   -4.0358  -16.2452 C   0  0  0  0  0  0  0  0  0  0  0  0
   20.6407   -4.6444  -14.9990 C   0  0  2  0  0  0  0  0  0  0  0  0
   20.1643   -5.9681  -15.3717 N   0  0  0  0  0  0  0  0  0  0  0  0
   19.5855   -3.8351  -14.3756 C   0  0  0  0  0  0  0  0  0  0  0  0
   19.8929   -2.6258  -13.7749 O   0  0  0  0  0  0  0  0  0  0  0  0
   22.6112   -5.5536  -17.6813 C   0  0  0  0  0  0  0  0  0  0  0  0
   23.8072   -6.1329  -18.0503 C   0  0  0  0  0  0  0  0  0  0  0  0
   18.3640   -4.1783  -14.3461 O   0  0  0  0  0  0  0  0  0  0  0  0
  2  1  1  6
  2  3  1  0
  4  3  1  0
  4  8  1  0
  5  4  2  0
  6  2  1  0
  7  6  2  0
 10  9  1  1
 10 11  1  0
 11  6  1  0
 12 10  1  0
 12 21  1  0
 13 12  2  0
 15 14  1  0
 16 15  2  0
 17 16  1  0
 18 24  1  0
 18 17  2  0
 19 18  1  0
 20 21  1  0
 20 22  1  0
 20 19  1  6
 22 26  2  0
 22 23  1  0
 24 25  2  0
 25 15  1  0
M  END
$$$$
