DAY.pdb
     RDKit          3D

 26 26  0  0  1  0  0  0  0  0999 V2000
   19.5063  -11.8484  -18.1331 N   0  0  0  0  0  0  0  0  0  0  0  0
   18.6246  -11.1153  -17.2648 C   0  0  1  0  0  0  0  0  0  0  0  0
   18.6743  -11.7681  -15.8786 C   0  0  0  0  0  0  0  0  0  0  0  0
   18.0100  -13.0945  -15.9218 C   0  0  0  0  0  0  0  0  0  0  0  0
   16.9035  -13.2504  -16.4651 O   0  0  0  0  0  0  0  0  0  0  0  0
   19.1283   -9.7226  -17.0990 C   0  0  0  0  0  0  0  0  0  0  0  0
   20.3619   -9.5183  -16.9673 O   0  0  0  0  0  0  0  0  0  0  0  0
   18.6504  -14.1740  -15.3391 O   0  0  0  0  0  0  0  0  0  0  0  0
   17.6243   -6.2748  -17.1849 C   0  0  0  0  0  0  0  0  0  0  0  0
   18.7710   -7.2441  -16.9928 C   0  0  2  0  0  0  0  0  0  0  0  0
   18.2673   -8.6001  -17.0825 N   0  0  0  0  0  0  0  0  0  0  0  0
   19.4535   -6.9986  -15.6997 C   0  0  0  0  0  0  0  0  0  0  0  0
   19.1725   -7.6884  -14.6882 O   0  0  0  0  0  0  0  0  0  0  0  0
   26.1417   -6.2073  -18.4621 O   0  0  0  0  0  0  0  0  0  0  0  0
   25.1965   -6.3435  -17.4422 C   0  0  0  0  0  0  0  0  0  0  0  0
   24.3489   -7.4305  -17.3922 C   0  0  0  0  0  0  0  0  0  0  0  0
   23.4124   -7.5751  -16.3903 C   0  0  0  0  0  0  0  0  0  0  0  0
   23.2788   -6.6328  -15.3845 C   0  0  0  0  0  0  0  0  0  0  0  0
   22.2745   -6.7771  -14.3012 C   0  0  0  0  0  0  0  0  0  0  0  0
   21.1869   -5.7322  -14.3589 C   0  0  2  0  0  0  0  0  0  0  0  0
   20.4303   -5.9889  -15.5754 N   0  0  0  0  0  0  0  0  0  0  0  0
   21.6742   -4.3481  -14.2957 C   0  0  0  0  0  0  0  0  0  0  0  0
   22.2922   -3.8748  -13.1504 O   0  0  0  0  0  0  0  0  0  0  0  0
   24.1307   -5.5452  -15.4389 C   0  0  0  0  0  0  0  0  0  0  0  0
   25.0666   -5.4026  -16.4417 C   0  0  0  0  0  0  0  0  0  0  0  0
   21.5648   -3.5220  -15.2529 O   0  0  0  0  0  0  0  0  0  0  0  0
  2  1  1  6
  2  3  1  0
  4  3  1  0
  4  8  1  0
  5  4  2  0
  6  2  1  0
  7  6  2  0
 10  9  1  1
 10 11  1  0
 11  6  1  0
 12 10  1  0
 12 21  1  0
 13 12  2  0
 15 14  1  0
 16 15  2  0
 17 16  1  0
 18 24  1  0
 18 17  2  0
 19 18  1  0
 20 21  1  0
 20 22  1  0
 20 19  1  6
 22 26  2  0
 22 23  1  0
 24 25  2  0
 25 15  1  0
M  END
$$$$
