DAY.pdb
     RDKit          3D

 26 26  0  0  1  0  0  0  0  0999 V2000
   20.2847  -11.1945  -18.1888 N   0  0  0  0  0  0  0  0  0  0  0  0
   20.3208  -11.0625  -16.7570 C   0  0  1  0  0  0  0  0  0  0  0  0
   20.6310  -12.4409  -16.1619 C   0  0  0  0  0  0  0  0  0  0  0  0
   19.4399  -13.3189  -16.2763 C   0  0  0  0  0  0  0  0  0  0  0  0
   18.3174  -12.8604  -16.5475 O   0  0  0  0  0  0  0  0  0  0  0  0
   21.4444  -10.1656  -16.3646 C   0  0  0  0  0  0  0  0  0  0  0  0
   21.6401   -9.9080  -15.1496 O   0  0  0  0  0  0  0  0  0  0  0  0
   19.5989  -14.6785  -16.0733 O   0  0  0  0  0  0  0  0  0  0  0  0
   24.5261   -8.8466  -17.9522 C   0  0  0  0  0  0  0  0  0  0  0  0
   23.4245   -8.7330  -16.9202 C   0  0  2  0  0  0  0  0  0  0  0  0
   22.3161   -9.5803  -17.3127 N   0  0  0  0  0  0  0  0  0  0  0  0
   23.0027   -7.3210  -16.7574 C   0  0  0  0  0  0  0  0  0  0  0  0
   23.7930   -6.4695  -16.2797 O   0  0  0  0  0  0  0  0  0  0  0  0
   19.0209    0.2894  -18.7310 O   0  0  0  0  0  0  0  0  0  0  0  0
   19.5297   -1.0100  -18.6627 C   0  0  0  0  0  0  0  0  0  0  0  0
   20.8340   -1.2491  -18.2831 C   0  0  0  0  0  0  0  0  0  0  0  0
   21.3468   -2.5273  -18.2122 C   0  0  0  0  0  0  0  0  0  0  0  0
   20.5735   -3.6341  -18.5198 C   0  0  0  0  0  0  0  0  0  0  0  0
   21.1140   -5.0145  -18.4478 C   0  0  0  0  0  0  0  0  0  0  0  0
   21.2361   -5.5298  -17.0344 C   0  0  2  0  0  0  0  0  0  0  0  0
   21.7095   -6.9024  -17.1337 N   0  0  0  0  0  0  0  0  0  0  0  0
   20.0014   -5.4291  -16.2454 C   0  0  0  0  0  0  0  0  0  0  0  0
   19.5900   -4.2068  -15.7412 O   0  0  0  0  0  0  0  0  0  0  0  0
   19.2668   -3.3894  -18.8996 C   0  0  0  0  0  0  0  0  0  0  0  0
   18.7562   -2.1102  -18.9697 C   0  0  0  0  0  0  0  0  0  0  0  0
   19.2552   -6.4213  -15.9816 O   0  0  0  0  0  0  0  0  0  0  0  0
  2  1  1  6
  2  3  1  0
  4  3  1  0
  4  8  1  0
  5  4  2  0
  6  2  1  0
  7  6  2  0
 10  9  1  6
 10 11  1  0
 11  6  1  0
 12 10  1  0
 12 21  1  0
 13 12  2  0
 15 14  1  0
 16 15  2  0
 17 16  1  0
 18 24  1  0
 18 17  2  0
 19 18  1  0
 20 21  1  0
 20 22  1  0
 20 19  1  6
 22 26  2  0
 22 23  1  0
 24 25  2  0
 25 15  1  0
M  END
$$$$
