DAY.pdb
     RDKit          3D

 26 26  0  0  1  0  0  0  0  0999 V2000
   26.6098  -18.3021  -15.5576 N   0  0  0  0  0  0  0  0  0  0  0  0
   25.9161  -19.5321  -15.8308 C   0  0  1  0  0  0  0  0  0  0  0  0
   26.3359  -20.0133  -17.2245 C   0  0  0  0  0  0  0  0  0  0  0  0
   25.7803  -19.1063  -18.2595 C   0  0  0  0  0  0  0  0  0  0  0  0
   25.1833  -18.0600  -17.9550 O   0  0  0  0  0  0  0  0  0  0  0  0
   26.3558  -20.5802  -14.8670 C   0  0  0  0  0  0  0  0  0  0  0  0
   25.9683  -21.7667  -15.0180 O   0  0  0  0  0  0  0  0  0  0  0  0
   25.9387  -19.4472  -19.5913 O   0  0  0  0  0  0  0  0  0  0  0  0
   28.8922  -20.9237  -12.1621 C   0  0  0  0  0  0  0  0  0  0  0  0
   27.5758  -21.3089  -12.8024 C   0  0  2  0  0  0  0  0  0  0  0  0
   27.2039  -20.2967  -13.7707 N   0  0  0  0  0  0  0  0  0  0  0  0
   26.5257  -21.4919  -11.7719 C   0  0  0  0  0  0  0  0  0  0  0  0
   26.5998  -22.4347  -10.9451 O   0  0  0  0  0  0  0  0  0  0  0  0
   28.1088  -20.3727   -5.5616 O   0  0  0  0  0  0  0  0  0  0  0  0
   27.1966  -20.1826   -6.6027 C   0  0  0  0  0  0  0  0  0  0  0  0
   26.3515  -21.1945   -7.0077 C   0  0  0  0  0  0  0  0  0  0  0  0
   25.4474  -21.0180   -8.0340 C   0  0  0  0  0  0  0  0  0  0  0  0
   25.3454  -19.8126   -8.7079 C   0  0  0  0  0  0  0  0  0  0  0  0
   24.3769  -19.6106   -9.8142 C   0  0  0  0  0  0  0  0  0  0  0  0
   24.3145  -20.7790  -10.7675 C   0  0  2  0  0  0  0  0  0  0  0  0
   25.4234  -20.6154  -11.6959 N   0  0  0  0  0  0  0  0  0  0  0  0
   23.0298  -20.9228  -11.4646 C   0  0  0  0  0  0  0  0  0  0  0  0
   21.8736  -21.1958  -10.7531 O   0  0  0  0  0  0  0  0  0  0  0  0
   26.1945  -18.8013   -8.2982 C   0  0  0  0  0  0  0  0  0  0  0  0
   27.0979  -18.9801   -7.2715 C   0  0  0  0  0  0  0  0  0  0  0  0
   22.8981  -20.8109  -12.7219 O   0  0  0  0  0  0  0  0  0  0  0  0
  2  1  1  1
  2  3  1  0
  4  3  1  0
  4  8  1  0
  5  4  2  0
  6  2  1  0
  7  6  2  0
 10  9  1  1
 10 11  1  0
 11  6  1  0
 12 10  1  0
 12 21  1  0
 13 12  2  0
 15 14  1  0
 16 15  2  0
 17 16  1  0
 18 24  1  0
 18 17  2  0
 19 18  1  0
 20 21  1  0
 20 22  1  0
 20 19  1  1
 22 26  2  0
 22 23  1  0
 24 25  2  0
 25 15  1  0
M  END
$$$$
