KTE.pdb
     RDKit          3D

 26 25  0  0  1  0  0  0  0  0999 V2000
   11.8084  -14.6456   17.7292 N   0  0  0  0  0  0  0  0  0  0  0  0
   12.4265  -15.1586   18.8969 C   0  0  1  0  0  0  0  0  0  0  0  0
   13.4941  -14.2509   19.4287 C   0  0  0  0  0  0  0  0  0  0  0  0
   14.8717  -14.5332   18.9741 C   0  0  0  0  0  0  0  0  0  0  0  0
   15.9692  -13.6451   19.4632 C   0  0  0  0  0  0  0  0  0  0  0  0
   17.3179  -13.9074   18.8734 C   0  0  0  0  0  0  0  0  0  0  0  0
   18.3939  -13.1080   19.3560 N   0  0  0  0  0  0  0  0  0  0  0  0
   11.4905  -15.4540   20.0177 C   0  0  0  0  0  0  0  0  0  0  0  0
   10.4390  -14.7683   20.1085 O   0  0  0  0  0  0  0  0  0  0  0  0
    9.3703  -18.4461   20.7292 C   0  0  0  0  0  0  0  0  0  0  0  0
   10.2102  -18.1747   21.9646 C   0  0  1  0  0  0  0  0  0  0  0  0
   11.2604  -19.0844   22.0782 O   0  0  0  0  0  0  0  0  0  0  0  0
   10.6987  -16.7406   22.0107 C   0  0  2  0  0  0  0  0  0  0  0  0
   11.6697  -16.4448   21.0043 N   0  0  0  0  0  0  0  0  0  0  0  0
   11.3086  -16.5382   23.3454 C   0  0  0  0  0  0  0  0  0  0  0  0
   12.5597  -16.5716   23.4378 O   0  0  0  0  0  0  0  0  0  0  0  0
   10.5832  -16.3101   24.5220 N   0  0  0  0  0  0  0  0  0  0  0  0
   11.1982  -16.1591   25.8553 C   0  0  1  0  0  0  0  0  0  0  0  0
   10.3510  -15.3284   26.7443 C   0  0  0  0  0  0  0  0  0  0  0  0
   10.9264  -15.2404   28.1208 C   0  0  0  0  0  0  0  0  0  0  0  0
   10.1045  -14.3538   29.0045 C   0  0  0  0  0  0  0  0  0  0  0  0
    9.0329  -13.9027   28.5472 O   0  0  0  0  0  0  0  0  0  0  0  0
   11.4329  -17.5182   26.3721 C   0  0  0  0  0  0  0  0  0  0  0  0
   12.5772  -17.7721   27.1220 O   0  0  0  0  0  0  0  0  0  0  0  0
   10.4909  -14.0267   30.2875 O   0  0  0  0  0  0  0  0  0  0  0  0
   10.6727  -18.4990   26.1931 O   0  0  0  0  0  0  0  0  0  0  0  0
  2  1  1  6
  3  2  1  0
  3  4  1  0
  5  4  1  0
  5  6  1  0
  7  6  1  0
  8  9  2  0
  8  2  1  0
 11 10  1  6
 11 13  1  0
 12 11  1  0
 13 14  1  6
 14  8  1  0
 15 17  1  0
 15 13  1  0
 16 15  2  0
 18 19  1  1
 18 17  1  0
 19 20  1  0
 20 21  1  0
 21 25  1  0
 22 21  2  0
 23 18  1  0
 24 23  1  0
 26 23  2  0
M  END
$$$$
