KTE.pdb
     RDKit          3D

 26 25  0  0  1  0  0  0  0  0999 V2000
    7.2608  -17.5727   17.6795 N   0  0  0  0  0  0  0  0  0  0  0  0
    8.6603  -17.5630   17.9032 C   0  0  1  0  0  0  0  0  0  0  0  0
    9.4415  -17.3107   16.6493 C   0  0  0  0  0  0  0  0  0  0  0  0
    9.9357  -18.5095   15.9402 C   0  0  0  0  0  0  0  0  0  0  0  0
    9.8855  -18.5136   14.4469 C   0  0  0  0  0  0  0  0  0  0  0  0
   10.5294  -19.6904   13.7864 C   0  0  0  0  0  0  0  0  0  0  0  0
   11.9141  -19.8949   14.0518 N   0  0  0  0  0  0  0  0  0  0  0  0
    9.1205  -16.5794   18.9232 C   0  0  0  0  0  0  0  0  0  0  0  0
    9.3221  -15.3931   18.5544 O   0  0  0  0  0  0  0  0  0  0  0  0
    7.6063  -14.4706   20.9019 C   0  0  0  0  0  0  0  0  0  0  0  0
    8.4620  -15.2281   21.9016 C   0  0  1  0  0  0  0  0  0  0  0  0
    7.7142  -16.1743   22.6006 O   0  0  0  0  0  0  0  0  0  0  0  0
    9.6819  -15.8448   21.2469 C   0  0  2  0  0  0  0  0  0  0  0  0
    9.3559  -16.8517   20.2862 N   0  0  0  0  0  0  0  0  0  0  0  0
   10.4884  -16.4533   22.3304 C   0  0  0  0  0  0  0  0  0  0  0  0
   10.1180  -17.5574   22.7978 O   0  0  0  0  0  0  0  0  0  0  0  0
   11.6448  -15.8800   22.8753 N   0  0  0  0  0  0  0  0  0  0  0  0
   12.4611  -16.5116   23.9304 C   0  0  1  0  0  0  0  0  0  0  0  0
   13.8555  -16.0085   23.9011 C   0  0  0  0  0  0  0  0  0  0  0  0
   14.4823  -16.2152   22.5602 C   0  0  0  0  0  0  0  0  0  0  0  0
   15.8527  -15.6147   22.4956 C   0  0  0  0  0  0  0  0  0  0  0  0
   16.2832  -15.0282   23.5113 O   0  0  0  0  0  0  0  0  0  0  0  0
   11.7741  -16.2590   25.2085 C   0  0  0  0  0  0  0  0  0  0  0  0
   10.7273  -15.3432   25.2482 O   0  0  0  0  0  0  0  0  0  0  0  0
   16.6395  -15.6897   21.3653 O   0  0  0  0  0  0  0  0  0  0  0  0
   12.0543  -16.8104   26.2991 O   0  0  0  0  0  0  0  0  0  0  0  0
  2  1  1  6
  3  2  1  0
  3  4  1  0
  5  4  1  0
  5  6  1  0
  7  6  1  0
  8  9  2  0
  8  2  1  0
 11 10  1  6
 11 13  1  0
 12 11  1  0
 13 14  1  6
 14  8  1  0
 15 17  1  0
 15 13  1  0
 16 15  2  0
 18 19  1  1
 18 17  1  0
 19 20  1  0
 20 21  1  0
 21 25  1  0
 22 21  2  0
 23 18  1  0
 24 23  1  0
 26 23  2  0
M  END
$$$$
