KTE.pdb
     RDKit          3D

 26 25  0  0  1  0  0  0  0  0999 V2000
    7.4755  -14.1257   15.7980 N   0  0  0  0  0  0  0  0  0  0  0  0
    8.3159  -14.9996   16.5320 C   0  0  1  0  0  0  0  0  0  0  0  0
    9.5722  -15.3461   15.7918 C   0  0  0  0  0  0  0  0  0  0  0  0
    9.9388  -16.7777   15.7700 C   0  0  0  0  0  0  0  0  0  0  0  0
   11.1235  -17.1876   14.9571 C   0  0  0  0  0  0  0  0  0  0  0  0
   11.4813  -18.6376   15.0302 C   0  0  0  0  0  0  0  0  0  0  0  0
   12.5480  -19.0766   14.1942 N   0  0  0  0  0  0  0  0  0  0  0  0
    8.7127  -14.4970   17.8772 C   0  0  0  0  0  0  0  0  0  0  0  0
    9.3421  -13.4090   17.9418 O   0  0  0  0  0  0  0  0  0  0  0  0
    7.0966  -12.8587   20.6008 C   0  0  0  0  0  0  0  0  0  0  0  0
    7.7377  -14.0889   21.2181 C   0  0  1  0  0  0  0  0  0  0  0  0
    6.7917  -15.0764   21.4888 O   0  0  0  0  0  0  0  0  0  0  0  0
    8.8773  -14.6169   20.3698 C   0  0  2  0  0  0  0  0  0  0  0  0
    8.4470  -15.1316   19.1076 N   0  0  0  0  0  0  0  0  0  0  0  0
    9.5184  -15.7059   21.1429 C   0  0  0  0  0  0  0  0  0  0  0  0
    9.1922  -16.8896   20.8837 O   0  0  0  0  0  0  0  0  0  0  0  0
   10.4708  -15.5077   22.1510 N   0  0  0  0  0  0  0  0  0  0  0  0
   11.0244  -16.5897   22.9884 C   0  0  1  0  0  0  0  0  0  0  0  0
   12.4224  -16.9010   22.6052 C   0  0  0  0  0  0  0  0  0  0  0  0
   13.3137  -15.7142   22.7808 C   0  0  0  0  0  0  0  0  0  0  0  0
   14.7275  -16.0274   22.3992 C   0  0  0  0  0  0  0  0  0  0  0  0
   15.4058  -16.7223   23.1853 O   0  0  0  0  0  0  0  0  0  0  0  0
   10.8835  -16.1581   24.3895 C   0  0  0  0  0  0  0  0  0  0  0  0
   11.2271  -17.0393   25.4101 O   0  0  0  0  0  0  0  0  0  0  0  0
   15.2923  -15.5776   21.2240 O   0  0  0  0  0  0  0  0  0  0  0  0
   10.4692  -15.0341   24.7597 O   0  0  0  0  0  0  0  0  0  0  0  0
  2  1  1  6
  3  2  1  0
  3  4  1  0
  5  4  1  0
  5  6  1  0
  7  6  1  0
  8  9  2  0
  8  2  1  0
 11 10  1  6
 11 13  1  0
 12 11  1  0
 13 14  1  6
 14  8  1  0
 15 17  1  0
 15 13  1  0
 16 15  2  0
 18 19  1  6
 18 17  1  0
 19 20  1  0
 20 21  1  0
 21 25  1  0
 22 21  2  0
 23 18  1  0
 24 23  1  0
 26 23  2  0
M  END
$$$$
