KTE.pdb
     RDKit          3D

 26 25  0  0  1  0  0  0  0  0999 V2000
    7.3115  -17.8437   16.7480 N   0  0  0  0  0  0  0  0  0  0  0  0
    7.0199  -17.4985   18.0914 C   0  0  1  0  0  0  0  0  0  0  0  0
    6.7524  -18.6985   18.9485 C   0  0  0  0  0  0  0  0  0  0  0  0
    5.8542  -19.7208   18.3718 C   0  0  0  0  0  0  0  0  0  0  0  0
    6.3299  -21.1368   18.3394 C   0  0  0  0  0  0  0  0  0  0  0  0
    5.3740  -22.1215   17.7459 C   0  0  0  0  0  0  0  0  0  0  0  0
    4.0190  -21.7005   17.6174 N   0  0  0  0  0  0  0  0  0  0  0  0
    8.0724  -16.6901   18.7684 C   0  0  0  0  0  0  0  0  0  0  0  0
    9.2642  -16.8315   18.3895 O   0  0  0  0  0  0  0  0  0  0  0  0
    7.8605  -12.7707   19.9112 C   0  0  0  0  0  0  0  0  0  0  0  0
    8.4294  -13.6810   20.9850 C   0  0  1  0  0  0  0  0  0  0  0  0
    7.5244  -13.8674   22.0288 O   0  0  0  0  0  0  0  0  0  0  0  0
    8.9080  -14.9997   20.4112 C   0  0  2  0  0  0  0  0  0  0  0  0
    7.8606  -15.7648   19.8106 N   0  0  0  0  0  0  0  0  0  0  0  0
    9.4870  -15.7715   21.5353 C   0  0  0  0  0  0  0  0  0  0  0  0
    8.8351  -16.7448   21.9853 O   0  0  0  0  0  0  0  0  0  0  0  0
   10.7204  -15.4906   22.1374 N   0  0  0  0  0  0  0  0  0  0  0  0
   11.3709  -16.3639   23.1338 C   0  0  1  0  0  0  0  0  0  0  0  0
   11.6048  -17.7209   22.5842 C   0  0  0  0  0  0  0  0  0  0  0  0
   12.2571  -18.6126   23.5907 C   0  0  0  0  0  0  0  0  0  0  0  0
   12.5962  -19.9480   23.0041 C   0  0  0  0  0  0  0  0  0  0  0  0
   11.6716  -20.7758   22.8596 O   0  0  0  0  0  0  0  0  0  0  0  0
   12.6064  -15.6819   23.5555 C   0  0  0  0  0  0  0  0  0  0  0  0
   13.2619  -16.1121   24.7050 O   0  0  0  0  0  0  0  0  0  0  0  0
   13.8792  -20.2841   22.6252 O   0  0  0  0  0  0  0  0  0  0  0  0
   13.1391  -14.7186   22.9554 O   0  0  0  0  0  0  0  0  0  0  0  0
  2  1  1  6
  3  2  1  0
  3  4  1  0
  5  4  1  0
  5  6  1  0
  7  6  1  0
  8  9  2  0
  8  2  1  0
 11 10  1  6
 11 13  1  0
 12 11  1  0
 13 14  1  1
 14  8  1  0
 15 17  1  0
 15 13  1  0
 16 15  2  0
 18 19  1  6
 18 17  1  0
 19 20  1  0
 20 21  1  0
 21 25  1  0
 22 21  2  0
 23 18  1  0
 24 23  1  0
 26 23  2  0
M  END
$$$$
