KTE.pdb
     RDKit          3D

 26 25  0  0  1  0  0  0  0  0999 V2000
    9.4086  -18.0850   15.6858 N   0  0  0  0  0  0  0  0  0  0  0  0
    8.5088  -17.9692   16.7748 C   0  0  1  0  0  0  0  0  0  0  0  0
    8.3009  -19.2699   17.4899 C   0  0  0  0  0  0  0  0  0  0  0  0
    8.7067  -20.4864   16.7554 C   0  0  0  0  0  0  0  0  0  0  0  0
    8.4247  -21.8130   17.3824 C   0  0  0  0  0  0  0  0  0  0  0  0
    8.8632  -23.0032   16.5906 C   0  0  0  0  0  0  0  0  0  0  0  0
    8.2747  -23.1679   15.3036 N   0  0  0  0  0  0  0  0  0  0  0  0
    8.8940  -16.9539   17.7948 C   0  0  0  0  0  0  0  0  0  0  0  0
   10.1146  -16.8278   18.0745 O   0  0  0  0  0  0  0  0  0  0  0  0
    7.8923  -12.9639   20.6169 C   0  0  0  0  0  0  0  0  0  0  0  0
    7.4237  -13.9912   19.6018 C   0  0  1  0  0  0  0  0  0  0  0  0
    7.0738  -13.3920   18.3928 O   0  0  0  0  0  0  0  0  0  0  0  0
    8.4407  -15.0984   19.4091 C   0  0  2  0  0  0  0  0  0  0  0  0
    8.0094  -16.1043   18.4897 N   0  0  0  0  0  0  0  0  0  0  0  0
    8.6568  -15.7179   20.7373 C   0  0  0  0  0  0  0  0  0  0  0  0
    7.9289  -16.6856   21.0666 O   0  0  0  0  0  0  0  0  0  0  0  0
    9.6236  -15.2978   21.6600 N   0  0  0  0  0  0  0  0  0  0  0  0
   10.0665  -16.1017   22.8159 C   0  0  1  0  0  0  0  0  0  0  0  0
   11.1811  -17.0057   22.4433 C   0  0  0  0  0  0  0  0  0  0  0  0
   11.6438  -17.8126   23.6130 C   0  0  0  0  0  0  0  0  0  0  0  0
   12.7431  -18.7549   23.2304 C   0  0  0  0  0  0  0  0  0  0  0  0
   13.2495  -19.4595   24.1293 O   0  0  0  0  0  0  0  0  0  0  0  0
   10.4155  -15.1521   23.8862 C   0  0  0  0  0  0  0  0  0  0  0  0
   10.4429  -15.5945   25.2052 O   0  0  0  0  0  0  0  0  0  0  0  0
   13.2044  -18.8648   21.9352 O   0  0  0  0  0  0  0  0  0  0  0  0
   10.6993  -13.9431   23.7134 O   0  0  0  0  0  0  0  0  0  0  0  0
  2  1  1  6
  3  2  1  0
  3  4  1  0
  5  4  1  0
  5  6  1  0
  7  6  1  0
  8  9  2  0
  8  2  1  0
 11 10  1  1
 11 13  1  0
 12 11  1  0
 13 14  1  6
 14  8  1  0
 15 17  1  0
 15 13  1  0
 16 15  2  0
 18 19  1  6
 18 17  1  0
 19 20  1  0
 20 21  1  0
 21 25  1  0
 22 21  2  0
 23 18  1  0
 24 23  1  0
 26 23  2  0
M  END
$$$$
