KTE.pdb
     RDKit          3D

 26 25  0  0  1  0  0  0  0  0999 V2000
    7.8091  -17.4968   16.6026 N   0  0  0  0  0  0  0  0  0  0  0  0
    7.9722  -17.9177   17.9461 C   0  0  1  0  0  0  0  0  0  0  0  0
    8.7170  -19.2136   18.0564 C   0  0  0  0  0  0  0  0  0  0  0  0
    8.0594  -20.3933   17.4562 C   0  0  0  0  0  0  0  0  0  0  0  0
    8.7572  -21.7111   17.5509 C   0  0  0  0  0  0  0  0  0  0  0  0
    8.1061  -22.8365   16.8124 C   0  0  0  0  0  0  0  0  0  0  0  0
    8.6919  -24.1261   16.9653 N   0  0  0  0  0  0  0  0  0  0  0  0
    8.6564  -16.9313   18.8284 C   0  0  0  0  0  0  0  0  0  0  0  0
    9.6240  -16.2817   18.3531 O   0  0  0  0  0  0  0  0  0  0  0  0
    7.3014  -13.7904   20.6333 C   0  0  0  0  0  0  0  0  0  0  0  0
    8.0007  -14.6976   21.6300 C   0  0  1  0  0  0  0  0  0  0  0  0
    7.0849  -15.3805   22.4290 O   0  0  0  0  0  0  0  0  0  0  0  0
    8.9699  -15.6430   20.9488 C   0  0  2  0  0  0  0  0  0  0  0  0
    8.3199  -16.6482   20.1677 N   0  0  0  0  0  0  0  0  0  0  0  0
    9.7560  -16.2968   22.0208 C   0  0  0  0  0  0  0  0  0  0  0  0
    9.4152  -17.4468   22.3898 O   0  0  0  0  0  0  0  0  0  0  0  0
   10.8619  -15.7188   22.6577 N   0  0  0  0  0  0  0  0  0  0  0  0
   11.6324  -16.3752   23.7320 C   0  0  1  0  0  0  0  0  0  0  0  0
   13.0413  -15.9137   23.7385 C   0  0  0  0  0  0  0  0  0  0  0  0
   13.7671  -16.3586   22.5102 C   0  0  0  0  0  0  0  0  0  0  0  0
   15.1895  -15.8903   22.5122 C   0  0  0  0  0  0  0  0  0  0  0  0
   15.5846  -15.2227   23.4916 O   0  0  0  0  0  0  0  0  0  0  0  0
   10.9213  -16.1033   24.9929 C   0  0  0  0  0  0  0  0  0  0  0  0
   11.3079  -16.7734   26.1495 O   0  0  0  0  0  0  0  0  0  0  0  0
   16.0610  -16.1707   21.4806 O   0  0  0  0  0  0  0  0  0  0  0  0
    9.9692  -15.2982   25.1248 O   0  0  0  0  0  0  0  0  0  0  0  0
  2  1  1  6
  3  2  1  0
  3  4  1  0
  5  4  1  0
  5  6  1  0
  7  6  1  0
  8  9  2  0
  8  2  1  0
 11 10  1  6
 11 13  1  0
 12 11  1  0
 13 14  1  1
 14  8  1  0
 15 17  1  0
 15 13  1  0
 16 15  2  0
 18 19  1  1
 18 17  1  0
 19 20  1  0
 20 21  1  0
 21 25  1  0
 22 21  2  0
 23 18  1  0
 24 23  1  0
 26 23  2  0
M  END
$$$$
