KTE.pdb
     RDKit          3D

 26 25  0  0  1  0  0  0  0  0999 V2000
    5.5837  -17.8891   20.4084 N   0  0  0  0  0  0  0  0  0  0  0  0
    6.7569  -17.1870   20.0349 C   0  0  1  0  0  0  0  0  0  0  0  0
    6.6454  -15.7118   20.2749 C   0  0  0  0  0  0  0  0  0  0  0  0
    7.7566  -14.8847   19.7598 C   0  0  0  0  0  0  0  0  0  0  0  0
    7.6470  -13.4003   19.8901 C   0  0  0  0  0  0  0  0  0  0  0  0
    8.7360  -12.6161   19.2307 C   0  0  0  0  0  0  0  0  0  0  0  0
    8.5982  -11.1981   19.2383 N   0  0  0  0  0  0  0  0  0  0  0  0
    8.0025  -17.6568   20.7037 C   0  0  0  0  0  0  0  0  0  0  0  0
    7.9247  -18.0408   21.8998 O   0  0  0  0  0  0  0  0  0  0  0  0
   10.6470  -20.1641   18.9468 C   0  0  0  0  0  0  0  0  0  0  0  0
   11.3197  -19.0258   19.6932 C   0  0  1  0  0  0  0  0  0  0  0  0
   11.8478  -18.0807   18.8151 O   0  0  0  0  0  0  0  0  0  0  0  0
   10.3924  -18.3933   20.7117 C   0  0  2  0  0  0  0  0  0  0  0  0
    9.2832  -17.7153   20.1176 N   0  0  0  0  0  0  0  0  0  0  0  0
   11.2006  -17.4177   21.4796 C   0  0  0  0  0  0  0  0  0  0  0  0
   11.1595  -16.2115   21.1356 O   0  0  0  0  0  0  0  0  0  0  0  0
   12.0143  -17.7474   22.5713 N   0  0  0  0  0  0  0  0  0  0  0  0
   12.7659  -16.7590   23.3692 C   0  0  1  0  0  0  0  0  0  0  0  0
   12.9822  -17.2426   24.7540 C   0  0  0  0  0  0  0  0  0  0  0  0
   11.6856  -17.4704   25.4615 C   0  0  0  0  0  0  0  0  0  0  0  0
   11.8973  -18.0683   26.8181 C   0  0  0  0  0  0  0  0  0  0  0  0
   13.0664  -18.3473   27.1589 O   0  0  0  0  0  0  0  0  0  0  0  0
   14.0174  -16.4876   22.6415 C   0  0  0  0  0  0  0  0  0  0  0  0
   14.8290  -15.4353   23.0539 O   0  0  0  0  0  0  0  0  0  0  0  0
   10.8551  -18.3154   27.6871 O   0  0  0  0  0  0  0  0  0  0  0  0
   14.4323  -17.1378   21.6531 O   0  0  0  0  0  0  0  0  0  0  0  0
  2  1  1  1
  3  2  1  0
  3  4  1  0
  5  4  1  0
  5  6  1  0
  7  6  1  0
  8  9  2  0
  8  2  1  0
 11 10  1  6
 11 13  1  0
 12 11  1  0
 13 14  1  6
 14  8  1  0
 15 17  1  0
 15 13  1  0
 16 15  2  0
 18 19  1  1
 18 17  1  0
 19 20  1  0
 20 21  1  0
 21 25  1  0
 22 21  2  0
 23 18  1  0
 24 23  1  0
 26 23  2  0
M  END
$$$$
