KTE.pdb
     RDKit          3D

 26 25  0  0  1  0  0  0  0  0999 V2000
    7.8129  -16.8409   15.5581 N   0  0  0  0  0  0  0  0  0  0  0  0
    7.2523  -16.7618   16.8574 C   0  0  1  0  0  0  0  0  0  0  0  0
    6.7808  -18.0918   17.3624 C   0  0  0  0  0  0  0  0  0  0  0  0
    7.8002  -19.1599   17.4275 C   0  0  0  0  0  0  0  0  0  0  0  0
    7.3407  -20.5541   17.7058 C   0  0  0  0  0  0  0  0  0  0  0  0
    8.4261  -21.5756   17.8257 C   0  0  0  0  0  0  0  0  0  0  0  0
    8.0296  -22.8886   18.2111 N   0  0  0  0  0  0  0  0  0  0  0  0
    8.1571  -16.1854   17.8913 C   0  0  0  0  0  0  0  0  0  0  0  0
    9.3811  -16.0822   17.6171 O   0  0  0  0  0  0  0  0  0  0  0  0
    7.6011  -12.7500   19.8181 C   0  0  0  0  0  0  0  0  0  0  0  0
    7.9575  -13.8780   20.7699 C   0  0  1  0  0  0  0  0  0  0  0  0
    6.8456  -14.3063   21.4935 O   0  0  0  0  0  0  0  0  0  0  0  0
    8.6407  -15.0258   20.0536 C   0  0  2  0  0  0  0  0  0  0  0  0
    7.7697  -15.7352   19.1697 N   0  0  0  0  0  0  0  0  0  0  0  0
    9.1287  -15.9543   21.0998 C   0  0  0  0  0  0  0  0  0  0  0  0
    8.3504  -16.8494   21.5092 O   0  0  0  0  0  0  0  0  0  0  0  0
   10.4075  -15.9044   21.6698 N   0  0  0  0  0  0  0  0  0  0  0  0
   10.8983  -16.8603   22.6817 C   0  0  1  0  0  0  0  0  0  0  0  0
   11.8132  -17.8576   22.0762 C   0  0  0  0  0  0  0  0  0  0  0  0
   11.0572  -19.0015   21.4816 C   0  0  0  0  0  0  0  0  0  0  0  0
   11.9789  -20.0093   20.8671 C   0  0  0  0  0  0  0  0  0  0  0  0
   13.1938  -19.7262   20.7985 O   0  0  0  0  0  0  0  0  0  0  0  0
   11.5248  -16.0641   23.7508 C   0  0  0  0  0  0  0  0  0  0  0  0
   11.6696  -14.6908   23.5796 O   0  0  0  0  0  0  0  0  0  0  0  0
   11.5315  -21.2209   20.3829 O   0  0  0  0  0  0  0  0  0  0  0  0
   11.9534  -16.5238   24.8356 O   0  0  0  0  0  0  0  0  0  0  0  0
  2  1  1  6
  3  2  1  0
  3  4  1  0
  5  4  1  0
  5  6  1  0
  7  6  1  0
  8  9  2  0
  8  2  1  0
 11 10  1  6
 11 13  1  0
 12 11  1  0
 13 14  1  6
 14  8  1  0
 15 17  1  0
 15 13  1  0
 16 15  2  0
 18 19  1  6
 18 17  1  0
 19 20  1  0
 20 21  1  0
 21 25  1  0
 22 21  2  0
 23 18  1  0
 24 23  1  0
 26 23  2  0
M  END
$$$$
