KTE.pdb
     RDKit          3D

 26 25  0  0  1  0  0  0  0  0999 V2000
    6.4111  -18.5641   18.1233 N   0  0  0  0  0  0  0  0  0  0  0  0
    6.5028  -18.0248   19.4308 C   0  0  1  0  0  0  0  0  0  0  0  0
    6.5611  -19.0857   20.4878 C   0  0  0  0  0  0  0  0  0  0  0  0
    5.4310  -20.0378   20.5147 C   0  0  0  0  0  0  0  0  0  0  0  0
    4.0673  -19.5194   20.1924 C   0  0  0  0  0  0  0  0  0  0  0  0
    2.9693  -20.5336   20.2322 C   0  0  0  0  0  0  0  0  0  0  0  0
    2.8409  -21.2910   21.4320 N   0  0  0  0  0  0  0  0  0  0  0  0
    7.6606  -17.1124   19.6476 C   0  0  0  0  0  0  0  0  0  0  0  0
    8.7897  -17.4773   19.2282 O   0  0  0  0  0  0  0  0  0  0  0  0
    7.6791  -13.1567   19.0094 C   0  0  0  0  0  0  0  0  0  0  0  0
    8.3536  -13.5125   20.3224 C   0  0  1  0  0  0  0  0  0  0  0  0
    7.5742  -13.1367   21.4153 O   0  0  0  0  0  0  0  0  0  0  0  0
    8.7374  -14.9776   20.3804 C   0  0  2  0  0  0  0  0  0  0  0  0
    7.6145  -15.8572   20.2874 N   0  0  0  0  0  0  0  0  0  0  0  0
    9.4135  -15.1924   21.6810 C   0  0  0  0  0  0  0  0  0  0  0  0
    8.7020  -15.3058   22.7084 O   0  0  0  0  0  0  0  0  0  0  0  0
   10.8018  -15.2789   21.8478 N   0  0  0  0  0  0  0  0  0  0  0  0
   11.4587  -15.6825   23.1064 C   0  0  1  0  0  0  0  0  0  0  0  0
   11.0531  -17.0513   23.5066 C   0  0  0  0  0  0  0  0  0  0  0  0
   11.7816  -17.5002   24.7319 C   0  0  0  0  0  0  0  0  0  0  0  0
   11.4067  -18.8992   25.1127 C   0  0  0  0  0  0  0  0  0  0  0  0
   11.9391  -19.8393   24.4852 O   0  0  0  0  0  0  0  0  0  0  0  0
   12.9092  -15.5400   22.8942 C   0  0  0  0  0  0  0  0  0  0  0  0
   13.7590  -15.5232   23.9959 O   0  0  0  0  0  0  0  0  0  0  0  0
   10.5052  -19.1742   26.1197 O   0  0  0  0  0  0  0  0  0  0  0  0
   13.4670  -15.4288   21.7769 O   0  0  0  0  0  0  0  0  0  0  0  0
  2  1  1  6
  3  2  1  0
  3  4  1  0
  5  4  1  0
  5  6  1  0
  7  6  1  0
  8  9  2  0
  8  2  1  0
 11 10  1  6
 11 13  1  0
 12 11  1  0
 13 14  1  1
 14  8  1  0
 15 17  1  0
 15 13  1  0
 16 15  2  0
 18 19  1  6
 18 17  1  0
 19 20  1  0
 20 21  1  0
 21 25  1  0
 22 21  2  0
 23 18  1  0
 24 23  1  0
 26 23  2  0
M  END
$$$$
