KTE.pdb
     RDKit          3D

 26 25  0  0  1  0  0  0  0  0999 V2000
    7.8212  -16.1401   17.6312 N   0  0  0  0  0  0  0  0  0  0  0  0
    8.6621  -15.0009   17.6940 C   0  0  1  0  0  0  0  0  0  0  0  0
    8.0907  -13.8232   16.9642 C   0  0  0  0  0  0  0  0  0  0  0  0
    7.3777  -14.1236   15.7050 C   0  0  0  0  0  0  0  0  0  0  0  0
    8.1773  -14.6257   14.5470 C   0  0  0  0  0  0  0  0  0  0  0  0
    7.4206  -14.7903   13.2679 C   0  0  0  0  0  0  0  0  0  0  0  0
    7.5282  -13.7322   12.3199 N   0  0  0  0  0  0  0  0  0  0  0  0
    8.9995  -14.5521   19.0740 C   0  0  0  0  0  0  0  0  0  0  0  0
    9.7035  -13.5172   19.2055 O   0  0  0  0  0  0  0  0  0  0  0  0
    6.9510  -13.6669   22.3167 C   0  0  0  0  0  0  0  0  0  0  0  0
    7.9690  -14.7556   22.6065 C   0  0  1  0  0  0  0  0  0  0  0  0
    7.3574  -15.9986   22.7618 O   0  0  0  0  0  0  0  0  0  0  0  0
    9.0669  -14.7937   21.5623 C   0  0  2  0  0  0  0  0  0  0  0  0
    8.5996  -15.1840   20.2690 N   0  0  0  0  0  0  0  0  0  0  0  0
   10.0704  -15.7775   22.0310 C   0  0  0  0  0  0  0  0  0  0  0  0
   10.0711  -16.9191   21.5100 O   0  0  0  0  0  0  0  0  0  0  0  0
   11.0269  -15.5230   23.0224 N   0  0  0  0  0  0  0  0  0  0  0  0
   12.0428  -16.5002   23.4602 C   0  0  1  0  0  0  0  0  0  0  0  0
   13.4133  -15.9637   23.2816 C   0  0  0  0  0  0  0  0  0  0  0  0
   14.4421  -16.9032   23.8223 C   0  0  0  0  0  0  0  0  0  0  0  0
   15.8260  -16.3529   23.6648 C   0  0  0  0  0  0  0  0  0  0  0  0
   16.2763  -16.2240   22.5065 O   0  0  0  0  0  0  0  0  0  0  0  0
   11.7266  -16.8462   24.8565 C   0  0  0  0  0  0  0  0  0  0  0  0
   12.3482  -17.9448   25.4421 O   0  0  0  0  0  0  0  0  0  0  0  0
   16.6041  -15.9905   24.7444 O   0  0  0  0  0  0  0  0  0  0  0  0
   10.9235  -16.2224   25.5899 O   0  0  0  0  0  0  0  0  0  0  0  0
  2  1  1  1
  3  2  1  0
  3  4  1  0
  5  4  1  0
  5  6  1  0
  7  6  1  0
  8  9  2  0
  8  2  1  0
 11 10  1  6
 11 13  1  0
 12 11  1  0
 13 14  1  6
 14  8  1  0
 15 17  1  0
 15 13  1  0
 16 15  2  0
 18 19  1  1
 18 17  1  0
 19 20  1  0
 20 21  1  0
 21 25  1  0
 22 21  2  0
 23 18  1  0
 24 23  1  0
 26 23  2  0
M  END
$$$$
