KTE.pdb
     RDKit          3D

 26 25  0  0  1  0  0  0  0  0999 V2000
    2.9738  -21.0200   21.8183 N   0  0  0  0  0  0  0  0  0  0  0  0
    4.1776  -21.6695   21.4473 C   0  0  1  0  0  0  0  0  0  0  0  0
    4.2528  -21.9448   19.9759 C   0  0  0  0  0  0  0  0  0  0  0  0
    2.9894  -22.3528   19.3266 C   0  0  0  0  0  0  0  0  0  0  0  0
    3.0100  -22.6249   17.8576 C   0  0  0  0  0  0  0  0  0  0  0  0
    1.7037  -23.0464   17.2646 C   0  0  0  0  0  0  0  0  0  0  0  0
    1.7068  -23.3768   15.8788 N   0  0  0  0  0  0  0  0  0  0  0  0
    5.4203  -20.9429   21.8312 C   0  0  0  0  0  0  0  0  0  0  0  0
    6.5090  -21.3223   21.3263 O   0  0  0  0  0  0  0  0  0  0  0  0
    6.7565  -17.7368   20.9114 C   0  0  0  0  0  0  0  0  0  0  0  0
    6.7158  -17.7357   22.4292 C   0  0  1  0  0  0  0  0  0  0  0  0
    5.6501  -16.9773   22.9111 O   0  0  0  0  0  0  0  0  0  0  0  0
    6.7082  -19.1421   22.9943 C   0  0  2  0  0  0  0  0  0  0  0  0
    5.4980  -19.8517   22.7201 N   0  0  0  0  0  0  0  0  0  0  0  0
    6.8729  -19.0157   24.4610 C   0  0  0  0  0  0  0  0  0  0  0  0
    5.8449  -18.8534   25.1622 O   0  0  0  0  0  0  0  0  0  0  0  0
    8.1042  -19.0648   25.1275 N   0  0  0  0  0  0  0  0  0  0  0  0
    8.2537  -18.9816   26.5935 C   0  0  1  0  0  0  0  0  0  0  0  0
    8.7463  -20.2625   27.1546 C   0  0  0  0  0  0  0  0  0  0  0  0
    8.9886  -20.1569   28.6255 C   0  0  0  0  0  0  0  0  0  0  0  0
    9.5245  -21.4373   29.1877 C   0  0  0  0  0  0  0  0  0  0  0  0
    9.3176  -22.4898   28.5472 O   0  0  0  0  0  0  0  0  0  0  0  0
    9.1450  -17.8413   26.8665 C   0  0  0  0  0  0  0  0  0  0  0  0
    9.2469  -17.3540   28.1658 O   0  0  0  0  0  0  0  0  0  0  0  0
   10.2282  -21.4863   30.3730 O   0  0  0  0  0  0  0  0  0  0  0  0
    9.8428  -17.2501   26.0089 O   0  0  0  0  0  0  0  0  0  0  0  0
  2  1  1  6
  3  2  1  0
  3  4  1  0
  5  4  1  0
  5  6  1  0
  7  6  1  0
  8  9  2  0
  8  2  1  0
 11 10  1  6
 11 13  1  0
 12 11  1  0
 13 14  1  1
 14  8  1  0
 15 17  1  0
 15 13  1  0
 16 15  2  0
 18 19  1  6
 18 17  1  0
 19 20  1  0
 20 21  1  0
 21 25  1  0
 22 21  2  0
 23 18  1  0
 24 23  1  0
 26 23  2  0
M  END
$$$$
