ICP.pdb
     RDKit          3D

 22 22  0  0  1  0  0  0  0  0999 V2000
   11.9499  -25.6030   -1.1433 C   0  0  0  0  0  0  0  0  0  0  0  0
   12.5725  -24.2729   -1.4115 C   0  0  0  0  0  0  0  0  0  0  0  0
   13.5583  -23.8391   -0.3824 C   0  0  2  0  0  0  0  0  0  0  0  0
   12.8653  -23.7869    0.9642 C   0  0  0  0  0  0  0  0  0  0  0  0
   14.2418  -22.5360   -0.7268 C   0  0  2  0  0  0  0  0  0  0  0  0
   15.0331  -22.7030   -1.9564 N   0  0  0  0  0  0  0  0  0  0  0  0
   15.2015  -22.1022    0.3159 C   0  0  0  0  0  0  0  0  0  0  0  0
   16.2856  -22.7732    0.3929 O   0  0  0  0  0  0  0  0  0  0  0  0
   14.9673  -21.0140    1.1936 N   0  0  0  0  0  0  0  0  0  0  0  0
   15.9411  -20.6949    2.1739 C   0  0  1  0  0  0  0  0  0  0  0  0
   15.9901  -19.1641    2.2803 C   0  0  0  0  0  0  0  0  0  0  0  0
   16.8494  -18.6215    3.7552 S   0  0  0  0  0  0  0  0  0  0  0  0
   15.7642  -21.2878    3.5017 C   0  0  0  0  0  0  0  0  0  0  0  0
   14.5358  -21.4395    3.8358 O   0  0  0  0  0  0  0  0  0  0  0  0
   16.7840  -21.6840    4.3949 N   0  0  0  0  0  0  0  0  0  0  0  0
   18.2209  -21.5434    4.1024 C   0  0  0  0  0  0  0  0  0  0  0  0
   18.6852  -22.9691    4.4308 C   0  0  0  0  0  0  0  0  0  0  0  0
   18.0397  -23.1116    5.8155 C   0  0  0  0  0  0  0  0  0  0  0  0
   16.7589  -22.2779    5.7018 C   0  0  1  0  0  0  0  0  0  0  0  0
   16.8577  -21.2465    6.7729 C   0  0  0  0  0  0  0  0  0  0  0  0
   16.6631  -21.6178    7.9559 O   0  0  0  0  0  0  0  0  0  0  0  0
   17.1500  -19.9291    6.5041 O   0  0  0  0  0  0  0  0  0  0  0  0
  1  2  1  0
  2  3  1  0
  3  4  1  1
  5  6  1  6
  5  3  1  0
  7  5  1  0
  7  9  1  0
  8  7  2  0
 10  9  1  0
 10 11  1  1
 11 12  1  0
 13 10  1  0
 14 13  2  0
 15 13  1  0
 15 16  1  0
 17 16  1  0
 18 19  1  0
 18 17  1  0
 19 20  1  1
 19 15  1  0
 20 22  1  0
 21 20  2  0
M  END
$$$$
