ICP.pdb
     RDKit          3D

 22 22  0  0  1  0  0  0  0  0999 V2000
   16.2456  -14.4487  -19.6684 C   0  0  0  0  0  0  0  0  0  0  0  0
   17.6251  -14.7222  -19.1675 C   0  0  0  0  0  0  0  0  0  0  0  0
   18.1259  -13.7280  -18.1777 C   0  0  2  0  0  0  0  0  0  0  0  0
   18.0824  -12.3502  -18.8069 C   0  0  0  0  0  0  0  0  0  0  0  0
   19.4949  -14.0679  -17.6351 C   0  0  2  0  0  0  0  0  0  0  0  0
   19.4412  -15.3605  -16.9334 N   0  0  0  0  0  0  0  0  0  0  0  0
   19.9725  -13.0842  -16.6348 C   0  0  0  0  0  0  0  0  0  0  0  0
   19.3027  -13.0196  -15.5491 O   0  0  0  0  0  0  0  0  0  0  0  0
   21.0996  -12.2478  -16.8333 N   0  0  0  0  0  0  0  0  0  0  0  0
   21.3944  -11.2461  -15.8738 C   0  0  1  0  0  0  0  0  0  0  0  0
   22.9200  -11.2189  -15.7034 C   0  0  0  0  0  0  0  0  0  0  0  0
   23.4505   -9.8925  -14.6230 S   0  0  0  0  0  0  0  0  0  0  0  0
   20.8929   -9.8973  -16.1481 C   0  0  0  0  0  0  0  0  0  0  0  0
   21.0099   -9.5467  -17.3757 O   0  0  0  0  0  0  0  0  0  0  0  0
   20.3219   -9.0008  -15.2180 N   0  0  0  0  0  0  0  0  0  0  0  0
   20.1365   -9.3178  -13.7915 C   0  0  0  0  0  0  0  0  0  0  0  0
   18.6587   -8.9328  -13.6381 C   0  0  0  0  0  0  0  0  0  0  0  0
   18.7150   -7.5349  -14.2683 C   0  0  0  0  0  0  0  0  0  0  0  0
   19.8007   -7.6687  -15.3415 C   0  0  1  0  0  0  0  0  0  0  0  0
   20.8287   -6.6456  -14.9990 C   0  0  0  0  0  0  0  0  0  0  0  0
   20.5143   -5.4383  -15.1364 O   0  0  0  0  0  0  0  0  0  0  0  0
   22.0836   -6.9829  -14.5467 O   0  0  0  0  0  0  0  0  0  0  0  0
  1  2  1  0
  2  3  1  0
  3  4  1  6
  5  6  1  1
  5  3  1  0
  7  5  1  0
  7  9  1  0
  8  7  2  0
 10  9  1  0
 10 11  1  6
 11 12  1  0
 13 10  1  0
 14 13  2  0
 15 13  1  0
 15 16  1  0
 17 16  1  0
 18 19  1  0
 18 17  1  0
 19 20  1  1
 19 15  1  0
 20 22  1  0
 21 20  2  0
M  END
$$$$
