ICP.pdb
     RDKit          3D

 22 22  0  0  1  0  0  0  0  0999 V2000
   36.4622  -31.7355    4.4800 C   0  0  0  0  0  0  0  0  0  0  0  0
   35.5649  -30.6268    4.9206 C   0  0  0  0  0  0  0  0  0  0  0  0
   36.2671  -29.3411    5.1911 C   0  0  2  0  0  0  0  0  0  0  0  0
   36.0047  -28.9359    6.6275 C   0  0  0  0  0  0  0  0  0  0  0  0
   35.9045  -28.2489    4.2116 C   0  0  2  0  0  0  0  0  0  0  0  0
   36.4412  -28.5798    2.8817 N   0  0  0  0  0  0  0  0  0  0  0  0
   36.4969  -26.9393    4.5723 C   0  0  0  0  0  0  0  0  0  0  0  0
   37.7438  -26.8032    4.3306 O   0  0  0  0  0  0  0  0  0  0  0  0
   35.7585  -25.8772    5.1521 N   0  0  0  0  0  0  0  0  0  0  0  0
   36.4268  -24.6715    5.4846 C   0  0  1  0  0  0  0  0  0  0  0  0
   35.3499  -23.5913    5.6587 C   0  0  0  0  0  0  0  0  0  0  0  0
   34.2605  -23.4957    4.2402 S   0  0  0  0  0  0  0  0  0  0  0  0
   37.3055  -24.7019    6.6563 C   0  0  0  0  0  0  0  0  0  0  0  0
   36.9981  -25.6133    7.5039 O   0  0  0  0  0  0  0  0  0  0  0  0
   38.4046  -23.8529    6.9128 N   0  0  0  0  0  0  0  0  0  0  0  0
   38.7422  -22.6857    6.0799 C   0  0  0  0  0  0  0  0  0  0  0  0
   40.2308  -22.9713    5.8380 C   0  0  0  0  0  0  0  0  0  0  0  0
   40.6601  -23.2179    7.2904 C   0  0  0  0  0  0  0  0  0  0  0  0
   39.4193  -23.8514    7.9286 C   0  0  1  0  0  0  0  0  0  0  0  0
   39.0545  -22.9580    9.0643 C   0  0  0  0  0  0  0  0  0  0  0  0
   38.1294  -22.1306    8.8778 O   0  0  0  0  0  0  0  0  0  0  0  0
   39.6909  -23.0160   10.2828 O   0  0  0  0  0  0  0  0  0  0  0  0
  1  2  1  0
  2  3  1  0
  3  4  1  1
  5  6  1  6
  5  3  1  0
  7  5  1  0
  7  9  1  0
  8  7  2  0
 10  9  1  0
 10 11  1  1
 11 12  1  0
 13 10  1  0
 14 13  2  0
 15 13  1  0
 15 16  1  0
 17 16  1  0
 18 19  1  0
 18 17  1  0
 19 20  1  1
 19 15  1  0
 20 22  1  0
 21 20  2  0
M  END
$$$$
