ICP.pdb
     RDKit          3D

 22 22  0  0  1  0  0  0  0  0999 V2000
   19.0496  -21.7425  -15.7312 C   0  0  0  0  0  0  0  0  0  0  0  0
   19.6270  -21.6450  -14.3580 C   0  0  0  0  0  0  0  0  0  0  0  0
   21.0074  -21.0870  -14.3120 C   0  0  2  0  0  0  0  0  0  0  0  0
   21.9037  -21.9315  -15.1949 C   0  0  0  0  0  0  0  0  0  0  0  0
   21.5475  -20.9535  -12.9068 C   0  0  2  0  0  0  0  0  0  0  0  0
   20.7098  -20.0152  -12.1426 N   0  0  0  0  0  0  0  0  0  0  0  0
   22.9182  -20.3911  -12.8736 C   0  0  0  0  0  0  0  0  0  0  0  0
   23.0663  -19.2446  -13.4168 O   0  0  0  0  0  0  0  0  0  0  0  0
   24.0240  -21.0541  -12.2844 N   0  0  0  0  0  0  0  0  0  0  0  0
   25.3358  -20.5956  -12.5676 C   0  0  1  0  0  0  0  0  0  0  0  0
   26.2495  -21.1244  -11.4529 C   0  0  0  0  0  0  0  0  0  0  0  0
   25.4011  -21.2180   -9.8783 S   0  0  0  0  0  0  0  0  0  0  0  0
   25.8893  -20.9392  -13.8796 C   0  0  0  0  0  0  0  0  0  0  0  0
   25.3020  -21.9316  -14.4398 O   0  0  0  0  0  0  0  0  0  0  0  0
   26.9606  -20.2990  -14.5407 N   0  0  0  0  0  0  0  0  0  0  0  0
   27.8922  -19.3741  -13.8724 C   0  0  0  0  0  0  0  0  0  0  0  0
   27.8254  -18.1964  -14.8545 C   0  0  0  0  0  0  0  0  0  0  0  0
   28.0730  -18.9657  -16.1588 C   0  0  0  0  0  0  0  0  0  0  0  0
   27.4274  -20.3309  -15.8981 C   0  0  1  0  0  0  0  0  0  0  0  0
   28.5191  -21.3294  -16.0774 C   0  0  0  0  0  0  0  0  0  0  0  0
   28.9787  -21.8782  -15.0466 O   0  0  0  0  0  0  0  0  0  0  0  0
   29.0237  -21.6568  -17.3149 O   0  0  0  0  0  0  0  0  0  0  0  0
  1  2  1  0
  2  3  1  0
  3  4  1  6
  5  6  1  1
  5  3  1  0
  7  5  1  0
  7  9  1  0
  8  7  2  0
 10  9  1  0
 10 11  1  1
 11 12  1  0
 13 10  1  0
 14 13  2  0
 15 13  1  0
 15 16  1  0
 17 16  1  0
 18 19  1  0
 18 17  1  0
 19 20  1  1
 19 15  1  0
 20 22  1  0
 21 20  2  0
M  END
$$$$
