ICP.pdb
     RDKit          3D

 22 22  0  0  1  0  0  0  0  0999 V2000
   28.8336  -12.8502  -16.2285 C   0  0  0  0  0  0  0  0  0  0  0  0
   27.4445  -12.9613  -15.6929 C   0  0  0  0  0  0  0  0  0  0  0  0
   26.5259  -11.8784  -16.1430 C   0  0  2  0  0  0  0  0  0  0  0  0
   27.0739  -10.5472  -15.6699 C   0  0  0  0  0  0  0  0  0  0  0  0
   25.0943  -12.0959  -15.7102 C   0  0  2  0  0  0  0  0  0  0  0  0
   24.5986  -13.3664  -16.2635 N   0  0  0  0  0  0  0  0  0  0  0  0
   24.1787  -11.0481  -16.2201 C   0  0  0  0  0  0  0  0  0  0  0  0
   23.7657  -11.2007  -17.4192 O   0  0  0  0  0  0  0  0  0  0  0  0
   23.7631   -9.9295  -15.4551 N   0  0  0  0  0  0  0  0  0  0  0  0
   22.8219   -9.0247  -16.0087 C   0  0  1  0  0  0  0  0  0  0  0  0
   21.5241   -9.8107  -16.2437 C   0  0  0  0  0  0  0  0  0  0  0  0
   20.1542   -8.7343  -16.6595 S   0  0  0  0  0  0  0  0  0  0  0  0
   22.5432   -7.8071  -15.2433 C   0  0  0  0  0  0  0  0  0  0  0  0
   22.3967   -8.0141  -13.9866 O   0  0  0  0  0  0  0  0  0  0  0  0
   22.4289   -6.4946  -15.7521 N   0  0  0  0  0  0  0  0  0  0  0  0
   22.4056   -6.1795  -17.1909 C   0  0  0  0  0  0  0  0  0  0  0  0
   23.4811   -5.0850  -17.2262 C   0  0  0  0  0  0  0  0  0  0  0  0
   22.9556   -4.2044  -16.0847 C   0  0  0  0  0  0  0  0  0  0  0  0
   22.3180   -5.2102  -15.1202 C   0  0  1  0  0  0  0  0  0  0  0  0
   20.8951   -4.7879  -14.9864 C   0  0  0  0  0  0  0  0  0  0  0  0
   20.6415   -3.8435  -14.1996 O   0  0  0  0  0  0  0  0  0  0  0  0
   19.8768   -5.3927  -15.6868 O   0  0  0  0  0  0  0  0  0  0  0  0
  1  2  1  0
  2  3  1  0
  3  4  1  1
  5  6  1  6
  5  3  1  0
  7  5  1  0
  7  9  1  0
  8  7  2  0
 10  9  1  0
 10 11  1  1
 11 12  1  0
 13 10  1  0
 14 13  2  0
 15 13  1  0
 15 16  1  0
 17 16  1  0
 18 19  1  0
 18 17  1  0
 19 20  1  6
 19 15  1  0
 20 22  1  0
 21 20  2  0
M  END
$$$$
