ICP.pdb
     RDKit          3D

 22 22  0  0  1  0  0  0  0  0999 V2000
    9.5127  -12.9577   -9.8786 C   0  0  0  0  0  0  0  0  0  0  0  0
   10.6045  -12.9533  -10.8967 C   0  0  0  0  0  0  0  0  0  0  0  0
   11.7137  -12.0038  -10.6015 C   0  0  2  0  0  0  0  0  0  0  0  0
   11.1274  -10.6245  -10.3780 C   0  0  0  0  0  0  0  0  0  0  0  0
   12.7929  -12.0038  -11.6595 C   0  0  2  0  0  0  0  0  0  0  0  0
   13.4348  -13.3273  -11.7105 N   0  0  0  0  0  0  0  0  0  0  0  0
   13.8788  -11.0388  -11.3668 C   0  0  0  0  0  0  0  0  0  0  0  0
   14.6242  -11.3206  -10.3685 O   0  0  0  0  0  0  0  0  0  0  0  0
   14.1089   -9.8632  -12.1247 N   0  0  0  0  0  0  0  0  0  0  0  0
   15.1313   -8.9682  -11.7188 C   0  0  1  0  0  0  0  0  0  0  0  0
   16.0966   -8.8181  -12.9032 C   0  0  0  0  0  0  0  0  0  0  0  0
   17.3913   -7.6272  -12.5663 S   0  0  0  0  0  0  0  0  0  0  0  0
   14.7074   -7.6493  -11.2427 C   0  0  0  0  0  0  0  0  0  0  0  0
   13.7212   -7.1599  -11.8996 O   0  0  0  0  0  0  0  0  0  0  0  0
   15.2684   -6.9136  -10.1757 N   0  0  0  0  0  0  0  0  0  0  0  0
   16.4260   -7.3749   -9.3901 C   0  0  0  0  0  0  0  0  0  0  0  0
   15.8614   -7.1863   -7.9754 C   0  0  0  0  0  0  0  0  0  0  0  0
   15.3625   -5.7419   -8.1138 C   0  0  0  0  0  0  0  0  0  0  0  0
   14.9368   -5.6487   -9.5830 C   0  0  1  0  0  0  0  0  0  0  0  0
   15.7492   -4.5429  -10.1644 C   0  0  0  0  0  0  0  0  0  0  0  0
   16.6818   -4.8557  -10.9439 O   0  0  0  0  0  0  0  0  0  0  0  0
   15.5086   -3.2194   -9.8752 O   0  0  0  0  0  0  0  0  0  0  0  0
  1  2  1  0
  2  3  1  0
  3  4  1  6
  5  6  1  1
  5  3  1  0
  7  5  1  0
  7  9  1  0
  8  7  2  0
 10  9  1  0
 10 11  1  6
 11 12  1  0
 13 10  1  0
 14 13  2  0
 15 13  1  0
 15 16  1  0
 17 16  1  0
 18 19  1  0
 18 17  1  0
 19 20  1  6
 19 15  1  0
 20 22  1  0
 21 20  2  0
M  END
$$$$
