ICP.pdb
     RDKit          3D

 22 22  0  0  1  0  0  0  0  0999 V2000
   16.9685  -13.3554  -20.4698 C   0  0  0  0  0  0  0  0  0  0  0  0
   18.2343  -13.2021  -19.6934 C   0  0  0  0  0  0  0  0  0  0  0  0
   18.1943  -12.1276  -18.6624 C   0  0  2  0  0  0  0  0  0  0  0  0
   17.8294  -10.8201  -19.3358 C   0  0  0  0  0  0  0  0  0  0  0  0
   19.4726  -12.0239  -17.8628 C   0  0  2  0  0  0  0  0  0  0  0  0
   19.6961  -13.2770  -17.1239 N   0  0  0  0  0  0  0  0  0  0  0  0
   19.4195  -10.9543  -16.8384 C   0  0  0  0  0  0  0  0  0  0  0  0
   18.5361  -11.0956  -15.9267 O   0  0  0  0  0  0  0  0  0  0  0  0
   20.2793   -9.8273  -16.8358 N   0  0  0  0  0  0  0  0  0  0  0  0
   20.0843   -8.8115  -15.8657 C   0  0  1  0  0  0  0  0  0  0  0  0
   21.3975   -8.6775  -15.0817 C   0  0  0  0  0  0  0  0  0  0  0  0
   21.3371   -7.3357  -13.8968 S   0  0  0  0  0  0  0  0  0  0  0  0
   19.6531   -7.5003  -16.3562 C   0  0  0  0  0  0  0  0  0  0  0  0
   20.2867   -7.1099  -17.4002 O   0  0  0  0  0  0  0  0  0  0  0  0
   18.6495   -6.6764  -15.8007 N   0  0  0  0  0  0  0  0  0  0  0  0
   17.8754   -7.0352  -14.5999 C   0  0  0  0  0  0  0  0  0  0  0  0
   16.4570   -6.7881  -15.1318 C   0  0  0  0  0  0  0  0  0  0  0  0
   16.6643   -5.3793  -15.7035 C   0  0  0  0  0  0  0  0  0  0  0  0
   18.1221   -5.3947  -16.1756 C   0  0  1  0  0  0  0  0  0  0  0  0
   18.7932   -4.2895  -15.4345 C   0  0  0  0  0  0  0  0  0  0  0  0
   19.5848   -4.6052  -14.5132 O   0  0  0  0  0  0  0  0  0  0  0  0
   18.5720   -2.9635  -15.7279 O   0  0  0  0  0  0  0  0  0  0  0  0
  1  2  1  0
  2  3  1  0
  3  4  1  6
  5  6  1  1
  5  3  1  0
  7  5  1  0
  7  9  1  0
  8  7  2  0
 10  9  1  0
 10 11  1  6
 11 12  1  0
 13 10  1  0
 14 13  2  0
 15 13  1  0
 15 16  1  0
 17 16  1  0
 18 19  1  0
 18 17  1  0
 19 20  1  1
 19 15  1  0
 20 22  1  0
 21 20  2  0
M  END
$$$$
