ICP.pdb
     RDKit          3D

 22 22  0  0  1  0  0  0  0  0999 V2000
   17.5688  -16.0713  -18.8814 C   0  0  0  0  0  0  0  0  0  0  0  0
   18.9999  -16.2100  -18.4797 C   0  0  0  0  0  0  0  0  0  0  0  0
   19.5166  -15.0827  -17.6542 C   0  0  2  0  0  0  0  0  0  0  0  0
   19.2726  -13.7842  -18.3961 C   0  0  0  0  0  0  0  0  0  0  0  0
   20.9646  -15.2529  -17.2565 C   0  0  2  0  0  0  0  0  0  0  0  0
   21.1090  -16.4544  -16.4188 N   0  0  0  0  0  0  0  0  0  0  0  0
   21.4673  -14.1255  -16.4364 C   0  0  0  0  0  0  0  0  0  0  0  0
   20.9383  -13.9940  -15.2812 O   0  0  0  0  0  0  0  0  0  0  0  0
   22.4726  -13.2259  -16.8717 N   0  0  0  0  0  0  0  0  0  0  0  0
   22.8521  -12.1521  -16.0268 C   0  0  1  0  0  0  0  0  0  0  0  0
   24.3596  -11.9356  -16.2210 C   0  0  0  0  0  0  0  0  0  0  0  0
   25.3209  -13.3099  -15.5923 S   0  0  0  0  0  0  0  0  0  0  0  0
   22.1340  -10.8869  -16.1993 C   0  0  0  0  0  0  0  0  0  0  0  0
   21.6101  -10.7493  -17.3614 O   0  0  0  0  0  0  0  0  0  0  0  0
   21.9815   -9.8621  -15.2396 N   0  0  0  0  0  0  0  0  0  0  0  0
   22.5750   -9.9148  -13.8925 C   0  0  0  0  0  0  0  0  0  0  0  0
   21.3312   -9.5837  -13.0563 C   0  0  0  0  0  0  0  0  0  0  0  0
   20.8717   -8.3279  -13.8087 C   0  0  0  0  0  0  0  0  0  0  0  0
   21.2877   -8.6052  -15.2573 C   0  0  1  0  0  0  0  0  0  0  0  0
   22.1959   -7.4849  -15.6331 C   0  0  0  0  0  0  0  0  0  0  0  0
   23.4267   -7.7259  -15.6788 O   0  0  0  0  0  0  0  0  0  0  0  0
   21.7302   -6.2234  -15.9243 O   0  0  0  0  0  0  0  0  0  0  0  0
  1  2  1  0
  2  3  1  0
  3  4  1  6
  5  6  1  1
  5  3  1  0
  7  5  1  0
  7  9  1  0
  8  7  2  0
 10  9  1  0
 10 11  1  6
 11 12  1  0
 13 10  1  0
 14 13  2  0
 15 13  1  0
 15 16  1  0
 17 16  1  0
 18 19  1  0
 18 17  1  0
 19 20  1  1
 19 15  1  0
 20 22  1  0
 21 20  2  0
M  END
$$$$
