ICP.pdb
     RDKit          3D

 22 22  0  0  1  0  0  0  0  0999 V2000
   28.9697  -12.4881  -16.7203 C   0  0  0  0  0  0  0  0  0  0  0  0
   27.7036  -12.7949  -15.9913 C   0  0  0  0  0  0  0  0  0  0  0  0
   26.6436  -11.7592  -16.1417 C   0  0  2  0  0  0  0  0  0  0  0  0
   27.1954  -10.4266  -15.6771 C   0  0  0  0  0  0  0  0  0  0  0  0
   25.3548  -12.1223  -15.4408 C   0  0  2  0  0  0  0  0  0  0  0  0
   24.8628  -13.4131  -15.9487 N   0  0  0  0  0  0  0  0  0  0  0  0
   24.2702  -11.1461  -15.6994 C   0  0  0  0  0  0  0  0  0  0  0  0
   23.8417  -11.0906  -16.9014 O   0  0  0  0  0  0  0  0  0  0  0  0
   23.7153  -10.3072  -14.7005 N   0  0  0  0  0  0  0  0  0  0  0  0
   22.7217   -9.3631  -15.0645 C   0  0  1  0  0  0  0  0  0  0  0  0
   21.6105   -9.4470  -14.0085 C   0  0  0  0  0  0  0  0  0  0  0  0
   21.3464  -11.1264  -13.4448 S   0  0  0  0  0  0  0  0  0  0  0  0
   23.1562   -7.9740  -15.2310 C   0  0  0  0  0  0  0  0  0  0  0  0
   24.2510   -7.7029  -14.6214 O   0  0  0  0  0  0  0  0  0  0  0  0
   22.5004   -6.9644  -15.9693 N   0  0  0  0  0  0  0  0  0  0  0  0
   21.2571   -7.1884  -16.7269 C   0  0  0  0  0  0  0  0  0  0  0  0
   21.6726   -6.5865  -18.0763 C   0  0  0  0  0  0  0  0  0  0  0  0
   22.2125   -5.2405  -17.5751 C   0  0  0  0  0  0  0  0  0  0  0  0
   22.7931   -5.5774  -16.1975 C   0  0  1  0  0  0  0  0  0  0  0  0
   22.0693   -4.7004  -15.2342 C   0  0  0  0  0  0  0  0  0  0  0  0
   22.4057   -3.4923  -15.1833 O   0  0  0  0  0  0  0  0  0  0  0  0
   21.0655   -5.1704  -14.4188 O   0  0  0  0  0  0  0  0  0  0  0  0
  1  2  1  0
  2  3  1  0
  3  4  1  1
  5  6  1  6
  5  3  1  0
  7  5  1  0
  7  9  1  0
  8  7  2  0
 10  9  1  0
 10 11  1  1
 11 12  1  0
 13 10  1  0
 14 13  2  0
 15 13  1  0
 15 16  1  0
 17 16  1  0
 18 19  1  0
 18 17  1  0
 19 20  1  1
 19 15  1  0
 20 22  1  0
 21 20  2  0
M  END
$$$$
