ICP.pdb
     RDKit          3D

 22 22  0  0  1  0  0  0  0  0999 V2000
   16.0226  -12.5496  -17.3577 C   0  0  0  0  0  0  0  0  0  0  0  0
   15.8944  -12.6661  -15.8749 C   0  0  0  0  0  0  0  0  0  0  0  0
   16.4192  -11.4936  -15.1206 C   0  0  2  0  0  0  0  0  0  0  0  0
   17.8632  -11.2651  -15.5190 C   0  0  0  0  0  0  0  0  0  0  0  0
   16.2510  -11.6263  -13.6245 C   0  0  2  0  0  0  0  0  0  0  0  0
   14.8337  -11.8627  -13.3058 N   0  0  0  0  0  0  0  0  0  0  0  0
   16.6288  -10.3922  -12.8963 C   0  0  0  0  0  0  0  0  0  0  0  0
   17.8817  -10.1784  -12.7693 O   0  0  0  0  0  0  0  0  0  0  0  0
   15.6871   -9.4793  -12.3585 N   0  0  0  0  0  0  0  0  0  0  0  0
   16.1462   -8.2521  -11.8160 C   0  0  1  0  0  0  0  0  0  0  0  0
   16.9560   -7.5478  -12.9138 C   0  0  0  0  0  0  0  0  0  0  0  0
   17.3870   -5.8703  -12.4575 S   0  0  0  0  0  0  0  0  0  0  0  0
   15.1306   -7.3444  -11.2767 C   0  0  0  0  0  0  0  0  0  0  0  0
   14.2183   -7.0353  -12.1228 O   0  0  0  0  0  0  0  0  0  0  0  0
   15.0795   -6.8114   -9.9699 N   0  0  0  0  0  0  0  0  0  0  0  0
   16.2300   -6.8017   -9.0501 C   0  0  0  0  0  0  0  0  0  0  0  0
   15.5647   -7.4114   -7.8085 C   0  0  0  0  0  0  0  0  0  0  0  0
   14.3266   -6.5077   -7.7397 C   0  0  0  0  0  0  0  0  0  0  0  0
   14.0305   -6.1923   -9.2098 C   0  0  1  0  0  0  0  0  0  0  0  0
   14.0811   -4.7068   -9.3173 C   0  0  0  0  0  0  0  0  0  0  0  0
   15.0858   -4.1989   -9.8723 O   0  0  0  0  0  0  0  0  0  0  0  0
   13.0784   -3.8974   -8.8350 O   0  0  0  0  0  0  0  0  0  0  0  0
  1  2  1  0
  2  3  1  0
  3  4  1  1
  5  6  1  6
  5  3  1  0
  7  5  1  0
  7  9  1  0
  8  7  2  0
 10  9  1  0
 10 11  1  6
 11 12  1  0
 13 10  1  0
 14 13  2  0
 15 13  1  0
 15 16  1  0
 17 16  1  0
 18 19  1  0
 18 17  1  0
 19 20  1  1
 19 15  1  0
 20 22  1  0
 21 20  2  0
M  END
$$$$
