RLD.pdb
     RDKit          3D

 28 27  0  0  1  0  0  0  0  0999 V2000
   18.9372  -17.1459  -19.9501 N   0  0  0  0  0  0  0  0  0  0  0  0
   18.3868  -16.5349  -21.1283 C   0  0  0  0  0  0  0  0  0  0  0  0
   17.6812  -17.2693  -21.8945 N   0  0  0  0  0  0  0  0  0  0  0  0
   18.6552  -15.1634  -21.3693 N   0  0  0  0  0  0  0  0  0  0  0  0
   19.4707  -14.4357  -20.4215 C   0  0  0  0  0  0  0  0  0  0  0  0
   18.7509  -14.1386  -19.1496 C   0  0  0  0  0  0  0  0  0  0  0  0
   19.4947  -13.3810  -18.1240 C   0  0  0  0  0  0  0  0  0  0  0  0
   20.9326  -13.7083  -17.9432 C   0  0  2  0  0  0  0  0  0  0  0  0
   21.0163  -15.0878  -17.4352 N   0  0  0  0  0  0  0  0  0  0  0  0
   21.5958  -12.8153  -16.9447 C   0  0  0  0  0  0  0  0  0  0  0  0
   21.1157  -12.6797  -15.7690 O   0  0  0  0  0  0  0  0  0  0  0  0
   17.1963  -16.9840  -22.7589 C   0  0  0  0  0  0  0  0  0  0  0  0
   27.0028   -9.9420  -16.4499 C   0  0  1  0  0  0  0  0  0  0  0  0
   25.6094  -10.0214  -15.7764 C   0  0  0  0  0  0  0  0  0  0  0  0
   25.8768  -10.3983  -14.3581 C   0  0  0  0  0  0  0  0  0  0  0  0
   24.8327  -11.0060  -16.5540 C   0  0  2  0  0  0  0  0  0  0  0  0
   23.3727  -11.1416  -16.2441 N   0  0  0  0  0  0  0  0  0  0  0  0
   22.7682  -12.0784  -17.2244 C   0  0  0  0  0  0  0  0  0  0  0  0
   22.6284   -9.8750  -16.3946 O   0  0  0  0  0  0  0  0  0  0  0  0
   22.4584   -9.4096  -17.5709 N   0  0  0  0  0  0  0  0  0  0  0  0
   22.0813   -9.1366  -15.3092 C   0  0  1  0  0  0  0  0  0  0  0  0
   21.3226   -7.9097  -15.6052 C   0  0  0  0  0  0  0  0  0  0  0  0
   20.1413   -7.8014  -14.6739 C   0  0  0  0  0  0  0  0  0  0  0  0
   18.9702   -8.5979  -15.0819 O   0  0  0  0  0  0  0  0  0  0  0  0
   19.0355   -9.2089  -16.2003 C   0  0  0  0  0  0  0  0  0  0  0  0
   22.2254   -6.7625  -15.3427 O   0  0  0  0  0  0  0  0  0  0  0  0
   23.3494   -6.9884  -14.7763 O   0  0  0  0  0  0  0  0  0  0  0  0
   17.7998   -8.7540  -14.3801 O   0  0  0  0  0  0  0  0  0  0  0  0
  2  1  1  0
  2  4  1  0
  3  2  2  0
  5  4  1  0
  6  5  1  0
  7  6  1  0
  8 10  1  0
  8  9  1  1
  8  7  1  0
 10 11  2  0
 13 12  1  1
 13 14  1  0
 15 13  1  0
 16 15  1  1
 16 17  1  0
 17 10  1  0
 18 16  1  0
 19 18  2  0
 20 18  1  0
 21 20  1  0
 21 22  1  6
 22 23  1  0
 23 27  1  0
 23 24  2  0
 25 21  1  0
 26 25  2  0
 28 25  1  0
M  END
$$$$
