RLD.pdb
     RDKit          3D

 28 27  0  0  1  0  0  0  0  0999 V2000
   18.8704  -23.4900   -9.2191 N   0  0  0  0  0  0  0  0  0  0  0  0
   18.2143  -24.0653  -10.3607 C   0  0  0  0  0  0  0  0  0  0  0  0
   17.0249  -24.4936  -10.1992 N   0  0  0  0  0  0  0  0  0  0  0  0
   18.9187  -24.1221  -11.5902 N   0  0  0  0  0  0  0  0  0  0  0  0
   20.1405  -23.3601  -11.7295 C   0  0  0  0  0  0  0  0  0  0  0  0
   20.0540  -22.3211  -12.7960 C   0  0  0  0  0  0  0  0  0  0  0  0
   21.2906  -21.5754  -13.1020 C   0  0  0  0  0  0  0  0  0  0  0  0
   21.9627  -20.8774  -11.9757 C   0  0  2  0  0  0  0  0  0  0  0  0
   21.1203  -19.7317  -11.5937 N   0  0  0  0  0  0  0  0  0  0  0  0
   23.3060  -20.3458  -12.3592 C   0  0  0  0  0  0  0  0  0  0  0  0
   23.4132  -19.2707  -13.0401 O   0  0  0  0  0  0  0  0  0  0  0  0
   16.4122  -24.9169  -10.9126 C   0  0  0  0  0  0  0  0  0  0  0  0
   29.1739  -21.8519  -11.1636 C   0  0  1  0  0  0  0  0  0  0  0  0
   28.2933  -21.1004  -12.1936 C   0  0  0  0  0  0  0  0  0  0  0  0
   28.8657  -19.7252  -12.2743 C   0  0  0  0  0  0  0  0  0  0  0  0
   26.9100  -21.1780  -11.6858 C   0  0  2  0  0  0  0  0  0  0  0  0
   25.8387  -20.4913  -12.4774 N   0  0  0  0  0  0  0  0  0  0  0  0
   24.5184  -20.9788  -12.0052 C   0  0  0  0  0  0  0  0  0  0  0  0
   25.8878  -20.8115  -13.9183 O   0  0  0  0  0  0  0  0  0  0  0  0
   25.4138  -21.9316  -14.3053 N   0  0  0  0  0  0  0  0  0  0  0  0
   26.4279  -19.9473  -14.9102 C   0  0  1  0  0  0  0  0  0  0  0  0
   26.2477  -20.3046  -16.3274 C   0  0  0  0  0  0  0  0  0  0  0  0
   25.0035  -19.6448  -16.8672 C   0  0  0  0  0  0  0  0  0  0  0  0
   24.7994  -19.8245  -18.3158 O   0  0  0  0  0  0  0  0  0  0  0  0
   25.5176  -20.6982  -18.9067 C   0  0  0  0  0  0  0  0  0  0  0  0
   27.4151  -19.7656  -17.0668 O   0  0  0  0  0  0  0  0  0  0  0  0
   27.8733  -20.4358  -18.0548 O   0  0  0  0  0  0  0  0  0  0  0  0
   23.9093  -19.1428  -19.1092 O   0  0  0  0  0  0  0  0  0  0  0  0
  2  1  1  0
  2  4  1  0
  3  2  2  0
  5  4  1  0
  6  5  1  0
  7  6  1  0
  8 10  1  0
  8  9  1  6
  8  7  1  0
 10 11  2  0
 13 12  1  6
 13 14  1  0
 15 13  1  0
 16 15  1  1
 16 17  1  0
 17 10  1  0
 18 16  1  0
 19 18  2  0
 20 18  1  0
 21 20  1  0
 21 22  1  6
 22 23  1  0
 23 27  1  0
 23 24  2  0
 25 21  1  0
 26 25  2  0
 28 25  1  0
M  END
$$$$
