RLD.pdb
     RDKit          3D

 28 27  0  0  1  0  0  0  0  0999 V2000
   27.1454  -22.3899  -20.2510 N   0  0  0  0  0  0  0  0  0  0  0  0
   25.7504  -22.0754  -20.3908 C   0  0  0  0  0  0  0  0  0  0  0  0
   24.9936  -22.9735  -20.8857 N   0  0  0  0  0  0  0  0  0  0  0  0
   25.2983  -20.7976  -19.9733 N   0  0  0  0  0  0  0  0  0  0  0  0
   26.1968  -19.9533  -19.2167 C   0  0  0  0  0  0  0  0  0  0  0  0
   26.7088  -20.6156  -17.9824 C   0  0  0  0  0  0  0  0  0  0  0  0
   26.1745  -20.1300  -16.6948 C   0  0  0  0  0  0  0  0  0  0  0  0
   26.7225  -20.7392  -15.4555 C   0  0  2  0  0  0  0  0  0  0  0  0
   27.5228  -21.9107  -15.8497 N   0  0  0  0  0  0  0  0  0  0  0  0
   25.6461  -21.2137  -14.5333 C   0  0  0  0  0  0  0  0  0  0  0  0
   25.0832  -22.3457  -14.7139 O   0  0  0  0  0  0  0  0  0  0  0  0
   24.0032  -22.8751  -21.1559 C   0  0  0  0  0  0  0  0  0  0  0  0
   25.7662  -22.2139  -10.1610 C   0  0  2  0  0  0  0  0  0  0  0  0
   25.7834  -20.7007  -10.4947 C   0  0  0  0  0  0  0  0  0  0  0  0
   26.0451  -20.0128   -9.1972 C   0  0  0  0  0  0  0  0  0  0  0  0
   24.4779  -20.4016  -11.1139 C   0  0  2  0  0  0  0  0  0  0  0  0
   24.1947  -20.9942  -12.4609 N   0  0  0  0  0  0  0  0  0  0  0  0
   25.1883  -20.4629  -13.4276 C   0  0  0  0  0  0  0  0  0  0  0  0
   22.8738  -20.6088  -12.9974 O   0  0  0  0  0  0  0  0  0  0  0  0
   22.7260  -19.4231  -13.4461 N   0  0  0  0  0  0  0  0  0  0  0  0
   21.7494  -21.4778  -13.0513 C   0  0  1  0  0  0  0  0  0  0  0  0
   20.4694  -20.9416  -13.5438 C   0  0  0  0  0  0  0  0  0  0  0  0
   19.5826  -22.0728  -14.0006 C   0  0  0  0  0  0  0  0  0  0  0  0
   20.0611  -22.7717  -15.2068 O   0  0  0  0  0  0  0  0  0  0  0  0
   19.4193  -23.8104  -15.5778 C   0  0  0  0  0  0  0  0  0  0  0  0
   19.8077  -20.2678  -12.4000 O   0  0  0  0  0  0  0  0  0  0  0  0
   18.6922  -19.6766  -12.6031 O   0  0  0  0  0  0  0  0  0  0  0  0
   21.1385  -22.4224  -15.9838 O   0  0  0  0  0  0  0  0  0  0  0  0
  2  1  1  0
  2  4  1  0
  3  2  2  0
  5  4  1  0
  6  5  1  0
  7  6  1  0
  8 10  1  0
  8  9  1  6
  8  7  1  0
 10 11  2  0
 13 12  1  6
 13 14  1  0
 15 13  1  0
 16 15  1  1
 16 17  1  0
 17 10  1  0
 18 16  1  0
 19 18  2  0
 20 18  1  0
 21 20  1  0
 21 22  1  1
 22 23  1  0
 23 27  1  0
 23 24  2  0
 25 21  1  0
 26 25  2  0
 28 25  1  0
M  END
$$$$
