RLD.pdb
     RDKit          3D

 28 27  0  0  1  0  0  0  0  0999 V2000
   29.6388  -23.0177  -16.9506 N   0  0  0  0  0  0  0  0  0  0  0  0
   29.8842  -22.1863  -18.0963 C   0  0  0  0  0  0  0  0  0  0  0  0
   30.5993  -22.6735  -19.0320 N   0  0  0  0  0  0  0  0  0  0  0  0
   29.3217  -20.8847  -18.1224 N   0  0  0  0  0  0  0  0  0  0  0  0
   28.2813  -20.5557  -17.1726 C   0  0  0  0  0  0  0  0  0  0  0  0
   26.9136  -20.8471  -17.6912 C   0  0  0  0  0  0  0  0  0  0  0  0
   25.9340  -21.3810  -16.7246 C   0  0  0  0  0  0  0  0  0  0  0  0
   26.4126  -22.4106  -15.7664 C   0  0  2  0  0  0  0  0  0  0  0  0
   26.2056  -23.7295  -16.3875 N   0  0  0  0  0  0  0  0  0  0  0  0
   25.6485  -22.3882  -14.4819 C   0  0  0  0  0  0  0  0  0  0  0  0
   24.8238  -23.3205  -14.1959 O   0  0  0  0  0  0  0  0  0  0  0  0
   31.0007  -22.1695  -19.8373 C   0  0  0  0  0  0  0  0  0  0  0  0
   25.0143  -21.8940   -9.4627 C   0  0  1  0  0  0  0  0  0  0  0  0
   25.3808  -20.4414   -9.8589 C   0  0  0  0  0  0  0  0  0  0  0  0
   24.1396  -19.6452   -9.6338 C   0  0  0  0  0  0  0  0  0  0  0  0
   25.8451  -20.5019  -11.2582 C   0  0  1  0  0  0  0  0  0  0  0  0
   25.1223  -21.4248  -12.1918 N   0  0  0  0  0  0  0  0  0  0  0  0
   25.7812  -21.3615  -13.5206 C   0  0  0  0  0  0  0  0  0  0  0  0
   23.7186  -21.0296  -12.4257 O   0  0  0  0  0  0  0  0  0  0  0  0
   22.9059  -21.0752  -11.4426 N   0  0  0  0  0  0  0  0  0  0  0  0
   23.2100  -20.5950  -13.6806 C   0  0  1  0  0  0  0  0  0  0  0  0
   21.8165  -20.1237  -13.7493 C   0  0  0  0  0  0  0  0  0  0  0  0
   21.7109  -18.9795  -14.7262 C   0  0  0  0  0  0  0  0  0  0  0  0
   20.4934  -18.1625  -14.5766 O   0  0  0  0  0  0  0  0  0  0  0  0
   19.7955  -18.3351  -13.5223 C   0  0  0  0  0  0  0  0  0  0  0  0
   20.9986  -21.2488  -14.2643 O   0  0  0  0  0  0  0  0  0  0  0  0
   19.7288  -21.1063  -14.3147 O   0  0  0  0  0  0  0  0  0  0  0  0
   20.0214  -17.2245  -15.4620 O   0  0  0  0  0  0  0  0  0  0  0  0
  2  1  1  0
  2  4  1  0
  3  2  2  0
  5  4  1  0
  6  5  1  0
  7  6  1  0
  8 10  1  0
  8  9  1  6
  8  7  1  0
 10 11  2  0
 13 12  1  1
 13 14  1  0
 15 13  1  0
 16 15  1  1
 16 17  1  0
 17 10  1  0
 18 16  1  0
 19 18  2  0
 20 18  1  0
 21 20  1  0
 21 22  1  6
 22 23  1  0
 23 27  1  0
 23 24  2  0
 25 21  1  0
 26 25  2  0
 28 25  1  0
M  END
$$$$
