RLD.pdb
     RDKit          3D

 28 27  0  0  1  0  0  0  0  0999 V2000
   27.7910  -23.1520  -17.2811 N   0  0  0  0  0  0  0  0  0  0  0  0
   27.9234  -21.8533  -17.8813 C   0  0  0  0  0  0  0  0  0  0  0  0
   27.4755  -21.7062  -19.0654 N   0  0  0  0  0  0  0  0  0  0  0  0
   28.5370  -20.8186  -17.1302 N   0  0  0  0  0  0  0  0  0  0  0  0
   29.0144  -21.1142  -15.7969 C   0  0  0  0  0  0  0  0  0  0  0  0
   28.9023  -19.9492  -14.8725 C   0  0  0  0  0  0  0  0  0  0  0  0
   28.3328  -20.2110  -13.5361 C   0  0  0  0  0  0  0  0  0  0  0  0
   26.8732  -20.4768  -13.4568 C   0  0  2  0  0  0  0  0  0  0  0  0
   26.1767  -19.1850  -13.5768 N   0  0  0  0  0  0  0  0  0  0  0  0
   26.4783  -21.0862  -12.1502 C   0  0  0  0  0  0  0  0  0  0  0  0
   26.6804  -22.3260  -11.9200 O   0  0  0  0  0  0  0  0  0  0  0  0
   27.4929  -20.8477  -19.6366 C   0  0  0  0  0  0  0  0  0  0  0  0
   27.3565  -21.2251   -7.8262 C   0  0  2  0  0  0  0  0  0  0  0  0
   26.7638  -19.8889   -8.3406 C   0  0  0  0  0  0  0  0  0  0  0  0
   26.9083  -18.9300   -7.2071 C   0  0  0  0  0  0  0  0  0  0  0  0
   25.3751  -20.1834   -8.7432 C   0  0  2  0  0  0  0  0  0  0  0  0
   25.1686  -21.0105   -9.9757 N   0  0  0  0  0  0  0  0  0  0  0  0
   25.8697  -20.3531  -11.1072 C   0  0  0  0  0  0  0  0  0  0  0  0
   23.7520  -21.0984  -10.3839 O   0  0  0  0  0  0  0  0  0  0  0  0
   22.9175  -21.6102   -9.5650 N   0  0  0  0  0  0  0  0  0  0  0  0
   23.2521  -20.6441  -11.6353 C   0  0  1  0  0  0  0  0  0  0  0  0
   21.8188  -20.8186  -11.9249 C   0  0  0  0  0  0  0  0  0  0  0  0
   21.2167  -19.5000  -12.3417 C   0  0  0  0  0  0  0  0  0  0  0  0
   19.7488  -19.4379  -12.2257 O   0  0  0  0  0  0  0  0  0  0  0  0
   19.1618  -20.4195  -11.6596 C   0  0  0  0  0  0  0  0  0  0  0  0
   21.7142  -21.7571  -13.0687 O   0  0  0  0  0  0  0  0  0  0  0  0
   21.1294  -22.8793  -12.8849 O   0  0  0  0  0  0  0  0  0  0  0  0
   18.9333  -18.4253  -12.6687 O   0  0  0  0  0  0  0  0  0  0  0  0
  2  1  1  0
  2  4  1  0
  3  2  2  0
  5  4  1  0
  6  5  1  0
  7  6  1  0
  8 10  1  0
  8  9  1  1
  8  7  1  0
 10 11  2  0
 13 12  1  6
 13 14  1  0
 15 13  1  0
 16 15  1  1
 16 17  1  0
 17 10  1  0
 18 16  1  0
 19 18  2  0
 20 18  1  0
 21 20  1  0
 21 22  1  6
 22 23  1  0
 23 27  1  0
 23 24  2  0
 25 21  1  0
 26 25  2  0
 28 25  1  0
M  END
$$$$
