RLD.pdb
     RDKit          3D

 28 27  0  0  1  0  0  0  0  0999 V2000
   25.9338  -18.8229  -18.1997 N   0  0  0  0  0  0  0  0  0  0  0  0
   24.8533  -17.8761  -18.1761 C   0  0  0  0  0  0  0  0  0  0  0  0
   24.4550  -17.4130  -19.2947 N   0  0  0  0  0  0  0  0  0  0  0  0
   24.2955  -17.5151  -16.9232 N   0  0  0  0  0  0  0  0  0  0  0  0
   24.3725  -18.4575  -15.8283 C   0  0  0  0  0  0  0  0  0  0  0  0
   24.6922  -19.8423  -16.2805 C   0  0  0  0  0  0  0  0  0  0  0  0
   24.6393  -20.9061  -15.2585 C   0  0  0  0  0  0  0  0  0  0  0  0
   25.5897  -20.8070  -14.1208 C   0  0  2  0  0  0  0  0  0  0  0  0
   26.7694  -21.6237  -14.4518 N   0  0  0  0  0  0  0  0  0  0  0  0
   25.0102  -21.3397  -12.8501 C   0  0  0  0  0  0  0  0  0  0  0  0
   24.7648  -22.5858  -12.7159 O   0  0  0  0  0  0  0  0  0  0  0  0
   23.7236  -16.7029  -19.4508 C   0  0  0  0  0  0  0  0  0  0  0  0
   26.2337  -21.6486   -8.2853 C   0  0  2  0  0  0  0  0  0  0  0  0
   26.0419  -20.2470   -8.9178 C   0  0  0  0  0  0  0  0  0  0  0  0
   26.4342  -19.2766   -7.8549 C   0  0  0  0  0  0  0  0  0  0  0  0
   24.6308  -20.1780   -9.3438 C   0  0  2  0  0  0  0  0  0  0  0  0
   24.1958  -21.0799  -10.4587 N   0  0  0  0  0  0  0  0  0  0  0  0
   24.7012  -20.5238  -11.7390 C   0  0  0  0  0  0  0  0  0  0  0  0
   22.7282  -21.1498  -10.6083 O   0  0  0  0  0  0  0  0  0  0  0  0
   22.1218  -20.1400  -11.0999 N   0  0  0  0  0  0  0  0  0  0  0  0
   21.9411  -22.2763  -10.2424 C   0  0  1  0  0  0  0  0  0  0  0  0
   20.4855  -22.2165  -10.4573 C   0  0  0  0  0  0  0  0  0  0  0  0
   19.9410  -23.6079  -10.6631 C   0  0  0  0  0  0  0  0  0  0  0  0
   18.4720  -23.6780  -10.7604 O   0  0  0  0  0  0  0  0  0  0  0  0
   17.8833  -22.7671  -11.4328 C   0  0  0  0  0  0  0  0  0  0  0  0
   19.8826  -21.6620   -9.2207 O   0  0  0  0  0  0  0  0  0  0  0  0
   20.5970  -21.6180   -8.1610 O   0  0  0  0  0  0  0  0  0  0  0  0
   17.6573  -24.6292  -10.1965 O   0  0  0  0  0  0  0  0  0  0  0  0
  2  1  1  0
  2  4  1  0
  3  2  2  0
  5  4  1  0
  6  5  1  0
  7  6  1  0
  8 10  1  0
  8  9  1  6
  8  7  1  0
 10 11  2  0
 13 12  1  6
 13 14  1  0
 15 13  1  0
 16 15  1  1
 16 17  1  0
 17 10  1  0
 18 16  1  0
 19 18  2  0
 20 18  1  0
 21 20  1  0
 21 22  1  1
 22 23  1  0
 23 27  1  0
 23 24  2  0
 25 21  1  0
 26 25  2  0
 28 25  1  0
M  END
$$$$
