RLD.pdb
     RDKit          3D

 28 27  0  0  1  0  0  0  0  0999 V2000
   27.1794  -17.3358  -19.7274 N   0  0  0  0  0  0  0  0  0  0  0  0
   25.9870  -16.8184  -19.1151 C   0  0  0  0  0  0  0  0  0  0  0  0
   24.9859  -16.6006  -19.8730 N   0  0  0  0  0  0  0  0  0  0  0  0
   25.9903  -16.5832  -17.7165 N   0  0  0  0  0  0  0  0  0  0  0  0
   27.2030  -16.8371  -16.9698 C   0  0  0  0  0  0  0  0  0  0  0  0
   27.5065  -18.2915  -16.8396 C   0  0  0  0  0  0  0  0  0  0  0  0
   26.5604  -19.1016  -16.0473 C   0  0  0  0  0  0  0  0  0  0  0  0
   27.1301  -19.9758  -14.9897 C   0  0  2  0  0  0  0  0  0  0  0  0
   27.8815  -21.0522  -15.6567 N   0  0  0  0  0  0  0  0  0  0  0  0
   26.0706  -20.6138  -14.1503 C   0  0  0  0  0  0  0  0  0  0  0  0
   25.4602  -21.6607  -14.5531 O   0  0  0  0  0  0  0  0  0  0  0  0
   24.0701  -16.2123  -19.6005 C   0  0  0  0  0  0  0  0  0  0  0  0
   26.3935  -22.3256  -10.1419 C   0  0  2  0  0  0  0  0  0  0  0  0
   26.2583  -20.7823  -10.1074 C   0  0  0  0  0  0  0  0  0  0  0  0
   26.5022  -20.3958   -8.6874 C   0  0  0  0  0  0  0  0  0  0  0  0
   24.9090  -20.4764  -10.6204 C   0  0  2  0  0  0  0  0  0  0  0  0
   24.6309  -20.7680  -12.0639 N   0  0  0  0  0  0  0  0  0  0  0  0
   25.6807  -20.1164  -12.8868 C   0  0  0  0  0  0  0  0  0  0  0  0
   23.3503  -20.2015  -12.5331 O   0  0  0  0  0  0  0  0  0  0  0  0
   23.3772  -19.1045  -13.1850 N   0  0  0  0  0  0  0  0  0  0  0  0
   22.0813  -20.8030  -12.3090 C   0  0  1  0  0  0  0  0  0  0  0  0
   21.0832  -20.7626  -13.3910 C   0  0  0  0  0  0  0  0  0  0  0  0
   21.5762  -21.5605  -14.5720 C   0  0  0  0  0  0  0  0  0  0  0  0
   20.6095  -21.6684  -15.6794 O   0  0  0  0  0  0  0  0  0  0  0  0
   20.9640  -22.3385  -16.7059 C   0  0  0  0  0  0  0  0  0  0  0  0
   19.8525  -21.4107  -12.8760 O   0  0  0  0  0  0  0  0  0  0  0  0
   18.7533  -20.7593  -12.9271 O   0  0  0  0  0  0  0  0  0  0  0  0
   19.3526  -21.1167  -15.7273 O   0  0  0  0  0  0  0  0  0  0  0  0
  2  1  1  0
  2  4  1  0
  3  2  2  0
  5  4  1  0
  6  5  1  0
  7  6  1  0
  8 10  1  0
  8  9  1  6
  8  7  1  0
 10 11  2  0
 13 12  1  6
 13 14  1  0
 15 13  1  0
 16 15  1  1
 16 17  1  0
 17 10  1  0
 18 16  1  0
 19 18  2  0
 20 18  1  0
 21 20  1  0
 21 22  1  6
 22 23  1  0
 23 27  1  0
 23 24  2  0
 25 21  1  0
 26 25  2  0
 28 25  1  0
M  END
$$$$
