RLD.pdb
     RDKit          3D

 28 27  0  0  1  0  0  0  0  0999 V2000
   26.7304  -21.3286  -18.7647 N   0  0  0  0  0  0  0  0  0  0  0  0
   26.0440  -20.1071  -19.0831 C   0  0  0  0  0  0  0  0  0  0  0  0
   25.3527  -20.0850  -20.1535 N   0  0  0  0  0  0  0  0  0  0  0  0
   26.1714  -19.0071  -18.1971 N   0  0  0  0  0  0  0  0  0  0  0  0
   26.2044  -19.2592  -16.7730 C   0  0  0  0  0  0  0  0  0  0  0  0
   24.8882  -19.7107  -16.2363 C   0  0  0  0  0  0  0  0  0  0  0  0
   24.8014  -19.9271  -14.7787 C   0  0  0  0  0  0  0  0  0  0  0  0
   26.0774  -20.0991  -14.0374 C   0  0  2  0  0  0  0  0  0  0  0  0
   26.8962  -21.0736  -14.7776 N   0  0  0  0  0  0  0  0  0  0  0  0
   25.8642  -20.6381  -12.6596 C   0  0  0  0  0  0  0  0  0  0  0  0
   25.5019  -21.8496  -12.4809 O   0  0  0  0  0  0  0  0  0  0  0  0
   24.8316  -19.2847  -20.5430 C   0  0  0  0  0  0  0  0  0  0  0  0
   27.2667  -18.9476   -6.9250 C   0  0  1  0  0  0  0  0  0  0  0  0
   26.4363  -19.9899   -7.7159 C   0  0  0  0  0  0  0  0  0  0  0  0
   27.0016  -21.3168   -7.3352 C   0  0  0  0  0  0  0  0  0  0  0  0
   26.5759  -19.6311   -9.1404 C   0  0  2  0  0  0  0  0  0  0  0  0
   25.7548  -20.3955  -10.1340 N   0  0  0  0  0  0  0  0  0  0  0  0
   26.0432  -19.8656  -11.4905 C   0  0  0  0  0  0  0  0  0  0  0  0
   24.3011  -20.2210   -9.9407 O   0  0  0  0  0  0  0  0  0  0  0  0
   23.8488  -19.0368   -9.7913 N   0  0  0  0  0  0  0  0  0  0  0  0
   23.3650  -21.2913   -9.9138 C   0  0  1  0  0  0  0  0  0  0  0  0
   21.9369  -20.9722   -9.7491 C   0  0  0  0  0  0  0  0  0  0  0  0
   21.1210  -21.7425  -10.7569 C   0  0  0  0  0  0  0  0  0  0  0  0
   21.0634  -21.1238  -12.0934 O   0  0  0  0  0  0  0  0  0  0  0  0
   21.5075  -19.9331  -12.2096 C   0  0  0  0  0  0  0  0  0  0  0  0
   21.5413  -21.4224   -8.3923 O   0  0  0  0  0  0  0  0  0  0  0  0
   22.3207  -22.2164   -7.7620 O   0  0  0  0  0  0  0  0  0  0  0  0
   20.5750  -21.6970  -13.2420 O   0  0  0  0  0  0  0  0  0  0  0  0
  2  1  1  0
  2  4  1  0
  3  2  2  0
  5  4  1  0
  6  5  1  0
  7  6  1  0
  8 10  1  0
  8  9  1  6
  8  7  1  0
 10 11  2  0
 13 12  1  1
 13 14  1  0
 15 13  1  0
 16 15  1  6
 16 17  1  0
 17 10  1  0
 18 16  1  0
 19 18  2  0
 20 18  1  0
 21 20  1  0
 21 22  1  1
 22 23  1  0
 23 27  1  0
 23 24  2  0
 25 21  1  0
 26 25  2  0
 28 25  1  0
M  END
$$$$
