RLD.pdb
     RDKit          3D

 28 27  0  0  1  0  0  0  0  0999 V2000
   17.1370  -22.7787  -10.3647 N   0  0  0  0  0  0  0  0  0  0  0  0
   17.0653  -23.7723  -11.4001 C   0  0  0  0  0  0  0  0  0  0  0  0
   15.9270  -24.2970  -11.6313 N   0  0  0  0  0  0  0  0  0  0  0  0
   18.2518  -24.1087  -12.1002 N   0  0  0  0  0  0  0  0  0  0  0  0
   19.4251  -23.2816  -11.9213 C   0  0  0  0  0  0  0  0  0  0  0  0
   19.5464  -22.2196  -12.9614 C   0  0  0  0  0  0  0  0  0  0  0  0
   20.7607  -21.3814  -12.9196 C   0  0  0  0  0  0  0  0  0  0  0  0
   21.2135  -20.9023  -11.5882 C   0  0  2  0  0  0  0  0  0  0  0  0
   20.3398  -19.7841  -11.1949 N   0  0  0  0  0  0  0  0  0  0  0  0
   22.6185  -20.3928  -11.6168 C   0  0  0  0  0  0  0  0  0  0  0  0
   22.8967  -19.2741  -12.1664 O   0  0  0  0  0  0  0  0  0  0  0  0
   15.7094  -25.0391  -12.3135 C   0  0  0  0  0  0  0  0  0  0  0  0
   25.9832  -19.2150   -8.6252 C   0  0  2  0  0  0  0  0  0  0  0  0
   25.6101  -20.7189   -8.6376 C   0  0  0  0  0  0  0  0  0  0  0  0
   26.4385  -21.3406   -7.5640 C   0  0  0  0  0  0  0  0  0  0  0  0
   25.8871  -21.1998  -10.0048 C   0  0  2  0  0  0  0  0  0  0  0  0
   25.1026  -20.5926  -11.1282 N   0  0  0  0  0  0  0  0  0  0  0  0
   23.7075  -21.0947  -11.0537 C   0  0  0  0  0  0  0  0  0  0  0  0
   25.5970  -20.9908  -12.4616 O   0  0  0  0  0  0  0  0  0  0  0  0
   25.3111  -22.1592  -12.8883 N   0  0  0  0  0  0  0  0  0  0  0  0
   26.3721  -20.1520  -13.3090 C   0  0  1  0  0  0  0  0  0  0  0  0
   26.7176  -20.6392  -14.6550 C   0  0  0  0  0  0  0  0  0  0  0  0
   26.9986  -19.4703  -15.5657 C   0  0  0  0  0  0  0  0  0  0  0  0
   27.4400  -19.8472  -16.9205 O   0  0  0  0  0  0  0  0  0  0  0  0
   27.3242  -21.0728  -17.2568 C   0  0  0  0  0  0  0  0  0  0  0  0
   27.9624  -21.4354  -14.5265 O   0  0  0  0  0  0  0  0  0  0  0  0
   28.7439  -21.1906  -13.5444 O   0  0  0  0  0  0  0  0  0  0  0  0
   27.9714  -19.0113  -17.8721 O   0  0  0  0  0  0  0  0  0  0  0  0
  2  1  1  0
  2  4  1  0
  3  2  2  0
  5  4  1  0
  6  5  1  0
  7  6  1  0
  8 10  1  0
  8  9  1  6
  8  7  1  0
 10 11  2  0
 13 12  1  1
 13 14  1  0
 15 13  1  0
 16 15  1  1
 16 17  1  0
 17 10  1  0
 18 16  1  0
 19 18  2  0
 20 18  1  0
 21 20  1  0
 21 22  1  1
 22 23  1  0
 23 27  1  0
 23 24  2  0
 25 21  1  0
 26 25  2  0
 28 25  1  0
M  END
$$$$
