RLD.pdb
     RDKit          3D

 28 27  0  0  1  0  0  0  0  0999 V2000
   11.3686  -11.5254  -14.8218 N   0  0  0  0  0  0  0  0  0  0  0  0
   11.5686  -12.9080  -15.1579 C   0  0  0  0  0  0  0  0  0  0  0  0
   10.5316  -13.6407  -15.2676 N   0  0  0  0  0  0  0  0  0  0  0  0
   12.8943  -13.3745  -15.3484 N   0  0  0  0  0  0  0  0  0  0  0  0
   13.9847  -12.4271  -15.2700 C   0  0  0  0  0  0  0  0  0  0  0  0
   15.3117  -13.0509  -15.5425 C   0  0  0  0  0  0  0  0  0  0  0  0
   16.4611  -12.1361  -15.6873 C   0  0  0  0  0  0  0  0  0  0  0  0
   17.7582  -12.7307  -16.1014 C   0  0  2  0  0  0  0  0  0  0  0  0
   17.7718  -14.1321  -15.6497 N   0  0  0  0  0  0  0  0  0  0  0  0
   18.9249  -12.0393  -15.4728 C   0  0  0  0  0  0  0  0  0  0  0  0
   19.1138  -12.0928  -14.2109 O   0  0  0  0  0  0  0  0  0  0  0  0
   10.4984  -14.6420  -15.5122 C   0  0  0  0  0  0  0  0  0  0  0  0
   24.6709  -11.0224  -16.4440 C   0  0  1  0  0  0  0  0  0  0  0  0
   23.5069  -10.3414  -15.6808 C   0  0  0  0  0  0  0  0  0  0  0  0
   23.8657  -10.4468  -14.2367 C   0  0  0  0  0  0  0  0  0  0  0  0
   22.2798  -11.0579  -16.0787 C   0  0  2  0  0  0  0  0  0  0  0  0
   20.9725  -10.5396  -15.5607 N   0  0  0  0  0  0  0  0  0  0  0  0
   19.8743  -11.2979  -16.2109 C   0  0  0  0  0  0  0  0  0  0  0  0
   20.7341   -9.1231  -15.9037 O   0  0  0  0  0  0  0  0  0  0  0  0
   20.4836   -8.8295  -17.1204 N   0  0  0  0  0  0  0  0  0  0  0  0
   20.7611   -8.0580  -14.9618 C   0  0  1  0  0  0  0  0  0  0  0  0
   20.5757   -6.6816  -15.4515 C   0  0  0  0  0  0  0  0  0  0  0  0
   20.1294   -5.7914  -14.3188 C   0  0  0  0  0  0  0  0  0  0  0  0
   20.0264   -4.3640  -14.6714 O   0  0  0  0  0  0  0  0  0  0  0  0
   19.4400   -4.0697  -15.7659 C   0  0  0  0  0  0  0  0  0  0  0  0
   21.8979   -6.2027  -15.9231 O   0  0  0  0  0  0  0  0  0  0  0  0
   22.9464   -6.6123  -15.3165 O   0  0  0  0  0  0  0  0  0  0  0  0
   20.5015   -3.3024  -13.9407 O   0  0  0  0  0  0  0  0  0  0  0  0
  2  1  1  0
  2  4  1  0
  3  2  2  0
  5  4  1  0
  6  5  1  0
  7  6  1  0
  8 10  1  0
  8  9  1  1
  8  7  1  0
 10 11  2  0
 13 12  1  6
 13 14  1  0
 15 13  1  0
 16 15  1  1
 16 17  1  0
 17 10  1  0
 18 16  1  0
 19 18  2  0
 20 18  1  0
 21 20  1  0
 21 22  1  6
 22 23  1  0
 23 27  1  0
 23 24  2  0
 25 21  1  0
 26 25  2  0
 28 25  1  0
M  END
$$$$
