PWG.pdb
     RDKit          3D

 26 28  0  0  1  0  0  0  0  0999 V2000
   27.2128  -18.6876  -14.2377 N   0  0  0  0  0  0  0  0  0  0  0  0
   28.2000  -18.3402  -15.2456 C   0  0  0  0  0  0  0  0  0  0  0  0
   29.1861  -19.4966  -15.2582 C   0  0  0  0  0  0  0  0  0  0  0  0
   28.5847  -20.5317  -14.3362 C   0  0  0  0  0  0  0  0  0  0  0  0
   27.1198  -20.1401  -14.3305 C   0  0  1  0  0  0  0  0  0  0  0  0
   26.3805  -20.7550  -13.2234 C   0  0  0  0  0  0  0  0  0  0  0  0
   26.1631  -22.0058  -13.3011 O   0  0  0  0  0  0  0  0  0  0  0  0
   25.8850  -20.0968  -12.0760 N   0  0  0  0  0  0  0  0  0  0  0  0
   25.0556  -20.8024  -11.0907 C   0  0  1  0  0  0  0  0  0  0  0  0
   25.5487  -20.6811   -9.7179 C   0  0  0  0  0  0  0  0  0  0  0  0
   26.9669  -20.8148   -9.4323 C   0  0  0  0  0  0  0  0  0  0  0  0
   27.9253  -21.4708  -10.2173 C   0  0  0  0  0  0  0  0  0  0  0  0
   29.1449  -21.3609   -9.6795 N   0  0  0  0  0  0  0  0  0  0  0  0
   29.0213  -20.6484   -8.5555 C   0  0  0  0  0  0  0  0  0  0  0  0
   29.9843  -20.2825   -7.6400 C   0  0  0  0  0  0  0  0  0  0  0  0
   29.6087  -19.5691   -6.5471 C   0  0  0  0  0  0  0  0  0  0  0  0
   28.3106  -19.1990   -6.3189 C   0  0  0  0  0  0  0  0  0  0  0  0
   27.3660  -19.5804   -7.2566 C   0  0  0  0  0  0  0  0  0  0  0  0
   27.6809  -20.3060   -8.3912 C   0  0  0  0  0  0  0  0  0  0  0  0
   23.6512  -20.5572  -11.3282 C   0  0  0  0  0  0  0  0  0  0  0  0
   23.1290  -19.4580  -11.0361 O   0  0  0  0  0  0  0  0  0  0  0  0
   22.7734  -21.5481  -11.9004 N   0  0  0  0  0  0  0  0  0  0  0  0
   21.3909  -21.4052  -12.1650 C   0  0  0  0  0  0  0  0  0  0  0  0
   21.0030  -20.9281  -13.4947 C   0  0  0  0  0  0  0  0  0  0  0  0
   19.9098  -21.4472  -14.1520 O   0  0  0  0  0  0  0  0  0  0  0  0
   21.6647  -20.0283  -14.0620 O   0  0  0  0  0  0  0  0  0  0  0  0
  1  2  1  0
  2  3  1  0
  4  3  1  0
  5  6  1  1
  5  1  1  0
  5  4  1  0
  6  8  1  0
  7  6  2  0
  8  9  1  0
  9 10  1  1
 10 11  1  0
 11 19  1  0
 12 11  2  0
 12 13  1  0
 13 14  1  0
 14 15  1  0
 15 16  2  0
 17 16  1  0
 18 17  2  0
 19 14  2  0
 19 18  1  0
 20  9  1  0
 21 20  2  0
 22 20  1  0
 23 22  1  0
 24 23  1  0
 25 24  1  0
 26 24  2  0
M  END
$$$$
