PWG.pdb
     RDKit          3D

 26 28  0  0  1  0  0  0  0  0999 V2000
   27.4888  -20.8373  -15.6867 N   0  0  0  0  0  0  0  0  0  0  0  0
   28.5166  -20.5754  -16.6797 C   0  0  0  0  0  0  0  0  0  0  0  0
   28.4122  -19.0901  -16.9847 C   0  0  0  0  0  0  0  0  0  0  0  0
   27.4019  -18.5591  -15.9945 C   0  0  0  0  0  0  0  0  0  0  0  0
   27.4453  -19.6091  -14.9014 C   0  0  1  0  0  0  0  0  0  0  0  0
   26.2915  -19.5266  -14.0001 C   0  0  0  0  0  0  0  0  0  0  0  0
   26.1517  -18.4476  -13.3414 O   0  0  0  0  0  0  0  0  0  0  0  0
   25.3165  -20.5270  -13.7900 N   0  0  0  0  0  0  0  0  0  0  0  0
   24.1455  -20.2834  -12.9379 C   0  0  1  0  0  0  0  0  0  0  0  0
   22.8708  -20.5444  -13.6082 C   0  0  0  0  0  0  0  0  0  0  0  0
   22.4722  -19.7556  -14.7614 C   0  0  0  0  0  0  0  0  0  0  0  0
   23.1118  -19.7045  -16.0077 C   0  0  0  0  0  0  0  0  0  0  0  0
   22.4496  -18.9107  -16.8563 N   0  0  0  0  0  0  0  0  0  0  0  0
   21.3854  -18.4319  -16.2049 C   0  0  0  0  0  0  0  0  0  0  0  0
   20.4103  -17.5609  -16.6407 C   0  0  0  0  0  0  0  0  0  0  0  0
   19.4280  -17.1952  -15.7772 C   0  0  0  0  0  0  0  0  0  0  0  0
   19.3681  -17.6578  -14.4901 C   0  0  0  0  0  0  0  0  0  0  0  0
   20.3610  -18.5320  -14.0815 C   0  0  0  0  0  0  0  0  0  0  0  0
   21.3886  -18.9456  -14.9098 C   0  0  0  0  0  0  0  0  0  0  0  0
   24.3419  -20.8412  -11.6192 C   0  0  0  0  0  0  0  0  0  0  0  0
   24.8178  -21.9886  -11.4675 O   0  0  0  0  0  0  0  0  0  0  0  0
   24.0015  -20.1275  -10.4131 N   0  0  0  0  0  0  0  0  0  0  0  0
   24.2779  -20.5271   -9.0843 C   0  0  0  0  0  0  0  0  0  0  0  0
   25.6846  -20.6406   -8.6914 C   0  0  0  0  0  0  0  0  0  0  0  0
   26.0452  -21.0669   -7.4324 O   0  0  0  0  0  0  0  0  0  0  0  0
   26.5937  -20.3511   -9.5032 O   0  0  0  0  0  0  0  0  0  0  0  0
  1  2  1  0
  2  3  1  0
  4  3  1  0
  5  6  1  1
  5  1  1  0
  5  4  1  0
  6  8  1  0
  7  6  2  0
  8  9  1  0
  9 10  1  6
 10 11  1  0
 11 19  1  0
 12 11  2  0
 12 13  1  0
 13 14  1  0
 14 15  1  0
 15 16  2  0
 17 16  1  0
 18 17  2  0
 19 14  2  0
 19 18  1  0
 20  9  1  0
 21 20  2  0
 22 20  1  0
 23 22  1  0
 24 23  1  0
 25 24  1  0
 26 24  2  0
M  END
$$$$
