PWG.pdb
     RDKit          3D

 26 28  0  0  1  0  0  0  0  0999 V2000
   26.4018  -22.5702  -17.6631 N   0  0  0  0  0  0  0  0  0  0  0  0
   26.7116  -22.7875  -19.0659 C   0  0  0  0  0  0  0  0  0  0  0  0
   26.6357  -21.4140  -19.7121 C   0  0  0  0  0  0  0  0  0  0  0  0
   26.4356  -20.4533  -18.5632 C   0  0  0  0  0  0  0  0  0  0  0  0
   26.9601  -21.2517  -17.3856 C   0  0  1  0  0  0  0  0  0  0  0  0
   26.5377  -20.6922  -16.0976 C   0  0  0  0  0  0  0  0  0  0  0  0
   26.8738  -19.4898  -15.8544 O   0  0  0  0  0  0  0  0  0  0  0  0
   25.7924  -21.3554  -15.0975 N   0  0  0  0  0  0  0  0  0  0  0  0
   25.3521  -20.6550  -13.8842 C   0  0  1  0  0  0  0  0  0  0  0  0
   23.9302  -20.3078  -13.8934 C   0  0  0  0  0  0  0  0  0  0  0  0
   23.3527  -19.6060  -15.0269 C   0  0  0  0  0  0  0  0  0  0  0  0
   23.5123  -18.2508  -15.3477 C   0  0  0  0  0  0  0  0  0  0  0  0
   22.8791  -17.9479  -16.4862 N   0  0  0  0  0  0  0  0  0  0  0  0
   22.3015  -19.0684  -16.9303 C   0  0  0  0  0  0  0  0  0  0  0  0
   21.5232  -19.2684  -18.0499 C   0  0  0  0  0  0  0  0  0  0  0  0
   21.0203  -20.5082  -18.2827 C   0  0  0  0  0  0  0  0  0  0  0  0
   21.2560  -21.5678  -17.4486 C   0  0  0  0  0  0  0  0  0  0  0  0
   22.0420  -21.3363  -16.3325 C   0  0  0  0  0  0  0  0  0  0  0  0
   22.5859  -20.0993  -16.0373 C   0  0  0  0  0  0  0  0  0  0  0  0
   25.8849  -21.2896  -12.7000 C   0  0  0  0  0  0  0  0  0  0  0  0
   25.9022  -22.5358  -12.5873 O   0  0  0  0  0  0  0  0  0  0  0  0
   26.4153  -20.5413  -11.5871 N   0  0  0  0  0  0  0  0  0  0  0  0
   25.6803  -19.9712  -10.5210 C   0  0  0  0  0  0  0  0  0  0  0  0
   24.7705  -20.8497   -9.7814 C   0  0  0  0  0  0  0  0  0  0  0  0
   24.9930  -21.1622   -8.4587 O   0  0  0  0  0  0  0  0  0  0  0  0
   23.7624  -21.3350  -10.3448 O   0  0  0  0  0  0  0  0  0  0  0  0
  1  2  1  0
  2  3  1  0
  4  3  1  0
  5  6  1  1
  5  1  1  0
  5  4  1  0
  6  8  1  0
  7  6  2  0
  8  9  1  0
  9 10  1  1
 10 11  1  0
 11 19  1  0
 12 11  2  0
 12 13  1  0
 13 14  1  0
 14 15  1  0
 15 16  2  0
 17 16  1  0
 18 17  2  0
 19 14  2  0
 19 18  1  0
 20  9  1  0
 21 20  2  0
 22 20  1  0
 23 22  1  0
 24 23  1  0
 25 24  1  0
 26 24  2  0
M  END
$$$$
