PWG.pdb
     RDKit          3D

 26 28  0  0  1  0  0  0  0  0999 V2000
   27.3273  -19.1828  -13.7042 N   0  0  0  0  0  0  0  0  0  0  0  0
   28.2229  -19.1119  -14.8460 C   0  0  0  0  0  0  0  0  0  0  0  0
   29.1941  -20.2673  -14.6678 C   0  0  0  0  0  0  0  0  0  0  0  0
   28.6692  -21.0378  -13.4787 C   0  0  0  0  0  0  0  0  0  0  0  0
   27.2141  -20.6129  -13.4413 C   0  0  1  0  0  0  0  0  0  0  0  0
   26.5720  -20.9276  -12.1611 C   0  0  0  0  0  0  0  0  0  0  0  0
   26.3252  -22.1532  -11.9270 O   0  0  0  0  0  0  0  0  0  0  0  0
   26.1999  -20.0046  -11.1586 N   0  0  0  0  0  0  0  0  0  0  0  0
   25.4932  -20.4388   -9.9468 C   0  0  1  0  0  0  0  0  0  0  0  0
   26.0602  -19.8932   -8.7125 C   0  0  0  0  0  0  0  0  0  0  0  0
   27.3855  -20.2945   -8.2729 C   0  0  0  0  0  0  0  0  0  0  0  0
   28.3505  -20.9785   -9.0252 C   0  0  0  0  0  0  0  0  0  0  0  0
   29.4774  -21.1458   -8.3245 N   0  0  0  0  0  0  0  0  0  0  0  0
   29.2855  -20.5904   -7.1241 C   0  0  0  0  0  0  0  0  0  0  0  0
   30.1397  -20.5198   -6.0448 C   0  0  0  0  0  0  0  0  0  0  0  0
   29.7061  -19.9182   -4.9071 C   0  0  0  0  0  0  0  0  0  0  0  0
   28.4533  -19.3788   -4.7899 C   0  0  0  0  0  0  0  0  0  0  0  0
   27.6183  -19.4642   -5.8910 C   0  0  0  0  0  0  0  0  0  0  0  0
   27.9971  -20.0620   -7.0794 C   0  0  0  0  0  0  0  0  0  0  0  0
   24.0615  -20.3561  -10.1267 C   0  0  0  0  0  0  0  0  0  0  0  0
   23.5305  -19.3367  -10.6215 O   0  0  0  0  0  0  0  0  0  0  0  0
   23.1661  -21.4212   -9.7476 N   0  0  0  0  0  0  0  0  0  0  0  0
   21.7573  -21.4316   -9.8773 C   0  0  0  0  0  0  0  0  0  0  0  0
   21.2034  -21.4421  -11.2335 C   0  0  0  0  0  0  0  0  0  0  0  0
   20.0892  -20.7006  -11.5587 O   0  0  0  0  0  0  0  0  0  0  0  0
   21.7407  -22.1312  -12.1311 O   0  0  0  0  0  0  0  0  0  0  0  0
  1  2  1  0
  2  3  1  0
  4  3  1  0
  5  6  1  1
  5  1  1  0
  5  4  1  0
  6  8  1  0
  7  6  2  0
  8  9  1  0
  9 10  1  1
 10 11  1  0
 11 19  1  0
 12 11  2  0
 12 13  1  0
 13 14  1  0
 14 15  1  0
 15 16  2  0
 17 16  1  0
 18 17  2  0
 19 14  2  0
 19 18  1  0
 20  9  1  0
 21 20  2  0
 22 20  1  0
 23 22  1  0
 24 23  1  0
 25 24  1  0
 26 24  2  0
M  END
$$$$
