PWG.pdb
     RDKit          3D

 26 28  0  0  1  0  0  0  0  0999 V2000
   27.0165  -21.2846  -15.4633 N   0  0  0  0  0  0  0  0  0  0  0  0
   28.4218  -21.4325  -15.8016 C   0  0  0  0  0  0  0  0  0  0  0  0
   29.1134  -20.2290  -15.1826 C   0  0  0  0  0  0  0  0  0  0  0  0
   28.0415  -19.5375  -14.3726 C   0  0  0  0  0  0  0  0  0  0  0  0
   27.0416  -20.6550  -14.1479 C   0  0  1  0  0  0  0  0  0  0  0  0
   25.7345  -20.1564  -13.7084 C   0  0  0  0  0  0  0  0  0  0  0  0
   25.6996  -19.5313  -12.6013 O   0  0  0  0  0  0  0  0  0  0  0  0
   24.5072  -20.3000  -14.3929 N   0  0  0  0  0  0  0  0  0  0  0  0
   23.3079  -19.5656  -13.9699 C   0  0  1  0  0  0  0  0  0  0  0  0
   22.9607  -18.4537  -14.8562 C   0  0  0  0  0  0  0  0  0  0  0  0
   23.8951  -17.3609  -15.0644 C   0  0  0  0  0  0  0  0  0  0  0  0
   25.0826  -17.1230  -14.3584 C   0  0  0  0  0  0  0  0  0  0  0  0
   25.7243  -16.0539  -14.8423 N   0  0  0  0  0  0  0  0  0  0  0  0
   24.9923  -15.5742  -15.8525 C   0  0  0  0  0  0  0  0  0  0  0  0
   25.2194  -14.4771  -16.6551 C   0  0  0  0  0  0  0  0  0  0  0  0
   24.3078  -14.1692  -17.6135 C   0  0  0  0  0  0  0  0  0  0  0  0
   23.1716  -14.9060  -17.8139 C   0  0  0  0  0  0  0  0  0  0  0  0
   22.9714  -16.0027  -16.9927 C   0  0  0  0  0  0  0  0  0  0  0  0
   23.8597  -16.3721  -15.9990 C   0  0  0  0  0  0  0  0  0  0  0  0
   22.2541  -20.4767  -13.5845 C   0  0  0  0  0  0  0  0  0  0  0  0
   21.9181  -21.4266  -14.3266 O   0  0  0  0  0  0  0  0  0  0  0  0
   21.5287  -20.3485  -12.3447 N   0  0  0  0  0  0  0  0  0  0  0  0
   20.2304  -20.8376  -12.0671 C   0  0  0  0  0  0  0  0  0  0  0  0
   20.0041  -22.2773  -12.2168 C   0  0  0  0  0  0  0  0  0  0  0  0
   19.4562  -23.0265  -11.1994 O   0  0  0  0  0  0  0  0  0  0  0  0
   20.3061  -22.8575  -13.2852 O   0  0  0  0  0  0  0  0  0  0  0  0
  1  2  1  0
  2  3  1  0
  4  3  1  0
  5  6  1  6
  5  1  1  0
  5  4  1  0
  6  8  1  0
  7  6  2  0
  8  9  1  0
  9 10  1  6
 10 11  1  0
 11 19  1  0
 12 11  2  0
 12 13  1  0
 13 14  1  0
 14 15  1  0
 15 16  2  0
 17 16  1  0
 18 17  2  0
 19 14  2  0
 19 18  1  0
 20  9  1  0
 21 20  2  0
 22 20  1  0
 23 22  1  0
 24 23  1  0
 25 24  1  0
 26 24  2  0
M  END
$$$$
