QTQ.pdb
     RDKit          3D

 26 25  0  0  1  0  0  0  0  0999 V2000
    8.8708  -12.4392   15.9339 N   0  0  0  0  0  0  0  0  0  0  0  0
    8.8024  -13.8248   15.6316 C   0  0  0  0  0  0  0  0  0  0  0  0
    8.2446  -14.2635   14.6112 O   0  0  0  0  0  0  0  0  0  0  0  0
    9.4425  -14.7636   16.6101 C   0  0  0  0  0  0  0  0  0  0  0  0
    9.9690  -13.9504   17.7428 C   0  0  0  0  0  0  0  0  0  0  0  0
   10.7003  -14.7401   18.8064 C   0  0  2  0  0  0  0  0  0  0  0  0
   10.2434  -16.1329   18.5966 N   0  0  0  0  0  0  0  0  0  0  0  0
   10.3129  -14.3786   20.1867 C   0  0  0  0  0  0  0  0  0  0  0  0
   10.6259  -13.2440   20.6274 O   0  0  0  0  0  0  0  0  0  0  0  0
    6.9253  -14.2340   21.7693 C   0  0  0  0  0  0  0  0  0  0  0  0
    7.7346  -15.2536   22.5411 C   0  0  1  0  0  0  0  0  0  0  0  0
    7.5256  -16.5380   22.1050 O   0  0  0  0  0  0  0  0  0  0  0  0
    9.2013  -14.8168   22.4192 C   0  0  2  0  0  0  0  0  0  0  0  0
    9.6028  -15.2115   21.0805 N   0  0  0  0  0  0  0  0  0  0  0  0
    9.9609  -15.5643   23.4521 C   0  0  0  0  0  0  0  0  0  0  0  0
   11.2105  -15.4052   23.6068 O   0  0  0  0  0  0  0  0  0  0  0  0
    9.4258  -13.2912   28.0642 N   0  0  0  0  0  0  0  0  0  0  0  0
   10.0546  -14.3930   28.6526 C   0  0  0  0  0  0  0  0  0  0  0  0
   10.4755  -14.3422   29.8222 O   0  0  0  0  0  0  0  0  0  0  0  0
   10.2220  -15.6526   27.8590 C   0  0  0  0  0  0  0  0  0  0  0  0
    9.7392  -15.4414   26.4483 C   0  0  0  0  0  0  0  0  0  0  0  0
    9.8053  -16.7220   25.6781 C   0  0  2  0  0  0  0  0  0  0  0  0
    9.3143  -16.4756   24.2943 N   0  0  0  0  0  0  0  0  0  0  0  0
    9.0227  -17.8336   26.2458 C   0  0  0  0  0  0  0  0  0  0  0  0
    7.8702  -18.1125   25.8952 O   0  0  0  0  0  0  0  0  0  0  0  0
    9.5923  -18.6326   27.2373 O   0  0  0  0  0  0  0  0  0  0  0  0
  1  2  1  0
  2  3  2  0
  2  4  1  0
  4  5  1  0
  5  6  1  0
  6  8  1  0
  6  7  1  6
  8 14  1  0
  9  8  2  0
 11 10  1  6
 11 12  1  0
 13 11  1  0
 13 14  1  6
 15 16  2  0
 15 13  1  0
 17 18  1  0
 18 19  2  0
 20 18  1  0
 20 21  1  0
 22 21  1  1
 22 23  1  0
 23 15  1  0
 24 22  1  0
 25 24  2  0
 26 24  1  0
M  END
$$$$
