QTQ.pdb
     RDKit          3D

 26 25  0  0  1  0  0  0  0  0999 V2000
   14.5945  -15.2097   18.7684 N   0  0  0  0  0  0  0  0  0  0  0  0
   13.9895  -14.1345   19.4711 C   0  0  0  0  0  0  0  0  0  0  0  0
   14.6487  -13.2518   20.0465 O   0  0  0  0  0  0  0  0  0  0  0  0
   12.4906  -14.1000   19.4956 C   0  0  0  0  0  0  0  0  0  0  0  0
   11.9959  -15.2851   18.7392 C   0  0  0  0  0  0  0  0  0  0  0  0
   10.4898  -15.4168   18.6774 C   0  0  2  0  0  0  0  0  0  0  0  0
   10.0371  -14.1104   18.1469 N   0  0  0  0  0  0  0  0  0  0  0  0
    9.8519  -15.5716   20.0022 C   0  0  0  0  0  0  0  0  0  0  0  0
    9.1095  -14.6520   20.4294 O   0  0  0  0  0  0  0  0  0  0  0  0
    7.7114  -18.3691   21.0990 C   0  0  0  0  0  0  0  0  0  0  0  0
    8.8141  -18.2954   22.1328 C   0  0  1  0  0  0  0  0  0  0  0  0
    9.8184  -19.2023   21.9039 O   0  0  0  0  0  0  0  0  0  0  0  0
    9.3123  -16.8433   22.1243 C   0  0  2  0  0  0  0  0  0  0  0  0
   10.0015  -16.6881   20.8555 N   0  0  0  0  0  0  0  0  0  0  0  0
   10.2488  -16.7023   23.2671 C   0  0  0  0  0  0  0  0  0  0  0  0
   11.5068  -16.7602   23.1097 O   0  0  0  0  0  0  0  0  0  0  0  0
   10.0279  -15.0029   30.2826 N   0  0  0  0  0  0  0  0  0  0  0  0
   10.2011  -14.4832   28.9960 C   0  0  0  0  0  0  0  0  0  0  0  0
    9.7875  -13.3473   28.7022 O   0  0  0  0  0  0  0  0  0  0  0  0
   10.8959  -15.3103   27.9579 C   0  0  0  0  0  0  0  0  0  0  0  0
   10.0093  -15.4757   26.7520 C   0  0  0  0  0  0  0  0  0  0  0  0
   10.7003  -16.2913   25.7056 C   0  0  2  0  0  0  0  0  0  0  0  0
    9.7666  -16.4991   24.5648 N   0  0  0  0  0  0  0  0  0  0  0  0
   11.1704  -17.6137   26.1536 C   0  0  0  0  0  0  0  0  0  0  0  0
   10.5169  -18.6555   26.0251 O   0  0  0  0  0  0  0  0  0  0  0  0
   12.4216  -17.7234   26.7606 O   0  0  0  0  0  0  0  0  0  0  0  0
  1  2  1  0
  2  3  2  0
  2  4  1  0
  4  5  1  0
  5  6  1  0
  6  8  1  0
  6  7  1  1
  8 14  1  0
  9  8  2  0
 11 10  1  6
 11 12  1  0
 13 11  1  0
 13 14  1  6
 15 16  2  0
 15 13  1  0
 17 18  1  0
 18 19  2  0
 20 18  1  0
 20 21  1  0
 22 21  1  1
 22 23  1  0
 23 15  1  0
 24 22  1  0
 25 24  2  0
 26 24  1  0
M  END
$$$$
