QTQ.pdb
     RDKit          3D

 26 25  0  0  1  0  0  0  0  0999 V2000
   10.2609  -13.5803   19.9992 N   0  0  0  0  0  0  0  0  0  0  0  0
    9.4957  -12.9086   19.0096 C   0  0  0  0  0  0  0  0  0  0  0  0
    9.9666  -12.5714   17.9099 O   0  0  0  0  0  0  0  0  0  0  0  0
    8.0646  -12.6129   19.3456 C   0  0  0  0  0  0  0  0  0  0  0  0
    7.7701  -13.2339   20.6681 C   0  0  0  0  0  0  0  0  0  0  0  0
    7.5785  -14.7345   20.6374 C   0  0  2  0  0  0  0  0  0  0  0  0
    6.3268  -14.9204   19.8681 N   0  0  0  0  0  0  0  0  0  0  0  0
    7.3407  -15.3307   21.9693 C   0  0  0  0  0  0  0  0  0  0  0  0
    6.3458  -14.9497   22.6359 O   0  0  0  0  0  0  0  0  0  0  0  0
    6.3682  -18.4528   22.9993 C   0  0  0  0  0  0  0  0  0  0  0  0
    7.6836  -18.3333   23.7380 C   0  0  1  0  0  0  0  0  0  0  0  0
    8.7144  -18.9706   23.0940 O   0  0  0  0  0  0  0  0  0  0  0  0
    7.9368  -16.8302   23.9207 C   0  0  2  0  0  0  0  0  0  0  0  0
    8.1485  -16.3172   22.5787 N   0  0  0  0  0  0  0  0  0  0  0  0
    9.1617  -16.6969   24.7481 C   0  0  0  0  0  0  0  0  0  0  0  0
   10.1282  -15.9544   24.3942 O   0  0  0  0  0  0  0  0  0  0  0  0
   11.2204  -13.3622   28.0210 N   0  0  0  0  0  0  0  0  0  0  0  0
    9.9335  -13.8670   28.2319 C   0  0  0  0  0  0  0  0  0  0  0  0
    9.0556  -13.1768   28.7802 O   0  0  0  0  0  0  0  0  0  0  0  0
    9.6106  -15.2614   27.7892 C   0  0  0  0  0  0  0  0  0  0  0  0
   10.7972  -15.8675   27.0877 C   0  0  0  0  0  0  0  0  0  0  0  0
   10.5335  -17.3042   26.7652 C   0  0  2  0  0  0  0  0  0  0  0  0
    9.2876  -17.3934   25.9551 N   0  0  0  0  0  0  0  0  0  0  0  0
   10.3794  -18.1887   27.9333 C   0  0  0  0  0  0  0  0  0  0  0  0
    9.3182  -18.7446   28.2394 O   0  0  0  0  0  0  0  0  0  0  0  0
   11.4792  -18.4289   28.7571 O   0  0  0  0  0  0  0  0  0  0  0  0
  1  2  1  0
  2  3  2  0
  2  4  1  0
  4  5  1  0
  5  6  1  0
  6  8  1  0
  6  7  1  6
  8 14  1  0
  9  8  2  0
 11 10  1  6
 11 12  1  0
 13 11  1  0
 13 14  1  6
 15 16  2  0
 15 13  1  0
 17 18  1  0
 18 19  2  0
 20 18  1  0
 20 21  1  0
 22 21  1  1
 22 23  1  0
 23 15  1  0
 24 22  1  0
 25 24  2  0
 26 24  1  0
M  END
$$$$
