QTQ.pdb
     RDKit          3D

 26 25  0  0  1  0  0  0  0  0999 V2000
   11.6076  -17.7235   13.2849 N   0  0  0  0  0  0  0  0  0  0  0  0
   10.6075  -18.3152   14.1008 C   0  0  0  0  0  0  0  0  0  0  0  0
   10.6720  -19.4916   14.4965 O   0  0  0  0  0  0  0  0  0  0  0  0
    9.4421  -17.4502   14.4778 C   0  0  0  0  0  0  0  0  0  0  0  0
    9.7168  -16.8796   15.8270 C   0  0  0  0  0  0  0  0  0  0  0  0
    8.8063  -15.7415   16.2335 C   0  0  2  0  0  0  0  0  0  0  0  0
    9.0255  -14.7160   15.1879 N   0  0  0  0  0  0  0  0  0  0  0  0
    9.1790  -15.1120   17.5183 C   0  0  0  0  0  0  0  0  0  0  0  0
   10.2679  -14.4895   17.5957 O   0  0  0  0  0  0  0  0  0  0  0  0
    7.5316  -12.6005   19.6108 C   0  0  0  0  0  0  0  0  0  0  0  0
    7.6543  -13.8104   20.5116 C   0  0  1  0  0  0  0  0  0  0  0  0
    6.4973  -14.5458   20.5740 O   0  0  0  0  0  0  0  0  0  0  0  0
    8.8447  -14.6209   19.9797 C   0  0  2  0  0  0  0  0  0  0  0  0
    8.4032  -15.1441   18.6990 N   0  0  0  0  0  0  0  0  0  0  0  0
    9.0908  -15.7142   20.9528 C   0  0  0  0  0  0  0  0  0  0  0  0
    9.1249  -16.9311   20.5942 O   0  0  0  0  0  0  0  0  0  0  0  0
   14.1900  -18.7877   22.5647 N   0  0  0  0  0  0  0  0  0  0  0  0
   13.6926  -17.5041   22.8105 C   0  0  0  0  0  0  0  0  0  0  0  0
   14.3562  -16.4927   22.5201 O   0  0  0  0  0  0  0  0  0  0  0  0
   12.3390  -17.3485   23.4334 C   0  0  0  0  0  0  0  0  0  0  0  0
   11.4832  -16.4428   22.5879 C   0  0  0  0  0  0  0  0  0  0  0  0
   10.1075  -16.3374   23.1657 C   0  0  2  0  0  0  0  0  0  0  0  0
    9.2946  -15.4318   22.3079 N   0  0  0  0  0  0  0  0  0  0  0  0
   10.0473  -15.8286   24.5471 C   0  0  0  0  0  0  0  0  0  0  0  0
    9.7981  -16.5359   25.5301 O   0  0  0  0  0  0  0  0  0  0  0  0
   10.2814  -14.4743   24.7861 O   0  0  0  0  0  0  0  0  0  0  0  0
  1  2  1  0
  2  3  2  0
  2  4  1  0
  4  5  1  0
  5  6  1  0
  6  8  1  0
  6  7  1  6
  8 14  1  0
  9  8  2  0
 11 10  1  6
 11 12  1  0
 13 11  1  0
 13 14  1  6
 15 16  2  0
 15 13  1  0
 17 18  1  0
 18 19  2  0
 20 18  1  0
 20 21  1  0
 22 21  1  6
 22 23  1  0
 23 15  1  0
 24 22  1  0
 25 24  2  0
 26 24  1  0
M  END
$$$$
