QDD.pdb
     RDKit          3D

 26 25  0  0  1  0  0  0  0  0999 V2000
   16.7177  -15.3586  -16.9108 N   0  0  0  0  0  0  0  0  0  0  0  0
   16.9851  -14.4057  -15.8612 C   0  0  0  0  0  0  0  0  0  0  0  0
   16.0533  -13.6345  -15.5616 O   0  0  0  0  0  0  0  0  0  0  0  0
   18.3241  -14.4586  -15.2604 C   0  0  0  0  0  0  0  0  0  0  0  0
   18.9791  -13.1732  -15.0049 C   0  0  0  0  0  0  0  0  0  0  0  0
   18.7693  -12.0240  -15.9156 C   0  0  2  0  0  0  0  0  0  0  0  0
   19.4238  -12.3957  -17.2220 N   0  0  0  0  0  0  0  0  0  0  0  0
   19.3899  -10.7687  -15.4888 C   0  0  0  0  0  0  0  0  0  0  0  0
   19.2731  -10.2814  -14.3170 O   0  0  0  0  0  0  0  0  0  0  0  0
   20.1917   -9.9938  -16.4126 N   0  0  0  0  0  0  0  0  0  0  0  0
   20.7649   -8.7270  -16.0625 C   0  0  1  0  0  0  0  0  0  0  0  0
   22.0805   -8.4746  -16.7714 C   0  0  0  0  0  0  0  0  0  0  0  0
   23.1554   -9.3848  -16.3788 C   0  0  0  0  0  0  0  0  0  0  0  0
   23.3595   -9.8382  -15.2281 O   0  0  0  0  0  0  0  0  0  0  0  0
   19.8084   -7.6071  -16.3111 C   0  0  0  0  0  0  0  0  0  0  0  0
   19.1964   -7.5181  -17.3994 O   0  0  0  0  0  0  0  0  0  0  0  0
   24.0468   -9.7979  -17.3632 O   0  0  0  0  0  0  0  0  0  0  0  0
   19.5228   -6.5842  -15.3734 N   0  0  0  0  0  0  0  0  0  0  0  0
   18.6014   -5.5592  -15.6228 C   0  0  1  0  0  0  0  0  0  0  0  0
   17.2845   -5.5473  -14.9666 C   0  0  0  0  0  0  0  0  0  0  0  0
   16.4907   -4.3409  -15.3280 C   0  0  0  0  0  0  0  0  0  0  0  0
   16.1400   -4.0718  -16.5093 O   0  0  0  0  0  0  0  0  0  0  0  0
   19.2650   -4.2698  -15.2715 C   0  0  0  0  0  0  0  0  0  0  0  0
   20.3505   -4.3394  -14.6480 O   0  0  0  0  0  0  0  0  0  0  0  0
   16.0746   -3.4132  -14.3636 O   0  0  0  0  0  0  0  0  0  0  0  0
   18.7390   -3.0505  -15.6003 O   0  0  0  0  0  0  0  0  0  0  0  0
  2  1  1  0
  2  3  2  0
  4  2  1  0
  4  5  1  0
  5  6  1  0
  6  7  1  6
  6  8  1  0
  8 10  1  0
  9  8  2  0
 10 11  1  0
 11 15  1  0
 11 12  1  6
 12 13  1  0
 13 17  1  0
 14 13  2  0
 15 18  1  0
 16 15  2  0
 18 19  1  0
 19 20  1  1
 20 21  1  0
 21 25  1  0
 22 21  2  0
 23 19  1  0
 23 26  1  0
 24 23  2  0
M  END
$$$$
