QDD.pdb
     RDKit          3D

 26 25  0  0  1  0  0  0  0  0999 V2000
   16.0011  -15.6061  -13.7675 N   0  0  0  0  0  0  0  0  0  0  0  0
   16.0348  -16.0981  -15.1232 C   0  0  0  0  0  0  0  0  0  0  0  0
   15.3747  -17.1292  -15.3556 O   0  0  0  0  0  0  0  0  0  0  0  0
   16.8381  -15.3224  -16.0769 C   0  0  0  0  0  0  0  0  0  0  0  0
   17.4795  -14.1107  -15.5603 C   0  0  0  0  0  0  0  0  0  0  0  0
   17.5640  -12.8875  -16.3914 C   0  0  2  0  0  0  0  0  0  0  0  0
   18.2144  -13.3015  -17.6871 N   0  0  0  0  0  0  0  0  0  0  0  0
   18.3944  -11.8151  -15.8403 C   0  0  0  0  0  0  0  0  0  0  0  0
   18.1857  -11.2655  -14.7096 O   0  0  0  0  0  0  0  0  0  0  0  0
   19.5304  -11.3099  -16.5826 N   0  0  0  0  0  0  0  0  0  0  0  0
   20.3571  -10.2436  -16.0974 C   0  0  1  0  0  0  0  0  0  0  0  0
   21.8028  -10.3948  -16.5264 C   0  0  0  0  0  0  0  0  0  0  0  0
   22.6987   -9.3777  -15.9778 C   0  0  0  0  0  0  0  0  0  0  0  0
   22.3839   -8.4680  -15.1749 O   0  0  0  0  0  0  0  0  0  0  0  0
   19.8229   -8.9095  -16.5045 C   0  0  0  0  0  0  0  0  0  0  0  0
   19.5199   -8.6783  -17.6968 O   0  0  0  0  0  0  0  0  0  0  0  0
   24.0318   -9.4067  -16.3734 O   0  0  0  0  0  0  0  0  0  0  0  0
   19.6225   -7.8283  -15.6111 N   0  0  0  0  0  0  0  0  0  0  0  0
   19.1072   -6.5910  -16.0176 C   0  0  1  0  0  0  0  0  0  0  0  0
   17.7691   -6.1504  -15.5928 C   0  0  0  0  0  0  0  0  0  0  0  0
   17.4567   -4.7746  -16.0677 C   0  0  0  0  0  0  0  0  0  0  0  0
   17.2611   -4.4890  -17.2806 O   0  0  0  0  0  0  0  0  0  0  0  0
   20.0658   -5.5403  -15.5664 C   0  0  0  0  0  0  0  0  0  0  0  0
   19.9508   -4.4044  -16.0844 O   0  0  0  0  0  0  0  0  0  0  0  0
   17.3569   -3.6918  -15.1836 O   0  0  0  0  0  0  0  0  0  0  0  0
   21.0372   -5.7736  -14.6318 O   0  0  0  0  0  0  0  0  0  0  0  0
  2  1  1  0
  2  3  2  0
  4  2  1  0
  4  5  1  0
  5  6  1  0
  6  7  1  6
  6  8  1  0
  8 10  1  0
  9  8  2  0
 10 11  1  0
 11 15  1  0
 11 12  1  6
 12 13  1  0
 13 17  1  0
 14 13  2  0
 15 18  1  0
 16 15  2  0
 18 19  1  0
 19 20  1  1
 20 21  1  0
 21 25  1  0
 22 21  2  0
 23 19  1  0
 23 26  1  0
 24 23  2  0
M  END
$$$$
