QDD.pdb
     RDKit          3D

 26 25  0  0  1  0  0  0  0  0999 V2000
   18.1703   -9.2709  -20.4245 N   0  0  0  0  0  0  0  0  0  0  0  0
   17.8669  -10.6185  -20.0083 C   0  0  0  0  0  0  0  0  0  0  0  0
   17.1940  -11.3056  -20.8007 O   0  0  0  0  0  0  0  0  0  0  0  0
   18.3929  -11.0290  -18.7000 C   0  0  0  0  0  0  0  0  0  0  0  0
   19.1130  -10.0090  -17.9337 C   0  0  0  0  0  0  0  0  0  0  0  0
   19.6513  -10.3147  -16.5880 C   0  0  2  0  0  0  0  0  0  0  0  0
   18.7849  -11.4133  -16.0264 N   0  0  0  0  0  0  0  0  0  0  0  0
   19.5900   -9.2124  -15.6265 C   0  0  0  0  0  0  0  0  0  0  0  0
   18.5829   -8.9745  -14.8826 O   0  0  0  0  0  0  0  0  0  0  0  0
   20.7101   -8.3077  -15.4731 N   0  0  0  0  0  0  0  0  0  0  0  0
   20.6363   -7.1154  -14.6802 C   0  0  1  0  0  0  0  0  0  0  0  0
   22.0016   -6.6430  -14.2221 C   0  0  0  0  0  0  0  0  0  0  0  0
   21.9739   -5.4171  -13.4255 C   0  0  0  0  0  0  0  0  0  0  0  0
   21.4842   -5.2894  -12.2786 O   0  0  0  0  0  0  0  0  0  0  0  0
   19.9149   -6.0238  -15.4005 C   0  0  0  0  0  0  0  0  0  0  0  0
   20.1718   -5.7694  -16.5989 O   0  0  0  0  0  0  0  0  0  0  0  0
   22.5405   -4.2729  -13.9768 O   0  0  0  0  0  0  0  0  0  0  0  0
   18.9161   -5.2094  -14.8121 N   0  0  0  0  0  0  0  0  0  0  0  0
   18.1678   -4.2768  -15.5414 C   0  0  1  0  0  0  0  0  0  0  0  0
   16.7341   -4.4877  -15.7962 C   0  0  0  0  0  0  0  0  0  0  0  0
   16.1320   -3.3649  -16.5663 C   0  0  0  0  0  0  0  0  0  0  0  0
   16.5172   -2.1686  -16.4607 O   0  0  0  0  0  0  0  0  0  0  0  0
   18.2883   -2.9647  -14.8410 C   0  0  0  0  0  0  0  0  0  0  0  0
   17.8697   -1.9529  -15.4516 O   0  0  0  0  0  0  0  0  0  0  0  0
   15.0830   -3.5688  -17.4730 O   0  0  0  0  0  0  0  0  0  0  0  0
   18.8261   -2.8378  -13.5896 O   0  0  0  0  0  0  0  0  0  0  0  0
  2  1  1  0
  2  3  2  0
  4  2  1  0
  4  5  1  0
  5  6  1  0
  6  7  1  1
  6  8  1  0
  8 10  1  0
  9  8  2  0
 10 11  1  0
 11 15  1  0
 11 12  1  6
 12 13  1  0
 13 17  1  0
 14 13  2  0
 15 18  1  0
 16 15  2  0
 18 19  1  0
 19 20  1  1
 20 21  1  0
 21 25  1  0
 22 21  2  0
 23 19  1  0
 23 26  1  0
 24 23  2  0
M  END
$$$$
