QDD.pdb
     RDKit          3D

 26 25  0  0  1  0  0  0  0  0999 V2000
   27.9194  -18.1440  -15.0042 N   0  0  0  0  0  0  0  0  0  0  0  0
   28.1537  -19.3245  -15.7996 C   0  0  0  0  0  0  0  0  0  0  0  0
   28.7806  -19.1607  -16.8640 O   0  0  0  0  0  0  0  0  0  0  0  0
   27.6322  -20.5867  -15.2596 C   0  0  0  0  0  0  0  0  0  0  0  0
   26.9452  -20.5127  -13.9677 C   0  0  0  0  0  0  0  0  0  0  0  0
   25.5858  -21.0771  -13.8015 C   0  0  2  0  0  0  0  0  0  0  0  0
   25.3942  -22.0564  -14.9317 N   0  0  0  0  0  0  0  0  0  0  0  0
   24.4918  -20.1100  -13.9072 C   0  0  0  0  0  0  0  0  0  0  0  0
   24.2927  -19.1692  -13.0710 O   0  0  0  0  0  0  0  0  0  0  0  0
   23.5503  -20.1825  -15.0050 N   0  0  0  0  0  0  0  0  0  0  0  0
   22.4926  -19.2301  -15.1789 C   0  0  1  0  0  0  0  0  0  0  0  0
   22.6905  -18.3681  -16.4097 C   0  0  0  0  0  0  0  0  0  0  0  0
   21.7756  -17.2308  -16.4964 C   0  0  0  0  0  0  0  0  0  0  0  0
   20.5347  -17.2627  -16.3211 O   0  0  0  0  0  0  0  0  0  0  0  0
   21.1566  -19.8971  -15.2114 C   0  0  0  0  0  0  0  0  0  0  0  0
   20.9453  -20.8696  -15.9708 O   0  0  0  0  0  0  0  0  0  0  0  0
   22.3159  -15.9861  -16.8019 O   0  0  0  0  0  0  0  0  0  0  0  0
   20.0521  -19.5010  -14.4175 N   0  0  0  0  0  0  0  0  0  0  0  0
   18.7683  -20.0375  -14.5783 C   0  0  1  0  0  0  0  0  0  0  0  0
   17.9538  -19.7135  -15.7601 C   0  0  0  0  0  0  0  0  0  0  0  0
   17.0783  -18.5319  -15.5289 C   0  0  0  0  0  0  0  0  0  0  0  0
   17.0710  -17.8765  -14.4513 O   0  0  0  0  0  0  0  0  0  0  0  0
   18.9001  -21.5234  -14.5451 C   0  0  0  0  0  0  0  0  0  0  0  0
   18.0902  -22.1508  -13.8223 O   0  0  0  0  0  0  0  0  0  0  0  0
   16.1932  -18.0641  -16.5095 O   0  0  0  0  0  0  0  0  0  0  0  0
   19.8504  -22.2006  -15.2590 O   0  0  0  0  0  0  0  0  0  0  0  0
  2  1  1  0
  2  3  2  0
  4  2  1  0
  4  5  1  0
  5  6  1  0
  6  7  1  6
  6  8  1  0
  8 10  1  0
  9  8  2  0
 10 11  1  0
 11 15  1  0
 11 12  1  6
 12 13  1  0
 13 17  1  0
 14 13  2  0
 15 18  1  0
 16 15  2  0
 18 19  1  0
 19 20  1  6
 20 21  1  0
 21 25  1  0
 22 21  2  0
 23 19  1  0
 23 26  1  0
 24 23  2  0
M  END
$$$$
