QDD.pdb
     RDKit          3D

 26 25  0  0  1  0  0  0  0  0999 V2000
   19.8006  -17.8184  -14.6074 N   0  0  0  0  0  0  0  0  0  0  0  0
   20.4875  -18.1958  -15.8186 C   0  0  0  0  0  0  0  0  0  0  0  0
   20.3130  -19.3646  -16.2139 O   0  0  0  0  0  0  0  0  0  0  0  0
   21.3087  -17.1558  -16.4516 C   0  0  0  0  0  0  0  0  0  0  0  0
   21.2599  -15.8229  -15.8456 C   0  0  0  0  0  0  0  0  0  0  0  0
   20.5252  -14.7191  -16.5059 C   0  0  2  0  0  0  0  0  0  0  0  0
   20.4196  -15.0942  -17.9624 N   0  0  0  0  0  0  0  0  0  0  0  0
   21.1903  -13.4155  -16.4657 C   0  0  0  0  0  0  0  0  0  0  0  0
   21.5741  -12.8472  -15.3915 O   0  0  0  0  0  0  0  0  0  0  0  0
   21.4493  -12.6844  -17.6885 N   0  0  0  0  0  0  0  0  0  0  0  0
   22.0128  -11.3660  -17.6950 C   0  0  1  0  0  0  0  0  0  0  0  0
   22.6090  -11.0011  -19.0397 C   0  0  0  0  0  0  0  0  0  0  0  0
   23.2623   -9.6933  -19.0690 C   0  0  0  0  0  0  0  0  0  0  0  0
   24.2953   -9.3951  -19.7136 O   0  0  0  0  0  0  0  0  0  0  0  0
   21.0131  -10.3424  -17.2661 C   0  0  0  0  0  0  0  0  0  0  0  0
   19.9278  -10.2131  -17.8762 O   0  0  0  0  0  0  0  0  0  0  0  0
   22.6977   -8.6696  -18.3155 O   0  0  0  0  0  0  0  0  0  0  0  0
   21.1997   -9.4594  -16.1740 N   0  0  0  0  0  0  0  0  0  0  0  0
   20.1998   -8.5906  -15.7188 C   0  0  1  0  0  0  0  0  0  0  0  0
   19.3148   -8.9698  -14.6061 C   0  0  0  0  0  0  0  0  0  0  0  0
   18.3082   -7.9144  -14.3078 C   0  0  0  0  0  0  0  0  0  0  0  0
   18.3463   -7.1947  -13.2727 O   0  0  0  0  0  0  0  0  0  0  0  0
   20.8660   -7.3167  -15.3191 C   0  0  0  0  0  0  0  0  0  0  0  0
   22.1103   -7.3478  -15.1684 O   0  0  0  0  0  0  0  0  0  0  0  0
   17.2378   -7.6478  -15.1722 O   0  0  0  0  0  0  0  0  0  0  0  0
   20.1791   -6.1508  -15.1185 O   0  0  0  0  0  0  0  0  0  0  0  0
  2  1  1  0
  2  3  2  0
  4  2  1  0
  4  5  1  0
  5  6  1  0
  6  7  1  6
  6  8  1  0
  8 10  1  0
  9  8  2  0
 10 11  1  0
 11 15  1  0
 11 12  1  6
 12 13  1  0
 13 17  1  0
 14 13  2  0
 15 18  1  0
 16 15  2  0
 18 19  1  0
 19 20  1  1
 20 21  1  0
 21 25  1  0
 22 21  2  0
 23 19  1  0
 23 26  1  0
 24 23  2  0
M  END
$$$$
