QDD.pdb
     RDKit          3D

 26 25  0  0  1  0  0  0  0  0999 V2000
   12.5544  -11.6851  -11.8079 N   0  0  0  0  0  0  0  0  0  0  0  0
   12.1936  -11.5305  -10.4196 C   0  0  0  0  0  0  0  0  0  0  0  0
   11.4647  -12.4170   -9.9340 O   0  0  0  0  0  0  0  0  0  0  0  0
   12.7333  -10.3487   -9.7350 C   0  0  0  0  0  0  0  0  0  0  0  0
   13.6236   -9.4876  -10.5175 C   0  0  0  0  0  0  0  0  0  0  0  0
   15.0834   -9.4835  -10.2667 C   0  0  2  0  0  0  0  0  0  0  0  0
   15.2561   -9.2883   -8.7817 N   0  0  0  0  0  0  0  0  0  0  0  0
   15.8240   -8.3977  -10.9116 C   0  0  0  0  0  0  0  0  0  0  0  0
   15.9476   -8.2747  -12.1740 O   0  0  0  0  0  0  0  0  0  0  0  0
   16.4757   -7.3785  -10.1158 N   0  0  0  0  0  0  0  0  0  0  0  0
   17.1056   -6.2298  -10.6983 C   0  0  1  0  0  0  0  0  0  0  0  0
   17.2820   -5.1021   -9.7012 C   0  0  0  0  0  0  0  0  0  0  0  0
   16.0683   -4.3235   -9.4583 C   0  0  0  0  0  0  0  0  0  0  0  0
   14.9876   -4.4203  -10.0861 O   0  0  0  0  0  0  0  0  0  0  0  0
   18.4118   -6.5844  -11.3301 C   0  0  0  0  0  0  0  0  0  0  0  0
   19.2681   -7.2461  -10.7008 O   0  0  0  0  0  0  0  0  0  0  0  0
   16.0970   -3.3803   -8.4366 O   0  0  0  0  0  0  0  0  0  0  0  0
   18.7834   -6.2145  -12.6462 N   0  0  0  0  0  0  0  0  0  0  0  0
   19.9510   -6.6780  -13.2656 C   0  0  1  0  0  0  0  0  0  0  0  0
   20.1172   -8.1007  -13.6023 C   0  0  0  0  0  0  0  0  0  0  0  0
   21.3840   -8.3560  -14.3413 C   0  0  0  0  0  0  0  0  0  0  0  0
   22.4650   -7.7572  -14.0890 O   0  0  0  0  0  0  0  0  0  0  0  0
   20.1109   -5.9166  -14.5390 C   0  0  0  0  0  0  0  0  0  0  0  0
   21.2335   -5.9664  -15.0949 O   0  0  0  0  0  0  0  0  0  0  0  0
   21.4580   -9.2936  -15.3802 O   0  0  0  0  0  0  0  0  0  0  0  0
   19.0984   -5.1879  -15.1004 O   0  0  0  0  0  0  0  0  0  0  0  0
  2  1  1  0
  2  3  2  0
  4  2  1  0
  4  5  1  0
  5  6  1  0
  6  7  1  1
  6  8  1  0
  8 10  1  0
  9  8  2  0
 10 11  1  0
 11 15  1  0
 11 12  1  1
 12 13  1  0
 13 17  1  0
 14 13  2  0
 15 18  1  0
 16 15  2  0
 18 19  1  0
 19 20  1  6
 20 21  1  0
 21 25  1  0
 22 21  2  0
 23 19  1  0
 23 26  1  0
 24 23  2  0
M  END
$$$$
