QDD.pdb
     RDKit          3D

 26 25  0  0  1  0  0  0  0  0999 V2000
   13.3354  -11.6279  -14.2115 N   0  0  0  0  0  0  0  0  0  0  0  0
   13.6902  -12.4659  -15.3310 C   0  0  0  0  0  0  0  0  0  0  0  0
   12.7733  -13.1513  -15.8232 O   0  0  0  0  0  0  0  0  0  0  0  0
   15.0913  -12.4095  -15.7673 C   0  0  0  0  0  0  0  0  0  0  0  0
   15.9710  -11.4982  -15.0309 C   0  0  0  0  0  0  0  0  0  0  0  0
   16.6097  -10.3488  -15.7129 C   0  0  2  0  0  0  0  0  0  0  0  0
   17.2101  -10.8929  -16.9843 N   0  0  0  0  0  0  0  0  0  0  0  0
   17.7080   -9.7192  -14.9776 C   0  0  0  0  0  0  0  0  0  0  0  0
   17.7666   -9.6557  -13.7061 O   0  0  0  0  0  0  0  0  0  0  0  0
   18.8166   -9.1156  -15.6871 N   0  0  0  0  0  0  0  0  0  0  0  0
   19.9402   -8.5343  -15.0122 C   0  0  1  0  0  0  0  0  0  0  0  0
   21.2118   -9.3327  -15.2181 C   0  0  0  0  0  0  0  0  0  0  0  0
   22.3977   -8.7374  -14.6037 C   0  0  0  0  0  0  0  0  0  0  0  0
   22.5549   -8.4877  -13.3853 O   0  0  0  0  0  0  0  0  0  0  0  0
   20.1412   -7.1096  -15.4131 C   0  0  0  0  0  0  0  0  0  0  0  0
   20.1935   -6.7862  -16.6212 O   0  0  0  0  0  0  0  0  0  0  0  0
   23.4635   -8.4102  -15.4351 O   0  0  0  0  0  0  0  0  0  0  0  0
   20.2877   -6.0399  -14.4958 N   0  0  0  0  0  0  0  0  0  0  0  0
   20.3880   -4.7018  -14.8972 C   0  0  1  0  0  0  0  0  0  0  0  0
   19.4637   -3.6825  -14.3761 C   0  0  0  0  0  0  0  0  0  0  0  0
   19.6862   -2.3519  -15.0056 C   0  0  0  0  0  0  0  0  0  0  0  0
   20.4549   -2.1717  -15.9892 O   0  0  0  0  0  0  0  0  0  0  0  0
   21.7665   -4.2393  -14.5619 C   0  0  0  0  0  0  0  0  0  0  0  0
   22.1968   -4.5149  -13.4170 O   0  0  0  0  0  0  0  0  0  0  0  0
   19.0448   -1.1965  -14.5391 O   0  0  0  0  0  0  0  0  0  0  0  0
   22.5508   -3.5441  -15.4411 O   0  0  0  0  0  0  0  0  0  0  0  0
  2  1  1  0
  2  3  2  0
  4  2  1  0
  4  5  1  0
  5  6  1  0
  6  7  1  6
  6  8  1  0
  8 10  1  0
  9  8  2  0
 10 11  1  0
 11 15  1  0
 11 12  1  6
 12 13  1  0
 13 17  1  0
 14 13  2  0
 15 18  1  0
 16 15  2  0
 18 19  1  0
 19 20  1  1
 20 21  1  0
 21 25  1  0
 22 21  2  0
 23 19  1  0
 23 26  1  0
 24 23  2  0
M  END
$$$$
