QDD.pdb
     RDKit          3D

 26 25  0  0  1  0  0  0  0  0999 V2000
   25.7273  -19.8400   -9.6222 N   0  0  0  0  0  0  0  0  0  0  0  0
   26.6458  -20.9464   -9.7377 C   0  0  0  0  0  0  0  0  0  0  0  0
   27.0868  -21.4150   -8.6705 O   0  0  0  0  0  0  0  0  0  0  0  0
   26.9506  -21.3990  -11.1011 C   0  0  0  0  0  0  0  0  0  0  0  0
   26.3527  -20.6306  -12.1959 C   0  0  0  0  0  0  0  0  0  0  0  0
   24.8828  -20.4781  -12.2972 C   0  0  2  0  0  0  0  0  0  0  0  0
   24.2882  -21.7610  -11.7740 N   0  0  0  0  0  0  0  0  0  0  0  0
   24.3654  -20.3110  -13.6565 C   0  0  0  0  0  0  0  0  0  0  0  0
   24.8222  -19.4626  -14.4906 O   0  0  0  0  0  0  0  0  0  0  0  0
   23.2696  -21.1297  -14.1317 N   0  0  0  0  0  0  0  0  0  0  0  0
   22.6693  -20.9434  -15.4203 C   0  0  1  0  0  0  0  0  0  0  0  0
   22.5348  -22.2442  -16.1865 C   0  0  0  0  0  0  0  0  0  0  0  0
   21.9645  -22.0938  -17.5244 C   0  0  0  0  0  0  0  0  0  0  0  0
   22.2377  -21.1903  -18.3494 O   0  0  0  0  0  0  0  0  0  0  0  0
   21.3479  -20.2554  -15.3133 C   0  0  0  0  0  0  0  0  0  0  0  0
   20.6122  -20.4345  -14.3164 O   0  0  0  0  0  0  0  0  0  0  0  0
   21.0271  -23.0340  -17.9389 O   0  0  0  0  0  0  0  0  0  0  0  0
   20.8294  -19.3751  -16.2948 N   0  0  0  0  0  0  0  0  0  0  0  0
   19.6942  -18.5826  -16.0825 C   0  0  1  0  0  0  0  0  0  0  0  0
   19.6875  -17.1559  -16.4421 C   0  0  0  0  0  0  0  0  0  0  0  0
   18.3953  -16.4997  -16.1017 C   0  0  0  0  0  0  0  0  0  0  0  0
   17.7019  -16.8166  -15.0969 O   0  0  0  0  0  0  0  0  0  0  0  0
   18.5652  -19.2154  -16.8251 C   0  0  0  0  0  0  0  0  0  0  0  0
   18.7611  -19.4907  -18.0324 O   0  0  0  0  0  0  0  0  0  0  0  0
   17.8588  -15.4708  -16.8874 O   0  0  0  0  0  0  0  0  0  0  0  0
   17.3588  -19.4954  -16.2440 O   0  0  0  0  0  0  0  0  0  0  0  0
  2  1  1  0
  2  3  2  0
  4  2  1  0
  4  5  1  0
  5  6  1  0
  6  7  1  6
  6  8  1  0
  8 10  1  0
  9  8  2  0
 10 11  1  0
 11 15  1  0
 11 12  1  1
 12 13  1  0
 13 17  1  0
 14 13  2  0
 15 18  1  0
 16 15  2  0
 18 19  1  0
 19 20  1  6
 20 21  1  0
 21 25  1  0
 22 21  2  0
 23 19  1  0
 23 26  1  0
 24 23  2  0
M  END
$$$$
