QDD.pdb
     RDKit          3D

 26 25  0  0  1  0  0  0  0  0999 V2000
   17.8740  -15.4243  -13.8092 N   0  0  0  0  0  0  0  0  0  0  0  0
   16.7739  -15.4567  -14.7419 C   0  0  0  0  0  0  0  0  0  0  0  0
   15.8732  -16.2855  -14.5085 O   0  0  0  0  0  0  0  0  0  0  0  0
   16.8381  -14.5029  -15.8567 C   0  0  0  0  0  0  0  0  0  0  0  0
   17.9775  -13.5820  -15.8667 C   0  0  0  0  0  0  0  0  0  0  0  0
   17.7790  -12.1318  -15.6395 C   0  0  2  0  0  0  0  0  0  0  0  0
   16.7253  -11.6907  -16.6235 N   0  0  0  0  0  0  0  0  0  0  0  0
   18.9528  -11.2944  -15.8932 C   0  0  0  0  0  0  0  0  0  0  0  0
   20.0968  -11.4984  -15.3699 O   0  0  0  0  0  0  0  0  0  0  0  0
   18.8638  -10.1534  -16.7802 N   0  0  0  0  0  0  0  0  0  0  0  0
   19.9993   -9.3433  -17.1121 C   0  0  1  0  0  0  0  0  0  0  0  0
   19.9994   -8.9205  -18.5675 C   0  0  0  0  0  0  0  0  0  0  0  0
   20.2686  -10.0089  -19.5063 C   0  0  0  0  0  0  0  0  0  0  0  0
   21.3142  -10.6981  -19.5618 O   0  0  0  0  0  0  0  0  0  0  0  0
   20.1011   -8.1521  -16.2168 C   0  0  0  0  0  0  0  0  0  0  0  0
   19.0737   -7.6268  -15.7315 O   0  0  0  0  0  0  0  0  0  0  0  0
   19.2813  -10.3238  -20.4339 O   0  0  0  0  0  0  0  0  0  0  0  0
   21.3231   -7.5337  -15.8543 N   0  0  0  0  0  0  0  0  0  0  0  0
   21.3995   -6.4833  -14.9309 C   0  0  1  0  0  0  0  0  0  0  0  0
   22.6891   -6.0754  -14.3515 C   0  0  0  0  0  0  0  0  0  0  0  0
   22.5335   -4.9770  -13.3587 C   0  0  0  0  0  0  0  0  0  0  0  0
   22.8325   -3.7763  -13.6029 O   0  0  0  0  0  0  0  0  0  0  0  0
   20.8241   -5.2725  -15.5862 C   0  0  0  0  0  0  0  0  0  0  0  0
   21.1561   -5.0570  -16.7758 O   0  0  0  0  0  0  0  0  0  0  0  0
   22.0359   -5.2104  -12.0696 O   0  0  0  0  0  0  0  0  0  0  0  0
   19.9702   -4.4168  -14.9458 O   0  0  0  0  0  0  0  0  0  0  0  0
  2  1  1  0
  2  3  2  0
  4  2  1  0
  4  5  1  0
  5  6  1  0
  6  7  1  6
  6  8  1  0
  8 10  1  0
  9  8  2  0
 10 11  1  0
 11 15  1  0
 11 12  1  6
 12 13  1  0
 13 17  1  0
 14 13  2  0
 15 18  1  0
 16 15  2  0
 18 19  1  0
 19 20  1  6
 20 21  1  0
 21 25  1  0
 22 21  2  0
 23 19  1  0
 23 26  1  0
 24 23  2  0
M  END
$$$$
