RWP.pdb
     RDKit          3D

 33 35  0  0  1  0  0  0  0  0999 V2000
   28.0814  -28.9439  -16.9449 N   0  0  0  0  0  0  0  0  0  0  0  0
   26.8266  -28.5490  -17.4636 C   0  0  0  0  0  0  0  0  0  0  0  0
   25.8598  -29.4005  -17.4399 N   0  0  0  0  0  0  0  0  0  0  0  0
   26.5950  -27.2507  -18.0085 N   0  0  0  0  0  0  0  0  0  0  0  0
   27.6335  -26.2440  -18.0146 C   0  0  0  0  0  0  0  0  0  0  0  0
   28.1206  -26.0920  -16.5987 C   0  0  0  0  0  0  0  0  0  0  0  0
   29.1204  -25.0006  -16.4115 C   0  0  0  0  0  0  0  0  0  0  0  0
   28.9145  -23.8224  -17.3353 C   0  0  2  0  0  0  0  0  0  0  0  0
   30.0791  -23.6544  -18.1441 N   0  0  0  0  0  0  0  0  0  0  0  0
   28.6450  -22.6261  -16.4726 C   0  0  0  0  0  0  0  0  0  0  0  0
   29.5929  -22.1606  -15.7886 O   0  0  0  0  0  0  0  0  0  0  0  0
   24.9197  -29.1569  -17.7686 N   0  0  0  0  0  0  0  0  0  0  0  0
   27.3531  -22.0366  -16.4313 C   0  0  2  0  0  0  0  0  0  0  0  0
   27.0541  -20.9268  -15.5562 C   0  0  0  0  0  0  0  0  0  0  0  0
   26.9768  -19.6537  -16.3748 C   0  0  0  0  0  0  0  0  0  0  0  0
   26.6731  -18.4286  -15.6457 C   0  0  0  0  0  0  0  0  0  0  0  0
   27.5195  -17.7025  -14.7922 N   0  0  0  0  0  0  0  0  0  0  0  0
   26.8362  -16.6644  -14.3032 C   0  0  0  0  0  0  0  0  0  0  0  0
   25.5846  -16.6438  -14.7725 C   0  0  0  0  0  0  0  0  0  0  0  0
   24.5252  -15.7715  -14.5692 C   0  0  0  0  0  0  0  0  0  0  0  0
   23.3311  -16.0006  -15.2196 C   0  0  0  0  0  0  0  0  0  0  0  0
   23.1706  -17.0839  -16.0705 C   0  0  0  0  0  0  0  0  0  0  0  0
   24.2533  -17.9139  -16.2325 C   0  0  0  0  0  0  0  0  0  0  0  0
   25.4715  -17.7325  -15.6060 C   0  0  0  0  0  0  0  0  0  0  0  0
   26.0176  -21.1211  -14.5678 O   0  0  0  0  0  0  0  0  0  0  0  0
   24.8521  -21.4352  -15.0188 N   0  0  0  0  0  0  0  0  0  0  0  0
   26.1461  -21.0034  -13.1552 C   0  0  0  0  0  0  0  0  0  0  0  0
   27.2643  -20.7020  -12.3318 C   0  0  0  0  0  0  0  0  0  0  0  0
   26.6483  -20.0335  -11.0982 C   0  0  0  0  0  0  0  0  0  0  0  0
   25.5165  -21.0458  -10.8477 C   0  0  1  0  0  0  0  0  0  0  0  0
   25.0011  -21.2346  -12.2568 C   0  0  0  0  0  0  0  0  0  0  0  0
   23.8725  -20.3412  -12.5558 O   0  0  0  0  0  0  0  0  0  0  0  0
   22.6514  -20.5371  -11.9577 O   0  0  0  0  0  0  0  0  0  0  0  0
  2  1  1  0
  3  2  2  0
  4  2  1  0
  5  4  1  0
  6  5  1  0
  7  6  1  0
  8  9  1  1
  8  7  1  0
 10  8  1  0
 10 11  2  0
 12 10  1  0
 13 12  1  0
 13 14  1  6
 14 15  1  0
 15 16  2  0
 16 17  1  0
 18 17  1  0
 19 18  2  0
 20 19  1  0
 21 22  1  0
 21 20  2  0
 22 23  2  0
 23 15  1  0
 23 18  1  0
 24 13  1  0
 25 24  2  0
 26 27  1  0
 26 24  1  0
 28 27  1  0
 29 28  1  0
 30 29  1  0
 30 26  1  0
 30 31  1  1
 31 32  1  0
 33 31  2  0
M  END
$$$$
