RWP.pdb
     RDKit          3D

 33 35  0  0  1  0  0  0  0  0999 V2000
   16.9937  -19.8508  -11.1737 N   0  0  0  0  0  0  0  0  0  0  0  0
   17.0136  -21.1493  -11.7333 C   0  0  0  0  0  0  0  0  0  0  0  0
   15.9943  -21.5344  -12.4211 N   0  0  0  0  0  0  0  0  0  0  0  0
   18.1142  -22.0416  -11.5644 N   0  0  0  0  0  0  0  0  0  0  0  0
   19.4793  -21.5807  -11.6912 C   0  0  0  0  0  0  0  0  0  0  0  0
   19.7835  -21.4755  -13.1614 C   0  0  0  0  0  0  0  0  0  0  0  0
   21.1824  -21.0560  -13.4663 C   0  0  0  0  0  0  0  0  0  0  0  0
   22.2040  -21.5896  -12.4888 C   0  0  2  0  0  0  0  0  0  0  0  0
   21.6090  -21.6782  -11.1938 N   0  0  0  0  0  0  0  0  0  0  0  0
   23.3723  -20.6504  -12.5137 C   0  0  0  0  0  0  0  0  0  0  0  0
   23.4689  -19.7970  -11.5942 O   0  0  0  0  0  0  0  0  0  0  0  0
   15.9432  -22.4741  -12.8278 N   0  0  0  0  0  0  0  0  0  0  0  0
   24.3423  -20.7250  -13.5490 C   0  0  2  0  0  0  0  0  0  0  0  0
   25.7572  -20.7671  -13.2604 C   0  0  0  0  0  0  0  0  0  0  0  0
   26.0006  -21.7079  -12.0974 C   0  0  0  0  0  0  0  0  0  0  0  0
   25.9386  -21.1233  -10.7636 C   0  0  0  0  0  0  0  0  0  0  0  0
   24.8251  -20.5558  -10.1233 N   0  0  0  0  0  0  0  0  0  0  0  0
   25.2099  -20.1074   -8.9255 C   0  0  0  0  0  0  0  0  0  0  0  0
   26.5104  -20.3368   -8.7172 C   0  0  0  0  0  0  0  0  0  0  0  0
   27.3446  -20.0730   -7.6406 C   0  0  0  0  0  0  0  0  0  0  0  0
   28.6686  -20.4523   -7.7070 C   0  0  0  0  0  0  0  0  0  0  0  0
   29.1798  -21.0908   -8.8270 C   0  0  0  0  0  0  0  0  0  0  0  0
   28.3074  -21.3252   -9.8622 C   0  0  0  0  0  0  0  0  0  0  0  0
   26.9731  -20.9665   -9.8496 C   0  0  0  0  0  0  0  0  0  0  0  0
   26.6607  -20.8828  -14.3825 O   0  0  0  0  0  0  0  0  0  0  0  0
   26.9414  -22.0803  -14.7667 N   0  0  0  0  0  0  0  0  0  0  0  0
   27.2707  -19.8198  -15.1062 C   0  0  0  0  0  0  0  0  0  0  0  0
   27.4909  -18.4562  -14.7723 C   0  0  0  0  0  0  0  0  0  0  0  0
   28.7464  -18.0774  -15.5649 C   0  0  0  0  0  0  0  0  0  0  0  0
   28.3353  -18.6798  -16.9200 C   0  0  1  0  0  0  0  0  0  0  0  0
   27.7900  -20.0170  -16.4711 C   0  0  0  0  0  0  0  0  0  0  0  0
   28.8082  -21.0758  -16.5293 O   0  0  0  0  0  0  0  0  0  0  0  0
   29.3101  -21.4942  -17.7377 O   0  0  0  0  0  0  0  0  0  0  0  0
  2  1  1  0
  3  2  2  0
  4  2  1  0
  5  4  1  0
  6  5  1  0
  7  6  1  0
  8  9  1  1
  8  7  1  0
 10  8  1  0
 10 11  2  0
 12 10  1  0
 13 12  1  0
 13 14  1  1
 14 15  1  0
 15 16  2  0
 16 17  1  0
 18 17  1  0
 19 18  2  0
 20 19  1  0
 21 22  1  0
 21 20  2  0
 22 23  2  0
 23 15  1  0
 23 18  1  0
 24 13  1  0
 25 24  2  0
 26 27  1  0
 26 24  1  0
 28 27  1  0
 29 28  1  0
 30 29  1  0
 30 26  1  0
 30 31  1  6
 31 32  1  0
 33 31  2  0
M  END
$$$$
