RWP.pdb
     RDKit          3D

 33 35  0  0  1  0  0  0  0  0999 V2000
   27.1926  -20.0295  -21.5303 N   0  0  0  0  0  0  0  0  0  0  0  0
   28.4967  -19.4849  -21.4832 C   0  0  0  0  0  0  0  0  0  0  0  0
   29.1815  -19.4429  -22.5738 N   0  0  0  0  0  0  0  0  0  0  0  0
   29.0769  -18.9843  -20.2794 N   0  0  0  0  0  0  0  0  0  0  0  0
   28.3897  -19.0987  -19.0119 C   0  0  0  0  0  0  0  0  0  0  0  0
   27.9372  -20.5273  -18.8731 C   0  0  0  0  0  0  0  0  0  0  0  0
   27.1738  -20.8065  -17.6221 C   0  0  0  0  0  0  0  0  0  0  0  0
   28.0441  -20.9233  -16.3920 C   0  0  2  0  0  0  0  0  0  0  0  0
   28.9489  -22.0147  -16.5624 N   0  0  0  0  0  0  0  0  0  0  0  0
   27.1295  -21.1217  -15.2208 C   0  0  0  0  0  0  0  0  0  0  0  0
   25.9245  -21.4035  -15.4482 O   0  0  0  0  0  0  0  0  0  0  0  0
   30.1623  -19.1442  -22.5824 N   0  0  0  0  0  0  0  0  0  0  0  0
   27.6139  -20.9944  -13.8913 C   0  0  2  0  0  0  0  0  0  0  0  0
   26.7548  -21.2020  -12.7485 C   0  0  0  0  0  0  0  0  0  0  0  0
   27.5623  -21.0204  -11.4788 C   0  0  0  0  0  0  0  0  0  0  0  0
   26.8052  -20.8369  -10.2469 C   0  0  0  0  0  0  0  0  0  0  0  0
   25.4182  -20.9569  -10.0628 N   0  0  0  0  0  0  0  0  0  0  0  0
   25.1352  -20.6725   -8.7889 C   0  0  0  0  0  0  0  0  0  0  0  0
   26.2418  -20.3695   -8.1027 C   0  0  0  0  0  0  0  0  0  0  0  0
   26.4534  -20.0288   -6.7747 C   0  0  0  0  0  0  0  0  0  0  0  0
   27.7388  -19.7849   -6.3396 C   0  0  0  0  0  0  0  0  0  0  0  0
   28.8206  -19.8736   -7.2027 C   0  0  0  0  0  0  0  0  0  0  0  0
   28.5506  -20.2140   -8.5061 C   0  0  0  0  0  0  0  0  0  0  0  0
   27.2837  -20.4683   -8.9959 C   0  0  0  0  0  0  0  0  0  0  0  0
   25.4503  -20.5803  -12.7768 O   0  0  0  0  0  0  0  0  0  0  0  0
   25.4050  -19.3361  -12.4450 N   0  0  0  0  0  0  0  0  0  0  0  0
   24.2154  -21.1930  -13.1309 C   0  0  0  0  0  0  0  0  0  0  0  0
   23.9128  -22.4945  -13.6144 C   0  0  0  0  0  0  0  0  0  0  0  0
   22.4880  -22.7550  -13.1144 C   0  0  0  0  0  0  0  0  0  0  0  0
   21.8659  -21.4090  -13.5262 C   0  0  1  0  0  0  0  0  0  0  0  0
   22.9418  -20.4553  -13.0574 C   0  0  0  0  0  0  0  0  0  0  0  0
   22.6747  -19.9436  -11.7054 O   0  0  0  0  0  0  0  0  0  0  0  0
   21.6711  -19.0300  -11.4918 O   0  0  0  0  0  0  0  0  0  0  0  0
  2  1  1  0
  3  2  2  0
  4  2  1  0
  5  4  1  0
  6  5  1  0
  7  6  1  0
  8  9  1  6
  8  7  1  0
 10  8  1  0
 10 11  2  0
 12 10  1  0
 13 12  1  0
 13 14  1  1
 14 15  1  0
 15 16  2  0
 16 17  1  0
 18 17  1  0
 19 18  2  0
 20 19  1  0
 21 22  1  0
 21 20  2  0
 22 23  2  0
 23 15  1  0
 23 18  1  0
 24 13  1  0
 25 24  2  0
 26 27  1  0
 26 24  1  0
 28 27  1  0
 29 28  1  0
 30 29  1  0
 30 26  1  0
 30 31  1  1
 31 32  1  0
 33 31  2  0
M  END
$$$$
