RWP.pdb
     RDKit          3D

 33 35  0  0  1  0  0  0  0  0999 V2000
   26.2792  -26.9294  -19.8039 N   0  0  0  0  0  0  0  0  0  0  0  0
   27.6177  -27.2289  -19.4597 C   0  0  0  0  0  0  0  0  0  0  0  0
   28.1985  -28.2100  -20.0599 N   0  0  0  0  0  0  0  0  0  0  0  0
   28.3423  -26.4886  -18.4783 N   0  0  0  0  0  0  0  0  0  0  0  0
   27.6684  -25.5846  -17.5725 C   0  0  0  0  0  0  0  0  0  0  0  0
   27.2475  -24.3798  -18.3702 C   0  0  0  0  0  0  0  0  0  0  0  0
   26.8866  -23.1942  -17.5397 C   0  0  0  0  0  0  0  0  0  0  0  0
   27.9617  -22.7896  -16.5576 C   0  0  2  0  0  0  0  0  0  0  0  0
   28.8700  -23.8778  -16.3856 N   0  0  0  0  0  0  0  0  0  0  0  0
   27.2743  -22.4163  -15.2786 C   0  0  0  0  0  0  0  0  0  0  0  0
   26.7497  -23.3336  -14.5957 O   0  0  0  0  0  0  0  0  0  0  0  0
   29.1559  -28.4929  -19.8266 N   0  0  0  0  0  0  0  0  0  0  0  0
   27.2189  -21.0623  -14.8523 C   0  0  1  0  0  0  0  0  0  0  0  0
   26.6341  -20.6901  -13.5848 C   0  0  0  0  0  0  0  0  0  0  0  0
   27.5444  -19.6985  -12.8882 C   0  0  0  0  0  0  0  0  0  0  0  0
   28.2677  -20.1878  -11.7212 C   0  0  0  0  0  0  0  0  0  0  0  0
   29.5331  -20.7955  -11.6851 N   0  0  0  0  0  0  0  0  0  0  0  0
   29.8082  -21.1232  -10.4198 C   0  0  0  0  0  0  0  0  0  0  0  0
   28.8103  -20.7748   -9.6012 C   0  0  0  0  0  0  0  0  0  0  0  0
   28.6441  -20.8915   -8.2290 C   0  0  0  0  0  0  0  0  0  0  0  0
   27.4890  -20.4122   -7.6483 C   0  0  0  0  0  0  0  0  0  0  0  0
   26.4935  -19.8175   -8.4088 C   0  0  0  0  0  0  0  0  0  0  0  0
   26.7127  -19.7302   -9.7623 C   0  0  0  0  0  0  0  0  0  0  0  0
   27.8496  -20.1937  -10.3964 C   0  0  0  0  0  0  0  0  0  0  0  0
   25.2207  -20.3886  -13.5685 O   0  0  0  0  0  0  0  0  0  0  0  0
   24.6996  -20.1632  -12.4118 N   0  0  0  0  0  0  0  0  0  0  0  0
   24.3463  -20.3137  -14.6892 C   0  0  0  0  0  0  0  0  0  0  0  0
   24.5635  -20.5555  -16.0725 C   0  0  0  0  0  0  0  0  0  0  0  0
   23.1949  -21.0110  -16.5897 C   0  0  0  0  0  0  0  0  0  0  0  0
   22.3397  -19.9153  -15.9291 C   0  0  1  0  0  0  0  0  0  0  0  0
   22.9401  -19.8988  -14.5413 C   0  0  0  0  0  0  0  0  0  0  0  0
   22.2017  -20.7644  -13.6103 O   0  0  0  0  0  0  0  0  0  0  0  0
   22.6899  -22.0040  -13.2751 O   0  0  0  0  0  0  0  0  0  0  0  0
  2  1  1  0
  3  2  2  0
  4  2  1  0
  5  4  1  0
  6  5  1  0
  7  6  1  0
  8  9  1  1
  8  7  1  0
 10  8  1  0
 10 11  2  0
 12 10  1  0
 13 12  1  0
 13 14  1  1
 14 15  1  0
 15 16  2  0
 16 17  1  0
 18 17  1  0
 19 18  2  0
 20 19  1  0
 21 22  1  0
 21 20  2  0
 22 23  2  0
 23 15  1  0
 23 18  1  0
 24 13  1  0
 25 24  2  0
 26 27  1  0
 26 24  1  0
 28 27  1  0
 29 28  1  0
 30 29  1  0
 30 26  1  0
 30 31  1  1
 31 32  1  0
 33 31  2  0
M  END
$$$$
