RWP.pdb
     RDKit          3D

 33 35  0  0  1  0  0  0  0  0999 V2000
   30.6710  -27.1071  -19.4459 N   0  0  0  0  0  0  0  0  0  0  0  0
   30.2539  -28.0870  -18.5156 C   0  0  0  0  0  0  0  0  0  0  0  0
   30.8392  -29.2348  -18.5326 N   0  0  0  0  0  0  0  0  0  0  0  0
   29.2152  -27.8514  -17.5658 N   0  0  0  0  0  0  0  0  0  0  0  0
   28.7156  -26.5172  -17.3168 C   0  0  0  0  0  0  0  0  0  0  0  0
   29.7953  -25.7610  -16.5905 C   0  0  0  0  0  0  0  0  0  0  0  0
   29.3792  -24.4094  -16.1153 C   0  0  0  0  0  0  0  0  0  0  0  0
   28.8892  -23.5009  -17.2192 C   0  0  2  0  0  0  0  0  0  0  0  0
   30.0012  -23.0950  -18.0176 N   0  0  0  0  0  0  0  0  0  0  0  0
   28.2061  -22.3382  -16.5642 C   0  0  0  0  0  0  0  0  0  0  0  0
   28.9170  -21.4947  -15.9591 O   0  0  0  0  0  0  0  0  0  0  0  0
   30.5382  -30.0016  -17.9223 N   0  0  0  0  0  0  0  0  0  0  0  0
   26.7940  -22.1957  -16.6273 C   0  0  2  0  0  0  0  0  0  0  0  0
   26.1066  -21.1382  -15.9229 C   0  0  0  0  0  0  0  0  0  0  0  0
   25.3305  -20.2992  -16.9183 C   0  0  0  0  0  0  0  0  0  0  0  0
   24.5287  -19.2132  -16.3685 C   0  0  0  0  0  0  0  0  0  0  0  0
   24.9758  -17.9741  -15.8819 N   0  0  0  0  0  0  0  0  0  0  0  0
   23.9188  -17.2883  -15.4387 C   0  0  0  0  0  0  0  0  0  0  0  0
   22.7887  -17.9849  -15.5959 C   0  0  0  0  0  0  0  0  0  0  0  0
   21.4636  -17.6925  -15.3077 C   0  0  0  0  0  0  0  0  0  0  0  0
   20.4895  -18.6214  -15.6069 C   0  0  0  0  0  0  0  0  0  0  0  0
   20.8095  -19.8389  -16.1889 C   0  0  0  0  0  0  0  0  0  0  0  0
   22.1376  -20.0736  -16.4509 C   0  0  0  0  0  0  0  0  0  0  0  0
   23.1539  -19.1800  -16.1717 C   0  0  0  0  0  0  0  0  0  0  0  0
   25.4175  -21.4917  -14.7027 O   0  0  0  0  0  0  0  0  0  0  0  0
   24.4536  -22.3390  -14.8178 N   0  0  0  0  0  0  0  0  0  0  0  0
   25.6890  -21.0063  -13.3925 C   0  0  0  0  0  0  0  0  0  0  0  0
   26.7337  -20.1854  -12.8886 C   0  0  0  0  0  0  0  0  0  0  0  0
   26.0984  -19.4669  -11.6934 C   0  0  0  0  0  0  0  0  0  0  0  0
   25.4355  -20.6898  -11.0348 C   0  0  1  0  0  0  0  0  0  0  0  0
   24.8305  -21.3598  -12.2481 C   0  0  0  0  0  0  0  0  0  0  0  0
   23.4319  -20.9593  -12.4596 O   0  0  0  0  0  0  0  0  0  0  0  0
   22.4375  -21.4442  -11.6451 O   0  0  0  0  0  0  0  0  0  0  0  0
  2  1  1  0
  3  2  2  0
  4  2  1  0
  5  4  1  0
  6  5  1  0
  7  6  1  0
  8  9  1  1
  8  7  1  0
 10  8  1  0
 10 11  2  0
 12 10  1  0
 13 12  1  0
 13 14  1  6
 14 15  1  0
 15 16  2  0
 16 17  1  0
 18 17  1  0
 19 18  2  0
 20 19  1  0
 21 22  1  0
 21 20  2  0
 22 23  2  0
 23 15  1  0
 23 18  1  0
 24 13  1  0
 25 24  2  0
 26 27  1  0
 26 24  1  0
 28 27  1  0
 29 28  1  0
 30 29  1  0
 30 26  1  0
 30 31  1  1
 31 32  1  0
 33 31  2  0
M  END
$$$$
