RWP.pdb
     RDKit          3D

 33 35  0  0  1  0  0  0  0  0999 V2000
   28.4596  -26.8034  -16.4153 N   0  0  0  0  0  0  0  0  0  0  0  0
   29.8567  -26.8651  -16.6251 C   0  0  0  0  0  0  0  0  0  0  0  0
   30.4043  -28.0238  -16.7589 N   0  0  0  0  0  0  0  0  0  0  0  0
   30.6754  -25.6983  -16.6930 N   0  0  0  0  0  0  0  0  0  0  0  0
   30.1142  -24.3773  -16.5145 C   0  0  0  0  0  0  0  0  0  0  0  0
   29.9111  -23.7863  -17.8837 C   0  0  0  0  0  0  0  0  0  0  0  0
   28.5554  -24.0282  -18.4574 C   0  0  0  0  0  0  0  0  0  0  0  0
   27.9168  -22.7935  -19.0504 C   0  0  2  0  0  0  0  0  0  0  0  0
   28.8870  -22.0959  -19.8320 N   0  0  0  0  0  0  0  0  0  0  0  0
   27.4077  -21.9671  -17.9078 C   0  0  0  0  0  0  0  0  0  0  0  0
   28.1148  -21.0066  -17.5071 O   0  0  0  0  0  0  0  0  0  0  0  0
   31.4229  -28.1403  -16.7648 N   0  0  0  0  0  0  0  0  0  0  0  0
   26.1599  -22.2632  -17.2966 C   0  0  2  0  0  0  0  0  0  0  0  0
   25.5377  -21.3523  -16.3638 C   0  0  0  0  0  0  0  0  0  0  0  0
   24.0615  -21.2386  -16.6879 C   0  0  0  0  0  0  0  0  0  0  0  0
   23.2839  -20.3192  -15.8666 C   0  0  0  0  0  0  0  0  0  0  0  0
   22.4366  -20.6318  -14.7912 N   0  0  0  0  0  0  0  0  0  0  0  0
   21.8920  -19.4989  -14.3397 C   0  0  0  0  0  0  0  0  0  0  0  0
   22.3183  -18.4434  -15.0408 C   0  0  0  0  0  0  0  0  0  0  0  0
   22.0520  -17.0857  -14.9395 C   0  0  0  0  0  0  0  0  0  0  0  0
   22.6689  -16.2126  -15.8103 C   0  0  0  0  0  0  0  0  0  0  0  0
   23.5481  -16.6658  -16.7825 C   0  0  0  0  0  0  0  0  0  0  0  0
   23.7727  -18.0201  -16.8359 C   0  0  0  0  0  0  0  0  0  0  0  0
   23.1819  -18.9393  -15.9901 C   0  0  0  0  0  0  0  0  0  0  0  0
   25.8814  -21.4946  -14.9672 O   0  0  0  0  0  0  0  0  0  0  0  0
   25.5950  -22.6266  -14.4225 N   0  0  0  0  0  0  0  0  0  0  0  0
   26.5005  -20.5220  -14.1325 C   0  0  0  0  0  0  0  0  0  0  0  0
   27.0348  -19.2366  -14.4184 C   0  0  0  0  0  0  0  0  0  0  0  0
   26.8650  -18.4632  -13.1065 C   0  0  0  0  0  0  0  0  0  0  0  0
   27.4104  -19.5388  -12.1505 C   0  0  1  0  0  0  0  0  0  0  0  0
   26.7163  -20.7669  -12.6955 C   0  0  0  0  0  0  0  0  0  0  0  0
   25.4601  -21.0510  -11.9867 O   0  0  0  0  0  0  0  0  0  0  0  0
   24.2516  -20.8971  -12.6216 O   0  0  0  0  0  0  0  0  0  0  0  0
  2  1  1  0
  3  2  2  0
  4  2  1  0
  5  4  1  0
  6  5  1  0
  7  6  1  0
  8  9  1  1
  8  7  1  0
 10  8  1  0
 10 11  2  0
 12 10  1  0
 13 12  1  0
 13 14  1  6
 14 15  1  0
 15 16  2  0
 16 17  1  0
 18 17  1  0
 19 18  2  0
 20 19  1  0
 21 22  1  0
 21 20  2  0
 22 23  2  0
 23 15  1  0
 23 18  1  0
 24 13  1  0
 25 24  2  0
 26 27  1  0
 26 24  1  0
 28 27  1  0
 29 28  1  0
 30 29  1  0
 30 26  1  0
 30 31  1  1
 31 32  1  0
 33 31  2  0
M  END
$$$$
