RWP.pdb
     RDKit          3D

 33 35  0  0  1  0  0  0  0  0999 V2000
   25.8506  -19.3442  -18.8405 N   0  0  0  0  0  0  0  0  0  0  0  0
   25.0469  -19.2178  -19.9970 C   0  0  0  0  0  0  0  0  0  0  0  0
   25.2808  -20.0014  -20.9928 N   0  0  0  0  0  0  0  0  0  0  0  0
   23.9939  -18.2602  -20.0997 N   0  0  0  0  0  0  0  0  0  0  0  0
   23.7074  -17.3423  -19.0193 C   0  0  0  0  0  0  0  0  0  0  0  0
   24.5520  -16.1156  -19.2357 C   0  0  0  0  0  0  0  0  0  0  0  0
   25.4170  -15.7580  -18.0740 C   0  0  0  0  0  0  0  0  0  0  0  0
   24.6592  -15.6074  -16.7751 C   0  0  2  0  0  0  0  0  0  0  0  0
   24.7760  -14.2590  -16.3203 N   0  0  0  0  0  0  0  0  0  0  0  0
   25.2470  -16.5870  -15.8042 C   0  0  0  0  0  0  0  0  0  0  0  0
   26.4432  -16.4268  -15.4486 O   0  0  0  0  0  0  0  0  0  0  0  0
   24.7897  -19.8973  -21.8867 N   0  0  0  0  0  0  0  0  0  0  0  0
   24.4713  -17.6657  -15.3012 C   0  0  2  0  0  0  0  0  0  0  0  0
   25.0315  -18.6471  -14.4012 C   0  0  0  0  0  0  0  0  0  0  0  0
   24.0666  -18.8808  -13.2561 C   0  0  0  0  0  0  0  0  0  0  0  0
   24.4657  -19.8673  -12.2600 C   0  0  0  0  0  0  0  0  0  0  0  0
   24.1262  -21.2291  -12.2128 N   0  0  0  0  0  0  0  0  0  0  0  0
   24.6717  -21.7626  -11.1167 C   0  0  0  0  0  0  0  0  0  0  0  0
   25.3574  -20.8485  -10.4228 C   0  0  0  0  0  0  0  0  0  0  0  0
   26.0941  -20.9256   -9.2498 C   0  0  0  0  0  0  0  0  0  0  0  0
   26.7220  -19.7938   -8.7744 C   0  0  0  0  0  0  0  0  0  0  0  0
   26.6307  -18.5836   -9.4455 C   0  0  0  0  0  0  0  0  0  0  0  0
   25.8873  -18.5671  -10.6007 C   0  0  0  0  0  0  0  0  0  0  0  0
   25.2373  -19.6695  -11.1218 C   0  0  0  0  0  0  0  0  0  0  0  0
   25.6291  -19.8238  -14.9904 O   0  0  0  0  0  0  0  0  0  0  0  0
   24.9126  -20.4537  -15.8564 N   0  0  0  0  0  0  0  0  0  0  0  0
   26.9196  -20.3588  -14.7178 C   0  0  0  0  0  0  0  0  0  0  0  0
   27.9349  -19.9555  -13.8090 C   0  0  0  0  0  0  0  0  0  0  0  0
   28.6764  -21.2554  -13.4792 C   0  0  0  0  0  0  0  0  0  0  0  0
   28.8290  -21.7864  -14.9156 C   0  0  1  0  0  0  0  0  0  0  0  0
   27.4399  -21.5249  -15.4531 C   0  0  0  0  0  0  0  0  0  0  0  0
   26.5663  -22.6997  -15.3193 O   0  0  0  0  0  0  0  0  0  0  0  0
   25.6798  -22.7934  -14.2739 O   0  0  0  0  0  0  0  0  0  0  0  0
  2  1  1  0
  3  2  2  0
  4  2  1  0
  5  4  1  0
  6  5  1  0
  7  6  1  0
  8  9  1  1
  8  7  1  0
 10  8  1  0
 10 11  2  0
 12 10  1  0
 13 12  1  0
 13 14  1  1
 14 15  1  0
 15 16  2  0
 16 17  1  0
 18 17  1  0
 19 18  2  0
 20 19  1  0
 21 22  1  0
 21 20  2  0
 22 23  2  0
 23 15  1  0
 23 18  1  0
 24 13  1  0
 25 24  2  0
 26 27  1  0
 26 24  1  0
 28 27  1  0
 29 28  1  0
 30 29  1  0
 30 26  1  0
 30 31  1  1
 31 32  1  0
 33 31  2  0
M  END
$$$$
