EFS.pdb
     RDKit          3D

 27 27  0  0  1  0  0  0  0  0999 V2000
   10.9785  -16.4130   19.7839 N   0  0  0  0  0  0  0  0  0  0  0  0
    9.6693  -16.4819   20.3189 C   0  0  1  0  0  0  0  0  0  0  0  0
    9.0177  -17.8111   20.3308 C   0  0  0  0  0  0  0  0  0  0  0  0
    9.5903  -18.8745   21.1769 C   0  0  0  0  0  0  0  0  0  0  0  0
    8.9864  -20.1990   21.1271 C   0  0  0  0  0  0  0  0  0  0  0  0
    8.0152  -20.4509   20.3929 O   0  0  0  0  0  0  0  0  0  0  0  0
    9.5989  -15.9121   21.7177 C   0  0  0  0  0  0  0  0  0  0  0  0
   10.6083  -16.0499   22.4643 O   0  0  0  0  0  0  0  0  0  0  0  0
    9.5086  -21.2317   21.9287 O   0  0  0  0  0  0  0  0  0  0  0  0
    8.4873  -15.2420   22.2378 N   0  0  0  0  0  0  0  0  0  0  0  0
    8.3912  -14.7569   23.5938 C   0  0  1  0  0  0  0  0  0  0  0  0
    7.2426  -13.7918   23.7693 C   0  0  0  0  0  0  0  0  0  0  0  0
    7.1563  -13.2400   25.1266 C   0  0  0  0  0  0  0  0  0  0  0  0
    8.0971  -12.3243   25.5431 C   0  0  0  0  0  0  0  0  0  0  0  0
    8.0533  -11.7721   26.8268 C   0  0  0  0  0  0  0  0  0  0  0  0
    7.0666  -12.1337   27.7020 C   0  0  0  0  0  0  0  0  0  0  0  0
    6.1200  -13.0469   27.3010 C   0  0  0  0  0  0  0  0  0  0  0  0
    6.1723  -13.5923   26.0177 C   0  0  0  0  0  0  0  0  0  0  0  0
    8.3963  -15.7932   24.6206 C   0  0  0  0  0  0  0  0  0  0  0  0
    7.4679  -16.6284   24.6715 O   0  0  0  0  0  0  0  0  0  0  0  0
   11.6281  -17.2674   25.6627 O   0  0  0  0  0  0  0  0  0  0  0  0
   10.5101  -17.9919   26.1313 C   0  0  0  0  0  0  0  0  0  0  0  0
    9.4905  -16.9440   26.5548 C   0  0  2  0  0  0  0  0  0  0  0  0
    9.4501  -15.8610   25.5610 N   0  0  0  0  0  0  0  0  0  0  0  0
    9.9282  -16.4046   27.8515 C   0  0  0  0  0  0  0  0  0  0  0  0
   10.0832  -17.2158   28.9537 O   0  0  0  0  0  0  0  0  0  0  0  0
   10.1662  -15.1843   27.9648 O   0  0  0  0  0  0  0  0  0  0  0  0
  2  1  1  1
  2  3  1  0
  4  5  1  0
  4  3  1  0
  5  6  2  0
  7  2  1  0
  7 10  1  0
  8  7  2  0
  9  5  1  0
 11 10  1  0
 11 12  1  6
 12 13  1  0
 13 18  2  0
 13 14  1  0
 14 15  2  0
 15 16  1  0
 17 16  2  0
 18 17  1  0
 19 11  1  0
 20 19  2  0
 21 22  1  0
 23 22  1  6
 23 24  1  0
 24 19  1  0
 25 23  1  0
 26 25  1  0
 27 25  2  0
M  END
$$$$
