EFS.pdb
     RDKit          3D

 27 27  0  0  1  0  0  0  0  0999 V2000
    8.8384  -18.2323   20.7634 N   0  0  0  0  0  0  0  0  0  0  0  0
   10.0843  -18.0047   21.3968 C   0  0  1  0  0  0  0  0  0  0  0  0
   11.2632  -17.8342   20.5178 C   0  0  0  0  0  0  0  0  0  0  0  0
   11.0499  -17.4393   19.1132 C   0  0  0  0  0  0  0  0  0  0  0  0
   12.2117  -17.3260   18.2421 C   0  0  0  0  0  0  0  0  0  0  0  0
   12.4085  -16.3213   17.5368 O   0  0  0  0  0  0  0  0  0  0  0  0
   10.0307  -16.8274   22.3441 C   0  0  0  0  0  0  0  0  0  0  0  0
   11.1197  -16.4033   22.8231 O   0  0  0  0  0  0  0  0  0  0  0  0
   13.1457  -18.3780   18.1886 O   0  0  0  0  0  0  0  0  0  0  0  0
    8.8521  -16.1779   22.7238 N   0  0  0  0  0  0  0  0  0  0  0  0
    8.7093  -15.3873   23.9229 C   0  0  1  0  0  0  0  0  0  0  0  0
    7.4942  -14.4917   23.8687 C   0  0  0  0  0  0  0  0  0  0  0  0
    7.3691  -13.6192   25.0422 C   0  0  0  0  0  0  0  0  0  0  0  0
    6.3990  -13.8883   25.9820 C   0  0  0  0  0  0  0  0  0  0  0  0
    6.2442  -13.0846   27.1156 C   0  0  0  0  0  0  0  0  0  0  0  0
    7.0606  -12.0057   27.3151 C   0  0  0  0  0  0  0  0  0  0  0  0
    8.0340  -11.7239   26.3857 C   0  0  0  0  0  0  0  0  0  0  0  0
    8.1804  -12.5320   25.2577 C   0  0  0  0  0  0  0  0  0  0  0  0
    8.7775  -16.1414   25.1698 C   0  0  0  0  0  0  0  0  0  0  0  0
    7.9116  -17.0052   25.4268 O   0  0  0  0  0  0  0  0  0  0  0  0
   10.6726  -18.5690   26.0026 O   0  0  0  0  0  0  0  0  0  0  0  0
   11.0904  -17.7506   27.0751 C   0  0  0  0  0  0  0  0  0  0  0  0
    9.9657  -16.7471   27.2873 C   0  0  2  0  0  0  0  0  0  0  0  0
    9.8223  -15.9025   26.0922 N   0  0  0  0  0  0  0  0  0  0  0  0
   10.3360  -15.9098   28.4388 C   0  0  0  0  0  0  0  0  0  0  0  0
   10.4931  -14.5469   28.3174 O   0  0  0  0  0  0  0  0  0  0  0  0
   10.5146  -16.4385   29.5555 O   0  0  0  0  0  0  0  0  0  0  0  0
  2  1  1  6
  2  3  1  0
  4  5  1  0
  4  3  1  0
  5  6  2  0
  7  2  1  0
  7 10  1  0
  8  7  2  0
  9  5  1  0
 11 10  1  0
 11 12  1  6
 12 13  1  0
 13 18  2  0
 13 14  1  0
 14 15  2  0
 15 16  1  0
 17 16  2  0
 18 17  1  0
 19 11  1  0
 20 19  2  0
 21 22  1  0
 23 22  1  6
 23 24  1  0
 24 19  1  0
 25 23  1  0
 26 25  1  0
 27 25  2  0
M  END
$$$$
