EFS.pdb
     RDKit          3D

 27 27  0  0  1  0  0  0  0  0999 V2000
    4.3427  -19.4110   22.2486 N   0  0  0  0  0  0  0  0  0  0  0  0
    5.5140  -19.5732   23.0275 C   0  0  1  0  0  0  0  0  0  0  0  0
    6.5259  -20.5310   22.5271 C   0  0  0  0  0  0  0  0  0  0  0  0
    6.3828  -21.9580   22.8699 C   0  0  0  0  0  0  0  0  0  0  0  0
    6.7474  -22.9503   21.8679 C   0  0  0  0  0  0  0  0  0  0  0  0
    7.9009  -23.4064   21.7845 O   0  0  0  0  0  0  0  0  0  0  0  0
    6.2055  -18.2546   23.2910 C   0  0  0  0  0  0  0  0  0  0  0  0
    6.8313  -17.7135   22.3366 O   0  0  0  0  0  0  0  0  0  0  0  0
    5.7743  -23.4139   20.9623 O   0  0  0  0  0  0  0  0  0  0  0  0
    6.1965  -17.5957   24.5243 N   0  0  0  0  0  0  0  0  0  0  0  0
    6.9437  -16.3944   24.8099 C   0  0  1  0  0  0  0  0  0  0  0  0
    6.2442  -15.5207   25.8242 C   0  0  0  0  0  0  0  0  0  0  0  0
    6.9332  -14.2463   26.0593 C   0  0  0  0  0  0  0  0  0  0  0  0
    6.6097  -13.1526   25.2873 C   0  0  0  0  0  0  0  0  0  0  0  0
    7.2398  -11.9189   25.4768 C   0  0  0  0  0  0  0  0  0  0  0  0
    8.1983  -11.7728   26.4413 C   0  0  0  0  0  0  0  0  0  0  0  0
    8.5323  -12.8555   27.2203 C   0  0  0  0  0  0  0  0  0  0  0  0
    7.8977  -14.0825   27.0234 C   0  0  0  0  0  0  0  0  0  0  0  0
    8.3470  -16.6072   25.1469 C   0  0  0  0  0  0  0  0  0  0  0  0
    8.6535  -17.2558   26.1703 O   0  0  0  0  0  0  0  0  0  0  0  0
   11.1588  -15.4296   22.4170 O   0  0  0  0  0  0  0  0  0  0  0  0
   11.2939  -16.7287   22.9541 C   0  0  0  0  0  0  0  0  0  0  0  0
   10.7233  -16.6512   24.3631 C   0  0  2  0  0  0  0  0  0  0  0  0
    9.3672  -16.0846   24.3187 N   0  0  0  0  0  0  0  0  0  0  0  0
   11.6005  -15.7652   25.1439 C   0  0  0  0  0  0  0  0  0  0  0  0
   11.1091  -14.6531   25.7909 O   0  0  0  0  0  0  0  0  0  0  0  0
   12.8199  -16.0193   25.2269 O   0  0  0  0  0  0  0  0  0  0  0  0
  2  1  1  6
  2  3  1  0
  4  5  1  0
  4  3  1  0
  5  6  2  0
  7  2  1  0
  7 10  1  0
  8  7  2  0
  9  5  1  0
 11 10  1  0
 11 12  1  1
 12 13  1  0
 13 18  2  0
 13 14  1  0
 14 15  2  0
 15 16  1  0
 17 16  2  0
 18 17  1  0
 19 11  1  0
 20 19  2  0
 21 22  1  0
 23 22  1  6
 23 24  1  0
 24 19  1  0
 25 23  1  0
 26 25  1  0
 27 25  2  0
M  END
$$$$
