EFS.pdb
     RDKit          3D

 27 27  0  0  1  0  0  0  0  0999 V2000
    9.9070  -15.7430   18.7133 N   0  0  0  0  0  0  0  0  0  0  0  0
    9.0353  -16.3582   19.6443 C   0  0  1  0  0  0  0  0  0  0  0  0
    9.0974  -17.8335   19.7489 C   0  0  0  0  0  0  0  0  0  0  0  0
    8.8677  -18.6411   18.5367 C   0  0  0  0  0  0  0  0  0  0  0  0
    8.8239  -20.0909   18.6691 C   0  0  0  0  0  0  0  0  0  0  0  0
    9.7246  -20.8193   18.2176 O   0  0  0  0  0  0  0  0  0  0  0  0
    9.1930  -15.7820   21.0334 C   0  0  0  0  0  0  0  0  0  0  0  0
   10.3583  -15.7090   21.5149 O   0  0  0  0  0  0  0  0  0  0  0  0
    7.7354  -20.6964   19.3251 O   0  0  0  0  0  0  0  0  0  0  0  0
    8.1307  -15.3246   21.8192 N   0  0  0  0  0  0  0  0  0  0  0  0
    8.2734  -14.8123   23.1610 C   0  0  1  0  0  0  0  0  0  0  0  0
    7.1668  -13.8486   23.5193 C   0  0  0  0  0  0  0  0  0  0  0  0
    7.2938  -13.3049   24.8766 C   0  0  0  0  0  0  0  0  0  0  0  0
    6.2530  -13.4604   25.7652 C   0  0  0  0  0  0  0  0  0  0  0  0
    6.3306  -12.9595   27.0682 C   0  0  0  0  0  0  0  0  0  0  0  0
    7.4517  -12.2994   27.4898 C   0  0  0  0  0  0  0  0  0  0  0  0
    8.4994  -12.1361   26.6143 C   0  0  0  0  0  0  0  0  0  0  0  0
    8.4122  -12.6397   25.3159 C   0  0  0  0  0  0  0  0  0  0  0  0
    8.4689  -15.8273   24.1903 C   0  0  0  0  0  0  0  0  0  0  0  0
    7.5636  -16.6537   24.4344 O   0  0  0  0  0  0  0  0  0  0  0  0
   12.1423  -16.7802   25.1177 O   0  0  0  0  0  0  0  0  0  0  0  0
   11.1711  -17.7583   25.4254 C   0  0  0  0  0  0  0  0  0  0  0  0
    9.9331  -16.9851   25.8572 C   0  0  2  0  0  0  0  0  0  0  0  0
    9.6818  -15.8845   24.9151 N   0  0  0  0  0  0  0  0  0  0  0  0
   10.2034  -16.4348   27.1945 C   0  0  0  0  0  0  0  0  0  0  0  0
   10.4521  -17.2538   28.2735 O   0  0  0  0  0  0  0  0  0  0  0  0
   10.2089  -15.1981   27.3644 O   0  0  0  0  0  0  0  0  0  0  0  0
  2  1  1  6
  2  3  1  0
  4  5  1  0
  4  3  1  0
  5  6  2  0
  7  2  1  0
  7 10  1  0
  8  7  2  0
  9  5  1  0
 11 10  1  0
 11 12  1  1
 12 13  1  0
 13 18  2  0
 13 14  1  0
 14 15  2  0
 15 16  1  0
 17 16  2  0
 18 17  1  0
 19 11  1  0
 20 19  2  0
 21 22  1  0
 23 22  1  6
 23 24  1  0
 24 19  1  0
 25 23  1  0
 26 25  1  0
 27 25  2  0
M  END
$$$$
