EFS.pdb
     RDKit          3D

 27 27  0  0  1  0  0  0  0  0999 V2000
    9.8743  -16.4706   19.3819 N   0  0  0  0  0  0  0  0  0  0  0  0
    9.6062  -17.1794   20.5781 C   0  0  1  0  0  0  0  0  0  0  0  0
   10.4651  -18.3485   20.8729 C   0  0  0  0  0  0  0  0  0  0  0  0
   10.2709  -19.5859   20.0947 C   0  0  0  0  0  0  0  0  0  0  0  0
   11.1267  -20.7280   20.3858 C   0  0  0  0  0  0  0  0  0  0  0  0
   10.6662  -21.8038   20.8055 O   0  0  0  0  0  0  0  0  0  0  0  0
    9.6165  -16.2723   21.7878 C   0  0  0  0  0  0  0  0  0  0  0  0
   10.7163  -15.7532   22.1287 O   0  0  0  0  0  0  0  0  0  0  0  0
   12.5169  -20.6227   20.1903 O   0  0  0  0  0  0  0  0  0  0  0  0
    8.4859  -15.9714   22.5535 N   0  0  0  0  0  0  0  0  0  0  0  0
    8.5034  -15.1548   23.7435 C   0  0  1  0  0  0  0  0  0  0  0  0
    7.2977  -14.2487   23.8256 C   0  0  0  0  0  0  0  0  0  0  0  0
    7.2743  -13.4303   25.0437 C   0  0  0  0  0  0  0  0  0  0  0  0
    6.4346  -13.7830   26.0769 C   0  0  0  0  0  0  0  0  0  0  0  0
    6.3800  -13.0331   27.2557 C   0  0  0  0  0  0  0  0  0  0  0  0
    7.1666  -11.9247   27.4073 C   0  0  0  0  0  0  0  0  0  0  0  0
    8.0103  -11.5596   26.3847 C   0  0  0  0  0  0  0  0  0  0  0  0
    8.0575  -12.3145   25.2122 C   0  0  0  0  0  0  0  0  0  0  0  0
    8.7253  -15.8836   24.9876 C   0  0  0  0  0  0  0  0  0  0  0  0
    7.9463  -16.8018   25.3225 O   0  0  0  0  0  0  0  0  0  0  0  0
   12.3084  -16.1613   26.1752 O   0  0  0  0  0  0  0  0  0  0  0  0
   11.4538  -17.1044   26.7874 C   0  0  0  0  0  0  0  0  0  0  0  0
   10.1302  -16.3826   26.9976 C   0  0  2  0  0  0  0  0  0  0  0  0
    9.8218  -15.5588   25.8193 N   0  0  0  0  0  0  0  0  0  0  0  0
   10.2852  -15.5157   28.1760 C   0  0  0  0  0  0  0  0  0  0  0  0
   10.6236  -16.0293   29.4083 O   0  0  0  0  0  0  0  0  0  0  0  0
   10.1071  -14.2850   28.0658 O   0  0  0  0  0  0  0  0  0  0  0  0
  2  1  1  6
  2  3  1  0
  4  5  1  0
  4  3  1  0
  5  6  2  0
  7  2  1  0
  7 10  1  0
  8  7  2  0
  9  5  1  0
 11 10  1  0
 11 12  1  1
 12 13  1  0
 13 18  2  0
 13 14  1  0
 14 15  2  0
 15 16  1  0
 17 16  2  0
 18 17  1  0
 19 11  1  0
 20 19  2  0
 21 22  1  0
 23 22  1  6
 23 24  1  0
 24 19  1  0
 25 23  1  0
 26 25  1  0
 27 25  2  0
M  END
$$$$
