EFS.pdb
     RDKit          3D

 27 27  0  0  1  0  0  0  0  0999 V2000
    8.3845  -17.8565   20.0748 N   0  0  0  0  0  0  0  0  0  0  0  0
    9.6902  -17.5917   20.5546 C   0  0  1  0  0  0  0  0  0  0  0  0
   10.6966  -17.1589   19.5590 C   0  0  0  0  0  0  0  0  0  0  0  0
   10.7638  -17.8637   18.2655 C   0  0  0  0  0  0  0  0  0  0  0  0
   11.7962  -17.4710   17.3162 C   0  0  0  0  0  0  0  0  0  0  0  0
   12.9826  -17.8154   17.4561 O   0  0  0  0  0  0  0  0  0  0  0  0
    9.6849  -16.5866   21.6842 C   0  0  0  0  0  0  0  0  0  0  0  0
   10.7975  -16.2263   22.1610 O   0  0  0  0  0  0  0  0  0  0  0  0
   11.4531  -16.6786   16.2043 O   0  0  0  0  0  0  0  0  0  0  0  0
    8.5262  -16.0302   22.2350 N   0  0  0  0  0  0  0  0  0  0  0  0
    8.4860  -15.3045   23.4819 C   0  0  1  0  0  0  0  0  0  0  0  0
    7.3531  -14.3063   23.5193 C   0  0  0  0  0  0  0  0  0  0  0  0
    7.2725  -13.5737   24.7885 C   0  0  0  0  0  0  0  0  0  0  0  0
    8.0114  -12.4228   24.9507 C   0  0  0  0  0  0  0  0  0  0  0  0
    7.9648  -11.6926   26.1422 C   0  0  0  0  0  0  0  0  0  0  0  0
    7.1776  -12.1109   27.1793 C   0  0  0  0  0  0  0  0  0  0  0  0
    6.4339  -13.2582   27.0327 C   0  0  0  0  0  0  0  0  0  0  0  0
    6.4872  -13.9798   25.8397 C   0  0  0  0  0  0  0  0  0  0  0  0
    8.5217  -16.1360   24.6800 C   0  0  0  0  0  0  0  0  0  0  0  0
    7.6772  -17.0438   24.8372 O   0  0  0  0  0  0  0  0  0  0  0  0
   11.6525  -18.7127   26.6206 O   0  0  0  0  0  0  0  0  0  0  0  0
   11.2891  -17.5959   25.8364 C   0  0  0  0  0  0  0  0  0  0  0  0
   10.0170  -17.0481   26.4676 C   0  0  2  0  0  0  0  0  0  0  0  0
    9.5110  -15.9228   25.6677 N   0  0  0  0  0  0  0  0  0  0  0  0
   10.3647  -16.5748   27.8163 C   0  0  0  0  0  0  0  0  0  0  0  0
   10.4326  -17.4381   28.8873 O   0  0  0  0  0  0  0  0  0  0  0  0
   10.6046  -15.3641   28.0038 O   0  0  0  0  0  0  0  0  0  0  0  0
  2  1  1  6
  2  3  1  0
  4  5  1  0
  4  3  1  0
  5  6  2  0
  7  2  1  0
  7 10  1  0
  8  7  2  0
  9  5  1  0
 11 10  1  0
 11 12  1  6
 12 13  1  0
 13 18  2  0
 13 14  1  0
 14 15  2  0
 15 16  1  0
 17 16  2  0
 18 17  1  0
 19 11  1  0
 20 19  2  0
 21 22  1  0
 23 22  1  6
 23 24  1  0
 24 19  1  0
 25 23  1  0
 26 25  1  0
 27 25  2  0
M  END
$$$$
