YIY.pdb
     RDKit          3D

 33 34  0  0  1  0  0  0  0  0999 V2000
    8.3192  -25.0432   18.3145 O   0  0  0  0  0  0  0  0  0  0  0  0
    8.6483  -23.7329   18.6903 C   0  0  0  0  0  0  0  0  0  0  0  0
    9.2497  -23.4611   19.8996 C   0  0  0  0  0  0  0  0  0  0  0  0
    9.5662  -22.1536   20.2494 C   0  0  0  0  0  0  0  0  0  0  0  0
    9.2925  -21.0953   19.4083 C   0  0  0  0  0  0  0  0  0  0  0  0
    9.6439  -19.7393   19.8205 C   0  0  0  0  0  0  0  0  0  0  0  0
    9.1517  -18.6714   18.8766 C   0  0  2  0  0  0  0  0  0  0  0  0
    9.6764  -18.8619   17.5374 N   0  0  0  0  0  0  0  0  0  0  0  0
    9.7322  -17.3733   19.3713 C   0  0  0  0  0  0  0  0  0  0  0  0
   10.7107  -16.9180   18.7150 O   0  0  0  0  0  0  0  0  0  0  0  0
    8.6902  -21.4043   18.2065 C   0  0  0  0  0  0  0  0  0  0  0  0
    8.3719  -22.6982   17.8493 C   0  0  0  0  0  0  0  0  0  0  0  0
    6.1385  -13.5956   20.2698 C   0  0  0  0  0  0  0  0  0  0  0  0
    7.4480  -14.2208   19.9636 C   0  0  0  0  0  0  0  0  0  0  0  0
    8.3773  -14.5381   21.0499 C   0  0  2  0  0  0  0  0  0  0  0  0
    8.6595  -13.2117   21.7921 C   0  0  0  0  0  0  0  0  0  0  0  0
    9.6112  -15.2704   20.7683 C   0  0  2  0  0  0  0  0  0  0  0  0
    9.2472  -16.6929   20.4760 N   0  0  0  0  0  0  0  0  0  0  0  0
   10.5793  -15.3735   21.8436 C   0  0  0  0  0  0  0  0  0  0  0  0
   11.2335  -14.3234   22.2190 O   0  0  0  0  0  0  0  0  0  0  0  0
   10.2303  -14.1160   30.0117 O   0  0  0  0  0  0  0  0  0  0  0  0
   10.2493  -14.3964   28.6618 C   0  0  0  0  0  0  0  0  0  0  0  0
   10.9691  -15.4498   28.1230 C   0  0  0  0  0  0  0  0  0  0  0  0
   10.9787  -15.7181   26.7710 C   0  0  0  0  0  0  0  0  0  0  0  0
   10.2667  -14.9399   25.9078 C   0  0  0  0  0  0  0  0  0  0  0  0
   10.2481  -15.1829   24.4534 C   0  0  0  0  0  0  0  0  0  0  0  0
   10.9640  -16.4728   24.0477 C   0  0  2  0  0  0  0  0  0  0  0  0
   10.9174  -16.5416   22.5983 N   0  0  0  0  0  0  0  0  0  0  0  0
   10.3351  -17.6137   24.6808 C   0  0  0  0  0  0  0  0  0  0  0  0
    9.2293  -18.0710   24.3337 O   0  0  0  0  0  0  0  0  0  0  0  0
    9.5392  -13.8839   26.4071 C   0  0  0  0  0  0  0  0  0  0  0  0
    9.5264  -13.6097   27.7686 C   0  0  0  0  0  0  0  0  0  0  0  0
   10.9543  -18.2819   25.7435 O   0  0  0  0  0  0  0  0  0  0  0  0
  2 12  2  0
  2  1  1  0
  3  2  1  0
  4  5  1  0
  4  3  2  0
  5 11  2  0
  6  5  1  0
  7  6  1  0
  7  8  1  6
  9  7  1  0
 10  9  2  0
 11 12  1  0
 13 14  1  0
 14 15  1  0
 15 17  1  0
 15 16  1  6
 17 19  1  0
 17 18  1  1
 18  9  1  0
 19 28  1  0
 20 19  2  0
 22 21  1  0
 23 22  2  0
 24 23  1  0
 25 24  2  0
 25 31  1  0
 26 25  1  0
 27 29  1  0
 27 26  1  1
 28 27  1  0
 29 30  2  0
 29 33  1  0
 31 32  2  0
 32 22  1  0
M  END
$$$$
