YIY.pdb
     RDKit          3D

 33 34  0  0  1  0  0  0  0  0999 V2000
    8.5225  -12.9772   16.9959 O   0  0  0  0  0  0  0  0  0  0  0  0
    8.2059  -13.4854   18.2640 C   0  0  0  0  0  0  0  0  0  0  0  0
    9.0992  -14.2586   18.9725 C   0  0  0  0  0  0  0  0  0  0  0  0
    8.7618  -14.7508   20.2280 C   0  0  0  0  0  0  0  0  0  0  0  0
    7.5358  -14.4854   20.8013 C   0  0  0  0  0  0  0  0  0  0  0  0
    7.2278  -15.0251   22.1227 C   0  0  0  0  0  0  0  0  0  0  0  0
    6.8122  -16.4745   22.1045 C   0  0  2  0  0  0  0  0  0  0  0  0
    5.4951  -16.6430   21.5198 N   0  0  0  0  0  0  0  0  0  0  0  0
    6.6859  -16.8935   23.5450 C   0  0  0  0  0  0  0  0  0  0  0  0
    5.5294  -16.8123   24.0465 O   0  0  0  0  0  0  0  0  0  0  0  0
    6.6669  -13.7085   20.0639 C   0  0  0  0  0  0  0  0  0  0  0  0
    6.9913  -13.2150   18.8173 C   0  0  0  0  0  0  0  0  0  0  0  0
    7.0731  -21.5760   25.1649 C   0  0  0  0  0  0  0  0  0  0  0  0
    6.8903  -20.1070   25.0742 C   0  0  0  0  0  0  0  0  0  0  0  0
    7.7936  -19.2127   25.8012 C   0  0  2  0  0  0  0  0  0  0  0  0
    7.8305  -19.7142   27.2631 C   0  0  0  0  0  0  0  0  0  0  0  0
    7.6024  -17.7646   25.7335 C   0  0  2  0  0  0  0  0  0  0  0  0
    7.7526  -17.3455   24.3042 N   0  0  0  0  0  0  0  0  0  0  0  0
    8.5611  -16.9370   26.4408 C   0  0  0  0  0  0  0  0  0  0  0  0
    9.0927  -15.9206   25.8440 O   0  0  0  0  0  0  0  0  0  0  0  0
    7.1688  -12.1432   24.2198 O   0  0  0  0  0  0  0  0  0  0  0  0
    7.6375  -12.8108   25.3314 C   0  0  0  0  0  0  0  0  0  0  0  0
    6.8878  -12.9685   26.4851 C   0  0  0  0  0  0  0  0  0  0  0  0
    7.3698  -13.6387   27.5890 C   0  0  0  0  0  0  0  0  0  0  0  0
    8.6223  -14.1760   27.5779 C   0  0  0  0  0  0  0  0  0  0  0  0
    9.1848  -14.8979   28.7342 C   0  0  0  0  0  0  0  0  0  0  0  0
    9.9709  -16.1499   28.3400 C   0  0  2  0  0  0  0  0  0  0  0  0
    9.0131  -17.0919   27.7898 N   0  0  0  0  0  0  0  0  0  0  0  0
   10.6770  -16.6790   29.4886 C   0  0  0  0  0  0  0  0  0  0  0  0
   11.6156  -16.0853   30.0534 O   0  0  0  0  0  0  0  0  0  0  0  0
    9.3965  -14.0391   26.4484 C   0  0  0  0  0  0  0  0  0  0  0  0
    8.9152  -13.3649   25.3337 C   0  0  0  0  0  0  0  0  0  0  0  0
   10.3314  -17.9178   30.0409 O   0  0  0  0  0  0  0  0  0  0  0  0
  2 12  2  0
  2  1  1  0
  3  2  1  0
  4  5  1  0
  4  3  2  0
  5 11  2  0
  6  5  1  0
  7  6  1  0
  7  8  1  6
  9  7  1  0
 10  9  2  0
 11 12  1  0
 13 14  1  0
 14 15  1  0
 15 17  1  0
 15 16  1  1
 17 19  1  0
 17 18  1  6
 18  9  1  0
 19 28  1  0
 20 19  2  0
 22 21  1  0
 23 22  2  0
 24 23  1  0
 25 24  2  0
 25 31  1  0
 26 25  1  0
 27 29  1  0
 27 26  1  1
 28 27  1  0
 29 30  2  0
 29 33  1  0
 31 32  2  0
 32 22  1  0
M  END
$$$$
