YIY.pdb
     RDKit          3D

 33 34  0  0  1  0  0  0  0  0999 V2000
    5.0926  -19.9560   16.3300 O   0  0  0  0  0  0  0  0  0  0  0  0
    5.7352  -19.2947   17.3866 C   0  0  0  0  0  0  0  0  0  0  0  0
    5.0414  -18.8752   18.5004 C   0  0  0  0  0  0  0  0  0  0  0  0
    5.7011  -18.2217   19.5348 C   0  0  0  0  0  0  0  0  0  0  0  0
    7.0568  -17.9733   19.4829 C   0  0  0  0  0  0  0  0  0  0  0  0
    7.7047  -17.2831   20.5946 C   0  0  0  0  0  0  0  0  0  0  0  0
    7.3957  -15.8085   20.6563 C   0  0  2  0  0  0  0  0  0  0  0  0
    7.8719  -15.1152   19.4741 N   0  0  0  0  0  0  0  0  0  0  0  0
    8.1919  -15.2603   21.8105 C   0  0  0  0  0  0  0  0  0  0  0  0
    9.3612  -14.8667   21.5398 O   0  0  0  0  0  0  0  0  0  0  0  0
    7.7189  -18.4071   18.3534 C   0  0  0  0  0  0  0  0  0  0  0  0
    7.0743  -19.0565   17.3211 C   0  0  0  0  0  0  0  0  0  0  0  0
    5.5490  -12.5096   25.7354 C   0  0  0  0  0  0  0  0  0  0  0  0
    6.6314  -12.9304   24.8131 C   0  0  0  0  0  0  0  0  0  0  0  0
    7.5307  -14.0219   25.1925 C   0  0  2  0  0  0  0  0  0  0  0  0
    8.2350  -13.5817   26.4964 C   0  0  0  0  0  0  0  0  0  0  0  0
    8.4829  -14.5583   24.2210 C   0  0  2  0  0  0  0  0  0  0  0  0
    7.7027  -15.1779   23.1037 N   0  0  0  0  0  0  0  0  0  0  0  0
    9.3550  -15.6268   24.6702 C   0  0  0  0  0  0  0  0  0  0  0  0
    8.9464  -16.8523   24.6158 O   0  0  0  0  0  0  0  0  0  0  0  0
   10.4387  -14.8297   31.5544 O   0  0  0  0  0  0  0  0  0  0  0  0
   10.9497  -15.2082   30.3309 C   0  0  0  0  0  0  0  0  0  0  0  0
   11.3738  -16.4985   30.0602 C   0  0  0  0  0  0  0  0  0  0  0  0
   11.8828  -16.8624   28.8319 C   0  0  0  0  0  0  0  0  0  0  0  0
   11.9858  -15.9459   27.8284 C   0  0  0  0  0  0  0  0  0  0  0  0
   12.5270  -16.2844   26.4990 C   0  0  0  0  0  0  0  0  0  0  0  0
   11.4487  -16.6988   25.4959 C   0  0  2  0  0  0  0  0  0  0  0  0
   10.6866  -15.5042   25.1801 N   0  0  0  0  0  0  0  0  0  0  0  0
   10.6270  -17.7536   26.0528 C   0  0  0  0  0  0  0  0  0  0  0  0
    9.4529  -17.5835   26.4335 O   0  0  0  0  0  0  0  0  0  0  0  0
   11.5740  -14.6535   28.0609 C   0  0  0  0  0  0  0  0  0  0  0  0
   11.0605  -14.2822   29.2968 C   0  0  0  0  0  0  0  0  0  0  0  0
   11.1216  -19.0553   26.1948 O   0  0  0  0  0  0  0  0  0  0  0  0
  2 12  2  0
  2  1  1  0
  3  2  1  0
  4  5  1  0
  4  3  2  0
  5 11  2  0
  6  5  1  0
  7  6  1  0
  7  8  1  6
  9  7  1  0
 10  9  2  0
 11 12  1  0
 13 14  1  0
 14 15  1  0
 15 17  1  0
 15 16  1  1
 17 19  1  0
 17 18  1  6
 18  9  1  0
 19 28  1  0
 20 19  2  0
 22 21  1  0
 23 22  2  0
 24 23  1  0
 25 24  2  0
 25 31  1  0
 26 25  1  0
 27 29  1  0
 27 26  1  1
 28 27  1  0
 29 30  2  0
 29 33  1  0
 31 32  2  0
 32 22  1  0
M  END
$$$$
