YIY.pdb
     RDKit          3D

 33 34  0  0  1  0  0  0  0  0999 V2000
    5.3622  -20.1066   17.7858 O   0  0  0  0  0  0  0  0  0  0  0  0
    5.9198  -19.3750   18.8442 C   0  0  0  0  0  0  0  0  0  0  0  0
    5.1507  -18.5408   19.6256 C   0  0  0  0  0  0  0  0  0  0  0  0
    5.7270  -17.8259   20.6692 C   0  0  0  0  0  0  0  0  0  0  0  0
    7.0725  -17.9255   20.9554 C   0  0  0  0  0  0  0  0  0  0  0  0
    7.6314  -17.1542   22.0622 C   0  0  0  0  0  0  0  0  0  0  0  0
    7.5206  -15.6616   21.8786 C   0  0  2  0  0  0  0  0  0  0  0  0
    8.2705  -15.2108   20.7213 N   0  0  0  0  0  0  0  0  0  0  0  0
    8.1885  -15.0403   23.0764 C   0  0  0  0  0  0  0  0  0  0  0  0
    9.4295  -14.8299   22.9719 O   0  0  0  0  0  0  0  0  0  0  0  0
    7.8115  -18.7695   20.1530 C   0  0  0  0  0  0  0  0  0  0  0  0
    7.2500  -19.4835   19.1148 C   0  0  0  0  0  0  0  0  0  0  0  0
    5.6719  -11.3681   26.2797 C   0  0  0  0  0  0  0  0  0  0  0  0
    6.7389  -12.1330   25.5898 C   0  0  0  0  0  0  0  0  0  0  0  0
    7.2720  -13.3536   26.1982 C   0  0  2  0  0  0  0  0  0  0  0  0
    7.8354  -12.9494   27.5799 C   0  0  0  0  0  0  0  0  0  0  0  0
    8.2139  -14.1910   25.4568 C   0  0  2  0  0  0  0  0  0  0  0  0
    7.5129  -14.7069   24.2388 N   0  0  0  0  0  0  0  0  0  0  0  0
    8.6932  -15.3908   26.1162 C   0  0  0  0  0  0  0  0  0  0  0  0
    7.8488  -16.1960   26.6732 O   0  0  0  0  0  0  0  0  0  0  0  0
   15.3958  -15.5784   23.2375 O   0  0  0  0  0  0  0  0  0  0  0  0
   14.3442  -16.1397   23.9306 C   0  0  0  0  0  0  0  0  0  0  0  0
   13.4839  -15.3972   24.7219 C   0  0  0  0  0  0  0  0  0  0  0  0
   12.4365  -15.9723   25.4092 C   0  0  0  0  0  0  0  0  0  0  0  0
   12.2123  -17.3142   25.3290 C   0  0  0  0  0  0  0  0  0  0  0  0
   11.1087  -17.9773   26.0481 C   0  0  0  0  0  0  0  0  0  0  0  0
   10.3494  -17.0378   26.9871 C   0  0  2  0  0  0  0  0  0  0  0  0
   10.0482  -15.8376   26.2279 N   0  0  0  0  0  0  0  0  0  0  0  0
   11.1408  -16.7661   28.1694 C   0  0  0  0  0  0  0  0  0  0  0  0
   11.5264  -17.6503   28.9581 O   0  0  0  0  0  0  0  0  0  0  0  0
   13.0470  -18.0844   24.5519 C   0  0  0  0  0  0  0  0  0  0  0  0
   14.1036  -17.5094   23.8575 C   0  0  0  0  0  0  0  0  0  0  0  0
   11.5262  -15.4607   28.4960 O   0  0  0  0  0  0  0  0  0  0  0  0
  2 12  2  0
  2  1  1  0
  3  2  1  0
  4  5  1  0
  4  3  2  0
  5 11  2  0
  6  5  1  0
  7  6  1  0
  7  8  1  6
  9  7  1  0
 10  9  2  0
 11 12  1  0
 13 14  1  0
 14 15  1  0
 15 17  1  0
 15 16  1  1
 17 19  1  0
 17 18  1  6
 18  9  1  0
 19 28  1  0
 20 19  2  0
 22 21  1  0
 23 22  2  0
 24 23  1  0
 25 24  2  0
 25 31  1  0
 26 25  1  0
 27 29  1  0
 27 26  1  6
 28 27  1  0
 29 30  2  0
 29 33  1  0
 31 32  2  0
 32 22  1  0
M  END
$$$$
