YIY.pdb
     RDKit          3D

 33 34  0  0  1  0  0  0  0  0999 V2000
    4.9580  -21.1050   18.5764 O   0  0  0  0  0  0  0  0  0  0  0  0
    5.6108  -20.1686   19.3909 C   0  0  0  0  0  0  0  0  0  0  0  0
    5.5748  -18.8207   19.1083 C   0  0  0  0  0  0  0  0  0  0  0  0
    6.2301  -17.9120   19.9312 C   0  0  0  0  0  0  0  0  0  0  0  0
    6.9307  -18.3230   21.0458 C   0  0  0  0  0  0  0  0  0  0  0  0
    7.6029  -17.3303   21.8794 C   0  0  0  0  0  0  0  0  0  0  0  0
    7.1801  -15.9114   21.5934 C   0  0  2  0  0  0  0  0  0  0  0  0
    7.5634  -15.5014   20.2555 N   0  0  0  0  0  0  0  0  0  0  0  0
    7.9655  -15.0405   22.5376 C   0  0  0  0  0  0  0  0  0  0  0  0
    9.0612  -14.5926   22.0968 O   0  0  0  0  0  0  0  0  0  0  0  0
    6.9454  -19.6790   21.2980 C   0  0  0  0  0  0  0  0  0  0  0  0
    6.2987  -20.5894   20.4882 C   0  0  0  0  0  0  0  0  0  0  0  0
    5.4563  -11.5129   25.8100 C   0  0  0  0  0  0  0  0  0  0  0  0
    6.4994  -12.1632   24.9803 C   0  0  0  0  0  0  0  0  0  0  0  0
    7.4238  -13.1221   25.5889 C   0  0  2  0  0  0  0  0  0  0  0  0
    8.1642  -12.3677   26.7170 C   0  0  0  0  0  0  0  0  0  0  0  0
    8.3506  -13.8804   24.7499 C   0  0  2  0  0  0  0  0  0  0  0  0
    7.5417  -14.7292   23.8190 N   0  0  0  0  0  0  0  0  0  0  0  0
    9.2217  -14.8293   25.4169 C   0  0  0  0  0  0  0  0  0  0  0  0
    8.7446  -15.9599   25.8240 O   0  0  0  0  0  0  0  0  0  0  0  0
   11.9775  -18.8858   32.1127 O   0  0  0  0  0  0  0  0  0  0  0  0
   11.5485  -18.0743   31.0838 C   0  0  0  0  0  0  0  0  0  0  0  0
   10.6076  -18.4773   30.1509 C   0  0  0  0  0  0  0  0  0  0  0  0
   10.1882  -17.6548   29.1273 C   0  0  0  0  0  0  0  0  0  0  0  0
   10.6967  -16.3967   29.0004 C   0  0  0  0  0  0  0  0  0  0  0  0
   10.2840  -15.4807   27.9209 C   0  0  0  0  0  0  0  0  0  0  0  0
   11.2389  -15.4873   26.7256 C   0  0  2  0  0  0  0  0  0  0  0  0
   10.6194  -14.6828   25.6880 N   0  0  0  0  0  0  0  0  0  0  0  0
   11.4954  -16.8472   26.2984 C   0  0  0  0  0  0  0  0  0  0  0  0
   12.5382  -17.4707   26.5746 O   0  0  0  0  0  0  0  0  0  0  0  0
   11.6340  -15.9615   29.9093 C   0  0  0  0  0  0  0  0  0  0  0  0
   12.0595  -16.7866   30.9423 C   0  0  0  0  0  0  0  0  0  0  0  0
   10.5591  -17.5525   25.5335 O   0  0  0  0  0  0  0  0  0  0  0  0
  2 12  2  0
  2  1  1  0
  3  2  1  0
  4  5  1  0
  4  3  2  0
  5 11  2  0
  6  5  1  0
  7  6  1  0
  7  8  1  6
  9  7  1  0
 10  9  2  0
 11 12  1  0
 13 14  1  0
 14 15  1  0
 15 17  1  0
 15 16  1  1
 17 19  1  0
 17 18  1  6
 18  9  1  0
 19 28  1  0
 20 19  2  0
 22 21  1  0
 23 22  2  0
 24 23  1  0
 25 24  2  0
 25 31  1  0
 26 25  1  0
 27 29  1  0
 27 26  1  1
 28 27  1  0
 29 30  2  0
 29 33  1  0
 31 32  2  0
 32 22  1  0
M  END
$$$$
