YIY.pdb
     RDKit          3D

 33 34  0  0  1  0  0  0  0  0999 V2000
    4.6219  -24.0491   16.4244 O   0  0  0  0  0  0  0  0  0  0  0  0
    5.4650  -23.0367   16.9045 C   0  0  0  0  0  0  0  0  0  0  0  0
    6.6539  -22.7335   16.2779 C   0  0  0  0  0  0  0  0  0  0  0  0
    7.4726  -21.7253   16.7732 C   0  0  0  0  0  0  0  0  0  0  0  0
    7.1277  -21.0019   17.8957 C   0  0  0  0  0  0  0  0  0  0  0  0
    8.0211  -19.9523   18.3777 C   0  0  0  0  0  0  0  0  0  0  0  0
    7.6433  -18.5704   17.9071 C   0  0  2  0  0  0  0  0  0  0  0  0
    7.8760  -18.4109   16.4839 N   0  0  0  0  0  0  0  0  0  0  0  0
    8.5880  -17.6200   18.5934 C   0  0  0  0  0  0  0  0  0  0  0  0
    9.7444  -17.5303   18.0932 O   0  0  0  0  0  0  0  0  0  0  0  0
    5.9312  -21.3324   18.4970 C   0  0  0  0  0  0  0  0  0  0  0  0
    5.1111  -22.3310   18.0140 C   0  0  0  0  0  0  0  0  0  0  0  0
    6.6468  -12.9498   20.6147 C   0  0  0  0  0  0  0  0  0  0  0  0
    7.6005  -13.9233   20.0296 C   0  0  0  0  0  0  0  0  0  0  0  0
    8.3730  -14.8057   20.9064 C   0  0  2  0  0  0  0  0  0  0  0  0
    9.2182  -13.8903   21.8216 C   0  0  0  0  0  0  0  0  0  0  0  0
    9.1764  -15.8858   20.3354 C   0  0  2  0  0  0  0  0  0  0  0  0
    8.2427  -16.8735   19.7079 N   0  0  0  0  0  0  0  0  0  0  0  0
    9.9601  -16.6858   21.2574 C   0  0  0  0  0  0  0  0  0  0  0  0
    9.3609  -17.4196   22.1373 O   0  0  0  0  0  0  0  0  0  0  0  0
   15.5664  -22.2292   25.0569 O   0  0  0  0  0  0  0  0  0  0  0  0
   14.8539  -21.3937   24.2229 C   0  0  0  0  0  0  0  0  0  0  0  0
   13.4877  -21.5117   24.0294 C   0  0  0  0  0  0  0  0  0  0  0  0
   12.7884  -20.6689   23.1922 C   0  0  0  0  0  0  0  0  0  0  0  0
   13.4329  -19.6757   22.5171 C   0  0  0  0  0  0  0  0  0  0  0  0
   12.7310  -18.7516   21.6072 C   0  0  0  0  0  0  0  0  0  0  0  0
   12.0018  -17.6225   22.3382 C   0  0  2  0  0  0  0  0  0  0  0  0
   11.3861  -16.7911   21.3198 N   0  0  0  0  0  0  0  0  0  0  0  0
   12.9291  -16.8871   23.1731 C   0  0  0  0  0  0  0  0  0  0  0  0
   13.5743  -15.8967   22.7788 O   0  0  0  0  0  0  0  0  0  0  0  0
   14.7909  -19.5281   22.6848 C   0  0  0  0  0  0  0  0  0  0  0  0
   15.4996  -20.3747   23.5273 C   0  0  0  0  0  0  0  0  0  0  0  0
   13.1541  -17.2592   24.5036 O   0  0  0  0  0  0  0  0  0  0  0  0
  2 12  2  0
  2  1  1  0
  3  2  1  0
  4  5  1  0
  4  3  2  0
  5 11  2  0
  6  5  1  0
  7  6  1  0
  7  8  1  6
  9  7  1  0
 10  9  2  0
 11 12  1  0
 13 14  1  0
 14 15  1  0
 15 17  1  0
 15 16  1  6
 17 19  1  0
 17 18  1  1
 18  9  1  0
 19 28  1  0
 20 19  2  0
 22 21  1  0
 23 22  2  0
 24 23  1  0
 25 24  2  0
 25 31  1  0
 26 25  1  0
 27 29  1  0
 27 26  1  6
 28 27  1  0
 29 30  2  0
 29 33  1  0
 31 32  2  0
 32 22  1  0
M  END
$$$$
