VAK.pdb
     RDKit          3D

 22 21  0  0  1  0  0  0  0  0999 V2000
   24.5299  -20.3689   -9.8991 C   0  0  0  0  0  0  0  0  0  0  0  0
   25.6878  -21.1031  -10.5405 C   0  0  2  0  0  0  0  0  0  0  0  0
   26.8630  -20.1438  -10.5847 C   0  0  0  0  0  0  0  0  0  0  0  0
   25.3720  -21.4890  -11.9722 C   0  0  2  0  0  0  0  0  0  0  0  0
   26.4416  -22.3360  -12.4335 N   0  0  0  0  0  0  0  0  0  0  0  0
   25.1841  -20.3115  -12.8378 C   0  0  0  0  0  0  0  0  0  0  0  0
   24.1729  -19.5929  -12.6862 O   0  0  0  0  0  0  0  0  0  0  0  0
   27.3874  -18.3923  -15.2062 C   0  0  0  0  0  0  0  0  0  0  0  0
   26.0417  -18.7964  -14.6408 C   0  0  2  0  0  0  0  0  0  0  0  0
   26.1358  -19.9930  -13.8323 N   0  0  0  0  0  0  0  0  0  0  0  0
   25.0175  -18.9580  -15.7173 C   0  0  0  0  0  0  0  0  0  0  0  0
   25.0469  -19.9494  -16.4878 O   0  0  0  0  0  0  0  0  0  0  0  0
   23.9843  -18.0102  -15.9093 N   0  0  0  0  0  0  0  0  0  0  0  0
   22.8941  -18.2144  -16.8730 C   0  0  1  0  0  0  0  0  0  0  0  0
   21.7586  -17.3399  -16.4219 C   0  0  0  0  0  0  0  0  0  0  0  0
   20.5834  -17.3106  -17.3664 C   0  0  0  0  0  0  0  0  0  0  0  0
   19.4524  -18.1067  -16.7785 C   0  0  0  0  0  0  0  0  0  0  0  0
   18.2091  -18.1365  -17.5841 C   0  0  0  0  0  0  0  0  0  0  0  0
   17.1572  -18.9421  -17.0554 N   0  0  0  0  0  0  0  0  0  0  0  0
   23.3962  -17.8497  -18.2145 C   0  0  0  0  0  0  0  0  0  0  0  0
   24.4246  -16.9143  -18.3519 O   0  0  0  0  0  0  0  0  0  0  0  0
   22.9482  -18.3374  -19.2673 O   0  0  0  0  0  0  0  0  0  0  0  0
  2  1  1  6
  2  3  1  0
  4  2  1  0
  4  6  1  0
  4  5  1  6
  6  7  2  0
  6 10  1  0
  9  8  1  6
 10  9  1  0
 11 13  1  0
 11  9  1  0
 12 11  2  0
 14 20  1  0
 14 13  1  0
 14 15  1  1
 16 15  1  0
 17 16  1  0
 18 17  1  0
 19 18  1  0
 20 21  1  0
 22 20  2  0
M  END
$$$$
