VAK.pdb
     RDKit          3D

 22 21  0  0  1  0  0  0  0  0999 V2000
   27.7132  -24.8337  -19.1760 C   0  0  0  0  0  0  0  0  0  0  0  0
   28.3539  -25.6697  -18.0889 C   0  0  2  0  0  0  0  0  0  0  0  0
   27.2519  -26.0931  -17.1351 C   0  0  0  0  0  0  0  0  0  0  0  0
   29.3530  -24.8600  -17.2861 C   0  0  2  0  0  0  0  0  0  0  0  0
   29.9433  -25.7469  -16.3170 N   0  0  0  0  0  0  0  0  0  0  0  0
   28.7351  -23.6807  -16.6548 C   0  0  0  0  0  0  0  0  0  0  0  0
   28.0934  -23.8190  -15.5913 O   0  0  0  0  0  0  0  0  0  0  0  0
   28.7838  -19.9519  -17.3135 C   0  0  0  0  0  0  0  0  0  0  0  0
   28.2695  -21.2180  -16.6606 C   0  0  2  0  0  0  0  0  0  0  0  0
   28.8639  -22.4023  -17.2425 N   0  0  0  0  0  0  0  0  0  0  0  0
   26.7773  -21.2932  -16.7030 C   0  0  0  0  0  0  0  0  0  0  0  0
   26.1904  -21.8763  -17.6480 O   0  0  0  0  0  0  0  0  0  0  0  0
   25.9745  -20.7162  -15.6905 N   0  0  0  0  0  0  0  0  0  0  0  0
   24.5119  -20.6254  -15.7979 C   0  0  1  0  0  0  0  0  0  0  0  0
   24.0133  -20.1838  -14.4510 C   0  0  0  0  0  0  0  0  0  0  0  0
   22.5415  -19.8580  -14.4092 C   0  0  0  0  0  0  0  0  0  0  0  0
   21.8459  -20.8157  -13.4833 C   0  0  0  0  0  0  0  0  0  0  0  0
   20.3654  -20.7601  -13.5053 C   0  0  0  0  0  0  0  0  0  0  0  0
   19.7078  -21.5997  -12.5578 N   0  0  0  0  0  0  0  0  0  0  0  0
   24.1918  -19.6587  -16.8692 C   0  0  0  0  0  0  0  0  0  0  0  0
   25.0941  -18.6433  -17.1950 O   0  0  0  0  0  0  0  0  0  0  0  0
   23.1346  -19.6898  -17.5237 O   0  0  0  0  0  0  0  0  0  0  0  0
  2  1  1  6
  2  3  1  0
  4  2  1  0
  4  6  1  0
  4  5  1  1
  6  7  2  0
  6 10  1  0
  9  8  1  6
 10  9  1  0
 11 13  1  0
 11  9  1  0
 12 11  2  0
 14 20  1  0
 14 13  1  0
 14 15  1  1
 16 15  1  0
 17 16  1  0
 18 17  1  0
 19 18  1  0
 20 21  1  0
 22 20  2  0
M  END
$$$$
