VAK.pdb
     RDKit          3D

 22 21  0  0  1  0  0  0  0  0999 V2000
   24.4262  -19.3020  -14.7084 C   0  0  0  0  0  0  0  0  0  0  0  0
   23.7104  -19.3121  -16.0421 C   0  0  2  0  0  0  0  0  0  0  0  0
   24.1003  -20.5940  -16.7551 C   0  0  0  0  0  0  0  0  0  0  0  0
   24.1591  -18.1593  -16.9185 C   0  0  2  0  0  0  0  0  0  0  0  0
   25.5536  -18.3638  -17.2148 N   0  0  0  0  0  0  0  0  0  0  0  0
   23.9123  -16.8509  -16.2872 C   0  0  0  0  0  0  0  0  0  0  0  0
   22.7486  -16.5396  -15.9542 O   0  0  0  0  0  0  0  0  0  0  0  0
   26.0717  -13.9692  -15.1161 C   0  0  0  0  0  0  0  0  0  0  0  0
   24.7697  -14.6187  -15.5365 C   0  0  2  0  0  0  0  0  0  0  0  0
   24.9783  -15.9524  -16.0582 N   0  0  0  0  0  0  0  0  0  0  0  0
   24.0226  -13.7725  -16.5163 C   0  0  0  0  0  0  0  0  0  0  0  0
   24.3248  -13.7832  -17.7353 O   0  0  0  0  0  0  0  0  0  0  0  0
   22.9560  -12.9341  -16.1136 N   0  0  0  0  0  0  0  0  0  0  0  0
   22.1341  -12.1852  -17.0740 C   0  0  1  0  0  0  0  0  0  0  0  0
   20.7080  -12.3452  -16.6287 C   0  0  0  0  0  0  0  0  0  0  0  0
   19.7013  -11.6391  -17.5016 C   0  0  0  0  0  0  0  0  0  0  0  0
   18.3159  -11.9220  -16.9926 C   0  0  0  0  0  0  0  0  0  0  0  0
   17.2144  -11.3093  -17.7715 C   0  0  0  0  0  0  0  0  0  0  0  0
   15.9046  -11.7712  -17.4457 N   0  0  0  0  0  0  0  0  0  0  0  0
   22.5817  -10.7765  -17.0573 C   0  0  0  0  0  0  0  0  0  0  0  0
   23.3101  -10.2812  -15.9731 O   0  0  0  0  0  0  0  0  0  0  0  0
   22.3448   -9.9737  -17.9772 O   0  0  0  0  0  0  0  0  0  0  0  0
  2  1  1  1
  2  3  1  0
  4  2  1  0
  4  6  1  0
  4  5  1  1
  6  7  2  0
  6 10  1  0
  9  8  1  6
 10  9  1  0
 11 13  1  0
 11  9  1  0
 12 11  2  0
 14 20  1  0
 14 13  1  0
 14 15  1  1
 16 15  1  0
 17 16  1  0
 18 17  1  0
 19 18  1  0
 20 21  1  0
 22 20  2  0
M  END
$$$$
