VAK.pdb
     RDKit          3D

 22 21  0  0  1  0  0  0  0  0999 V2000
   12.2916   -9.3828  -11.0233 C   0  0  0  0  0  0  0  0  0  0  0  0
   12.7934  -10.7897  -11.2683 C   0  0  2  0  0  0  0  0  0  0  0  0
   12.3711  -11.6340  -10.0799 C   0  0  0  0  0  0  0  0  0  0  0  0
   14.3074  -10.8329  -11.3315 C   0  0  2  0  0  0  0  0  0  0  0  0
   14.8019  -10.4306  -10.0401 N   0  0  0  0  0  0  0  0  0  0  0  0
   14.8438   -9.9931  -12.4170 C   0  0  0  0  0  0  0  0  0  0  0  0
   14.6097  -10.3020  -13.6052 O   0  0  0  0  0  0  0  0  0  0  0  0
   15.8574   -6.5594  -12.9729 C   0  0  0  0  0  0  0  0  0  0  0  0
   16.2043   -8.0223  -13.1562 C   0  0  2  0  0  0  0  0  0  0  0  0
   15.6165   -8.8475  -12.1228 N   0  0  0  0  0  0  0  0  0  0  0  0
   17.6821   -8.2331  -13.2323 C   0  0  0  0  0  0  0  0  0  0  0  0
   18.3713   -8.3311  -12.1868 O   0  0  0  0  0  0  0  0  0  0  0  0
   18.3568   -8.3296  -14.4725 N   0  0  0  0  0  0  0  0  0  0  0  0
   19.8119   -8.5092  -14.5683 C   0  0  1  0  0  0  0  0  0  0  0  0
   20.0596   -9.3182  -15.8099 C   0  0  0  0  0  0  0  0  0  0  0  0
   21.5107   -9.6425  -16.0614 C   0  0  0  0  0  0  0  0  0  0  0  0
   21.6446  -10.3254  -17.3933 C   0  0  0  0  0  0  0  0  0  0  0  0
   23.0252  -10.6981  -17.7814 C   0  0  0  0  0  0  0  0  0  0  0  0
   23.1639  -11.2551  -19.0874 N   0  0  0  0  0  0  0  0  0  0  0  0
   20.4344   -7.1699  -14.6271 C   0  0  0  0  0  0  0  0  0  0  0  0
   21.6941   -6.9528  -14.0637 O   0  0  0  0  0  0  0  0  0  0  0  0
   19.8922   -6.1877  -15.1640 O   0  0  0  0  0  0  0  0  0  0  0  0
  2  1  1  1
  2  3  1  0
  4  2  1  0
  4  6  1  0
  4  5  1  1
  6  7  2  0
  6 10  1  0
  9  8  1  1
 10  9  1  0
 11 13  1  0
 11  9  1  0
 12 11  2  0
 14 20  1  0
 14 13  1  0
 14 15  1  6
 16 15  1  0
 17 16  1  0
 18 17  1  0
 19 18  1  0
 20 21  1  0
 22 20  2  0
M  END
$$$$
