VAK.pdb
     RDKit          3D

 22 21  0  0  1  0  0  0  0  0999 V2000
   25.7718  -21.7735  -11.6358 C   0  0  0  0  0  0  0  0  0  0  0  0
   24.9833  -20.5576  -11.1987 C   0  0  2  0  0  0  0  0  0  0  0  0
   24.9637  -20.5526   -9.6810 C   0  0  0  0  0  0  0  0  0  0  0  0
   23.5426  -20.6373  -11.6637 C   0  0  2  0  0  0  0  0  0  0  0  0
   22.9519  -21.7896  -11.0334 N   0  0  0  0  0  0  0  0  0  0  0  0
   23.4335  -20.6914  -13.1322 C   0  0  0  0  0  0  0  0  0  0  0  0
   23.6010  -21.7811  -13.7206 O   0  0  0  0  0  0  0  0  0  0  0  0
   22.2493  -18.3854  -15.8537 C   0  0  0  0  0  0  0  0  0  0  0  0
   23.1081  -19.5131  -15.3202 C   0  0  2  0  0  0  0  0  0  0  0  0
   23.1423  -19.5244  -13.8734 N   0  0  0  0  0  0  0  0  0  0  0  0
   24.4905  -19.4688  -15.8870 C   0  0  0  0  0  0  0  0  0  0  0  0
   25.3512  -18.6825  -15.4195 O   0  0  0  0  0  0  0  0  0  0  0  0
   24.8807  -20.3024  -16.9619 N   0  0  0  0  0  0  0  0  0  0  0  0
   26.2516  -20.3205  -17.4901 C   0  0  1  0  0  0  0  0  0  0  0  0
   26.7237  -21.7440  -17.3985 C   0  0  0  0  0  0  0  0  0  0  0  0
   28.2195  -21.8967  -17.2831 C   0  0  0  0  0  0  0  0  0  0  0  0
   28.5636  -23.3551  -17.1682 C   0  0  0  0  0  0  0  0  0  0  0  0
   30.0056  -23.6583  -17.0125 C   0  0  0  0  0  0  0  0  0  0  0  0
   30.3348  -25.0446  -16.9426 N   0  0  0  0  0  0  0  0  0  0  0  0
   26.2118  -19.8217  -18.8809 C   0  0  0  0  0  0  0  0  0  0  0  0
   27.3691  -19.3239  -19.4846 O   0  0  0  0  0  0  0  0  0  0  0  0
   25.1797  -19.8152  -19.5749 O   0  0  0  0  0  0  0  0  0  0  0  0
  2  1  1  1
  2  3  1  0
  4  2  1  0
  4  6  1  0
  4  5  1  1
  6  7  2  0
  6 10  1  0
  9  8  1  1
 10  9  1  0
 11 13  1  0
 11  9  1  0
 12 11  2  0
 14 20  1  0
 14 13  1  0
 14 15  1  6
 16 15  1  0
 17 16  1  0
 18 17  1  0
 19 18  1  0
 20 21  1  0
 22 20  2  0
M  END
$$$$
