VAK.pdb
     RDKit          3D

 22 21  0  0  1  0  0  0  0  0999 V2000
   17.9894  -13.3063  -17.3107 C   0  0  0  0  0  0  0  0  0  0  0  0
   17.8615  -12.2580  -16.2263 C   0  0  2  0  0  0  0  0  0  0  0  0
   16.6486  -11.4085  -16.5591 C   0  0  0  0  0  0  0  0  0  0  0  0
   19.0629  -11.3336  -16.2073 C   0  0  2  0  0  0  0  0  0  0  0  0
   20.2270  -12.1485  -15.9731 N   0  0  0  0  0  0  0  0  0  0  0  0
   18.9252  -10.2620  -15.2053 C   0  0  0  0  0  0  0  0  0  0  0  0
   18.5883  -10.5529  -14.0374 O   0  0  0  0  0  0  0  0  0  0  0  0
   19.4171   -6.5024  -15.1933 C   0  0  0  0  0  0  0  0  0  0  0  0
   18.8834   -7.8159  -14.6606 C   0  0  2  0  0  0  0  0  0  0  0  0
   19.1708   -8.9157  -15.5564 N   0  0  0  0  0  0  0  0  0  0  0  0
   17.4206   -7.7368  -14.3637 C   0  0  0  0  0  0  0  0  0  0  0  0
   16.5705   -7.9987  -15.2504 O   0  0  0  0  0  0  0  0  0  0  0  0
   16.9401   -7.3676  -13.0849 N   0  0  0  0  0  0  0  0  0  0  0  0
   15.5087   -7.2081  -12.7946 C   0  0  1  0  0  0  0  0  0  0  0  0
   15.2356   -8.0054  -11.5507 C   0  0  0  0  0  0  0  0  0  0  0  0
   13.8457   -7.8301  -10.9926 C   0  0  0  0  0  0  0  0  0  0  0  0
   13.7453   -8.5437   -9.6738 C   0  0  0  0  0  0  0  0  0  0  0  0
   12.4392   -8.4253   -8.9841 C   0  0  0  0  0  0  0  0  0  0  0  0
   12.3520   -9.0852   -7.7224 N   0  0  0  0  0  0  0  0  0  0  0  0
   15.2363   -5.7660  -12.6184 C   0  0  0  0  0  0  0  0  0  0  0  0
   13.9503   -5.2612  -12.8251 O   0  0  0  0  0  0  0  0  0  0  0  0
   16.1070   -4.9421  -12.2865 O   0  0  0  0  0  0  0  0  0  0  0  0
  2  1  1  6
  2  3  1  0
  4  2  1  0
  4  6  1  0
  4  5  1  1
  6  7  2  0
  6 10  1  0
  9  8  1  6
 10  9  1  0
 11 13  1  0
 11  9  1  0
 12 11  2  0
 14 20  1  0
 14 13  1  0
 14 15  1  1
 16 15  1  0
 17 16  1  0
 18 17  1  0
 19 18  1  0
 20 21  1  0
 22 20  2  0
M  END
$$$$
