VAK.pdb
     RDKit          3D

 22 21  0  0  1  0  0  0  0  0999 V2000
   20.2788  -13.6191  -21.8942 C   0  0  0  0  0  0  0  0  0  0  0  0
   20.0241  -13.9846  -20.4475 C   0  0  2  0  0  0  0  0  0  0  0  0
   19.0493  -12.9646  -19.8881 C   0  0  0  0  0  0  0  0  0  0  0  0
   21.2924  -13.8898  -19.6225 C   0  0  2  0  0  0  0  0  0  0  0  0
   21.4635  -15.1533  -18.9529 N   0  0  0  0  0  0  0  0  0  0  0  0
   21.2581  -12.7607  -18.6762 C   0  0  0  0  0  0  0  0  0  0  0  0
   20.5839  -12.8579  -17.6285 O   0  0  0  0  0  0  0  0  0  0  0  0
   23.0897   -9.4715  -18.3517 C   0  0  0  0  0  0  0  0  0  0  0  0
   21.9614  -10.4370  -18.0540 C   0  0  2  0  0  0  0  0  0  0  0  0
   21.9795  -11.5763  -18.9462 N   0  0  0  0  0  0  0  0  0  0  0  0
   20.6311   -9.7563  -18.0834 C   0  0  0  0  0  0  0  0  0  0  0  0
   19.9795   -9.6664  -19.1534 O   0  0  0  0  0  0  0  0  0  0  0  0
   20.0586   -9.1916  -16.9189 N   0  0  0  0  0  0  0  0  0  0  0  0
   18.7518   -8.5200  -16.9271 C   0  0  1  0  0  0  0  0  0  0  0  0
   17.7891   -9.4546  -16.2510 C   0  0  0  0  0  0  0  0  0  0  0  0
   16.3939   -8.9041  -16.0950 C   0  0  0  0  0  0  0  0  0  0  0  0
   15.5337   -9.9187  -15.3955 C   0  0  0  0  0  0  0  0  0  0  0  0
   14.1537   -9.4773  -15.0853 C   0  0  0  0  0  0  0  0  0  0  0  0
   13.3295  -10.4508  -14.4465 N   0  0  0  0  0  0  0  0  0  0  0  0
   18.8948   -7.2341  -16.2124 C   0  0  0  0  0  0  0  0  0  0  0  0
   17.9198   -6.2424  -16.3439 O   0  0  0  0  0  0  0  0  0  0  0  0
   19.8599   -6.9662  -15.4750 O   0  0  0  0  0  0  0  0  0  0  0  0
  2  1  1  6
  2  3  1  0
  4  2  1  0
  4  6  1  0
  4  5  1  1
  6  7  2  0
  6 10  1  0
  9  8  1  6
 10  9  1  0
 11 13  1  0
 11  9  1  0
 12 11  2  0
 14 20  1  0
 14 13  1  0
 14 15  1  1
 16 15  1  0
 17 16  1  0
 18 17  1  0
 19 18  1  0
 20 21  1  0
 22 20  2  0
M  END
$$$$
