VAK.pdb
     RDKit          3D

 22 21  0  0  1  0  0  0  0  0999 V2000
   19.4021  -13.5881  -15.6314 C   0  0  0  0  0  0  0  0  0  0  0  0
   18.9581  -13.3678  -17.0617 C   0  0  2  0  0  0  0  0  0  0  0  0
   19.3871  -14.5846  -17.8611 C   0  0  0  0  0  0  0  0  0  0  0  0
   19.6473  -12.1648  -17.6748 C   0  0  2  0  0  0  0  0  0  0  0  0
   21.0352  -12.5081  -17.8479 N   0  0  0  0  0  0  0  0  0  0  0  0
   19.4739  -10.9488  -16.8608 C   0  0  0  0  0  0  0  0  0  0  0  0
   18.3254  -10.4921  -16.6761 O   0  0  0  0  0  0  0  0  0  0  0  0
   21.7147   -8.8555  -14.6581 C   0  0  0  0  0  0  0  0  0  0  0  0
   20.4696   -9.1072  -15.4829 C   0  0  2  0  0  0  0  0  0  0  0  0
   20.5931  -10.3009  -16.2918 N   0  0  0  0  0  0  0  0  0  0  0  0
   20.1185   -7.9242  -16.3262 C   0  0  0  0  0  0  0  0  0  0  0  0
   20.7250   -7.7008  -17.4032 O   0  0  0  0  0  0  0  0  0  0  0  0
   19.0993   -7.0179  -15.9488 N   0  0  0  0  0  0  0  0  0  0  0  0
   18.8063   -5.7965  -16.7112 C   0  0  1  0  0  0  0  0  0  0  0  0
   17.3225   -5.5805  -16.6143 C   0  0  0  0  0  0  0  0  0  0  0  0
   16.8369   -4.3047  -17.2550 C   0  0  0  0  0  0  0  0  0  0  0  0
   15.3435   -4.2137  -17.1135 C   0  0  0  0  0  0  0  0  0  0  0  0
   14.7239   -2.9926  -17.6797 C   0  0  0  0  0  0  0  0  0  0  0  0
   13.2984   -2.9562  -17.6411 N   0  0  0  0  0  0  0  0  0  0  0  0
   19.5835   -4.6892  -16.1159 C   0  0  0  0  0  0  0  0  0  0  0  0
   20.0338   -4.7738  -14.7962 O   0  0  0  0  0  0  0  0  0  0  0  0
   19.8740   -3.6493  -16.7335 O   0  0  0  0  0  0  0  0  0  0  0  0
  2  1  1  1
  2  3  1  0
  4  2  1  0
  4  6  1  0
  4  5  1  1
  6  7  2  0
  6 10  1  0
  9  8  1  6
 10  9  1  0
 11 13  1  0
 11  9  1  0
 12 11  2  0
 14 20  1  0
 14 13  1  0
 14 15  1  1
 16 15  1  0
 17 16  1  0
 18 17  1  0
 19 18  1  0
 20 21  1  0
 22 20  2  0
M  END
$$$$
