VAK.pdb
     RDKit          3D

 22 21  0  0  1  0  0  0  0  0999 V2000
   24.5662  -12.7507  -16.0032 C   0  0  0  0  0  0  0  0  0  0  0  0
   25.0133  -14.1905  -16.1382 C   0  0  2  0  0  0  0  0  0  0  0  0
   26.1723  -14.3960  -15.1799 C   0  0  0  0  0  0  0  0  0  0  0  0
   25.5307  -14.4797  -17.5335 C   0  0  2  0  0  0  0  0  0  0  0  0
   24.5448  -13.9955  -18.4650 N   0  0  0  0  0  0  0  0  0  0  0  0
   25.8269  -15.9093  -17.7325 C   0  0  0  0  0  0  0  0  0  0  0  0
   24.9065  -16.7479  -17.6249 O   0  0  0  0  0  0  0  0  0  0  0  0
   28.8858  -17.9042  -18.7473 C   0  0  0  0  0  0  0  0  0  0  0  0
   27.4845  -17.7303  -18.1994 C   0  0  2  0  0  0  0  0  0  0  0  0
   27.1384  -16.3339  -18.0423 N   0  0  0  0  0  0  0  0  0  0  0  0
   27.2978  -18.4747  -16.9168 C   0  0  0  0  0  0  0  0  0  0  0  0
   27.8212  -18.0614  -15.8525 O   0  0  0  0  0  0  0  0  0  0  0  0
   26.5316  -19.6627  -16.8511 N   0  0  0  0  0  0  0  0  0  0  0  0
   26.3086  -20.3902  -15.5942 C   0  0  1  0  0  0  0  0  0  0  0  0
   24.8277  -20.3589  -15.3419 C   0  0  0  0  0  0  0  0  0  0  0  0
   24.3873  -21.1375  -14.1279 C   0  0  0  0  0  0  0  0  0  0  0  0
   22.8902  -21.0754  -14.0128 C   0  0  0  0  0  0  0  0  0  0  0  0
   22.3107  -21.7945  -12.8541 C   0  0  0  0  0  0  0  0  0  0  0  0
   20.8861  -21.8661  -12.8292 N   0  0  0  0  0  0  0  0  0  0  0  0
   26.8289  -21.7634  -15.7628 C   0  0  0  0  0  0  0  0  0  0  0  0
   27.2287  -22.5073  -14.6500 O   0  0  0  0  0  0  0  0  0  0  0  0
   26.9388  -22.3211  -16.8691 O   0  0  0  0  0  0  0  0  0  0  0  0
  2  1  1  6
  2  3  1  0
  4  2  1  0
  4  6  1  0
  4  5  1  6
  6  7  2  0
  6 10  1  0
  9  8  1  1
 10  9  1  0
 11 13  1  0
 11  9  1  0
 12 11  2  0
 14 20  1  0
 14 13  1  0
 14 15  1  6
 16 15  1  0
 17 16  1  0
 18 17  1  0
 19 18  1  0
 20 21  1  0
 22 20  2  0
M  END
$$$$
