TDE.pdb
     RDKit          3D

 25 24  0  0  1  0  0  0  0  0999 V2000
    9.4154  -12.2957   20.0784 C   0  0  0  0  0  0  0  0  0  0  0  0
    8.2965  -13.1426   19.5565 C   0  0  1  0  0  0  0  0  0  0  0  0
    7.1470  -12.3791   19.3973 O   0  0  0  0  0  0  0  0  0  0  0  0
    8.6790  -13.8631   18.2731 C   0  0  2  0  0  0  0  0  0  0  0  0
    7.6112  -14.7259   17.8246 N   0  0  0  0  0  0  0  0  0  0  0  0
    9.8972  -14.6724   18.4668 C   0  0  0  0  0  0  0  0  0  0  0  0
    9.8611  -15.9250   18.6519 O   0  0  0  0  0  0  0  0  0  0  0  0
   11.1609  -14.0254   18.4439 N   0  0  0  0  0  0  0  0  0  0  0  0
   12.4103  -14.7902   18.5953 C   0  0  1  0  0  0  0  0  0  0  0  0
   13.4552  -14.2294   17.6882 C   0  0  0  0  0  0  0  0  0  0  0  0
   14.7757  -14.8654   17.8059 C   0  0  0  0  0  0  0  0  0  0  0  0
   15.8602  -14.1987   17.7298 O   0  0  0  0  0  0  0  0  0  0  0  0
   12.7670  -14.8110   20.0267 C   0  0  0  0  0  0  0  0  0  0  0  0
   13.1584  -13.7291   20.5617 O   0  0  0  0  0  0  0  0  0  0  0  0
   14.9225  -16.2404   18.0085 O   0  0  0  0  0  0  0  0  0  0  0  0
   12.7064  -15.9399   20.8635 N   0  0  0  0  0  0  0  0  0  0  0  0
   13.1563  -15.8015   22.2928 C   0  0  1  0  0  0  0  0  0  0  0  0
   12.3314  -16.7200   23.1108 C   0  0  0  0  0  0  0  0  0  0  0  0
   12.6612  -16.7911   24.5386 C   0  0  0  0  0  0  0  0  0  0  0  0
   11.8583  -17.6351   25.4195 C   0  0  0  0  0  0  0  0  0  0  0  0
   10.8916  -18.3254   24.9609 O   0  0  0  0  0  0  0  0  0  0  0  0
   14.5821  -16.0513   22.2926 C   0  0  0  0  0  0  0  0  0  0  0  0
   15.2050  -16.7339   21.4054 O   0  0  0  0  0  0  0  0  0  0  0  0
   12.0966  -17.7399   26.7891 O   0  0  0  0  0  0  0  0  0  0  0  0
   15.4125  -15.5436   23.2998 O   0  0  0  0  0  0  0  0  0  0  0  0
  2  4  1  0
  2  1  1  6
  3  2  1  0
  4  6  1  0
  4  5  1  1
  6  7  2  0
  8  9  1  0
  8  6  1  0
  9 13  1  0
  9 10  1  6
 11 15  1  0
 11 10  1  0
 12 11  2  0
 13 16  1  0
 13 14  2  0
 16 17  1  0
 17 22  1  0
 17 18  1  1
 19 18  1  0
 20 19  1  0
 21 20  2  0
 22 23  2  0
 22 25  1  0
 24 20  1  0
M  END
$$$$
