TDE.pdb
     RDKit          3D

 25 24  0  0  1  0  0  0  0  0999 V2000
   10.7455  -14.7207   18.1495 C   0  0  0  0  0  0  0  0  0  0  0  0
    9.8502  -13.5387   18.3562 C   0  0  1  0  0  0  0  0  0  0  0  0
    9.8963  -12.6989   17.2506 O   0  0  0  0  0  0  0  0  0  0  0  0
    8.4264  -13.9549   18.6912 C   0  0  2  0  0  0  0  0  0  0  0  0
    7.5681  -12.8018   18.8309 N   0  0  0  0  0  0  0  0  0  0  0  0
    8.3865  -14.7341   19.9434 C   0  0  0  0  0  0  0  0  0  0  0  0
    8.1254  -14.2078   21.0656 O   0  0  0  0  0  0  0  0  0  0  0  0
    8.6490  -16.1285   19.8917 N   0  0  0  0  0  0  0  0  0  0  0  0
    8.6678  -16.9453   21.1171 C   0  0  1  0  0  0  0  0  0  0  0  0
    7.9270  -18.2201   20.8820 C   0  0  0  0  0  0  0  0  0  0  0  0
    6.4921  -18.0543   20.6065 C   0  0  0  0  0  0  0  0  0  0  0  0
    5.7210  -17.4046   21.3873 O   0  0  0  0  0  0  0  0  0  0  0  0
   10.0712  -17.1041   21.5432 C   0  0  0  0  0  0  0  0  0  0  0  0
   10.7895  -17.9538   20.9332 O   0  0  0  0  0  0  0  0  0  0  0  0
    5.8860  -18.5993   19.4714 O   0  0  0  0  0  0  0  0  0  0  0  0
   10.6933  -16.3830   22.5783 N   0  0  0  0  0  0  0  0  0  0  0  0
   12.0795  -16.7854   23.0037 C   0  0  1  0  0  0  0  0  0  0  0  0
   12.9962  -15.6812   22.6379 C   0  0  0  0  0  0  0  0  0  0  0  0
   13.2463  -15.4933   21.2044 C   0  0  0  0  0  0  0  0  0  0  0  0
   14.4873  -14.8577   20.7698 C   0  0  0  0  0  0  0  0  0  0  0  0
   14.6913  -14.5940   19.5409 O   0  0  0  0  0  0  0  0  0  0  0  0
   11.9922  -17.1036   24.4131 C   0  0  0  0  0  0  0  0  0  0  0  0
   12.9097  -17.6884   25.0892 O   0  0  0  0  0  0  0  0  0  0  0  0
   15.5046  -14.5027   21.6545 O   0  0  0  0  0  0  0  0  0  0  0  0
   10.8559  -16.7803   25.1656 O   0  0  0  0  0  0  0  0  0  0  0  0
  2  4  1  0
  2  1  1  6
  3  2  1  0
  4  6  1  0
  4  5  1  1
  6  7  2  0
  8  9  1  0
  8  6  1  0
  9 13  1  0
  9 10  1  6
 11 15  1  0
 11 10  1  0
 12 11  2  0
 13 16  1  0
 13 14  2  0
 16 17  1  0
 17 22  1  0
 17 18  1  1
 19 18  1  0
 20 19  1  0
 21 20  2  0
 22 23  2  0
 22 25  1  0
 24 20  1  0
M  END
$$$$
