TDE.pdb
     RDKit          3D

 25 24  0  0  1  0  0  0  0  0999 V2000
    9.8166  -12.4112   19.1839 C   0  0  0  0  0  0  0  0  0  0  0  0
    8.5920  -13.0972   18.6631 C   0  0  1  0  0  0  0  0  0  0  0  0
    7.8062  -12.2038   17.9463 O   0  0  0  0  0  0  0  0  0  0  0  0
    8.9360  -14.3313   17.8438 C   0  0  2  0  0  0  0  0  0  0  0  0
    7.7443  -14.9486   17.3104 N   0  0  0  0  0  0  0  0  0  0  0  0
    9.6609  -15.3216   18.6626 C   0  0  0  0  0  0  0  0  0  0  0  0
    9.0698  -16.1196   19.4489 O   0  0  0  0  0  0  0  0  0  0  0  0
   11.0761  -15.3861   18.5667 N   0  0  0  0  0  0  0  0  0  0  0  0
   11.8503  -16.3469   19.3708 C   0  0  1  0  0  0  0  0  0  0  0  0
   13.2339  -16.4613   18.8214 C   0  0  0  0  0  0  0  0  0  0  0  0
   13.3223  -17.1321   17.5159 C   0  0  0  0  0  0  0  0  0  0  0  0
   12.8112  -18.2816   17.3067 O   0  0  0  0  0  0  0  0  0  0  0  0
   11.7684  -15.9352   20.7851 C   0  0  0  0  0  0  0  0  0  0  0  0
   12.1085  -14.7499   21.0841 O   0  0  0  0  0  0  0  0  0  0  0  0
   13.9725  -16.5500   16.4244 O   0  0  0  0  0  0  0  0  0  0  0  0
   11.3362  -16.7514   21.8460 N   0  0  0  0  0  0  0  0  0  0  0  0
   11.2112  -16.1438   23.2169 C   0  0  1  0  0  0  0  0  0  0  0  0
    9.7796  -15.8362   23.4393 C   0  0  0  0  0  0  0  0  0  0  0  0
    9.4360  -15.2506   24.7400 C   0  0  0  0  0  0  0  0  0  0  0  0
    8.0643  -14.8173   24.9920 C   0  0  0  0  0  0  0  0  0  0  0  0
    7.7557  -14.2196   26.0731 O   0  0  0  0  0  0  0  0  0  0  0  0
   11.8117  -17.0896   24.1334 C   0  0  0  0  0  0  0  0  0  0  0  0
   12.1105  -18.3009   23.8429 O   0  0  0  0  0  0  0  0  0  0  0  0
    7.0278  -15.0225   24.0824 O   0  0  0  0  0  0  0  0  0  0  0  0
   12.1215  -16.7328   25.4520 O   0  0  0  0  0  0  0  0  0  0  0  0
  2  4  1  0
  2  1  1  6
  3  2  1  0
  4  6  1  0
  4  5  1  1
  6  7  2  0
  8  9  1  0
  8  6  1  0
  9 13  1  0
  9 10  1  6
 11 15  1  0
 11 10  1  0
 12 11  2  0
 13 16  1  0
 13 14  2  0
 16 17  1  0
 17 22  1  0
 17 18  1  1
 19 18  1  0
 20 19  1  0
 21 20  2  0
 22 23  2  0
 22 25  1  0
 24 20  1  0
M  END
$$$$
