TDE.pdb
     RDKit          3D

 25 24  0  0  1  0  0  0  0  0999 V2000
    8.9214  -12.9449   20.4576 C   0  0  0  0  0  0  0  0  0  0  0  0
    7.8819  -13.8048   19.8084 C   0  0  1  0  0  0  0  0  0  0  0  0
    7.0195  -13.0272   19.0460 O   0  0  0  0  0  0  0  0  0  0  0  0
    8.5015  -14.9283   18.9921 C   0  0  2  0  0  0  0  0  0  0  0  0
    7.4825  -15.7312   18.3574 N   0  0  0  0  0  0  0  0  0  0  0  0
    9.3346  -15.7995   19.8426 C   0  0  0  0  0  0  0  0  0  0  0  0
    8.9044  -16.8844   20.3351 O   0  0  0  0  0  0  0  0  0  0  0  0
   10.6715  -15.4103   20.1206 N   0  0  0  0  0  0  0  0  0  0  0  0
   11.5650  -16.2704   20.9150 C   0  0  1  0  0  0  0  0  0  0  0  0
   12.9843  -16.0088   20.5326 C   0  0  0  0  0  0  0  0  0  0  0  0
   13.9716  -16.8495   21.2256 C   0  0  0  0  0  0  0  0  0  0  0  0
   13.6282  -17.8017   22.0014 O   0  0  0  0  0  0  0  0  0  0  0  0
   11.2514  -16.0667   22.3421 C   0  0  0  0  0  0  0  0  0  0  0  0
   11.8506  -15.1340   22.9593 O   0  0  0  0  0  0  0  0  0  0  0  0
   15.3476  -16.6559   21.0761 O   0  0  0  0  0  0  0  0  0  0  0  0
   10.3303  -16.8237   23.0884 N   0  0  0  0  0  0  0  0  0  0  0  0
   10.1208  -16.4774   24.5377 C   0  0  1  0  0  0  0  0  0  0  0  0
    8.6613  -16.3654   24.7628 C   0  0  0  0  0  0  0  0  0  0  0  0
    7.8122  -17.2662   23.9752 C   0  0  0  0  0  0  0  0  0  0  0  0
    6.3694  -17.2729   24.2015 C   0  0  0  0  0  0  0  0  0  0  0  0
    5.8468  -16.5502   25.1103 O   0  0  0  0  0  0  0  0  0  0  0  0
   10.8088  -17.4979   25.2996 C   0  0  0  0  0  0  0  0  0  0  0  0
   10.9022  -17.5189   26.5770 O   0  0  0  0  0  0  0  0  0  0  0  0
    5.4903  -18.0515   23.4500 O   0  0  0  0  0  0  0  0  0  0  0  0
   11.4433  -18.5761   24.6696 O   0  0  0  0  0  0  0  0  0  0  0  0
  2  4  1  0
  2  1  1  6
  3  2  1  0
  4  6  1  0
  4  5  1  1
  6  7  2  0
  8  9  1  0
  8  6  1  0
  9 13  1  0
  9 10  1  1
 11 15  1  0
 11 10  1  0
 12 11  2  0
 13 16  1  0
 13 14  2  0
 16 17  1  0
 17 22  1  0
 17 18  1  1
 19 18  1  0
 20 19  1  0
 21 20  2  0
 22 23  2  0
 22 25  1  0
 24 20  1  0
M  END
$$$$
