TDE.pdb
     RDKit          3D

 25 24  0  0  1  0  0  0  0  0999 V2000
    7.6169  -12.1673   19.3532 C   0  0  0  0  0  0  0  0  0  0  0  0
    8.8508  -12.9772   19.6041 C   0  0  1  0  0  0  0  0  0  0  0  0
    8.7914  -13.5715   20.8583 O   0  0  0  0  0  0  0  0  0  0  0  0
    9.0938  -13.9996   18.5048 C   0  0  2  0  0  0  0  0  0  0  0  0
    7.9916  -14.9275   18.4065 N   0  0  0  0  0  0  0  0  0  0  0  0
   10.3347  -14.7572   18.7554 C   0  0  0  0  0  0  0  0  0  0  0  0
   10.3350  -15.9108   19.2786 O   0  0  0  0  0  0  0  0  0  0  0  0
   11.5783  -14.1740   18.3958 N   0  0  0  0  0  0  0  0  0  0  0  0
   12.8495  -14.8693   18.6599 C   0  0  1  0  0  0  0  0  0  0  0  0
   13.8838  -14.4120   17.6850 C   0  0  0  0  0  0  0  0  0  0  0  0
   15.2278  -14.9633   17.9123 C   0  0  0  0  0  0  0  0  0  0  0  0
   15.4194  -16.1925   18.1933 O   0  0  0  0  0  0  0  0  0  0  0  0
   13.1954  -14.6728   20.0805 C   0  0  0  0  0  0  0  0  0  0  0  0
   13.4552  -13.4954   20.4760 O   0  0  0  0  0  0  0  0  0  0  0  0
   16.3778  -14.1731   17.8340 O   0  0  0  0  0  0  0  0  0  0  0  0
   13.2593  -15.6897   21.0501 N   0  0  0  0  0  0  0  0  0  0  0  0
   13.5649  -15.3090   22.4735 C   0  0  1  0  0  0  0  0  0  0  0  0
   12.4693  -15.8342   23.3204 C   0  0  0  0  0  0  0  0  0  0  0  0
   12.1562  -17.2594   23.1666 C   0  0  0  0  0  0  0  0  0  0  0  0
   11.1448  -17.8687   24.0260 C   0  0  0  0  0  0  0  0  0  0  0  0
   10.6184  -17.2132   24.9824 O   0  0  0  0  0  0  0  0  0  0  0  0
   14.8899  -15.8210   22.7521 C   0  0  0  0  0  0  0  0  0  0  0  0
   15.5331  -15.6306   23.8434 O   0  0  0  0  0  0  0  0  0  0  0  0
   10.6973  -19.1780   23.8551 O   0  0  0  0  0  0  0  0  0  0  0  0
   15.5875  -16.5912   21.8130 O   0  0  0  0  0  0  0  0  0  0  0  0
  2  4  1  0
  2  1  1  6
  3  2  1  0
  4  6  1  0
  4  5  1  1
  6  7  2  0
  8  9  1  0
  8  6  1  0
  9 13  1  0
  9 10  1  6
 11 15  1  0
 11 10  1  0
 12 11  2  0
 13 16  1  0
 13 14  2  0
 16 17  1  0
 17 22  1  0
 17 18  1  1
 19 18  1  0
 20 19  1  0
 21 20  2  0
 22 23  2  0
 22 25  1  0
 24 20  1  0
M  END
$$$$
