TDE.pdb
     RDKit          3D

 25 24  0  0  1  0  0  0  0  0999 V2000
    9.8957  -16.4732   13.0794 C   0  0  0  0  0  0  0  0  0  0  0  0
    9.8349  -16.3252   14.5681 C   0  0  1  0  0  0  0  0  0  0  0  0
   10.7769  -15.4002   15.0001 O   0  0  0  0  0  0  0  0  0  0  0  0
    8.4355  -15.9739   15.0484 C   0  0  2  0  0  0  0  0  0  0  0  0
    7.9044  -14.8465   14.3185 N   0  0  0  0  0  0  0  0  0  0  0  0
    8.4384  -15.6520   16.4881 C   0  0  0  0  0  0  0  0  0  0  0  0
    7.5538  -14.9212   17.0249 O   0  0  0  0  0  0  0  0  0  0  0  0
    9.4705  -16.1814   17.3068 N   0  0  0  0  0  0  0  0  0  0  0  0
    9.4031  -16.0838   18.7748 C   0  0  1  0  0  0  0  0  0  0  0  0
    8.1634  -16.7553   19.2662 C   0  0  0  0  0  0  0  0  0  0  0  0
    8.0534  -16.8460   20.7297 C   0  0  0  0  0  0  0  0  0  0  0  0
    8.1846  -15.8270   21.4853 O   0  0  0  0  0  0  0  0  0  0  0  0
   10.6645  -16.6104   19.3298 C   0  0  0  0  0  0  0  0  0  0  0  0
   11.0596  -17.7515   18.9401 O   0  0  0  0  0  0  0  0  0  0  0  0
    7.7982  -18.0554   21.3818 O   0  0  0  0  0  0  0  0  0  0  0  0
   11.4817  -15.9475   20.2631 N   0  0  0  0  0  0  0  0  0  0  0  0
   12.9712  -16.1463   20.1849 C   0  0  1  0  0  0  0  0  0  0  0  0
   13.5388  -14.9838   19.4639 C   0  0  0  0  0  0  0  0  0  0  0  0
   14.9581  -15.0737   19.1030 C   0  0  0  0  0  0  0  0  0  0  0  0
   15.5921  -13.9609   18.4013 C   0  0  0  0  0  0  0  0  0  0  0  0
   15.8430  -12.8668   19.0023 O   0  0  0  0  0  0  0  0  0  0  0  0
   13.4244  -16.3377   21.5463 C   0  0  0  0  0  0  0  0  0  0  0  0
   14.6206  -16.6497   21.8820 O   0  0  0  0  0  0  0  0  0  0  0  0
   15.9591  -14.0255   17.0578 O   0  0  0  0  0  0  0  0  0  0  0  0
   12.5541  -16.1877   22.6335 O   0  0  0  0  0  0  0  0  0  0  0  0
  2  4  1  0
  2  1  1  6
  3  2  1  0
  4  6  1  0
  4  5  1  6
  6  7  2  0
  8  9  1  0
  8  6  1  0
  9 13  1  0
  9 10  1  1
 11 15  1  0
 11 10  1  0
 12 11  2  0
 13 16  1  0
 13 14  2  0
 16 17  1  0
 17 22  1  0
 17 18  1  1
 19 18  1  0
 20 19  1  0
 21 20  2  0
 22 23  2  0
 22 25  1  0
 24 20  1  0
M  END
$$$$
