LDQ.pdb
     RDKit          3D

 26 25  0  0  1  0  0  0  0  0999 V2000
   22.0602  -15.3606  -19.8309 C   0  0  0  0  0  0  0  0  0  0  0  0
   22.7566  -14.1274  -19.3333 C   0  0  1  0  0  0  0  0  0  0  0  0
   23.6240  -13.5867  -20.4450 C   0  0  0  0  0  0  0  0  0  0  0  0
   21.8179  -13.0419  -18.8944 C   0  0  0  0  0  0  0  0  0  0  0  0
   22.5939  -11.8425  -18.4104 C   0  0  2  0  0  0  0  0  0  0  0  0
   23.5398  -12.3030  -17.4209 N   0  0  0  0  0  0  0  0  0  0  0  0
   21.6526  -10.8408  -17.9068 C   0  0  0  0  0  0  0  0  0  0  0  0
   20.7804  -10.3699  -18.6777 O   0  0  0  0  0  0  0  0  0  0  0  0
   21.7139  -10.3979  -16.5666 N   0  0  0  0  0  0  0  0  0  0  0  0
   20.7794   -9.3746  -16.1587 C   0  0  1  0  0  0  0  0  0  0  0  0
   20.3287   -9.6659  -14.7459 C   0  0  0  0  0  0  0  0  0  0  0  0
   19.3460   -8.6861  -14.2387 C   0  0  0  0  0  0  0  0  0  0  0  0
   18.5237   -8.1774  -15.0117 O   0  0  0  0  0  0  0  0  0  0  0  0
   21.5332   -8.0695  -16.1112 C   0  0  0  0  0  0  0  0  0  0  0  0
   22.7067   -7.9771  -15.6780 O   0  0  0  0  0  0  0  0  0  0  0  0
   19.3178   -8.3152  -12.9025 O   0  0  0  0  0  0  0  0  0  0  0  0
   23.1177   -1.7946  -19.4202 N   0  0  0  0  0  0  0  0  0  0  0  0
   22.5247   -3.0692  -19.2943 C   0  0  0  0  0  0  0  0  0  0  0  0
   22.0394   -3.6304  -20.2922 O   0  0  0  0  0  0  0  0  0  0  0  0
   22.4818   -3.7290  -17.9794 C   0  0  0  0  0  0  0  0  0  0  0  0
   21.7011   -4.9969  -17.9177 C   0  0  0  0  0  0  0  0  0  0  0  0
   21.6612   -5.5852  -16.5599 C   0  0  2  0  0  0  0  0  0  0  0  0
   20.9346   -6.8657  -16.5647 N   0  0  0  0  0  0  0  0  0  0  0  0
   21.0331   -4.6535  -15.6005 C   0  0  0  0  0  0  0  0  0  0  0  0
   21.7579   -3.6143  -14.9842 O   0  0  0  0  0  0  0  0  0  0  0  0
   19.8325   -4.7328  -15.2846 O   0  0  0  0  0  0  0  0  0  0  0  0
  2  1  1  6
  3  2  1  0
  4  2  1  0
  5  4  1  0
  5  6  1  1
  7  8  2  0
  7  5  1  0
  9  7  1  0
 10  9  1  0
 10 11  1  1
 12 16  1  0
 12 11  1  0
 13 12  2  0
 14 10  1  0
 14 15  2  0
 18 17  1  0
 19 18  2  0
 20 18  1  0
 21 20  1  0
 22 23  1  0
 22 21  1  6
 23 14  1  0
 24 22  1  0
 25 24  1  0
 26 24  2  0
M  END
$$$$
