LDQ.pdb
     RDKit          3D

 26 25  0  0  1  0  0  0  0  0999 V2000
   28.4939  -19.0602   -6.1356 C   0  0  0  0  0  0  0  0  0  0  0  0
   27.9844  -20.1482   -7.0356 C   0  0  1  0  0  0  0  0  0  0  0  0
   26.6401  -20.6045   -6.5207 C   0  0  0  0  0  0  0  0  0  0  0  0
   27.8238  -19.7207   -8.4652 C   0  0  0  0  0  0  0  0  0  0  0  0
   27.2770  -20.8565   -9.2933 C   0  0  2  0  0  0  0  0  0  0  0  0
   28.3970  -21.6515   -9.7400 N   0  0  0  0  0  0  0  0  0  0  0  0
   26.4726  -20.3033  -10.3842 C   0  0  0  0  0  0  0  0  0  0  0  0
   26.8246  -19.2270  -10.9270 O   0  0  0  0  0  0  0  0  0  0  0  0
   25.3071  -20.9640  -10.8323 N   0  0  0  0  0  0  0  0  0  0  0  0
   24.8792  -20.7155  -12.1894 C   0  0  1  0  0  0  0  0  0  0  0  0
   25.3584  -21.8512  -13.0638 C   0  0  0  0  0  0  0  0  0  0  0  0
   25.0195  -21.6657  -14.4900 C   0  0  0  0  0  0  0  0  0  0  0  0
   24.9140  -20.5245  -14.9577 O   0  0  0  0  0  0  0  0  0  0  0  0
   23.3722  -20.7660  -12.2029 C   0  0  0  0  0  0  0  0  0  0  0  0
   22.7222  -21.7765  -11.8425 O   0  0  0  0  0  0  0  0  0  0  0  0
   24.8140  -22.7490  -15.3314 O   0  0  0  0  0  0  0  0  0  0  0  0
   19.4327  -16.3516  -13.6537 N   0  0  0  0  0  0  0  0  0  0  0  0
   18.6264  -17.4872  -13.8823 C   0  0  0  0  0  0  0  0  0  0  0  0
   17.3873  -17.3823  -13.8716 O   0  0  0  0  0  0  0  0  0  0  0  0
   19.2570  -18.7936  -14.1313 C   0  0  0  0  0  0  0  0  0  0  0  0
   20.7358  -18.8417  -13.9540 C   0  0  0  0  0  0  0  0  0  0  0  0
   21.1568  -19.7371  -12.8529 C   0  0  2  0  0  0  0  0  0  0  0  0
   22.6098  -19.6491  -12.6322 N   0  0  0  0  0  0  0  0  0  0  0  0
   20.7743  -21.1358  -13.1361 C   0  0  0  0  0  0  0  0  0  0  0  0
   19.6957  -21.7628  -12.4814 O   0  0  0  0  0  0  0  0  0  0  0  0
   21.3801  -21.8363  -13.9666 O   0  0  0  0  0  0  0  0  0  0  0  0
  2  1  1  1
  3  2  1  0
  4  2  1  0
  5  4  1  0
  5  6  1  6
  7  8  2  0
  7  5  1  0
  9  7  1  0
 10  9  1  0
 10 11  1  6
 12 16  1  0
 12 11  1  0
 13 12  2  0
 14 10  1  0
 14 15  2  0
 18 17  1  0
 19 18  2  0
 20 18  1  0
 21 20  1  0
 22 23  1  0
 22 21  1  6
 23 14  1  0
 24 22  1  0
 25 24  1  0
 26 24  2  0
M  END
$$$$
