LDQ.pdb
     RDKit          3D

 26 25  0  0  1  0  0  0  0  0999 V2000
   28.3909  -20.6087   -3.9534 C   0  0  0  0  0  0  0  0  0  0  0  0
   27.9366  -19.7703   -5.1128 C   0  0  1  0  0  0  0  0  0  0  0  0
   28.8543  -18.5765   -5.2282 C   0  0  0  0  0  0  0  0  0  0  0  0
   27.9435  -20.5014   -6.4233 C   0  0  0  0  0  0  0  0  0  0  0  0
   27.4963  -19.5865   -7.5358 C   0  0  2  0  0  0  0  0  0  0  0  0
   26.6455  -18.5742   -6.9551 N   0  0  0  0  0  0  0  0  0  0  0  0
   26.8407  -20.3859   -8.5723 C   0  0  0  0  0  0  0  0  0  0  0  0
   27.2855  -21.5280   -8.8454 O   0  0  0  0  0  0  0  0  0  0  0  0
   25.7161  -19.8888   -9.2680 N   0  0  0  0  0  0  0  0  0  0  0  0
   25.1334  -20.7335  -10.2847 C   0  0  1  0  0  0  0  0  0  0  0  0
   23.6301  -20.5874  -10.2324 C   0  0  0  0  0  0  0  0  0  0  0  0
   22.9364  -21.3702  -11.2761 C   0  0  0  0  0  0  0  0  0  0  0  0
   23.5894  -22.0662  -12.0644 O   0  0  0  0  0  0  0  0  0  0  0  0
   25.5734  -20.1961  -11.6232 C   0  0  0  0  0  0  0  0  0  0  0  0
   25.3683  -19.0116  -11.9814 O   0  0  0  0  0  0  0  0  0  0  0  0
   21.5551  -21.3475  -11.3990 O   0  0  0  0  0  0  0  0  0  0  0  0
   29.9338  -22.7175  -15.6269 N   0  0  0  0  0  0  0  0  0  0  0  0
   29.2730  -21.7355  -16.3957 C   0  0  0  0  0  0  0  0  0  0  0  0
   29.6416  -21.5063  -17.5611 O   0  0  0  0  0  0  0  0  0  0  0  0
   28.1494  -20.9844  -15.8131 C   0  0  0  0  0  0  0  0  0  0  0  0
   27.7521  -21.3826  -14.4331 C   0  0  0  0  0  0  0  0  0  0  0  0
   26.6844  -20.5262  -13.8695 C   0  0  2  0  0  0  0  0  0  0  0  0
   26.2528  -21.0247  -12.5531 N   0  0  0  0  0  0  0  0  0  0  0  0
   25.5272  -20.4559  -14.7855 C   0  0  0  0  0  0  0  0  0  0  0  0
   25.3999  -19.4387  -15.7520 O   0  0  0  0  0  0  0  0  0  0  0  0
   24.6036  -21.2886  -14.7559 O   0  0  0  0  0  0  0  0  0  0  0  0
  2  1  1  1
  3  2  1  0
  4  2  1  0
  5  4  1  0
  5  6  1  1
  7  8  2  0
  7  5  1  0
  9  7  1  0
 10  9  1  0
 10 11  1  6
 12 16  1  0
 12 11  1  0
 13 12  2  0
 14 10  1  0
 14 15  2  0
 18 17  1  0
 19 18  2  0
 20 18  1  0
 21 20  1  0
 22 23  1  0
 22 21  1  6
 23 14  1  0
 24 22  1  0
 25 24  1  0
 26 24  2  0
M  END
$$$$
