LDQ.pdb
     RDKit          3D

 26 25  0  0  1  0  0  0  0  0999 V2000
   29.5315  -13.2856  -18.5425 C   0  0  0  0  0  0  0  0  0  0  0  0
   28.5695  -12.9536  -17.4390 C   0  0  1  0  0  0  0  0  0  0  0  0
   29.2967  -13.0668  -16.1204 C   0  0  0  0  0  0  0  0  0  0  0  0
   27.9881  -11.5739  -17.5423 C   0  0  0  0  0  0  0  0  0  0  0  0
   26.9420  -11.3652  -16.4761 C   0  0  2  0  0  0  0  0  0  0  0  0
   26.3857  -12.6573  -16.1494 N   0  0  0  0  0  0  0  0  0  0  0  0
   25.9531  -10.4025  -16.9644 C   0  0  0  0  0  0  0  0  0  0  0  0
   26.3311   -9.2658  -17.3413 O   0  0  0  0  0  0  0  0  0  0  0  0
   24.5812  -10.7359  -17.0162 N   0  0  0  0  0  0  0  0  0  0  0  0
   23.6784   -9.7605  -17.5820 C   0  0  1  0  0  0  0  0  0  0  0  0
   22.4269  -10.4703  -18.0447 C   0  0  0  0  0  0  0  0  0  0  0  0
   21.4597   -9.5676  -18.7025 C   0  0  0  0  0  0  0  0  0  0  0  0
   21.8164   -8.4408  -19.0709 O   0  0  0  0  0  0  0  0  0  0  0  0
   23.2622   -8.8328  -16.4686 C   0  0  0  0  0  0  0  0  0  0  0  0
   22.9784   -9.2379  -15.3158 O   0  0  0  0  0  0  0  0  0  0  0  0
   20.1454   -9.9521  -18.9227 O   0  0  0  0  0  0  0  0  0  0  0  0
   22.8362   -2.3679  -16.7732 N   0  0  0  0  0  0  0  0  0  0  0  0
   22.6366   -2.6958  -15.4150 C   0  0  0  0  0  0  0  0  0  0  0  0
   22.4729   -1.7934  -14.5751 O   0  0  0  0  0  0  0  0  0  0  0  0
   22.6247   -4.1071  -14.9976 C   0  0  0  0  0  0  0  0  0  0  0  0
   22.7895   -5.1060  -16.0911 C   0  0  0  0  0  0  0  0  0  0  0  0
   22.8122   -6.5021  -15.5996 C   0  0  2  0  0  0  0  0  0  0  0  0
   23.1727   -7.4329  -16.6819 N   0  0  0  0  0  0  0  0  0  0  0  0
   21.5041   -6.8797  -15.0257 C   0  0  0  0  0  0  0  0  0  0  0  0
   21.2433   -6.7995  -13.6435 O   0  0  0  0  0  0  0  0  0  0  0  0
   20.5619   -7.2872  -15.7282 O   0  0  0  0  0  0  0  0  0  0  0  0
  2  1  1  6
  3  2  1  0
  4  2  1  0
  5  4  1  0
  5  6  1  6
  7  8  2  0
  7  5  1  0
  9  7  1  0
 10  9  1  0
 10 11  1  1
 12 16  1  0
 12 11  1  0
 13 12  2  0
 14 10  1  0
 14 15  2  0
 18 17  1  0
 19 18  2  0
 20 18  1  0
 21 20  1  0
 22 23  1  0
 22 21  1  6
 23 14  1  0
 24 22  1  0
 25 24  1  0
 26 24  2  0
M  END
$$$$
