LDQ.pdb
     RDKit          3D

 26 25  0  0  1  0  0  0  0  0999 V2000
   19.0386  -14.9419  -15.0805 C   0  0  0  0  0  0  0  0  0  0  0  0
   18.5263  -13.7026  -15.7551 C   0  0  1  0  0  0  0  0  0  0  0  0
   17.0255  -13.8122  -15.8806 C   0  0  0  0  0  0  0  0  0  0  0  0
   18.8486  -12.4376  -15.0148 C   0  0  0  0  0  0  0  0  0  0  0  0
   18.3240  -11.2413  -15.7688 C   0  0  2  0  0  0  0  0  0  0  0  0
   18.7694  -11.3567  -17.1377 N   0  0  0  0  0  0  0  0  0  0  0  0
   18.7805  -10.0218  -15.0997 C   0  0  0  0  0  0  0  0  0  0  0  0
   18.4639   -9.8191  -13.9015 O   0  0  0  0  0  0  0  0  0  0  0  0
   19.5707   -9.0719  -15.7845 N   0  0  0  0  0  0  0  0  0  0  0  0
   19.9664   -7.8864  -15.0601 C   0  0  1  0  0  0  0  0  0  0  0  0
   21.4757   -7.8138  -15.0379 C   0  0  0  0  0  0  0  0  0  0  0  0
   22.0837   -8.0067  -16.3707 C   0  0  0  0  0  0  0  0  0  0  0  0
   22.2019   -7.0456  -17.1420 O   0  0  0  0  0  0  0  0  0  0  0  0
   19.4881   -6.6949  -15.8507 C   0  0  0  0  0  0  0  0  0  0  0  0
   19.4896   -6.6656  -17.1048 O   0  0  0  0  0  0  0  0  0  0  0  0
   22.5326   -9.2509  -16.7878 O   0  0  0  0  0  0  0  0  0  0  0  0
   14.3328   -4.0308  -16.5813 N   0  0  0  0  0  0  0  0  0  0  0  0
   14.8027   -4.3214  -15.2825 C   0  0  0  0  0  0  0  0  0  0  0  0
   13.9979   -4.4365  -14.3415 O   0  0  0  0  0  0  0  0  0  0  0  0
   16.2462   -4.4858  -15.0469 C   0  0  0  0  0  0  0  0  0  0  0  0
   17.1077   -4.4496  -16.2623 C   0  0  0  0  0  0  0  0  0  0  0  0
   18.5501   -4.3495  -15.9451 C   0  0  2  0  0  0  0  0  0  0  0  0
   19.0052   -5.5325  -15.1960 N   0  0  0  0  0  0  0  0  0  0  0  0
   18.8355   -3.1233  -15.1718 C   0  0  0  0  0  0  0  0  0  0  0  0
   18.6960   -1.8377  -15.7311 O   0  0  0  0  0  0  0  0  0  0  0  0
   19.2127   -3.1565  -13.9869 O   0  0  0  0  0  0  0  0  0  0  0  0
  2  1  1  1
  3  2  1  0
  4  2  1  0
  5  4  1  0
  5  6  1  6
  7  8  2  0
  7  5  1  0
  9  7  1  0
 10  9  1  0
 10 11  1  6
 12 16  1  0
 12 11  1  0
 13 12  2  0
 14 10  1  0
 14 15  2  0
 18 17  1  0
 19 18  2  0
 20 18  1  0
 21 20  1  0
 22 23  1  0
 22 21  1  1
 23 14  1  0
 24 22  1  0
 25 24  1  0
 26 24  2  0
M  END
$$$$
