LDQ.pdb
     RDKit          3D

 26 25  0  0  1  0  0  0  0  0999 V2000
   18.9163  -15.5973  -15.3116 C   0  0  0  0  0  0  0  0  0  0  0  0
   18.3321  -14.4844  -16.1323 C   0  0  1  0  0  0  0  0  0  0  0  0
   16.9915  -14.1108  -15.5460 C   0  0  0  0  0  0  0  0  0  0  0  0
   19.1900  -13.2538  -16.1749 C   0  0  0  0  0  0  0  0  0  0  0  0
   18.5332  -12.1862  -17.0137 C   0  0  2  0  0  0  0  0  0  0  0  0
   18.2463  -12.7605  -18.3074 N   0  0  0  0  0  0  0  0  0  0  0  0
   19.4135  -11.0177  -17.0679 C   0  0  0  0  0  0  0  0  0  0  0  0
   19.8071  -10.4906  -15.9984 O   0  0  0  0  0  0  0  0  0  0  0  0
   19.8242  -10.4768  -18.3067 N   0  0  0  0  0  0  0  0  0  0  0  0
   20.7052   -9.3324  -18.2758 C   0  0  1  0  0  0  0  0  0  0  0  0
   21.6255   -9.3975  -19.4728 C   0  0  0  0  0  0  0  0  0  0  0  0
   22.6426  -10.4635  -19.3631 C   0  0  0  0  0  0  0  0  0  0  0  0
   22.7467  -11.3140  -20.2566 O   0  0  0  0  0  0  0  0  0  0  0  0
   19.8518   -8.1021  -18.4533 C   0  0  0  0  0  0  0  0  0  0  0  0
   18.9285   -8.0308  -19.2994 O   0  0  0  0  0  0  0  0  0  0  0  0
   23.4965  -10.5392  -18.2728 O   0  0  0  0  0  0  0  0  0  0  0  0
   16.5450   -4.8930  -14.6154 N   0  0  0  0  0  0  0  0  0  0  0  0
   16.6905   -3.9480  -15.6536 C   0  0  0  0  0  0  0  0  0  0  0  0
   16.0470   -2.8843  -15.6207 O   0  0  0  0  0  0  0  0  0  0  0  0
   17.6036   -4.2269  -16.7737 C   0  0  0  0  0  0  0  0  0  0  0  0
   18.3398   -5.5205  -16.7007 C   0  0  0  0  0  0  0  0  0  0  0  0
   19.2688   -5.7213  -17.8356 C   0  0  2  0  0  0  0  0  0  0  0  0
   20.0609   -6.9490  -17.6535 N   0  0  0  0  0  0  0  0  0  0  0  0
   20.1687   -4.5599  -17.9913 C   0  0  0  0  0  0  0  0  0  0  0  0
   21.4916   -4.5693  -17.5066 O   0  0  0  0  0  0  0  0  0  0  0  0
   19.8108   -3.5120  -18.5581 O   0  0  0  0  0  0  0  0  0  0  0  0
  2  1  1  1
  3  2  1  0
  4  2  1  0
  5  4  1  0
  5  6  1  6
  7  8  2  0
  7  5  1  0
  9  7  1  0
 10  9  1  0
 10 11  1  6
 12 16  1  0
 12 11  1  0
 13 12  2  0
 14 10  1  0
 14 15  2  0
 18 17  1  0
 19 18  2  0
 20 18  1  0
 21 20  1  0
 22 23  1  0
 22 21  1  1
 23 14  1  0
 24 22  1  0
 25 24  1  0
 26 24  2  0
M  END
$$$$
