LDQ.pdb
     RDKit          3D

 26 25  0  0  1  0  0  0  0  0999 V2000
   25.5476  -15.7278  -18.9222 C   0  0  0  0  0  0  0  0  0  0  0  0
   25.9591  -16.6648  -17.8240 C   0  0  1  0  0  0  0  0  0  0  0  0
   26.2989  -15.8476  -16.6004 C   0  0  0  0  0  0  0  0  0  0  0  0
   24.8974  -17.6576  -17.4507 C   0  0  0  0  0  0  0  0  0  0  0  0
   25.3996  -18.5792  -16.3675 C   0  0  2  0  0  0  0  0  0  0  0  0
   26.5029  -19.3352  -16.9125 N   0  0  0  0  0  0  0  0  0  0  0  0
   24.2886  -19.4094  -15.8989 C   0  0  0  0  0  0  0  0  0  0  0  0
   24.1987  -20.5992  -16.2902 O   0  0  0  0  0  0  0  0  0  0  0  0
   23.3181  -18.8891  -15.0140 N   0  0  0  0  0  0  0  0  0  0  0  0
   22.2562  -19.7735  -14.5934 C   0  0  1  0  0  0  0  0  0  0  0  0
   22.3251  -19.9330  -13.0921 C   0  0  0  0  0  0  0  0  0  0  0  0
   21.3347  -20.8955  -12.5668 C   0  0  0  0  0  0  0  0  0  0  0  0
   20.8161  -21.7256  -13.3246 O   0  0  0  0  0  0  0  0  0  0  0  0
   20.9496  -19.0838  -14.8951 C   0  0  0  0  0  0  0  0  0  0  0  0
   20.7005  -17.9094  -14.5315 O   0  0  0  0  0  0  0  0  0  0  0  0
   20.9649  -20.8959  -11.2300 O   0  0  0  0  0  0  0  0  0  0  0  0
   20.2776  -20.0025  -19.1558 N   0  0  0  0  0  0  0  0  0  0  0  0
   20.1654  -18.6059  -18.9859 C   0  0  0  0  0  0  0  0  0  0  0  0
   20.9092  -17.8403  -19.6239 O   0  0  0  0  0  0  0  0  0  0  0  0
   19.1677  -18.0608  -18.0512 C   0  0  0  0  0  0  0  0  0  0  0  0
   18.3389  -19.0681  -17.3307 C   0  0  0  0  0  0  0  0  0  0  0  0
   18.6212  -19.1161  -15.8784 C   0  0  2  0  0  0  0  0  0  0  0  0
   19.9256  -19.7477  -15.6187 N   0  0  0  0  0  0  0  0  0  0  0  0
   17.5566  -19.8452  -15.1588 C   0  0  0  0  0  0  0  0  0  0  0  0
   17.8150  -21.0318  -14.4444 O   0  0  0  0  0  0  0  0  0  0  0  0
   16.3760  -19.4535  -15.1420 O   0  0  0  0  0  0  0  0  0  0  0  0
  2  1  1  6
  3  2  1  0
  4  2  1  0
  5  4  1  0
  5  6  1  6
  7  8  2  0
  7  5  1  0
  9  7  1  0
 10  9  1  0
 10 11  1  1
 12 16  1  0
 12 11  1  0
 13 12  2  0
 14 10  1  0
 14 15  2  0
 18 17  1  0
 19 18  2  0
 20 18  1  0
 21 20  1  0
 22 23  1  0
 22 21  1  6
 23 14  1  0
 24 22  1  0
 25 24  1  0
 26 24  2  0
M  END
$$$$
