LDQ.pdb
     RDKit          3D

 26 25  0  0  1  0  0  0  0  0999 V2000
   19.6442  -16.4176  -19.0092 C   0  0  0  0  0  0  0  0  0  0  0  0
   20.4322  -15.3647  -18.2854 C   0  0  1  0  0  0  0  0  0  0  0  0
   21.9022  -15.6648  -18.4574 C   0  0  0  0  0  0  0  0  0  0  0  0
   20.1720  -13.9720  -18.7800 C   0  0  0  0  0  0  0  0  0  0  0  0
   20.8107  -12.9616  -17.8602 C   0  0  2  0  0  0  0  0  0  0  0  0
   20.9653  -13.5837  -16.5661 N   0  0  0  0  0  0  0  0  0  0  0  0
   19.9865  -11.7519  -17.8397 C   0  0  0  0  0  0  0  0  0  0  0  0
   19.7183  -11.1686  -18.9189 O   0  0  0  0  0  0  0  0  0  0  0  0
   19.4908  -11.2333  -16.6226 N   0  0  0  0  0  0  0  0  0  0  0  0
   18.6789  -10.0403  -16.6871 C   0  0  1  0  0  0  0  0  0  0  0  0
   17.7574  -10.0165  -15.4895 C   0  0  0  0  0  0  0  0  0  0  0  0
   16.8541   -8.8473  -15.4780 C   0  0  0  0  0  0  0  0  0  0  0  0
   16.6461   -8.2156  -16.5221 O   0  0  0  0  0  0  0  0  0  0  0  0
   19.6037   -8.8579  -16.5441 C   0  0  0  0  0  0  0  0  0  0  0  0
   20.5877   -8.8541  -15.7662 O   0  0  0  0  0  0  0  0  0  0  0  0
   16.2232   -8.4319  -14.3147 O   0  0  0  0  0  0  0  0  0  0  0  0
   20.2707   -3.8415  -20.5205 N   0  0  0  0  0  0  0  0  0  0  0  0
   21.0982   -3.5500  -19.4149 C   0  0  0  0  0  0  0  0  0  0  0  0
   21.8162   -2.5348  -19.4263 O   0  0  0  0  0  0  0  0  0  0  0  0
   21.1088   -4.4518  -18.2517 C   0  0  0  0  0  0  0  0  0  0  0  0
   20.1969   -5.6273  -18.3368 C   0  0  0  0  0  0  0  0  0  0  0  0
   20.2452   -6.4844  -17.1308 C   0  0  2  0  0  0  0  0  0  0  0  0
   19.3960   -7.6752  -17.2999 N   0  0  0  0  0  0  0  0  0  0  0  0
   19.8230   -5.7309  -15.9321 C   0  0  0  0  0  0  0  0  0  0  0  0
   18.4724   -5.6463  -15.5399 O   0  0  0  0  0  0  0  0  0  0  0  0
   20.6335   -5.1315  -15.2032 O   0  0  0  0  0  0  0  0  0  0  0  0
  2  1  1  6
  3  2  1  0
  4  2  1  0
  5  4  1  0
  5  6  1  1
  7  8  2  0
  7  5  1  0
  9  7  1  0
 10  9  1  0
 10 11  1  1
 12 16  1  0
 12 11  1  0
 13 12  2  0
 14 10  1  0
 14 15  2  0
 18 17  1  0
 19 18  2  0
 20 18  1  0
 21 20  1  0
 22 23  1  0
 22 21  1  6
 23 14  1  0
 24 22  1  0
 25 24  1  0
 26 24  2  0
M  END
$$$$
