LDQ.pdb
     RDKit          3D

 26 25  0  0  1  0  0  0  0  0999 V2000
   23.6433  -17.3327  -22.6270 C   0  0  0  0  0  0  0  0  0  0  0  0
   22.7830  -16.1058  -22.5381 C   0  0  1  0  0  0  0  0  0  0  0  0
   21.5493  -16.3247  -23.3808 C   0  0  0  0  0  0  0  0  0  0  0  0
   22.3492  -15.7751  -21.1400 C   0  0  0  0  0  0  0  0  0  0  0  0
   21.4245  -14.5836  -21.1466 C   0  0  2  0  0  0  0  0  0  0  0  0
   22.2397  -13.3973  -21.2649 N   0  0  0  0  0  0  0  0  0  0  0  0
   20.6008  -14.6163  -19.9368 C   0  0  0  0  0  0  0  0  0  0  0  0
   21.1208  -14.3402  -18.8276 O   0  0  0  0  0  0  0  0  0  0  0  0
   19.2307  -14.9545  -20.0018 N   0  0  0  0  0  0  0  0  0  0  0  0
   18.4732  -14.9096  -18.7726 C   0  0  1  0  0  0  0  0  0  0  0  0
   17.7707  -13.5744  -18.6855 C   0  0  0  0  0  0  0  0  0  0  0  0
   16.9097  -13.4508  -17.4911 C   0  0  0  0  0  0  0  0  0  0  0  0
   17.3158  -13.8486  -16.3915 O   0  0  0  0  0  0  0  0  0  0  0  0
   17.3952  -15.9595  -18.8693 C   0  0  0  0  0  0  0  0  0  0  0  0
   16.6909  -16.1189  -19.8950 O   0  0  0  0  0  0  0  0  0  0  0  0
   15.6419  -12.8933  -17.5677 O   0  0  0  0  0  0  0  0  0  0  0  0
   13.3751  -19.1652  -14.5573 N   0  0  0  0  0  0  0  0  0  0  0  0
   14.7670  -19.3284  -14.7244 C   0  0  0  0  0  0  0  0  0  0  0  0
   15.3397  -20.3191  -14.2374 O   0  0  0  0  0  0  0  0  0  0  0  0
   15.5364  -18.3226  -15.4744 C   0  0  0  0  0  0  0  0  0  0  0  0
   16.1925  -18.8082  -16.7212 C   0  0  0  0  0  0  0  0  0  0  0  0
   16.0713  -17.8546  -17.8469 C   0  0  2  0  0  0  0  0  0  0  0  0
   17.1267  -16.8300  -17.7816 N   0  0  0  0  0  0  0  0  0  0  0  0
   14.7423  -17.2090  -17.8495 C   0  0  0  0  0  0  0  0  0  0  0  0
   13.6050  -17.8423  -18.3886 O   0  0  0  0  0  0  0  0  0  0  0  0
   14.5528  -16.0742  -17.3765 O   0  0  0  0  0  0  0  0  0  0  0  0
  2  1  1  1
  3  2  1  0
  4  2  1  0
  5  4  1  0
  5  6  1  1
  7  8  2  0
  7  5  1  0
  9  7  1  0
 10  9  1  0
 10 11  1  6
 12 16  1  0
 12 11  1  0
 13 12  2  0
 14 10  1  0
 14 15  2  0
 18 17  1  0
 19 18  2  0
 20 18  1  0
 21 20  1  0
 22 23  1  0
 22 21  1  1
 23 14  1  0
 24 22  1  0
 25 24  1  0
 26 24  2  0
M  END
$$$$
