RYH.pdb
     RDKit          3D

 34 35  0  0  1  0  0  0  0  0999 V2000
   32.5812  -24.5195  -17.9086 N   0  0  0  0  0  0  0  0  0  0  0  0
   31.9512  -24.3141  -16.6509 C   0  0  0  0  0  0  0  0  0  0  0  0
   32.5483  -24.6650  -15.5524 N   0  0  0  0  0  0  0  0  0  0  0  0
   30.6686  -23.7251  -16.6197 N   0  0  0  0  0  0  0  0  0  0  0  0
   29.9996  -23.4710  -17.9135 C   0  0  0  0  0  0  0  0  0  0  0  0
   29.3590  -22.1353  -17.7904 C   0  0  0  0  0  0  0  0  0  0  0  0
   28.1199  -22.1316  -16.9856 C   0  0  0  0  0  0  0  0  0  0  0  0
   27.8417  -23.3354  -16.1359 C   0  0  2  0  0  0  0  0  0  0  0  0
   27.4154  -24.4720  -16.8862 N   0  0  0  0  0  0  0  0  0  0  0  0
   26.7956  -22.9174  -15.1379 C   0  0  0  0  0  0  0  0  0  0  0  0
   25.6736  -23.4594  -15.2283 O   0  0  0  0  0  0  0  0  0  0  0  0
   32.1348  -24.5428  -14.6087 O   0  0  0  0  0  0  0  0  0  0  0  0
   22.9281  -19.5977   -7.9299 C   0  0  0  0  0  0  0  0  0  0  0  0
   23.8501  -19.9137   -8.9224 C   0  0  0  0  0  0  0  0  0  0  0  0
   23.8848  -19.1958  -10.1103 C   0  0  0  0  0  0  0  0  0  0  0  0
   24.7963  -19.4947  -11.1130 C   0  0  0  0  0  0  0  0  0  0  0  0
   25.6853  -20.5255  -10.9249 C   0  0  0  0  0  0  0  0  0  0  0  0
   26.6531  -20.8524  -11.9663 C   0  0  2  0  0  0  0  0  0  0  0  0
   26.0360  -21.6184  -13.1224 N   0  0  0  0  0  0  0  0  0  0  0  0
   27.0304  -21.9547  -14.1219 C   0  0  0  0  0  0  0  0  0  0  0  0
   24.9558  -20.8419  -13.7545 O   0  0  0  0  0  0  0  0  0  0  0  0
   25.1716  -19.9039  -14.5603 C   0  0  0  0  0  0  0  0  0  0  0  0
   25.6451  -21.2315   -9.7471 C   0  0  0  0  0  0  0  0  0  0  0  0
   24.7439  -20.9477   -8.7375 N   0  0  0  0  0  0  0  0  0  0  0  0
   23.6045  -21.1408  -13.4631 C   0  0  1  0  0  0  0  0  0  0  0  0
   22.5291  -20.3623  -14.0817 C   0  0  0  0  0  0  0  0  0  0  0  0
   22.4317  -20.6307  -15.5402 C   0  0  0  0  0  0  0  0  0  0  0  0
   21.3947  -19.7784  -16.1548 C   0  0  0  0  0  0  0  0  0  0  0  0
   20.5797  -18.8571  -15.4810 N   0  0  0  0  0  0  0  0  0  0  0  0
   19.7456  -18.2486  -16.3391 C   0  0  0  0  0  0  0  0  0  0  0  0
   20.0157  -18.7660  -17.5438 N   0  0  0  0  0  0  0  0  0  0  0  0
   20.9942  -19.6757  -17.4432 C   0  0  0  0  0  0  0  0  0  0  0  0
   21.2557  -20.6993  -13.4125 O   0  0  0  0  0  0  0  0  0  0  0  0
   21.2440  -21.5501  -12.4784 O   0  0  0  0  0  0  0  0  0  0  0  0
  2  4  1  0
  2  1  1  0
  3  2  2  0
  5  4  1  0
  6  5  1  0
  7  8  1  0
  7  6  1  0
  8  9  1  6
 10  8  1  0
 10 19  1  0
 11 10  2  0
 12 13  1  0
 13 14  2  0
 14 15  1  0
 16 15  2  0
 16 17  1  0
 18 17  1  1
 18 19  1  0
 20 18  1  0
 21 20  2  0
 22 16  1  0
 23 13  1  0
 23 22  2  0
 24 20  1  0
 25 26  1  1
 25 24  1  0
 26 27  1  0
 27 28  2  0
 29 28  1  0
 30 29  1  0
 31 30  2  0
 31 27  1  0
 32 25  1  0
 33 32  2  0
 34 32  1  0
M  END
$$$$
