RYH.pdb
     RDKit          3D

 34 35  0  0  1  0  0  0  0  0999 V2000
   32.6270  -22.8967  -19.6218 N   0  0  0  0  0  0  0  0  0  0  0  0
   31.9509  -23.0749  -20.8596 C   0  0  0  0  0  0  0  0  0  0  0  0
   32.5276  -23.7045  -21.8381 N   0  0  0  0  0  0  0  0  0  0  0  0
   30.6464  -22.5548  -21.0042 N   0  0  0  0  0  0  0  0  0  0  0  0
   29.9070  -22.2067  -19.7721 C   0  0  0  0  0  0  0  0  0  0  0  0
   29.6025  -23.4952  -19.0965 C   0  0  0  0  0  0  0  0  0  0  0  0
   28.7852  -23.3576  -17.8735 C   0  0  0  0  0  0  0  0  0  0  0  0
   27.6422  -22.3874  -17.9092 C   0  0  2  0  0  0  0  0  0  0  0  0
   28.0103  -21.0962  -18.3926 N   0  0  0  0  0  0  0  0  0  0  0  0
   27.1067  -22.3114  -16.5047 C   0  0  0  0  0  0  0  0  0  0  0  0
   26.7758  -23.3871  -15.9625 O   0  0  0  0  0  0  0  0  0  0  0  0
   32.0906  -23.8450  -22.7685 O   0  0  0  0  0  0  0  0  0  0  0  0
   24.9055  -19.9797   -8.3614 C   0  0  0  0  0  0  0  0  0  0  0  0
   25.4707  -20.0405   -9.6310 C   0  0  0  0  0  0  0  0  0  0  0  0
   26.1213  -21.1890  -10.0616 C   0  0  0  0  0  0  0  0  0  0  0  0
   26.6918  -21.2703  -11.3239 C   0  0  0  0  0  0  0  0  0  0  0  0
   26.6105  -20.1882  -12.1670 C   0  0  0  0  0  0  0  0  0  0  0  0
   27.2015  -20.2562  -13.4990 C   0  0  2  0  0  0  0  0  0  0  0  0
   26.3393  -21.0222  -14.4858 N   0  0  0  0  0  0  0  0  0  0  0  0
   26.9679  -21.0931  -15.7900 C   0  0  0  0  0  0  0  0  0  0  0  0
   25.0107  -20.4010  -14.6205 O   0  0  0  0  0  0  0  0  0  0  0  0
   24.8414  -19.2457  -15.0814 C   0  0  0  0  0  0  0  0  0  0  0  0
   25.9654  -19.0553  -11.7342 C   0  0  0  0  0  0  0  0  0  0  0  0
   25.3913  -18.9565  -10.4801 N   0  0  0  0  0  0  0  0  0  0  0  0
   23.8535  -21.1102  -14.2231 C   0  0  2  0  0  0  0  0  0  0  0  0
   22.5293  -20.5038  -14.3787 C   0  0  0  0  0  0  0  0  0  0  0  0
   22.2332  -19.5516  -13.2768 C   0  0  0  0  0  0  0  0  0  0  0  0
   21.8498  -20.2810  -12.0518 C   0  0  0  0  0  0  0  0  0  0  0  0
   22.7094  -20.6387  -11.0029 N   0  0  0  0  0  0  0  0  0  0  0  0
   22.0362  -21.2924  -10.0428 C   0  0  0  0  0  0  0  0  0  0  0  0
   20.7666  -21.3562  -10.4623 N   0  0  0  0  0  0  0  0  0  0  0  0
   20.6472  -20.7577  -11.6551 C   0  0  0  0  0  0  0  0  0  0  0  0
   22.4762  -19.8112  -15.6827 O   0  0  0  0  0  0  0  0  0  0  0  0
   23.4880  -19.8205  -16.4394 O   0  0  0  0  0  0  0  0  0  0  0  0
  2  4  1  0
  2  1  1  0
  3  2  2  0
  5  4  1  0
  6  5  1  0
  7  8  1  0
  7  6  1  0
  8  9  1  1
 10  8  1  0
 10 19  1  0
 11 10  2  0
 12 13  1  0
 13 14  2  0
 14 15  1  0
 16 15  2  0
 16 17  1  0
 18 17  1  1
 18 19  1  0
 20 18  1  0
 21 20  2  0
 22 16  1  0
 23 13  1  0
 23 22  2  0
 24 20  1  0
 25 26  1  1
 25 24  1  0
 26 27  1  0
 27 28  2  0
 29 28  1  0
 30 29  1  0
 31 30  2  0
 31 27  1  0
 32 25  1  0
 33 32  2  0
 34 32  1  0
M  END
$$$$
