RYH.pdb
     RDKit          3D

 34 35  0  0  1  0  0  0  0  0999 V2000
   31.2281  -21.9854  -18.4547 N   0  0  0  0  0  0  0  0  0  0  0  0
   30.6738  -23.2573  -18.1447 C   0  0  0  0  0  0  0  0  0  0  0  0
   31.2361  -24.3430  -18.5824 N   0  0  0  0  0  0  0  0  0  0  0  0
   29.5042  -23.3168  -17.3564 N   0  0  0  0  0  0  0  0  0  0  0  0
   28.7376  -22.0660  -17.1722 C   0  0  0  0  0  0  0  0  0  0  0  0
   29.2586  -21.4433  -15.9271 C   0  0  0  0  0  0  0  0  0  0  0  0
   28.3603  -21.5794  -14.7621 C   0  0  0  0  0  0  0  0  0  0  0  0
   27.3166  -20.5210  -14.5641 C   0  0  2  0  0  0  0  0  0  0  0  0
   27.8394  -19.3014  -14.0390 N   0  0  0  0  0  0  0  0  0  0  0  0
   26.2828  -21.1120  -13.6436 C   0  0  0  0  0  0  0  0  0  0  0  0
   25.7735  -22.2009  -13.9838 O   0  0  0  0  0  0  0  0  0  0  0  0
   30.8554  -25.2941  -18.4189 O   0  0  0  0  0  0  0  0  0  0  0  0
   30.1430  -21.2051   -8.3738 C   0  0  0  0  0  0  0  0  0  0  0  0
   28.8347  -21.0585   -8.8231 C   0  0  0  0  0  0  0  0  0  0  0  0
   28.3525  -21.8402   -9.8643 C   0  0  0  0  0  0  0  0  0  0  0  0
   27.0510  -21.7099  -10.3275 C   0  0  0  0  0  0  0  0  0  0  0  0
   26.2205  -20.7852   -9.7414 C   0  0  0  0  0  0  0  0  0  0  0  0
   24.8480  -20.6361  -10.2127 C   0  0  2  0  0  0  0  0  0  0  0  0
   24.7021  -20.9212  -11.6964 N   0  0  0  0  0  0  0  0  0  0  0  0
   25.8754  -20.4942  -12.4326 C   0  0  0  0  0  0  0  0  0  0  0  0
   23.5122  -20.2518  -12.2489 O   0  0  0  0  0  0  0  0  0  0  0  0
   23.5813  -19.3209  -13.0882 C   0  0  0  0  0  0  0  0  0  0  0  0
   26.7045  -20.0153   -8.7118 C   0  0  0  0  0  0  0  0  0  0  0  0
   27.9981  -20.1315   -8.2374 N   0  0  0  0  0  0  0  0  0  0  0  0
   22.2195  -20.6516  -11.8375 C   0  0  1  0  0  0  0  0  0  0  0  0
   21.1220  -20.7018  -12.8061 C   0  0  0  0  0  0  0  0  0  0  0  0
   21.4236  -21.6339  -13.9236 C   0  0  0  0  0  0  0  0  0  0  0  0
   20.3428  -21.6034  -14.9288 C   0  0  0  0  0  0  0  0  0  0  0  0
   19.1962  -20.7970  -14.8813 N   0  0  0  0  0  0  0  0  0  0  0  0
   18.4197  -21.0168  -15.9543 C   0  0  0  0  0  0  0  0  0  0  0  0
   19.0515  -21.9466  -16.6811 N   0  0  0  0  0  0  0  0  0  0  0  0
   20.1948  -22.3006  -16.0789 C   0  0  0  0  0  0  0  0  0  0  0  0
   19.8913  -21.1229  -12.1055 O   0  0  0  0  0  0  0  0  0  0  0  0
   19.9653  -21.9378  -11.1427 O   0  0  0  0  0  0  0  0  0  0  0  0
  2  4  1  0
  2  1  1  0
  3  2  2  0
  5  4  1  0
  6  5  1  0
  7  8  1  0
  7  6  1  0
  8  9  1  1
 10  8  1  0
 10 19  1  0
 11 10  2  0
 12 13  1  0
 13 14  2  0
 14 15  1  0
 16 15  2  0
 16 17  1  0
 18 17  1  1
 18 19  1  0
 20 18  1  0
 21 20  2  0
 22 16  1  0
 23 13  1  0
 23 22  2  0
 24 20  1  0
 25 26  1  6
 25 24  1  0
 26 27  1  0
 27 28  2  0
 29 28  1  0
 30 29  1  0
 31 30  2  0
 31 27  1  0
 32 25  1  0
 33 32  2  0
 34 32  1  0
M  END
$$$$
