RYH.pdb
     RDKit          3D

 34 35  0  0  1  0  0  0  0  0999 V2000
   49.0708  -13.4735   -6.6774 N   0  0  0  0  0  0  0  0  0  0  0  0
   48.4938  -12.6956   -5.6368 C   0  0  0  0  0  0  0  0  0  0  0  0
   49.2327  -11.8989   -4.9256 N   0  0  0  0  0  0  0  0  0  0  0  0
   47.1080  -12.8068   -5.3917 N   0  0  0  0  0  0  0  0  0  0  0  0
   46.3204  -13.6759   -6.2918 C   0  0  0  0  0  0  0  0  0  0  0  0
   46.1082  -12.8937   -7.5379 C   0  0  0  0  0  0  0  0  0  0  0  0
   44.7960  -12.2189   -7.6112 C   0  0  0  0  0  0  0  0  0  0  0  0
   43.7008  -12.9127   -8.3647 C   0  0  2  0  0  0  0  0  0  0  0  0
   44.1303  -13.4628   -9.6095 N   0  0  0  0  0  0  0  0  0  0  0  0
   42.6125  -11.8928   -8.5660 C   0  0  0  0  0  0  0  0  0  0  0  0
   42.5573  -11.3314   -9.6807 O   0  0  0  0  0  0  0  0  0  0  0  0
   48.8663  -11.3109   -4.1535 O   0  0  0  0  0  0  0  0  0  0  0  0
   35.7397   -6.5248   -7.0963 C   0  0  0  0  0  0  0  0  0  0  0  0
   36.6797   -7.5452   -6.9951 C   0  0  0  0  0  0  0  0  0  0  0  0
   37.1818   -8.1600   -8.1342 C   0  0  0  0  0  0  0  0  0  0  0  0
   38.1198   -9.1795   -8.0555 C   0  0  0  0  0  0  0  0  0  0  0  0
   38.5617   -9.5895   -6.8206 C   0  0  0  0  0  0  0  0  0  0  0  0
   39.5500  -10.6577   -6.7180 C   0  0  1  0  0  0  0  0  0  0  0  0
   40.6468  -10.5455   -7.7613 N   0  0  0  0  0  0  0  0  0  0  0  0
   41.6687  -11.5539   -7.5617 C   0  0  0  0  0  0  0  0  0  0  0  0
   41.2695   -9.2110   -7.7324 O   0  0  0  0  0  0  0  0  0  0  0  0
   40.7317   -8.1963   -8.2392 C   0  0  0  0  0  0  0  0  0  0  0  0
   38.0605   -8.9768   -5.6980 C   0  0  0  0  0  0  0  0  0  0  0  0
   37.1256   -7.9596   -5.7575 N   0  0  0  0  0  0  0  0  0  0  0  0
   42.5284   -9.0300   -7.1138 C   0  0  2  0  0  0  0  0  0  0  0  0
   43.1668   -7.7118   -7.1171 C   0  0  0  0  0  0  0  0  0  0  0  0
   43.2470   -7.1487   -8.4901 C   0  0  0  0  0  0  0  0  0  0  0  0
   44.0235   -5.8930   -8.4897 C   0  0  0  0  0  0  0  0  0  0  0  0
   45.1796   -5.6397   -7.7371 N   0  0  0  0  0  0  0  0  0  0  0  0
   45.6345   -4.3989   -7.9739 C   0  0  0  0  0  0  0  0  0  0  0  0
   44.7896   -3.8607   -8.8618 N   0  0  0  0  0  0  0  0  0  0  0  0
   43.8295   -4.7417   -9.1735 C   0  0  0  0  0  0  0  0  0  0  0  0
   42.3951   -6.8099   -6.2375 O   0  0  0  0  0  0  0  0  0  0  0  0
   41.5941   -7.2951   -5.3893 O   0  0  0  0  0  0  0  0  0  0  0  0
  2  4  1  0
  2  1  1  0
  3  2  2  0
  5  4  1  0
  6  5  1  0
  7  8  1  0
  7  6  1  0
  8  9  1  6
 10  8  1  0
 10 19  1  0
 11 10  2  0
 12 13  1  0
 13 14  2  0
 14 15  1  0
 16 15  2  0
 16 17  1  0
 18 17  1  6
 18 19  1  0
 20 18  1  0
 21 20  2  0
 22 16  1  0
 23 13  1  0
 23 22  2  0
 24 20  1  0
 25 26  1  6
 25 24  1  0
 26 27  1  0
 27 28  2  0
 29 28  1  0
 30 29  1  0
 31 30  2  0
 31 27  1  0
 32 25  1  0
 33 32  2  0
 34 32  1  0
M  END
$$$$
