RYH.pdb
     RDKit          3D

 34 35  0  0  1  0  0  0  0  0999 V2000
   45.5735  -15.6075   -7.6770 N   0  0  0  0  0  0  0  0  0  0  0  0
   46.7201  -15.0325   -7.0641 C   0  0  0  0  0  0  0  0  0  0  0  0
   47.7679  -15.7596   -6.8193 N   0  0  0  0  0  0  0  0  0  0  0  0
   46.6970  -13.6618   -6.7268 N   0  0  0  0  0  0  0  0  0  0  0  0
   45.5365  -12.8646   -7.1779 C   0  0  0  0  0  0  0  0  0  0  0  0
   45.7355  -11.4988   -6.6259 C   0  0  0  0  0  0  0  0  0  0  0  0
   44.6146  -10.5725   -6.8873 C   0  0  0  0  0  0  0  0  0  0  0  0
   44.7225   -9.1813   -6.3382 C   0  0  2  0  0  0  0  0  0  0  0  0
   44.8093   -9.1396   -4.9143 N   0  0  0  0  0  0  0  0  0  0  0  0
   43.5126   -8.4352   -6.8327 C   0  0  0  0  0  0  0  0  0  0  0  0
   42.4850   -8.4831   -6.1237 O   0  0  0  0  0  0  0  0  0  0  0  0
   48.5889  -15.4228   -6.2818 O   0  0  0  0  0  0  0  0  0  0  0  0
   38.3754   -2.5094  -10.7857 C   0  0  0  0  0  0  0  0  0  0  0  0
   39.4480   -3.2470  -10.2952 C   0  0  0  0  0  0  0  0  0  0  0  0
   39.6727   -3.3456   -8.9286 C   0  0  0  0  0  0  0  0  0  0  0  0
   40.7366   -4.0761   -8.4187 C   0  0  0  0  0  0  0  0  0  0  0  0
   41.5871   -4.7167   -9.2873 C   0  0  0  0  0  0  0  0  0  0  0  0
   42.7092   -5.4921   -8.7697 C   0  0  1  0  0  0  0  0  0  0  0  0
   42.3406   -6.9351   -8.4767 N   0  0  0  0  0  0  0  0  0  0  0  0
   43.4959   -7.6963   -8.0442 C   0  0  0  0  0  0  0  0  0  0  0  0
   41.7495   -7.5808   -9.6611 O   0  0  0  0  0  0  0  0  0  0  0  0
   42.4279   -7.9282  -10.6585 C   0  0  0  0  0  0  0  0  0  0  0  0
   41.3586   -4.6146  -10.6380 C   0  0  0  0  0  0  0  0  0  0  0  0
   40.3039   -3.8913  -11.1638 N   0  0  0  0  0  0  0  0  0  0  0  0
   40.3592   -7.8359   -9.7091 C   0  0  2  0  0  0  0  0  0  0  0  0
   39.7745   -8.5089  -10.8711 C   0  0  0  0  0  0  0  0  0  0  0  0
   39.0274   -9.7308  -10.4743 C   0  0  0  0  0  0  0  0  0  0  0  0
   38.3675  -10.3374  -11.6473 C   0  0  0  0  0  0  0  0  0  0  0  0
   38.4114   -9.8490  -12.9613 N   0  0  0  0  0  0  0  0  0  0  0  0
   37.7047  -10.6412  -13.7833 C   0  0  0  0  0  0  0  0  0  0  0  0
   37.2137  -11.6223  -13.0162 N   0  0  0  0  0  0  0  0  0  0  0  0
   37.6027  -11.4493  -11.7458 C   0  0  0  0  0  0  0  0  0  0  0  0
   38.8769   -7.5620  -11.5644 O   0  0  0  0  0  0  0  0  0  0  0  0
   38.3892   -6.5827  -10.9321 O   0  0  0  0  0  0  0  0  0  0  0  0
  2  4  1  0
  2  1  1  0
  3  2  2  0
  5  4  1  0
  6  5  1  0
  7  8  1  0
  7  6  1  0
  8  9  1  1
 10  8  1  0
 10 19  1  0
 11 10  2  0
 12 13  1  0
 13 14  2  0
 14 15  1  0
 16 15  2  0
 16 17  1  0
 18 17  1  1
 18 19  1  0
 20 18  1  0
 21 20  2  0
 22 16  1  0
 23 13  1  0
 23 22  2  0
 24 20  1  0
 25 26  1  1
 25 24  1  0
 26 27  1  0
 27 28  2  0
 29 28  1  0
 30 29  1  0
 31 30  2  0
 31 27  1  0
 32 25  1  0
 33 32  2  0
 34 32  1  0
M  END
$$$$
