RYH.pdb
     RDKit          3D

 34 35  0  0  1  0  0  0  0  0999 V2000
   31.7071  -24.5723  -17.6708 N   0  0  0  0  0  0  0  0  0  0  0  0
   31.4935  -24.3679  -16.2803 C   0  0  0  0  0  0  0  0  0  0  0  0
   32.2532  -24.9550  -15.4060 N   0  0  0  0  0  0  0  0  0  0  0  0
   30.4426  -23.5191  -15.8702 N   0  0  0  0  0  0  0  0  0  0  0  0
   29.6841  -22.8098  -16.9226 C   0  0  0  0  0  0  0  0  0  0  0  0
   28.7843  -21.8623  -16.2141 C   0  0  0  0  0  0  0  0  0  0  0  0
   27.3462  -22.1597  -16.3758 C   0  0  0  0  0  0  0  0  0  0  0  0
   26.9701  -23.5394  -16.8272 C   0  0  2  0  0  0  0  0  0  0  0  0
   27.2635  -23.7851  -18.2020 N   0  0  0  0  0  0  0  0  0  0  0  0
   25.4989  -23.6905  -16.5483 C   0  0  0  0  0  0  0  0  0  0  0  0
   24.7126  -23.0466  -17.2749 O   0  0  0  0  0  0  0  0  0  0  0  0
   32.1670  -24.8137  -14.3818 O   0  0  0  0  0  0  0  0  0  0  0  0
   17.7880  -26.3141  -13.1360 C   0  0  0  0  0  0  0  0  0  0  0  0
   19.1421  -26.1897  -13.4290 C   0  0  0  0  0  0  0  0  0  0  0  0
   19.6561  -26.6816  -14.6213 C   0  0  0  0  0  0  0  0  0  0  0  0
   21.0035  -26.5679  -14.9329 C   0  0  0  0  0  0  0  0  0  0  0  0
   21.8482  -25.9536  -14.0400 C   0  0  0  0  0  0  0  0  0  0  0  0
   23.2672  -25.8217  -14.3516 C   0  0  1  0  0  0  0  0  0  0  0  0
   23.5646  -24.6301  -15.2435 N   0  0  0  0  0  0  0  0  0  0  0  0
   24.9837  -24.5177  -15.5166 C   0  0  0  0  0  0  0  0  0  0  0  0
   23.0877  -23.3787  -14.6304 O   0  0  0  0  0  0  0  0  0  0  0  0
   23.8340  -22.6147  -13.9709 C   0  0  0  0  0  0  0  0  0  0  0  0
   21.3327  -25.4693  -12.8624 C   0  0  0  0  0  0  0  0  0  0  0  0
   19.9932  -25.5739  -12.5353 N   0  0  0  0  0  0  0  0  0  0  0  0
   21.7351  -22.9908  -14.7724 C   0  0  1  0  0  0  0  0  0  0  0  0
   21.2791  -21.7044  -14.2409 C   0  0  0  0  0  0  0  0  0  0  0  0
   21.9348  -20.5652  -14.9342 C   0  0  0  0  0  0  0  0  0  0  0  0
   21.3926  -19.2815  -14.4465 C   0  0  0  0  0  0  0  0  0  0  0  0
   20.3648  -19.1260  -13.5049 N   0  0  0  0  0  0  0  0  0  0  0  0
   20.1179  -17.8245  -13.2863 C   0  0  0  0  0  0  0  0  0  0  0  0
   20.9688  -17.1519  -14.0707 N   0  0  0  0  0  0  0  0  0  0  0  0
   21.7297  -18.0100  -14.7634 C   0  0  0  0  0  0  0  0  0  0  0  0
   19.8119  -21.6221  -14.3948 O   0  0  0  0  0  0  0  0  0  0  0  0
   19.2262  -22.3671  -15.2305 O   0  0  0  0  0  0  0  0  0  0  0  0
  2  4  1  0
  2  1  1  0
  3  2  2  0
  5  4  1  0
  6  5  1  0
  7  8  1  0
  7  6  1  0
  8  9  1  6
 10  8  1  0
 10 19  1  0
 11 10  2  0
 12 13  1  0
 13 14  2  0
 14 15  1  0
 16 15  2  0
 16 17  1  0
 18 17  1  6
 18 19  1  0
 20 18  1  0
 21 20  2  0
 22 16  1  0
 23 13  1  0
 23 22  2  0
 24 20  1  0
 25 26  1  6
 25 24  1  0
 26 27  1  0
 27 28  2  0
 29 28  1  0
 30 29  1  0
 31 30  2  0
 31 27  1  0
 32 25  1  0
 33 32  2  0
 34 32  1  0
M  END
$$$$
