RYH.pdb
     RDKit          3D

 34 35  0  0  1  0  0  0  0  0999 V2000
   24.1703  -34.4476  -10.0468 N   0  0  0  0  0  0  0  0  0  0  0  0
   24.4112  -34.2200  -11.4292 C   0  0  0  0  0  0  0  0  0  0  0  0
   25.3674  -34.8501  -12.0416 N   0  0  0  0  0  0  0  0  0  0  0  0
   23.5949  -33.2984  -12.1201 N   0  0  0  0  0  0  0  0  0  0  0  0
   22.5500  -32.5942  -11.3465 C   0  0  0  0  0  0  0  0  0  0  0  0
   23.2459  -31.9616  -10.1954 C   0  0  0  0  0  0  0  0  0  0  0  0
   22.8611  -30.5555   -9.9556 C   0  0  0  0  0  0  0  0  0  0  0  0
   21.6248  -30.3037   -9.1450 C   0  0  2  0  0  0  0  0  0  0  0  0
   21.0754  -31.4875   -8.5676 N   0  0  0  0  0  0  0  0  0  0  0  0
   20.6397  -29.6401  -10.0691 C   0  0  0  0  0  0  0  0  0  0  0  0
   19.7884  -30.3733  -10.6155 O   0  0  0  0  0  0  0  0  0  0  0  0
   25.6088  -34.6996  -13.0393 O   0  0  0  0  0  0  0  0  0  0  0  0
   18.2449  -25.0603   -5.3899 C   0  0  0  0  0  0  0  0  0  0  0  0
   18.2476  -25.7052   -6.6224 C   0  0  0  0  0  0  0  0  0  0  0  0
   18.2321  -27.0916   -6.6954 C   0  0  0  0  0  0  0  0  0  0  0  0
   18.2346  -27.7546   -7.9144 C   0  0  0  0  0  0  0  0  0  0  0  0
   18.2527  -27.0209   -9.0762 C   0  0  0  0  0  0  0  0  0  0  0  0
   18.2522  -27.7002  -10.3672 C   0  0  1  0  0  0  0  0  0  0  0  0
   19.5848  -27.5958  -11.0864 N   0  0  0  0  0  0  0  0  0  0  0  0
   20.6407  -28.2461  -10.3359 C   0  0  0  0  0  0  0  0  0  0  0  0
   19.9510  -26.1884  -11.3195 O   0  0  0  0  0  0  0  0  0  0  0  0
   21.0434  -25.6967  -10.9445 C   0  0  0  0  0  0  0  0  0  0  0  0
   18.2680  -25.6496   -8.9963 C   0  0  0  0  0  0  0  0  0  0  0  0
   18.2659  -24.9724   -7.7907 N   0  0  0  0  0  0  0  0  0  0  0  0
   19.0555  -25.3256  -11.9933 C   0  0  1  0  0  0  0  0  0  0  0  0
   19.5699  -24.2587  -12.8549 C   0  0  0  0  0  0  0  0  0  0  0  0
   20.4846  -24.7933  -13.8970 C   0  0  0  0  0  0  0  0  0  0  0  0
   20.9877  -23.7011  -14.7534 C   0  0  0  0  0  0  0  0  0  0  0  0
   20.6518  -22.3441  -14.6401 N   0  0  0  0  0  0  0  0  0  0  0  0
   21.2875  -21.6206  -15.5755 C   0  0  0  0  0  0  0  0  0  0  0  0
   22.0199  -22.4923  -16.2796 N   0  0  0  0  0  0  0  0  0  0  0  0
   21.8476  -23.7305  -15.7978 C   0  0  0  0  0  0  0  0  0  0  0  0
   18.4266  -23.5652  -13.4833 O   0  0  0  0  0  0  0  0  0  0  0  0
   17.4470  -24.2360  -13.9158 O   0  0  0  0  0  0  0  0  0  0  0  0
  2  4  1  0
  2  1  1  0
  3  2  2  0
  5  4  1  0
  6  5  1  0
  7  8  1  0
  7  6  1  0
  8  9  1  6
 10  8  1  0
 10 19  1  0
 11 10  2  0
 12 13  1  0
 13 14  2  0
 14 15  1  0
 16 15  2  0
 16 17  1  0
 18 17  1  6
 18 19  1  0
 20 18  1  0
 21 20  2  0
 22 16  1  0
 23 13  1  0
 23 22  2  0
 24 20  1  0
 25 26  1  6
 25 24  1  0
 26 27  1  0
 27 28  2  0
 29 28  1  0
 30 29  1  0
 31 30  2  0
 31 27  1  0
 32 25  1  0
 33 32  2  0
 34 32  1  0
M  END
$$$$
