RYH.pdb
     RDKit          3D

 34 35  0  0  1  0  0  0  0  0999 V2000
   27.4934   -9.5025  -24.6065 N   0  0  0  0  0  0  0  0  0  0  0  0
   27.8350  -10.8528  -24.3219 C   0  0  0  0  0  0  0  0  0  0  0  0
   28.2116  -11.6498  -25.2755 N   0  0  0  0  0  0  0  0  0  0  0  0
   27.7557  -11.3087  -22.9881 N   0  0  0  0  0  0  0  0  0  0  0  0
   27.4524  -10.3113  -21.9398 C   0  0  0  0  0  0  0  0  0  0  0  0
   27.4836  -11.0480  -20.6491 C   0  0  0  0  0  0  0  0  0  0  0  0
   27.0783  -10.2384  -19.4816 C   0  0  0  0  0  0  0  0  0  0  0  0
   27.4223   -8.7789  -19.4972 C   0  0  2  0  0  0  0  0  0  0  0  0
   28.8102   -8.5219  -19.2867 N   0  0  0  0  0  0  0  0  0  0  0  0
   26.5804   -8.1334  -18.4296 C   0  0  0  0  0  0  0  0  0  0  0  0
   27.0812   -8.0391  -17.2889 O   0  0  0  0  0  0  0  0  0  0  0  0
   28.4620  -12.6456  -25.1275 O   0  0  0  0  0  0  0  0  0  0  0  0
   20.4080   -3.2660  -14.4362 C   0  0  0  0  0  0  0  0  0  0  0  0
   21.2570   -3.8700  -15.3577 C   0  0  0  0  0  0  0  0  0  0  0  0
   20.7452   -4.6493  -16.3865 C   0  0  0  0  0  0  0  0  0  0  0  0
   21.5745   -5.2605  -17.3159 C   0  0  0  0  0  0  0  0  0  0  0  0
   22.9343   -5.0900  -17.2152 C   0  0  0  0  0  0  0  0  0  0  0  0
   23.8220   -5.7221  -18.1851 C   0  0  1  0  0  0  0  0  0  0  0  0
   24.4960   -6.9680  -17.6398 N   0  0  0  0  0  0  0  0  0  0  0  0
   25.2711   -7.6388  -18.6646 C   0  0  0  0  0  0  0  0  0  0  0  0
   23.5046   -7.9072  -17.0882 O   0  0  0  0  0  0  0  0  0  0  0  0
   22.7528   -8.6069  -17.8099 C   0  0  0  0  0  0  0  0  0  0  0  0
   23.4337   -4.3177  -16.1947 C   0  0  0  0  0  0  0  0  0  0  0  0
   22.6224   -3.7013  -15.2598 N   0  0  0  0  0  0  0  0  0  0  0  0
   23.3683   -8.0519  -15.6880 C   0  0  2  0  0  0  0  0  0  0  0  0
   22.3897   -8.9924  -15.1375 C   0  0  0  0  0  0  0  0  0  0  0  0
   23.0305   -9.9710  -14.2207 C   0  0  0  0  0  0  0  0  0  0  0  0
   23.8339  -10.9461  -14.9845 C   0  0  0  0  0  0  0  0  0  0  0  0
   23.9640  -10.9928  -16.3802 N   0  0  0  0  0  0  0  0  0  0  0  0
   24.7695  -12.0029  -16.7457 C   0  0  0  0  0  0  0  0  0  0  0  0
   25.1525  -12.5974  -15.6091 N   0  0  0  0  0  0  0  0  0  0  0  0
   24.6011  -11.9758  -14.5581 C   0  0  0  0  0  0  0  0  0  0  0  0
   21.3476   -8.2269  -14.4227 O   0  0  0  0  0  0  0  0  0  0  0  0
   20.3112   -8.8169  -14.0053 O   0  0  0  0  0  0  0  0  0  0  0  0
  2  4  1  0
  2  1  1  0
  3  2  2  0
  5  4  1  0
  6  5  1  0
  7  8  1  0
  7  6  1  0
  8  9  1  1
 10  8  1  0
 10 19  1  0
 11 10  2  0
 12 13  1  0
 13 14  2  0
 14 15  1  0
 16 15  2  0
 16 17  1  0
 18 17  1  1
 18 19  1  0
 20 18  1  0
 21 20  2  0
 22 16  1  0
 23 13  1  0
 23 22  2  0
 24 20  1  0
 25 26  1  6
 25 24  1  0
 26 27  1  0
 27 28  2  0
 29 28  1  0
 30 29  1  0
 31 30  2  0
 31 27  1  0
 32 25  1  0
 33 32  2  0
 34 32  1  0
M  END
$$$$
