GLL.pdb
     RDKit          3D

 21 20  0  0  1  0  0  0  0  0999 V2000
   13.0778  -17.9949    3.6260 N   0  0  0  0  0  0  0  0  0  0  0  0
   13.8432  -16.9733    4.2816 C   0  0  0  0  0  0  0  0  0  0  0  0
   15.2988  -17.2357    4.1938 C   0  0  0  0  0  0  0  0  0  0  0  0
   15.7910  -18.2088    3.5946 O   0  0  0  0  0  0  0  0  0  0  0  0
   18.8700  -14.5510    2.6847 C   0  0  0  0  0  0  0  0  0  0  0  0
   18.1130  -14.0383    3.9393 C   0  0  2  0  0  0  0  0  0  0  0  0
   18.8058  -12.7470    4.3061 C   0  0  0  0  0  0  0  0  0  0  0  0
   18.2576  -15.0751    4.9955 C   0  0  0  0  0  0  0  0  0  0  0  0
   17.5906  -16.3860    4.7588 C   0  0  2  0  0  0  0  0  0  0  0  0
   16.1754  -16.2996    4.8452 N   0  0  0  0  0  0  0  0  0  0  0  0
   18.1285  -17.3105    5.8369 C   0  0  0  0  0  0  0  0  0  0  0  0
   17.5547  -17.2971    6.9580 O   0  0  0  0  0  0  0  0  0  0  0  0
   19.9834  -22.3438    4.8934 C   0  0  0  0  0  0  0  0  0  0  0  0
   19.2786  -21.1540    5.5562 C   0  0  1  0  0  0  0  0  0  0  0  0
   18.2988  -21.6890    6.6103 C   0  0  0  0  0  0  0  0  0  0  0  0
   20.3048  -20.2633    6.1904 C   0  0  0  0  0  0  0  0  0  0  0  0
   19.6910  -19.0171    6.7079 C   0  0  2  0  0  0  0  0  0  0  0  0
   19.2202  -18.1553    5.6167 N   0  0  0  0  0  0  0  0  0  0  0  0
   20.6238  -18.2597    7.5560 C   0  0  0  0  0  0  0  0  0  0  0  0
   21.0736  -17.1152    7.3023 O   0  0  0  0  0  0  0  0  0  0  0  0
   21.0504  -18.8625    8.7514 O   0  0  0  0  0  0  0  0  0  0  0  0
  2  1  1  0
  3  2  1  0
  4  3  2  0
  6  5  1  6
  6  7  1  0
  6  8  1  0
  9  8  1  1
  9 10  1  0
  9 11  1  0
 10  3  1  0
 11 18  1  0
 12 11  2  0
 14 13  1  1
 14 15  1  0
 16 14  1  0
 17 19  1  0
 17 16  1  6
 18 17  1  0
 19 21  1  0
 20 19  2  0
M  END
$$$$
