GLL.pdb
     RDKit          3D

 21 20  0  0  1  0  0  0  0  0999 V2000
   10.9993  -17.4843    2.0237 N   0  0  0  0  0  0  0  0  0  0  0  0
   11.9169  -16.6593    2.7563 C   0  0  0  0  0  0  0  0  0  0  0  0
   13.3069  -17.1629    2.6588 C   0  0  0  0  0  0  0  0  0  0  0  0
   13.6156  -18.2399    2.1173 O   0  0  0  0  0  0  0  0  0  0  0  0
   18.8274  -14.6694    2.4392 C   0  0  0  0  0  0  0  0  0  0  0  0
   18.0881  -15.9611    2.8810 C   0  0  2  0  0  0  0  0  0  0  0  0
   18.3714  -16.9609    1.7846 C   0  0  0  0  0  0  0  0  0  0  0  0
   16.6421  -15.6289    2.9809 C   0  0  0  0  0  0  0  0  0  0  0  0
   15.7044  -16.7497    3.2709 C   0  0  2  0  0  0  0  0  0  0  0  0
   14.3435  -16.3448    3.2289 N   0  0  0  0  0  0  0  0  0  0  0  0
   16.0688  -17.2271    4.6657 C   0  0  0  0  0  0  0  0  0  0  0  0
   16.0126  -16.3886    5.6039 O   0  0  0  0  0  0  0  0  0  0  0  0
   13.4042  -20.7327    6.8074 C   0  0  0  0  0  0  0  0  0  0  0  0
   14.3554  -19.5314    6.7476 C   0  0  1  0  0  0  0  0  0  0  0  0
   14.0975  -18.6398    7.9707 C   0  0  0  0  0  0  0  0  0  0  0  0
   15.7719  -20.0233    6.7398 C   0  0  0  0  0  0  0  0  0  0  0  0
   16.7098  -18.9591    6.3095 C   0  0  2  0  0  0  0  0  0  0  0  0
   16.4558  -18.5453    4.9242 N   0  0  0  0  0  0  0  0  0  0  0  0
   18.1126  -19.3812    6.4400 C   0  0  0  0  0  0  0  0  0  0  0  0
   18.9429  -19.4498    5.5007 O   0  0  0  0  0  0  0  0  0  0  0  0
   18.5669  -19.7385    7.7208 O   0  0  0  0  0  0  0  0  0  0  0  0
  2  1  1  0
  3  2  1  0
  4  3  2  0
  6  5  1  6
  6  7  1  0
  6  8  1  0
  9  8  1  1
  9 10  1  0
  9 11  1  0
 10  3  1  0
 11 18  1  0
 12 11  2  0
 14 13  1  1
 14 15  1  0
 16 14  1  0
 17 19  1  0
 17 16  1  6
 18 17  1  0
 19 21  1  0
 20 19  2  0
M  END
$$$$
