GLL.pdb
     RDKit          3D

 21 20  0  0  1  0  0  0  0  0999 V2000
   28.7068  -21.9463  -16.5170 N   0  0  0  0  0  0  0  0  0  0  0  0
   28.1809  -20.8786  -15.7153 C   0  0  0  0  0  0  0  0  0  0  0  0
   27.1845  -21.3677  -14.7339 C   0  0  0  0  0  0  0  0  0  0  0  0
   26.5513  -22.4310  -14.8629 O   0  0  0  0  0  0  0  0  0  0  0  0
   25.6853  -19.5323   -8.9962 C   0  0  0  0  0  0  0  0  0  0  0  0
   25.3041  -20.4755  -10.1688 C   0  0  2  0  0  0  0  0  0  0  0  0
   25.4853  -21.8696   -9.6160 C   0  0  0  0  0  0  0  0  0  0  0  0
   26.2395  -20.1872  -11.2883 C   0  0  0  0  0  0  0  0  0  0  0  0
   25.9913  -20.8861  -12.5803 C   0  0  2  0  0  0  0  0  0  0  0  0
   26.9511  -20.5516  -13.5726 N   0  0  0  0  0  0  0  0  0  0  0  0
   24.6061  -20.4426  -13.0169 C   0  0  0  0  0  0  0  0  0  0  0  0
   24.4394  -19.2227  -13.2820 O   0  0  0  0  0  0  0  0  0  0  0  0
   22.0142  -22.5593  -16.9519 C   0  0  0  0  0  0  0  0  0  0  0  0
   22.4794  -21.5183  -15.9264 C   0  0  1  0  0  0  0  0  0  0  0  0
   22.2862  -20.1181  -16.5262 C   0  0  0  0  0  0  0  0  0  0  0  0
   21.6771  -21.6713  -14.6689 C   0  0  0  0  0  0  0  0  0  0  0  0
   22.2301  -20.8412  -13.5723 C   0  0  2  0  0  0  0  0  0  0  0  0
   23.5382  -21.3378  -13.1281 N   0  0  0  0  0  0  0  0  0  0  0  0
   21.3181  -20.7796  -12.4201 C   0  0  0  0  0  0  0  0  0  0  0  0
   21.3814  -21.5105  -11.4012 O   0  0  0  0  0  0  0  0  0  0  0  0
   20.2880  -19.8246  -12.4575 O   0  0  0  0  0  0  0  0  0  0  0  0
  2  1  1  0
  3  2  1  0
  4  3  2  0
  6  5  1  1
  6  7  1  0
  6  8  1  0
  9  8  1  1
  9 10  1  0
  9 11  1  0
 10  3  1  0
 11 18  1  0
 12 11  2  0
 14 13  1  6
 14 15  1  0
 16 14  1  0
 17 19  1  0
 17 16  1  6
 18 17  1  0
 19 21  1  0
 20 19  2  0
M  END
$$$$
