GLL.pdb
     RDKit          3D

 21 20  0  0  1  0  0  0  0  0999 V2000
   17.3253  -13.9343  -18.3863 N   0  0  0  0  0  0  0  0  0  0  0  0
   17.4116  -13.0110  -17.2911 C   0  0  0  0  0  0  0  0  0  0  0  0
   18.6216  -12.1609  -17.3832 C   0  0  0  0  0  0  0  0  0  0  0  0
   19.7325  -12.4878  -16.9278 O   0  0  0  0  0  0  0  0  0  0  0  0
   21.3502   -9.7586  -20.6904 C   0  0  0  0  0  0  0  0  0  0  0  0
   19.8091   -9.5840  -20.7599 C   0  0  2  0  0  0  0  0  0  0  0  0
   19.5870   -8.5520  -21.8405 C   0  0  0  0  0  0  0  0  0  0  0  0
   19.3589   -9.1080  -19.4250 C   0  0  0  0  0  0  0  0  0  0  0  0
   19.5815  -10.0181  -18.2667 C   0  0  2  0  0  0  0  0  0  0  0  0
   18.4824  -10.8890  -18.0404 N   0  0  0  0  0  0  0  0  0  0  0  0
   19.7838   -9.1040  -17.0711 C   0  0  0  0  0  0  0  0  0  0  0  0
   18.7566   -8.6327  -16.5151 O   0  0  0  0  0  0  0  0  0  0  0  0
   23.1747  -10.0474  -13.0451 C   0  0  0  0  0  0  0  0  0  0  0  0
   21.9261   -9.5278  -13.7681 C   0  0  1  0  0  0  0  0  0  0  0  0
   20.8428   -9.2273  -12.7223 C   0  0  0  0  0  0  0  0  0  0  0  0
   22.2797   -8.2891  -14.5356 C   0  0  0  0  0  0  0  0  0  0  0  0
   21.1755   -7.8789  -15.4355 C   0  0  2  0  0  0  0  0  0  0  0  0
   21.0549   -8.7824  -16.5863 N   0  0  0  0  0  0  0  0  0  0  0  0
   21.3468   -6.5000  -15.9175 C   0  0  0  0  0  0  0  0  0  0  0  0
   21.5985   -6.1685  -17.1021 O   0  0  0  0  0  0  0  0  0  0  0  0
   21.2189   -5.4630  -14.9780 O   0  0  0  0  0  0  0  0  0  0  0  0
  2  1  1  0
  3  2  1  0
  4  3  2  0
  6  5  1  1
  6  7  1  0
  6  8  1  0
  9  8  1  6
  9 10  1  0
  9 11  1  0
 10  3  1  0
 11 18  1  0
 12 11  2  0
 14 13  1  1
 14 15  1  0
 16 14  1  0
 17 19  1  0
 17 16  1  6
 18 17  1  0
 19 21  1  0
 20 19  2  0
M  END
$$$$
