GLL.pdb
     RDKit          3D

 21 20  0  0  1  0  0  0  0  0999 V2000
   27.9456  -22.1419  -16.1486 N   0  0  0  0  0  0  0  0  0  0  0  0
   27.0410  -21.0941  -15.7702 C   0  0  0  0  0  0  0  0  0  0  0  0
   25.8950  -21.6134  -14.9877 C   0  0  0  0  0  0  0  0  0  0  0  0
   25.4334  -22.7616  -15.1167 O   0  0  0  0  0  0  0  0  0  0  0  0
   25.7295  -22.3095  -10.7263 C   0  0  0  0  0  0  0  0  0  0  0  0
   25.6929  -20.7925  -11.0541 C   0  0  2  0  0  0  0  0  0  0  0  0
   25.7354  -20.1067   -9.7088 C   0  0  0  0  0  0  0  0  0  0  0  0
   24.4226  -20.5292  -11.7809 C   0  0  0  0  0  0  0  0  0  0  0  0
   24.2739  -21.1350  -13.1339 C   0  0  2  0  0  0  0  0  0  0  0  0
   25.2966  -20.7230  -14.0295 N   0  0  0  0  0  0  0  0  0  0  0  0
   22.9174  -20.6709  -13.6345 C   0  0  0  0  0  0  0  0  0  0  0  0
   22.7510  -19.4351  -13.8114 O   0  0  0  0  0  0  0  0  0  0  0  0
   20.8368  -22.5776  -17.7941 C   0  0  0  0  0  0  0  0  0  0  0  0
   21.1145  -21.5387  -16.7009 C   0  0  1  0  0  0  0  0  0  0  0  0
   20.9954  -20.1364  -17.3148 C   0  0  0  0  0  0  0  0  0  0  0  0
   20.1245  -21.7159  -15.5886 C   0  0  0  0  0  0  0  0  0  0  0  0
   20.5798  -21.0420  -14.3493 C   0  0  2  0  0  0  0  0  0  0  0  0
   21.8749  -21.5646  -13.8968 N   0  0  0  0  0  0  0  0  0  0  0  0
   19.5973  -21.1740  -13.2628 C   0  0  0  0  0  0  0  0  0  0  0  0
   19.7851  -21.7832  -12.1811 O   0  0  0  0  0  0  0  0  0  0  0  0
   18.3420  -20.5696  -13.4454 O   0  0  0  0  0  0  0  0  0  0  0  0
  2  1  1  0
  3  2  1  0
  4  3  2  0
  6  5  1  1
  6  7  1  0
  6  8  1  0
  9  8  1  1
  9 10  1  0
  9 11  1  0
 10  3  1  0
 11 18  1  0
 12 11  2  0
 14 13  1  6
 14 15  1  0
 16 14  1  0
 17 19  1  0
 17 16  1  6
 18 17  1  0
 19 21  1  0
 20 19  2  0
M  END
$$$$
