GLL.pdb
     RDKit          3D

 21 20  0  0  1  0  0  0  0  0999 V2000
   24.1629  -34.4825  -15.6864 N   0  0  0  0  0  0  0  0  0  0  0  0
   25.5182  -34.4647  -15.2151 C   0  0  0  0  0  0  0  0  0  0  0  0
   25.7095  -35.3700  -14.0579 C   0  0  0  0  0  0  0  0  0  0  0  0
   24.7919  -35.7170  -13.2924 O   0  0  0  0  0  0  0  0  0  0  0  0
   27.5581  -39.6069  -13.4352 C   0  0  0  0  0  0  0  0  0  0  0  0
   28.5525  -38.5273  -13.9408 C   0  0  2  0  0  0  0  0  0  0  0  0
   29.8685  -39.2543  -14.0872 C   0  0  0  0  0  0  0  0  0  0  0  0
   28.6097  -37.4613  -12.9055 C   0  0  0  0  0  0  0  0  0  0  0  0
   27.3766  -36.6532  -12.6913 C   0  0  2  0  0  0  0  0  0  0  0  0
   27.0397  -35.8646  -13.8237 N   0  0  0  0  0  0  0  0  0  0  0  0
   27.6831  -35.7612  -11.5010 C   0  0  0  0  0  0  0  0  0  0  0  0
   28.5675  -34.8763  -11.6460 O   0  0  0  0  0  0  0  0  0  0  0  0
   27.5173  -32.0107   -8.2031 C   0  0  0  0  0  0  0  0  0  0  0  0
   26.2477  -32.8707   -8.1857 C   0  0  1  0  0  0  0  0  0  0  0  0
   25.0254  -31.9416   -8.1928 C   0  0  0  0  0  0  0  0  0  0  0  0
   26.2407  -33.7647   -9.3895 C   0  0  0  0  0  0  0  0  0  0  0  0
   27.2105  -34.8760   -9.2414 C   0  0  2  0  0  0  0  0  0  0  0  0
   27.0205  -35.8982  -10.2777 N   0  0  0  0  0  0  0  0  0  0  0  0
   27.1207  -35.5069   -7.9159 C   0  0  0  0  0  0  0  0  0  0  0  0
   27.8468  -35.2337   -6.9286 O   0  0  0  0  0  0  0  0  0  0  0  0
   26.1423  -36.4988   -7.7336 O   0  0  0  0  0  0  0  0  0  0  0  0
  2  1  1  0
  3  2  1  0
  4  3  2  0
  6  5  1  1
  6  7  1  0
  6  8  1  0
  9  8  1  6
  9 10  1  0
  9 11  1  0
 10  3  1  0
 11 18  1  0
 12 11  2  0
 14 13  1  6
 14 15  1  0
 16 14  1  0
 17 19  1  0
 17 16  1  1
 18 17  1  0
 19 21  1  0
 20 19  2  0
M  END
$$$$
