GLL.pdb
     RDKit          3D

 21 20  0  0  1  0  0  0  0  0999 V2000
   18.2401  -11.9681    4.7851 N   0  0  0  0  0  0  0  0  0  0  0  0
   18.8458  -13.0630    4.0824 C   0  0  0  0  0  0  0  0  0  0  0  0
   18.3930  -14.3718    4.6090 C   0  0  0  0  0  0  0  0  0  0  0  0
   17.6335  -14.4984    5.5865 O   0  0  0  0  0  0  0  0  0  0  0  0
   16.1787  -18.2010    3.0190 C   0  0  0  0  0  0  0  0  0  0  0  0
   17.4892  -17.7785    2.3019 C   0  0  2  0  0  0  0  0  0  0  0  0
   17.6530  -18.7765    1.1798 C   0  0  0  0  0  0  0  0  0  0  0  0
   18.5869  -17.8686    3.3010 C   0  0  0  0  0  0  0  0  0  0  0  0
   18.5908  -16.8640    4.4011 C   0  0  2  0  0  0  0  0  0  0  0  0
   18.8703  -15.5507    3.9374 N   0  0  0  0  0  0  0  0  0  0  0  0
   19.6731  -17.3246    5.3615 C   0  0  0  0  0  0  0  0  0  0  0  0
   20.8484  -17.4151    4.9179 O   0  0  0  0  0  0  0  0  0  0  0  0
   20.8712  -15.2008    9.9363 C   0  0  0  0  0  0  0  0  0  0  0  0
   21.0515  -15.9941    8.6364 C   0  0  1  0  0  0  0  0  0  0  0  0
   22.5433  -16.0082    8.2730 C   0  0  0  0  0  0  0  0  0  0  0  0
   20.5415  -17.3901    8.8353 C   0  0  0  0  0  0  0  0  0  0  0  0
   20.4857  -18.1315    7.5528 C   0  0  2  0  0  0  0  0  0  0  0  0
   19.3993  -17.6426    6.6950 N   0  0  0  0  0  0  0  0  0  0  0  0
   20.3232  -19.5778    7.7642 C   0  0  0  0  0  0  0  0  0  0  0  0
   19.3298  -20.2587    7.4092 O   0  0  0  0  0  0  0  0  0  0  0  0
   21.3638  -20.2597    8.4174 O   0  0  0  0  0  0  0  0  0  0  0  0
  2  1  1  0
  3  2  1  0
  4  3  2  0
  6  5  1  1
  6  7  1  0
  6  8  1  0
  9  8  1  6
  9 10  1  0
  9 11  1  0
 10  3  1  0
 11 18  1  0
 12 11  2  0
 14 13  1  1
 14 15  1  0
 16 14  1  0
 17 19  1  0
 17 16  1  1
 18 17  1  0
 19 21  1  0
 20 19  2  0
M  END
$$$$
