GLL.pdb
     RDKit          3D

 21 20  0  0  1  0  0  0  0  0999 V2000
   20.3476  -20.1446  -10.9482 N   0  0  0  0  0  0  0  0  0  0  0  0
   21.5127  -19.3846  -10.5957 C   0  0  0  0  0  0  0  0  0  0  0  0
   22.6651  -20.2604  -10.2792 C   0  0  0  0  0  0  0  0  0  0  0  0
   22.5958  -21.2495   -9.5274 O   0  0  0  0  0  0  0  0  0  0  0  0
   24.9942  -23.0299  -12.6850 C   0  0  0  0  0  0  0  0  0  0  0  0
   25.2300  -21.5618  -13.1314 C   0  0  2  0  0  0  0  0  0  0  0  0
   26.1442  -21.6657  -14.3295 C   0  0  0  0  0  0  0  0  0  0  0  0
   25.8718  -20.8526  -11.9927 C   0  0  0  0  0  0  0  0  0  0  0  0
   25.0860  -20.7372  -10.7323 C   0  0  2  0  0  0  0  0  0  0  0  0
   23.9268  -19.9307  -10.8861 N   0  0  0  0  0  0  0  0  0  0  0  0
   26.0335  -20.1104   -9.7246 C   0  0  0  0  0  0  0  0  0  0  0  0
   26.1228  -18.8542   -9.7090 O   0  0  0  0  0  0  0  0  0  0  0  0
   27.7639  -20.4826   -4.5228 C   0  0  0  0  0  0  0  0  0  0  0  0
   27.4986  -19.9672   -5.9425 C   0  0  1  0  0  0  0  0  0  0  0  0
   27.9016  -18.4871   -6.0106 C   0  0  0  0  0  0  0  0  0  0  0  0
   28.2958  -20.7788   -6.9194 C   0  0  0  0  0  0  0  0  0  0  0  0
   28.0508  -20.3378   -8.3133 C   0  0  2  0  0  0  0  0  0  0  0  0
   26.7903  -20.8793   -8.8356 N   0  0  0  0  0  0  0  0  0  0  0  0
   29.1518  -20.7216   -9.2096 C   0  0  0  0  0  0  0  0  0  0  0  0
   29.0755  -21.5636  -10.1379 O   0  0  0  0  0  0  0  0  0  0  0  0
   30.3953  -20.0968   -9.0153 O   0  0  0  0  0  0  0  0  0  0  0  0
  2  1  1  0
  3  2  1  0
  4  3  2  0
  6  5  1  1
  6  7  1  0
  6  8  1  0
  9  8  1  6
  9 10  1  0
  9 11  1  0
 10  3  1  0
 11 18  1  0
 12 11  2  0
 14 13  1  1
 14 15  1  0
 16 14  1  0
 17 19  1  0
 17 16  1  1
 18 17  1  0
 19 21  1  0
 20 19  2  0
M  END
$$$$
