GLL.pdb
     RDKit          3D

 21 20  0  0  1  0  0  0  0  0999 V2000
   11.6534  -15.1365    3.1983 N   0  0  0  0  0  0  0  0  0  0  0  0
   12.7452  -14.3838    3.7467 C   0  0  0  0  0  0  0  0  0  0  0  0
   14.0027  -15.1672    3.7565 C   0  0  0  0  0  0  0  0  0  0  0  0
   14.0946  -16.3325    3.3302 O   0  0  0  0  0  0  0  0  0  0  0  0
   18.7257  -14.2412    2.5663 C   0  0  0  0  0  0  0  0  0  0  0  0
   17.9615  -13.3649    3.5950 C   0  0  2  0  0  0  0  0  0  0  0  0
   18.9667  -12.3286    4.0399 C   0  0  0  0  0  0  0  0  0  0  0  0
   17.5417  -14.2570    4.7082 C   0  0  0  0  0  0  0  0  0  0  0  0
   16.4160  -15.1956    4.4412 C   0  0  2  0  0  0  0  0  0  0  0  0
   15.1724  -14.5251    4.2938 N   0  0  0  0  0  0  0  0  0  0  0  0
   16.3743  -16.1243    5.6420 C   0  0  0  0  0  0  0  0  0  0  0  0
   15.4492  -15.9554    6.4798 O   0  0  0  0  0  0  0  0  0  0  0  0
   14.9523  -19.5104    8.6539 C   0  0  0  0  0  0  0  0  0  0  0  0
   15.5113  -20.0813    7.3450 C   0  0  1  0  0  0  0  0  0  0  0  0
   14.4773  -21.0480    6.7500 C   0  0  0  0  0  0  0  0  0  0  0  0
   15.7919  -18.9553    6.3954 C   0  0  0  0  0  0  0  0  0  0  0  0
   17.0233  -18.2232    6.7761 C   0  0  2  0  0  0  0  0  0  0  0  0
   17.3180  -17.1379    5.8325 N   0  0  0  0  0  0  0  0  0  0  0  0
   18.1867  -19.1187    6.8637 C   0  0  0  0  0  0  0  0  0  0  0  0
   19.0948  -19.2194    6.0025 O   0  0  0  0  0  0  0  0  0  0  0  0
   18.2960  -19.9317    8.0045 O   0  0  0  0  0  0  0  0  0  0  0  0
  2  1  1  0
  3  2  1  0
  4  3  2  0
  6  5  1  6
  6  7  1  0
  6  8  1  0
  9  8  1  1
  9 10  1  0
  9 11  1  0
 10  3  1  0
 11 18  1  0
 12 11  2  0
 14 13  1  1
 14 15  1  0
 16 14  1  0
 17 19  1  0
 17 16  1  6
 18 17  1  0
 19 21  1  0
 20 19  2  0
M  END
$$$$
