THF.pdb
     RDKit          3D

 29 30  0  0  1  0  0  0  0  0999 V2000
   11.0512  -16.2734   13.8051 C   0  0  0  0  0  0  0  0  0  0  0  0
   10.7418  -16.4713   15.2586 C   0  0  1  0  0  0  0  0  0  0  0  0
   10.9143  -15.2661   15.9367 O   0  0  0  0  0  0  0  0  0  0  0  0
    9.3630  -16.9893   15.5167 C   0  0  2  0  0  0  0  0  0  0  0  0
    8.3712  -16.1448   14.9076 N   0  0  0  0  0  0  0  0  0  0  0  0
    9.1290  -17.0974   17.0020 C   0  0  0  0  0  0  0  0  0  0  0  0
    8.2234  -16.4255   17.5584 O   0  0  0  0  0  0  0  0  0  0  0  0
    9.9091  -17.9486   17.8201 N   0  0  0  0  0  0  0  0  0  0  0  0
    9.5334  -18.1731   19.2003 C   0  0  1  0  0  0  0  0  0  0  0  0
    9.9177  -19.5794   19.5972 C   0  0  0  0  0  0  0  0  0  0  0  0
    9.0786  -20.6264   19.0123 C   0  0  0  0  0  0  0  0  0  0  0  0
    7.7172  -20.7797   19.1464 C   0  0  0  0  0  0  0  0  0  0  0  0
    7.3551  -21.8651   18.4499 N   0  0  0  0  0  0  0  0  0  0  0  0
    8.4455  -22.3852   17.8920 C   0  0  0  0  0  0  0  0  0  0  0  0
    9.5113  -21.6286   18.2332 N   0  0  0  0  0  0  0  0  0  0  0  0
   10.1464  -17.2168   20.1199 C   0  0  0  0  0  0  0  0  0  0  0  0
   11.2915  -16.7635   19.8786 O   0  0  0  0  0  0  0  0  0  0  0  0
    9.5283  -16.7406   21.3094 N   0  0  0  0  0  0  0  0  0  0  0  0
   10.0823  -15.6782   22.1264 C   0  0  1  0  0  0  0  0  0  0  0  0
    9.0114  -14.7083   22.5616 C   0  0  0  0  0  0  0  0  0  0  0  0
    8.1923  -14.1890   21.4409 C   0  0  0  0  0  0  0  0  0  0  0  0
    8.6773  -13.1775   20.6144 C   0  0  0  0  0  0  0  0  0  0  0  0
    7.9421  -12.6797   19.5594 C   0  0  0  0  0  0  0  0  0  0  0  0
    6.6835  -13.1647   19.2729 C   0  0  0  0  0  0  0  0  0  0  0  0
    6.1936  -14.1658   20.0842 C   0  0  0  0  0  0  0  0  0  0  0  0
    6.9297  -14.6640   21.1401 C   0  0  0  0  0  0  0  0  0  0  0  0
   10.8629  -16.2391   23.2482 C   0  0  0  0  0  0  0  0  0  0  0  0
   11.7529  -15.5024   24.0102 O   0  0  0  0  0  0  0  0  0  0  0  0
   10.7153  -17.4541   23.5313 O   0  0  0  0  0  0  0  0  0  0  0  0
  2  1  1  6
  3  2  1  0
  4  2  1  0
  4  5  1  1
  6  7  2  0
  6  4  1  0
  8  6  1  0
  9  8  1  0
  9 10  1  1
 11 15  1  0
 11 10  1  0
 12 11  2  0
 13 12  1  0
 13 14  1  0
 14 15  2  0
 16 18  1  0
 16  9  1  0
 17 16  2  0
 19 20  1  1
 19 18  1  0
 21 26  1  0
 21 20  1  0
 22 21  2  0
 23 24  2  0
 23 22  1  0
 24 25  1  0
 25 26  2  0
 27 19  1  0
 28 27  1  0
 29 27  2  0
M  END
$$$$
