THF.pdb
     RDKit          3D

 29 30  0  0  1  0  0  0  0  0999 V2000
    6.6580  -14.2782   21.6669 C   0  0  0  0  0  0  0  0  0  0  0  0
    6.4194  -15.6642   21.1476 C   0  0  1  0  0  0  0  0  0  0  0  0
    5.3179  -15.6554   20.2942 O   0  0  0  0  0  0  0  0  0  0  0  0
    7.5937  -16.2503   20.4310 C   0  0  2  0  0  0  0  0  0  0  0  0
    7.2293  -17.4608   19.7456 N   0  0  0  0  0  0  0  0  0  0  0  0
    8.7106  -16.5096   21.4097 C   0  0  0  0  0  0  0  0  0  0  0  0
    8.7287  -17.5626   22.0968 O   0  0  0  0  0  0  0  0  0  0  0  0
    9.7704  -15.5901   21.5928 N   0  0  0  0  0  0  0  0  0  0  0  0
   10.7929  -15.8491   22.5848 C   0  0  1  0  0  0  0  0  0  0  0  0
   12.0389  -15.0723   22.2283 C   0  0  0  0  0  0  0  0  0  0  0  0
   12.6567  -15.4635   20.9604 C   0  0  0  0  0  0  0  0  0  0  0  0
   12.4891  -16.6475   20.2784 C   0  0  0  0  0  0  0  0  0  0  0  0
   13.2353  -16.5912   19.1675 N   0  0  0  0  0  0  0  0  0  0  0  0
   13.8563  -15.4146   19.1416 C   0  0  0  0  0  0  0  0  0  0  0  0
   13.5056  -14.7139   20.2421 N   0  0  0  0  0  0  0  0  0  0  0  0
   10.3700  -15.5065   23.9411 C   0  0  0  0  0  0  0  0  0  0  0  0
    9.7329  -14.4452   24.1480 O   0  0  0  0  0  0  0  0  0  0  0  0
   10.6311  -16.3072   25.0877 N   0  0  0  0  0  0  0  0  0  0  0  0
    9.9903  -16.0959   26.3714 C   0  0  1  0  0  0  0  0  0  0  0  0
    8.4871  -16.1165   26.2418 C   0  0  0  0  0  0  0  0  0  0  0  0
    7.8768  -14.7661   26.2139 C   0  0  0  0  0  0  0  0  0  0  0  0
    8.4487  -13.7122   26.9236 C   0  0  0  0  0  0  0  0  0  0  0  0
    7.9085  -12.4436   26.9105 C   0  0  0  0  0  0  0  0  0  0  0  0
    6.7689  -12.1589   26.1885 C   0  0  0  0  0  0  0  0  0  0  0  0
    6.1945  -13.1943   25.4824 C   0  0  0  0  0  0  0  0  0  0  0  0
    6.7353  -14.4641   25.4955 C   0  0  0  0  0  0  0  0  0  0  0  0
   10.5101  -17.0478   27.3742 C   0  0  0  0  0  0  0  0  0  0  0  0
   11.4262  -18.0446   27.0864 O   0  0  0  0  0  0  0  0  0  0  0  0
   10.1004  -16.9528   28.5580 O   0  0  0  0  0  0  0  0  0  0  0  0
  2  1  1  6
  3  2  1  0
  4  2  1  0
  4  5  1  1
  6  7  2  0
  6  4  1  0
  8  6  1  0
  9  8  1  0
  9 10  1  6
 11 15  1  0
 11 10  1  0
 12 11  2  0
 13 12  1  0
 13 14  1  0
 14 15  2  0
 16 18  1  0
 16  9  1  0
 17 16  2  0
 19 20  1  6
 19 18  1  0
 21 26  1  0
 21 20  1  0
 22 21  2  0
 23 24  2  0
 23 22  1  0
 24 25  1  0
 25 26  2  0
 27 19  1  0
 28 27  1  0
 29 27  2  0
M  END
$$$$
