THF.pdb
     RDKit          3D

 29 30  0  0  1  0  0  0  0  0999 V2000
    8.4138  -11.8965   18.9414 C   0  0  0  0  0  0  0  0  0  0  0  0
    8.3604  -13.1190   19.8075 C   0  0  1  0  0  0  0  0  0  0  0  0
    7.0592  -13.3005   20.2722 O   0  0  0  0  0  0  0  0  0  0  0  0
    8.8168  -14.3659   19.1198 C   0  0  2  0  0  0  0  0  0  0  0  0
    7.9972  -14.6536   17.9737 N   0  0  0  0  0  0  0  0  0  0  0  0
    8.7969  -15.5195   20.0901 C   0  0  0  0  0  0  0  0  0  0  0  0
    7.7950  -16.2756   20.1659 O   0  0  0  0  0  0  0  0  0  0  0  0
    9.8910  -15.7947   20.9442 N   0  0  0  0  0  0  0  0  0  0  0  0
    9.8331  -16.9148   21.8600 C   0  0  1  0  0  0  0  0  0  0  0  0
   11.0896  -17.7411   21.7140 C   0  0  0  0  0  0  0  0  0  0  0  0
   11.1266  -18.9430   22.5486 C   0  0  0  0  0  0  0  0  0  0  0  0
   12.0546  -19.2631   23.5136 C   0  0  0  0  0  0  0  0  0  0  0  0
   11.7148  -20.4500   24.0333 N   0  0  0  0  0  0  0  0  0  0  0  0
   10.6104  -20.8717   23.4223 C   0  0  0  0  0  0  0  0  0  0  0  0
   10.2414  -19.9496   22.5065 N   0  0  0  0  0  0  0  0  0  0  0  0
    9.6731  -16.5034   23.2532 C   0  0  0  0  0  0  0  0  0  0  0  0
   10.3243  -15.5258   23.6950 O   0  0  0  0  0  0  0  0  0  0  0  0
    8.8078  -17.1440   24.1831 N   0  0  0  0  0  0  0  0  0  0  0  0
    8.6467  -16.7057   25.5560 C   0  0  1  0  0  0  0  0  0  0  0  0
    7.2743  -16.1219   25.7858 C   0  0  0  0  0  0  0  0  0  0  0  0
    7.2636  -14.6410   25.8463 C   0  0  0  0  0  0  0  0  0  0  0  0
    7.1662  -13.8822   24.6817 C   0  0  0  0  0  0  0  0  0  0  0  0
    7.1458  -12.5037   24.7068 C   0  0  0  0  0  0  0  0  0  0  0  0
    7.2215  -11.8088   25.8953 C   0  0  0  0  0  0  0  0  0  0  0  0
    7.3180  -12.5495   27.0540 C   0  0  0  0  0  0  0  0  0  0  0  0
    7.3384  -13.9293   27.0287 C   0  0  0  0  0  0  0  0  0  0  0  0
    8.9898  -17.7951   26.4927 C   0  0  0  0  0  0  0  0  0  0  0  0
    9.2287  -17.6026   27.8423 O   0  0  0  0  0  0  0  0  0  0  0  0
    9.0718  -18.9659   26.0445 O   0  0  0  0  0  0  0  0  0  0  0  0
  2  1  1  6
  3  2  1  0
  4  2  1  0
  4  5  1  6
  6  7  2  0
  6  4  1  0
  8  6  1  0
  9  8  1  0
  9 10  1  1
 11 15  1  0
 11 10  1  0
 12 11  2  0
 13 12  1  0
 13 14  1  0
 14 15  2  0
 16 18  1  0
 16  9  1  0
 17 16  2  0
 19 20  1  6
 19 18  1  0
 21 26  1  0
 21 20  1  0
 22 21  2  0
 23 24  2  0
 23 22  1  0
 24 25  1  0
 25 26  2  0
 27 19  1  0
 28 27  1  0
 29 27  2  0
M  END
$$$$
