THF.pdb
     RDKit          3D

 29 30  0  0  1  0  0  0  0  0999 V2000
    3.6663  -18.7921   21.9440 C   0  0  0  0  0  0  0  0  0  0  0  0
    4.9525  -18.0405   22.1126 C   0  0  1  0  0  0  0  0  0  0  0  0
    5.7361  -18.6742   23.0751 O   0  0  0  0  0  0  0  0  0  0  0  0
    5.7400  -17.9015   20.8491 C   0  0  2  0  0  0  0  0  0  0  0  0
    6.0307  -19.1884   20.2771 N   0  0  0  0  0  0  0  0  0  0  0  0
    7.0130  -17.1420   21.1230 C   0  0  0  0  0  0  0  0  0  0  0  0
    8.1047  -17.7504   21.2619 O   0  0  0  0  0  0  0  0  0  0  0  0
    7.0310  -15.7314   21.2335 N   0  0  0  0  0  0  0  0  0  0  0  0
    8.2702  -15.0420   21.5268 C   0  0  1  0  0  0  0  0  0  0  0  0
    8.3039  -13.7364   20.7671 C   0  0  0  0  0  0  0  0  0  0  0  0
    8.4308  -13.8809   19.3161 C   0  0  0  0  0  0  0  0  0  0  0  0
    8.6212  -15.0440   18.6048 C   0  0  0  0  0  0  0  0  0  0  0  0
    8.6823  -14.7257   17.3051 N   0  0  0  0  0  0  0  0  0  0  0  0
    8.5364  -13.4080   17.1913 C   0  0  0  0  0  0  0  0  0  0  0  0
    8.3809  -12.8799   18.4250 N   0  0  0  0  0  0  0  0  0  0  0  0
    8.4556  -14.7866   22.9537 C   0  0  0  0  0  0  0  0  0  0  0  0
    8.1852  -13.6561   23.4268 O   0  0  0  0  0  0  0  0  0  0  0  0
    8.9351  -15.7502   23.8840 N   0  0  0  0  0  0  0  0  0  0  0  0
    8.7560  -15.6328   25.3183 C   0  0  1  0  0  0  0  0  0  0  0  0
    7.3285  -15.2870   25.6644 C   0  0  0  0  0  0  0  0  0  0  0  0
    7.1517  -13.8866   26.1164 C   0  0  0  0  0  0  0  0  0  0  0  0
    8.2423  -13.0235   26.2014 C   0  0  0  0  0  0  0  0  0  0  0  0
    8.1079  -11.7136   26.6108 C   0  0  0  0  0  0  0  0  0  0  0  0
    6.8781  -11.1951   26.9572 C   0  0  0  0  0  0  0  0  0  0  0  0
    5.7920  -12.0402   26.8768 C   0  0  0  0  0  0  0  0  0  0  0  0
    5.9266  -13.3513   26.4670 C   0  0  0  0  0  0  0  0  0  0  0  0
    9.2539  -16.8425   26.0046 C   0  0  0  0  0  0  0  0  0  0  0  0
    9.6449  -17.9949   25.3455 O   0  0  0  0  0  0  0  0  0  0  0  0
    9.3284  -16.8310   27.2586 O   0  0  0  0  0  0  0  0  0  0  0  0
  2  1  1  6
  3  2  1  0
  4  2  1  0
  4  5  1  1
  6  7  2  0
  6  4  1  0
  8  6  1  0
  9  8  1  0
  9 10  1  6
 11 15  1  0
 11 10  1  0
 12 11  2  0
 13 12  1  0
 13 14  1  0
 14 15  2  0
 16 18  1  0
 16  9  1  0
 17 16  2  0
 19 20  1  6
 19 18  1  0
 21 26  1  0
 21 20  1  0
 22 21  2  0
 23 24  2  0
 23 22  1  0
 24 25  1  0
 25 26  2  0
 27 19  1  0
 28 27  1  0
 29 27  2  0
M  END
$$$$
