THF.pdb
     RDKit          3D

 29 30  0  0  1  0  0  0  0  0999 V2000
    8.5357  -12.0727   19.1719 C   0  0  0  0  0  0  0  0  0  0  0  0
    8.8487  -13.2567   20.0366 C   0  0  1  0  0  0  0  0  0  0  0  0
    8.1141  -13.1742   21.2179 O   0  0  0  0  0  0  0  0  0  0  0  0
    8.5787  -14.5723   19.3790 C   0  0  2  0  0  0  0  0  0  0  0  0
    7.2521  -14.6107   18.8254 N   0  0  0  0  0  0  0  0  0  0  0  0
    8.7718  -15.6884   20.3737 C   0  0  0  0  0  0  0  0  0  0  0  0
    7.7876  -16.3471   20.7965 O   0  0  0  0  0  0  0  0  0  0  0  0
   10.0522  -16.0358   20.8658 N   0  0  0  0  0  0  0  0  0  0  0  0
   10.1907  -17.0911   21.8476 C   0  0  1  0  0  0  0  0  0  0  0  0
   11.3753  -17.9556   21.4838 C   0  0  0  0  0  0  0  0  0  0  0  0
   11.0901  -18.9881   20.4863 C   0  0  0  0  0  0  0  0  0  0  0  0
   10.2138  -18.9092   19.4276 C   0  0  0  0  0  0  0  0  0  0  0  0
   10.2603  -20.0739   18.7677 N   0  0  0  0  0  0  0  0  0  0  0  0
   11.1342  -20.8669   19.3827 C   0  0  0  0  0  0  0  0  0  0  0  0
   11.6499  -20.2060   20.4422 N   0  0  0  0  0  0  0  0  0  0  0  0
   10.3503  -16.5845   23.2092 C   0  0  0  0  0  0  0  0  0  0  0  0
   10.4902  -17.3882   24.1628 O   0  0  0  0  0  0  0  0  0  0  0  0
   10.3603  -15.2043   23.5541 N   0  0  0  0  0  0  0  0  0  0  0  0
    9.6375  -14.6596   24.6871 C   0  0  1  0  0  0  0  0  0  0  0  0
    8.3552  -13.9954   24.2493 C   0  0  0  0  0  0  0  0  0  0  0  0
    7.5617  -13.4424   25.3723 C   0  0  0  0  0  0  0  0  0  0  0  0
    7.9075  -12.2255   25.9563 C   0  0  0  0  0  0  0  0  0  0  0  0
    7.1841  -11.6820   26.9968 C   0  0  0  0  0  0  0  0  0  0  0  0
    6.0769  -12.3238   27.5101 C   0  0  0  0  0  0  0  0  0  0  0  0
    5.7255  -13.5287   26.9397 C   0  0  0  0  0  0  0  0  0  0  0  0
    6.4496  -14.0725   25.8982 C   0  0  0  0  0  0  0  0  0  0  0  0
    9.4432  -15.6930   25.7247 C   0  0  0  0  0  0  0  0  0  0  0  0
    8.7243  -16.8585   25.5245 O   0  0  0  0  0  0  0  0  0  0  0  0
    9.9570  -15.5086   26.8562 O   0  0  0  0  0  0  0  0  0  0  0  0
  2  1  1  6
  3  2  1  0
  4  2  1  0
  4  5  1  1
  6  7  2  0
  6  4  1  0
  8  6  1  0
  9  8  1  0
  9 10  1  6
 11 15  1  0
 11 10  1  0
 12 11  2  0
 13 12  1  0
 13 14  1  0
 14 15  2  0
 16 18  1  0
 16  9  1  0
 17 16  2  0
 19 20  1  6
 19 18  1  0
 21 26  1  0
 21 20  1  0
 22 21  2  0
 23 24  2  0
 23 22  1  0
 24 25  1  0
 25 26  2  0
 27 19  1  0
 28 27  1  0
 29 27  2  0
M  END
$$$$
