THF.pdb
     RDKit          3D

 29 30  0  0  1  0  0  0  0  0999 V2000
    8.0112  -11.7984   19.1838 C   0  0  0  0  0  0  0  0  0  0  0  0
    8.0357  -13.1219   19.8874 C   0  0  1  0  0  0  0  0  0  0  0  0
    6.7349  -13.6080   20.0043 O   0  0  0  0  0  0  0  0  0  0  0  0
    8.8869  -14.1488   19.2115 C   0  0  2  0  0  0  0  0  0  0  0  0
    8.4186  -14.4115   17.8775 N   0  0  0  0  0  0  0  0  0  0  0  0
    8.9024  -15.4158   20.0282 C   0  0  0  0  0  0  0  0  0  0  0  0
    8.6026  -16.5191   19.5047 O   0  0  0  0  0  0  0  0  0  0  0  0
    9.2503  -15.4149   21.3998 N   0  0  0  0  0  0  0  0  0  0  0  0
    9.3201  -16.6623   22.1317 C   0  0  1  0  0  0  0  0  0  0  0  0
   10.4345  -17.5098   21.5637 C   0  0  0  0  0  0  0  0  0  0  0  0
   10.5759  -18.8258   22.1887 C   0  0  0  0  0  0  0  0  0  0  0  0
    9.8216  -19.3504   23.2139 C   0  0  0  0  0  0  0  0  0  0  0  0
   10.2858  -20.5785   23.4791 N   0  0  0  0  0  0  0  0  0  0  0  0
   11.2990  -20.8285   22.6535 C   0  0  0  0  0  0  0  0  0  0  0  0
   11.4843  -19.7543   21.8554 N   0  0  0  0  0  0  0  0  0  0  0  0
    9.5290  -16.4702   23.5654 C   0  0  0  0  0  0  0  0  0  0  0  0
   10.5370  -15.8426   23.9716 O   0  0  0  0  0  0  0  0  0  0  0  0
    8.6510  -16.9542   24.5746 N   0  0  0  0  0  0  0  0  0  0  0  0
    8.7825  -16.6127   25.9778 C   0  0  1  0  0  0  0  0  0  0  0  0
    7.5053  -16.0173   26.5175 C   0  0  0  0  0  0  0  0  0  0  0  0
    7.3964  -14.5551   26.3014 C   0  0  0  0  0  0  0  0  0  0  0  0
    6.4082  -14.0304   25.4709 C   0  0  0  0  0  0  0  0  0  0  0  0
    6.2770  -12.6746   25.2568 C   0  0  0  0  0  0  0  0  0  0  0  0
    7.1249  -11.7699   25.8601 C   0  0  0  0  0  0  0  0  0  0  0  0
    8.1064  -12.2779   26.6841 C   0  0  0  0  0  0  0  0  0  0  0  0
    8.2376  -13.6351   26.8983 C   0  0  0  0  0  0  0  0  0  0  0  0
    9.2663  -17.7741   26.7519 C   0  0  0  0  0  0  0  0  0  0  0  0
    9.4453  -19.0366   26.2137 O   0  0  0  0  0  0  0  0  0  0  0  0
    9.5316  -17.6133   27.9692 O   0  0  0  0  0  0  0  0  0  0  0  0
  2  1  1  6
  3  2  1  0
  4  2  1  0
  4  5  1  6
  6  7  2  0
  6  4  1  0
  8  6  1  0
  9  8  1  0
  9 10  1  6
 11 15  1  0
 11 10  1  0
 12 11  2  0
 13 12  1  0
 13 14  1  0
 14 15  2  0
 16 18  1  0
 16  9  1  0
 17 16  2  0
 19 20  1  1
 19 18  1  0
 21 26  1  0
 21 20  1  0
 22 21  2  0
 23 24  2  0
 23 22  1  0
 24 25  1  0
 25 26  2  0
 27 19  1  0
 28 27  1  0
 29 27  2  0
M  END
$$$$
