THF.pdb
     RDKit          3D

 29 30  0  0  1  0  0  0  0  0999 V2000
   14.4603  -17.0224   19.7277 C   0  0  0  0  0  0  0  0  0  0  0  0
   13.4214  -16.4306   20.6320 C   0  0  1  0  0  0  0  0  0  0  0  0
   14.0302  -15.9726   21.7989 O   0  0  0  0  0  0  0  0  0  0  0  0
   12.6453  -15.3140   20.0099 C   0  0  2  0  0  0  0  0  0  0  0  0
   13.5020  -14.2038   19.6916 N   0  0  0  0  0  0  0  0  0  0  0  0
   11.5394  -14.8824   20.9390 C   0  0  0  0  0  0  0  0  0  0  0  0
   11.6919  -13.8933   21.7004 O   0  0  0  0  0  0  0  0  0  0  0  0
   10.3006  -15.5642   20.9914 N   0  0  0  0  0  0  0  0  0  0  0  0
    9.1984  -15.0097   21.7493 C   0  0  1  0  0  0  0  0  0  0  0  0
    7.9180  -15.1890   20.9675 C   0  0  0  0  0  0  0  0  0  0  0  0
    7.9466  -14.6245   19.6173 C   0  0  0  0  0  0  0  0  0  0  0  0
    8.4436  -13.3996   19.2330 C   0  0  0  0  0  0  0  0  0  0  0  0
    8.2713  -13.2827   17.9099 N   0  0  0  0  0  0  0  0  0  0  0  0
    7.6859  -14.3922   17.4661 C   0  0  0  0  0  0  0  0  0  0  0  0
    7.4823  -15.2239   18.5111 N   0  0  0  0  0  0  0  0  0  0  0  0
    9.0564  -15.6139   23.0725 C   0  0  0  0  0  0  0  0  0  0  0  0
    9.9248  -16.4187   23.4886 O   0  0  0  0  0  0  0  0  0  0  0  0
    7.9747  -15.3547   23.9593 N   0  0  0  0  0  0  0  0  0  0  0  0
    7.8449  -15.9765   25.2630 C   0  0  1  0  0  0  0  0  0  0  0  0
    6.7792  -15.2983   26.0884 C   0  0  0  0  0  0  0  0  0  0  0  0
    7.0546  -13.8654   26.3485 C   0  0  0  0  0  0  0  0  0  0  0  0
    8.3039  -13.4530   26.8073 C   0  0  0  0  0  0  0  0  0  0  0  0
    8.5922  -12.1267   27.0506 C   0  0  0  0  0  0  0  0  0  0  0  0
    7.6492  -11.1411   26.8491 C   0  0  0  0  0  0  0  0  0  0  0  0
    6.4095  -11.5378   26.3951 C   0  0  0  0  0  0  0  0  0  0  0  0
    6.1210  -12.8654   26.1516 C   0  0  0  0  0  0  0  0  0  0  0  0
    7.6479  -17.4341   25.1259 C   0  0  0  0  0  0  0  0  0  0  0  0
    7.9511  -18.3482   26.1199 O   0  0  0  0  0  0  0  0  0  0  0  0
    7.1792  -17.8756   24.0472 O   0  0  0  0  0  0  0  0  0  0  0  0
  2  1  1  6
  3  2  1  0
  4  2  1  0
  4  5  1  1
  6  7  2  0
  6  4  1  0
  8  6  1  0
  9  8  1  0
  9 10  1  6
 11 15  1  0
 11 10  1  0
 12 11  2  0
 13 12  1  0
 13 14  1  0
 14 15  2  0
 16 18  1  0
 16  9  1  0
 17 16  2  0
 19 20  1  6
 19 18  1  0
 21 26  1  0
 21 20  1  0
 22 21  2  0
 23 24  2  0
 23 22  1  0
 24 25  1  0
 25 26  2  0
 27 19  1  0
 28 27  1  0
 29 27  2  0
M  END
$$$$
