THF.pdb
     RDKit          3D

 29 30  0  0  1  0  0  0  0  0999 V2000
   10.7671  -14.4666   19.3585 C   0  0  0  0  0  0  0  0  0  0  0  0
    9.7717  -13.4482   18.8900 C   0  0  1  0  0  0  0  0  0  0  0  0
   10.1540  -12.9689   17.6386 O   0  0  0  0  0  0  0  0  0  0  0  0
    8.3706  -13.9650   18.8130 C   0  0  2  0  0  0  0  0  0  0  0  0
    7.4672  -12.9433   18.3569 N   0  0  0  0  0  0  0  0  0  0  0  0
    7.9451  -14.4869   20.1618 C   0  0  0  0  0  0  0  0  0  0  0  0
    7.6586  -13.6935   21.0944 O   0  0  0  0  0  0  0  0  0  0  0  0
    7.8520  -15.8731   20.4297 N   0  0  0  0  0  0  0  0  0  0  0  0
    7.4558  -16.3334   21.7442 C   0  0  1  0  0  0  0  0  0  0  0  0
    6.9777  -17.7633   21.6465 C   0  0  0  0  0  0  0  0  0  0  0  0
    8.0343  -18.7401   21.3781 C   0  0  0  0  0  0  0  0  0  0  0  0
    8.7679  -18.8823   20.2220 C   0  0  0  0  0  0  0  0  0  0  0  0
    9.6259  -19.8952   20.4015 N   0  0  0  0  0  0  0  0  0  0  0  0
    9.4463  -20.3814   21.6270 C   0  0  0  0  0  0  0  0  0  0  0  0
    8.4680  -19.6758   22.2353 N   0  0  0  0  0  0  0  0  0  0  0  0
    8.5321  -16.2400   22.7284 C   0  0  0  0  0  0  0  0  0  0  0  0
    9.6995  -15.9706   22.3545 O   0  0  0  0  0  0  0  0  0  0  0  0
    8.3581  -16.4366   24.1266 N   0  0  0  0  0  0  0  0  0  0  0  0
    9.3159  -15.9917   25.1204 C   0  0  1  0  0  0  0  0  0  0  0  0
    9.5047  -14.4955   25.0661 C   0  0  0  0  0  0  0  0  0  0  0  0
    8.3642  -13.7343   25.6288 C   0  0  0  0  0  0  0  0  0  0  0  0
    7.2520  -13.4356   24.8444 C   0  0  0  0  0  0  0  0  0  0  0  0
    6.1729  -12.7363   25.3420 C   0  0  0  0  0  0  0  0  0  0  0  0
    6.1459  -12.2975   26.6489 C   0  0  0  0  0  0  0  0  0  0  0  0
    7.2411  -12.5875   27.4343 C   0  0  0  0  0  0  0  0  0  0  0  0
    8.3212  -13.2876   26.9361 C   0  0  0  0  0  0  0  0  0  0  0  0
    8.9450  -16.4923   26.4598 C   0  0  0  0  0  0  0  0  0  0  0  0
    7.7439  -17.1197   26.7411 O   0  0  0  0  0  0  0  0  0  0  0  0
    9.7623  -16.3422   27.4020 O   0  0  0  0  0  0  0  0  0  0  0  0
  2  1  1  6
  3  2  1  0
  4  2  1  0
  4  5  1  1
  6  7  2  0
  6  4  1  0
  8  6  1  0
  9  8  1  0
  9 10  1  6
 11 15  1  0
 11 10  1  0
 12 11  2  0
 13 12  1  0
 13 14  1  0
 14 15  2  0
 16 18  1  0
 16  9  1  0
 17 16  2  0
 19 20  1  1
 19 18  1  0
 21 26  1  0
 21 20  1  0
 22 21  2  0
 23 24  2  0
 23 22  1  0
 24 25  1  0
 25 26  2  0
 27 19  1  0
 28 27  1  0
 29 27  2  0
M  END
$$$$
