THF.pdb
     RDKit          3D

 29 30  0  0  1  0  0  0  0  0999 V2000
    9.0903  -12.5219   21.0952 C   0  0  0  0  0  0  0  0  0  0  0  0
    8.0501  -12.9015   20.0846 C   0  0  1  0  0  0  0  0  0  0  0  0
    8.1588  -12.0680   18.9731 O   0  0  0  0  0  0  0  0  0  0  0  0
    8.1315  -14.3273   19.6415 C   0  0  2  0  0  0  0  0  0  0  0  0
    7.0879  -14.6369   18.7018 N   0  0  0  0  0  0  0  0  0  0  0  0
    8.0548  -15.2386   20.8399 C   0  0  0  0  0  0  0  0  0  0  0  0
    6.9554  -15.4555   21.4104 O   0  0  0  0  0  0  0  0  0  0  0  0
    9.2023  -15.8788   21.3648 N   0  0  0  0  0  0  0  0  0  0  0  0
    9.0710  -16.8296   22.4490 C   0  0  1  0  0  0  0  0  0  0  0  0
    9.9846  -18.0052   22.1920 C   0  0  0  0  0  0  0  0  0  0  0  0
    9.4929  -18.9482   21.1863 C   0  0  0  0  0  0  0  0  0  0  0  0
    8.2197  -19.0316   20.6695 C   0  0  0  0  0  0  0  0  0  0  0  0
    8.2024  -20.0316   19.7785 N   0  0  0  0  0  0  0  0  0  0  0  0
    9.4197  -20.5666   19.7285 C   0  0  0  0  0  0  0  0  0  0  0  0
   10.2207  -19.9054   20.5924 N   0  0  0  0  0  0  0  0  0  0  0  0
    9.3720  -16.2482   23.7556 C   0  0  0  0  0  0  0  0  0  0  0  0
   10.3515  -15.4742   23.8848 O   0  0  0  0  0  0  0  0  0  0  0  0
    8.6178  -16.4971   24.9359 N   0  0  0  0  0  0  0  0  0  0  0  0
    9.0247  -16.0466   26.2529 C   0  0  1  0  0  0  0  0  0  0  0  0
    7.8504  -15.5102   27.0341 C   0  0  0  0  0  0  0  0  0  0  0  0
    7.4231  -14.1571   26.6059 C   0  0  0  0  0  0  0  0  0  0  0  0
    6.1436  -13.9429   26.0977 C   0  0  0  0  0  0  0  0  0  0  0  0
    5.7149  -12.6945   25.6988 C   0  0  0  0  0  0  0  0  0  0  0  0
    6.5401  -11.5933   25.7857 C   0  0  0  0  0  0  0  0  0  0  0  0
    7.8085  -11.7937   26.2873 C   0  0  0  0  0  0  0  0  0  0  0  0
    8.2375  -13.0433   26.6866 C   0  0  0  0  0  0  0  0  0  0  0  0
    9.7679  -17.1103   26.9589 C   0  0  0  0  0  0  0  0  0  0  0  0
    9.9619  -18.3820   26.4483 O   0  0  0  0  0  0  0  0  0  0  0  0
   10.2534  -16.8522   28.0884 O   0  0  0  0  0  0  0  0  0  0  0  0
  2  1  1  1
  3  2  1  0
  4  2  1  0
  4  5  1  6
  6  7  2  0
  6  4  1  0
  8  6  1  0
  9  8  1  0
  9 10  1  6
 11 15  1  0
 11 10  1  0
 12 11  2  0
 13 12  1  0
 13 14  1  0
 14 15  2  0
 16 18  1  0
 16  9  1  0
 17 16  2  0
 19 20  1  1
 19 18  1  0
 21 26  1  0
 21 20  1  0
 22 21  2  0
 23 24  2  0
 23 22  1  0
 24 25  1  0
 25 26  2  0
 27 19  1  0
 28 27  1  0
 29 27  2  0
M  END
$$$$
