EGW.pdb
     RDKit          3D

 28 29  0  0  1  0  0  0  0  0999 V2000
    9.4226  -17.9929   18.2927 N   0  0  0  0  0  0  0  0  0  0  0  0
   10.4467  -18.1225   19.3546 C   0  0  1  0  0  0  0  0  0  0  0  0
   11.7732  -17.6505   18.8209 C   0  0  0  0  0  0  0  0  0  0  0  0
   11.8172  -17.8155   17.3325 C   0  0  0  0  0  0  0  0  0  0  0  0
   12.8022  -18.8578   16.9233 C   0  0  0  0  0  0  0  0  0  0  0  0
   13.8085  -19.0532   17.6244 O   0  0  0  0  0  0  0  0  0  0  0  0
   10.0249  -17.2672   20.4757 C   0  0  0  0  0  0  0  0  0  0  0  0
   10.6515  -17.2185   21.5709 O   0  0  0  0  0  0  0  0  0  0  0  0
   12.5888  -19.5882   15.7814 O   0  0  0  0  0  0  0  0  0  0  0  0
    8.8545  -16.4546   20.3201 N   0  0  0  0  0  0  0  0  0  0  0  0
    7.8144  -16.4470   21.2976 C   0  0  0  0  0  0  0  0  0  0  0  0
    8.1787  -15.7938   22.5738 C   0  0  0  0  0  0  0  0  0  0  0  0
    7.2718  -15.4801   23.4228 O   0  0  0  0  0  0  0  0  0  0  0  0
    9.4971  -15.4636   22.9777 N   0  0  0  0  0  0  0  0  0  0  0  0
    9.8977  -15.4909   24.3866 C   0  0  1  0  0  0  0  0  0  0  0  0
    8.8198  -16.1606   25.2263 C   0  0  0  0  0  0  0  0  0  0  0  0
    7.5979  -15.3571   25.3022 C   0  0  0  0  0  0  0  0  0  0  0  0
    6.3253  -15.7464   24.9509 C   0  0  0  0  0  0  0  0  0  0  0  0
    5.4578  -14.7320   25.1610 N   0  0  0  0  0  0  0  0  0  0  0  0
    6.1605  -13.6777   25.6498 C   0  0  0  0  0  0  0  0  0  0  0  0
    5.7551  -12.4218   26.0221 C   0  0  0  0  0  0  0  0  0  0  0  0
    6.6924  -11.5280   26.4935 C   0  0  0  0  0  0  0  0  0  0  0  0
    8.0322  -11.8643   26.6012 C   0  0  0  0  0  0  0  0  0  0  0  0
    8.4140  -13.1339   26.2201 C   0  0  0  0  0  0  0  0  0  0  0  0
    7.5044  -14.0546   25.7438 C   0  0  0  0  0  0  0  0  0  0  0  0
   11.1779  -16.2294   24.4649 C   0  0  0  0  0  0  0  0  0  0  0  0
   11.8372  -16.4069   25.6720 O   0  0  0  0  0  0  0  0  0  0  0  0
   11.7005  -16.7156   23.4347 O   0  0  0  0  0  0  0  0  0  0  0  0
  2  1  1  6
  3  2  1  0
  3  4  1  0
  5  4  1  0
  5  6  2  0
  7  8  2  0
  7  2  1  0
  9  5  1  0
 10  7  1  0
 11 10  1  0
 11 12  1  0
 12 14  1  0
 13 12  2  0
 14 15  1  0
 15 16  1  1
 15 26  1  0
 17 25  1  0
 17 16  1  0
 18 17  2  0
 19 18  1  0
 19 20  1  0
 20 21  1  0
 20 25  2  0
 21 22  2  0
 22 23  1  0
 24 23  2  0
 25 24  1  0
 26 28  2  0
 26 27  1  0
M  END
$$$$
