EGW.pdb
     RDKit          3D

 28 29  0  0  1  0  0  0  0  0999 V2000
    8.2143  -18.7467   23.6864 N   0  0  0  0  0  0  0  0  0  0  0  0
    7.6127  -19.9335   23.0360 C   0  0  1  0  0  0  0  0  0  0  0  0
    6.8458  -20.7232   24.0633 C   0  0  0  0  0  0  0  0  0  0  0  0
    7.1187  -20.1856   25.4348 C   0  0  0  0  0  0  0  0  0  0  0  0
    6.6236  -21.1087   26.4963 C   0  0  0  0  0  0  0  0  0  0  0  0
    6.7795  -20.8033   27.6899 O   0  0  0  0  0  0  0  0  0  0  0  0
    6.6960  -19.4436   21.9940 C   0  0  0  0  0  0  0  0  0  0  0  0
    6.3610  -20.1412   20.9962 O   0  0  0  0  0  0  0  0  0  0  0  0
    6.0033  -22.2816   26.1464 O   0  0  0  0  0  0  0  0  0  0  0  0
    6.1598  -18.1199   22.1148 N   0  0  0  0  0  0  0  0  0  0  0  0
    6.6093  -17.0523   21.2809 C   0  0  0  0  0  0  0  0  0  0  0  0
    7.4389  -16.0423   21.9735 C   0  0  0  0  0  0  0  0  0  0  0  0
    6.8873  -15.1087   22.6560 O   0  0  0  0  0  0  0  0  0  0  0  0
    8.8561  -15.9994   21.9623 N   0  0  0  0  0  0  0  0  0  0  0  0
    9.6137  -15.3767   23.0507 C   0  0  1  0  0  0  0  0  0  0  0  0
    8.9697  -14.0576   23.4513 C   0  0  0  0  0  0  0  0  0  0  0  0
    8.0466  -14.2115   24.5776 C   0  0  0  0  0  0  0  0  0  0  0  0
    7.5567  -15.3895   25.0944 C   0  0  0  0  0  0  0  0  0  0  0  0
    6.7309  -15.1301   26.1319 N   0  0  0  0  0  0  0  0  0  0  0  0
    6.6787  -13.7831   26.2959 C   0  0  0  0  0  0  0  0  0  0  0  0
    5.9919  -13.0131   27.1991 C   0  0  0  0  0  0  0  0  0  0  0  0
    6.1188  -11.6418   27.1431 C   0  0  0  0  0  0  0  0  0  0  0  0
    6.9214  -11.0210   26.1995 C   0  0  0  0  0  0  0  0  0  0  0  0
    7.6017  -11.8182   25.3025 C   0  0  0  0  0  0  0  0  0  0  0  0
    7.4988  -13.1932   25.3282 C   0  0  0  0  0  0  0  0  0  0  0  0
    9.6279  -16.3340   24.1795 C   0  0  0  0  0  0  0  0  0  0  0  0
   10.6041  -16.2773   25.1629 O   0  0  0  0  0  0  0  0  0  0  0  0
    8.7516  -17.2250   24.2742 O   0  0  0  0  0  0  0  0  0  0  0  0
  2  1  1  1
  3  2  1  0
  3  4  1  0
  5  4  1  0
  5  6  2  0
  7  8  2  0
  7  2  1  0
  9  5  1  0
 10  7  1  0
 11 10  1  0
 11 12  1  0
 12 14  1  0
 13 12  2  0
 14 15  1  0
 15 16  1  1
 15 26  1  0
 17 25  1  0
 17 16  1  0
 18 17  2  0
 19 18  1  0
 19 20  1  0
 20 21  1  0
 20 25  2  0
 21 22  2  0
 22 23  1  0
 24 23  2  0
 25 24  1  0
 26 28  2  0
 26 27  1  0
M  END
$$$$
