EGW.pdb
     RDKit          3D

 28 29  0  0  1  0  0  0  0  0999 V2000
    7.3777  -18.3128   21.5546 N   0  0  0  0  0  0  0  0  0  0  0  0
    8.6653  -19.0437   21.5264 C   0  0  1  0  0  0  0  0  0  0  0  0
    8.9310  -19.5210   20.1232 C   0  0  0  0  0  0  0  0  0  0  0  0
    8.8955  -18.3650   19.1710 C   0  0  0  0  0  0  0  0  0  0  0  0
    9.1697  -18.7973   17.7703 C   0  0  0  0  0  0  0  0  0  0  0  0
    8.6412  -19.8350   17.3389 O   0  0  0  0  0  0  0  0  0  0  0  0
    9.7142  -18.0981   21.9409 C   0  0  0  0  0  0  0  0  0  0  0  0
   10.9352  -18.4148   21.9988 O   0  0  0  0  0  0  0  0  0  0  0  0
    9.9995  -18.0483   16.9745 O   0  0  0  0  0  0  0  0  0  0  0  0
    9.3365  -16.7612   22.2936 N   0  0  0  0  0  0  0  0  0  0  0  0
   10.3055  -15.7897   22.6865 C   0  0  0  0  0  0  0  0  0  0  0  0
   10.5691  -15.7416   24.1413 C   0  0  0  0  0  0  0  0  0  0  0  0
   11.4545  -14.9447   24.6130 O   0  0  0  0  0  0  0  0  0  0  0  0
    9.9069  -16.5255   25.1198 N   0  0  0  0  0  0  0  0  0  0  0  0
   10.3458  -16.5396   26.5175 C   0  0  1  0  0  0  0  0  0  0  0  0
    9.2191  -16.0711   27.4266 C   0  0  0  0  0  0  0  0  0  0  0  0
    8.0817  -15.5421   26.6712 C   0  0  0  0  0  0  0  0  0  0  0  0
    7.1085  -16.2661   26.0205 C   0  0  0  0  0  0  0  0  0  0  0  0
    6.2241  -15.4287   25.4354 N   0  0  0  0  0  0  0  0  0  0  0  0
    6.6165  -14.1562   25.7018 C   0  0  0  0  0  0  0  0  0  0  0  0
    6.0684  -12.9521   25.3413 C   0  0  0  0  0  0  0  0  0  0  0  0
    6.6806  -11.7878   25.7529 C   0  0  0  0  0  0  0  0  0  0  0  0
    7.8341  -11.8016   26.5205 C   0  0  0  0  0  0  0  0  0  0  0  0
    8.3652  -13.0259   26.8696 C   0  0  0  0  0  0  0  0  0  0  0  0
    7.7803  -14.2111   26.4760 C   0  0  0  0  0  0  0  0  0  0  0  0
   10.7534  -17.9264   26.8357 C   0  0  0  0  0  0  0  0  0  0  0  0
   11.3769  -18.2395   28.0342 O   0  0  0  0  0  0  0  0  0  0  0  0
   10.5430  -18.8577   26.0237 O   0  0  0  0  0  0  0  0  0  0  0  0
  2  1  1  6
  3  2  1  0
  3  4  1  0
  5  4  1  0
  5  6  2  0
  7  8  2  0
  7  2  1  0
  9  5  1  0
 10  7  1  0
 11 10  1  0
 11 12  1  0
 12 14  1  0
 13 12  2  0
 14 15  1  0
 15 16  1  1
 15 26  1  0
 17 25  1  0
 17 16  1  0
 18 17  2  0
 19 18  1  0
 19 20  1  0
 20 21  1  0
 20 25  2  0
 21 22  2  0
 22 23  1  0
 24 23  2  0
 25 24  1  0
 26 28  2  0
 26 27  1  0
M  END
$$$$
