EGW.pdb
     RDKit          3D

 28 29  0  0  1  0  0  0  0  0999 V2000
    6.5975  -15.8246   18.6081 N   0  0  0  0  0  0  0  0  0  0  0  0
    7.9321  -15.2647   18.9221 C   0  0  1  0  0  0  0  0  0  0  0  0
    7.8081  -13.7776   19.1236 C   0  0  0  0  0  0  0  0  0  0  0  0
    8.8383  -13.0598   18.3064 C   0  0  0  0  0  0  0  0  0  0  0  0
    8.8710  -13.5582   16.9012 C   0  0  0  0  0  0  0  0  0  0  0  0
    8.1628  -14.5273   16.5823 O   0  0  0  0  0  0  0  0  0  0  0  0
    8.3923  -15.9022   20.1662 C   0  0  0  0  0  0  0  0  0  0  0  0
    9.6111  -15.9669   20.4901 O   0  0  0  0  0  0  0  0  0  0  0  0
    9.6792  -12.9445   15.9776 O   0  0  0  0  0  0  0  0  0  0  0  0
    7.4183  -16.4739   21.0487 N   0  0  0  0  0  0  0  0  0  0  0  0
    7.8011  -17.1664   22.2366 C   0  0  0  0  0  0  0  0  0  0  0  0
    8.7431  -16.4232   23.1018 C   0  0  0  0  0  0  0  0  0  0  0  0
    9.4102  -15.4345   22.6335 O   0  0  0  0  0  0  0  0  0  0  0  0
    8.9959  -16.7045   24.4683 N   0  0  0  0  0  0  0  0  0  0  0  0
   10.0712  -16.0342   25.2037 C   0  0  1  0  0  0  0  0  0  0  0  0
    9.5201  -15.3864   26.4654 C   0  0  0  0  0  0  0  0  0  0  0  0
    8.1515  -14.8980   26.2848 C   0  0  0  0  0  0  0  0  0  0  0  0
    7.0394  -15.6436   25.9658 C   0  0  0  0  0  0  0  0  0  0  0  0
    5.9542  -14.8427   25.8854 N   0  0  0  0  0  0  0  0  0  0  0  0
    6.3537  -13.5723   26.1515 C   0  0  0  0  0  0  0  0  0  0  0  0
    5.6468  -12.3982   26.1972 C   0  0  0  0  0  0  0  0  0  0  0  0
    6.3107  -11.2281   26.4966 C   0  0  0  0  0  0  0  0  0  0  0  0
    7.6723  -11.2065   26.7525 C   0  0  0  0  0  0  0  0  0  0  0  0
    8.3603  -12.4010   26.7002 C   0  0  0  0  0  0  0  0  0  0  0  0
    7.7295  -13.5910   26.4039 C   0  0  0  0  0  0  0  0  0  0  0  0
   11.0889  -17.0597   25.5250 C   0  0  0  0  0  0  0  0  0  0  0  0
   12.3565  -16.7073   25.9634 O   0  0  0  0  0  0  0  0  0  0  0  0
   10.8274  -18.2798   25.4078 O   0  0  0  0  0  0  0  0  0  0  0  0
  2  1  1  1
  3  2  1  0
  3  4  1  0
  5  4  1  0
  5  6  2  0
  7  8  2  0
  7  2  1  0
  9  5  1  0
 10  7  1  0
 11 10  1  0
 11 12  1  0
 12 14  1  0
 13 12  2  0
 14 15  1  0
 15 16  1  1
 15 26  1  0
 17 25  1  0
 17 16  1  0
 18 17  2  0
 19 18  1  0
 19 20  1  0
 20 21  1  0
 20 25  2  0
 21 22  2  0
 22 23  1  0
 24 23  2  0
 25 24  1  0
 26 28  2  0
 26 27  1  0
M  END
$$$$
