EGW.pdb
     RDKit          3D

 28 29  0  0  1  0  0  0  0  0999 V2000
   10.8353  -17.2875   18.6256 N   0  0  0  0  0  0  0  0  0  0  0  0
    9.6885  -16.3623   18.7742 C   0  0  1  0  0  0  0  0  0  0  0  0
    8.6643  -16.6719   17.7147 C   0  0  0  0  0  0  0  0  0  0  0  0
    8.2533  -18.1100   17.8009 C   0  0  0  0  0  0  0  0  0  0  0  0
    7.1976  -18.4414   16.8010 C   0  0  0  0  0  0  0  0  0  0  0  0
    6.6666  -19.5638   16.8256 O   0  0  0  0  0  0  0  0  0  0  0  0
    9.1128  -16.5904   20.1094 C   0  0  0  0  0  0  0  0  0  0  0  0
    8.1161  -15.9472   20.5423 O   0  0  0  0  0  0  0  0  0  0  0  0
    6.8243  -17.5078   15.8672 O   0  0  0  0  0  0  0  0  0  0  0  0
    9.7062  -17.5837   20.9553 N   0  0  0  0  0  0  0  0  0  0  0  0
    9.1037  -17.9710   22.1898 C   0  0  0  0  0  0  0  0  0  0  0  0
    9.6673  -17.3018   23.3825 C   0  0  0  0  0  0  0  0  0  0  0  0
   10.7420  -16.6104   23.2900 O   0  0  0  0  0  0  0  0  0  0  0  0
    9.1109  -17.3462   24.6860 N   0  0  0  0  0  0  0  0  0  0  0  0
    9.7424  -16.6567   25.8139 C   0  0  1  0  0  0  0  0  0  0  0  0
    8.6954  -16.2795   26.8517 C   0  0  0  0  0  0  0  0  0  0  0  0
    7.5802  -15.5319   26.2669 C   0  0  0  0  0  0  0  0  0  0  0  0
    6.4693  -16.0518   25.6423 C   0  0  0  0  0  0  0  0  0  0  0  0
    5.6591  -15.0508   25.2333 N   0  0  0  0  0  0  0  0  0  0  0  0
    6.2378  -13.8749   25.5892 C   0  0  0  0  0  0  0  0  0  0  0  0
    5.8270  -12.5793   25.4078 C   0  0  0  0  0  0  0  0  0  0  0  0
    6.6203  -11.5537   25.8752 C   0  0  0  0  0  0  0  0  0  0  0  0
    7.8208  -11.7967   26.5231 C   0  0  0  0  0  0  0  0  0  0  0  0
    8.2112  -13.1088   26.6928 C   0  0  0  0  0  0  0  0  0  0  0  0
    7.4436  -14.1605   26.2384 C   0  0  0  0  0  0  0  0  0  0  0  0
   10.7547  -17.5764   26.3796 C   0  0  0  0  0  0  0  0  0  0  0  0
   11.6829  -17.1427   27.3142 O   0  0  0  0  0  0  0  0  0  0  0  0
   10.7974  -18.7777   26.0250 O   0  0  0  0  0  0  0  0  0  0  0  0
  2  1  1  6
  3  2  1  0
  3  4  1  0
  5  4  1  0
  5  6  2  0
  7  8  2  0
  7  2  1  0
  9  5  1  0
 10  7  1  0
 11 10  1  0
 11 12  1  0
 12 14  1  0
 13 12  2  0
 14 15  1  0
 15 16  1  1
 15 26  1  0
 17 25  1  0
 17 16  1  0
 18 17  2  0
 19 18  1  0
 19 20  1  0
 20 21  1  0
 20 25  2  0
 21 22  2  0
 22 23  1  0
 24 23  2  0
 25 24  1  0
 26 28  2  0
 26 27  1  0
M  END
$$$$
