EGW.pdb
     RDKit          3D

 28 29  0  0  1  0  0  0  0  0999 V2000
    9.5391  -15.3145   20.2382 N   0  0  0  0  0  0  0  0  0  0  0  0
    8.1183  -15.7220   20.1464 C   0  0  1  0  0  0  0  0  0  0  0  0
    7.8192  -16.1541   18.7353 C   0  0  0  0  0  0  0  0  0  0  0  0
    9.0894  -16.5134   18.0269 C   0  0  0  0  0  0  0  0  0  0  0  0
    8.8264  -17.0245   16.6508 C   0  0  0  0  0  0  0  0  0  0  0  0
    9.7339  -17.6057   16.0334 O   0  0  0  0  0  0  0  0  0  0  0  0
    7.9274  -16.8535   21.0679 C   0  0  0  0  0  0  0  0  0  0  0  0
    6.8390  -17.4879   21.1542 O   0  0  0  0  0  0  0  0  0  0  0  0
    7.5901  -16.8491   16.0819 O   0  0  0  0  0  0  0  0  0  0  0  0
    9.0212  -17.2543   21.9030 N   0  0  0  0  0  0  0  0  0  0  0  0
    8.8559  -17.4539   23.3066 C   0  0  0  0  0  0  0  0  0  0  0  0
    9.8296  -16.7239   24.1475 C   0  0  0  0  0  0  0  0  0  0  0  0
   10.2958  -15.5933   23.7655 O   0  0  0  0  0  0  0  0  0  0  0  0
   10.3248  -17.1676   25.3999 N   0  0  0  0  0  0  0  0  0  0  0  0
    9.9787  -16.4832   26.6481 C   0  0  1  0  0  0  0  0  0  0  0  0
    8.5265  -16.7561   27.0115 C   0  0  0  0  0  0  0  0  0  0  0  0
    7.6097  -15.8033   26.3823 C   0  0  0  0  0  0  0  0  0  0  0  0
    6.5584  -16.0936   25.5425 C   0  0  0  0  0  0  0  0  0  0  0  0
    5.9422  -14.9526   25.1630 N   0  0  0  0  0  0  0  0  0  0  0  0
    6.5884  -13.9142   25.7532 C   0  0  0  0  0  0  0  0  0  0  0  0
    6.3620  -12.5632   25.6932 C   0  0  0  0  0  0  0  0  0  0  0  0
    7.1841  -11.7143   26.4026 C   0  0  0  0  0  0  0  0  0  0  0  0
    8.2323  -12.1894   27.1743 C   0  0  0  0  0  0  0  0  0  0  0  0
    8.4388  -13.5526   27.2178 C   0  0  0  0  0  0  0  0  0  0  0  0
    7.6368  -14.4320   26.5211 C   0  0  0  0  0  0  0  0  0  0  0  0
   10.8989  -16.9845   27.6934 C   0  0  0  0  0  0  0  0  0  0  0  0
   11.7489  -18.0541   27.4555 O   0  0  0  0  0  0  0  0  0  0  0  0
   10.9322  -16.4502   28.8267 O   0  0  0  0  0  0  0  0  0  0  0  0
  2  1  1  6
  3  2  1  0
  3  4  1  0
  5  4  1  0
  5  6  2  0
  7  8  2  0
  7  2  1  0
  9  5  1  0
 10  7  1  0
 11 10  1  0
 11 12  1  0
 12 14  1  0
 13 12  2  0
 14 15  1  0
 15 16  1  1
 15 26  1  0
 17 25  1  0
 17 16  1  0
 18 17  2  0
 19 18  1  0
 19 20  1  0
 20 21  1  0
 20 25  2  0
 21 22  2  0
 22 23  1  0
 24 23  2  0
 25 24  1  0
 26 28  2  0
 26 27  1  0
M  END
$$$$
