EGW.pdb
     RDKit          3D

 28 29  0  0  1  0  0  0  0  0999 V2000
   11.5955  -19.9816   20.1817 N   0  0  0  0  0  0  0  0  0  0  0  0
   12.6358  -19.0084   20.5864 C   0  0  1  0  0  0  0  0  0  0  0  0
   13.2372  -18.3877   19.3533 C   0  0  0  0  0  0  0  0  0  0  0  0
   12.3312  -18.5955   18.1784 C   0  0  0  0  0  0  0  0  0  0  0  0
   12.9587  -18.1256   16.9098 C   0  0  0  0  0  0  0  0  0  0  0  0
   14.1415  -18.4190   16.6705 O   0  0  0  0  0  0  0  0  0  0  0  0
   11.9745  -17.9729   21.3968 C   0  0  0  0  0  0  0  0  0  0  0  0
   12.5635  -16.9220   21.7751 O   0  0  0  0  0  0  0  0  0  0  0  0
   12.2272  -17.3769   16.0225 O   0  0  0  0  0  0  0  0  0  0  0  0
   10.6046  -18.1630   21.7732 N   0  0  0  0  0  0  0  0  0  0  0  0
    9.9083  -17.2046   22.5694 C   0  0  0  0  0  0  0  0  0  0  0  0
   10.3603  -17.1332   23.9760 C   0  0  0  0  0  0  0  0  0  0  0  0
   11.3456  -17.8475   24.3767 O   0  0  0  0  0  0  0  0  0  0  0  0
    9.7879  -16.3109   24.9794 N   0  0  0  0  0  0  0  0  0  0  0  0
   10.2839  -16.3242   26.3578 C   0  0  1  0  0  0  0  0  0  0  0  0
    9.5846  -15.2501   27.1780 C   0  0  0  0  0  0  0  0  0  0  0  0
    8.2296  -14.9782   26.6941 C   0  0  0  0  0  0  0  0  0  0  0  0
    7.2652  -15.9029   26.3631 C   0  0  0  0  0  0  0  0  0  0  0  0
    6.1411  -15.2724   25.9574 N   0  0  0  0  0  0  0  0  0  0  0  0
    6.3676  -13.9349   26.0220 C   0  0  0  0  0  0  0  0  0  0  0  0
    5.5573  -12.8702   25.7218 C   0  0  0  0  0  0  0  0  0  0  0  0
    6.0464  -11.5912   25.8796 C   0  0  0  0  0  0  0  0  0  0  0  0
    7.3338  -11.3529   26.3331 C   0  0  0  0  0  0  0  0  0  0  0  0
    8.1285  -12.4412   26.6280 C   0  0  0  0  0  0  0  0  0  0  0  0
    7.6733  -13.7348   26.4823 C   0  0  0  0  0  0  0  0  0  0  0  0
   10.0238  -17.6746   26.9050 C   0  0  0  0  0  0  0  0  0  0  0  0
    9.2883  -18.6124   26.1959 O   0  0  0  0  0  0  0  0  0  0  0  0
   10.4652  -18.0051   28.0305 O   0  0  0  0  0  0  0  0  0  0  0  0
  2  1  1  6
  3  2  1  0
  3  4  1  0
  5  4  1  0
  5  6  2  0
  7  8  2  0
  7  2  1  0
  9  5  1  0
 10  7  1  0
 11 10  1  0
 11 12  1  0
 12 14  1  0
 13 12  2  0
 14 15  1  0
 15 16  1  1
 15 26  1  0
 17 25  1  0
 17 16  1  0
 18 17  2  0
 19 18  1  0
 19 20  1  0
 20 21  1  0
 20 25  2  0
 21 22  2  0
 22 23  1  0
 24 23  2  0
 25 24  1  0
 26 28  2  0
 26 27  1  0
M  END
$$$$
