EGW.pdb
     RDKit          3D

 28 29  0  0  1  0  0  0  0  0999 V2000
    9.9402  -13.2869   18.9513 N   0  0  0  0  0  0  0  0  0  0  0  0
    8.5163  -13.5028   19.2962 C   0  0  1  0  0  0  0  0  0  0  0  0
    7.7866  -14.0135   18.0821 C   0  0  0  0  0  0  0  0  0  0  0  0
    8.7624  -14.3291   16.9900 C   0  0  0  0  0  0  0  0  0  0  0  0
    8.0772  -14.8591   15.7761 C   0  0  0  0  0  0  0  0  0  0  0  0
    8.7097  -14.9509   14.7113 O   0  0  0  0  0  0  0  0  0  0  0  0
    8.4737  -14.5113   20.3673 C   0  0  0  0  0  0  0  0  0  0  0  0
    7.4254  -14.7673   21.0230 O   0  0  0  0  0  0  0  0  0  0  0  0
    6.7605  -15.2388   15.8462 O   0  0  0  0  0  0  0  0  0  0  0  0
    9.6708  -15.2346   20.6807 N   0  0  0  0  0  0  0  0  0  0  0  0
    9.6667  -16.3220   21.6052 C   0  0  0  0  0  0  0  0  0  0  0  0
   10.0095  -15.9458   22.9941 C   0  0  0  0  0  0  0  0  0  0  0  0
   11.0003  -15.1679   23.2287 O   0  0  0  0  0  0  0  0  0  0  0  0
    9.3174  -16.3772   24.1540 N   0  0  0  0  0  0  0  0  0  0  0  0
    9.8455  -16.1324   25.4984 C   0  0  1  0  0  0  0  0  0  0  0  0
    8.7105  -16.1045   26.5116 C   0  0  0  0  0  0  0  0  0  0  0  0
    7.5811  -15.2914   26.0557 C   0  0  0  0  0  0  0  0  0  0  0  0
    6.4599  -15.7285   25.3875 C   0  0  0  0  0  0  0  0  0  0  0  0
    5.6380  -14.6864   25.1344 N   0  0  0  0  0  0  0  0  0  0  0  0
    6.2193  -13.5662   25.6359 C   0  0  0  0  0  0  0  0  0  0  0  0
    5.8002  -12.2606   25.6406 C   0  0  0  0  0  0  0  0  0  0  0  0
    6.5988  -11.3031   26.2281 C   0  0  0  0  0  0  0  0  0  0  0  0
    7.8129  -11.6244   26.8136 C   0  0  0  0  0  0  0  0  0  0  0  0
    8.2115  -12.9449   26.7954 C   0  0  0  0  0  0  0  0  0  0  0  0
    7.4389  -13.9298   26.2168 C   0  0  0  0  0  0  0  0  0  0  0  0
   10.8072  -17.2172   25.7966 C   0  0  0  0  0  0  0  0  0  0  0  0
   11.5960  -17.1904   26.9369 O   0  0  0  0  0  0  0  0  0  0  0  0
   10.9323  -18.1931   25.0202 O   0  0  0  0  0  0  0  0  0  0  0  0
  2  1  1  6
  3  2  1  0
  3  4  1  0
  5  4  1  0
  5  6  2  0
  7  8  2  0
  7  2  1  0
  9  5  1  0
 10  7  1  0
 11 10  1  0
 11 12  1  0
 12 14  1  0
 13 12  2  0
 14 15  1  0
 15 16  1  1
 15 26  1  0
 17 25  1  0
 17 16  1  0
 18 17  2  0
 19 18  1  0
 19 20  1  0
 20 21  1  0
 20 25  2  0
 21 22  2  0
 22 23  1  0
 24 23  2  0
 25 24  1  0
 26 28  2  0
 26 27  1  0
M  END
$$$$
