EGW.pdb
     RDKit          3D

 28 29  0  0  1  0  0  0  0  0999 V2000
    8.1372  -14.8278   20.4712 N   0  0  0  0  0  0  0  0  0  0  0  0
    7.3880  -16.0134   20.9469 C   0  0  1  0  0  0  0  0  0  0  0  0
    7.0382  -16.8817   19.7675 C   0  0  0  0  0  0  0  0  0  0  0  0
    8.2423  -17.0789   18.8983 C   0  0  0  0  0  0  0  0  0  0  0  0
    7.9418  -17.9602   17.7335 C   0  0  0  0  0  0  0  0  0  0  0  0
    6.8097  -18.4586   17.6231 O   0  0  0  0  0  0  0  0  0  0  0  0
    8.2713  -16.7491   21.8660 C   0  0  0  0  0  0  0  0  0  0  0  0
    7.9072  -17.7952   22.4722 O   0  0  0  0  0  0  0  0  0  0  0  0
    8.9142  -18.2114   16.7984 O   0  0  0  0  0  0  0  0  0  0  0  0
    9.6009  -16.2597   22.0834 N   0  0  0  0  0  0  0  0  0  0  0  0
   10.5261  -16.9552   22.9186 C   0  0  0  0  0  0  0  0  0  0  0  0
   10.6249  -16.4257   24.2962 C   0  0  0  0  0  0  0  0  0  0  0  0
   11.4429  -15.4779   24.5686 O   0  0  0  0  0  0  0  0  0  0  0  0
    9.8663  -16.8801   25.4046 N   0  0  0  0  0  0  0  0  0  0  0  0
   10.1072  -16.3748   26.7585 C   0  0  1  0  0  0  0  0  0  0  0  0
    8.7852  -16.1369   27.4733 C   0  0  0  0  0  0  0  0  0  0  0  0
    7.8058  -15.4645   26.6170 C   0  0  0  0  0  0  0  0  0  0  0  0
    6.9086  -16.0575   25.7579 C   0  0  0  0  0  0  0  0  0  0  0  0
    6.1686  -15.1118   25.1386 N   0  0  0  0  0  0  0  0  0  0  0  0
    6.5797  -13.8990   25.5907 C   0  0  0  0  0  0  0  0  0  0  0  0
    6.1557  -12.6325   25.2802 C   0  0  0  0  0  0  0  0  0  0  0  0
    6.7559  -11.5556   25.8964 C   0  0  0  0  0  0  0  0  0  0  0  0
    7.7754  -11.7184   26.8205 C   0  0  0  0  0  0  0  0  0  0  0  0
    8.1834  -13.0028   27.1153 C   0  0  0  0  0  0  0  0  0  0  0  0
    7.6063  -14.1040   26.5186 C   0  0  0  0  0  0  0  0  0  0  0  0
   10.9273  -17.3846   27.4646 C   0  0  0  0  0  0  0  0  0  0  0  0
   11.4388  -17.1430   28.7307 O   0  0  0  0  0  0  0  0  0  0  0  0
   11.1806  -18.4901   26.9312 O   0  0  0  0  0  0  0  0  0  0  0  0
  2  1  1  6
  3  2  1  0
  3  4  1  0
  5  4  1  0
  5  6  2  0
  7  8  2  0
  7  2  1  0
  9  5  1  0
 10  7  1  0
 11 10  1  0
 11 12  1  0
 12 14  1  0
 13 12  2  0
 14 15  1  0
 15 16  1  1
 15 26  1  0
 17 25  1  0
 17 16  1  0
 18 17  2  0
 19 18  1  0
 19 20  1  0
 20 21  1  0
 20 25  2  0
 21 22  2  0
 22 23  1  0
 24 23  2  0
 25 24  1  0
 26 28  2  0
 26 27  1  0
M  END
$$$$
