EGW.pdb
     RDKit          3D

 28 29  0  0  1  0  0  0  0  0999 V2000
   10.0298  -13.2315   19.2291 N   0  0  0  0  0  0  0  0  0  0  0  0
    8.6217  -13.4510   19.6318 C   0  0  1  0  0  0  0  0  0  0  0  0
    7.7993  -13.7514   18.4067 C   0  0  0  0  0  0  0  0  0  0  0  0
    8.6670  -14.3385   17.3357 C   0  0  0  0  0  0  0  0  0  0  0  0
    7.8880  -15.2176   16.4169 C   0  0  0  0  0  0  0  0  0  0  0  0
    6.8999  -15.8307   16.8530 O   0  0  0  0  0  0  0  0  0  0  0  0
    8.6025  -14.6061   20.5437 C   0  0  0  0  0  0  0  0  0  0  0  0
    7.5547  -14.9952   21.1311 O   0  0  0  0  0  0  0  0  0  0  0  0
    8.2682  -15.3408   15.1042 O   0  0  0  0  0  0  0  0  0  0  0  0
    9.8229  -15.3210   20.7759 N   0  0  0  0  0  0  0  0  0  0  0  0
    9.8658  -16.4731   21.6173 C   0  0  0  0  0  0  0  0  0  0  0  0
   10.1334  -16.1808   23.0424 C   0  0  0  0  0  0  0  0  0  0  0  0
   11.1425  -15.4665   23.3786 O   0  0  0  0  0  0  0  0  0  0  0  0
    9.3459  -16.6304   24.1325 N   0  0  0  0  0  0  0  0  0  0  0  0
    9.7870  -16.4611   25.5192 C   0  0  1  0  0  0  0  0  0  0  0  0
    8.5876  -16.4595   26.4555 C   0  0  0  0  0  0  0  0  0  0  0  0
    7.5662  -15.4936   26.0455 C   0  0  0  0  0  0  0  0  0  0  0  0
    6.4898  -15.7241   25.2191 C   0  0  0  0  0  0  0  0  0  0  0  0
    5.7691  -14.5906   25.0730 N   0  0  0  0  0  0  0  0  0  0  0  0
    6.3719  -13.6169   25.8029 C   0  0  0  0  0  0  0  0  0  0  0  0
    6.0431  -12.2987   25.9889 C   0  0  0  0  0  0  0  0  0  0  0  0
    6.8422  -11.5167   26.7949 C   0  0  0  0  0  0  0  0  0  0  0  0
    7.9679  -12.0266   27.4216 C   0  0  0  0  0  0  0  0  0  0  0  0
    8.2766  -13.3555   27.2181 C   0  0  0  0  0  0  0  0  0  0  0  0
    7.5006  -14.1681   26.4185 C   0  0  0  0  0  0  0  0  0  0  0  0
   10.7086  -17.5778   25.8263 C   0  0  0  0  0  0  0  0  0  0  0  0
   11.3823  -17.6469   27.0365 O   0  0  0  0  0  0  0  0  0  0  0  0
   10.9033  -18.4944   24.9939 O   0  0  0  0  0  0  0  0  0  0  0  0
  2  1  1  6
  3  2  1  0
  3  4  1  0
  5  4  1  0
  5  6  2  0
  7  8  2  0
  7  2  1  0
  9  5  1  0
 10  7  1  0
 11 10  1  0
 11 12  1  0
 12 14  1  0
 13 12  2  0
 14 15  1  0
 15 16  1  1
 15 26  1  0
 17 25  1  0
 17 16  1  0
 18 17  2  0
 19 18  1  0
 19 20  1  0
 20 21  1  0
 20 25  2  0
 21 22  2  0
 22 23  1  0
 24 23  2  0
 25 24  1  0
 26 28  2  0
 26 27  1  0
M  END
$$$$
