EGW.pdb
     RDKit          3D

 28 29  0  0  1  0  0  0  0  0999 V2000
   11.2577  -19.1476   19.5268 N   0  0  0  0  0  0  0  0  0  0  0  0
   11.8373  -17.8018   19.7413 C   0  0  1  0  0  0  0  0  0  0  0  0
   11.7088  -17.0014   18.4723 C   0  0  0  0  0  0  0  0  0  0  0  0
   10.7219  -17.6514   17.5515 C   0  0  0  0  0  0  0  0  0  0  0  0
   10.9868  -17.3025   16.1260 C   0  0  0  0  0  0  0  0  0  0  0  0
   11.9301  -16.5432   15.8502 O   0  0  0  0  0  0  0  0  0  0  0  0
   11.0664  -17.1602   20.8184 C   0  0  0  0  0  0  0  0  0  0  0  0
   11.2735  -15.9719   21.1920 O   0  0  0  0  0  0  0  0  0  0  0  0
   10.1898  -17.8209   15.1366 O   0  0  0  0  0  0  0  0  0  0  0  0
   10.0369  -17.9134   21.4719 N   0  0  0  0  0  0  0  0  0  0  0  0
    9.2083  -17.3309   22.4776 C   0  0  0  0  0  0  0  0  0  0  0  0
    9.9016  -17.0473   23.7532 C   0  0  0  0  0  0  0  0  0  0  0  0
   11.1370  -17.3530   23.9007 O   0  0  0  0  0  0  0  0  0  0  0  0
    9.3103  -16.4375   24.8885 N   0  0  0  0  0  0  0  0  0  0  0  0
   10.0809  -16.1730   26.1062 C   0  0  1  0  0  0  0  0  0  0  0  0
    9.2443  -15.3729   27.0938 C   0  0  0  0  0  0  0  0  0  0  0  0
    7.9423  -14.9965   26.5392 C   0  0  0  0  0  0  0  0  0  0  0  0
    6.9072  -15.8399   26.2048 C   0  0  0  0  0  0  0  0  0  0  0  0
    5.8665  -15.1251   25.7234 N   0  0  0  0  0  0  0  0  0  0  0  0
    6.2183  -13.8136   25.7418 C   0  0  0  0  0  0  0  0  0  0  0  0
    5.5274  -12.6919   25.3615 C   0  0  0  0  0  0  0  0  0  0  0  0
    6.1309  -11.4591   25.4870 C   0  0  0  0  0  0  0  0  0  0  0  0
    7.4160  -11.3231   25.9868 C   0  0  0  0  0  0  0  0  0  0  0  0
    8.0894  -12.4670   26.3622 C   0  0  0  0  0  0  0  0  0  0  0  0
    7.5177  -13.7170   26.2509 C   0  0  0  0  0  0  0  0  0  0  0  0
   10.4735  -17.4837   26.6707 C   0  0  0  0  0  0  0  0  0  0  0  0
   11.5005  -17.5935   27.5962 O   0  0  0  0  0  0  0  0  0  0  0  0
    9.8829  -18.5331   26.3233 O   0  0  0  0  0  0  0  0  0  0  0  0
  2  1  1  6
  3  2  1  0
  3  4  1  0
  5  4  1  0
  5  6  2  0
  7  8  2  0
  7  2  1  0
  9  5  1  0
 10  7  1  0
 11 10  1  0
 11 12  1  0
 12 14  1  0
 13 12  2  0
 14 15  1  0
 15 16  1  1
 15 26  1  0
 17 25  1  0
 17 16  1  0
 18 17  2  0
 19 18  1  0
 19 20  1  0
 20 21  1  0
 20 25  2  0
 21 22  2  0
 22 23  1  0
 24 23  2  0
 25 24  1  0
 26 28  2  0
 26 27  1  0
M  END
$$$$
