DTV.pdb
     RDKit          3D

 23 22  0  0  1  0  0  0  0  0999 V2000
   16.9878  -13.9059  -18.3004 N   0  0  0  0  0  0  0  0  0  0  0  0
   17.0212  -13.0093  -17.1539 C   0  0  1  0  0  0  0  0  0  0  0  0
   17.3305  -13.8235  -15.9075 C   0  0  0  0  0  0  0  0  0  0  0  0
   16.2768  -14.7900  -15.5638 C   0  0  0  0  0  0  0  0  0  0  0  0
   15.1363  -14.7274  -16.0665 O   0  0  0  0  0  0  0  0  0  0  0  0
   17.9347  -11.8790  -17.3632 C   0  0  0  0  0  0  0  0  0  0  0  0
   18.9079  -12.0020  -18.1497 O   0  0  0  0  0  0  0  0  0  0  0  0
   16.4836  -15.8385  -14.6544 O   0  0  0  0  0  0  0  0  0  0  0  0
   17.1561   -8.7427  -18.8205 C   0  0  0  0  0  0  0  0  0  0  0  0
   17.8618   -8.3667  -17.5339 C   0  0  1  0  0  0  0  0  0  0  0  0
   16.8819   -8.0382  -16.5969 O   0  0  0  0  0  0  0  0  0  0  0  0
   18.6702   -9.5117  -16.9954 C   0  0  2  0  0  0  0  0  0  0  0  0
   17.7813  -10.6182  -16.7125 N   0  0  0  0  0  0  0  0  0  0  0  0
   19.5138   -9.1526  -15.8439 C   0  0  0  0  0  0  0  0  0  0  0  0
   18.9934   -9.2044  -14.6994 O   0  0  0  0  0  0  0  0  0  0  0  0
   22.8632  -10.6273  -14.6640 C   0  0  0  0  0  0  0  0  0  0  0  0
   23.0019   -9.1482  -14.7853 C   0  0  1  0  0  0  0  0  0  0  0  0
   23.8179   -8.8474  -16.0246 C   0  0  0  0  0  0  0  0  0  0  0  0
   21.6814   -8.4230  -14.7854 C   0  0  2  0  0  0  0  0  0  0  0  0
   20.8746   -8.7526  -15.9433 N   0  0  0  0  0  0  0  0  0  0  0  0
   21.8376   -6.9615  -14.6833 C   0  0  0  0  0  0  0  0  0  0  0  0
   21.5839   -6.1955  -15.6492 O   0  0  0  0  0  0  0  0  0  0  0  0
   22.2752   -6.3681  -13.5058 O   0  0  0  0  0  0  0  0  0  0  0  0
  2  1  1  6
  2  6  1  0
  3  2  1  0
  3  4  1  0
  4  5  2  0
  4  8  1  0
  6  7  2  0
 10  9  1  6
 10 11  1  0
 10 12  1  0
 12 14  1  0
 12 13  1  1
 13  6  1  0
 14 15  2  0
 17 16  1  6
 17 19  1  0
 18 17  1  0
 19 21  1  0
 20 14  1  0
 19 20  1  6
 21 22  2  0
 21 23  1  0
M  END
$$$$
