DTV.pdb
     RDKit          3D

 23 22  0  0  1  0  0  0  0  0999 V2000
   22.3619  -21.7676  -15.2358 N   0  0  0  0  0  0  0  0  0  0  0  0
   22.9689  -20.6357  -14.5503 C   0  0  1  0  0  0  0  0  0  0  0  0
   21.8649  -19.7859  -13.9411 C   0  0  0  0  0  0  0  0  0  0  0  0
   21.0209  -19.1175  -14.9429 C   0  0  0  0  0  0  0  0  0  0  0  0
   19.7839  -19.0254  -14.8060 O   0  0  0  0  0  0  0  0  0  0  0  0
   23.9907  -21.0583  -13.5843 C   0  0  0  0  0  0  0  0  0  0  0  0
   23.6675  -21.7950  -12.6180 O   0  0  0  0  0  0  0  0  0  0  0  0
   21.5478  -18.5438  -16.1100 O   0  0  0  0  0  0  0  0  0  0  0  0
   28.7468  -21.2383  -12.1559 C   0  0  0  0  0  0  0  0  0  0  0  0
   27.7006  -20.9053  -13.1995 C   0  0  1  0  0  0  0  0  0  0  0  0
   27.8325  -21.8282  -14.2372 O   0  0  0  0  0  0  0  0  0  0  0  0
   26.3116  -21.0143  -12.6397 C   0  0  2  0  0  0  0  0  0  0  0  0
   25.3621  -20.6745  -13.6778 N   0  0  0  0  0  0  0  0  0  0  0  0
   26.1062  -20.2377  -11.4064 C   0  0  0  0  0  0  0  0  0  0  0  0
   26.0280  -18.9861  -11.5099 O   0  0  0  0  0  0  0  0  0  0  0  0
   23.4791  -20.6995   -8.6383 C   0  0  0  0  0  0  0  0  0  0  0  0
   24.8057  -20.5329   -7.9793 C   0  0  1  0  0  0  0  0  0  0  0  0
   25.1934  -21.8545   -7.3507 C   0  0  0  0  0  0  0  0  0  0  0  0
   25.8716  -20.0114   -8.9073 C   0  0  2  0  0  0  0  0  0  0  0  0
   25.9909  -20.8108  -10.1103 N   0  0  0  0  0  0  0  0  0  0  0  0
   27.1859  -19.8941   -8.2516 C   0  0  0  0  0  0  0  0  0  0  0  0
   28.1522  -20.6398   -8.5583 O   0  0  0  0  0  0  0  0  0  0  0  0
   27.4100  -18.9467   -7.2603 O   0  0  0  0  0  0  0  0  0  0  0  0
  2  1  1  1
  2  6  1  0
  3  2  1  0
  3  4  1  0
  4  5  2  0
  4  8  1  0
  6  7  2  0
 10  9  1  1
 10 11  1  0
 10 12  1  0
 12 14  1  0
 12 13  1  6
 13  6  1  0
 14 15  2  0
 17 16  1  6
 17 19  1  0
 18 17  1  0
 19 21  1  0
 20 14  1  0
 19 20  1  6
 21 22  2  0
 21 23  1  0
M  END
$$$$
