DTV.pdb
     RDKit          3D

 23 22  0  0  1  0  0  0  0  0999 V2000
   18.1520  -12.4397  -16.5746 N   0  0  0  0  0  0  0  0  0  0  0  0
   18.4125  -11.0857  -17.0417 C   0  0  1  0  0  0  0  0  0  0  0  0
   17.0973  -10.3241  -17.0863 C   0  0  0  0  0  0  0  0  0  0  0  0
   16.1165  -10.9045  -18.0157 C   0  0  0  0  0  0  0  0  0  0  0  0
   14.9001  -10.9567  -17.7415 O   0  0  0  0  0  0  0  0  0  0  0  0
   19.4547  -10.4195  -16.2506 C   0  0  0  0  0  0  0  0  0  0  0  0
   19.4126  -10.4718  -14.9951 O   0  0  0  0  0  0  0  0  0  0  0  0
   16.4818  -11.4339  -19.2628 O   0  0  0  0  0  0  0  0  0  0  0  0
   24.0184   -8.6719  -15.8734 C   0  0  0  0  0  0  0  0  0  0  0  0
   22.9055   -9.3648  -16.6321 C   0  0  1  0  0  0  0  0  0  0  0  0
   23.1451  -10.7377  -16.5699 O   0  0  0  0  0  0  0  0  0  0  0  0
   21.5646   -9.0877  -16.0158 C   0  0  2  0  0  0  0  0  0  0  0  0
   20.5394   -9.6989  -16.8343 N   0  0  0  0  0  0  0  0  0  0  0  0
   21.3119   -7.6600  -15.7619 C   0  0  0  0  0  0  0  0  0  0  0  0
   21.1024   -6.9177  -16.7560 O   0  0  0  0  0  0  0  0  0  0  0  0
   19.7171   -6.1825  -12.1625 C   0  0  0  0  0  0  0  0  0  0  0  0
   19.7261   -5.4640  -13.4684 C   0  0  1  0  0  0  0  0  0  0  0  0
   19.4449   -3.9995  -13.2070 C   0  0  0  0  0  0  0  0  0  0  0  0
   20.9965   -5.6668  -14.2523 C   0  0  2  0  0  0  0  0  0  0  0  0
   21.2898   -7.0694  -14.4686 N   0  0  0  0  0  0  0  0  0  0  0  0
   22.1566   -5.0023  -13.6329 C   0  0  0  0  0  0  0  0  0  0  0  0
   22.9113   -5.5993  -12.8217 O   0  0  0  0  0  0  0  0  0  0  0  0
   22.4640   -3.6789  -13.9237 O   0  0  0  0  0  0  0  0  0  0  0  0
  2  1  1  1
  2  6  1  0
  3  2  1  0
  3  4  1  0
  4  5  2  0
  4  8  1  0
  6  7  2  0
 10  9  1  1
 10 11  1  0
 10 12  1  0
 12 14  1  0
 12 13  1  6
 13  6  1  0
 14 15  2  0
 17 16  1  1
 17 19  1  0
 18 17  1  0
 19 21  1  0
 20 14  1  0
 19 20  1  1
 21 22  2  0
 21 23  1  0
M  END
$$$$
