DTV.pdb
     RDKit          3D

 23 22  0  0  1  0  0  0  0  0999 V2000
   15.8312  -11.2212  -16.4704 N   0  0  0  0  0  0  0  0  0  0  0  0
   16.8701  -10.8160  -15.5345 C   0  0  1  0  0  0  0  0  0  0  0  0
   17.9730  -11.8627  -15.5477 C   0  0  0  0  0  0  0  0  0  0  0  0
   17.5535  -13.1613  -14.9997 C   0  0  0  0  0  0  0  0  0  0  0  0
   16.4592  -13.3082  -14.4181 O   0  0  0  0  0  0  0  0  0  0  0  0
   17.3468   -9.4519  -15.7951 C   0  0  0  0  0  0  0  0  0  0  0  0
   17.5950   -9.0935  -16.9745 O   0  0  0  0  0  0  0  0  0  0  0  0
   18.3509  -14.3120  -15.0943 O   0  0  0  0  0  0  0  0  0  0  0  0
   15.9166   -6.4062  -16.0193 C   0  0  0  0  0  0  0  0  0  0  0  0
   16.9784   -6.1640  -14.9664 C   0  0  1  0  0  0  0  0  0  0  0  0
   16.3698   -6.2920  -13.7177 O   0  0  0  0  0  0  0  0  0  0  0  0
   18.0866   -7.1728  -15.0611 C   0  0  2  0  0  0  0  0  0  0  0  0
   17.5503   -8.4843  -14.7661 N   0  0  0  0  0  0  0  0  0  0  0  0
   19.2618   -6.8421  -14.2389 C   0  0  0  0  0  0  0  0  0  0  0  0
   19.1882   -7.0564  -13.0012 O   0  0  0  0  0  0  0  0  0  0  0  0
   22.8212   -8.1912  -14.6610 C   0  0  0  0  0  0  0  0  0  0  0  0
   22.8825   -6.7055  -14.5575 C   0  0  1  0  0  0  0  0  0  0  0  0
   23.1620   -6.1442  -15.9356 C   0  0  0  0  0  0  0  0  0  0  0  0
   21.6510   -6.0992  -13.9369 C   0  0  2  0  0  0  0  0  0  0  0  0
   20.4704   -6.2979  -14.7536 N   0  0  0  0  0  0  0  0  0  0  0  0
   21.8156   -4.6666  -13.6346 C   0  0  0  0  0  0  0  0  0  0  0  0
   21.1911   -3.7762  -14.2681 O   0  0  0  0  0  0  0  0  0  0  0  0
   22.6746   -4.2404  -12.6293 O   0  0  0  0  0  0  0  0  0  0  0  0
  2  1  1  6
  2  6  1  0
  3  2  1  0
  3  4  1  0
  4  5  2  0
  4  8  1  0
  6  7  2  0
 10  9  1  6
 10 11  1  0
 10 12  1  0
 12 14  1  0
 12 13  1  1
 13  6  1  0
 14 15  2  0
 17 16  1  6
 17 19  1  0
 18 17  1  0
 19 21  1  0
 20 14  1  0
 19 20  1  6
 21 22  2  0
 21 23  1  0
M  END
$$$$
