DTV.pdb
     RDKit          3D

 23 22  0  0  1  0  0  0  0  0999 V2000
   17.1189  -12.4305  -14.7947 N   0  0  0  0  0  0  0  0  0  0  0  0
   16.0794  -11.5057  -14.3663 C   0  0  1  0  0  0  0  0  0  0  0  0
   14.8069  -12.2934  -14.0975 C   0  0  0  0  0  0  0  0  0  0  0  0
   14.3296  -13.0496  -15.2650 C   0  0  0  0  0  0  0  0  0  0  0  0
   14.0813  -12.4926  -16.3538 O   0  0  0  0  0  0  0  0  0  0  0  0
   16.5109  -10.6757  -13.2345 C   0  0  0  0  0  0  0  0  0  0  0  0
   16.9639  -11.2235  -12.1974 O   0  0  0  0  0  0  0  0  0  0  0  0
   14.1234  -14.4372  -15.2310 O   0  0  0  0  0  0  0  0  0  0  0  0
   19.2852   -8.6077  -13.0950 C   0  0  0  0  0  0  0  0  0  0  0  0
   18.1672   -7.6895  -12.6461 C   0  0  1  0  0  0  0  0  0  0  0  0
   17.7688   -6.9393  -13.7527 O   0  0  0  0  0  0  0  0  0  0  0  0
   16.9835   -8.4675  -12.1478 C   0  0  2  0  0  0  0  0  0  0  0  0
   16.4460   -9.2501  -13.2401 N   0  0  0  0  0  0  0  0  0  0  0  0
   15.9626   -7.6371  -11.4884 C   0  0  0  0  0  0  0  0  0  0  0  0
   15.0326   -7.1785  -12.2010 O   0  0  0  0  0  0  0  0  0  0  0  0
   15.8036   -6.9599   -7.1915 C   0  0  0  0  0  0  0  0  0  0  0  0
   14.6239   -6.8586   -8.0971 C   0  0  1  0  0  0  0  0  0  0  0  0
   13.6165   -5.9235   -7.4625 C   0  0  0  0  0  0  0  0  0  0  0  0
   14.9822   -6.4400   -9.4992 C   0  0  2  0  0  0  0  0  0  0  0  0
   15.9615   -7.3221  -10.1019 N   0  0  0  0  0  0  0  0  0  0  0  0
   15.4526   -5.0456   -9.5714 C   0  0  0  0  0  0  0  0  0  0  0  0
   16.6771   -4.7549   -9.5712 O   0  0  0  0  0  0  0  0  0  0  0  0
   14.5534   -3.9888   -9.6429 O   0  0  0  0  0  0  0  0  0  0  0  0
  2  1  1  1
  2  6  1  0
  3  2  1  0
  3  4  1  0
  4  5  2  0
  4  8  1  0
  6  7  2  0
 10  9  1  6
 10 11  1  0
 10 12  1  0
 12 14  1  0
 12 13  1  6
 13  6  1  0
 14 15  2  0
 17 16  1  1
 17 19  1  0
 18 17  1  0
 19 21  1  0
 20 14  1  0
 19 20  1  1
 21 22  2  0
 21 23  1  0
M  END
$$$$
