RMY.pdb
     RDKit          3D

 32 32  0  0  1  0  0  0  0  0999 V2000
    7.9838  -15.6079   15.6466 N   0  0  0  0  0  0  0  0  0  0  0  0
    7.8314  -14.2249   15.3869 C   0  0  0  0  0  0  0  0  0  0  0  0
    8.2892  -13.6982   14.2854 N   0  0  0  0  0  0  0  0  0  0  0  0
    7.1712  -13.4237   16.3500 N   0  0  0  0  0  0  0  0  0  0  0  0
    6.6637  -14.0017   17.5686 C   0  0  0  0  0  0  0  0  0  0  0  0
    7.7916  -14.1582   18.5426 C   0  0  0  0  0  0  0  0  0  0  0  0
    8.5410  -15.4375   18.4633 C   0  0  0  0  0  0  0  0  0  0  0  0
    8.5330  -16.2844   19.6932 C   0  0  2  0  0  0  0  0  0  0  0  0
    7.2410  -16.8315   20.0298 N   0  0  0  0  0  0  0  0  0  0  0  0
    9.0640  -15.4271   20.8095 C   0  0  0  0  0  0  0  0  0  0  0  0
   10.2304  -14.9832   20.6675 O   0  0  0  0  0  0  0  0  0  0  0  0
    8.0816  -12.7083   14.0691 C   0  0  0  0  0  0  0  0  0  0  0  0
    6.9658  -11.1894   25.9107 S   0  0  0  0  0  0  0  0  0  0  0  0
    6.6111  -12.9570   26.1069 C   0  0  0  0  0  0  0  0  0  0  0  0
    7.9185  -13.8921   25.2581 C   0  0  0  0  0  0  0  0  0  0  0  0
    7.7711  -13.6854   23.7870 C   0  0  1  0  0  0  0  0  0  0  0  0
    8.8679  -14.4788   23.0655 N   0  0  0  0  0  0  0  0  0  0  0  0
    8.2724  -15.1445   21.9579 C   0  0  0  0  0  0  0  0  0  0  0  0
    9.5226  -15.4248   24.0161 O   0  0  0  0  0  0  0  0  0  0  0  0
    8.8970  -16.3367   24.6060 O   0  0  0  0  0  0  0  0  0  0  0  0
   10.0203  -14.6726   31.1016 C   0  0  0  0  0  0  0  0  0  0  0  0
   10.1972  -15.3037   29.8749 C   0  0  0  0  0  0  0  0  0  0  0  0
   10.7254  -16.5669   29.7430 C   0  0  0  0  0  0  0  0  0  0  0  0
   10.8789  -17.1458   28.5023 C   0  0  0  0  0  0  0  0  0  0  0  0
   10.5119  -16.4918   27.3263 C   0  0  0  0  0  0  0  0  0  0  0  0
   10.7045  -17.1108   25.9970 C   0  0  2  0  0  0  0  0  0  0  0  0
   11.6106  -16.3022   25.1598 N   0  0  0  0  0  0  0  0  0  0  0  0
   10.9052  -15.3479   24.3116 C   0  0  0  0  0  0  0  0  0  0  0  0
   12.3927  -17.1660   24.2512 O   0  0  0  0  0  0  0  0  0  0  0  0
   12.0698  -17.4549   23.0695 C   0  0  0  0  0  0  0  0  0  0  0  0
    9.9870  -15.2235   27.5249 C   0  0  0  0  0  0  0  0  0  0  0  0
    9.8261  -14.6319   28.7426 O   0  0  0  0  0  0  0  0  0  0  0  0
  2  1  1  0
  3  2  2  0
  4  2  1  0
  5  4  1  0
  6  5  1  0
  7  6  1  0
  8  7  1  0
  8  9  1  1
 10  8  1  0
 10 11  2  0
 12 13  1  0
 13 14  1  0
 14 15  1  0
 16 15  1  6
 16 18  1  0
 16 17  1  0
 17 10  1  0
 18 27  1  0
 19 18  2  0
 21 20  1  0
 21 31  2  0
 22 21  1  0
 23 22  2  0
 23 24  1  0
 24 30  2  0
 25 24  1  0
 26 25  1  1
 26 28  1  0
 27 26  1  0
 28 29  2  0
 28 32  1  0
 30 31  1  0
M  END
$$$$
