RMY.pdb
     RDKit          3D

 32 32  0  0  1  0  0  0  0  0999 V2000
    7.4164  -14.9383   14.7572 N   0  0  0  0  0  0  0  0  0  0  0  0
    8.0605  -14.0125   15.6126 C   0  0  0  0  0  0  0  0  0  0  0  0
    7.9949  -12.7312   15.3797 N   0  0  0  0  0  0  0  0  0  0  0  0
    8.7792  -14.5076   16.7278 N   0  0  0  0  0  0  0  0  0  0  0  0
    8.7744  -15.9135   17.0444 C   0  0  0  0  0  0  0  0  0  0  0  0
    8.0902  -16.1157   18.3621 C   0  0  0  0  0  0  0  0  0  0  0  0
    8.5193  -17.3074   19.1368 C   0  0  0  0  0  0  0  0  0  0  0  0
    7.8478  -17.5149   20.4544 C   0  0  2  0  0  0  0  0  0  0  0  0
    6.4304  -17.7696   20.3657 N   0  0  0  0  0  0  0  0  0  0  0  0
    8.1254  -16.2864   21.2771 C   0  0  0  0  0  0  0  0  0  0  0  0
    7.5759  -15.2227   20.8970 O   0  0  0  0  0  0  0  0  0  0  0  0
    8.5221  -12.0761   15.9820 C   0  0  0  0  0  0  0  0  0  0  0  0
    6.5376  -11.9384   26.6855 S   0  0  0  0  0  0  0  0  0  0  0  0
    6.3490  -13.4123   25.6458 C   0  0  0  0  0  0  0  0  0  0  0  0
    7.9117  -13.6789   24.7565 C   0  0  0  0  0  0  0  0  0  0  0  0
    7.7759  -14.9050   23.9157 C   0  0  2  0  0  0  0  0  0  0  0  0
    9.1206  -15.1858   23.2330 N   0  0  0  0  0  0  0  0  0  0  0  0
    8.9683  -16.3451   22.4223 C   0  0  0  0  0  0  0  0  0  0  0  0
   10.1915  -15.3437   24.2605 O   0  0  0  0  0  0  0  0  0  0  0  0
   10.3447  -14.5410   25.2109 O   0  0  0  0  0  0  0  0  0  0  0  0
   10.2466  -14.2297   30.8611 C   0  0  0  0  0  0  0  0  0  0  0  0
   10.2734  -15.0732   29.7556 C   0  0  0  0  0  0  0  0  0  0  0  0
   10.8288  -16.3315   29.7772 C   0  0  0  0  0  0  0  0  0  0  0  0
   10.8284  -17.1266   28.6522 C   0  0  0  0  0  0  0  0  0  0  0  0
   10.2721  -16.7056   27.4444 C   0  0  0  0  0  0  0  0  0  0  0  0
   10.2995  -17.5559   26.2347 C   0  0  2  0  0  0  0  0  0  0  0  0
   11.4598  -17.2326   25.3832 N   0  0  0  0  0  0  0  0  0  0  0  0
   11.1085  -16.4218   24.2227 C   0  0  0  0  0  0  0  0  0  0  0  0
   12.0805  -18.4654   24.8558 O   0  0  0  0  0  0  0  0  0  0  0  0
   12.7495  -19.2876   25.5346 C   0  0  0  0  0  0  0  0  0  0  0  0
    9.7292  -15.4300   27.4863 C   0  0  0  0  0  0  0  0  0  0  0  0
    9.7185  -14.6267   28.5877 O   0  0  0  0  0  0  0  0  0  0  0  0
  2  1  1  0
  3  2  2  0
  4  2  1  0
  5  4  1  0
  6  5  1  0
  7  6  1  0
  8  7  1  0
  8  9  1  6
 10  8  1  0
 10 11  2  0
 12 13  1  0
 13 14  1  0
 14 15  1  0
 16 15  1  6
 16 18  1  0
 16 17  1  0
 17 10  1  0
 18 27  1  0
 19 18  2  0
 21 20  1  0
 21 31  2  0
 22 21  1  0
 23 22  2  0
 23 24  1  0
 24 30  2  0
 25 24  1  0
 26 25  1  1
 26 28  1  0
 27 26  1  0
 28 29  2  0
 28 32  1  0
 30 31  1  0
M  END
$$$$
