RMY.pdb
     RDKit          3D

 32 32  0  0  1  0  0  0  0  0999 V2000
    7.7176  -12.3983   14.6131 N   0  0  0  0  0  0  0  0  0  0  0  0
    7.7158  -13.6493   13.9508 C   0  0  0  0  0  0  0  0  0  0  0  0
    8.0068  -13.7334   12.6826 N   0  0  0  0  0  0  0  0  0  0  0  0
    7.3900  -14.8091   14.6952 N   0  0  0  0  0  0  0  0  0  0  0  0
    7.0205  -14.7150   16.0849 C   0  0  0  0  0  0  0  0  0  0  0  0
    8.1938  -14.2128   16.8700 C   0  0  0  0  0  0  0  0  0  0  0  0
    8.0070  -14.1491   18.3416 C   0  0  0  0  0  0  0  0  0  0  0  0
    8.4658  -15.3399   19.1173 C   0  0  2  0  0  0  0  0  0  0  0  0
    7.4930  -16.4017   19.2069 N   0  0  0  0  0  0  0  0  0  0  0  0
    8.8490  -14.8416   20.4840 C   0  0  0  0  0  0  0  0  0  0  0  0
    9.7937  -14.0152   20.5335 O   0  0  0  0  0  0  0  0  0  0  0  0
    8.0318  -14.6611   12.2259 C   0  0  0  0  0  0  0  0  0  0  0  0
    6.5227  -12.7270   26.2869 S   0  0  0  0  0  0  0  0  0  0  0  0
    7.1005  -12.2687   24.6301 C   0  0  0  0  0  0  0  0  0  0  0  0
    6.7184  -13.6404   23.5002 C   0  0  0  0  0  0  0  0  0  0  0  0
    7.5260  -14.8286   23.9063 C   0  0  2  0  0  0  0  0  0  0  0  0
    8.6992  -14.9839   22.9303 N   0  0  0  0  0  0  0  0  0  0  0  0
    8.1661  -15.2935   21.6480 C   0  0  0  0  0  0  0  0  0  0  0  0
    9.6402  -16.0310   23.4260 O   0  0  0  0  0  0  0  0  0  0  0  0
    9.4064  -17.2581   23.3229 O   0  0  0  0  0  0  0  0  0  0  0  0
   11.1273  -15.8855   31.8502 C   0  0  0  0  0  0  0  0  0  0  0  0
   10.8685  -15.7274   30.4929 C   0  0  0  0  0  0  0  0  0  0  0  0
   10.4836  -16.7608   29.6706 C   0  0  0  0  0  0  0  0  0  0  0  0
   10.2395  -16.5488   28.3314 C   0  0  0  0  0  0  0  0  0  0  0  0
   10.3674  -15.2910   27.7425 C   0  0  0  0  0  0  0  0  0  0  0  0
   10.1286  -15.0779   26.2986 C   0  0  1  0  0  0  0  0  0  0  0  0
   11.1108  -15.8160   25.4823 N   0  0  0  0  0  0  0  0  0  0  0  0
   10.8669  -15.6970   24.0491 C   0  0  0  0  0  0  0  0  0  0  0  0
   11.0679  -17.2601   25.7921 O   0  0  0  0  0  0  0  0  0  0  0  0
   10.0966  -18.0240   25.5530 C   0  0  0  0  0  0  0  0  0  0  0  0
   10.7580  -14.2921   28.6218 C   0  0  0  0  0  0  0  0  0  0  0  0
   11.0044  -14.4794   29.9496 O   0  0  0  0  0  0  0  0  0  0  0  0
  2  1  1  0
  3  2  2  0
  4  2  1  0
  5  4  1  0
  6  5  1  0
  7  6  1  0
  8  7  1  0
  8  9  1  1
 10  8  1  0
 10 11  2  0
 12 13  1  0
 13 14  1  0
 14 15  1  0
 16 15  1  6
 16 18  1  0
 16 17  1  0
 17 10  1  0
 18 27  1  0
 19 18  2  0
 21 20  1  0
 21 31  2  0
 22 21  1  0
 23 22  2  0
 23 24  1  0
 24 30  2  0
 25 24  1  0
 26 25  1  6
 26 28  1  0
 27 26  1  0
 28 29  2  0
 28 32  1  0
 30 31  1  0
M  END
$$$$
