RMY.pdb
     RDKit          3D

 32 32  0  0  1  0  0  0  0  0999 V2000
    7.8607  -14.0489   14.9110 N   0  0  0  0  0  0  0  0  0  0  0  0
    7.9901  -13.5907   16.2440 C   0  0  0  0  0  0  0  0  0  0  0  0
    8.1747  -12.3255   16.4998 N   0  0  0  0  0  0  0  0  0  0  0  0
    7.9157  -14.5364   17.2954 N   0  0  0  0  0  0  0  0  0  0  0  0
    7.6768  -15.9304   17.0191 C   0  0  0  0  0  0  0  0  0  0  0  0
    7.5567  -16.6723   18.3155 C   0  0  0  0  0  0  0  0  0  0  0  0
    8.3569  -16.1341   19.4444 C   0  0  0  0  0  0  0  0  0  0  0  0
    8.5916  -17.0637   20.5893 C   0  0  2  0  0  0  0  0  0  0  0  0
    7.4165  -17.7788   21.0248 N   0  0  0  0  0  0  0  0  0  0  0  0
    9.1643  -16.2347   21.7064 C   0  0  0  0  0  0  0  0  0  0  0  0
   10.2933  -15.7237   21.5016 O   0  0  0  0  0  0  0  0  0  0  0  0
    8.3300  -12.0203   17.4758 C   0  0  0  0  0  0  0  0  0  0  0  0
    6.3522  -12.1209   26.3660 S   0  0  0  0  0  0  0  0  0  0  0  0
    7.4568  -12.0586   24.9290 C   0  0  0  0  0  0  0  0  0  0  0  0
    7.3076  -13.6339   24.0343 C   0  0  0  0  0  0  0  0  0  0  0  0
    7.9683  -14.7022   24.8411 C   0  0  2  0  0  0  0  0  0  0  0  0
    9.0720  -15.3482   23.9938 N   0  0  0  0  0  0  0  0  0  0  0  0
    8.4504  -16.0499   22.9236 C   0  0  0  0  0  0  0  0  0  0  0  0
    9.9156  -16.2367   24.8461 O   0  0  0  0  0  0  0  0  0  0  0  0
    9.4781  -17.2849   25.3760 O   0  0  0  0  0  0  0  0  0  0  0  0
    9.4008  -13.9268   30.6498 C   0  0  0  0  0  0  0  0  0  0  0  0
    9.9494  -14.7879   29.7054 C   0  0  0  0  0  0  0  0  0  0  0  0
   10.1990  -14.4226   28.4029 C   0  0  0  0  0  0  0  0  0  0  0  0
   10.7444  -15.3163   27.5075 C   0  0  0  0  0  0  0  0  0  0  0  0
   11.0696  -16.6241   27.8670 C   0  0  0  0  0  0  0  0  0  0  0  0
   11.6306  -17.5843   26.8921 C   0  0  2  0  0  0  0  0  0  0  0  0
   12.2048  -16.8854   25.7269 N   0  0  0  0  0  0  0  0  0  0  0  0
   11.2758  -15.9453   25.1098 C   0  0  0  0  0  0  0  0  0  0  0  0
   12.5812  -17.8496   24.6725 O   0  0  0  0  0  0  0  0  0  0  0  0
   13.1101  -18.9739   24.8739 C   0  0  0  0  0  0  0  0  0  0  0  0
   10.7945  -16.9314   29.1912 C   0  0  0  0  0  0  0  0  0  0  0  0
   10.2556  -16.0633   30.0938 O   0  0  0  0  0  0  0  0  0  0  0  0
  2  1  1  0
  3  2  2  0
  4  2  1  0
  5  4  1  0
  6  5  1  0
  7  6  1  0
  8  7  1  0
  8  9  1  1
 10  8  1  0
 10 11  2  0
 12 13  1  0
 13 14  1  0
 14 15  1  0
 16 15  1  6
 16 18  1  0
 16 17  1  0
 17 10  1  0
 18 27  1  0
 19 18  2  0
 21 20  1  0
 21 31  2  0
 22 21  1  0
 23 22  2  0
 23 24  1  0
 24 30  2  0
 25 24  1  0
 26 25  1  1
 26 28  1  0
 27 26  1  0
 28 29  2  0
 28 32  1  0
 30 31  1  0
M  END
$$$$
