RMY.pdb
     RDKit          3D

 32 32  0  0  1  0  0  0  0  0999 V2000
    8.7773  -12.0808   18.2824 N   0  0  0  0  0  0  0  0  0  0  0  0
    8.7369  -13.1805   17.3921 C   0  0  0  0  0  0  0  0  0  0  0  0
    9.3994  -13.1549   16.2693 N   0  0  0  0  0  0  0  0  0  0  0  0
    7.9603  -14.3104   17.7463 N   0  0  0  0  0  0  0  0  0  0  0  0
    8.5301  -15.6339   17.7261 C   0  0  0  0  0  0  0  0  0  0  0  0
    8.0283  -16.4005   18.9118 C   0  0  0  0  0  0  0  0  0  0  0  0
    8.9170  -16.4057   20.1012 C   0  0  0  0  0  0  0  0  0  0  0  0
    8.4599  -17.2251   21.2630 C   0  0  2  0  0  0  0  0  0  0  0  0
    7.0464  -17.5146   21.2668 N   0  0  0  0  0  0  0  0  0  0  0  0
    8.8609  -16.4743   22.5034 C   0  0  0  0  0  0  0  0  0  0  0  0
   10.0862  -16.4646   22.7798 O   0  0  0  0  0  0  0  0  0  0  0  0
    9.4201  -13.9979   15.6704 C   0  0  0  0  0  0  0  0  0  0  0  0
    6.2646  -10.9313   25.5616 S   0  0  0  0  0  0  0  0  0  0  0  0
    6.2469  -12.3689   26.6670 C   0  0  0  0  0  0  0  0  0  0  0  0
    7.5909  -13.4842   26.1632 C   0  0  0  0  0  0  0  0  0  0  0  0
    7.1660  -14.2134   24.9318 C   0  0  2  0  0  0  0  0  0  0  0  0
    8.3096  -15.1325   24.4839 N   0  0  0  0  0  0  0  0  0  0  0  0
    7.8897  -15.8157   23.3086 C   0  0  0  0  0  0  0  0  0  0  0  0
    8.6755  -16.0672   25.5884 O   0  0  0  0  0  0  0  0  0  0  0  0
    7.9175  -16.9852   25.9805 O   0  0  0  0  0  0  0  0  0  0  0  0
   12.9778  -20.8752   31.5102 C   0  0  0  0  0  0  0  0  0  0  0  0
   12.6708  -20.0235   30.4544 C   0  0  0  0  0  0  0  0  0  0  0  0
   13.0440  -18.7000   30.4167 C   0  0  0  0  0  0  0  0  0  0  0  0
   12.7134  -17.8999   29.3451 C   0  0  0  0  0  0  0  0  0  0  0  0
   11.9914  -18.3808   28.2530 C   0  0  0  0  0  0  0  0  0  0  0  0
   11.6185  -17.5077   27.1190 C   0  0  1  0  0  0  0  0  0  0  0  0
   10.3168  -16.8555   27.3553 N   0  0  0  0  0  0  0  0  0  0  0  0
    9.9146  -15.9718   26.2666 C   0  0  0  0  0  0  0  0  0  0  0  0
   10.3647  -16.0192   28.5725 O   0  0  0  0  0  0  0  0  0  0  0  0
   10.2936  -16.4520   29.7523 C   0  0  0  0  0  0  0  0  0  0  0  0
   11.6445  -19.7201   28.3502 C   0  0  0  0  0  0  0  0  0  0  0  0
   11.9611  -20.5299   29.4003 O   0  0  0  0  0  0  0  0  0  0  0  0
  2  1  1  0
  3  2  2  0
  4  2  1  0
  5  4  1  0
  6  5  1  0
  7  6  1  0
  8  7  1  0
  8  9  1  6
 10  8  1  0
 10 11  2  0
 12 13  1  0
 13 14  1  0
 14 15  1  0
 16 15  1  6
 16 18  1  0
 16 17  1  0
 17 10  1  0
 18 27  1  0
 19 18  2  0
 21 20  1  0
 21 31  2  0
 22 21  1  0
 23 22  2  0
 23 24  1  0
 24 30  2  0
 25 24  1  0
 26 25  1  6
 26 28  1  0
 27 26  1  0
 28 29  2  0
 28 32  1  0
 30 31  1  0
M  END
$$$$
