RMY.pdb
     RDKit          3D

 32 32  0  0  1  0  0  0  0  0999 V2000
    7.2181  -14.2862   14.3063 N   0  0  0  0  0  0  0  0  0  0  0  0
    7.9942  -14.7366   15.4010 C   0  0  0  0  0  0  0  0  0  0  0  0
    7.8651  -15.9520   15.8555 N   0  0  0  0  0  0  0  0  0  0  0  0
    8.9146  -13.8383   15.9937 N   0  0  0  0  0  0  0  0  0  0  0  0
    8.4643  -12.8067   16.8935 C   0  0  0  0  0  0  0  0  0  0  0  0
    7.5182  -13.4052   17.8895 C   0  0  0  0  0  0  0  0  0  0  0  0
    7.9890  -13.4239   19.2976 C   0  0  0  0  0  0  0  0  0  0  0  0
    8.6524  -14.6811   19.7551 C   0  0  2  0  0  0  0  0  0  0  0  0
    7.8629  -15.8735   19.5636 N   0  0  0  0  0  0  0  0  0  0  0  0
    8.9910  -14.4849   21.2076 C   0  0  0  0  0  0  0  0  0  0  0  0
    9.8676  -13.6232   21.4662 O   0  0  0  0  0  0  0  0  0  0  0  0
    8.4689  -16.2726   16.6317 C   0  0  0  0  0  0  0  0  0  0  0  0
    6.2368  -13.5023   26.7683 S   0  0  0  0  0  0  0  0  0  0  0  0
    6.1307  -12.5697   25.2166 C   0  0  0  0  0  0  0  0  0  0  0  0
    7.3934  -13.2184   24.0814 C   0  0  0  0  0  0  0  0  0  0  0  0
    7.6631  -14.6433   24.4357 C   0  0  2  0  0  0  0  0  0  0  0  0
    8.8130  -15.1595   23.5614 N   0  0  0  0  0  0  0  0  0  0  0  0
    8.3423  -15.2444   22.2214 C   0  0  0  0  0  0  0  0  0  0  0  0
    9.2994  -16.4715   24.0804 O   0  0  0  0  0  0  0  0  0  0  0  0
    9.7200  -17.3844   23.3317 O   0  0  0  0  0  0  0  0  0  0  0  0
   11.7467  -13.2557   29.7150 C   0  0  0  0  0  0  0  0  0  0  0  0
   11.2809  -14.4527   29.1817 C   0  0  0  0  0  0  0  0  0  0  0  0
   12.0811  -15.5533   28.9799 C   0  0  0  0  0  0  0  0  0  0  0  0
   11.5677  -16.7157   28.4477 C   0  0  0  0  0  0  0  0  0  0  0  0
   10.2257  -16.8398   28.0886 C   0  0  0  0  0  0  0  0  0  0  0  0
    9.6893  -18.0830   27.4938 C   0  0  2  0  0  0  0  0  0  0  0  0
    9.7573  -18.0406   26.0209 N   0  0  0  0  0  0  0  0  0  0  0  0
    9.3151  -16.7665   25.4651 C   0  0  0  0  0  0  0  0  0  0  0  0
    8.8868  -19.0767   25.4275 O   0  0  0  0  0  0  0  0  0  0  0  0
    7.8413  -18.8517   24.7638 C   0  0  0  0  0  0  0  0  0  0  0  0
    9.4719  -15.6979   28.3154 C   0  0  0  0  0  0  0  0  0  0  0  0
    9.9589  -14.5379   28.8408 O   0  0  0  0  0  0  0  0  0  0  0  0
  2  1  1  0
  3  2  2  0
  4  2  1  0
  5  4  1  0
  6  5  1  0
  7  6  1  0
  8  7  1  0
  8  9  1  1
 10  8  1  0
 10 11  2  0
 12 13  1  0
 13 14  1  0
 14 15  1  0
 16 15  1  6
 16 18  1  0
 16 17  1  0
 17 10  1  0
 18 27  1  0
 19 18  2  0
 21 20  1  0
 21 31  2  0
 22 21  1  0
 23 22  2  0
 23 24  1  0
 24 30  2  0
 25 24  1  0
 26 25  1  1
 26 28  1  0
 27 26  1  0
 28 29  2  0
 28 32  1  0
 30 31  1  0
M  END
$$$$
