RMY.pdb
     RDKit          3D

 32 32  0  0  1  0  0  0  0  0999 V2000
    7.9663  -23.1505   20.0062 N   0  0  0  0  0  0  0  0  0  0  0  0
    8.6215  -21.9405   19.6745 C   0  0  0  0  0  0  0  0  0  0  0  0
    8.2126  -21.2130   18.6725 N   0  0  0  0  0  0  0  0  0  0  0  0
    9.7323  -21.5361   20.4541 N   0  0  0  0  0  0  0  0  0  0  0  0
    9.5788  -20.5719   21.5140 C   0  0  0  0  0  0  0  0  0  0  0  0
    9.5162  -19.1978   20.9199 C   0  0  0  0  0  0  0  0  0  0  0  0
    9.4177  -18.0782   21.8902 C   0  0  0  0  0  0  0  0  0  0  0  0
    9.2828  -16.7098   21.3076 C   0  0  2  0  0  0  0  0  0  0  0  0
   10.1324  -16.4626   20.1679 N   0  0  0  0  0  0  0  0  0  0  0  0
    9.5735  -15.7384   22.4188 C   0  0  0  0  0  0  0  0  0  0  0  0
   10.7686  -15.3727   22.5437 O   0  0  0  0  0  0  0  0  0  0  0  0
    8.7447  -20.3669   18.4064 C   0  0  0  0  0  0  0  0  0  0  0  0
    5.8309  -11.9422   27.6179 S   0  0  0  0  0  0  0  0  0  0  0  0
    6.7053  -11.4630   26.1031 C   0  0  0  0  0  0  0  0  0  0  0  0
    8.0591  -12.6459   25.8351 C   0  0  0  0  0  0  0  0  0  0  0  0
    7.7084  -13.5128   24.6714 C   0  0  2  0  0  0  0  0  0  0  0  0
    8.8744  -14.4727   24.4028 N   0  0  0  0  0  0  0  0  0  0  0  0
    8.5366  -15.2693   23.2734 C   0  0  0  0  0  0  0  0  0  0  0  0
    9.1505  -15.2930   25.6187 O   0  0  0  0  0  0  0  0  0  0  0  0
    8.3375  -16.1333   26.0702 O   0  0  0  0  0  0  0  0  0  0  0  0
   13.2057  -19.9104   23.0148 C   0  0  0  0  0  0  0  0  0  0  0  0
   12.9573  -19.0334   24.0653 C   0  0  0  0  0  0  0  0  0  0  0  0
   13.2629  -17.6929   24.0204 C   0  0  0  0  0  0  0  0  0  0  0  0
   12.9951  -16.8679   25.0906 C   0  0  0  0  0  0  0  0  0  0  0  0
   12.4069  -17.3396   26.2640 C   0  0  0  0  0  0  0  0  0  0  0  0
   12.1470  -16.4516   27.4178 C   0  0  2  0  0  0  0  0  0  0  0  0
   10.7334  -16.0322   27.4586 N   0  0  0  0  0  0  0  0  0  0  0  0
   10.3610  -15.1698   26.3427 C   0  0  0  0  0  0  0  0  0  0  0  0
   10.4516  -15.2640   28.6889 O   0  0  0  0  0  0  0  0  0  0  0  0
   10.0505  -14.0714   28.7226 C   0  0  0  0  0  0  0  0  0  0  0  0
   12.1234  -18.6972   26.2482 C   0  0  0  0  0  0  0  0  0  0  0  0
   12.3795  -19.5315   25.2008 O   0  0  0  0  0  0  0  0  0  0  0  0
  2  1  1  0
  3  2  2  0
  4  2  1  0
  5  4  1  0
  6  5  1  0
  7  6  1  0
  8  7  1  0
  8  9  1  6
 10  8  1  0
 10 11  2  0
 12 13  1  0
 13 14  1  0
 14 15  1  0
 16 15  1  6
 16 18  1  0
 16 17  1  0
 17 10  1  0
 18 27  1  0
 19 18  2  0
 21 20  1  0
 21 31  2  0
 22 21  1  0
 23 22  2  0
 23 24  1  0
 24 30  2  0
 25 24  1  0
 26 25  1  6
 26 28  1  0
 27 26  1  0
 28 29  2  0
 28 32  1  0
 30 31  1  0
M  END
$$$$
