RMY.pdb
     RDKit          3D

 32 32  0  0  1  0  0  0  0  0999 V2000
    8.5374  -12.3989   15.3064 N   0  0  0  0  0  0  0  0  0  0  0  0
    7.7625  -13.3269   14.5701 C   0  0  0  0  0  0  0  0  0  0  0  0
    7.2849  -13.0156   13.3974 N   0  0  0  0  0  0  0  0  0  0  0  0
    7.5158  -14.6018   15.1348 N   0  0  0  0  0  0  0  0  0  0  0  0
    7.9622  -14.9178   16.4681 C   0  0  0  0  0  0  0  0  0  0  0  0
    6.9182  -14.4804   17.4499 C   0  0  0  0  0  0  0  0  0  0  0  0
    7.3859  -14.2818   18.8450 C   0  0  0  0  0  0  0  0  0  0  0  0
    7.9290  -15.4885   19.5372 C   0  0  2  0  0  0  0  0  0  0  0  0
    6.9526  -16.5217   19.7844 N   0  0  0  0  0  0  0  0  0  0  0  0
    8.5432  -15.0069   20.8232 C   0  0  0  0  0  0  0  0  0  0  0  0
    9.5044  -14.2051   20.7182 O   0  0  0  0  0  0  0  0  0  0  0  0
    6.6890  -13.6943   12.8933 C   0  0  0  0  0  0  0  0  0  0  0  0
    6.5020  -11.2634   26.0134 S   0  0  0  0  0  0  0  0  0  0  0  0
    6.6876  -13.0651   25.9233 C   0  0  0  0  0  0  0  0  0  0  0  0
    7.7262  -13.4537   24.4830 C   0  0  0  0  0  0  0  0  0  0  0  0
    7.9098  -14.9338   24.4159 C   0  0  2  0  0  0  0  0  0  0  0  0
    8.8463  -15.2617   23.2461 N   0  0  0  0  0  0  0  0  0  0  0  0
    8.0483  -15.4470   22.0828 C   0  0  0  0  0  0  0  0  0  0  0  0
    9.6688  -16.4636   23.5722 O   0  0  0  0  0  0  0  0  0  0  0  0
    9.2428  -17.6348   23.4391 O   0  0  0  0  0  0  0  0  0  0  0  0
   11.1174  -15.9419   31.8426 C   0  0  0  0  0  0  0  0  0  0  0  0
   11.0745  -15.7938   30.4604 C   0  0  0  0  0  0  0  0  0  0  0  0
   11.6426  -16.6903   29.5853 C   0  0  0  0  0  0  0  0  0  0  0  0
   11.5707  -16.4953   28.2234 C   0  0  0  0  0  0  0  0  0  0  0  0
   10.9264  -15.3923   27.6634 C   0  0  0  0  0  0  0  0  0  0  0  0
   10.8769  -15.1775   26.2009 C   0  0  1  0  0  0  0  0  0  0  0  0
   11.3481  -16.3700   25.4718 N   0  0  0  0  0  0  0  0  0  0  0  0
   10.9944  -16.3512   24.0568 C   0  0  0  0  0  0  0  0  0  0  0  0
   10.7471  -17.5974   26.0336 O   0  0  0  0  0  0  0  0  0  0  0  0
   11.3921  -18.5665   26.5123 C   0  0  0  0  0  0  0  0  0  0  0  0
   10.3752  -14.5260   28.5957 C   0  0  0  0  0  0  0  0  0  0  0  0
   10.4342  -14.6995   29.9467 O   0  0  0  0  0  0  0  0  0  0  0  0
  2  1  1  0
  3  2  2  0
  4  2  1  0
  5  4  1  0
  6  5  1  0
  7  6  1  0
  8  7  1  0
  8  9  1  1
 10  8  1  0
 10 11  2  0
 12 13  1  0
 13 14  1  0
 14 15  1  0
 16 15  1  6
 16 18  1  0
 16 17  1  0
 17 10  1  0
 18 27  1  0
 19 18  2  0
 21 20  1  0
 21 31  2  0
 22 21  1  0
 23 22  2  0
 23 24  1  0
 24 30  2  0
 25 24  1  0
 26 25  1  6
 26 28  1  0
 27 26  1  0
 28 29  2  0
 28 32  1  0
 30 31  1  0
M  END
$$$$
