RMY.pdb
     RDKit          3D

 32 32  0  0  1  0  0  0  0  0999 V2000
    7.4202  -12.7399   18.7291 N   0  0  0  0  0  0  0  0  0  0  0  0
    7.8490  -13.3647   17.5335 C   0  0  0  0  0  0  0  0  0  0  0  0
    7.1305  -13.2921   16.4477 N   0  0  0  0  0  0  0  0  0  0  0  0
    9.0758  -14.0719   17.5413 N   0  0  0  0  0  0  0  0  0  0  0  0
    9.8281  -14.2320   18.7599 C   0  0  0  0  0  0  0  0  0  0  0  0
    9.7329  -15.6582   19.2097 C   0  0  0  0  0  0  0  0  0  0  0  0
   10.3751  -15.9694   20.5117 C   0  0  0  0  0  0  0  0  0  0  0  0
    9.5314  -16.6959   21.5068 C   0  0  2  0  0  0  0  0  0  0  0  0
    8.1375  -16.7923   21.1467 N   0  0  0  0  0  0  0  0  0  0  0  0
    9.7020  -15.9809   22.8193 C   0  0  0  0  0  0  0  0  0  0  0  0
   10.8685  -15.6175   23.1108 O   0  0  0  0  0  0  0  0  0  0  0  0
    7.4844  -13.7159   15.5732 C   0  0  0  0  0  0  0  0  0  0  0  0
    6.3419  -11.2337   26.8596 S   0  0  0  0  0  0  0  0  0  0  0  0
    7.9253  -12.0459   26.5107 C   0  0  0  0  0  0  0  0  0  0  0  0
    7.6977  -13.8375   26.7167 C   0  0  0  0  0  0  0  0  0  0  0  0
    7.5001  -14.4488   25.3691 C   0  0  1  0  0  0  0  0  0  0  0  0
    8.8061  -15.1300   24.9407 N   0  0  0  0  0  0  0  0  0  0  0  0
    8.5893  -15.7376   23.6726 C   0  0  0  0  0  0  0  0  0  0  0  0
    9.2338  -16.1125   25.9795 O   0  0  0  0  0  0  0  0  0  0  0  0
    8.6268  -17.1893   26.1869 O   0  0  0  0  0  0  0  0  0  0  0  0
   14.0565  -19.5099   22.9781 C   0  0  0  0  0  0  0  0  0  0  0  0
   13.6358  -18.9274   24.1689 C   0  0  0  0  0  0  0  0  0  0  0  0
   13.2845  -19.6529   25.2836 C   0  0  0  0  0  0  0  0  0  0  0  0
   12.8743  -19.0247   26.4389 C   0  0  0  0  0  0  0  0  0  0  0  0
   12.7935  -17.6360   26.5415 C   0  0  0  0  0  0  0  0  0  0  0  0
   12.3271  -16.9711   27.7775 C   0  0  2  0  0  0  0  0  0  0  0  0
   10.8581  -16.8383   27.7884 N   0  0  0  0  0  0  0  0  0  0  0  0
   10.3635  -15.8844   26.8019 C   0  0  0  0  0  0  0  0  0  0  0  0
   10.3866  -16.3573   29.1036 O   0  0  0  0  0  0  0  0  0  0  0  0
    9.8307  -15.2476   29.3126 C   0  0  0  0  0  0  0  0  0  0  0  0
   13.1597  -16.9615   25.3863 C   0  0  0  0  0  0  0  0  0  0  0  0
   13.5686  -17.5626   24.2330 O   0  0  0  0  0  0  0  0  0  0  0  0
  2  1  1  0
  3  2  2  0
  4  2  1  0
  5  4  1  0
  6  5  1  0
  7  6  1  0
  8  7  1  0
  8  9  1  6
 10  8  1  0
 10 11  2  0
 12 13  1  0
 13 14  1  0
 14 15  1  0
 16 15  1  6
 16 18  1  0
 16 17  1  0
 17 10  1  0
 18 27  1  0
 19 18  2  0
 21 20  1  0
 21 31  2  0
 22 21  1  0
 23 22  2  0
 23 24  1  0
 24 30  2  0
 25 24  1  0
 26 25  1  6
 26 28  1  0
 27 26  1  0
 28 29  2  0
 28 32  1  0
 30 31  1  0
M  END
$$$$
