RMY.pdb
     RDKit          3D

 32 32  0  0  1  0  0  0  0  0999 V2000
    8.1830  -14.8914   15.1562 N   0  0  0  0  0  0  0  0  0  0  0  0
    7.9854  -13.7174   15.9220 C   0  0  0  0  0  0  0  0  0  0  0  0
    7.5436  -12.6241   15.3655 N   0  0  0  0  0  0  0  0  0  0  0  0
    8.2786  -13.7549   17.3069 N   0  0  0  0  0  0  0  0  0  0  0  0
    8.7809  -14.9569   17.9230 C   0  0  0  0  0  0  0  0  0  0  0  0
    7.6985  -15.5657   18.7615 C   0  0  0  0  0  0  0  0  0  0  0  0
    7.7384  -17.0439   18.8946 C   0  0  0  0  0  0  0  0  0  0  0  0
    8.0475  -17.5760   20.2552 C   0  0  2  0  0  0  0  0  0  0  0  0
    7.1903  -18.6562   20.6799 N   0  0  0  0  0  0  0  0  0  0  0  0
    7.9585  -16.4113   21.2032 C   0  0  0  0  0  0  0  0  0  0  0  0
    7.4531  -15.3559   20.7467 O   0  0  0  0  0  0  0  0  0  0  0  0
    7.3866  -11.7835   15.9474 C   0  0  0  0  0  0  0  0  0  0  0  0
    6.4879  -13.5923   27.0126 S   0  0  0  0  0  0  0  0  0  0  0  0
    6.8212  -12.6968   25.4712 C   0  0  0  0  0  0  0  0  0  0  0  0
    8.2352  -13.4920   24.6514 C   0  0  0  0  0  0  0  0  0  0  0  0
    7.7246  -14.6077   23.8009 C   0  0  1  0  0  0  0  0  0  0  0  0
    8.9210  -15.3570   23.2005 N   0  0  0  0  0  0  0  0  0  0  0  0
    8.4272  -16.5180   22.5427 C   0  0  0  0  0  0  0  0  0  0  0  0
    9.9084  -15.6831   24.2710 O   0  0  0  0  0  0  0  0  0  0  0  0
   10.5814  -14.8077   24.8640 O   0  0  0  0  0  0  0  0  0  0  0  0
    9.7234  -13.0012   29.7700 C   0  0  0  0  0  0  0  0  0  0  0  0
    9.9985  -14.1588   29.0498 C   0  0  0  0  0  0  0  0  0  0  0  0
    9.0222  -14.9863   28.5454 C   0  0  0  0  0  0  0  0  0  0  0  0
    9.3504  -16.1220   27.8382 C   0  0  0  0  0  0  0  0  0  0  0  0
   10.6736  -16.4914   27.5974 C   0  0  0  0  0  0  0  0  0  0  0  0
   11.0166  -17.7264   26.8595 C   0  0  2  0  0  0  0  0  0  0  0  0
   11.3187  -17.4349   25.4455 N   0  0  0  0  0  0  0  0  0  0  0  0
   10.1464  -17.0158   24.6855 C   0  0  0  0  0  0  0  0  0  0  0  0
   11.8467  -18.6358   24.7656 O   0  0  0  0  0  0  0  0  0  0  0  0
   12.9673  -19.1626   24.9914 C   0  0  0  0  0  0  0  0  0  0  0  0
   11.6102  -15.6187   28.1308 C   0  0  0  0  0  0  0  0  0  0  0  0
   11.3080  -14.4899   28.8331 O   0  0  0  0  0  0  0  0  0  0  0  0
  2  1  1  0
  3  2  2  0
  4  2  1  0
  5  4  1  0
  6  5  1  0
  7  6  1  0
  8  7  1  0
  8  9  1  1
 10  8  1  0
 10 11  2  0
 12 13  1  0
 13 14  1  0
 14 15  1  0
 16 15  1  6
 16 18  1  0
 16 17  1  0
 17 10  1  0
 18 27  1  0
 19 18  2  0
 21 20  1  0
 21 31  2  0
 22 21  1  0
 23 22  2  0
 23 24  1  0
 24 30  2  0
 25 24  1  0
 26 25  1  1
 26 28  1  0
 27 26  1  0
 28 29  2  0
 28 32  1  0
 30 31  1  0
M  END
$$$$
