RMY.pdb
     RDKit          3D

 32 32  0  0  1  0  0  0  0  0999 V2000
   10.6040  -17.9418   12.8961 N   0  0  0  0  0  0  0  0  0  0  0  0
   10.5033  -16.5356   12.7694 C   0  0  0  0  0  0  0  0  0  0  0  0
   10.5588  -15.9654   11.5981 N   0  0  0  0  0  0  0  0  0  0  0  0
   10.3414  -15.7598   13.9429 N   0  0  0  0  0  0  0  0  0  0  0  0
    9.9033  -16.3664   15.1745 C   0  0  0  0  0  0  0  0  0  0  0  0
   11.0994  -16.6580   16.0287 C   0  0  0  0  0  0  0  0  0  0  0  0
   11.1319  -15.9789   17.3487 C   0  0  0  0  0  0  0  0  0  0  0  0
   11.0348  -16.8629   18.5483 C   0  0  2  0  0  0  0  0  0  0  0  0
   10.1810  -18.0126   18.3720 N   0  0  0  0  0  0  0  0  0  0  0  0
   10.5511  -15.9995   19.6812 C   0  0  0  0  0  0  0  0  0  0  0  0
   11.2806  -15.0257   19.9932 O   0  0  0  0  0  0  0  0  0  0  0  0
   10.4432  -14.9402   11.5243 C   0  0  0  0  0  0  0  0  0  0  0  0
    6.9476  -11.8421   19.3193 S   0  0  0  0  0  0  0  0  0  0  0  0
    7.6227  -12.9086   20.6215 C   0  0  0  0  0  0  0  0  0  0  0  0
    6.9326  -14.5755   20.3995 C   0  0  0  0  0  0  0  0  0  0  0  0
    7.4160  -15.4416   21.5153 C   0  0  2  0  0  0  0  0  0  0  0  0
    8.9485  -15.4933   21.4707 N   0  0  0  0  0  0  0  0  0  0  0  0
    9.3291  -16.2858   20.3520 C   0  0  0  0  0  0  0  0  0  0  0  0
    9.4786  -16.0303   22.7583 O   0  0  0  0  0  0  0  0  0  0  0  0
    9.8276  -17.2253   22.9036 O   0  0  0  0  0  0  0  0  0  0  0  0
   11.1431  -16.7728   31.4289 C   0  0  0  0  0  0  0  0  0  0  0  0
   10.8710  -16.2641   30.1634 C   0  0  0  0  0  0  0  0  0  0  0  0
   11.8475  -15.8401   29.2922 C   0  0  0  0  0  0  0  0  0  0  0  0
   11.5223  -15.3439   28.0489 C   0  0  0  0  0  0  0  0  0  0  0  0
   10.2021  -15.2452   27.6098 C   0  0  0  0  0  0  0  0  0  0  0  0
    9.8610  -14.6870   26.2834 C   0  0  2  0  0  0  0  0  0  0  0  0
    9.9278  -15.7241   25.2366 N   0  0  0  0  0  0  0  0  0  0  0  0
    9.6208  -15.2126   23.9054 C   0  0  0  0  0  0  0  0  0  0  0  0
    8.9507  -16.7998   25.5035 O   0  0  0  0  0  0  0  0  0  0  0  0
    7.7463  -16.7919   25.1376 C   0  0  0  0  0  0  0  0  0  0  0  0
    9.2651  -15.6874   28.5318 C   0  0  0  0  0  0  0  0  0  0  0  0
    9.5644  -16.1818   29.7666 O   0  0  0  0  0  0  0  0  0  0  0  0
  2  1  1  0
  3  2  2  0
  4  2  1  0
  5  4  1  0
  6  5  1  0
  7  6  1  0
  8  7  1  0
  8  9  1  6
 10  8  1  0
 10 11  2  0
 12 13  1  0
 13 14  1  0
 14 15  1  0
 16 15  1  6
 16 18  1  0
 16 17  1  0
 17 10  1  0
 18 27  1  0
 19 18  2  0
 21 20  1  0
 21 31  2  0
 22 21  1  0
 23 22  2  0
 23 24  1  0
 24 30  2  0
 25 24  1  0
 26 25  1  6
 26 28  1  0
 27 26  1  0
 28 29  2  0
 28 32  1  0
 30 31  1  0
M  END
$$$$
