RMY.pdb
     RDKit          3D

 32 32  0  0  1  0  0  0  0  0999 V2000
    7.3524  -17.6254   15.0430 N   0  0  0  0  0  0  0  0  0  0  0  0
    8.2544  -17.6222   16.1339 C   0  0  0  0  0  0  0  0  0  0  0  0
    9.5220  -17.8683   15.9525 N   0  0  0  0  0  0  0  0  0  0  0  0
    7.7506  -17.3465   17.4283 N   0  0  0  0  0  0  0  0  0  0  0  0
    8.6299  -17.3042   18.5693 C   0  0  0  0  0  0  0  0  0  0  0  0
    8.7024  -15.8969   19.0788 C   0  0  0  0  0  0  0  0  0  0  0  0
    7.5508  -15.4473   19.9012 C   0  0  0  0  0  0  0  0  0  0  0  0
    7.6238  -14.0538   20.4331 C   0  0  2  0  0  0  0  0  0  0  0  0
    8.3645  -13.1376   19.6003 N   0  0  0  0  0  0  0  0  0  0  0  0
    8.2320  -14.1485   21.8058 C   0  0  0  0  0  0  0  0  0  0  0  0
    9.4648  -13.9224   21.8881 O   0  0  0  0  0  0  0  0  0  0  0  0
   10.1555  -17.9074   16.7692 C   0  0  0  0  0  0  0  0  0  0  0  0
    6.4579  -10.0872   26.9729 S   0  0  0  0  0  0  0  0  0  0  0  0
    6.1360  -11.8556   26.7319 C   0  0  0  0  0  0  0  0  0  0  0  0
    7.2443  -12.4573   25.4228 C   0  0  0  0  0  0  0  0  0  0  0  0
    6.9947  -13.9155   25.2228 C   0  0  2  0  0  0  0  0  0  0  0  0
    8.0309  -14.4616   24.2324 N   0  0  0  0  0  0  0  0  0  0  0  0
    7.4372  -14.4777   22.9395 C   0  0  0  0  0  0  0  0  0  0  0  0
    8.4897  -15.8136   24.6674 O   0  0  0  0  0  0  0  0  0  0  0  0
    7.8353  -16.8583   24.4412 O   0  0  0  0  0  0  0  0  0  0  0  0
   12.9591  -19.9620   20.6150 C   0  0  0  0  0  0  0  0  0  0  0  0
   12.6482  -19.3044   21.8005 C   0  0  0  0  0  0  0  0  0  0  0  0
   12.6248  -17.9344   21.9223 C   0  0  0  0  0  0  0  0  0  0  0  0
   12.3098  -17.3340   23.1214 C   0  0  0  0  0  0  0  0  0  0  0  0
   12.0011  -18.0720   24.2639 C   0  0  0  0  0  0  0  0  0  0  0  0
   11.6897  -17.4189   25.5538 C   0  0  2  0  0  0  0  0  0  0  0  0
   10.2328  -17.3033   25.7535 N   0  0  0  0  0  0  0  0  0  0  0  0
    9.7052  -15.9987   25.3694 C   0  0  0  0  0  0  0  0  0  0  0  0
    9.8841  -17.4891   27.1773 O   0  0  0  0  0  0  0  0  0  0  0  0
    9.3003  -16.6378   27.8975 C   0  0  0  0  0  0  0  0  0  0  0  0
   12.0421  -19.4457   24.0778 C   0  0  0  0  0  0  0  0  0  0  0  0
   12.3508  -20.0608   22.9008 O   0  0  0  0  0  0  0  0  0  0  0  0
  2  1  1  0
  3  2  2  0
  4  2  1  0
  5  4  1  0
  6  5  1  0
  7  6  1  0
  8  7  1  0
  8  9  1  6
 10  8  1  0
 10 11  2  0
 12 13  1  0
 13 14  1  0
 14 15  1  0
 16 15  1  6
 16 18  1  0
 16 17  1  0
 17 10  1  0
 18 27  1  0
 19 18  2  0
 21 20  1  0
 21 31  2  0
 22 21  1  0
 23 22  2  0
 23 24  1  0
 24 30  2  0
 25 24  1  0
 26 25  1  6
 26 28  1  0
 27 26  1  0
 28 29  2  0
 28 32  1  0
 30 31  1  0
M  END
$$$$
