RMY.pdb
     RDKit          3D

 32 32  0  0  1  0  0  0  0  0999 V2000
   10.7177  -17.6433   19.0999 N   0  0  0  0  0  0  0  0  0  0  0  0
   11.0481  -17.2835   17.7714 C   0  0  0  0  0  0  0  0  0  0  0  0
   12.2722  -17.3917   17.3354 N   0  0  0  0  0  0  0  0  0  0  0  0
   10.0202  -16.8021   16.9246 N   0  0  0  0  0  0  0  0  0  0  0  0
    8.6868  -16.5907   17.4286 C   0  0  0  0  0  0  0  0  0  0  0  0
    8.6406  -15.2814   18.1557 C   0  0  0  0  0  0  0  0  0  0  0  0
    7.3210  -14.9021   18.7207 C   0  0  0  0  0  0  0  0  0  0  0  0
    7.2201  -13.5285   19.2976 C   0  0  2  0  0  0  0  0  0  0  0  0
    7.6834  -12.4801   18.4212 N   0  0  0  0  0  0  0  0  0  0  0  0
    8.0019  -13.5430   20.5828 C   0  0  0  0  0  0  0  0  0  0  0  0
    9.1654  -13.0721   20.5351 O   0  0  0  0  0  0  0  0  0  0  0  0
   12.5006  -17.0819   16.3754 C   0  0  0  0  0  0  0  0  0  0  0  0
    7.5578  -11.8795   27.9839 S   0  0  0  0  0  0  0  0  0  0  0  0
    6.6337  -12.4515   26.5322 C   0  0  0  0  0  0  0  0  0  0  0  0
    7.8249  -13.1186   25.3322 C   0  0  0  0  0  0  0  0  0  0  0  0
    7.1092  -13.3803   24.0484 C   0  0  2  0  0  0  0  0  0  0  0  0
    8.1236  -13.8794   23.0116 N   0  0  0  0  0  0  0  0  0  0  0  0
    7.4368  -14.0663   21.7795 C   0  0  0  0  0  0  0  0  0  0  0  0
    8.7763  -15.1306   23.4974 O   0  0  0  0  0  0  0  0  0  0  0  0
    8.1803  -16.2320   23.5485 O   0  0  0  0  0  0  0  0  0  0  0  0
   13.7433  -14.3957   18.6809 C   0  0  0  0  0  0  0  0  0  0  0  0
   13.4015  -14.7773   19.9740 C   0  0  0  0  0  0  0  0  0  0  0  0
   13.2272  -13.8841   21.0055 C   0  0  0  0  0  0  0  0  0  0  0  0
   12.8884  -14.3165   22.2688 C   0  0  0  0  0  0  0  0  0  0  0  0
   12.7056  -15.6663   22.5685 C   0  0  0  0  0  0  0  0  0  0  0  0
   12.3674  -16.1233   23.9338 C   0  0  2  0  0  0  0  0  0  0  0  0
   10.9185  -16.3631   24.0710 N   0  0  0  0  0  0  0  0  0  0  0  0
   10.1229  -15.1482   23.9345 C   0  0  0  0  0  0  0  0  0  0  0  0
   10.6045  -16.9173   25.4043 O   0  0  0  0  0  0  0  0  0  0  0  0
    9.8216  -16.3949   26.2401 C   0  0  0  0  0  0  0  0  0  0  0  0
   12.8954  -16.5159   21.4888 C   0  0  0  0  0  0  0  0  0  0  0  0
   13.2305  -16.1099   20.2311 O   0  0  0  0  0  0  0  0  0  0  0  0
  2  1  1  0
  3  2  2  0
  4  2  1  0
  5  4  1  0
  6  5  1  0
  7  6  1  0
  8  7  1  0
  8  9  1  6
 10  8  1  0
 10 11  2  0
 12 13  1  0
 13 14  1  0
 14 15  1  0
 16 15  1  6
 16 18  1  0
 16 17  1  0
 17 10  1  0
 18 27  1  0
 19 18  2  0
 21 20  1  0
 21 31  2  0
 22 21  1  0
 23 22  2  0
 23 24  1  0
 24 30  2  0
 25 24  1  0
 26 25  1  6
 26 28  1  0
 27 26  1  0
 28 29  2  0
 28 32  1  0
 30 31  1  0
M  END
$$$$
