NPT.pdb
     RDKit          3D

 23 23  0  0  1  0  0  0  0  0999 V2000
    7.4036  -12.7498   17.9658 N   0  0  0  0  0  0  0  0  0  0  0  0
    8.1077  -13.7875   18.6373 C   0  0  0  0  0  0  0  0  0  0  0  0
    8.2315  -14.9025   18.0695 O   0  0  0  0  0  0  0  0  0  0  0  0
    8.7104  -13.6368   19.9765 C   0  0  0  0  0  0  0  0  0  0  0  0
    7.9866  -14.5959   20.9221 C   0  0  2  0  0  0  0  0  0  0  0  0
    6.5905  -14.2547   21.0022 N   0  0  0  0  0  0  0  0  0  0  0  0
    8.6785  -14.6354   22.2247 C   0  0  0  0  0  0  0  0  0  0  0  0
    9.8744  -14.9987   22.2585 O   0  0  0  0  0  0  0  0  0  0  0  0
    8.0262  -14.2766   23.4125 N   0  0  0  0  0  0  0  0  0  0  0  0
    6.6769  -13.7735   23.5063 C   0  0  0  0  0  0  0  0  0  0  0  0
    6.3701  -13.5467   24.9692 C   0  0  0  0  0  0  0  0  0  0  0  0
    7.7099  -13.4852   25.6157 C   0  0  0  0  0  0  0  0  0  0  0  0
    8.5769  -14.3489   24.7327 C   0  0  1  0  0  0  0  0  0  0  0  0
    8.6220  -15.7001   25.2952 C   0  0  0  0  0  0  0  0  0  0  0  0
    7.5976  -16.3951   25.3344 O   0  0  0  0  0  0  0  0  0  0  0  0
   10.2750  -18.5359   23.8887 C   0  0  0  0  0  0  0  0  0  0  0  0
   10.7656  -18.5043   25.3042 C   0  0  1  0  0  0  0  0  0  0  0  0
   12.0625  -17.9914   25.3136 O   0  0  0  0  0  0  0  0  0  0  0  0
    9.9371  -17.6532   26.2233 C   0  0  2  0  0  0  0  0  0  0  0  0
    9.8264  -16.2861   25.8225 N   0  0  0  0  0  0  0  0  0  0  0  0
   10.3264  -17.8152   27.6504 C   0  0  0  0  0  0  0  0  0  0  0  0
   10.3315  -19.0553   28.2773 O   0  0  0  0  0  0  0  0  0  0  0  0
   10.6754  -16.8476   28.3837 O   0  0  0  0  0  0  0  0  0  0  0  0
  2  4  1  0
  2  1  1  0
  3  2  2  0
  5  4  1  0
  5  6  1  1
  5  7  1  0
  7  8  2  0
  9  7  1  0
  9 13  1  0
 10  9  1  0
 11 10  1  0
 11 12  1  0
 12 13  1  0
 13 14  1  1
 14 20  1  0
 14 15  2  0
 17 16  1  6
 17 19  1  0
 18 17  1  0
 19 21  1  0
 19 20  1  6
 21 22  1  0
 23 21  2  0
M  END
$$$$
