NPT.pdb
     RDKit          3D

 23 23  0  0  1  0  0  0  0  0999 V2000
    7.6196  -15.8941   13.8747 N   0  0  0  0  0  0  0  0  0  0  0  0
    7.5609  -16.7870   14.9806 C   0  0  0  0  0  0  0  0  0  0  0  0
    6.8113  -17.7938   14.9083 O   0  0  0  0  0  0  0  0  0  0  0  0
    8.3346  -16.6043   16.2247 C   0  0  0  0  0  0  0  0  0  0  0  0
    9.1467  -15.3167   16.0815 C   0  0  2  0  0  0  0  0  0  0  0  0
   10.1088  -15.4520   15.0195 N   0  0  0  0  0  0  0  0  0  0  0  0
    9.7283  -14.9416   17.3846 C   0  0  0  0  0  0  0  0  0  0  0  0
   10.9158  -15.2515   17.6236 O   0  0  0  0  0  0  0  0  0  0  0  0
    8.9815  -14.2511   18.3493 N   0  0  0  0  0  0  0  0  0  0  0  0
    7.6402  -13.7507   18.1677 C   0  0  0  0  0  0  0  0  0  0  0  0
    7.2104  -13.1029   19.4644 C   0  0  0  0  0  0  0  0  0  0  0  0
    8.4889  -12.8449   20.1824 C   0  0  0  0  0  0  0  0  0  0  0  0
    9.4119  -13.9261   19.6762 C   0  0  1  0  0  0  0  0  0  0  0  0
    9.3785  -15.0500   20.6143 C   0  0  0  0  0  0  0  0  0  0  0  0
    8.3833  -15.7849   20.6737 O   0  0  0  0  0  0  0  0  0  0  0  0
   11.7653  -17.8668   20.5540 C   0  0  0  0  0  0  0  0  0  0  0  0
   11.6893  -17.4444   21.9896 C   0  0  1  0  0  0  0  0  0  0  0  0
   12.8588  -16.7571   22.3132 O   0  0  0  0  0  0  0  0  0  0  0  0
   10.5325  -16.5396   22.3039 C   0  0  2  0  0  0  0  0  0  0  0  0
   10.4700  -15.3599   21.4999 N   0  0  0  0  0  0  0  0  0  0  0  0
   10.4092  -16.2624   23.7608 C   0  0  0  0  0  0  0  0  0  0  0  0
   10.2409  -17.2788   24.6932 O   0  0  0  0  0  0  0  0  0  0  0  0
   10.4485  -15.0968   24.2462 O   0  0  0  0  0  0  0  0  0  0  0  0
  2  4  1  0
  2  1  1  0
  3  2  2  0
  5  4  1  0
  5  6  1  6
  5  7  1  0
  7  8  2  0
  9  7  1  0
  9 13  1  0
 10  9  1  0
 11 10  1  0
 11 12  1  0
 12 13  1  0
 13 14  1  1
 14 20  1  0
 14 15  2  0
 17 16  1  6
 17 19  1  0
 18 17  1  0
 19 21  1  0
 19 20  1  6
 21 22  1  0
 23 21  2  0
M  END
$$$$
