NPT.pdb
     RDKit          3D

 23 23  0  0  1  0  0  0  0  0999 V2000
    6.2659  -14.9742   20.2776 N   0  0  0  0  0  0  0  0  0  0  0  0
    6.0561  -15.7962   21.4195 C   0  0  0  0  0  0  0  0  0  0  0  0
    5.1939  -16.7093   21.3596 O   0  0  0  0  0  0  0  0  0  0  0  0
    6.7964  -15.6434   22.6877 C   0  0  0  0  0  0  0  0  0  0  0  0
    7.6482  -14.3783   22.5785 C   0  0  2  0  0  0  0  0  0  0  0  0
    8.4031  -14.3922   21.3531 N   0  0  0  0  0  0  0  0  0  0  0  0
    8.4671  -14.2170   23.7952 C   0  0  0  0  0  0  0  0  0  0  0  0
    9.6543  -14.6089   23.7761 O   0  0  0  0  0  0  0  0  0  0  0  0
    7.9438  -13.6382   24.9598 N   0  0  0  0  0  0  0  0  0  0  0  0
    6.6086  -13.1100   25.1037 C   0  0  0  0  0  0  0  0  0  0  0  0
    6.4595  -12.6148   26.5244 C   0  0  0  0  0  0  0  0  0  0  0  0
    7.8606  -12.4520   27.0009 C   0  0  0  0  0  0  0  0  0  0  0  0
    8.6342  -13.4735   26.2039 C   0  0  1  0  0  0  0  0  0  0  0  0
    8.7501  -14.6989   26.9972 C   0  0  0  0  0  0  0  0  0  0  0  0
    7.7398  -15.3548   27.2852 O   0  0  0  0  0  0  0  0  0  0  0  0
   10.6084  -17.6532   25.8724 C   0  0  0  0  0  0  0  0  0  0  0  0
   11.0623  -17.4210   27.2814 C   0  0  1  0  0  0  0  0  0  0  0  0
   12.3391  -16.8608   27.2504 O   0  0  0  0  0  0  0  0  0  0  0  0
   10.1809  -16.4921   28.0662 C   0  0  2  0  0  0  0  0  0  0  0  0
   10.0107  -15.2013   27.4773 N   0  0  0  0  0  0  0  0  0  0  0  0
   10.5570  -16.4343   29.5048 C   0  0  0  0  0  0  0  0  0  0  0  0
   10.6095  -17.5728   30.2997 O   0  0  0  0  0  0  0  0  0  0  0  0
   10.8514  -15.3582   30.0974 O   0  0  0  0  0  0  0  0  0  0  0  0
  2  4  1  0
  2  1  1  0
  3  2  2  0
  5  4  1  0
  5  6  1  6
  5  7  1  0
  7  8  2  0
  9  7  1  0
  9 13  1  0
 10  9  1  0
 11 10  1  0
 11 12  1  0
 12 13  1  0
 13 14  1  1
 14 20  1  0
 14 15  2  0
 17 16  1  6
 17 19  1  0
 18 17  1  0
 19 21  1  0
 19 20  1  6
 21 22  1  0
 23 21  2  0
M  END
$$$$
