NPT.pdb
     RDKit          3D

 23 23  0  0  1  0  0  0  0  0999 V2000
    7.1335  -19.1649   15.2508 N   0  0  0  0  0  0  0  0  0  0  0  0
    7.0508  -17.8293   15.7333 C   0  0  0  0  0  0  0  0  0  0  0  0
    6.3930  -16.9853   15.0730 O   0  0  0  0  0  0  0  0  0  0  0  0
    7.6968  -17.3645   16.9769 C   0  0  0  0  0  0  0  0  0  0  0  0
    8.6567  -16.2334   16.6067 C   0  0  2  0  0  0  0  0  0  0  0  0
    9.5674  -16.6707   15.5815 N   0  0  0  0  0  0  0  0  0  0  0  0
    9.3130  -15.7133   17.8214 C   0  0  0  0  0  0  0  0  0  0  0  0
   10.4627  -16.1166   18.1022 O   0  0  0  0  0  0  0  0  0  0  0  0
    8.6777  -14.7847   18.6576 N   0  0  0  0  0  0  0  0  0  0  0  0
    7.3502  -14.2539   18.4612 C   0  0  0  0  0  0  0  0  0  0  0  0
    7.0551  -13.3143   19.6082 C   0  0  0  0  0  0  0  0  0  0  0  0
    8.3972  -12.9857   20.1627 C   0  0  0  0  0  0  0  0  0  0  0  0
    9.2270  -14.2060   19.8471 C   0  0  1  0  0  0  0  0  0  0  0  0
    9.2177  -15.0946   21.0110 C   0  0  0  0  0  0  0  0  0  0  0  0
    8.1452  -15.5018   21.4777 O   0  0  0  0  0  0  0  0  0  0  0  0
   10.2387  -18.4928   21.2022 C   0  0  0  0  0  0  0  0  0  0  0  0
   10.9831  -17.8419   22.3280 C   0  0  1  0  0  0  0  0  0  0  0  0
   12.3109  -17.6655   21.9395 O   0  0  0  0  0  0  0  0  0  0  0  0
   10.4460  -16.4962   22.7233 C   0  0  2  0  0  0  0  0  0  0  0  0
   10.4214  -15.5360   21.6653 N   0  0  0  0  0  0  0  0  0  0  0  0
   11.0746  -15.9787   23.9690 C   0  0  0  0  0  0  0  0  0  0  0  0
   10.9696  -16.6491   25.1815 O   0  0  0  0  0  0  0  0  0  0  0  0
   11.7401  -14.9058   24.0107 O   0  0  0  0  0  0  0  0  0  0  0  0
  2  4  1  0
  2  1  1  0
  3  2  2  0
  5  4  1  0
  5  6  1  6
  5  7  1  0
  7  8  2  0
  9  7  1  0
  9 13  1  0
 10  9  1  0
 11 10  1  0
 11 12  1  0
 12 13  1  0
 13 14  1  1
 14 20  1  0
 14 15  2  0
 17 16  1  6
 17 19  1  0
 18 17  1  0
 19 21  1  0
 19 20  1  6
 21 22  1  0
 23 21  2  0
M  END
$$$$
