NPT.pdb
     RDKit          3D

 23 23  0  0  1  0  0  0  0  0999 V2000
   10.0140  -19.9674   19.9158 N   0  0  0  0  0  0  0  0  0  0  0  0
    9.0784  -19.7928   20.9730 C   0  0  0  0  0  0  0  0  0  0  0  0
    8.5850  -20.8112   21.5208 O   0  0  0  0  0  0  0  0  0  0  0  0
    8.6440  -18.4740   21.4748 C   0  0  0  0  0  0  0  0  0  0  0  0
    9.3645  -17.4043   20.6535 C   0  0  2  0  0  0  0  0  0  0  0  0
   10.6092  -17.9211   20.1481 N   0  0  0  0  0  0  0  0  0  0  0  0
    9.4969  -16.1666   21.4455 C   0  0  0  0  0  0  0  0  0  0  0  0
   10.5261  -16.0032   22.1365 O   0  0  0  0  0  0  0  0  0  0  0  0
    8.5003  -15.1808   21.4375 N   0  0  0  0  0  0  0  0  0  0  0  0
    7.3108  -15.2011   20.6205 C   0  0  0  0  0  0  0  0  0  0  0  0
    6.5033  -13.9665   20.9513 C   0  0  0  0  0  0  0  0  0  0  0  0
    7.4846  -13.0543   21.6008 C   0  0  0  0  0  0  0  0  0  0  0  0
    8.4837  -13.9910   22.2346 C   0  0  1  0  0  0  0  0  0  0  0  0
    8.1054  -14.2058   23.6328 C   0  0  0  0  0  0  0  0  0  0  0  0
    7.2314  -15.0339   23.9235 O   0  0  0  0  0  0  0  0  0  0  0  0
    6.6901  -11.8802   26.0706 C   0  0  0  0  0  0  0  0  0  0  0  0
    7.0377  -13.2665   26.5206 C   0  0  1  0  0  0  0  0  0  0  0  0
    6.1113  -14.1557   25.9764 O   0  0  0  0  0  0  0  0  0  0  0  0
    8.4044  -13.7250   26.0995 C   0  0  2  0  0  0  0  0  0  0  0  0
    8.7094  -13.4871   24.7239 N   0  0  0  0  0  0  0  0  0  0  0  0
    8.6918  -15.1202   26.5301 C   0  0  0  0  0  0  0  0  0  0  0  0
    8.6689  -15.4991   27.8668 O   0  0  0  0  0  0  0  0  0  0  0  0
    8.9737  -16.0473   25.7196 O   0  0  0  0  0  0  0  0  0  0  0  0
  2  4  1  0
  2  1  1  0
  3  2  2  0
  5  4  1  0
  5  6  1  1
  5  7  1  0
  7  8  2  0
  9  7  1  0
  9 13  1  0
 10  9  1  0
 11 10  1  0
 11 12  1  0
 12 13  1  0
 13 14  1  1
 14 20  1  0
 14 15  2  0
 17 16  1  6
 17 19  1  0
 18 17  1  0
 19 21  1  0
 19 20  1  6
 21 22  1  0
 23 21  2  0
M  END
$$$$
