ATY.pdb
     RDKit          3D

 25 25  0  0  1  0  0  0  0  0999 V2000
    8.6236  -16.2014   15.5797 C   0  0  0  0  0  0  0  0  0  0  0  0
    8.4547  -16.9973   16.8580 C   0  0  2  0  0  0  0  0  0  0  0  0
    7.0860  -17.3732   17.1030 N   0  0  0  0  0  0  0  0  0  0  0  0
    9.0247  -16.2119   17.9858 C   0  0  0  0  0  0  0  0  0  0  0  0
   10.2601  -15.9307   17.9934 O   0  0  0  0  0  0  0  0  0  0  0  0
    7.8671  -12.9889   19.4641 C   0  0  0  0  0  0  0  0  0  0  0  0
    7.9801  -13.9244   20.6554 C   0  0  1  0  0  0  0  0  0  0  0  0
    6.6959  -14.3416   21.0151 O   0  0  0  0  0  0  0  0  0  0  0  0
    8.7942  -15.1055   20.2288 C   0  0  2  0  0  0  0  0  0  0  0  0
    8.2471  -15.7521   19.0729 N   0  0  0  0  0  0  0  0  0  0  0  0
    8.9870  -16.0061   21.3748 C   0  0  0  0  0  0  0  0  0  0  0  0
    8.2045  -16.9297   21.7041 O   0  0  0  0  0  0  0  0  0  0  0  0
   12.4314  -22.2092   25.9068 O   0  0  0  0  0  0  0  0  0  0  0  0
   12.0638  -21.1898   25.0517 C   0  0  0  0  0  0  0  0  0  0  0  0
   13.0071  -20.2978   24.6058 C   0  0  0  0  0  0  0  0  0  0  0  0
   12.6125  -19.2723   23.7397 C   0  0  0  0  0  0  0  0  0  0  0  0
   11.3073  -19.1503   23.3361 C   0  0  0  0  0  0  0  0  0  0  0  0
   10.8870  -18.0791   22.4356 C   0  0  0  0  0  0  0  0  0  0  0  0
   10.5059  -16.8204   23.1775 C   0  0  2  0  0  0  0  0  0  0  0  0
   10.1502  -15.8166   22.1723 N   0  0  0  0  0  0  0  0  0  0  0  0
   11.5885  -16.3124   24.0483 C   0  0  0  0  0  0  0  0  0  0  0  0
   11.6166  -16.6105   25.4248 O   0  0  0  0  0  0  0  0  0  0  0  0
   10.3825  -20.0603   23.7998 C   0  0  0  0  0  0  0  0  0  0  0  0
   10.7481  -21.0925   24.6639 C   0  0  0  0  0  0  0  0  0  0  0  0
   12.5330  -15.5987   23.6309 O   0  0  0  0  0  0  0  0  0  0  0  0
  2  1  1  6
  3  2  1  0
  4  5  2  0
  4  2  1  0
  7  6  1  6
  7  8  1  0
  7  9  1  0
  9 10  1  6
 10  4  1  0
 11  9  1  0
 11 20  1  0
 12 11  2  0
 14 13  1  0
 15 14  2  0
 16 15  1  0
 17 16  2  0
 17 23  1  0
 18 17  1  0
 19 18  1  6
 20 19  1  0
 21 19  1  0
 22 21  1  0
 23 24  2  0
 24 14  1  0
 25 21  2  0
M  END
$$$$
