ATY.pdb
     RDKit          3D

 25 25  0  0  1  0  0  0  0  0999 V2000
   15.1250  -15.2017   19.5238 C   0  0  0  0  0  0  0  0  0  0  0  0
   13.8463  -14.9520   18.7502 C   0  0  2  0  0  0  0  0  0  0  0  0
   13.9304  -13.7974   17.8933 N   0  0  0  0  0  0  0  0  0  0  0  0
   12.7196  -14.8452   19.7161 C   0  0  0  0  0  0  0  0  0  0  0  0
   12.4709  -13.7330   20.2697 O   0  0  0  0  0  0  0  0  0  0  0  0
    9.3062  -16.5511   19.1672 C   0  0  0  0  0  0  0  0  0  0  0  0
    9.6897  -16.8061   20.6147 C   0  0  1  0  0  0  0  0  0  0  0  0
   10.1503  -18.1206   20.7266 O   0  0  0  0  0  0  0  0  0  0  0  0
   10.7891  -15.8536   20.9669 C   0  0  2  0  0  0  0  0  0  0  0  0
   11.8932  -15.9400   20.0576 N   0  0  0  0  0  0  0  0  0  0  0  0
   11.1665  -16.0419   22.3753 C   0  0  0  0  0  0  0  0  0  0  0  0
   12.2113  -16.6130   22.7705 O   0  0  0  0  0  0  0  0  0  0  0  0
   10.5248  -15.1890   31.1036 O   0  0  0  0  0  0  0  0  0  0  0  0
   10.2894  -15.1319   29.7446 C   0  0  0  0  0  0  0  0  0  0  0  0
    9.5867  -16.1380   29.1296 C   0  0  0  0  0  0  0  0  0  0  0  0
    9.3595  -16.0599   27.7513 C   0  0  0  0  0  0  0  0  0  0  0  0
    9.8267  -15.0003   27.0163 C   0  0  0  0  0  0  0  0  0  0  0  0
    9.5975  -14.9144   25.5757 C   0  0  0  0  0  0  0  0  0  0  0  0
   10.6165  -15.6980   24.7835 C   0  0  2  0  0  0  0  0  0  0  0  0
   10.2795  -15.5379   23.3674 N   0  0  0  0  0  0  0  0  0  0  0  0
   10.6497  -17.1325   25.1434 C   0  0  0  0  0  0  0  0  0  0  0  0
    9.6304  -18.0116   24.7280 O   0  0  0  0  0  0  0  0  0  0  0  0
   10.5288  -14.0052   27.6606 C   0  0  0  0  0  0  0  0  0  0  0  0
   10.7697  -14.0574   29.0336 C   0  0  0  0  0  0  0  0  0  0  0  0
   11.5656  -17.6520   25.8267 O   0  0  0  0  0  0  0  0  0  0  0  0
  2  1  1  1
  3  2  1  0
  4  5  2  0
  4  2  1  0
  7  6  1  6
  7  8  1  0
  7  9  1  0
  9 10  1  6
 10  4  1  0
 11  9  1  0
 11 20  1  0
 12 11  2  0
 14 13  1  0
 15 14  2  0
 16 15  1  0
 17 16  2  0
 17 23  1  0
 18 17  1  0
 19 18  1  1
 20 19  1  0
 21 19  1  0
 22 21  1  0
 23 24  2  0
 24 14  1  0
 25 21  2  0
M  END
$$$$
