ATY.pdb
     RDKit          3D

 25 25  0  0  1  0  0  0  0  0999 V2000
    8.1316  -12.1273   19.6400 C   0  0  0  0  0  0  0  0  0  0  0  0
    8.4958  -13.4992   19.1099 C   0  0  2  0  0  0  0  0  0  0  0  0
    7.9035  -13.7754   17.8264 N   0  0  0  0  0  0  0  0  0  0  0  0
    8.1170  -14.5175   20.1264 C   0  0  0  0  0  0  0  0  0  0  0  0
    7.1394  -15.2923   19.9044 O   0  0  0  0  0  0  0  0  0  0  0  0
    7.9510  -17.1390   20.2967 C   0  0  0  0  0  0  0  0  0  0  0  0
    8.8974  -17.0985   21.4841 C   0  0  1  0  0  0  0  0  0  0  0  0
   10.2101  -17.1353   21.0064 O   0  0  0  0  0  0  0  0  0  0  0  0
    8.6596  -15.8113   22.2097 C   0  0  2  0  0  0  0  0  0  0  0  0
    8.8026  -14.6716   21.3529 N   0  0  0  0  0  0  0  0  0  0  0  0
    9.5101  -15.7612   23.4079 C   0  0  0  0  0  0  0  0  0  0  0  0
   10.6653  -15.2739   23.4507 O   0  0  0  0  0  0  0  0  0  0  0  0
    5.9136  -10.9740   26.0336 O   0  0  0  0  0  0  0  0  0  0  0  0
    6.5925  -12.1547   26.2580 C   0  0  0  0  0  0  0  0  0  0  0  0
    7.8842  -12.1232   26.7213 C   0  0  0  0  0  0  0  0  0  0  0  0
    8.5537  -13.3318   26.9417 C   0  0  0  0  0  0  0  0  0  0  0  0
    7.9394  -14.5346   26.7022 C   0  0  0  0  0  0  0  0  0  0  0  0
    8.6339  -15.8006   26.9254 C   0  0  0  0  0  0  0  0  0  0  0  0
    9.6849  -16.0730   25.8761 C   0  0  2  0  0  0  0  0  0  0  0  0
    8.9836  -16.3069   24.6120 N   0  0  0  0  0  0  0  0  0  0  0  0
   10.5453  -17.2301   26.2066 C   0  0  0  0  0  0  0  0  0  0  0  0
   10.4699  -18.4281   25.4694 O   0  0  0  0  0  0  0  0  0  0  0  0
    6.6423  -14.5352   26.2375 C   0  0  0  0  0  0  0  0  0  0  0  0
    5.9511  -13.3453   26.0091 C   0  0  0  0  0  0  0  0  0  0  0  0
   11.3810  -17.2240   27.1433 O   0  0  0  0  0  0  0  0  0  0  0  0
  2  1  1  1
  3  2  1  0
  4  5  2  0
  4  2  1  0
  7  6  1  6
  7  8  1  0
  7  9  1  0
  9 10  1  6
 10  4  1  0
 11  9  1  0
 11 20  1  0
 12 11  2  0
 14 13  1  0
 15 14  2  0
 16 15  1  0
 17 16  2  0
 17 23  1  0
 18 17  1  0
 19 18  1  1
 20 19  1  0
 21 19  1  0
 22 21  1  0
 23 24  2  0
 24 14  1  0
 25 21  2  0
M  END
$$$$
