ATY.pdb
     RDKit          3D

 25 25  0  0  1  0  0  0  0  0999 V2000
    7.1826  -19.7277   19.1609 C   0  0  0  0  0  0  0  0  0  0  0  0
    7.5560  -19.3688   20.5849 C   0  0  2  0  0  0  0  0  0  0  0  0
    6.4209  -19.3548   21.4713 N   0  0  0  0  0  0  0  0  0  0  0  0
    8.2682  -18.0625   20.5748 C   0  0  0  0  0  0  0  0  0  0  0  0
    9.3362  -17.9353   19.9050 O   0  0  0  0  0  0  0  0  0  0  0  0
    7.5377  -14.9661   19.1726 C   0  0  0  0  0  0  0  0  0  0  0  0
    7.6889  -14.5902   20.6365 C   0  0  1  0  0  0  0  0  0  0  0  0
    6.4167  -14.5222   21.2107 O   0  0  0  0  0  0  0  0  0  0  0  0
    8.4863  -15.6682   21.3013 C   0  0  2  0  0  0  0  0  0  0  0  0
    7.8091  -16.9310   21.2866 N   0  0  0  0  0  0  0  0  0  0  0  0
    8.8823  -15.2249   22.6460 C   0  0  0  0  0  0  0  0  0  0  0  0
    8.2130  -14.4552   23.3764 O   0  0  0  0  0  0  0  0  0  0  0  0
   10.5124  -14.9465   30.8664 O   0  0  0  0  0  0  0  0  0  0  0  0
   10.2426  -15.1648   29.5304 C   0  0  0  0  0  0  0  0  0  0  0  0
    9.8603  -14.1173   28.7299 C   0  0  0  0  0  0  0  0  0  0  0  0
    9.5918  -14.3612   27.3787 C   0  0  0  0  0  0  0  0  0  0  0  0
    9.7051  -15.6224   26.8514 C   0  0  0  0  0  0  0  0  0  0  0  0
    9.4216  -15.8855   25.4423 C   0  0  0  0  0  0  0  0  0  0  0  0
   10.5092  -15.3696   24.5307 C   0  0  2  0  0  0  0  0  0  0  0  0
   10.1195  -15.7050   23.1595 N   0  0  0  0  0  0  0  0  0  0  0  0
   11.8397  -15.9379   24.8390 C   0  0  0  0  0  0  0  0  0  0  0  0
   12.0925  -17.3169   24.7014 O   0  0  0  0  0  0  0  0  0  0  0  0
   10.0909  -16.6543   27.6788 C   0  0  0  0  0  0  0  0  0  0  0  0
   10.3649  -16.4397   29.0296 C   0  0  0  0  0  0  0  0  0  0  0  0
   12.8107  -15.2477   25.2346 O   0  0  0  0  0  0  0  0  0  0  0  0
  2  1  1  6
  3  2  1  0
  4  5  2  0
  4  2  1  0
  7  6  1  6
  7  8  1  0
  7  9  1  0
  9 10  1  1
 10  4  1  0
 11  9  1  0
 11 20  1  0
 12 11  2  0
 14 13  1  0
 15 14  2  0
 16 15  1  0
 17 16  2  0
 17 23  1  0
 18 17  1  0
 19 18  1  1
 20 19  1  0
 21 19  1  0
 22 21  1  0
 23 24  2  0
 24 14  1  0
 25 21  2  0
M  END
$$$$
