ATY.pdb
     RDKit          3D

 25 25  0  0  1  0  0  0  0  0999 V2000
    5.5285  -19.0783   19.3815 C   0  0  0  0  0  0  0  0  0  0  0  0
    6.0603  -18.8024   20.7733 C   0  0  2  0  0  0  0  0  0  0  0  0
    5.0490  -18.2965   21.6654 N   0  0  0  0  0  0  0  0  0  0  0  0
    7.2184  -17.8748   20.6644 C   0  0  0  0  0  0  0  0  0  0  0  0
    8.2107  -18.1918   19.9430 O   0  0  0  0  0  0  0  0  0  0  0  0
    7.5943  -15.0864   18.9195 C   0  0  0  0  0  0  0  0  0  0  0  0
    7.9179  -14.5301   20.2954 C   0  0  1  0  0  0  0  0  0  0  0  0
    6.7656  -13.9347   20.8154 O   0  0  0  0  0  0  0  0  0  0  0  0
    8.3291  -15.6780   21.1633 C   0  0  2  0  0  0  0  0  0  0  0  0
    7.2741  -16.6322   21.3360 N   0  0  0  0  0  0  0  0  0  0  0  0
    8.8747  -15.1639   22.4280 C   0  0  0  0  0  0  0  0  0  0  0  0
    8.4355  -14.1660   23.0486 O   0  0  0  0  0  0  0  0  0  0  0  0
   10.6677  -14.8709   30.6432 O   0  0  0  0  0  0  0  0  0  0  0  0
   10.3259  -15.0930   29.3243 C   0  0  0  0  0  0  0  0  0  0  0  0
   10.3670  -16.3660   28.8125 C   0  0  0  0  0  0  0  0  0  0  0  0
   10.0166  -16.5685   27.4732 C   0  0  0  0  0  0  0  0  0  0  0  0
    9.6367  -15.5196   26.6751 C   0  0  0  0  0  0  0  0  0  0  0  0
    9.2741  -15.7227   25.2743 C   0  0  0  0  0  0  0  0  0  0  0  0
   10.4397  -15.5009   24.3404 C   0  0  2  0  0  0  0  0  0  0  0  0
    9.9864  -15.8499   22.9924 N   0  0  0  0  0  0  0  0  0  0  0  0
   11.6311  -16.2991   24.7033 C   0  0  0  0  0  0  0  0  0  0  0  0
   12.7446  -15.7034   25.3274 O   0  0  0  0  0  0  0  0  0  0  0  0
    9.6048  -14.2529   27.2162 C   0  0  0  0  0  0  0  0  0  0  0  0
    9.9489  -14.0223   28.5482 C   0  0  0  0  0  0  0  0  0  0  0  0
   11.7293  -17.5314   24.4855 O   0  0  0  0  0  0  0  0  0  0  0  0
  2  1  1  6
  3  2  1  0
  4  5  2  0
  4  2  1  0
  7  6  1  6
  7  8  1  0
  7  9  1  0
  9 10  1  1
 10  4  1  0
 11  9  1  0
 11 20  1  0
 12 11  2  0
 14 13  1  0
 15 14  2  0
 16 15  1  0
 17 16  2  0
 17 23  1  0
 18 17  1  0
 19 18  1  1
 20 19  1  0
 21 19  1  0
 22 21  1  0
 23 24  2  0
 24 14  1  0
 25 21  2  0
M  END
$$$$
