ATY.pdb
     RDKit          3D

 25 25  0  0  1  0  0  0  0  0999 V2000
   11.1510  -20.2176   18.0667 C   0  0  0  0  0  0  0  0  0  0  0  0
   11.4611  -18.8419   18.6209 C   0  0  2  0  0  0  0  0  0  0  0  0
   12.4076  -18.8792   19.7060 N   0  0  0  0  0  0  0  0  0  0  0  0
   10.1841  -18.1916   19.0208 C   0  0  0  0  0  0  0  0  0  0  0  0
    9.2382  -18.0981   18.1829 O   0  0  0  0  0  0  0  0  0  0  0  0
    7.4854  -18.4166   19.0918 C   0  0  0  0  0  0  0  0  0  0  0  0
    7.5830  -18.0904   20.5721 C   0  0  1  0  0  0  0  0  0  0  0  0
    7.8609  -19.2694   21.2688 O   0  0  0  0  0  0  0  0  0  0  0  0
    8.7095  -17.1211   20.7494 C   0  0  2  0  0  0  0  0  0  0  0  0
    9.9629  -17.6608   20.3121 N   0  0  0  0  0  0  0  0  0  0  0  0
    8.7254  -16.6387   22.1382 C   0  0  0  0  0  0  0  0  0  0  0  0
    9.5081  -17.0424   23.0315 O   0  0  0  0  0  0  0  0  0  0  0  0
    6.7699  -11.2639   28.8238 O   0  0  0  0  0  0  0  0  0  0  0  0
    6.8389  -11.8891   27.5950 C   0  0  0  0  0  0  0  0  0  0  0  0
    8.0586  -12.0943   26.9998 C   0  0  0  0  0  0  0  0  0  0  0  0
    8.1052  -12.7299   25.7543 C   0  0  0  0  0  0  0  0  0  0  0  0
    6.9574  -13.1454   25.1287 C   0  0  0  0  0  0  0  0  0  0  0  0
    6.9981  -13.8054   23.8257 C   0  0  0  0  0  0  0  0  0  0  0  0
    7.7944  -15.0881   23.8553 C   0  0  2  0  0  0  0  0  0  0  0  0
    7.7809  -15.6369   22.4977 N   0  0  0  0  0  0  0  0  0  0  0  0
    7.2586  -16.0790   24.8140 C   0  0  0  0  0  0  0  0  0  0  0  0
    7.9102  -16.3363   26.0361 O   0  0  0  0  0  0  0  0  0  0  0  0
    5.7475  -12.9260   25.7501 C   0  0  0  0  0  0  0  0  0  0  0  0
    5.6716  -12.2949   26.9918 C   0  0  0  0  0  0  0  0  0  0  0  0
    6.2126  -16.7422   24.6096 O   0  0  0  0  0  0  0  0  0  0  0  0
  2  1  1  1
  3  2  1  0
  4  5  2  0
  4  2  1  0
  7  6  1  6
  7  8  1  0
  7  9  1  0
  9 10  1  1
 10  4  1  0
 11  9  1  0
 11 20  1  0
 12 11  2  0
 14 13  1  0
 15 14  2  0
 16 15  1  0
 17 16  2  0
 17 23  1  0
 18 17  1  0
 19 18  1  6
 20 19  1  0
 21 19  1  0
 22 21  1  0
 23 24  2  0
 24 14  1  0
 25 21  2  0
M  END
$$$$
