ATY.pdb
     RDKit          3D

 25 25  0  0  1  0  0  0  0  0999 V2000
    8.6586  -12.1043   19.5367 C   0  0  0  0  0  0  0  0  0  0  0  0
    8.5532  -13.5364   19.0529 C   0  0  2  0  0  0  0  0  0  0  0  0
    7.6355  -13.6863   17.9530 N   0  0  0  0  0  0  0  0  0  0  0  0
    8.1837  -14.4016   20.2056 C   0  0  0  0  0  0  0  0  0  0  0  0
    6.9628  -14.5603   20.5050 O   0  0  0  0  0  0  0  0  0  0  0  0
    8.1943  -17.6553   20.2713 C   0  0  0  0  0  0  0  0  0  0  0  0
    9.0446  -17.4470   21.5126 C   0  0  1  0  0  0  0  0  0  0  0  0
   10.3880  -17.6042   21.1615 O   0  0  0  0  0  0  0  0  0  0  0  0
    8.8085  -16.0499   21.9946 C   0  0  2  0  0  0  0  0  0  0  0  0
    9.1404  -15.0707   21.0024 N   0  0  0  0  0  0  0  0  0  0  0  0
    9.5007  -15.8514   23.2765 C   0  0  0  0  0  0  0  0  0  0  0  0
   10.5663  -15.2067   23.4268 O   0  0  0  0  0  0  0  0  0  0  0  0
    5.9202  -11.0422   26.4199 O   0  0  0  0  0  0  0  0  0  0  0  0
    6.5453  -12.2699   26.5057 C   0  0  0  0  0  0  0  0  0  0  0  0
    7.8460  -12.3460   26.9376 C   0  0  0  0  0  0  0  0  0  0  0  0
    8.4602  -13.6006   27.0169 C   0  0  0  0  0  0  0  0  0  0  0  0
    7.7836  -14.7426   26.6712 C   0  0  0  0  0  0  0  0  0  0  0  0
    8.4201  -16.0557   26.7469 C   0  0  0  0  0  0  0  0  0  0  0  0
    9.5382  -16.2116   25.7440 C   0  0  2  0  0  0  0  0  0  0  0  0
    8.9181  -16.4349   24.4362 N   0  0  0  0  0  0  0  0  0  0  0  0
   10.4577  -17.3231   26.0717 C   0  0  0  0  0  0  0  0  0  0  0  0
   11.3929  -17.2101   27.1190 O   0  0  0  0  0  0  0  0  0  0  0  0
    6.4790  -14.6354   26.2412 C   0  0  0  0  0  0  0  0  0  0  0  0
    5.8421  -13.3976   26.1526 C   0  0  0  0  0  0  0  0  0  0  0  0
   10.4676  -18.4161   25.4544 O   0  0  0  0  0  0  0  0  0  0  0  0
  2  1  1  1
  3  2  1  0
  4  5  2  0
  4  2  1  0
  7  6  1  6
  7  8  1  0
  7  9  1  0
  9 10  1  6
 10  4  1  0
 11  9  1  0
 11 20  1  0
 12 11  2  0
 14 13  1  0
 15 14  2  0
 16 15  1  0
 17 16  2  0
 17 23  1  0
 18 17  1  0
 19 18  1  1
 20 19  1  0
 21 19  1  0
 22 21  1  0
 23 24  2  0
 24 14  1  0
 25 21  2  0
M  END
$$$$
