ATY.pdb
     RDKit          3D

 25 25  0  0  1  0  0  0  0  0999 V2000
    8.5264  -12.1289   19.6944 C   0  0  0  0  0  0  0  0  0  0  0  0
    8.4690  -13.5278   19.1150 C   0  0  2  0  0  0  0  0  0  0  0  0
    7.5119  -13.6486   18.0455 N   0  0  0  0  0  0  0  0  0  0  0  0
    8.1930  -14.4879   20.2176 C   0  0  0  0  0  0  0  0  0  0  0  0
    6.9969  -14.7090   20.5724 O   0  0  0  0  0  0  0  0  0  0  0  0
    8.8461  -17.9077   20.1414 C   0  0  0  0  0  0  0  0  0  0  0  0
    9.5142  -17.5331   21.4531 C   0  0  1  0  0  0  0  0  0  0  0  0
   10.8906  -17.4284   21.2357 O   0  0  0  0  0  0  0  0  0  0  0  0
    8.9672  -16.2062   21.8777 C   0  0  2  0  0  0  0  0  0  0  0  0
    9.2137  -15.1822   20.9061 N   0  0  0  0  0  0  0  0  0  0  0  0
    9.4661  -15.8792   23.2215 C   0  0  0  0  0  0  0  0  0  0  0  0
   10.3788  -15.0551   23.4697 O   0  0  0  0  0  0  0  0  0  0  0  0
    5.8698  -10.9781   26.1986 O   0  0  0  0  0  0  0  0  0  0  0  0
    6.4356  -12.2338   26.2913 C   0  0  0  0  0  0  0  0  0  0  0  0
    7.7613  -12.3636   26.6228 C   0  0  0  0  0  0  0  0  0  0  0  0
    8.3141  -13.6458   26.7111 C   0  0  0  0  0  0  0  0  0  0  0  0
    7.5536  -14.7621   26.4724 C   0  0  0  0  0  0  0  0  0  0  0  0
    8.1254  -16.1040   26.5581 C   0  0  0  0  0  0  0  0  0  0  0  0
    9.3446  -16.2668   25.6822 C   0  0  2  0  0  0  0  0  0  0  0  0
    8.8685  -16.5482   24.3262 N   0  0  0  0  0  0  0  0  0  0  0  0
   10.2472  -17.3446   26.1425 C   0  0  0  0  0  0  0  0  0  0  0  0
   11.1230  -17.1474   27.2281 O   0  0  0  0  0  0  0  0  0  0  0  0
    6.2258  -14.6010   26.1417 C   0  0  0  0  0  0  0  0  0  0  0  0
    5.6487  -13.3347   26.0467 C   0  0  0  0  0  0  0  0  0  0  0  0
   10.2937  -18.4807   25.6106 O   0  0  0  0  0  0  0  0  0  0  0  0
  2  1  1  1
  3  2  1  0
  4  5  2  0
  4  2  1  0
  7  6  1  6
  7  8  1  0
  7  9  1  0
  9 10  1  6
 10  4  1  0
 11  9  1  0
 11 20  1  0
 12 11  2  0
 14 13  1  0
 15 14  2  0
 16 15  1  0
 17 16  2  0
 17 23  1  0
 18 17  1  0
 19 18  1  1
 20 19  1  0
 21 19  1  0
 22 21  1  0
 23 24  2  0
 24 14  1  0
 25 21  2  0
M  END
$$$$
