PIS.pdb
     RDKit          3D

 22 22  0  0  1  0  0  0  0  0999 V2000
   21.4589  -12.1422  -19.0954 N   0  0  0  0  0  0  0  0  0  0  0  0
   21.2443  -13.4376  -19.6614 C   0  0  0  0  0  0  0  0  0  0  0  0
   20.3593  -14.2018  -18.7016 C   0  0  0  0  0  0  0  0  0  0  0  0
   20.6233  -13.4736  -17.3811 C   0  0  0  0  0  0  0  0  0  0  0  0
   20.7768  -12.0525  -17.8419 C   0  0  1  0  0  0  0  0  0  0  0  0
   21.5264  -11.2228  -16.8616 C   0  0  0  0  0  0  0  0  0  0  0  0
   21.0924  -11.0280  -15.6798 O   0  0  0  0  0  0  0  0  0  0  0  0
   26.2888  -10.6350  -14.5146 C   0  0  0  0  0  0  0  0  0  0  0  0
   25.9055   -9.5506  -15.5417 C   0  0  0  0  0  0  0  0  0  0  0  0
   24.9486  -10.0886  -16.5461 C   0  0  2  0  0  0  0  0  0  0  0  0
   25.3682   -9.8353  -17.9651 C   0  0  0  0  0  0  0  0  0  0  0  0
   23.5085   -9.7610  -16.2556 C   0  0  2  0  0  0  0  0  0  0  0  0
   22.7495  -10.6094  -17.1801 N   0  0  0  0  0  0  0  0  0  0  0  0
   23.1415   -8.3545  -16.3954 C   0  0  0  0  0  0  0  0  0  0  0  0
   23.3529   -7.7201  -17.4832 O   0  0  0  0  0  0  0  0  0  0  0  0
   19.9003   -6.5978  -14.7519 O   0  0  0  0  0  0  0  0  0  0  0  0
   20.6680   -6.0718  -15.7710 C   0  0  0  0  0  0  0  0  0  0  0  0
   22.1558   -6.2123  -15.5348 C   0  0  2  0  0  0  0  0  0  0  0  0
   22.5334   -7.6064  -15.3564 N   0  0  0  0  0  0  0  0  0  0  0  0
   22.5700   -5.3865  -14.3753 C   0  0  0  0  0  0  0  0  0  0  0  0
   23.0693   -5.9382  -13.3395 O   0  0  0  0  0  0  0  0  0  0  0  0
   22.4292   -4.0251  -14.3855 O   0  0  0  0  0  0  0  0  0  0  0  0
  1  2  1  0
  1  5  1  0
  2  3  1  0
  3  4  1  0
  5  6  1  1
  5  4  1  0
  6 13  1  0
  7  6  2  0
  8  9  1  0
  9 10  1  0
 10 11  1  6
 10 12  1  0
 12 14  1  0
 12 13  1  6
 14 15  2  0
 14 19  1  0
 16 17  1  0
 18 17  1  1
 18 20  1  0
 19 18  1  0
 20 22  1  0
 21 20  2  0
M  END
$$$$
