PIS.pdb
     RDKit          3D

 22 22  0  0  1  0  0  0  0  0999 V2000
   25.0823  -12.8653  -15.5607 N   0  0  0  0  0  0  0  0  0  0  0  0
   25.6125  -14.1927  -15.5996 C   0  0  0  0  0  0  0  0  0  0  0  0
   25.6250  -14.6248  -17.0493 C   0  0  0  0  0  0  0  0  0  0  0  0
   24.5506  -13.7197  -17.6576 C   0  0  0  0  0  0  0  0  0  0  0  0
   24.7527  -12.4463  -16.8875 C   0  0  1  0  0  0  0  0  0  0  0  0
   23.5449  -11.5791  -16.9105 C   0  0  0  0  0  0  0  0  0  0  0  0
   23.0337  -11.1731  -18.0044 O   0  0  0  0  0  0  0  0  0  0  0  0
   20.2799  -13.5321  -14.2106 C   0  0  0  0  0  0  0  0  0  0  0  0
   20.3582  -12.4879  -15.3425 C   0  0  0  0  0  0  0  0  0  0  0  0
   20.7455  -11.1551  -14.8064 C   0  0  2  0  0  0  0  0  0  0  0  0
   19.5849  -10.3673  -14.2714 C   0  0  0  0  0  0  0  0  0  0  0  0
   21.6627  -10.3754  -15.7100 C   0  0  2  0  0  0  0  0  0  0  0  0
   22.9015  -11.1599  -15.7341 N   0  0  0  0  0  0  0  0  0  0  0  0
   21.9121   -8.9924  -15.3133 C   0  0  0  0  0  0  0  0  0  0  0  0
   22.4039   -8.7102  -14.1692 O   0  0  0  0  0  0  0  0  0  0  0  0
   22.6608   -5.8426  -17.9070 O   0  0  0  0  0  0  0  0  0  0  0  0
   21.7850   -5.5493  -16.8815 C   0  0  0  0  0  0  0  0  0  0  0  0
   21.8755   -6.5157  -15.7210 C   0  0  2  0  0  0  0  0  0  0  0  0
   21.6353   -7.8846  -16.1530 N   0  0  0  0  0  0  0  0  0  0  0  0
   20.9362   -6.1143  -14.6465 C   0  0  0  0  0  0  0  0  0  0  0  0
   19.7564   -6.5975  -14.6110 O   0  0  0  0  0  0  0  0  0  0  0  0
   21.3060   -5.2243  -13.6748 O   0  0  0  0  0  0  0  0  0  0  0  0
  1  2  1  0
  1  5  1  0
  2  3  1  0
  3  4  1  0
  5  6  1  1
  5  4  1  0
  6 13  1  0
  7  6  2  0
  8  9  1  0
  9 10  1  0
 10 11  1  6
 10 12  1  0
 12 14  1  0
 12 13  1  1
 14 15  2  0
 14 19  1  0
 16 17  1  0
 18 17  1  6
 18 20  1  0
 19 18  1  0
 20 22  1  0
 21 20  2  0
M  END
$$$$
