PIS.pdb
     RDKit          3D

 22 22  0  0  1  0  0  0  0  0999 V2000
   21.9283  -13.8424  -18.7653 N   0  0  0  0  0  0  0  0  0  0  0  0
   20.9803  -14.2128  -19.7696 C   0  0  0  0  0  0  0  0  0  0  0  0
   20.8401  -13.0332  -20.7063 C   0  0  0  0  0  0  0  0  0  0  0  0
   21.2871  -11.8696  -19.8176 C   0  0  0  0  0  0  0  0  0  0  0  0
   22.3790  -12.5070  -19.0069 C   0  0  1  0  0  0  0  0  0  0  0  0
   22.6389  -11.7725  -17.7403 C   0  0  0  0  0  0  0  0  0  0  0  0
   21.8478  -11.8543  -16.7452 O   0  0  0  0  0  0  0  0  0  0  0  0
   26.8952  -12.2284  -16.7804 C   0  0  0  0  0  0  0  0  0  0  0  0
   25.9465  -11.6145  -15.7312 C   0  0  0  0  0  0  0  0  0  0  0  0
   25.5020  -10.2578  -16.1501 C   0  0  2  0  0  0  0  0  0  0  0  0
   26.0934   -9.1542  -15.3217 C   0  0  0  0  0  0  0  0  0  0  0  0
   24.0178  -10.1418  -16.3720 C   0  0  2  0  0  0  0  0  0  0  0  0
   23.7653  -10.9508  -17.5689 N   0  0  0  0  0  0  0  0  0  0  0  0
   23.5079   -8.7823  -16.5271 C   0  0  0  0  0  0  0  0  0  0  0  0
   23.6964   -8.1234  -17.6045 O   0  0  0  0  0  0  0  0  0  0  0  0
   20.1148   -5.6333  -16.1030 O   0  0  0  0  0  0  0  0  0  0  0  0
   20.7162   -6.8691  -15.9782 C   0  0  0  0  0  0  0  0  0  0  0  0
   22.2067   -6.7885  -15.7315 C   0  0  2  0  0  0  0  0  0  0  0  0
   22.7789   -8.1090  -15.5151 N   0  0  0  0  0  0  0  0  0  0  0  0
   22.4885   -5.8829  -14.5921 C   0  0  0  0  0  0  0  0  0  0  0  0
   22.6585   -6.3580  -13.4208 O   0  0  0  0  0  0  0  0  0  0  0  0
   22.5727   -4.5278  -14.7648 O   0  0  0  0  0  0  0  0  0  0  0  0
  1  2  1  0
  1  5  1  0
  2  3  1  0
  3  4  1  0
  5  6  1  1
  5  4  1  0
  6 13  1  0
  7  6  2  0
  8  9  1  0
  9 10  1  0
 10 11  1  1
 10 12  1  0
 12 14  1  0
 12 13  1  6
 14 15  2  0
 14 19  1  0
 16 17  1  0
 18 17  1  1
 18 20  1  0
 19 18  1  0
 20 22  1  0
 21 20  2  0
M  END
$$$$
