PIS.pdb
     RDKit          3D

 22 22  0  0  1  0  0  0  0  0999 V2000
   33.4688  -30.6929  -19.2475 N   0  0  0  0  0  0  0  0  0  0  0  0
   34.0700  -31.5916  -20.1830 C   0  0  0  0  0  0  0  0  0  0  0  0
   33.1430  -31.6790  -21.3753 C   0  0  0  0  0  0  0  0  0  0  0  0
   31.8009  -31.2709  -20.7621 C   0  0  0  0  0  0  0  0  0  0  0  0
   32.2239  -30.2239  -19.7718 C   0  0  1  0  0  0  0  0  0  0  0  0
   31.2120  -30.0237  -18.7007 C   0  0  0  0  0  0  0  0  0  0  0  0
   31.3886  -30.4717  -17.5213 O   0  0  0  0  0  0  0  0  0  0  0  0
   28.5938  -27.0258  -15.6376 C   0  0  0  0  0  0  0  0  0  0  0  0
   27.7847  -27.1169  -16.9470 C   0  0  0  0  0  0  0  0  0  0  0  0
   28.6261  -27.6502  -18.0523 C   0  0  2  0  0  0  0  0  0  0  0  0
   28.1240  -27.2775  -19.4172 C   0  0  0  0  0  0  0  0  0  0  0  0
   28.9891  -29.1028  -17.8984 C   0  0  2  0  0  0  0  0  0  0  0  0
   30.0097  -29.3328  -18.9261 N   0  0  0  0  0  0  0  0  0  0  0  0
   27.8813  -30.0460  -18.0232 C   0  0  0  0  0  0  0  0  0  0  0  0
   27.4597  -30.4244  -19.1675 O   0  0  0  0  0  0  0  0  0  0  0  0
   27.2746  -33.4705  -16.1093 O   0  0  0  0  0  0  0  0  0  0  0  0
   26.1853  -32.6315  -15.9903 C   0  0  0  0  0  0  0  0  0  0  0  0
   26.1294  -31.5655  -17.0625 C   0  0  2  0  0  0  0  0  0  0  0  0
   27.2084  -30.6016  -16.9063 N   0  0  0  0  0  0  0  0  0  0  0  0
   24.8042  -30.9010  -17.0546 C   0  0  0  0  0  0  0  0  0  0  0  0
   24.6963  -29.6878  -16.6761 O   0  0  0  0  0  0  0  0  0  0  0  0
   23.6738  -31.5642  -17.4489 O   0  0  0  0  0  0  0  0  0  0  0  0
  1  2  1  0
  1  5  1  0
  2  3  1  0
  3  4  1  0
  5  6  1  1
  5  4  1  0
  6 13  1  0
  7  6  2  0
  8  9  1  0
  9 10  1  0
 10 11  1  6
 10 12  1  0
 12 14  1  0
 12 13  1  6
 14 15  2  0
 14 19  1  0
 16 17  1  0
 18 17  1  1
 18 20  1  0
 19 18  1  0
 20 22  1  0
 21 20  2  0
M  END
$$$$
