PIS.pdb
     RDKit          3D

 22 22  0  0  1  0  0  0  0  0999 V2000
   28.2513  -10.1263  -17.3327 N   0  0  0  0  0  0  0  0  0  0  0  0
   29.1931  -11.1205  -17.7437 C   0  0  0  0  0  0  0  0  0  0  0  0
   28.9880  -11.3423  -19.2260 C   0  0  0  0  0  0  0  0  0  0  0  0
   27.5433  -10.8740  -19.4183 C   0  0  0  0  0  0  0  0  0  0  0  0
   27.4654   -9.7227  -18.4570 C   0  0  1  0  0  0  0  0  0  0  0  0
   26.0644   -9.4091  -18.0697 C   0  0  0  0  0  0  0  0  0  0  0  0
   25.1766   -9.1292  -18.9393 O   0  0  0  0  0  0  0  0  0  0  0  0
   23.7780  -12.6475  -14.7945 C   0  0  0  0  0  0  0  0  0  0  0  0
   24.1014  -11.5887  -15.8678 C   0  0  0  0  0  0  0  0  0  0  0  0
   23.9518  -10.2147  -15.3170 C   0  0  2  0  0  0  0  0  0  0  0  0
   22.6736  -10.0134  -14.5556 C   0  0  0  0  0  0  0  0  0  0  0  0
   24.2664   -9.1226  -16.3038 C   0  0  2  0  0  0  0  0  0  0  0  0
   25.6412   -9.4035  -16.7301 N   0  0  0  0  0  0  0  0  0  0  0  0
   24.1301   -7.7589  -15.7995 C   0  0  0  0  0  0  0  0  0  0  0  0
   24.7927   -7.3594  -14.7838 O   0  0  0  0  0  0  0  0  0  0  0  0
   22.3841   -3.2213  -16.4243 O   0  0  0  0  0  0  0  0  0  0  0  0
   22.4839   -4.5258  -16.8634 C   0  0  0  0  0  0  0  0  0  0  0  0
   23.1681   -5.4415  -15.8723 C   0  0  2  0  0  0  0  0  0  0  0  0
   23.2722   -6.7976  -16.3901 N   0  0  0  0  0  0  0  0  0  0  0  0
   22.4564   -5.4114  -14.5721 C   0  0  0  0  0  0  0  0  0  0  0  0
   21.4138   -6.1240  -14.3940 O   0  0  0  0  0  0  0  0  0  0  0  0
   22.8945   -4.6268  -13.5397 O   0  0  0  0  0  0  0  0  0  0  0  0
  1  2  1  0
  1  5  1  0
  2  3  1  0
  3  4  1  0
  5  6  1  1
  5  4  1  0
  6 13  1  0
  7  6  2  0
  8  9  1  0
  9 10  1  0
 10 11  1  6
 10 12  1  0
 12 14  1  0
 12 13  1  1
 14 15  2  0
 14 19  1  0
 16 17  1  0
 18 17  1  6
 18 20  1  0
 19 18  1  0
 20 22  1  0
 21 20  2  0
M  END
$$$$
