PIS.pdb
     RDKit          3D

 22 22  0  0  1  0  0  0  0  0999 V2000
   22.7083  -10.7770  -20.1194 N   0  0  0  0  0  0  0  0  0  0  0  0
   22.6843  -11.9381  -20.9535 C   0  0  0  0  0  0  0  0  0  0  0  0
   21.2714  -12.4780  -20.9245 C   0  0  0  0  0  0  0  0  0  0  0  0
   20.7439  -11.9108  -19.6041 C   0  0  0  0  0  0  0  0  0  0  0  0
   21.4082  -10.5644  -19.5635 C   0  0  1  0  0  0  0  0  0  0  0  0
   21.4789  -10.0152  -18.1834 C   0  0  0  0  0  0  0  0  0  0  0  0
   20.4279   -9.7415  -17.5177 O   0  0  0  0  0  0  0  0  0  0  0  0
   26.4817  -10.3174  -15.5247 C   0  0  0  0  0  0  0  0  0  0  0  0
   25.3035   -9.6171  -16.2312 C   0  0  0  0  0  0  0  0  0  0  0  0
   24.0094   -9.9953  -15.6018 C   0  0  2  0  0  0  0  0  0  0  0  0
   23.8219  -11.4789  -15.4690 C   0  0  0  0  0  0  0  0  0  0  0  0
   22.8192   -9.2659  -16.1647 C   0  0  2  0  0  0  0  0  0  0  0  0
   22.7018   -9.7680  -17.5376 N   0  0  0  0  0  0  0  0  0  0  0  0
   22.9003   -7.8082  -16.1327 C   0  0  0  0  0  0  0  0  0  0  0  0
   23.8359   -7.1837  -16.7368 O   0  0  0  0  0  0  0  0  0  0  0  0
   19.7262   -5.1988  -15.2985 O   0  0  0  0  0  0  0  0  0  0  0  0
   20.9059   -4.8361  -15.9161 C   0  0  0  0  0  0  0  0  0  0  0  0
   22.1180   -5.5513  -15.3608 C   0  0  2  0  0  0  0  0  0  0  0  0
   21.9640   -6.9960  -15.4452 N   0  0  0  0  0  0  0  0  0  0  0  0
   22.3760   -5.1147  -13.9678 C   0  0  0  0  0  0  0  0  0  0  0  0
   22.3506   -5.9612  -13.0142 O   0  0  0  0  0  0  0  0  0  0  0  0
   22.6455   -3.8060  -13.6712 O   0  0  0  0  0  0  0  0  0  0  0  0
  1  2  1  0
  1  5  1  0
  2  3  1  0
  3  4  1  0
  5  6  1  1
  5  4  1  0
  6 13  1  0
  7  6  2  0
  8  9  1  0
  9 10  1  0
 10 11  1  6
 10 12  1  0
 12 14  1  0
 12 13  1  6
 14 15  2  0
 14 19  1  0
 16 17  1  0
 18 17  1  1
 18 20  1  0
 19 18  1  0
 20 22  1  0
 21 20  2  0
M  END
$$$$
