PIS.pdb
     RDKit          3D

 22 22  0  0  1  0  0  0  0  0999 V2000
   24.1261  -10.6561  -15.6981 N   0  0  0  0  0  0  0  0  0  0  0  0
   24.5557  -12.0141  -15.5721 C   0  0  0  0  0  0  0  0  0  0  0  0
   23.8156  -12.8144  -16.6212 C   0  0  0  0  0  0  0  0  0  0  0  0
   22.5843  -11.9406  -16.8741 C   0  0  0  0  0  0  0  0  0  0  0  0
   23.1594  -10.5590  -16.7472 C   0  0  1  0  0  0  0  0  0  0  0  0
   22.1164   -9.5426  -16.4469 C   0  0  0  0  0  0  0  0  0  0  0  0
   21.1562   -9.3115  -17.2516 O   0  0  0  0  0  0  0  0  0  0  0  0
   19.4788   -9.5122  -11.9463 C   0  0  0  0  0  0  0  0  0  0  0  0
   19.8580   -9.2542  -13.4185 C   0  0  0  0  0  0  0  0  0  0  0  0
   20.7199   -8.0474  -13.5386 C   0  0  2  0  0  0  0  0  0  0  0  0
   20.1983   -6.8637  -12.7766 C   0  0  0  0  0  0  0  0  0  0  0  0
   21.1484   -7.7397  -14.9483 C   0  0  2  0  0  0  0  0  0  0  0  0
   22.1294   -8.7827  -15.2654 N   0  0  0  0  0  0  0  0  0  0  0  0
   21.6986   -6.4041  -15.1627 C   0  0  0  0  0  0  0  0  0  0  0  0
   22.7932   -6.0430  -14.6133 O   0  0  0  0  0  0  0  0  0  0  0  0
   19.7277   -3.4387  -17.4902 O   0  0  0  0  0  0  0  0  0  0  0  0
   21.1059   -3.4461  -17.4182 C   0  0  0  0  0  0  0  0  0  0  0  0
   21.6373   -4.1026  -16.1630 C   0  0  2  0  0  0  0  0  0  0  0  0
   21.0724   -5.4316  -15.9818 N   0  0  0  0  0  0  0  0  0  0  0  0
   21.3793   -3.2394  -14.9856 C   0  0  0  0  0  0  0  0  0  0  0  0
   20.5316   -3.5953  -14.1016 O   0  0  0  0  0  0  0  0  0  0  0  0
   22.0367   -2.0508  -14.8178 O   0  0  0  0  0  0  0  0  0  0  0  0
  1  2  1  0
  1  5  1  0
  2  3  1  0
  3  4  1  0
  5  6  1  1
  5  4  1  0
  6 13  1  0
  7  6  2  0
  8  9  1  0
  9 10  1  0
 10 11  1  6
 10 12  1  0
 12 14  1  0
 12 13  1  1
 14 15  2  0
 14 19  1  0
 16 17  1  0
 18 17  1  6
 18 20  1  0
 19 18  1  0
 20 22  1  0
 21 20  2  0
M  END
$$$$
