PIS.pdb
     RDKit          3D

 22 22  0  0  1  0  0  0  0  0999 V2000
   20.8304  -10.5879  -19.9481 N   0  0  0  0  0  0  0  0  0  0  0  0
   20.6710  -11.6660  -20.8737 C   0  0  0  0  0  0  0  0  0  0  0  0
   19.4720  -12.4690  -20.4196 C   0  0  0  0  0  0  0  0  0  0  0  0
   19.4000  -12.1148  -18.9320 C   0  0  0  0  0  0  0  0  0  0  0  0
   19.8185  -10.6724  -18.9414 C   0  0  1  0  0  0  0  0  0  0  0  0
   20.3185  -10.2249  -17.6144 C   0  0  0  0  0  0  0  0  0  0  0  0
   19.5701  -10.2225  -16.5835 O   0  0  0  0  0  0  0  0  0  0  0  0
   23.0731  -12.0216  -14.9167 C   0  0  0  0  0  0  0  0  0  0  0  0
   23.5912  -11.3309  -16.1942 C   0  0  0  0  0  0  0  0  0  0  0  0
   23.5421   -9.8506  -16.0519 C   0  0  2  0  0  0  0  0  0  0  0  0
   24.3504   -9.3355  -14.8963 C   0  0  0  0  0  0  0  0  0  0  0  0
   22.1557   -9.2726  -16.1478 C   0  0  2  0  0  0  0  0  0  0  0  0
   21.6376   -9.7813  -17.4219 N   0  0  0  0  0  0  0  0  0  0  0  0
   22.0739   -7.8162  -16.0796 C   0  0  0  0  0  0  0  0  0  0  0  0
   22.7251   -7.0777  -16.8925 O   0  0  0  0  0  0  0  0  0  0  0  0
   19.0313   -5.5498  -16.0779 O   0  0  0  0  0  0  0  0  0  0  0  0
   19.8025   -5.1782  -14.9954 C   0  0  0  0  0  0  0  0  0  0  0  0
   21.2290   -5.6759  -15.0762 C   0  0  2  0  0  0  0  0  0  0  0  0
   21.2796   -7.1295  -15.1275 N   0  0  0  0  0  0  0  0  0  0  0  0
   22.0209   -5.1462  -13.9403 C   0  0  0  0  0  0  0  0  0  0  0  0
   22.3869   -5.9212  -12.9959 O   0  0  0  0  0  0  0  0  0  0  0  0
   22.3763   -3.8261  -13.8757 O   0  0  0  0  0  0  0  0  0  0  0  0
  1  2  1  0
  1  5  1  0
  2  3  1  0
  3  4  1  0
  5  6  1  1
  5  4  1  0
  6 13  1  0
  7  6  2  0
  8  9  1  0
  9 10  1  0
 10 11  1  1
 10 12  1  0
 12 14  1  0
 12 13  1  6
 14 15  2  0
 14 19  1  0
 16 17  1  0
 18 17  1  1
 18 20  1  0
 19 18  1  0
 20 22  1  0
 21 20  2  0
M  END
$$$$
