KVR.pdb
     RDKit          3D

 28 27  0  0  1  0  0  0  0  0999 V2000
   28.5622  -23.2553  -16.7630 N   0  0  0  0  0  0  0  0  0  0  0  0
   27.1626  -23.4447  -16.5829 C   0  0  1  0  0  0  0  0  0  0  0  0
   26.8335  -24.7503  -15.9078 C   0  0  0  0  0  0  0  0  0  0  0  0
   27.1236  -25.9619  -16.7234 C   0  0  0  0  0  0  0  0  0  0  0  0
   26.0588  -26.3858  -17.6698 C   0  0  0  0  0  0  0  0  0  0  0  0
   26.4352  -27.6047  -18.4826 C   0  0  0  0  0  0  0  0  0  0  0  0
   25.3372  -27.7976  -19.4369 N   0  0  0  0  0  0  0  0  0  0  0  0
   26.5002  -22.3460  -15.8123 C   0  0  0  0  0  0  0  0  0  0  0  0
   26.9251  -22.0622  -14.6435 O   0  0  0  0  0  0  0  0  0  0  0  0
   24.1532  -18.1518  -15.3827 C   0  0  0  0  0  0  0  0  0  0  0  0
   24.8341  -19.2347  -16.1644 C   0  0  2  0  0  0  0  0  0  0  0  0
   24.1665  -19.2615  -17.5241 C   0  0  0  0  0  0  0  0  0  0  0  0
   24.7890  -20.5453  -15.4611 C   0  0  2  0  0  0  0  0  0  0  0  0
   25.4272  -21.5878  -16.2823 N   0  0  0  0  0  0  0  0  0  0  0  0
   23.4214  -21.0102  -15.0885 C   0  0  0  0  0  0  0  0  0  0  0  0
   22.6286  -21.4509  -15.9932 O   0  0  0  0  0  0  0  0  0  0  0  0
   18.9946  -23.9560   -8.2579 N   0  0  0  0  0  0  0  0  0  0  0  0
   18.1418  -24.0954   -9.4201 C   0  0  0  0  0  0  0  0  0  0  0  0
   17.0211  -24.6890   -9.2600 N   0  0  0  0  0  0  0  0  0  0  0  0
   18.5288  -23.6010  -10.6732 N   0  0  0  0  0  0  0  0  0  0  0  0
   19.8929  -23.2243  -10.9328 C   0  0  0  0  0  0  0  0  0  0  0  0
   19.9737  -21.8791  -11.5946 C   0  0  0  0  0  0  0  0  0  0  0  0
   21.3562  -21.4896  -12.0359 C   0  0  0  0  0  0  0  0  0  0  0  0
   21.4974  -21.4408  -13.5490 C   0  0  2  0  0  0  0  0  0  0  0  0
   22.8946  -21.0161  -13.7780 N   0  0  0  0  0  0  0  0  0  0  0  0
   20.5606  -20.4250  -14.0694 C   0  0  0  0  0  0  0  0  0  0  0  0
   20.8346  -19.2128  -13.8871 O   0  0  0  0  0  0  0  0  0  0  0  0
   19.3968  -20.7306  -14.7475 O   0  0  0  0  0  0  0  0  0  0  0  0
  2  1  1  1
  2  3  1  0
  4  3  1  0
  4  5  1  0
  6  5  1  0
  7  6  1  0
  8  2  1  0
  9  8  2  0
 11 13  1  0
 11 10  1  1
 11 12  1  0
 13 14  1  6
 14  8  1  0
 15 25  1  0
 15 13  1  0
 16 15  2  0
 17 18  1  0
 18 19  2  0
 20 21  1  0
 20 18  1  0
 21 22  1  0
 23 22  1  0
 24 23  1  1
 24 25  1  0
 26 28  1  0
 26 24  1  0
 27 26  2  0
M  END
$$$$
