KVR.pdb
     RDKit          3D

 28 27  0  0  1  0  0  0  0  0999 V2000
   29.4492  -21.7831  -16.8604 N   0  0  0  0  0  0  0  0  0  0  0  0
   28.1116  -21.4561  -17.2228 C   0  0  1  0  0  0  0  0  0  0  0  0
   27.3768  -22.6146  -17.8447 C   0  0  0  0  0  0  0  0  0  0  0  0
   28.1258  -23.9015  -17.8373 C   0  0  0  0  0  0  0  0  0  0  0  0
   28.1664  -24.6441  -19.1242 C   0  0  0  0  0  0  0  0  0  0  0  0
   28.9148  -25.9553  -19.0317 C   0  0  0  0  0  0  0  0  0  0  0  0
   28.8428  -26.5465  -20.3728 N   0  0  0  0  0  0  0  0  0  0  0  0
   27.2871  -20.9434  -16.0839 C   0  0  0  0  0  0  0  0  0  0  0  0
   27.5731  -21.3075  -14.8953 O   0  0  0  0  0  0  0  0  0  0  0  0
   25.1199  -17.3569  -16.1993 C   0  0  0  0  0  0  0  0  0  0  0  0
   25.6764  -18.0487  -14.9914 C   0  0  2  0  0  0  0  0  0  0  0  0
   27.1294  -17.6309  -14.8939 C   0  0  0  0  0  0  0  0  0  0  0  0
   25.4916  -19.5238  -15.0567 C   0  0  2  0  0  0  0  0  0  0  0  0
   26.2024  -20.0765  -16.2220 N   0  0  0  0  0  0  0  0  0  0  0  0
   24.0711  -19.9758  -15.1132 C   0  0  0  0  0  0  0  0  0  0  0  0
   23.5083  -20.1719  -16.2473 O   0  0  0  0  0  0  0  0  0  0  0  0
   18.4593  -24.0567   -9.4570 N   0  0  0  0  0  0  0  0  0  0  0  0
   17.7548  -23.8475  -10.7050 C   0  0  0  0  0  0  0  0  0  0  0  0
   16.5937  -24.3697  -10.8201 N   0  0  0  0  0  0  0  0  0  0  0  0
   18.3228  -23.1033  -11.7481 N   0  0  0  0  0  0  0  0  0  0  0  0
   19.6729  -22.6141  -11.6604 C   0  0  0  0  0  0  0  0  0  0  0  0
   20.0543  -21.8349  -12.8858 C   0  0  0  0  0  0  0  0  0  0  0  0
   21.4872  -21.3834  -12.9098 C   0  0  0  0  0  0  0  0  0  0  0  0
   21.8437  -20.6284  -14.1805 C   0  0  2  0  0  0  0  0  0  0  0  0
   23.2524  -20.2238  -13.9892 N   0  0  0  0  0  0  0  0  0  0  0  0
   20.9755  -19.4375  -14.2711 C   0  0  0  0  0  0  0  0  0  0  0  0
   21.3121  -18.4054  -13.6392 O   0  0  0  0  0  0  0  0  0  0  0  0
   19.8112  -19.3915  -15.0127 O   0  0  0  0  0  0  0  0  0  0  0  0
  2  1  1  1
  2  3  1  0
  4  3  1  0
  4  5  1  0
  6  5  1  0
  7  6  1  0
  8  2  1  0
  9  8  2  0
 11 13  1  0
 11 10  1  6
 11 12  1  0
 13 14  1  6
 14  8  1  0
 15 25  1  0
 15 13  1  0
 16 15  2  0
 17 18  1  0
 18 19  2  0
 20 21  1  0
 20 18  1  0
 21 22  1  0
 23 22  1  0
 24 23  1  1
 24 25  1  0
 26 28  1  0
 26 24  1  0
 27 26  2  0
M  END
$$$$
