KVR.pdb
     RDKit          3D

 28 27  0  0  1  0  0  0  0  0999 V2000
   28.3569  -21.1679  -15.9448 N   0  0  0  0  0  0  0  0  0  0  0  0
   27.3601  -20.1779  -15.7135 C   0  0  1  0  0  0  0  0  0  0  0  0
   26.8159  -19.5900  -16.9890 C   0  0  0  0  0  0  0  0  0  0  0  0
   27.8498  -19.2342  -17.9998 C   0  0  0  0  0  0  0  0  0  0  0  0
   28.3281  -17.8271  -17.9813 C   0  0  0  0  0  0  0  0  0  0  0  0
   29.2755  -17.5053  -19.1157 C   0  0  0  0  0  0  0  0  0  0  0  0
   29.7294  -16.1310  -18.8735 N   0  0  0  0  0  0  0  0  0  0  0  0
   26.2033  -20.6665  -14.8993 C   0  0  0  0  0  0  0  0  0  0  0  0
   25.2823  -21.3407  -15.4687 O   0  0  0  0  0  0  0  0  0  0  0  0
   25.7271  -20.1842  -10.5678 C   0  0  0  0  0  0  0  0  0  0  0  0
   25.4201  -21.3992  -11.3906 C   0  0  2  0  0  0  0  0  0  0  0  0
   26.6782  -22.2434  -11.3880 C   0  0  0  0  0  0  0  0  0  0  0  0
   24.9520  -21.0453  -12.7580 C   0  0  2  0  0  0  0  0  0  0  0  0
   26.0478  -20.4375  -13.5316 N   0  0  0  0  0  0  0  0  0  0  0  0
   23.7785  -20.1253  -12.8004 C   0  0  0  0  0  0  0  0  0  0  0  0
   23.9537  -18.8775  -13.0317 O   0  0  0  0  0  0  0  0  0  0  0  0
   16.9821  -18.3160  -15.4012 N   0  0  0  0  0  0  0  0  0  0  0  0
   17.5776  -17.1790  -16.0720 C   0  0  0  0  0  0  0  0  0  0  0  0
   16.7953  -16.2389  -16.4439 N   0  0  0  0  0  0  0  0  0  0  0  0
   18.9577  -17.1105  -16.3070 N   0  0  0  0  0  0  0  0  0  0  0  0
   19.8203  -18.2165  -15.9866 C   0  0  0  0  0  0  0  0  0  0  0  0
   20.3569  -18.1062  -14.5887 C   0  0  0  0  0  0  0  0  0  0  0  0
   21.3770  -19.1509  -14.2342 C   0  0  0  0  0  0  0  0  0  0  0  0
   21.3519  -19.5191  -12.7592 C   0  0  2  0  0  0  0  0  0  0  0  0
   22.4345  -20.5140  -12.6065 N   0  0  0  0  0  0  0  0  0  0  0  0
   20.0438  -20.1338  -12.4571 C   0  0  0  0  0  0  0  0  0  0  0  0
   19.9375  -21.3823  -12.5455 O   0  0  0  0  0  0  0  0  0  0  0  0
   18.9265  -19.4141  -12.0814 O   0  0  0  0  0  0  0  0  0  0  0  0
  2  1  1  6
  2  3  1  0
  4  3  1  0
  4  5  1  0
  6  5  1  0
  7  6  1  0
  8  2  1  0
  9  8  2  0
 11 13  1  0
 11 10  1  1
 11 12  1  0
 13 14  1  6
 14  8  1  0
 15 25  1  0
 15 13  1  0
 16 15  2  0
 17 18  1  0
 18 19  2  0
 20 21  1  0
 20 18  1  0
 21 22  1  0
 23 22  1  0
 24 23  1  6
 24 25  1  0
 26 28  1  0
 26 24  1  0
 27 26  2  0
M  END
$$$$
