KVR.pdb
     RDKit          3D

 28 27  0  0  1  0  0  0  0  0999 V2000
   27.4657  -21.2076  -18.3441 N   0  0  0  0  0  0  0  0  0  0  0  0
   27.4992  -20.2176  -17.3213 C   0  0  1  0  0  0  0  0  0  0  0  0
   26.4554  -19.1484  -17.5111 C   0  0  0  0  0  0  0  0  0  0  0  0
   26.6911  -18.2496  -18.6747 C   0  0  0  0  0  0  0  0  0  0  0  0
   27.4305  -16.9916  -18.3925 C   0  0  0  0  0  0  0  0  0  0  0  0
   27.6080  -16.1182  -19.6146 C   0  0  0  0  0  0  0  0  0  0  0  0
   28.4037  -14.9694  -19.1670 N   0  0  0  0  0  0  0  0  0  0  0  0
   27.3461  -20.7730  -15.9401 C   0  0  0  0  0  0  0  0  0  0  0  0
   26.4833  -21.6886  -15.7297 O   0  0  0  0  0  0  0  0  0  0  0  0
   29.8261  -19.6629  -12.6122 C   0  0  0  0  0  0  0  0  0  0  0  0
   29.2128  -21.0200  -12.7842 C   0  0  2  0  0  0  0  0  0  0  0  0
   30.2490  -21.8680  -13.4931 C   0  0  0  0  0  0  0  0  0  0  0  0
   27.9112  -20.9589  -13.5028 C   0  0  2  0  0  0  0  0  0  0  0  0
   28.0913  -20.3586  -14.8355 N   0  0  0  0  0  0  0  0  0  0  0  0
   26.8361  -20.2097  -12.7899 C   0  0  0  0  0  0  0  0  0  0  0  0
   26.6393  -18.9714  -13.0525 O   0  0  0  0  0  0  0  0  0  0  0  0
   19.3974  -21.7374  -10.5646 N   0  0  0  0  0  0  0  0  0  0  0  0
   19.7808  -22.2253  -11.8733 C   0  0  0  0  0  0  0  0  0  0  0  0
   18.9314  -22.9400  -12.5070 N   0  0  0  0  0  0  0  0  0  0  0  0
   21.0346  -21.9281  -12.4248 N   0  0  0  0  0  0  0  0  0  0  0  0
   21.8035  -20.8057  -11.9568 C   0  0  0  0  0  0  0  0  0  0  0  0
   23.1363  -20.7295  -12.6437 C   0  0  0  0  0  0  0  0  0  0  0  0
   23.9754  -19.5518  -12.2355 C   0  0  0  0  0  0  0  0  0  0  0  0
   24.9779  -19.8951  -11.1451 C   0  0  2  0  0  0  0  0  0  0  0  0
   25.9739  -20.7581  -11.8147 N   0  0  0  0  0  0  0  0  0  0  0  0
   24.2737  -20.6489  -10.0886 C   0  0  0  0  0  0  0  0  0  0  0  0
   23.3753  -20.0617   -9.4358 O   0  0  0  0  0  0  0  0  0  0  0  0
   24.5453  -21.9663   -9.7752 O   0  0  0  0  0  0  0  0  0  0  0  0
  2  1  1  6
  2  3  1  0
  4  3  1  0
  4  5  1  0
  6  5  1  0
  7  6  1  0
  8  2  1  0
  9  8  2  0
 11 13  1  0
 11 10  1  6
 11 12  1  0
 13 14  1  6
 14  8  1  0
 15 25  1  0
 15 13  1  0
 16 15  2  0
 17 18  1  0
 18 19  2  0
 20 21  1  0
 20 18  1  0
 21 22  1  0
 23 22  1  0
 24 23  1  6
 24 25  1  0
 26 28  1  0
 26 24  1  0
 27 26  2  0
M  END
$$$$
