KVR.pdb
     RDKit          3D

 28 27  0  0  1  0  0  0  0  0999 V2000
   17.7150  -26.2938  -13.3535 N   0  0  0  0  0  0  0  0  0  0  0  0
   18.8631  -25.4567  -13.2619 C   0  0  1  0  0  0  0  0  0  0  0  0
   19.9273  -26.0243  -12.3597 C   0  0  0  0  0  0  0  0  0  0  0  0
   19.6930  -25.8019  -10.9061 C   0  0  0  0  0  0  0  0  0  0  0  0
   19.0275  -26.9098  -10.1721 C   0  0  0  0  0  0  0  0  0  0  0  0
   18.7756  -26.5920   -8.7149 C   0  0  0  0  0  0  0  0  0  0  0  0
   18.1074  -27.7758   -8.1622 N   0  0  0  0  0  0  0  0  0  0  0  0
   19.4930  -25.1512  -14.5846 C   0  0  0  0  0  0  0  0  0  0  0  0
   19.5668  -26.0705  -15.4658 O   0  0  0  0  0  0  0  0  0  0  0  0
   20.3393  -22.2521  -18.3104 C   0  0  0  0  0  0  0  0  0  0  0  0
   19.7167  -22.6862  -17.0177 C   0  0  2  0  0  0  0  0  0  0  0  0
   19.4306  -21.4197  -16.2370 C   0  0  0  0  0  0  0  0  0  0  0  0
   20.5758  -23.6511  -16.2791 C   0  0  2  0  0  0  0  0  0  0  0  0
   20.0197  -23.9089  -14.9401 N   0  0  0  0  0  0  0  0  0  0  0  0
   21.9995  -23.2328  -16.1257 C   0  0  0  0  0  0  0  0  0  0  0  0
   22.3197  -22.3753  -15.2294 O   0  0  0  0  0  0  0  0  0  0  0  0
   29.3868  -27.5230  -17.5640 N   0  0  0  0  0  0  0  0  0  0  0  0
   28.1479  -27.5563  -16.8146 C   0  0  0  0  0  0  0  0  0  0  0  0
   27.7534  -28.6917  -16.3797 N   0  0  0  0  0  0  0  0  0  0  0  0
   27.4075  -26.3904  -16.5758 N   0  0  0  0  0  0  0  0  0  0  0  0
   27.7308  -25.1570  -17.2424 C   0  0  0  0  0  0  0  0  0  0  0  0
   26.8058  -24.0501  -16.8262 C   0  0  0  0  0  0  0  0  0  0  0  0
   25.3469  -24.3988  -16.9123 C   0  0  0  0  0  0  0  0  0  0  0  0
   24.4417  -23.2022  -16.6657 C   0  0  2  0  0  0  0  0  0  0  0  0
   23.0757  -23.7148  -16.9031 N   0  0  0  0  0  0  0  0  0  0  0  0
   24.7763  -22.1567  -17.6532 C   0  0  0  0  0  0  0  0  0  0  0  0
   24.1459  -22.1396  -18.7396 O   0  0  0  0  0  0  0  0  0  0  0  0
   25.7447  -21.1928  -17.4516 O   0  0  0  0  0  0  0  0  0  0  0  0
  2  1  1  6
  2  3  1  0
  4  3  1  0
  4  5  1  0
  6  5  1  0
  7  6  1  0
  8  2  1  0
  9  8  2  0
 11 13  1  0
 11 10  1  6
 11 12  1  0
 13 14  1  1
 14  8  1  0
 15 25  1  0
 15 13  1  0
 16 15  2  0
 17 18  1  0
 18 19  2  0
 20 21  1  0
 20 18  1  0
 21 22  1  0
 23 22  1  0
 24 23  1  6
 24 25  1  0
 26 28  1  0
 26 24  1  0
 27 26  2  0
M  END
$$$$
