KVR.pdb
     RDKit          3D

 28 27  0  0  1  0  0  0  0  0999 V2000
   28.4115  -21.1616  -19.2410 N   0  0  0  0  0  0  0  0  0  0  0  0
   27.6083  -20.3048  -18.4360 C   0  0  1  0  0  0  0  0  0  0  0  0
   26.3541  -19.8534  -19.1373 C   0  0  0  0  0  0  0  0  0  0  0  0
   26.5860  -19.0355  -20.3599 C   0  0  0  0  0  0  0  0  0  0  0  0
   25.8901  -19.4876  -21.5930 C   0  0  0  0  0  0  0  0  0  0  0  0
   26.1917  -18.6239  -22.7976 C   0  0  0  0  0  0  0  0  0  0  0  0
   25.6756  -17.2906  -22.4668 N   0  0  0  0  0  0  0  0  0  0  0  0
   27.2132  -20.9068  -17.1241 C   0  0  0  0  0  0  0  0  0  0  0  0
   26.8362  -22.1248  -17.0867 O   0  0  0  0  0  0  0  0  0  0  0  0
   28.1326  -19.1210  -13.3783 C   0  0  0  0  0  0  0  0  0  0  0  0
   28.0168  -20.5926  -13.6399 C   0  0  2  0  0  0  0  0  0  0  0  0
   29.3914  -21.0561  -14.0770 C   0  0  0  0  0  0  0  0  0  0  0  0
   26.9494  -20.9028  -14.6291 C   0  0  2  0  0  0  0  0  0  0  0  0
   27.2244  -20.2244  -15.9069 N   0  0  0  0  0  0  0  0  0  0  0  0
   25.5680  -20.5456  -14.1936 C   0  0  0  0  0  0  0  0  0  0  0  0
   25.1028  -19.3778  -14.4408 O   0  0  0  0  0  0  0  0  0  0  0  0
   19.1294  -25.0496  -12.5446 N   0  0  0  0  0  0  0  0  0  0  0  0
   18.4131  -23.8250  -12.2531 C   0  0  0  0  0  0  0  0  0  0  0  0
   17.4114  -23.9030  -11.4629 N   0  0  0  0  0  0  0  0  0  0  0  0
   18.8002  -22.6011  -12.8159 N   0  0  0  0  0  0  0  0  0  0  0  0
   19.9216  -22.5192  -13.7136 C   0  0  0  0  0  0  0  0  0  0  0  0
   20.9496  -21.5431  -13.2190 C   0  0  0  0  0  0  0  0  0  0  0  0
   22.3639  -21.8990  -13.5806 C   0  0  0  0  0  0  0  0  0  0  0  0
   23.3765  -20.9012  -13.0413 C   0  0  2  0  0  0  0  0  0  0  0  0
   24.6835  -21.4086  -13.5098 N   0  0  0  0  0  0  0  0  0  0  0  0
   23.3141  -20.9290  -11.5663 C   0  0  0  0  0  0  0  0  0  0  0  0
   22.4190  -20.2579  -10.9951 O   0  0  0  0  0  0  0  0  0  0  0  0
   24.1850  -21.6524  -10.7751 O   0  0  0  0  0  0  0  0  0  0  0  0
  2  1  1  6
  2  3  1  0
  4  3  1  0
  4  5  1  0
  6  5  1  0
  7  6  1  0
  8  2  1  0
  9  8  2  0
 11 13  1  0
 11 10  1  6
 11 12  1  0
 13 14  1  6
 14  8  1  0
 15 25  1  0
 15 13  1  0
 16 15  2  0
 17 18  1  0
 18 19  2  0
 20 21  1  0
 20 18  1  0
 21 22  1  0
 23 22  1  0
 24 23  1  6
 24 25  1  0
 26 28  1  0
 26 24  1  0
 27 26  2  0
M  END
$$$$
