KVR.pdb
     RDKit          3D

 28 27  0  0  1  0  0  0  0  0999 V2000
   23.2524  -21.1034   -8.3043 N   0  0  0  0  0  0  0  0  0  0  0  0
   22.6515  -21.1207   -9.5949 C   0  0  1  0  0  0  0  0  0  0  0  0
   21.2854  -20.4864   -9.6102 C   0  0  0  0  0  0  0  0  0  0  0  0
   20.1593  -21.4409   -9.8048 C   0  0  0  0  0  0  0  0  0  0  0  0
   19.8394  -22.3218   -8.6511 C   0  0  0  0  0  0  0  0  0  0  0  0
   18.6436  -23.2147   -8.8972 C   0  0  0  0  0  0  0  0  0  0  0  0
   18.5933  -24.1320   -7.7530 N   0  0  0  0  0  0  0  0  0  0  0  0
   23.4790  -20.4617  -10.6536 C   0  0  0  0  0  0  0  0  0  0  0  0
   24.0696  -19.3629  -10.3875 O   0  0  0  0  0  0  0  0  0  0  0  0
   25.5464  -22.5072  -13.5176 C   0  0  0  0  0  0  0  0  0  0  0  0
   25.8105  -21.1025  -13.0654 C   0  0  2  0  0  0  0  0  0  0  0  0
   26.6057  -21.2121  -11.7804 C   0  0  0  0  0  0  0  0  0  0  0  0
   24.5553  -20.3176  -12.9152 C   0  0  2  0  0  0  0  0  0  0  0  0
   23.6607  -20.9663  -11.9418 N   0  0  0  0  0  0  0  0  0  0  0  0
   23.7963  -20.1007  -14.1811 C   0  0  0  0  0  0  0  0  0  0  0  0
   23.0046  -21.0098  -14.6144 O   0  0  0  0  0  0  0  0  0  0  0  0
   23.4977  -13.5093  -20.3032 N   0  0  0  0  0  0  0  0  0  0  0  0
   23.7503  -14.8413  -20.8127 C   0  0  0  0  0  0  0  0  0  0  0  0
   24.1851  -14.9405  -22.0107 N   0  0  0  0  0  0  0  0  0  0  0  0
   23.5257  -15.9789  -20.0254 N   0  0  0  0  0  0  0  0  0  0  0  0
   23.0056  -15.8650  -18.6888 C   0  0  0  0  0  0  0  0  0  0  0  0
   22.7096  -17.2135  -18.0989 C   0  0  0  0  0  0  0  0  0  0  0  0
   23.4563  -17.5099  -16.8292 C   0  0  0  0  0  0  0  0  0  0  0  0
   23.1128  -18.8734  -16.2508 C   0  0  2  0  0  0  0  0  0  0  0  0
   23.8655  -18.9381  -14.9803 N   0  0  0  0  0  0  0  0  0  0  0  0
   23.5955  -19.9087  -17.1865 C   0  0  0  0  0  0  0  0  0  0  0  0
   22.7599  -20.4667  -17.9404 O   0  0  0  0  0  0  0  0  0  0  0  0
   24.9165  -20.3006  -17.2820 O   0  0  0  0  0  0  0  0  0  0  0  0
  2  1  1  1
  2  3  1  0
  4  3  1  0
  4  5  1  0
  6  5  1  0
  7  6  1  0
  8  2  1  0
  9  8  2  0
 11 13  1  0
 11 10  1  1
 11 12  1  0
 13 14  1  1
 14  8  1  0
 15 25  1  0
 15 13  1  0
 16 15  2  0
 17 18  1  0
 18 19  2  0
 20 21  1  0
 20 18  1  0
 21 22  1  0
 23 22  1  0
 24 23  1  6
 24 25  1  0
 26 28  1  0
 26 24  1  0
 27 26  2  0
M  END
$$$$
