ALH.pdb
     RDKit          3D

 24 24  0  0  1  0  0  0  0  0999 V2000
   17.3125  -10.7572  -17.4364 C   0  0  0  0  0  0  0  0  0  0  0  0
   18.4861  -11.6943  -17.1938 C   0  0  2  0  0  0  0  0  0  0  0  0
   17.9821  -12.9270  -16.6580 N   0  0  0  0  0  0  0  0  0  0  0  0
   19.4111  -11.0413  -16.2390 C   0  0  0  0  0  0  0  0  0  0  0  0
   19.0935  -10.8675  -15.0200 O   0  0  0  0  0  0  0  0  0  0  0  0
   24.6056  -12.2463  -16.0526 C   0  0  0  0  0  0  0  0  0  0  0  0
   23.2059  -11.8019  -15.6241 C   0  0  1  0  0  0  0  0  0  0  0  0
   23.0975  -11.8940  -14.0962 C   0  0  0  0  0  0  0  0  0  0  0  0
   23.0150  -10.3645  -15.9731 C   0  0  0  0  0  0  0  0  0  0  0  0
   21.6161   -9.9193  -15.7122 C   0  0  2  0  0  0  0  0  0  0  0  0
   20.6907  -10.5848  -16.6550 N   0  0  0  0  0  0  0  0  0  0  0  0
   21.5099   -8.4392  -15.9121 C   0  0  0  0  0  0  0  0  0  0  0  0
   21.0470   -7.9304  -16.9635 O   0  0  0  0  0  0  0  0  0  0  0  0
   21.9470   -7.5520  -14.8781 N   0  0  0  0  0  0  0  0  0  0  0  0
   21.6822   -6.1172  -15.0168 C   0  0  1  0  0  0  0  0  0  0  0  0
   20.2131   -5.8701  -15.2358 C   0  0  0  0  0  0  0  0  0  0  0  0
   19.9592   -5.6209  -16.6636 C   0  0  0  0  0  0  0  0  0  0  0  0
   20.8793   -5.5453  -17.6809 C   0  0  0  0  0  0  0  0  0  0  0  0
   20.2329   -5.2862  -18.8183 N   0  0  0  0  0  0  0  0  0  0  0  0
   18.9349   -5.1984  -18.5365 C   0  0  0  0  0  0  0  0  0  0  0  0
   18.7488   -5.4005  -17.2224 N   0  0  0  0  0  0  0  0  0  0  0  0
   22.2716   -5.3710  -13.8975 C   0  0  0  0  0  0  0  0  0  0  0  0
   22.7957   -4.0990  -13.9864 O   0  0  0  0  0  0  0  0  0  0  0  0
   22.3146   -5.9182  -12.7510 O   0  0  0  0  0  0  0  0  0  0  0  0
  2  1  1  1
  2  3  1  0
  4  2  1  0
  4  5  2  0
  7  6  1  1
  7  9  1  0
  7  8  1  0
 10  9  1  6
 10 11  1  0
 10 12  1  0
 11  4  1  0
 12 14  1  0
 13 12  2  0
 14 15  1  0
 15 22  1  0
 16 17  1  0
 15 16  1  1
 17 18  2  0
 19 18  1  0
 20 19  1  0
 21 20  2  0
 21 17  1  0
 22 24  2  0
 22 23  1  0
M  END
$$$$
