ALH.pdb
     RDKit          3D

 24 24  0  0  1  0  0  0  0  0999 V2000
   26.3812  -18.7096  -16.3264 C   0  0  0  0  0  0  0  0  0  0  0  0
   27.2995  -19.7534  -15.7085 C   0  0  2  0  0  0  0  0  0  0  0  0
   27.6783  -20.6890  -16.7291 N   0  0  0  0  0  0  0  0  0  0  0  0
   26.5628  -20.4309  -14.6166 C   0  0  0  0  0  0  0  0  0  0  0  0
   26.0519  -21.5844  -14.7762 O   0  0  0  0  0  0  0  0  0  0  0  0
   25.8493  -22.0603   -9.6111 C   0  0  0  0  0  0  0  0  0  0  0  0
   25.4382  -20.5982   -9.7944 C   0  0  1  0  0  0  0  0  0  0  0  0
   25.8422  -19.8044   -8.5450 C   0  0  0  0  0  0  0  0  0  0  0  0
   26.2019  -20.0089  -10.9320 C   0  0  0  0  0  0  0  0  0  0  0  0
   25.6838  -20.4881  -12.2454 C   0  0  2  0  0  0  0  0  0  0  0  0
   26.4014  -19.8117  -13.3481 N   0  0  0  0  0  0  0  0  0  0  0  0
   24.2263  -20.1661  -12.3631 C   0  0  0  0  0  0  0  0  0  0  0  0
   23.7341  -19.0929  -11.9336 O   0  0  0  0  0  0  0  0  0  0  0  0
   23.3422  -21.1035  -12.9854 N   0  0  0  0  0  0  0  0  0  0  0  0
   22.2088  -20.5983  -13.7652 C   0  0  1  0  0  0  0  0  0  0  0  0
   22.6832  -19.6450  -14.8298 C   0  0  0  0  0  0  0  0  0  0  0  0
   21.5264  -19.0885  -15.5489 C   0  0  0  0  0  0  0  0  0  0  0  0
   20.1950  -19.3429  -15.3251 C   0  0  0  0  0  0  0  0  0  0  0  0
   19.4769  -18.6497  -16.2098 N   0  0  0  0  0  0  0  0  0  0  0  0
   20.3254  -17.9706  -16.9784 C   0  0  0  0  0  0  0  0  0  0  0  0
   21.5842  -18.2270  -16.5883 N   0  0  0  0  0  0  0  0  0  0  0  0
   21.3826  -21.7085  -14.2572 C   0  0  0  0  0  0  0  0  0  0  0  0
   21.8448  -22.7558  -15.0252 O   0  0  0  0  0  0  0  0  0  0  0  0
   20.1450  -21.7267  -13.9676 O   0  0  0  0  0  0  0  0  0  0  0  0
  2  1  1  6
  2  3  1  0
  4  2  1  0
  4  5  2  0
  7  6  1  1
  7  9  1  0
  7  8  1  0
 10  9  1  1
 10 11  1  0
 10 12  1  0
 11  4  1  0
 12 14  1  0
 13 12  2  0
 14 15  1  0
 15 22  1  0
 16 17  1  0
 15 16  1  6
 17 18  2  0
 19 18  1  0
 20 19  1  0
 21 20  2  0
 21 17  1  0
 22 24  2  0
 22 23  1  0
M  END
$$$$
