ALH.pdb
     RDKit          3D

 24 24  0  0  1  0  0  0  0  0999 V2000
   21.1901  -15.1132  -17.2920 C   0  0  0  0  0  0  0  0  0  0  0  0
   21.1199  -13.7416  -17.9464 C   0  0  2  0  0  0  0  0  0  0  0  0
   21.7729  -13.8113  -19.2228 N   0  0  0  0  0  0  0  0  0  0  0  0
   21.7971  -12.7690  -17.0579 C   0  0  0  0  0  0  0  0  0  0  0  0
   21.3144  -12.4579  -15.9233 O   0  0  0  0  0  0  0  0  0  0  0  0
   25.7087  -10.2796  -14.6056 C   0  0  0  0  0  0  0  0  0  0  0  0
   25.7411   -9.9288  -16.0943 C   0  0  1  0  0  0  0  0  0  0  0  0
   27.2012   -9.8684  -16.5625 C   0  0  0  0  0  0  0  0  0  0  0  0
   25.0945  -11.0232  -16.8744 C   0  0  0  0  0  0  0  0  0  0  0  0
   23.6238  -11.0714  -16.6337 C   0  0  2  0  0  0  0  0  0  0  0  0
   23.0147  -12.1478  -17.4454 N   0  0  0  0  0  0  0  0  0  0  0  0
   23.0021   -9.7694  -17.0336 C   0  0  0  0  0  0  0  0  0  0  0  0
   23.1072   -9.2978  -18.1934 O   0  0  0  0  0  0  0  0  0  0  0  0
   22.2552   -9.0168  -16.0727 N   0  0  0  0  0  0  0  0  0  0  0  0
   21.5439   -7.8135  -16.5130 C   0  0  1  0  0  0  0  0  0  0  0  0
   20.3926   -7.5132  -15.5903 C   0  0  0  0  0  0  0  0  0  0  0  0
   19.6347   -6.3601  -16.1013 C   0  0  0  0  0  0  0  0  0  0  0  0
   19.1385   -6.1746  -17.3688 C   0  0  0  0  0  0  0  0  0  0  0  0
   18.5319   -4.9878  -17.4167 N   0  0  0  0  0  0  0  0  0  0  0  0
   18.6371   -4.4293  -16.2130 C   0  0  0  0  0  0  0  0  0  0  0  0
   19.3091   -5.2550  -15.3951 N   0  0  0  0  0  0  0  0  0  0  0  0
   22.4815   -6.7002  -16.7096 C   0  0  0  0  0  0  0  0  0  0  0  0
   22.4727   -5.8426  -17.7889 O   0  0  0  0  0  0  0  0  0  0  0  0
   23.3785   -6.4923  -15.8333 O   0  0  0  0  0  0  0  0  0  0  0  0
  2  1  1  1
  2  3  1  0
  4  2  1  0
  4  5  2  0
  7  6  1  1
  7  9  1  0
  7  8  1  0
 10  9  1  6
 10 11  1  0
 10 12  1  0
 11  4  1  0
 12 14  1  0
 13 12  2  0
 14 15  1  0
 15 22  1  0
 16 17  1  0
 15 16  1  1
 17 18  2  0
 19 18  1  0
 20 19  1  0
 21 20  2  0
 21 17  1  0
 22 24  2  0
 22 23  1  0
M  END
$$$$
