ALH.pdb
     RDKit          3D

 24 24  0  0  1  0  0  0  0  0999 V2000
   25.2792  -16.0833  -19.3315 C   0  0  0  0  0  0  0  0  0  0  0  0
   24.7154  -14.7313  -19.7420 C   0  0  2  0  0  0  0  0  0  0  0  0
   25.5772  -14.1614  -20.7385 N   0  0  0  0  0  0  0  0  0  0  0  0
   24.6553  -13.8694  -18.5389 C   0  0  0  0  0  0  0  0  0  0  0  0
   23.9476  -14.1850  -17.5306 O   0  0  0  0  0  0  0  0  0  0  0  0
   29.1300  -11.6499  -16.7896 C   0  0  0  0  0  0  0  0  0  0  0  0
   27.7354  -12.2785  -16.7799 C   0  0  1  0  0  0  0  0  0  0  0  0
   27.4507  -12.8434  -15.3819 C   0  0  0  0  0  0  0  0  0  0  0  0
   26.7137  -11.2190  -17.0212 C   0  0  0  0  0  0  0  0  0  0  0  0
   25.3637  -11.8050  -17.2603 C   0  0  2  0  0  0  0  0  0  0  0  0
   25.3899  -12.6552  -18.4706 N   0  0  0  0  0  0  0  0  0  0  0  0
   24.3664  -10.7090  -17.4748 C   0  0  0  0  0  0  0  0  0  0  0  0
   24.2124  -10.1429  -18.5859 O   0  0  0  0  0  0  0  0  0  0  0  0
   23.5470  -10.2742  -16.3854 N   0  0  0  0  0  0  0  0  0  0  0  0
   22.5670   -9.2094  -16.6169 C   0  0  1  0  0  0  0  0  0  0  0  0
   21.4271   -9.3190  -15.6394 C   0  0  0  0  0  0  0  0  0  0  0  0
   20.4485   -8.2506  -15.8962 C   0  0  0  0  0  0  0  0  0  0  0  0
   20.4463   -7.3419  -16.9266 C   0  0  0  0  0  0  0  0  0  0  0  0
   19.3939   -6.5361  -16.7784 N   0  0  0  0  0  0  0  0  0  0  0  0
   18.7408   -6.9186  -15.6833 C   0  0  0  0  0  0  0  0  0  0  0  0
   19.3720   -7.9667  -15.1305 N   0  0  0  0  0  0  0  0  0  0  0  0
   23.2258   -7.8971  -16.6493 C   0  0  0  0  0  0  0  0  0  0  0  0
   24.3089   -7.5388  -15.8753 O   0  0  0  0  0  0  0  0  0  0  0  0
   22.7815   -7.0075  -17.4411 O   0  0  0  0  0  0  0  0  0  0  0  0
  2  1  1  1
  2  3  1  0
  4  2  1  0
  4  5  2  0
  7  6  1  1
  7  9  1  0
  7  8  1  0
 10  9  1  6
 10 11  1  0
 10 12  1  0
 11  4  1  0
 12 14  1  0
 13 12  2  0
 14 15  1  0
 15 22  1  0
 16 17  1  0
 15 16  1  1
 17 18  2  0
 19 18  1  0
 20 19  1  0
 21 20  2  0
 21 17  1  0
 22 24  2  0
 22 23  1  0
M  END
$$$$
