ALH.pdb
     RDKit          3D

 24 24  0  0  1  0  0  0  0  0999 V2000
   22.0952  -10.0109  -21.1295 C   0  0  0  0  0  0  0  0  0  0  0  0
   23.3528  -10.4886  -20.4192 C   0  0  2  0  0  0  0  0  0  0  0  0
   23.5336  -11.8844  -20.7012 N   0  0  0  0  0  0  0  0  0  0  0  0
   23.1794  -10.2605  -18.9660 C   0  0  0  0  0  0  0  0  0  0  0  0
   22.2229  -10.7937  -18.3196 O   0  0  0  0  0  0  0  0  0  0  0  0
   26.9162  -11.1729  -15.5848 C   0  0  0  0  0  0  0  0  0  0  0  0
   25.5099  -10.9476  -16.1433 C   0  0  1  0  0  0  0  0  0  0  0  0
   24.4943  -11.6698  -15.2481 C   0  0  0  0  0  0  0  0  0  0  0  0
   25.1760   -9.4958  -16.0712 C   0  0  0  0  0  0  0  0  0  0  0  0
   23.9078   -9.1896  -16.7932 C   0  0  2  0  0  0  0  0  0  0  0  0
   24.0803   -9.4342  -18.2419 N   0  0  0  0  0  0  0  0  0  0  0  0
   23.5483   -7.7494  -16.5972 C   0  0  0  0  0  0  0  0  0  0  0  0
   24.1077   -6.8204  -17.2318 O   0  0  0  0  0  0  0  0  0  0  0  0
   22.5309   -7.3955  -15.6553 N   0  0  0  0  0  0  0  0  0  0  0  0
   22.1918   -5.9810  -15.4768 C   0  0  1  0  0  0  0  0  0  0  0  0
   20.8193   -5.6936  -16.0255 C   0  0  0  0  0  0  0  0  0  0  0  0
   20.8584   -5.7147  -17.4963 C   0  0  0  0  0  0  0  0  0  0  0  0
   21.6103   -4.9220  -18.3291 C   0  0  0  0  0  0  0  0  0  0  0  0
   21.3343   -5.2526  -19.5914 N   0  0  0  0  0  0  0  0  0  0  0  0
   20.4307   -6.2297  -19.5669 C   0  0  0  0  0  0  0  0  0  0  0  0
   20.1276   -6.5254  -18.2928 N   0  0  0  0  0  0  0  0  0  0  0  0
   22.3945   -5.5717  -14.0809 C   0  0  0  0  0  0  0  0  0  0  0  0
   22.5172   -4.2676  -13.6511 O   0  0  0  0  0  0  0  0  0  0  0  0
   22.4671   -6.4689  -13.1835 O   0  0  0  0  0  0  0  0  0  0  0  0
  2  1  1  6
  2  3  1  0
  4  2  1  0
  4  5  2  0
  7  6  1  1
  7  9  1  0
  7  8  1  0
 10  9  1  1
 10 11  1  0
 10 12  1  0
 11  4  1  0
 12 14  1  0
 13 12  2  0
 14 15  1  0
 15 22  1  0
 16 17  1  0
 15 16  1  1
 17 18  2  0
 19 18  1  0
 20 19  1  0
 21 20  2  0
 21 17  1  0
 22 24  2  0
 22 23  1  0
M  END
$$$$
