ALH.pdb
     RDKit          3D

 24 24  0  0  1  0  0  0  0  0999 V2000
   22.9826  -14.5903  -17.7322 C   0  0  0  0  0  0  0  0  0  0  0  0
   22.5331  -13.2626  -18.3234 C   0  0  2  0  0  0  0  0  0  0  0  0
   23.1819  -13.0851  -19.5915 N   0  0  0  0  0  0  0  0  0  0  0  0
   22.9098  -12.1840  -17.3807 C   0  0  0  0  0  0  0  0  0  0  0  0
   22.4483  -12.1460  -16.1964 O   0  0  0  0  0  0  0  0  0  0  0  0
   27.9235  -10.4240  -16.8972 C   0  0  0  0  0  0  0  0  0  0  0  0
   26.4720  -10.7878  -16.5791 C   0  0  1  0  0  0  0  0  0  0  0  0
   26.3097  -10.9149  -15.0585 C   0  0  0  0  0  0  0  0  0  0  0  0
   25.5780   -9.6727  -17.0055 C   0  0  0  0  0  0  0  0  0  0  0  0
   24.1398  -10.0368  -16.8561 C   0  0  2  0  0  0  0  0  0  0  0  0
   23.8039  -11.1506  -17.7699 N   0  0  0  0  0  0  0  0  0  0  0  0
   23.2806   -8.8622  -17.2079 C   0  0  0  0  0  0  0  0  0  0  0  0
   23.0012   -8.5602  -18.3951 O   0  0  0  0  0  0  0  0  0  0  0  0
   22.7470   -8.0383  -16.1668 N   0  0  0  0  0  0  0  0  0  0  0  0
   21.7247   -7.0439  -16.5040 C   0  0  1  0  0  0  0  0  0  0  0  0
   20.5541   -7.7003  -17.1866 C   0  0  0  0  0  0  0  0  0  0  0  0
   19.5703   -6.6783  -17.5773 C   0  0  0  0  0  0  0  0  0  0  0  0
   18.4685   -6.2584  -16.8723 C   0  0  0  0  0  0  0  0  0  0  0  0
   17.8342   -5.3309  -17.5907 N   0  0  0  0  0  0  0  0  0  0  0  0
   18.5114   -5.1620  -18.7242 C   0  0  0  0  0  0  0  0  0  0  0  0
   19.5770   -5.9786  -18.7333 N   0  0  0  0  0  0  0  0  0  0  0  0
   21.3774   -6.2379  -15.3263 C   0  0  0  0  0  0  0  0  0  0  0  0
   20.9594   -4.9248  -15.3644 O   0  0  0  0  0  0  0  0  0  0  0  0
   21.4620   -6.7681  -14.1742 O   0  0  0  0  0  0  0  0  0  0  0  0
  2  1  1  1
  2  3  1  0
  4  2  1  0
  4  5  2  0
  7  6  1  1
  7  9  1  0
  7  8  1  0
 10  9  1  6
 10 11  1  0
 10 12  1  0
 11  4  1  0
 12 14  1  0
 13 12  2  0
 14 15  1  0
 15 22  1  0
 16 17  1  0
 15 16  1  1
 17 18  2  0
 19 18  1  0
 20 19  1  0
 21 20  2  0
 21 17  1  0
 22 24  2  0
 22 23  1  0
M  END
$$$$
