NYW.pdb
     RDKit          3D

 35 37  0  0  1  0  0  0  0  0999 V2000
   27.9810  -22.1084  -18.0161 N   0  0  0  0  0  0  0  0  0  0  0  0
   28.5105  -20.9995  -17.3013 C   0  0  0  0  0  0  0  0  0  0  0  0
   29.7457  -20.7794  -17.3721 O   0  0  0  0  0  0  0  0  0  0  0  0
   27.6567  -20.1244  -16.4969 C   0  0  0  0  0  0  0  0  0  0  0  0
   26.2188  -20.6564  -16.4106 C   0  0  2  0  0  0  0  0  0  0  0  0
   25.4934  -19.9672  -17.4617 N   0  0  0  0  0  0  0  0  0  0  0  0
   25.7273  -20.2512  -15.0662 C   0  0  0  0  0  0  0  0  0  0  0  0
   25.7991  -19.0207  -14.7800 O   0  0  0  0  0  0  0  0  0  0  0  0
   19.4014  -18.0596  -15.7069 O   0  0  0  0  0  0  0  0  0  0  0  0
   20.3343  -18.8356  -14.9871 C   0  0  0  0  0  0  0  0  0  0  0  0
   21.0068  -19.8446  -15.6029 C   0  0  0  0  0  0  0  0  0  0  0  0
   21.9334  -20.6129  -14.8820 C   0  0  0  0  0  0  0  0  0  0  0  0
   22.1741  -20.3595  -13.5517 C   0  0  0  0  0  0  0  0  0  0  0  0
   23.1339  -21.1536  -12.8075 C   0  0  0  0  0  0  0  0  0  0  0  0
   24.5673  -20.6584  -12.8949 C   0  0  2  0  0  0  0  0  0  0  0  0
   25.1990  -21.1595  -14.1257 N   0  0  0  0  0  0  0  0  0  0  0  0
   25.3336  -21.1028  -11.7026 C   0  0  0  0  0  0  0  0  0  0  0  0
   25.5893  -22.3529  -11.6032 O   0  0  0  0  0  0  0  0  0  0  0  0
   21.4832  -19.3365  -12.9535 C   0  0  0  0  0  0  0  0  0  0  0  0
   20.5604  -18.5660  -13.6581 C   0  0  0  0  0  0  0  0  0  0  0  0
   25.8036  -20.2803  -10.6742 N   0  0  0  0  0  0  0  0  0  0  0  0
   26.5051  -20.8272   -9.4872 C   0  0  1  0  0  0  0  0  0  0  0  0
   27.3800  -19.7915   -8.8931 C   0  0  0  0  0  0  0  0  0  0  0  0
   28.0881  -20.2540   -7.6996 C   0  0  0  0  0  0  0  0  0  0  0  0
   28.6561  -21.5268   -7.4969 C   0  0  0  0  0  0  0  0  0  0  0  0
   29.1848  -21.6119   -6.2732 N   0  0  0  0  0  0  0  0  0  0  0  0
   28.9886  -20.4441   -5.6610 C   0  0  0  0  0  0  0  0  0  0  0  0
   29.3626  -20.0150   -4.3955 C   0  0  0  0  0  0  0  0  0  0  0  0
   29.0744  -18.7225   -3.9576 C   0  0  0  0  0  0  0  0  0  0  0  0
   28.4055  -17.8755   -4.8148 C   0  0  0  0  0  0  0  0  0  0  0  0
   28.0241  -18.2790   -6.0730 C   0  0  0  0  0  0  0  0  0  0  0  0
   28.3169  -19.5769   -6.5025 C   0  0  0  0  0  0  0  0  0  0  0  0
   25.4894  -21.3344   -8.5786 C   0  0  0  0  0  0  0  0  0  0  0  0
   24.3594  -20.7701   -8.4202 O   0  0  0  0  0  0  0  0  0  0  0  0
   25.6840  -22.4854   -7.8205 O   0  0  0  0  0  0  0  0  0  0  0  0
  2  1  1  0
  3  2  2  0
  4  2  1  0
  5  6  1  6
  5  4  1  0
  7  5  1  0
  8  7  2  0
  9 10  1  0
 10 20  2  0
 10 11  1  0
 11 12  2  0
 12 13  1  0
 13 14  1  0
 15 14  1  1
 15 17  1  0
 15 16  1  0
 16  7  1  0
 17 21  1  0
 18 17  2  0
 19 13  2  0
 20 19  1  0
 22 21  1  0
 22 23  1  1
 22 33  1  0
 24 32  1  0
 24 23  1  0
 25 24  2  0
 26 25  1  0
 26 27  1  0
 27 32  2  0
 28 27  1  0
 28 29  2  0
 29 30  1  0
 30 31  2  0
 32 31  1  0
 33 34  2  0
 33 35  1  0
M  END
$$$$
