NYW.pdb
     RDKit          3D

 35 37  0  0  1  0  0  0  0  0999 V2000
   23.8713  -13.7153  -24.2266 N   0  0  0  0  0  0  0  0  0  0  0  0
   23.2690  -13.2050  -23.0444 C   0  0  0  0  0  0  0  0  0  0  0  0
   22.0490  -13.4349  -22.8499 O   0  0  0  0  0  0  0  0  0  0  0  0
   24.0319  -12.4287  -22.0660 C   0  0  0  0  0  0  0  0  0  0  0  0
   25.4400  -12.0942  -22.5794 C   0  0  2  0  0  0  0  0  0  0  0  0
   26.1810  -13.3394  -22.4992 N   0  0  0  0  0  0  0  0  0  0  0  0
   25.9796  -11.0875  -21.6263 C   0  0  0  0  0  0  0  0  0  0  0  0
   26.5387  -11.5332  -20.5823 O   0  0  0  0  0  0  0  0  0  0  0  0
   23.3283   -5.7400  -25.5728 O   0  0  0  0  0  0  0  0  0  0  0  0
   24.2232   -6.1776  -24.5736 C   0  0  0  0  0  0  0  0  0  0  0  0
   25.2421   -7.0217  -24.8879 C   0  0  0  0  0  0  0  0  0  0  0  0
   26.1290   -7.4535  -23.8901 C   0  0  0  0  0  0  0  0  0  0  0  0
   25.9825   -7.0332  -22.5887 C   0  0  0  0  0  0  0  0  0  0  0  0
   26.9013   -7.4791  -21.5577 C   0  0  0  0  0  0  0  0  0  0  0  0
   26.4960   -8.7683  -20.8642 C   0  0  2  0  0  0  0  0  0  0  0  0
   25.8950   -9.6955  -21.8359 N   0  0  0  0  0  0  0  0  0  0  0  0
   25.5382   -8.4773  -19.7667 C   0  0  0  0  0  0  0  0  0  0  0  0
   24.2912   -8.5838  -20.0340 O   0  0  0  0  0  0  0  0  0  0  0  0
   24.9470   -6.1821  -22.2971 C   0  0  0  0  0  0  0  0  0  0  0  0
   24.0595   -5.7458  -23.2787 C   0  0  0  0  0  0  0  0  0  0  0  0
   25.8725   -8.0961  -18.4637 N   0  0  0  0  0  0  0  0  0  0  0  0
   24.8403   -7.7668  -17.4505 C   0  0  1  0  0  0  0  0  0  0  0  0
   25.2915   -8.1973  -16.1082 C   0  0  0  0  0  0  0  0  0  0  0  0
   24.2831   -7.9885  -15.0693 C   0  0  0  0  0  0  0  0  0  0  0  0
   23.6719   -8.9795  -14.2768 C   0  0  0  0  0  0  0  0  0  0  0  0
   22.7664   -8.4319  -13.4617 N   0  0  0  0  0  0  0  0  0  0  0  0
   22.7572   -7.1177  -13.6850 C   0  0  0  0  0  0  0  0  0  0  0  0
   22.0174   -6.1065  -13.0886 C   0  0  0  0  0  0  0  0  0  0  0  0
   22.1859   -4.7732  -13.4617 C   0  0  0  0  0  0  0  0  0  0  0  0
   23.1092   -4.4801  -14.4421 C   0  0  0  0  0  0  0  0  0  0  0  0
   23.8531   -5.4656  -15.0479 C   0  0  0  0  0  0  0  0  0  0  0  0
   23.6763   -6.7993  -14.6675 C   0  0  0  0  0  0  0  0  0  0  0  0
   24.5704   -6.3417  -17.5540 C   0  0  0  0  0  0  0  0  0  0  0  0
   25.4912   -5.4693  -17.6602 O   0  0  0  0  0  0  0  0  0  0  0  0
   23.2748   -5.8327  -17.5512 O   0  0  0  0  0  0  0  0  0  0  0  0
  2  1  1  0
  3  2  2  0
  4  2  1  0
  5  6  1  1
  5  4  1  0
  7  5  1  0
  8  7  2  0
  9 10  1  0
 10 20  2  0
 10 11  1  0
 11 12  2  0
 12 13  1  0
 13 14  1  0
 15 14  1  6
 15 17  1  0
 15 16  1  0
 16  7  1  0
 17 21  1  0
 18 17  2  0
 19 13  2  0
 20 19  1  0
 22 21  1  0
 22 23  1  1
 22 33  1  0
 24 32  1  0
 24 23  1  0
 25 24  2  0
 26 25  1  0
 26 27  1  0
 27 32  2  0
 28 27  1  0
 28 29  2  0
 29 30  1  0
 30 31  2  0
 32 31  1  0
 33 34  2  0
 33 35  1  0
M  END
$$$$
