NYW.pdb
     RDKit          3D

 35 37  0  0  1  0  0  0  0  0999 V2000
   28.9330  -20.6981  -19.1569 N   0  0  0  0  0  0  0  0  0  0  0  0
   27.5375  -20.9465  -19.2655 C   0  0  0  0  0  0  0  0  0  0  0  0
   26.9971  -20.8291  -20.3939 O   0  0  0  0  0  0  0  0  0  0  0  0
   26.7319  -21.3296  -18.1052 C   0  0  0  0  0  0  0  0  0  0  0  0
   27.5777  -21.4027  -16.8255 C   0  0  2  0  0  0  0  0  0  0  0  0
   28.3620  -22.6168  -16.9556 N   0  0  0  0  0  0  0  0  0  0  0  0
   26.5990  -21.5142  -15.7107 C   0  0  0  0  0  0  0  0  0  0  0  0
   26.0911  -22.6556  -15.5100 O   0  0  0  0  0  0  0  0  0  0  0  0
   30.8180  -21.6714  -10.3997 O   0  0  0  0  0  0  0  0  0  0  0  0
   29.5972  -21.2110  -10.9365 C   0  0  0  0  0  0  0  0  0  0  0  0
   29.5862  -20.4673  -12.0751 C   0  0  0  0  0  0  0  0  0  0  0  0
   28.3691  -20.0121  -12.6044 C   0  0  0  0  0  0  0  0  0  0  0  0
   27.1776  -20.3088  -11.9847 C   0  0  0  0  0  0  0  0  0  0  0  0
   25.9192  -19.8390  -12.5338 C   0  0  0  0  0  0  0  0  0  0  0  0
   25.3939  -20.6572  -13.7008 C   0  0  2  0  0  0  0  0  0  0  0  0
   26.2267  -20.4280  -14.8920 N   0  0  0  0  0  0  0  0  0  0  0  0
   23.9805  -20.2964  -13.9810 C   0  0  0  0  0  0  0  0  0  0  0  0
   23.7646  -19.1664  -14.5418 O   0  0  0  0  0  0  0  0  0  0  0  0
   27.2152  -21.0603  -10.8377 C   0  0  0  0  0  0  0  0  0  0  0  0
   28.4171  -21.5184  -10.3018 C   0  0  0  0  0  0  0  0  0  0  0  0
   22.8590  -21.0784  -13.6881 N   0  0  0  0  0  0  0  0  0  0  0  0
   21.4963  -20.6987  -14.1343 C   0  0  1  0  0  0  0  0  0  0  0  0
   21.1781  -21.3656  -15.4168 C   0  0  0  0  0  0  0  0  0  0  0  0
   19.8425  -21.0404  -15.9170 C   0  0  0  0  0  0  0  0  0  0  0  0
   19.2946  -19.7533  -16.0818 C   0  0  0  0  0  0  0  0  0  0  0  0
   18.0353  -19.8353  -16.5194 N   0  0  0  0  0  0  0  0  0  0  0  0
   17.7314  -21.1266  -16.6509 C   0  0  0  0  0  0  0  0  0  0  0  0
   16.5659  -21.7389  -17.0892 C   0  0  0  0  0  0  0  0  0  0  0  0
   16.4689  -23.1276  -17.1751 C   0  0  0  0  0  0  0  0  0  0  0  0
   17.5631  -23.8833  -16.8127 C   0  0  0  0  0  0  0  0  0  0  0  0
   18.7283  -23.2986  -16.3746 C   0  0  0  0  0  0  0  0  0  0  0  0
   18.8154  -21.9057  -16.2911 C   0  0  0  0  0  0  0  0  0  0  0  0
   20.5794  -21.0270  -13.0545 C   0  0  0  0  0  0  0  0  0  0  0  0
   19.6566  -20.2401  -12.6676 O   0  0  0  0  0  0  0  0  0  0  0  0
   20.6456  -22.2376  -12.3708 O   0  0  0  0  0  0  0  0  0  0  0  0
  2  1  1  0
  3  2  2  0
  4  2  1  0
  5  6  1  6
  5  4  1  0
  7  5  1  0
  8  7  2  0
  9 10  1  0
 10 20  2  0
 10 11  1  0
 11 12  2  0
 12 13  1  0
 13 14  1  0
 15 14  1  1
 15 17  1  0
 15 16  1  0
 16  7  1  0
 17 21  1  0
 18 17  2  0
 19 13  2  0
 20 19  1  0
 22 21  1  0
 22 23  1  6
 22 33  1  0
 24 32  1  0
 24 23  1  0
 25 24  2  0
 26 25  1  0
 26 27  1  0
 27 32  2  0
 28 27  1  0
 28 29  2  0
 29 30  1  0
 30 31  2  0
 32 31  1  0
 33 34  2  0
 33 35  1  0
M  END
$$$$
