NYW.pdb
     RDKit          3D

 35 37  0  0  1  0  0  0  0  0999 V2000
   26.0138  -15.0782  -15.9980 N   0  0  0  0  0  0  0  0  0  0  0  0
   25.4138  -16.2586  -16.5153 C   0  0  0  0  0  0  0  0  0  0  0  0
   24.9038  -16.2144  -17.6630 O   0  0  0  0  0  0  0  0  0  0  0  0
   25.3797  -17.5040  -15.7473 C   0  0  0  0  0  0  0  0  0  0  0  0
   25.9885  -17.3260  -14.3488 C   0  0  2  0  0  0  0  0  0  0  0  0
   27.3593  -16.9096  -14.5798 N   0  0  0  0  0  0  0  0  0  0  0  0
   25.9367  -18.6736  -13.7207 C   0  0  0  0  0  0  0  0  0  0  0  0
   24.8007  -19.2264  -13.6502 O   0  0  0  0  0  0  0  0  0  0  0  0
   26.6991  -22.9387  -18.6462 O   0  0  0  0  0  0  0  0  0  0  0  0
   26.9992  -22.6178  -17.3054 C   0  0  0  0  0  0  0  0  0  0  0  0
   26.4389  -23.3267  -16.2891 C   0  0  0  0  0  0  0  0  0  0  0  0
   26.7411  -23.0032  -14.9576 C   0  0  0  0  0  0  0  0  0  0  0  0
   27.6020  -21.9720  -14.6622 C   0  0  0  0  0  0  0  0  0  0  0  0
   27.9152  -21.6392  -13.2849 C   0  0  0  0  0  0  0  0  0  0  0  0
   26.9364  -20.6815  -12.6275 C   0  0  2  0  0  0  0  0  0  0  0  0
   27.0726  -19.3397  -13.2159 N   0  0  0  0  0  0  0  0  0  0  0  0
   27.1787  -20.6308  -11.1629 C   0  0  0  0  0  0  0  0  0  0  0  0
   28.3742  -20.3889  -10.7751 O   0  0  0  0  0  0  0  0  0  0  0  0
   28.1540  -21.2721  -15.7048 C   0  0  0  0  0  0  0  0  0  0  0  0
   27.8622  -21.5833  -17.0313 C   0  0  0  0  0  0  0  0  0  0  0  0
   26.2196  -20.8236  -10.1640 N   0  0  0  0  0  0  0  0  0  0  0  0
   26.5650  -20.7797   -8.7221 C   0  0  1  0  0  0  0  0  0  0  0  0
   27.3451  -19.5576   -8.4242 C   0  0  0  0  0  0  0  0  0  0  0  0
   27.6219  -19.3867   -6.9980 C   0  0  0  0  0  0  0  0  0  0  0  0
   27.0364  -18.4415   -6.1333 C   0  0  0  0  0  0  0  0  0  0  0  0
   27.5587  -18.5442   -4.9082 N   0  0  0  0  0  0  0  0  0  0  0  0
   28.4653  -19.5212   -4.9308 C   0  0  0  0  0  0  0  0  0  0  0  0
   29.2658  -20.0325   -3.9193 C   0  0  0  0  0  0  0  0  0  0  0  0
   30.1416  -21.0913   -4.1580 C   0  0  0  0  0  0  0  0  0  0  0  0
   30.1949  -21.6222   -5.4289 C   0  0  0  0  0  0  0  0  0  0  0  0
   29.4117  -21.1312   -6.4473 C   0  0  0  0  0  0  0  0  0  0  0  0
   28.5375  -20.0690   -6.1982 C   0  0  0  0  0  0  0  0  0  0  0  0
   25.3217  -20.8835   -7.9751 C   0  0  0  0  0  0  0  0  0  0  0  0
   25.2564  -21.3862   -6.8075 O   0  0  0  0  0  0  0  0  0  0  0  0
   24.1105  -20.4290   -8.4889 O   0  0  0  0  0  0  0  0  0  0  0  0
  2  1  1  0
  3  2  2  0
  4  2  1  0
  5  6  1  6
  5  4  1  0
  7  5  1  0
  8  7  2  0
  9 10  1  0
 10 20  2  0
 10 11  1  0
 11 12  2  0
 12 13  1  0
 13 14  1  0
 15 14  1  6
 15 17  1  0
 15 16  1  0
 16  7  1  0
 17 21  1  0
 18 17  2  0
 19 13  2  0
 20 19  1  0
 22 21  1  0
 22 23  1  6
 22 33  1  0
 24 32  1  0
 24 23  1  0
 25 24  2  0
 26 25  1  0
 26 27  1  0
 27 32  2  0
 28 27  1  0
 28 29  2  0
 29 30  1  0
 30 31  2  0
 32 31  1  0
 33 34  2  0
 33 35  1  0
M  END
$$$$
