NYW.pdb
     RDKit          3D

 35 37  0  0  1  0  0  0  0  0999 V2000
   22.3800  -13.6869  -20.1259 N   0  0  0  0  0  0  0  0  0  0  0  0
   21.4077  -12.9266  -19.4206 C   0  0  0  0  0  0  0  0  0  0  0  0
   20.1958  -13.2241  -19.5691 O   0  0  0  0  0  0  0  0  0  0  0  0
   21.7868  -11.8213  -18.5393 C   0  0  0  0  0  0  0  0  0  0  0  0
   23.3116  -11.6649  -18.4479 C   0  0  2  0  0  0  0  0  0  0  0  0
   23.7579  -12.7609  -17.6079 N   0  0  0  0  0  0  0  0  0  0  0  0
   23.5353  -10.3538  -17.7814 C   0  0  0  0  0  0  0  0  0  0  0  0
   23.0898  -10.2298  -16.6036 O   0  0  0  0  0  0  0  0  0  0  0  0
   28.5654  -12.0389  -14.7931 O   0  0  0  0  0  0  0  0  0  0  0  0
   27.9065  -10.9828  -15.4571 C   0  0  0  0  0  0  0  0  0  0  0  0
   28.1386  -10.7522  -16.7771 C   0  0  0  0  0  0  0  0  0  0  0  0
   27.4803   -9.7004  -17.4323 C   0  0  0  0  0  0  0  0  0  0  0  0
   26.5971   -8.8926  -16.7547 C   0  0  0  0  0  0  0  0  0  0  0  0
   25.9155   -7.8062  -17.4336 C   0  0  0  0  0  0  0  0  0  0  0  0
   24.4278   -8.0276  -17.6459 C   0  0  2  0  0  0  0  0  0  0  0  0
   24.2060   -9.2751  -18.3940 N   0  0  0  0  0  0  0  0  0  0  0  0
   23.8401   -6.8754  -18.3762 C   0  0  0  0  0  0  0  0  0  0  0  0
   24.1977   -6.7097  -19.5938 O   0  0  0  0  0  0  0  0  0  0  0  0
   26.3801   -9.1456  -15.4241 C   0  0  0  0  0  0  0  0  0  0  0  0
   27.0273  -10.1868  -14.7618 C   0  0  0  0  0  0  0  0  0  0  0  0
   22.9293   -5.9507  -17.8561 N   0  0  0  0  0  0  0  0  0  0  0  0
   22.4381   -4.7978  -18.6497 C   0  0  1  0  0  0  0  0  0  0  0  0
   21.0554   -4.4566  -18.2465 C   0  0  0  0  0  0  0  0  0  0  0  0
   20.4806   -3.3659  -19.0337 C   0  0  0  0  0  0  0  0  0  0  0  0
   20.3427   -3.3193  -20.4346 C   0  0  0  0  0  0  0  0  0  0  0  0
   19.8152   -2.1519  -20.8127 N   0  0  0  0  0  0  0  0  0  0  0  0
   19.5986   -1.4267  -19.7153 C   0  0  0  0  0  0  0  0  0  0  0  0
   19.0504   -0.1610  -19.5641 C   0  0  0  0  0  0  0  0  0  0  0  0
   18.8887    0.4091  -18.3016 C   0  0  0  0  0  0  0  0  0  0  0  0
   19.2879   -0.3170  -17.2001 C   0  0  0  0  0  0  0  0  0  0  0  0
   19.8345   -1.5728  -17.3256 C   0  0  0  0  0  0  0  0  0  0  0  0
   19.9933   -2.1353  -18.5956 C   0  0  0  0  0  0  0  0  0  0  0  0
   23.3898   -3.7127  -18.4727 C   0  0  0  0  0  0  0  0  0  0  0  0
   23.9685   -3.4743  -17.3643 O   0  0  0  0  0  0  0  0  0  0  0  0
   23.7399   -2.8593  -19.5151 O   0  0  0  0  0  0  0  0  0  0  0  0
  2  1  1  0
  3  2  2  0
  4  2  1  0
  5  6  1  1
  5  4  1  0
  7  5  1  0
  8  7  2  0
  9 10  1  0
 10 20  2  0
 10 11  1  0
 11 12  2  0
 12 13  1  0
 13 14  1  0
 15 14  1  6
 15 17  1  0
 15 16  1  0
 16  7  1  0
 17 21  1  0
 18 17  2  0
 19 13  2  0
 20 19  1  0
 22 21  1  0
 22 23  1  1
 22 33  1  0
 24 32  1  0
 24 23  1  0
 25 24  2  0
 26 25  1  0
 26 27  1  0
 27 32  2  0
 28 27  1  0
 28 29  2  0
 29 30  1  0
 30 31  2  0
 32 31  1  0
 33 34  2  0
 33 35  1  0
M  END
$$$$
