NYW.pdb
     RDKit          3D

 35 37  0  0  1  0  0  0  0  0999 V2000
   29.4513  -31.3928  -15.7920 N   0  0  0  0  0  0  0  0  0  0  0  0
   30.7536  -31.4650  -16.3574 C   0  0  0  0  0  0  0  0  0  0  0  0
   31.5687  -30.5449  -16.0962 O   0  0  0  0  0  0  0  0  0  0  0  0
   31.1552  -32.5735  -17.2246 C   0  0  0  0  0  0  0  0  0  0  0  0
   30.0807  -33.6690  -17.2807 C   0  0  2  0  0  0  0  0  0  0  0  0
   30.7458  -34.8269  -17.8490 N   0  0  0  0  0  0  0  0  0  0  0  0
   29.0331  -33.1485  -18.1999 C   0  0  0  0  0  0  0  0  0  0  0  0
   29.4302  -32.4662  -19.1887 O   0  0  0  0  0  0  0  0  0  0  0  0
   29.2883  -35.1766  -24.4446 O   0  0  0  0  0  0  0  0  0  0  0  0
   28.5163  -34.9039  -23.2956 C   0  0  0  0  0  0  0  0  0  0  0  0
   28.7498  -35.5771  -22.1373 C   0  0  0  0  0  0  0  0  0  0  0  0
   27.9789  -35.3016  -20.9977 C   0  0  0  0  0  0  0  0  0  0  0  0
   26.9829  -34.3538  -21.0344 C   0  0  0  0  0  0  0  0  0  0  0  0
   26.1873  -34.0684  -19.8548 C   0  0  0  0  0  0  0  0  0  0  0  0
   26.6895  -32.9027  -19.0203 C   0  0  2  0  0  0  0  0  0  0  0  0
   27.6541  -33.3802  -18.0170 N   0  0  0  0  0  0  0  0  0  0  0  0
   25.5481  -32.2218  -18.3570 C   0  0  0  0  0  0  0  0  0  0  0  0
   25.1439  -32.7063  -17.2435 O   0  0  0  0  0  0  0  0  0  0  0  0
   26.7670  -33.6885  -22.2144 C   0  0  0  0  0  0  0  0  0  0  0  0
   27.5254  -33.9527  -23.3531 C   0  0  0  0  0  0  0  0  0  0  0  0
   24.8707  -31.0968  -18.8370 N   0  0  0  0  0  0  0  0  0  0  0  0
   23.7062  -30.5159  -18.1252 C   0  0  1  0  0  0  0  0  0  0  0  0
   23.2413  -29.2965  -18.8237 C   0  0  0  0  0  0  0  0  0  0  0  0
   22.0749  -28.6816  -18.1902 C   0  0  0  0  0  0  0  0  0  0  0  0
   22.0801  -27.7892  -17.1005 C   0  0  0  0  0  0  0  0  0  0  0  0
   20.8307  -27.4639  -16.7584 N   0  0  0  0  0  0  0  0  0  0  0  0
   20.0012  -28.1062  -17.5808 C   0  0  0  0  0  0  0  0  0  0  0  0
   18.6158  -28.0910  -17.6575 C   0  0  0  0  0  0  0  0  0  0  0  0
   17.9387  -28.8300  -18.6274 C   0  0  0  0  0  0  0  0  0  0  0  0
   18.6807  -29.5806  -19.5138 C   0  0  0  0  0  0  0  0  0  0  0  0
   20.0545  -29.6118  -19.4564 C   0  0  0  0  0  0  0  0  0  0  0  0
   20.7240  -28.8682  -18.4799 C   0  0  0  0  0  0  0  0  0  0  0  0
   22.6974  -31.5580  -18.0215 C   0  0  0  0  0  0  0  0  0  0  0  0
   21.9065  -31.6586  -17.0292 O   0  0  0  0  0  0  0  0  0  0  0  0
   22.5230  -32.5192  -19.0130 O   0  0  0  0  0  0  0  0  0  0  0  0
  2  1  1  0
  3  2  2  0
  4  2  1  0
  5  6  1  6
  5  4  1  0
  7  5  1  0
  8  7  2  0
  9 10  1  0
 10 20  2  0
 10 11  1  0
 11 12  2  0
 12 13  1  0
 13 14  1  0
 15 14  1  1
 15 17  1  0
 15 16  1  0
 16  7  1  0
 17 21  1  0
 18 17  2  0
 19 13  2  0
 20 19  1  0
 22 21  1  0
 22 23  1  6
 22 33  1  0
 24 32  1  0
 24 23  1  0
 25 24  2  0
 26 25  1  0
 26 27  1  0
 27 32  2  0
 28 27  1  0
 28 29  2  0
 29 30  1  0
 30 31  2  0
 32 31  1  0
 33 34  2  0
 33 35  1  0
M  END
$$$$
