NYW.pdb
     RDKit          3D

 35 37  0  0  1  0  0  0  0  0999 V2000
   28.0858  -18.7511  -17.6282 N   0  0  0  0  0  0  0  0  0  0  0  0
   28.1596  -17.7965  -16.5774 C   0  0  0  0  0  0  0  0  0  0  0  0
   29.2211  -17.1371  -16.4445 O   0  0  0  0  0  0  0  0  0  0  0  0
   27.0398  -17.5722  -15.6622 C   0  0  0  0  0  0  0  0  0  0  0  0
   25.8890  -18.5555  -15.9206 C   0  0  2  0  0  0  0  0  0  0  0  0
   25.0657  -17.9213  -16.9335 N   0  0  0  0  0  0  0  0  0  0  0  0
   25.1611  -18.6608  -14.6275 C   0  0  0  0  0  0  0  0  0  0  0  0
   24.7996  -17.5754  -14.0868 O   0  0  0  0  0  0  0  0  0  0  0  0
   18.6317  -17.9049  -15.3700 O   0  0  0  0  0  0  0  0  0  0  0  0
   19.6872  -18.6051  -14.7485 C   0  0  0  0  0  0  0  0  0  0  0  0
   20.5226  -19.3830  -15.4877 C   0  0  0  0  0  0  0  0  0  0  0  0
   21.5706  -20.0770  -14.8643 C   0  0  0  0  0  0  0  0  0  0  0  0
   21.7676  -19.9821  -13.5064 C   0  0  0  0  0  0  0  0  0  0  0  0
   22.8529  -20.6989  -12.8627 C   0  0  0  0  0  0  0  0  0  0  0  0
   24.1392  -19.9036  -12.7203 C   0  0  2  0  0  0  0  0  0  0  0  0
   24.8662  -19.8885  -13.9996 N   0  0  0  0  0  0  0  0  0  0  0  0
   24.9862  -20.4916  -11.6512 C   0  0  0  0  0  0  0  0  0  0  0  0
   25.4994  -21.6421  -11.8769 O   0  0  0  0  0  0  0  0  0  0  0  0
   20.9116  -19.1911  -12.7829 C   0  0  0  0  0  0  0  0  0  0  0  0
   19.8671  -18.4968  -13.3899 C   0  0  0  0  0  0  0  0  0  0  0  0
   25.2765  -19.9040  -10.4161 N   0  0  0  0  0  0  0  0  0  0  0  0
   26.2093  -20.5290   -9.4468 C   0  0  1  0  0  0  0  0  0  0  0  0
   26.9428  -19.4819   -8.7010 C   0  0  0  0  0  0  0  0  0  0  0  0
   27.8356  -20.0249   -7.6774 C   0  0  0  0  0  0  0  0  0  0  0  0
   28.4225  -21.3052   -7.6642 C   0  0  0  0  0  0  0  0  0  0  0  0
   29.1453  -21.4753   -6.5539 N   0  0  0  0  0  0  0  0  0  0  0  0
   29.0588  -20.3564   -5.8344 C   0  0  0  0  0  0  0  0  0  0  0  0
   29.6387  -20.0177   -4.6201 C   0  0  0  0  0  0  0  0  0  0  0  0
   29.4334  -18.7625   -4.0478 C   0  0  0  0  0  0  0  0  0  0  0  0
   28.6368  -17.8600   -4.7191 C   0  0  0  0  0  0  0  0  0  0  0  0
   28.0510  -18.1737   -5.9232 C   0  0  0  0  0  0  0  0  0  0  0  0
   28.2621  -19.4350   -6.4884 C   0  0  0  0  0  0  0  0  0  0  0  0
   25.4263  -21.4169   -8.6023 C   0  0  0  0  0  0  0  0  0  0  0  0
   25.9189  -22.4447   -8.0356 O   0  0  0  0  0  0  0  0  0  0  0  0
   24.0756  -21.1956   -8.3493 O   0  0  0  0  0  0  0  0  0  0  0  0
  2  1  1  0
  3  2  2  0
  4  2  1  0
  5  6  1  6
  5  4  1  0
  7  5  1  0
  8  7  2  0
  9 10  1  0
 10 20  2  0
 10 11  1  0
 11 12  2  0
 12 13  1  0
 13 14  1  0
 15 14  1  6
 15 17  1  0
 15 16  1  0
 16  7  1  0
 17 21  1  0
 18 17  2  0
 19 13  2  0
 20 19  1  0
 22 21  1  0
 22 23  1  1
 22 33  1  0
 24 32  1  0
 24 23  1  0
 25 24  2  0
 26 25  1  0
 26 27  1  0
 27 32  2  0
 28 27  1  0
 28 29  2  0
 29 30  1  0
 30 31  2  0
 32 31  1  0
 33 34  2  0
 33 35  1  0
M  END
$$$$
