HPN.pdb
     RDKit          3D

 26 27  0  0  1  0  0  0  0  0999 V2000
   17.7329  -15.2867  -16.4286 N   0  0  0  0  0  0  0  0  0  0  0  0
   18.1423  -14.2888  -17.3612 C   0  0  1  0  0  0  0  0  0  0  0  0
   16.9130  -13.6781  -17.9858 C   0  0  0  0  0  0  0  0  0  0  0  0
   16.1902  -14.6738  -18.8300 C   0  0  0  0  0  0  0  0  0  0  0  0
   16.1466  -14.7377  -20.2087 C   0  0  0  0  0  0  0  0  0  0  0  0
   15.3845  -15.7861  -20.5578 N   0  0  0  0  0  0  0  0  0  0  0  0
   14.9384  -16.3961  -19.4462 C   0  0  0  0  0  0  0  0  0  0  0  0
   15.4386  -15.7057  -18.4088 N   0  0  0  0  0  0  0  0  0  0  0  0
   18.9317  -13.1751  -16.7313 C   0  0  0  0  0  0  0  0  0  0  0  0
   18.5488  -12.7416  -15.6004 O   0  0  0  0  0  0  0  0  0  0  0  0
   20.0717  -12.5983  -17.3438 N   0  0  0  0  0  0  0  0  0  0  0  0
   20.6731  -13.0733  -18.5630 C   0  0  0  0  0  0  0  0  0  0  0  0
   21.8840  -12.2163  -18.8390 C   0  0  0  0  0  0  0  0  0  0  0  0
   21.7612  -11.0193  -17.9340 C   0  0  0  0  0  0  0  0  0  0  0  0
   20.8004  -11.4809  -16.8676 C   0  0  1  0  0  0  0  0  0  0  0  0
   19.9392  -10.3053  -16.5540 C   0  0  0  0  0  0  0  0  0  0  0  0
   18.9350   -9.9797  -17.1989 O   0  0  0  0  0  0  0  0  0  0  0  0
   18.2503   -6.2713  -13.9024 N   0  0  0  0  0  0  0  0  0  0  0  0
   18.2976   -7.4570  -13.0970 C   0  0  0  0  0  0  0  0  0  0  0  0
   17.7041   -7.4005  -11.9975 O   0  0  0  0  0  0  0  0  0  0  0  0
   19.0264   -8.6204  -13.6198 C   0  0  0  0  0  0  0  0  0  0  0  0
   19.6179   -8.3374  -14.9822 C   0  0  2  0  0  0  0  0  0  0  0  0
   20.3276   -9.5287  -15.4319 N   0  0  0  0  0  0  0  0  0  0  0  0
   20.4934   -7.1591  -14.9443 C   0  0  0  0  0  0  0  0  0  0  0  0
   21.8620   -7.2952  -15.0210 O   0  0  0  0  0  0  0  0  0  0  0  0
   19.9967   -6.0199  -14.8415 O   0  0  0  0  0  0  0  0  0  0  0  0
  2  1  1  1
  2  9  1  0
  3  2  1  0
  4  8  1  0
  4  3  1  0
  5  4  2  0
  6  5  1  0
  6  7  1  0
  7  8  2  0
  9 11  1  0
 10  9  2  0
 11 15  1  0
 11 12  1  0
 12 13  1  0
 14 13  1  0
 15 14  1  0
 16 23  1  0
 15 16  1  6
 17 16  2  0
 18 19  1  0
 19 20  2  0
 21 19  1  0
 22 21  1  1
 22 23  1  0
 22 24  1  0
 24 25  1  0
 26 24  2  0
M  END
$$$$
