HPN.pdb
     RDKit          3D

 26 27  0  0  1  0  0  0  0  0999 V2000
   20.8571  -12.5095  -18.7137 N   0  0  0  0  0  0  0  0  0  0  0  0
   21.1610  -11.1799  -19.1299 C   0  0  1  0  0  0  0  0  0  0  0  0
   19.8973  -10.5318  -19.6370 C   0  0  0  0  0  0  0  0  0  0  0  0
   19.4025  -11.2139  -20.8684 C   0  0  0  0  0  0  0  0  0  0  0  0
   19.8053  -10.9993  -22.1716 C   0  0  0  0  0  0  0  0  0  0  0  0
   19.1072  -11.8228  -22.9693 N   0  0  0  0  0  0  0  0  0  0  0  0
   18.2697  -12.5584  -22.2182 C   0  0  0  0  0  0  0  0  0  0  0  0
   18.4644  -12.1737  -20.9466 N   0  0  0  0  0  0  0  0  0  0  0  0
   21.6987  -10.3188  -18.0211 C   0  0  0  0  0  0  0  0  0  0  0  0
   21.1700  -10.4318  -16.8717 O   0  0  0  0  0  0  0  0  0  0  0  0
   22.7592   -9.3979  -18.2076 N   0  0  0  0  0  0  0  0  0  0  0  0
   23.4793   -9.2191  -19.4418 C   0  0  0  0  0  0  0  0  0  0  0  0
   24.5513   -8.1852  -19.1996 C   0  0  0  0  0  0  0  0  0  0  0  0
   24.2034   -7.5241  -17.8923 C   0  0  0  0  0  0  0  0  0  0  0  0
   23.2823   -8.5169  -17.2295 C   0  0  1  0  0  0  0  0  0  0  0  0
   22.2345   -7.7096  -16.5421 C   0  0  0  0  0  0  0  0  0  0  0  0
   21.1632   -7.3668  -17.0571 O   0  0  0  0  0  0  0  0  0  0  0  0
   19.8415   -5.3847  -12.6873 N   0  0  0  0  0  0  0  0  0  0  0  0
   20.3180   -6.6730  -12.2746 C   0  0  0  0  0  0  0  0  0  0  0  0
   19.9095   -7.0824  -11.1657 O   0  0  0  0  0  0  0  0  0  0  0  0
   21.2308   -7.3936  -13.1721 C   0  0  0  0  0  0  0  0  0  0  0  0
   21.6081   -6.5525  -14.3707 C   0  0  2  0  0  0  0  0  0  0  0  0
   22.5190   -7.3253  -15.2063 N   0  0  0  0  0  0  0  0  0  0  0  0
   22.1973   -5.2734  -13.9548 C   0  0  0  0  0  0  0  0  0  0  0  0
   21.4058   -4.2607  -13.4594 O   0  0  0  0  0  0  0  0  0  0  0  0
   23.4282   -5.0972  -14.0494 O   0  0  0  0  0  0  0  0  0  0  0  0
  2  1  1  1
  2  9  1  0
  3  2  1  0
  4  8  1  0
  4  3  1  0
  5  4  2  0
  6  5  1  0
  6  7  1  0
  7  8  2  0
  9 11  1  0
 10  9  2  0
 11 15  1  0
 11 12  1  0
 12 13  1  0
 14 13  1  0
 15 14  1  0
 16 23  1  0
 15 16  1  6
 17 16  2  0
 18 19  1  0
 19 20  2  0
 21 19  1  0
 22 21  1  1
 22 23  1  0
 22 24  1  0
 24 25  1  0
 26 24  2  0
M  END
$$$$
