HPN.pdb
     RDKit          3D

 26 27  0  0  1  0  0  0  0  0999 V2000
   27.4189  -22.0673  -15.9591 N   0  0  0  0  0  0  0  0  0  0  0  0
   27.0197  -21.0171  -15.0810 C   0  0  1  0  0  0  0  0  0  0  0  0
   26.7015  -19.7941  -15.9040 C   0  0  0  0  0  0  0  0  0  0  0  0
   27.9490  -19.0875  -16.3177 C   0  0  0  0  0  0  0  0  0  0  0  0
   29.0455  -19.6209  -16.9657 C   0  0  0  0  0  0  0  0  0  0  0  0
   29.9447  -18.6411  -17.1481 N   0  0  0  0  0  0  0  0  0  0  0  0
   29.4589  -17.4966  -16.6373 C   0  0  0  0  0  0  0  0  0  0  0  0
   28.2471  -17.7890  -16.1383 N   0  0  0  0  0  0  0  0  0  0  0  0
   25.7964  -21.3509  -14.2733 C   0  0  0  0  0  0  0  0  0  0  0  0
   24.7752  -21.7825  -14.8931 O   0  0  0  0  0  0  0  0  0  0  0  0
   25.7407  -21.2039  -12.8653 N   0  0  0  0  0  0  0  0  0  0  0  0
   26.8784  -20.9294  -12.0262 C   0  0  0  0  0  0  0  0  0  0  0  0
   26.3951  -20.8987  -10.5970 C   0  0  0  0  0  0  0  0  0  0  0  0
   24.8933  -20.8181  -10.6677 C   0  0  0  0  0  0  0  0  0  0  0  0
   24.5795  -21.3037  -12.0603 C   0  0  1  0  0  0  0  0  0  0  0  0
   23.4512  -20.4586  -12.5453 C   0  0  0  0  0  0  0  0  0  0  0  0
   23.5862  -19.3755  -13.1275 O   0  0  0  0  0  0  0  0  0  0  0  0
   19.7870  -18.6232  -15.6142 N   0  0  0  0  0  0  0  0  0  0  0  0
   19.7122  -19.8643  -14.8993 C   0  0  0  0  0  0  0  0  0  0  0  0
   18.5805  -20.3917  -14.8275 O   0  0  0  0  0  0  0  0  0  0  0  0
   20.9492  -20.4051  -14.3201 C   0  0  0  0  0  0  0  0  0  0  0  0
   20.9289  -20.3388  -12.8096 C   0  0  2  0  0  0  0  0  0  0  0  0
   22.1466  -20.9621  -12.3056 N   0  0  0  0  0  0  0  0  0  0  0  0
   19.7220  -20.9765  -12.2684 C   0  0  0  0  0  0  0  0  0  0  0  0
   19.6267  -22.3481  -12.1845 O   0  0  0  0  0  0  0  0  0  0  0  0
   18.7695  -20.2721  -11.8788 O   0  0  0  0  0  0  0  0  0  0  0  0
  2  1  1  6
  2  9  1  0
  3  2  1  0
  4  8  1  0
  4  3  1  0
  5  4  2  0
  6  5  1  0
  6  7  1  0
  7  8  2  0
  9 11  1  0
 10  9  2  0
 11 15  1  0
 11 12  1  0
 12 13  1  0
 14 13  1  0
 15 14  1  0
 16 23  1  0
 15 16  1  6
 17 16  2  0
 18 19  1  0
 19 20  2  0
 21 19  1  0
 22 21  1  6
 22 23  1  0
 22 24  1  0
 24 25  1  0
 26 24  2  0
M  END
$$$$
