HPN.pdb
     RDKit          3D

 26 27  0  0  1  0  0  0  0  0999 V2000
   28.3655  -23.2725  -17.5582 N   0  0  0  0  0  0  0  0  0  0  0  0
   27.8717  -21.9706  -17.2510 C   0  0  1  0  0  0  0  0  0  0  0  0
   27.0680  -21.4695  -18.4246 C   0  0  0  0  0  0  0  0  0  0  0  0
   27.9592  -21.0754  -19.5548 C   0  0  0  0  0  0  0  0  0  0  0  0
   28.2231  -21.7864  -20.7087 C   0  0  0  0  0  0  0  0  0  0  0  0
   29.0771  -21.0714  -21.4579 N   0  0  0  0  0  0  0  0  0  0  0  0
   29.3688  -19.9246  -20.8203 C   0  0  0  0  0  0  0  0  0  0  0  0
   28.6804  -19.9466  -19.6677 N   0  0  0  0  0  0  0  0  0  0  0  0
   26.9758  -21.9446  -16.0440 C   0  0  0  0  0  0  0  0  0  0  0  0
   26.1244  -22.8785  -15.9161 O   0  0  0  0  0  0  0  0  0  0  0  0
   27.0445  -20.9307  -15.0567 N   0  0  0  0  0  0  0  0  0  0  0  0
   28.0094  -19.8618  -15.0483 C   0  0  0  0  0  0  0  0  0  0  0  0
   27.7668  -19.0371  -13.8081 C   0  0  0  0  0  0  0  0  0  0  0  0
   26.4180  -19.4569  -13.2871 C   0  0  0  0  0  0  0  0  0  0  0  0
   26.1944  -20.8018  -13.9310 C   0  0  1  0  0  0  0  0  0  0  0  0
   24.7454  -20.8557  -14.2771 C   0  0  0  0  0  0  0  0  0  0  0  0
   24.2713  -20.5104  -15.3663 O   0  0  0  0  0  0  0  0  0  0  0  0
   19.7959  -22.0216  -13.6058 N   0  0  0  0  0  0  0  0  0  0  0  0
   20.4983  -22.7450  -12.5860 C   0  0  0  0  0  0  0  0  0  0  0  0
   19.8114  -23.5268  -11.8923 O   0  0  0  0  0  0  0  0  0  0  0  0
   21.9417  -22.5128  -12.4419 C   0  0  0  0  0  0  0  0  0  0  0  0
   22.4360  -21.4718  -13.4208 C   0  0  2  0  0  0  0  0  0  0  0  0
   23.8794  -21.3415  -13.2636 N   0  0  0  0  0  0  0  0  0  0  0  0
   21.7451  -20.1910  -13.2245 C   0  0  0  0  0  0  0  0  0  0  0  0
   20.7239  -19.8050  -14.0644 O   0  0  0  0  0  0  0  0  0  0  0  0
   22.0835  -19.4406  -12.2877 O   0  0  0  0  0  0  0  0  0  0  0  0
  2  1  1  6
  2  9  1  0
  3  2  1  0
  4  8  1  0
  4  3  1  0
  5  4  2  0
  6  5  1  0
  6  7  1  0
  7  8  2  0
  9 11  1  0
 10  9  2  0
 11 15  1  0
 11 12  1  0
 12 13  1  0
 14 13  1  0
 15 14  1  0
 16 23  1  0
 15 16  1  6
 17 16  2  0
 18 19  1  0
 19 20  2  0
 21 19  1  0
 22 21  1  1
 22 23  1  0
 22 24  1  0
 24 25  1  0
 26 24  2  0
M  END
$$$$
