HPN.pdb
     RDKit          3D

 26 27  0  0  1  0  0  0  0  0999 V2000
   23.3277  -15.3201  -19.3373 N   0  0  0  0  0  0  0  0  0  0  0  0
   23.6095  -15.2029  -17.9444 C   0  0  1  0  0  0  0  0  0  0  0  0
   22.4847  -14.4440  -17.2863 C   0  0  0  0  0  0  0  0  0  0  0  0
   22.3825  -13.0586  -17.8313 C   0  0  0  0  0  0  0  0  0  0  0  0
   21.4132  -12.5532  -18.6749 C   0  0  0  0  0  0  0  0  0  0  0  0
   21.6979  -11.2644  -18.9193 N   0  0  0  0  0  0  0  0  0  0  0  0
   22.8191  -10.9280  -18.2587 C   0  0  0  0  0  0  0  0  0  0  0  0
   23.2186  -12.0306  -17.6048 N   0  0  0  0  0  0  0  0  0  0  0  0
   23.7287  -16.5303  -17.2487 C   0  0  0  0  0  0  0  0  0  0  0  0
   22.8212  -17.3941  -17.4579 O   0  0  0  0  0  0  0  0  0  0  0  0
   24.8013  -16.8498  -16.3799 N   0  0  0  0  0  0  0  0  0  0  0  0
   25.9657  -16.0261  -16.1811 C   0  0  0  0  0  0  0  0  0  0  0  0
   26.8781  -16.7491  -15.2211 C   0  0  0  0  0  0  0  0  0  0  0  0
   26.0499  -17.8461  -14.6066 C   0  0  0  0  0  0  0  0  0  0  0  0
   24.9089  -18.0126  -15.5782 C   0  0  1  0  0  0  0  0  0  0  0  0
   23.6976  -18.2713  -14.7487 C   0  0  0  0  0  0  0  0  0  0  0  0
   23.0729  -17.4014  -14.1295 O   0  0  0  0  0  0  0  0  0  0  0  0
   19.1938  -20.3797  -16.0888 N   0  0  0  0  0  0  0  0  0  0  0  0
   20.5199  -19.8685  -15.8966 C   0  0  0  0  0  0  0  0  0  0  0  0
   21.2806  -19.9227  -16.8880 O   0  0  0  0  0  0  0  0  0  0  0  0
   20.8703  -19.3324  -14.5746 C   0  0  0  0  0  0  0  0  0  0  0  0
   22.0598  -20.0534  -13.9818 C   0  0  2  0  0  0  0  0  0  0  0  0
   23.2592  -19.6192  -14.6877 N   0  0  0  0  0  0  0  0  0  0  0  0
   21.8821  -21.5095  -14.0470 C   0  0  0  0  0  0  0  0  0  0  0  0
   22.6908  -22.2831  -14.8500 O   0  0  0  0  0  0  0  0  0  0  0  0
   20.9897  -22.0567  -13.3692 O   0  0  0  0  0  0  0  0  0  0  0  0
  2  1  1  6
  2  9  1  0
  3  2  1  0
  4  8  1  0
  4  3  1  0
  5  4  2  0
  6  5  1  0
  6  7  1  0
  7  8  2  0
  9 11  1  0
 10  9  2  0
 11 15  1  0
 11 12  1  0
 12 13  1  0
 14 13  1  0
 15 14  1  0
 16 23  1  0
 15 16  1  1
 17 16  2  0
 18 19  1  0
 19 20  2  0
 21 19  1  0
 22 21  1  6
 22 23  1  0
 22 24  1  0
 24 25  1  0
 26 24  2  0
M  END
$$$$
