HPN.pdb
     RDKit          3D

 26 27  0  0  1  0  0  0  0  0999 V2000
   29.1069  -23.5052  -16.7281 N   0  0  0  0  0  0  0  0  0  0  0  0
   28.6254  -22.2061  -17.0655 C   0  0  1  0  0  0  0  0  0  0  0  0
   28.1202  -22.2322  -18.4862 C   0  0  0  0  0  0  0  0  0  0  0  0
   29.2418  -22.4323  -19.4499 C   0  0  0  0  0  0  0  0  0  0  0  0
   29.5253  -23.5617  -20.1920 C   0  0  0  0  0  0  0  0  0  0  0  0
   30.6200  -23.3174  -20.9294 N   0  0  0  0  0  0  0  0  0  0  0  0
   31.0469  -22.0669  -20.6832 C   0  0  0  0  0  0  0  0  0  0  0  0
   30.1971  -21.5470  -19.7829 N   0  0  0  0  0  0  0  0  0  0  0  0
   27.4929  -21.7464  -16.1901 C   0  0  0  0  0  0  0  0  0  0  0  0
   26.6497  -22.6149  -15.8051 O   0  0  0  0  0  0  0  0  0  0  0  0
   27.3330  -20.3986  -15.7837 N   0  0  0  0  0  0  0  0  0  0  0  0
   28.2616  -19.3390  -16.0818 C   0  0  0  0  0  0  0  0  0  0  0  0
   27.7442  -18.0811  -15.4286 C   0  0  0  0  0  0  0  0  0  0  0  0
   26.3183  -18.3700  -15.0411 C   0  0  0  0  0  0  0  0  0  0  0  0
   26.2552  -19.8764  -15.0273 C   0  0  1  0  0  0  0  0  0  0  0  0
   24.9181  -20.2366  -15.5793 C   0  0  0  0  0  0  0  0  0  0  0  0
   24.7397  -20.9203  -16.5947 O   0  0  0  0  0  0  0  0  0  0  0  0
   21.0810  -23.7551  -14.1435 N   0  0  0  0  0  0  0  0  0  0  0  0
   21.1863  -22.3810  -14.5407 C   0  0  0  0  0  0  0  0  0  0  0  0
   20.1321  -21.8412  -14.9426 O   0  0  0  0  0  0  0  0  0  0  0  0
   22.5003  -21.7314  -14.4448 C   0  0  0  0  0  0  0  0  0  0  0  0
   22.4560  -20.3120  -14.9641 C   0  0  2  0  0  0  0  0  0  0  0  0
   23.7951  -19.7443  -14.8656 N   0  0  0  0  0  0  0  0  0  0  0  0
   21.4659  -19.5118  -14.2323 C   0  0  0  0  0  0  0  0  0  0  0  0
   21.8526  -18.6791  -13.2054 O   0  0  0  0  0  0  0  0  0  0  0  0
   20.2597  -19.5835  -14.5405 O   0  0  0  0  0  0  0  0  0  0  0  0
  2  1  1  1
  2  9  1  0
  3  2  1  0
  4  8  1  0
  4  3  1  0
  5  4  2  0
  6  5  1  0
  6  7  1  0
  7  8  2  0
  9 11  1  0
 10  9  2  0
 11 15  1  0
 11 12  1  0
 12 13  1  0
 14 13  1  0
 15 14  1  0
 16 23  1  0
 15 16  1  6
 17 16  2  0
 18 19  1  0
 19 20  2  0
 21 19  1  0
 22 21  1  1
 22 23  1  0
 22 24  1  0
 24 25  1  0
 26 24  2  0
M  END
$$$$
