HPN.pdb
     RDKit          3D

 26 27  0  0  1  0  0  0  0  0999 V2000
   23.2697  -16.5559  -17.7889 N   0  0  0  0  0  0  0  0  0  0  0  0
   23.9317  -15.3239  -18.0668 C   0  0  1  0  0  0  0  0  0  0  0  0
   23.3668  -14.7489  -19.3415 C   0  0  0  0  0  0  0  0  0  0  0  0
   23.6027  -15.6672  -20.4939 C   0  0  0  0  0  0  0  0  0  0  0  0
   22.6591  -16.3493  -21.2361 C   0  0  0  0  0  0  0  0  0  0  0  0
   23.2981  -17.0621  -22.1770 N   0  0  0  0  0  0  0  0  0  0  0  0
   24.6216  -16.8582  -22.0610 C   0  0  0  0  0  0  0  0  0  0  0  0
   24.7853  -16.0089  -21.0340 N   0  0  0  0  0  0  0  0  0  0  0  0
   23.7500  -14.2949  -16.9860 C   0  0  0  0  0  0  0  0  0  0  0  0
   22.5763  -14.1029  -16.5399 O   0  0  0  0  0  0  0  0  0  0  0  0
   24.8248  -13.5411  -16.4531 N   0  0  0  0  0  0  0  0  0  0  0  0
   26.2162  -13.7998  -16.7196 C   0  0  0  0  0  0  0  0  0  0  0  0
   27.0261  -12.8051  -15.9249 C   0  0  0  0  0  0  0  0  0  0  0  0
   26.0553  -11.7487  -15.4683 C   0  0  0  0  0  0  0  0  0  0  0  0
   24.7146  -12.4293  -15.5823 C   0  0  1  0  0  0  0  0  0  0  0  0
   23.7661  -11.3886  -16.0717 C   0  0  0  0  0  0  0  0  0  0  0  0
   23.3795  -11.2871  -17.2424 O   0  0  0  0  0  0  0  0  0  0  0  0
   20.1307   -7.8402  -15.6896 N   0  0  0  0  0  0  0  0  0  0  0  0
   19.9061   -9.2203  -16.0084 C   0  0  0  0  0  0  0  0  0  0  0  0
   18.7747   -9.5048  -16.4593 O   0  0  0  0  0  0  0  0  0  0  0  0
   21.0037  -10.1704  -15.7833 C   0  0  0  0  0  0  0  0  0  0  0  0
   22.2717   -9.4625  -15.3623 C   0  0  2  0  0  0  0  0  0  0  0  0
   23.2945  -10.4679  -15.1007 N   0  0  0  0  0  0  0  0  0  0  0  0
   22.0355   -8.6040  -14.1946 C   0  0  0  0  0  0  0  0  0  0  0  0
   21.9886   -9.1374  -12.9255 O   0  0  0  0  0  0  0  0  0  0  0  0
   21.8748   -7.3770  -14.3488 O   0  0  0  0  0  0  0  0  0  0  0  0
  2  1  1  1
  2  9  1  0
  3  2  1  0
  4  8  1  0
  4  3  1  0
  5  4  2  0
  6  5  1  0
  6  7  1  0
  7  8  2  0
  9 11  1  0
 10  9  2  0
 11 15  1  0
 11 12  1  0
 12 13  1  0
 14 13  1  0
 15 14  1  0
 16 23  1  0
 15 16  1  6
 17 16  2  0
 18 19  1  0
 19 20  2  0
 21 19  1  0
 22 21  1  1
 22 23  1  0
 22 24  1  0
 24 25  1  0
 26 24  2  0
M  END
$$$$
