HPN.pdb
     RDKit          3D

 26 27  0  0  1  0  0  0  0  0999 V2000
   40.4437   -7.6323   -7.3552 N   0  0  0  0  0  0  0  0  0  0  0  0
   39.3262   -7.5417   -8.2363 C   0  0  1  0  0  0  0  0  0  0  0  0
   38.0625   -7.7262   -7.4341 C   0  0  0  0  0  0  0  0  0  0  0  0
   38.0178   -9.0805   -6.8091 C   0  0  0  0  0  0  0  0  0  0  0  0
   38.9752  -10.0732   -6.8770 C   0  0  0  0  0  0  0  0  0  0  0  0
   38.5368  -11.1299   -6.1750 N   0  0  0  0  0  0  0  0  0  0  0  0
   37.3285  -10.8456   -5.6593 C   0  0  0  0  0  0  0  0  0  0  0  0
   37.0318   -9.5975   -6.0557 N   0  0  0  0  0  0  0  0  0  0  0  0
   39.2285   -6.2155   -8.9374 C   0  0  0  0  0  0  0  0  0  0  0  0
   39.5251   -5.1715   -8.2773 O   0  0  0  0  0  0  0  0  0  0  0  0
   38.8232   -6.0879  -10.2890 N   0  0  0  0  0  0  0  0  0  0  0  0
   38.5610   -7.1949  -11.1719 C   0  0  0  0  0  0  0  0  0  0  0  0
   38.2063   -6.6267  -12.5240 C   0  0  0  0  0  0  0  0  0  0  0  0
   37.9337   -5.1628  -12.3012 C   0  0  0  0  0  0  0  0  0  0  0  0
   38.6149   -4.8734  -10.9876 C   0  0  1  0  0  0  0  0  0  0  0  0
   37.7242   -3.9220  -10.2639 C   0  0  0  0  0  0  0  0  0  0  0  0
   36.7504   -4.2565   -9.5783 O   0  0  0  0  0  0  0  0  0  0  0  0
   38.2713   -2.1037   -7.3470 N   0  0  0  0  0  0  0  0  0  0  0  0
   38.7779   -0.8887   -7.9162 C   0  0  0  0  0  0  0  0  0  0  0  0
   39.6501   -0.2894   -7.2495 O   0  0  0  0  0  0  0  0  0  0  0  0
   38.2407   -0.4549   -9.2128 C   0  0  0  0  0  0  0  0  0  0  0  0
   37.2747   -1.4704   -9.7801 C   0  0  2  0  0  0  0  0  0  0  0  0
   38.0451   -2.5460  -10.3924 N   0  0  0  0  0  0  0  0  0  0  0  0
   36.3507   -0.8455  -10.7350 C   0  0  0  0  0  0  0  0  0  0  0  0
   35.0673   -0.5140  -10.3602 O   0  0  0  0  0  0  0  0  0  0  0  0
   36.7277   -0.6102  -11.9002 O   0  0  0  0  0  0  0  0  0  0  0  0
  2  1  1  1
  2  9  1  0
  3  2  1  0
  4  8  1  0
  4  3  1  0
  5  4  2  0
  6  5  1  0
  6  7  1  0
  7  8  2  0
  9 11  1  0
 10  9  2  0
 11 15  1  0
 11 12  1  0
 12 13  1  0
 14 13  1  0
 15 14  1  0
 16 23  1  0
 15 16  1  1
 17 16  2  0
 18 19  1  0
 19 20  2  0
 21 19  1  0
 22 21  1  6
 22 23  1  0
 22 24  1  0
 24 25  1  0
 26 24  2  0
M  END
$$$$
