HPN.pdb
     RDKit          3D

 26 27  0  0  1  0  0  0  0  0999 V2000
   20.3472  -13.0731  -17.3770 N   0  0  0  0  0  0  0  0  0  0  0  0
   19.4077  -12.0004  -17.3715 C   0  0  1  0  0  0  0  0  0  0  0  0
   18.6013  -12.0712  -16.0991 C   0  0  0  0  0  0  0  0  0  0  0  0
   17.7515  -13.2974  -16.0712 C   0  0  0  0  0  0  0  0  0  0  0  0
   18.0795  -14.5400  -15.5660 C   0  0  0  0  0  0  0  0  0  0  0  0
   17.0289  -15.3568  -15.7417 N   0  0  0  0  0  0  0  0  0  0  0  0
   16.0379  -14.6767  -16.3435 C   0  0  0  0  0  0  0  0  0  0  0  0
   16.4965  -13.4293  -16.5347 N   0  0  0  0  0  0  0  0  0  0  0  0
   20.0543  -10.6442  -17.4235 C   0  0  0  0  0  0  0  0  0  0  0  0
   21.0468  -10.4298  -16.6603 O   0  0  0  0  0  0  0  0  0  0  0  0
   19.6042   -9.6097  -18.2807 N   0  0  0  0  0  0  0  0  0  0  0  0
   18.5543   -9.7546  -19.2557 C   0  0  0  0  0  0  0  0  0  0  0  0
   18.4226   -8.4397  -19.9839 C   0  0  0  0  0  0  0  0  0  0  0  0
   19.1864   -7.4329  -19.1654 C   0  0  0  0  0  0  0  0  0  0  0  0
   20.1034   -8.2849  -18.3248 C   0  0  1  0  0  0  0  0  0  0  0  0
   20.1595   -7.6308  -16.9865 C   0  0  0  0  0  0  0  0  0  0  0  0
   19.4923   -7.9822  -16.0058 O   0  0  0  0  0  0  0  0  0  0  0  0
   21.9537   -4.7665  -13.2109 N   0  0  0  0  0  0  0  0  0  0  0  0
   22.0615   -6.1940  -13.2977 C   0  0  0  0  0  0  0  0  0  0  0  0
   22.3724   -6.7884  -12.2421 O   0  0  0  0  0  0  0  0  0  0  0  0
   21.8026   -6.8301  -14.5963 C   0  0  0  0  0  0  0  0  0  0  0  0
   21.3073   -5.8286  -15.6151 C   0  0  2  0  0  0  0  0  0  0  0  0
   21.0502   -6.5331  -16.8652 N   0  0  0  0  0  0  0  0  0  0  0  0
   22.2693   -4.7332  -15.7908 C   0  0  0  0  0  0  0  0  0  0  0  0
   22.2437   -3.6329  -14.9626 O   0  0  0  0  0  0  0  0  0  0  0  0
   23.1214   -4.7954  -16.6993 O   0  0  0  0  0  0  0  0  0  0  0  0
  2  1  1  1
  2  9  1  0
  3  2  1  0
  4  8  1  0
  4  3  1  0
  5  4  2  0
  6  5  1  0
  6  7  1  0
  7  8  2  0
  9 11  1  0
 10  9  2  0
 11 15  1  0
 11 12  1  0
 12 13  1  0
 14 13  1  0
 15 14  1  0
 16 23  1  0
 15 16  1  1
 17 16  2  0
 18 19  1  0
 19 20  2  0
 21 19  1  0
 22 21  1  1
 22 23  1  0
 22 24  1  0
 24 25  1  0
 26 24  2  0
M  END
$$$$
