HPN.pdb
     RDKit          3D

 26 27  0  0  1  0  0  0  0  0999 V2000
   20.7790  -12.3027  -18.3764 N   0  0  0  0  0  0  0  0  0  0  0  0
   21.9115  -11.8572  -17.6331 C   0  0  1  0  0  0  0  0  0  0  0  0
   22.9523  -11.3472  -18.5979 C   0  0  0  0  0  0  0  0  0  0  0  0
   23.4119  -12.4326  -19.5130 C   0  0  0  0  0  0  0  0  0  0  0  0
   24.0452  -13.6114  -19.1725 C   0  0  0  0  0  0  0  0  0  0  0  0
   24.2832  -14.3022  -20.2986 N   0  0  0  0  0  0  0  0  0  0  0  0
   23.8222  -13.6031  -21.3500 C   0  0  0  0  0  0  0  0  0  0  0  0
   23.2974  -12.4720  -20.8518 N   0  0  0  0  0  0  0  0  0  0  0  0
   21.5933  -10.7410  -16.6777 C   0  0  0  0  0  0  0  0  0  0  0  0
   20.9296   -9.7521  -17.1195 O   0  0  0  0  0  0  0  0  0  0  0  0
   22.0006  -10.7503  -15.3207 N   0  0  0  0  0  0  0  0  0  0  0  0
   22.7145  -11.8296  -14.6888 C   0  0  0  0  0  0  0  0  0  0  0  0
   22.9085  -11.4615  -13.2383 C   0  0  0  0  0  0  0  0  0  0  0  0
   22.5933   -9.9927  -13.1365 C   0  0  0  0  0  0  0  0  0  0  0  0
   21.7756   -9.7211  -14.3739 C   0  0  1  0  0  0  0  0  0  0  0  0
   22.1951   -8.3743  -14.8559 C   0  0  0  0  0  0  0  0  0  0  0  0
   22.7403   -8.1578  -15.9450 O   0  0  0  0  0  0  0  0  0  0  0  0
   22.0278   -3.3391  -15.2653 N   0  0  0  0  0  0  0  0  0  0  0  0
   21.2074   -4.2522  -16.0070 C   0  0  0  0  0  0  0  0  0  0  0  0
   20.5908   -3.7712  -16.9831 O   0  0  0  0  0  0  0  0  0  0  0  0
   21.1591   -5.6531  -15.5675 C   0  0  0  0  0  0  0  0  0  0  0  0
   22.0458   -5.8876  -14.3654 C   0  0  2  0  0  0  0  0  0  0  0  0
   21.9359   -7.2891  -13.9794 N   0  0  0  0  0  0  0  0  0  0  0  0
   21.6909   -4.9857  -13.2624 C   0  0  0  0  0  0  0  0  0  0  0  0
   22.4769   -3.8948  -12.9631 O   0  0  0  0  0  0  0  0  0  0  0  0
   20.6667   -5.2058  -12.5858 O   0  0  0  0  0  0  0  0  0  0  0  0
  2  1  1  6
  2  9  1  0
  3  2  1  0
  4  8  1  0
  4  3  1  0
  5  4  2  0
  6  5  1  0
  6  7  1  0
  7  8  2  0
  9 11  1  0
 10  9  2  0
 11 15  1  0
 11 12  1  0
 12 13  1  0
 14 13  1  0
 15 14  1  0
 16 23  1  0
 15 16  1  6
 17 16  2  0
 18 19  1  0
 19 20  2  0
 21 19  1  0
 22 21  1  6
 22 23  1  0
 22 24  1  0
 24 25  1  0
 26 24  2  0
M  END
$$$$
