QPK.pdb
     RDKit          3D

 26 26  0  0  1  0  0  0  0  0999 V2000
   13.3099  -13.0762   19.7978 N   0  0  0  0  0  0  0  0  0  0  0  0
   13.0000  -13.6619   18.5510 C   0  0  0  0  0  0  0  0  0  0  0  0
   13.9500  -13.8441   17.7467 O   0  0  0  0  0  0  0  0  0  0  0  0
   11.6247  -14.0578   18.1721 C   0  0  0  0  0  0  0  0  0  0  0  0
   10.7189  -13.9890   19.3989 C   0  0  0  0  0  0  0  0  0  0  0  0
    9.2938  -14.3152   19.0059 C   0  0  2  0  0  0  0  0  0  0  0  0
    8.7873  -13.0991   18.3606 N   0  0  0  0  0  0  0  0  0  0  0  0
    8.4508  -14.6377   20.1677 C   0  0  0  0  0  0  0  0  0  0  0  0
    7.8053  -13.7073   20.7155 O   0  0  0  0  0  0  0  0  0  0  0  0
    8.3217  -15.9408   20.7095 N   0  0  0  0  0  0  0  0  0  0  0  0
    8.9673  -17.1732   20.2812 C   0  0  0  0  0  0  0  0  0  0  0  0
    7.7754  -18.1409   20.2999 C   0  0  0  0  0  0  0  0  0  0  0  0
    7.1964  -17.7957   21.6787 C   0  0  0  0  0  0  0  0  0  0  0  0
    7.4908  -16.3265   21.8336 C   0  0  1  0  0  0  0  0  0  0  0  0
    8.2456  -16.1460   23.1065 C   0  0  0  0  0  0  0  0  0  0  0  0
    9.4821  -16.3480   23.2070 O   0  0  0  0  0  0  0  0  0  0  0  0
    7.5576  -15.7275   24.2705 N   0  0  0  0  0  0  0  0  0  0  0  0
    8.2743  -15.4643   25.5299 C   0  0  1  0  0  0  0  0  0  0  0  0
    7.4620  -14.5787   26.4197 C   0  0  0  0  0  0  0  0  0  0  0  0
    7.3473  -13.1588   26.0240 C   0  0  0  0  0  0  0  0  0  0  0  0
    6.4822  -12.2793   26.8475 C   0  0  0  0  0  0  0  0  0  0  0  0
    6.5677  -10.8172   26.4281 C   0  0  0  0  0  0  0  0  0  0  0  0
    5.6906  -10.0551   27.2726 N   0  0  0  0  0  0  0  0  0  0  0  0
    8.7251  -16.7373   26.0762 C   0  0  0  0  0  0  0  0  0  0  0  0
    8.1582  -17.8303   25.8586 O   0  0  0  0  0  0  0  0  0  0  0  0
    9.8547  -16.7991   26.9022 O   0  0  0  0  0  0  0  0  0  0  0  0
  2  1  1  0
  3  2  2  0
  4  2  1  0
  5  4  1  0
  6  8  1  0
  6  5  1  0
  6  7  1  1
  8  9  2  0
  8 10  1  0
 10 14  1  0
 10 11  1  0
 12 11  1  0
 13 14  1  0
 13 12  1  0
 15 17  1  0
 14 15  1  1
 16 15  2  0
 18 17  1  0
 18 19  1  1
 20 19  1  0
 21 20  1  0
 22 21  1  0
 23 22  1  0
 24 18  1  0
 25 24  2  0
 26 24  1  0
M  END
$$$$
