QPK.pdb
     RDKit          3D

 26 26  0  0  1  0  0  0  0  0999 V2000
    5.9949  -18.5753   24.9389 N   0  0  0  0  0  0  0  0  0  0  0  0
    6.7842  -18.8151   23.7929 C   0  0  0  0  0  0  0  0  0  0  0  0
    7.2167  -19.9844   23.6242 O   0  0  0  0  0  0  0  0  0  0  0  0
    7.1095  -17.7577   22.8092 C   0  0  0  0  0  0  0  0  0  0  0  0
    6.4109  -16.4601   23.2070 C   0  0  0  0  0  0  0  0  0  0  0  0
    7.2073  -15.2727   22.7091 C   0  0  2  0  0  0  0  0  0  0  0  0
    8.1173  -15.8201   21.6971 N   0  0  0  0  0  0  0  0  0  0  0  0
    7.9931  -14.6360   23.7776 C   0  0  0  0  0  0  0  0  0  0  0  0
    9.2480  -14.6932   23.7129 O   0  0  0  0  0  0  0  0  0  0  0  0
    7.4177  -13.9581   24.8811 N   0  0  0  0  0  0  0  0  0  0  0  0
    6.0188  -13.6360   25.1233 C   0  0  0  0  0  0  0  0  0  0  0  0
    6.1375  -12.1745   25.5788 C   0  0  0  0  0  0  0  0  0  0  0  0
    7.2735  -12.3237   26.5999 C   0  0  0  0  0  0  0  0  0  0  0  0
    8.1267  -13.4259   26.0285 C   0  0  1  0  0  0  0  0  0  0  0  0
    8.2649  -14.4813   27.0723 C   0  0  0  0  0  0  0  0  0  0  0  0
    7.5147  -15.4878   27.1358 O   0  0  0  0  0  0  0  0  0  0  0  0
    9.2828  -14.3654   28.0491 N   0  0  0  0  0  0  0  0  0  0  0  0
   10.1447  -15.5082   28.3953 C   0  0  1  0  0  0  0  0  0  0  0  0
   11.2088  -15.6940   27.3613 C   0  0  0  0  0  0  0  0  0  0  0  0
   11.0671  -16.8562   26.4585 C   0  0  0  0  0  0  0  0  0  0  0  0
   12.0813  -17.0295   25.3901 C   0  0  0  0  0  0  0  0  0  0  0  0
   11.7464  -18.1784   24.4474 C   0  0  0  0  0  0  0  0  0  0  0  0
   12.7759  -18.2551   23.4485 N   0  0  0  0  0  0  0  0  0  0  0  0
   10.5701  -15.3594   29.7807 C   0  0  0  0  0  0  0  0  0  0  0  0
   10.8672  -16.3180   30.5264 O   0  0  0  0  0  0  0  0  0  0  0  0
   10.6683  -14.0899   30.3642 O   0  0  0  0  0  0  0  0  0  0  0  0
  2  1  1  0
  3  2  2  0
  4  2  1  0
  5  4  1  0
  6  8  1  0
  6  5  1  0
  6  7  1  6
  8  9  2  0
  8 10  1  0
 10 14  1  0
 10 11  1  0
 12 11  1  0
 13 14  1  0
 13 12  1  0
 15 17  1  0
 14 15  1  1
 16 15  2  0
 18 17  1  0
 18 19  1  6
 20 19  1  0
 21 20  1  0
 22 21  1  0
 23 22  1  0
 24 18  1  0
 25 24  2  0
 26 24  1  0
M  END
$$$$
