QPK.pdb
     RDKit          3D

 26 26  0  0  1  0  0  0  0  0999 V2000
    6.5705  -19.7937   17.1880 N   0  0  0  0  0  0  0  0  0  0  0  0
    6.2774  -18.7669   18.1117 C   0  0  0  0  0  0  0  0  0  0  0  0
    5.5536  -19.0655   19.0964 O   0  0  0  0  0  0  0  0  0  0  0  0
    6.7842  -17.3842   17.9594 C   0  0  0  0  0  0  0  0  0  0  0  0
    7.5489  -17.2645   16.6437 C   0  0  0  0  0  0  0  0  0  0  0  0
    8.1149  -15.8675   16.5022 C   0  0  2  0  0  0  0  0  0  0  0  0
    8.9442  -15.9118   15.2929 N   0  0  0  0  0  0  0  0  0  0  0  0
    8.9486  -15.4805   17.6509 C   0  0  0  0  0  0  0  0  0  0  0  0
   10.1479  -15.8593   17.6746 O   0  0  0  0  0  0  0  0  0  0  0  0
    8.4790  -14.7022   18.7381 N   0  0  0  0  0  0  0  0  0  0  0  0
    7.1327  -14.2094   18.9908 C   0  0  0  0  0  0  0  0  0  0  0  0
    7.4310  -12.7573   19.3908 C   0  0  0  0  0  0  0  0  0  0  0  0
    8.5620  -13.0042   20.3983 C   0  0  0  0  0  0  0  0  0  0  0  0
    9.2686  -14.2181   19.8539 C   0  0  1  0  0  0  0  0  0  0  0  0
    9.3032  -15.2461   20.9331 C   0  0  0  0  0  0  0  0  0  0  0  0
    8.3260  -15.9872   21.2082 O   0  0  0  0  0  0  0  0  0  0  0  0
   10.4826  -15.4133   21.6977 N   0  0  0  0  0  0  0  0  0  0  0  0
   10.6173  -16.5153   22.6653 C   0  0  1  0  0  0  0  0  0  0  0  0
   11.7923  -17.3739   22.3212 C   0  0  0  0  0  0  0  0  0  0  0  0
   12.1038  -18.4824   23.2487 C   0  0  0  0  0  0  0  0  0  0  0  0
   13.2130  -19.3973   22.8846 C   0  0  0  0  0  0  0  0  0  0  0  0
   13.4704  -20.4560   23.9494 C   0  0  0  0  0  0  0  0  0  0  0  0
   14.4194  -21.3988   23.4260 N   0  0  0  0  0  0  0  0  0  0  0  0
   10.5624  -15.9556   24.0092 C   0  0  0  0  0  0  0  0  0  0  0  0
   10.1083  -16.5660   25.0014 O   0  0  0  0  0  0  0  0  0  0  0  0
   11.0309  -14.6601   24.2620 O   0  0  0  0  0  0  0  0  0  0  0  0
  2  1  1  0
  3  2  2  0
  4  2  1  0
  5  4  1  0
  6  8  1  0
  6  5  1  0
  6  7  1  6
  8  9  2  0
  8 10  1  0
 10 14  1  0
 10 11  1  0
 12 11  1  0
 13 14  1  0
 13 12  1  0
 15 17  1  0
 14 15  1  1
 16 15  2  0
 18 17  1  0
 18 19  1  6
 20 19  1  0
 21 20  1  0
 22 21  1  0
 23 22  1  0
 24 18  1  0
 25 24  2  0
 26 24  1  0
M  END
$$$$
