QPK.pdb
     RDKit          3D

 26 26  0  0  1  0  0  0  0  0999 V2000
    3.7651  -18.3793   21.3563 N   0  0  0  0  0  0  0  0  0  0  0  0
    5.0983  -18.8433   21.3233 C   0  0  0  0  0  0  0  0  0  0  0  0
    5.4243  -19.7229   22.1615 O   0  0  0  0  0  0  0  0  0  0  0  0
    6.0983  -18.3377   20.3558 C   0  0  0  0  0  0  0  0  0  0  0  0
    5.4928  -17.1911   19.5503 C   0  0  0  0  0  0  0  0  0  0  0  0
    6.5333  -16.6131   18.6148 C   0  0  2  0  0  0  0  0  0  0  0  0
    6.8862  -17.7122   17.7096 N   0  0  0  0  0  0  0  0  0  0  0  0
    7.7392  -16.1615   19.3264 C   0  0  0  0  0  0  0  0  0  0  0  0
    8.8061  -16.8084   19.1663 O   0  0  0  0  0  0  0  0  0  0  0  0
    7.7710  -15.0353   20.1858 N   0  0  0  0  0  0  0  0  0  0  0  0
    6.6871  -14.1316   20.5434 C   0  0  0  0  0  0  0  0  0  0  0  0
    7.3877  -12.7734   20.3956 C   0  0  0  0  0  0  0  0  0  0  0  0
    8.6768  -13.0726   21.1728 C   0  0  0  0  0  0  0  0  0  0  0  0
    8.9265  -14.5337   20.9041 C   0  0  1  0  0  0  0  0  0  0  0  0
    9.0435  -15.2243   22.2201 C   0  0  0  0  0  0  0  0  0  0  0  0
    8.0484  -15.5692   22.9063 O   0  0  0  0  0  0  0  0  0  0  0  0
   10.3266  -15.5160   22.7417 N   0  0  0  0  0  0  0  0  0  0  0  0
   10.5152  -16.5442   23.7790 C   0  0  1  0  0  0  0  0  0  0  0  0
   11.1005  -17.7857   23.1857 C   0  0  0  0  0  0  0  0  0  0  0  0
   11.3932  -18.8968   24.1162 C   0  0  0  0  0  0  0  0  0  0  0  0
   12.1263  -20.0706   23.5825 C   0  0  0  0  0  0  0  0  0  0  0  0
   12.2576  -21.1919   24.6054 C   0  0  0  0  0  0  0  0  0  0  0  0
   12.9561  -22.2846   23.9877 N   0  0  0  0  0  0  0  0  0  0  0  0
   11.2170  -15.9391   24.9031 C   0  0  0  0  0  0  0  0  0  0  0  0
   12.0283  -14.9941   24.7925 O   0  0  0  0  0  0  0  0  0  0  0  0
   11.0099  -16.4050   26.2077 O   0  0  0  0  0  0  0  0  0  0  0  0
  2  1  1  0
  3  2  2  0
  4  2  1  0
  5  4  1  0
  6  8  1  0
  6  5  1  0
  6  7  1  6
  8  9  2  0
  8 10  1  0
 10 14  1  0
 10 11  1  0
 12 11  1  0
 13 14  1  0
 13 12  1  0
 15 17  1  0
 14 15  1  1
 16 15  2  0
 18 17  1  0
 18 19  1  6
 20 19  1  0
 21 20  1  0
 22 21  1  0
 23 22  1  0
 24 18  1  0
 25 24  2  0
 26 24  1  0
M  END
$$$$
