QPK.pdb
     RDKit          3D

 26 26  0  0  1  0  0  0  0  0999 V2000
    7.3811  -20.0678   17.1722 N   0  0  0  0  0  0  0  0  0  0  0  0
    6.6308  -19.4194   16.1671 C   0  0  0  0  0  0  0  0  0  0  0  0
    6.0959  -20.1435   15.2883 O   0  0  0  0  0  0  0  0  0  0  0  0
    6.4594  -17.9497   16.1183 C   0  0  0  0  0  0  0  0  0  0  0  0
    7.1113  -17.3202   17.3467 C   0  0  0  0  0  0  0  0  0  0  0  0
    8.0130  -16.1800   16.9240 C   0  0  2  0  0  0  0  0  0  0  0  0
    8.8482  -16.7308   15.8511 N   0  0  0  0  0  0  0  0  0  0  0  0
    8.8748  -15.7098   18.0197 C   0  0  0  0  0  0  0  0  0  0  0  0
   10.0950  -16.0145   17.9944 O   0  0  0  0  0  0  0  0  0  0  0  0
    8.4100  -14.9298   19.1078 N   0  0  0  0  0  0  0  0  0  0  0  0
    7.0508  -14.5033   19.4076 C   0  0  0  0  0  0  0  0  0  0  0  0
    7.2862  -13.0275   19.7599 C   0  0  0  0  0  0  0  0  0  0  0  0
    8.4708  -13.1874   20.7224 C   0  0  0  0  0  0  0  0  0  0  0  0
    9.2187  -14.3755   20.1762 C   0  0  1  0  0  0  0  0  0  0  0  0
    9.3552  -15.3719   21.2768 C   0  0  0  0  0  0  0  0  0  0  0  0
    8.4416  -16.1745   21.5946 O   0  0  0  0  0  0  0  0  0  0  0  0
   10.5626  -15.4352   22.0128 N   0  0  0  0  0  0  0  0  0  0  0  0
   10.8806  -16.5952   22.8627 C   0  0  1  0  0  0  0  0  0  0  0  0
   12.1787  -17.2096   22.4461 C   0  0  0  0  0  0  0  0  0  0  0  0
   12.6267  -18.3997   23.2003 C   0  0  0  0  0  0  0  0  0  0  0  0
   13.9540  -18.9709   22.8657 C   0  0  0  0  0  0  0  0  0  0  0  0
   14.3135  -20.1651   23.7407 C   0  0  0  0  0  0  0  0  0  0  0  0
   15.6290  -20.6111   23.3745 N   0  0  0  0  0  0  0  0  0  0  0  0
   10.7411  -16.1952   24.2565 C   0  0  0  0  0  0  0  0  0  0  0  0
   10.5340  -16.9951   25.1949 O   0  0  0  0  0  0  0  0  0  0  0  0
   10.8338  -14.8468   24.6243 O   0  0  0  0  0  0  0  0  0  0  0  0
  2  1  1  0
  3  2  2  0
  4  2  1  0
  5  4  1  0
  6  8  1  0
  6  5  1  0
  6  7  1  6
  8  9  2  0
  8 10  1  0
 10 14  1  0
 10 11  1  0
 12 11  1  0
 13 14  1  0
 13 12  1  0
 15 17  1  0
 14 15  1  1
 16 15  2  0
 18 17  1  0
 18 19  1  1
 20 19  1  0
 21 20  1  0
 22 21  1  0
 23 22  1  0
 24 18  1  0
 25 24  2  0
 26 24  1  0
M  END
$$$$
