QPK.pdb
     RDKit          3D

 26 26  0  0  1  0  0  0  0  0999 V2000
    7.4228  -21.2201   18.7545 N   0  0  0  0  0  0  0  0  0  0  0  0
    7.0770  -20.1848   17.8588 C   0  0  0  0  0  0  0  0  0  0  0  0
    6.9208  -20.4955   16.6499 O   0  0  0  0  0  0  0  0  0  0  0  0
    6.8975  -18.7799   18.2899 C   0  0  0  0  0  0  0  0  0  0  0  0
    8.0728  -18.3635   19.1705 C   0  0  0  0  0  0  0  0  0  0  0  0
    8.4685  -16.9356   18.8603 C   0  0  2  0  0  0  0  0  0  0  0  0
    9.2864  -17.0209   17.6455 N   0  0  0  0  0  0  0  0  0  0  0  0
    9.2607  -16.3254   19.9393 C   0  0  0  0  0  0  0  0  0  0  0  0
   10.5153  -16.3762   19.8630 O   0  0  0  0  0  0  0  0  0  0  0  0
    8.6920  -15.6802   21.0656 N   0  0  0  0  0  0  0  0  0  0  0  0
    7.2874  -15.4480   21.3692 C   0  0  0  0  0  0  0  0  0  0  0  0
    7.3310  -13.9794   21.8152 C   0  0  0  0  0  0  0  0  0  0  0  0
    8.5184  -14.0492   22.7850 C   0  0  0  0  0  0  0  0  0  0  0  0
    9.4152  -15.0969   22.1790 C   0  0  1  0  0  0  0  0  0  0  0  0
    9.6678  -16.1354   23.2183 C   0  0  0  0  0  0  0  0  0  0  0  0
    8.8056  -16.9793   23.5706 O   0  0  0  0  0  0  0  0  0  0  0  0
   10.9320  -16.1928   23.8523 N   0  0  0  0  0  0  0  0  0  0  0  0
   11.2614  -17.2652   24.8065 C   0  0  1  0  0  0  0  0  0  0  0  0
   12.7310  -17.5416   24.7970 C   0  0  0  0  0  0  0  0  0  0  0  0
   13.3714  -17.7044   23.4744 C   0  0  0  0  0  0  0  0  0  0  0  0
   14.8418  -17.8953   23.4371 C   0  0  0  0  0  0  0  0  0  0  0  0
   15.3779  -18.0271   22.0172 C   0  0  0  0  0  0  0  0  0  0  0  0
   16.7955  -18.2478   22.0904 N   0  0  0  0  0  0  0  0  0  0  0  0
   10.6441  -16.9461   26.0869 C   0  0  0  0  0  0  0  0  0  0  0  0
   10.5760  -17.7440   27.0471 O   0  0  0  0  0  0  0  0  0  0  0  0
   10.0757  -15.6856   26.3103 O   0  0  0  0  0  0  0  0  0  0  0  0
  2  1  1  0
  3  2  2  0
  4  2  1  0
  5  4  1  0
  6  8  1  0
  6  5  1  0
  6  7  1  6
  8  9  2  0
  8 10  1  0
 10 14  1  0
 10 11  1  0
 12 11  1  0
 13 14  1  0
 13 12  1  0
 15 17  1  0
 14 15  1  1
 16 15  2  0
 18 17  1  0
 18 19  1  1
 20 19  1  0
 21 20  1  0
 22 21  1  0
 23 22  1  0
 24 18  1  0
 25 24  2  0
 26 24  1  0
M  END
$$$$
