QPK.pdb
     RDKit          3D

 26 26  0  0  1  0  0  0  0  0999 V2000
    7.9553  -12.2577   27.3624 N   0  0  0  0  0  0  0  0  0  0  0  0
    6.6075  -12.2232   26.9428 C   0  0  0  0  0  0  0  0  0  0  0  0
    5.9737  -11.1517   27.1242 O   0  0  0  0  0  0  0  0  0  0  0  0
    5.9355  -13.3815   26.3117 C   0  0  0  0  0  0  0  0  0  0  0  0
    6.8969  -14.0599   25.3392 C   0  0  0  0  0  0  0  0  0  0  0  0
    6.1820  -15.1695   24.5979 C   0  0  2  0  0  0  0  0  0  0  0  0
    5.9094  -16.1933   25.6126 N   0  0  0  0  0  0  0  0  0  0  0  0
    7.0064  -15.7516   23.5275 C   0  0  0  0  0  0  0  0  0  0  0  0
    7.1339  -17.0023   23.4832 O   0  0  0  0  0  0  0  0  0  0  0  0
    7.6690  -14.9836   22.5379 N   0  0  0  0  0  0  0  0  0  0  0  0
    7.6906  -13.5377   22.3703 C   0  0  0  0  0  0  0  0  0  0  0  0
    7.4492  -13.4223   20.8583 C   0  0  0  0  0  0  0  0  0  0  0  0
    8.4702  -14.4559   20.3639 C   0  0  0  0  0  0  0  0  0  0  0  0
    8.4829  -15.4966   21.4529 C   0  0  1  0  0  0  0  0  0  0  0  0
    9.8926  -15.6585   21.9104 C   0  0  0  0  0  0  0  0  0  0  0  0
   10.4568  -14.8557   22.6960 O   0  0  0  0  0  0  0  0  0  0  0  0
   10.6512  -16.7617   21.4511 N   0  0  0  0  0  0  0  0  0  0  0  0
   11.8226  -17.2491   22.1989 C   0  0  1  0  0  0  0  0  0  0  0  0
   11.6759  -18.7039   22.5122 C   0  0  0  0  0  0  0  0  0  0  0  0
   12.8129  -19.3581   23.1942 C   0  0  0  0  0  0  0  0  0  0  0  0
   12.5311  -20.5726   23.9977 C   0  0  0  0  0  0  0  0  0  0  0  0
   13.7915  -21.1792   24.6013 C   0  0  0  0  0  0  0  0  0  0  0  0
   13.4155  -22.3485   25.3462 N   0  0  0  0  0  0  0  0  0  0  0  0
   13.0255  -16.8301   21.4920 C   0  0  0  0  0  0  0  0  0  0  0  0
   13.0927  -16.6892   20.2515 O   0  0  0  0  0  0  0  0  0  0  0  0
   14.2066  -16.5569   22.1937 O   0  0  0  0  0  0  0  0  0  0  0  0
  2  1  1  0
  3  2  2  0
  4  2  1  0
  5  4  1  0
  6  8  1  0
  6  5  1  0
  6  7  1  1
  8  9  2  0
  8 10  1  0
 10 14  1  0
 10 11  1  0
 12 11  1  0
 13 14  1  0
 13 12  1  0
 15 17  1  0
 14 15  1  1
 16 15  2  0
 18 17  1  0
 18 19  1  6
 20 19  1  0
 21 20  1  0
 22 21  1  0
 23 22  1  0
 24 18  1  0
 25 24  2  0
 26 24  1  0
M  END
$$$$
