QPK.pdb
     RDKit          3D

 26 26  0  0  1  0  0  0  0  0999 V2000
    5.8680  -19.2232   17.7380 N   0  0  0  0  0  0  0  0  0  0  0  0
    7.2575  -19.4190   17.5807 C   0  0  0  0  0  0  0  0  0  0  0  0
    7.6986  -20.5852   17.7475 O   0  0  0  0  0  0  0  0  0  0  0  0
    8.1867  -18.3199   17.2341 C   0  0  0  0  0  0  0  0  0  0  0  0
    7.4033  -17.0179   17.0882 C   0  0  0  0  0  0  0  0  0  0  0  0
    8.3567  -15.8678   16.8425 C   0  0  2  0  0  0  0  0  0  0  0  0
    9.2975  -16.3608   15.8307 N   0  0  0  0  0  0  0  0  0  0  0  0
    9.0994  -15.4857   18.0536 C   0  0  0  0  0  0  0  0  0  0  0  0
   10.3175  -15.7904   18.1297 O   0  0  0  0  0  0  0  0  0  0  0  0
    8.5217  -14.7912   19.1454 N   0  0  0  0  0  0  0  0  0  0  0  0
    7.1299  -14.4191   19.3542 C   0  0  0  0  0  0  0  0  0  0  0  0
    7.2903  -12.9644   19.8189 C   0  0  0  0  0  0  0  0  0  0  0  0
    8.3942  -13.1586   20.8672 C   0  0  0  0  0  0  0  0  0  0  0  0
    9.2207  -14.2891   20.3124 C   0  0  1  0  0  0  0  0  0  0  0  0
    9.2943  -15.3525   21.3547 C   0  0  0  0  0  0  0  0  0  0  0  0
    8.3652  -16.1720   21.5675 O   0  0  0  0  0  0  0  0  0  0  0  0
   10.4563  -15.4635   22.1552 N   0  0  0  0  0  0  0  0  0  0  0  0
   10.5992  -16.5387   23.1516 C   0  0  1  0  0  0  0  0  0  0  0  0
   11.8053  -17.3712   22.8546 C   0  0  0  0  0  0  0  0  0  0  0  0
   11.9333  -17.8940   21.4776 C   0  0  0  0  0  0  0  0  0  0  0  0
   13.1650  -18.6464   21.1355 C   0  0  0  0  0  0  0  0  0  0  0  0
   13.1205  -19.2317   19.7296 C   0  0  0  0  0  0  0  0  0  0  0  0
   14.3611  -19.9140   19.4872 N   0  0  0  0  0  0  0  0  0  0  0  0
   10.4974  -15.9499   24.4802 C   0  0  0  0  0  0  0  0  0  0  0  0
   10.3506  -16.6147   25.5289 O   0  0  0  0  0  0  0  0  0  0  0  0
   10.5597  -14.5612   24.6516 O   0  0  0  0  0  0  0  0  0  0  0  0
  2  1  1  0
  3  2  2  0
  4  2  1  0
  5  4  1  0
  6  8  1  0
  6  5  1  0
  6  7  1  6
  8  9  2  0
  8 10  1  0
 10 14  1  0
 10 11  1  0
 12 11  1  0
 13 14  1  0
 13 12  1  0
 15 17  1  0
 14 15  1  1
 16 15  2  0
 18 17  1  0
 18 19  1  1
 20 19  1  0
 21 20  1  0
 22 21  1  0
 23 22  1  0
 24 18  1  0
 25 24  2  0
 26 24  1  0
M  END
$$$$
