QPK.pdb
     RDKit          3D

 26 26  0  0  1  0  0  0  0  0999 V2000
    3.5209  -18.7432   20.5752 N   0  0  0  0  0  0  0  0  0  0  0  0
    4.8026  -19.1490   21.0068 C   0  0  0  0  0  0  0  0  0  0  0  0
    4.8583  -20.0506   21.8825 O   0  0  0  0  0  0  0  0  0  0  0  0
    6.0512  -18.5596   20.4726 C   0  0  0  0  0  0  0  0  0  0  0  0
    5.7075  -17.4854   19.4439 C   0  0  0  0  0  0  0  0  0  0  0  0
    6.9747  -16.9659   18.7987 C   0  0  2  0  0  0  0  0  0  0  0  0
    7.6609  -18.1582   18.2896 N   0  0  0  0  0  0  0  0  0  0  0  0
    7.8491  -16.2723   19.7572 C   0  0  0  0  0  0  0  0  0  0  0  0
    8.8796  -16.8667   20.1659 O   0  0  0  0  0  0  0  0  0  0  0  0
    7.5987  -14.9674   20.2501 N   0  0  0  0  0  0  0  0  0  0  0  0
    6.5245  -14.0509   19.8963 C   0  0  0  0  0  0  0  0  0  0  0  0
    7.3105  -12.7431   19.7247 C   0  0  0  0  0  0  0  0  0  0  0  0
    8.1454  -12.7840   21.0118 C   0  0  0  0  0  0  0  0  0  0  0  0
    8.3881  -14.2538   21.2352 C   0  0  1  0  0  0  0  0  0  0  0  0
    7.9104  -14.5901   22.6068 C   0  0  0  0  0  0  0  0  0  0  0  0
    6.6992  -14.5545   22.9408 O   0  0  0  0  0  0  0  0  0  0  0  0
    8.8479  -14.9705   23.5967 N   0  0  0  0  0  0  0  0  0  0  0  0
    8.4129  -15.5328   24.8865 C   0  0  1  0  0  0  0  0  0  0  0  0
    7.3978  -16.6098   24.6728 C   0  0  0  0  0  0  0  0  0  0  0  0
    7.9129  -17.9727   24.4219 C   0  0  0  0  0  0  0  0  0  0  0  0
    6.9244  -19.0508   24.1755 C   0  0  0  0  0  0  0  0  0  0  0  0
    7.5841  -20.3846   23.8487 C   0  0  0  0  0  0  0  0  0  0  0  0
    6.5492  -21.3578   23.6353 N   0  0  0  0  0  0  0  0  0  0  0  0
    9.5982  -15.8688   25.6640 C   0  0  0  0  0  0  0  0  0  0  0  0
   10.7465  -15.9662   25.1791 O   0  0  0  0  0  0  0  0  0  0  0  0
    9.5037  -16.1089   27.0407 O   0  0  0  0  0  0  0  0  0  0  0  0
  2  1  1  0
  3  2  2  0
  4  2  1  0
  5  4  1  0
  6  8  1  0
  6  5  1  0
  6  7  1  1
  8  9  2  0
  8 10  1  0
 10 14  1  0
 10 11  1  0
 12 11  1  0
 13 14  1  0
 13 12  1  0
 15 17  1  0
 14 15  1  1
 16 15  2  0
 18 17  1  0
 18 19  1  6
 20 19  1  0
 21 20  1  0
 22 21  1  0
 23 22  1  0
 24 18  1  0
 25 24  2  0
 26 24  1  0
M  END
$$$$
