QPK.pdb
     RDKit          3D

 26 26  0  0  1  0  0  0  0  0999 V2000
    7.9311  -18.6986   23.9292 N   0  0  0  0  0  0  0  0  0  0  0  0
    6.6168  -18.2027   23.7863 C   0  0  0  0  0  0  0  0  0  0  0  0
    5.7107  -18.7694   24.4500 O   0  0  0  0  0  0  0  0  0  0  0  0
    6.2823  -17.0645   22.9008 C   0  0  0  0  0  0  0  0  0  0  0  0
    7.5559  -16.5405   22.2423 C   0  0  0  0  0  0  0  0  0  0  0  0
    7.5667  -15.0269   22.2735 C   0  0  2  0  0  0  0  0  0  0  0  0
    8.2005  -14.6232   21.0137 N   0  0  0  0  0  0  0  0  0  0  0  0
    8.3445  -14.4942   23.4030 C   0  0  0  0  0  0  0  0  0  0  0  0
    9.6000  -14.5197   23.3300 O   0  0  0  0  0  0  0  0  0  0  0  0
    7.7608  -13.9511   24.5745 N   0  0  0  0  0  0  0  0  0  0  0  0
    6.3533  -13.7256   24.8703 C   0  0  0  0  0  0  0  0  0  0  0  0
    6.4089  -12.3078   25.4570 C   0  0  0  0  0  0  0  0  0  0  0  0
    7.5735  -12.4906   26.4396 C   0  0  0  0  0  0  0  0  0  0  0  0
    8.4679  -13.4900   25.7536 C   0  0  1  0  0  0  0  0  0  0  0  0
    8.6821  -14.6280   26.6926 C   0  0  0  0  0  0  0  0  0  0  0  0
    7.8440  -15.5500   26.8579 O   0  0  0  0  0  0  0  0  0  0  0  0
    9.8795  -14.6941   27.4445 N   0  0  0  0  0  0  0  0  0  0  0  0
   10.2535  -15.9127   28.1821 C   0  0  1  0  0  0  0  0  0  0  0  0
   11.3376  -16.6490   27.4619 C   0  0  0  0  0  0  0  0  0  0  0  0
   11.8701  -17.8624   28.1175 C   0  0  0  0  0  0  0  0  0  0  0  0
   12.9026  -18.6431   27.3930 C   0  0  0  0  0  0  0  0  0  0  0  0
   13.3933  -19.8445   28.1909 C   0  0  0  0  0  0  0  0  0  0  0  0
   14.3837  -20.5299   27.4082 N   0  0  0  0  0  0  0  0  0  0  0  0
   10.4931  -15.5522   29.5731 C   0  0  0  0  0  0  0  0  0  0  0  0
   10.6747  -14.3802   29.9690 O   0  0  0  0  0  0  0  0  0  0  0  0
   10.5345  -16.5370   30.5683 O   0  0  0  0  0  0  0  0  0  0  0  0
  2  1  1  0
  3  2  2  0
  4  2  1  0
  5  4  1  0
  6  8  1  0
  6  5  1  0
  6  7  1  6
  8  9  2  0
  8 10  1  0
 10 14  1  0
 10 11  1  0
 12 11  1  0
 13 14  1  0
 13 12  1  0
 15 17  1  0
 14 15  1  1
 16 15  2  0
 18 17  1  0
 18 19  1  6
 20 19  1  0
 21 20  1  0
 22 21  1  0
 23 22  1  0
 24 18  1  0
 25 24  2  0
 26 24  1  0
M  END
$$$$
