QPK.pdb
     RDKit          3D

 26 26  0  0  1  0  0  0  0  0999 V2000
    3.1508  -18.0203   21.9359 N   0  0  0  0  0  0  0  0  0  0  0  0
    4.4261  -18.6069   22.0889 C   0  0  0  0  0  0  0  0  0  0  0  0
    4.6264  -19.2903   23.1260 O   0  0  0  0  0  0  0  0  0  0  0  0
    5.5068  -18.4454   21.0901 C   0  0  0  0  0  0  0  0  0  0  0  0
    5.0780  -17.4276   20.0363 C   0  0  0  0  0  0  0  0  0  0  0  0
    6.2169  -17.1740   19.0717 C   0  0  2  0  0  0  0  0  0  0  0  0
    6.5526  -18.4919   18.5217 N   0  0  0  0  0  0  0  0  0  0  0  0
    7.4006  -16.6076   19.7369 C   0  0  0  0  0  0  0  0  0  0  0  0
    8.4146  -17.3384   19.8784 O   0  0  0  0  0  0  0  0  0  0  0  0
    7.4671  -15.2809   20.2304 N   0  0  0  0  0  0  0  0  0  0  0  0
    6.4409  -14.2486   20.2087 C   0  0  0  0  0  0  0  0  0  0  0  0
    7.2620  -13.0401   19.7365 C   0  0  0  0  0  0  0  0  0  0  0  0
    8.4640  -13.1716   20.6816 C   0  0  0  0  0  0  0  0  0  0  0  0
    8.6079  -14.6587   20.8740 C   0  0  1  0  0  0  0  0  0  0  0  0
    8.5744  -14.9329   22.3390 C   0  0  0  0  0  0  0  0  0  0  0  0
    7.5080  -15.0076   23.0001 O   0  0  0  0  0  0  0  0  0  0  0  0
    9.7895  -15.1215   23.0399 N   0  0  0  0  0  0  0  0  0  0  0  0
    9.8256  -15.8259   24.3328 C   0  0  1  0  0  0  0  0  0  0  0  0
    9.4415  -17.2605   24.1585 C   0  0  0  0  0  0  0  0  0  0  0  0
    9.4546  -18.1073   25.3705 C   0  0  0  0  0  0  0  0  0  0  0  0
    9.2060  -19.5598   25.2017 C   0  0  0  0  0  0  0  0  0  0  0  0
    9.1877  -20.3075   26.5289 C   0  0  0  0  0  0  0  0  0  0  0  0
    9.0643  -21.7117   26.2523 N   0  0  0  0  0  0  0  0  0  0  0  0
   11.1028  -15.5435   24.9740 C   0  0  0  0  0  0  0  0  0  0  0  0
   12.2137  -15.7826   24.4525 O   0  0  0  0  0  0  0  0  0  0  0  0
   11.1484  -14.9716   26.2519 O   0  0  0  0  0  0  0  0  0  0  0  0
  2  1  1  0
  3  2  2  0
  4  2  1  0
  5  4  1  0
  6  8  1  0
  6  5  1  0
  6  7  1  1
  8  9  2  0
  8 10  1  0
 10 14  1  0
 10 11  1  0
 12 11  1  0
 13 14  1  0
 13 12  1  0
 15 17  1  0
 14 15  1  1
 16 15  2  0
 18 17  1  0
 18 19  1  6
 20 19  1  0
 21 20  1  0
 22 21  1  0
 23 22  1  0
 24 18  1  0
 25 24  2  0
 26 24  1  0
M  END
$$$$
