DSN.pdb
     RDKit          3D

 23 22  0  0  1  0  0  0  0  0999 V2000
   19.4435  -12.6799  -15.8160 N   0  0  0  0  0  0  0  0  0  0  0  0
   18.9759  -11.5456  -16.5871 C   0  0  1  0  0  0  0  0  0  0  0  0
   17.4903  -11.6857  -16.8023 C   0  0  0  0  0  0  0  0  0  0  0  0
   17.1769  -12.7832  -17.7386 C   0  0  0  0  0  0  0  0  0  0  0  0
   16.8341  -13.8920  -17.2913 O   0  0  0  0  0  0  0  0  0  0  0  0
   19.1789  -10.2955  -15.7715 C   0  0  0  0  0  0  0  0  0  0  0  0
   18.5065  -10.0818  -14.7306 O   0  0  0  0  0  0  0  0  0  0  0  0
   17.2674  -12.5679  -19.0889 O   0  0  0  0  0  0  0  0  0  0  0  0
   22.3202   -8.7188  -14.1640 O   0  0  0  0  0  0  0  0  0  0  0  0
   21.9127   -7.9863  -15.3027 C   0  0  0  0  0  0  0  0  0  0  0  0
   20.4050   -8.1238  -15.3704 C   0  0  2  0  0  0  0  0  0  0  0  0
   20.1353   -9.3187  -16.1515 N   0  0  0  0  0  0  0  0  0  0  0  0
   19.8815   -6.9063  -16.0288 C   0  0  0  0  0  0  0  0  0  0  0  0
   19.9027   -6.8441  -17.2721 O   0  0  0  0  0  0  0  0  0  0  0  0
   15.5021   -4.8201  -16.3264 N   0  0  0  0  0  0  0  0  0  0  0  0
   16.4571   -4.9286  -15.2943 C   0  0  0  0  0  0  0  0  0  0  0  0
   16.2781   -5.7925  -14.4155 O   0  0  0  0  0  0  0  0  0  0  0  0
   17.6123   -4.0556  -15.2636 C   0  0  0  0  0  0  0  0  0  0  0  0
   18.8390   -4.6136  -15.9378 C   0  0  2  0  0  0  0  0  0  0  0  0
   19.3508   -5.7931  -15.3197 N   0  0  0  0  0  0  0  0  0  0  0  0
   19.8896   -3.5587  -16.1178 C   0  0  0  0  0  0  0  0  0  0  0  0
   19.6627   -2.4134  -16.8567 O   0  0  0  0  0  0  0  0  0  0  0  0
   21.0349   -3.6751  -15.5966 O   0  0  0  0  0  0  0  0  0  0  0  0
  2  1  1  1
  2  3  1  0
  3  4  1  0
  4  5  2  0
  4  8  1  0
  6 12  1  0
  6  2  1  0
  7  6  2  0
  9 10  1  0
 11 10  1  6
 11 13  1  0
 11 12  1  0
 13 20  1  0
 14 13  2  0
 16 15  1  0
 16 17  2  0
 18 16  1  0
 19 21  1  0
 19 18  1  1
 20 19  1  0
 21 22  1  0
 23 21  2  0
M  END
$$$$
