DSN.pdb
     RDKit          3D

 23 22  0  0  1  0  0  0  0  0999 V2000
   22.5770   -5.1685  -14.2441 N   0  0  0  0  0  0  0  0  0  0  0  0
   21.6721   -5.1062  -15.3741 C   0  0  1  0  0  0  0  0  0  0  0  0
   22.0948   -3.9704  -16.2709 C   0  0  0  0  0  0  0  0  0  0  0  0
   21.7919   -2.6579  -15.6665 C   0  0  0  0  0  0  0  0  0  0  0  0
   21.8624   -2.5201  -14.4323 O   0  0  0  0  0  0  0  0  0  0  0  0
   21.8220   -6.3711  -16.1783 C   0  0  0  0  0  0  0  0  0  0  0  0
   21.1779   -6.5441  -17.2444 O   0  0  0  0  0  0  0  0  0  0  0  0
   21.4368   -1.6075  -16.4715 O   0  0  0  0  0  0  0  0  0  0  0  0
   25.1725   -8.5092  -16.7093 O   0  0  0  0  0  0  0  0  0  0  0  0
   24.1717   -9.2506  -16.0399 C   0  0  0  0  0  0  0  0  0  0  0  0
   22.8481   -8.6593  -16.4815 C   0  0  2  0  0  0  0  0  0  0  0  0
   22.6947   -7.4082  -15.7589 N   0  0  0  0  0  0  0  0  0  0  0  0
   21.7915   -9.6327  -16.1268 C   0  0  0  0  0  0  0  0  0  0  0  0
   21.2926   -9.5831  -14.9871 O   0  0  0  0  0  0  0  0  0  0  0  0
   17.1435  -11.6581  -15.0162 N   0  0  0  0  0  0  0  0  0  0  0  0
   17.7259  -11.4802  -16.2883 C   0  0  0  0  0  0  0  0  0  0  0  0
   17.1890  -12.0369  -17.2643 O   0  0  0  0  0  0  0  0  0  0  0  0
   18.9163  -10.6707  -16.4478 C   0  0  0  0  0  0  0  0  0  0  0  0
   20.1663  -11.4489  -16.7681 C   0  0  2  0  0  0  0  0  0  0  0  0
   21.3074  -10.6302  -17.0181 N   0  0  0  0  0  0  0  0  0  0  0  0
   19.9234  -12.4436  -17.8638 C   0  0  0  0  0  0  0  0  0  0  0  0
   19.9434  -12.0871  -19.1985 O   0  0  0  0  0  0  0  0  0  0  0  0
   19.6883  -13.6589  -17.6089 O   0  0  0  0  0  0  0  0  0  0  0  0
  2  1  1  1
  2  3  1  0
  3  4  1  0
  4  5  2  0
  4  8  1  0
  6 12  1  0
  6  2  1  0
  7  6  2  0
  9 10  1  0
 11 10  1  1
 11 13  1  0
 11 12  1  0
 13 20  1  0
 14 13  2  0
 16 15  1  0
 16 17  2  0
 18 16  1  0
 19 21  1  0
 19 18  1  6
 20 19  1  0
 21 22  1  0
 23 21  2  0
M  END
$$$$
