DSN.pdb
     RDKit          3D

 23 22  0  0  1  0  0  0  0  0999 V2000
   17.3955  -12.2122  -16.7165 N   0  0  0  0  0  0  0  0  0  0  0  0
   18.4794  -11.5031  -17.3661 C   0  0  1  0  0  0  0  0  0  0  0  0
   17.9103  -10.6698  -18.4863 C   0  0  0  0  0  0  0  0  0  0  0  0
   17.4318  -11.5107  -19.6014 C   0  0  0  0  0  0  0  0  0  0  0  0
   16.2127  -11.7199  -19.7326 O   0  0  0  0  0  0  0  0  0  0  0  0
   19.0845  -10.5421  -16.3764 C   0  0  0  0  0  0  0  0  0  0  0  0
   18.3655   -9.7460  -15.7201 O   0  0  0  0  0  0  0  0  0  0  0  0
   18.3356  -12.0508  -20.4784 O   0  0  0  0  0  0  0  0  0  0  0  0
   23.0592   -9.4048  -13.8951 O   0  0  0  0  0  0  0  0  0  0  0  0
   22.5006  -10.1888  -14.9308 C   0  0  0  0  0  0  0  0  0  0  0  0
   21.1101   -9.6357  -15.1698 C   0  0  2  0  0  0  0  0  0  0  0  0
   20.4850  -10.5041  -16.1527 N   0  0  0  0  0  0  0  0  0  0  0  0
   21.2673   -8.2544  -15.6768 C   0  0  0  0  0  0  0  0  0  0  0  0
   21.3501   -8.0757  -16.9061 O   0  0  0  0  0  0  0  0  0  0  0  0
   21.7204   -3.1930  -16.3667 N   0  0  0  0  0  0  0  0  0  0  0  0
   20.4458   -3.7964  -16.3648 C   0  0  0  0  0  0  0  0  0  0  0  0
   19.4870   -3.1478  -16.8241 O   0  0  0  0  0  0  0  0  0  0  0  0
   20.2639   -5.1345  -15.8412 C   0  0  0  0  0  0  0  0  0  0  0  0
   21.5183   -5.7745  -15.3048 C   0  0  2  0  0  0  0  0  0  0  0  0
   21.3301   -7.1086  -14.8360 N   0  0  0  0  0  0  0  0  0  0  0  0
   22.1851   -4.8979  -14.2871 C   0  0  0  0  0  0  0  0  0  0  0  0
   23.3386   -4.1910  -14.5681 O   0  0  0  0  0  0  0  0  0  0  0  0
   21.7154   -4.7689  -13.1210 O   0  0  0  0  0  0  0  0  0  0  0  0
  2  1  1  1
  2  3  1  0
  3  4  1  0
  4  5  2  0
  4  8  1  0
  6 12  1  0
  6  2  1  0
  7  6  2  0
  9 10  1  0
 11 10  1  6
 11 13  1  0
 11 12  1  0
 13 20  1  0
 14 13  2  0
 16 15  1  0
 16 17  2  0
 18 16  1  0
 19 21  1  0
 19 18  1  1
 20 19  1  0
 21 22  1  0
 23 21  2  0
M  END
$$$$
