DSN.pdb
     RDKit          3D

 23 22  0  0  1  0  0  0  0  0999 V2000
   19.6936  -12.8032  -17.2077 N   0  0  0  0  0  0  0  0  0  0  0  0
   20.1263  -11.5529  -17.7987 C   0  0  1  0  0  0  0  0  0  0  0  0
   18.9287  -10.8608  -18.3986 C   0  0  0  0  0  0  0  0  0  0  0  0
   18.4219  -11.5797  -19.5843 C   0  0  0  0  0  0  0  0  0  0  0  0
   17.1959  -11.7241  -19.7364 O   0  0  0  0  0  0  0  0  0  0  0  0
   20.6393  -10.6567  -16.7019 C   0  0  0  0  0  0  0  0  0  0  0  0
   19.8961  -10.3008  -15.7520 O   0  0  0  0  0  0  0  0  0  0  0  0
   19.3074  -12.0792  -20.5030 O   0  0  0  0  0  0  0  0  0  0  0  0
   24.2628  -10.8122  -14.9462 O   0  0  0  0  0  0  0  0  0  0  0  0
   24.0382   -9.6150  -15.6644 C   0  0  0  0  0  0  0  0  0  0  0  0
   22.5409   -9.3835  -15.6326 C   0  0  2  0  0  0  0  0  0  0  0  0
   21.9775  -10.1854  -16.7052 N   0  0  0  0  0  0  0  0  0  0  0  0
   22.3148   -7.9373  -15.8498 C   0  0  0  0  0  0  0  0  0  0  0  0
   22.0192   -7.5446  -16.9937 O   0  0  0  0  0  0  0  0  0  0  0  0
   21.3681   -2.9127  -15.4130 N   0  0  0  0  0  0  0  0  0  0  0  0
   20.4321   -3.9122  -15.7502 C   0  0  0  0  0  0  0  0  0  0  0  0
   19.3309   -3.5559  -16.2100 O   0  0  0  0  0  0  0  0  0  0  0  0
   20.7494   -5.3130  -15.5642 C   0  0  0  0  0  0  0  0  0  0  0  0
   22.1184   -5.5758  -14.9917 C   0  0  2  0  0  0  0  0  0  0  0  0
   22.4160   -6.9604  -14.8206 N   0  0  0  0  0  0  0  0  0  0  0  0
   22.3479   -4.7812  -13.7408 C   0  0  0  0  0  0  0  0  0  0  0  0
   22.3320   -3.3996  -13.7338 O   0  0  0  0  0  0  0  0  0  0  0  0
   22.5670   -5.3476  -12.6325 O   0  0  0  0  0  0  0  0  0  0  0  0
  2  1  1  1
  2  3  1  0
  3  4  1  0
  4  5  2  0
  4  8  1  0
  6 12  1  0
  6  2  1  0
  7  6  2  0
  9 10  1  0
 11 10  1  6
 11 13  1  0
 11 12  1  0
 13 20  1  0
 14 13  2  0
 16 15  1  0
 16 17  2  0
 18 16  1  0
 19 21  1  0
 19 18  1  1
 20 19  1  0
 21 22  1  0
 23 21  2  0
M  END
$$$$
