DSN.pdb
     RDKit          3D

 23 22  0  0  1  0  0  0  0  0999 V2000
   20.1014  -12.5668  -18.7771 N   0  0  0  0  0  0  0  0  0  0  0  0
   21.3655  -11.8882  -18.5741 C   0  0  1  0  0  0  0  0  0  0  0  0
   22.2896  -12.2346  -19.7140 C   0  0  0  0  0  0  0  0  0  0  0  0
   22.8560  -13.5895  -19.5629 C   0  0  0  0  0  0  0  0  0  0  0  0
   22.5461  -14.2771  -18.5738 O   0  0  0  0  0  0  0  0  0  0  0  0
   21.1285  -10.4023  -18.6457 C   0  0  0  0  0  0  0  0  0  0  0  0
   22.0816   -9.5867  -18.5571 O   0  0  0  0  0  0  0  0  0  0  0  0
   23.7161  -14.0737  -20.5134 O   0  0  0  0  0  0  0  0  0  0  0  0
   17.8166   -6.9359  -19.3398 O   0  0  0  0  0  0  0  0  0  0  0  0
   18.0602   -8.3189  -19.1747 C   0  0  0  0  0  0  0  0  0  0  0  0
   19.5436   -8.4512  -18.8940 C   0  0  2  0  0  0  0  0  0  0  0  0
   19.8224   -9.8749  -18.8154 N   0  0  0  0  0  0  0  0  0  0  0  0
   19.8108   -7.7665  -17.6096 C   0  0  0  0  0  0  0  0  0  0  0  0
   19.8639   -8.4486  -16.5694 O   0  0  0  0  0  0  0  0  0  0  0  0
   23.1692   -4.7340  -14.3223 N   0  0  0  0  0  0  0  0  0  0  0  0
   21.9476   -5.4329  -14.4129 C   0  0  0  0  0  0  0  0  0  0  0  0
   21.1863   -5.4171  -13.4276 O   0  0  0  0  0  0  0  0  0  0  0  0
   21.5947   -6.1476  -15.6222 C   0  0  0  0  0  0  0  0  0  0  0  0
   20.3120   -5.6923  -16.2688 C   0  0  2  0  0  0  0  0  0  0  0  0
   20.0124   -6.3632  -17.4915 N   0  0  0  0  0  0  0  0  0  0  0  0
   20.2723   -4.1998  -16.4092 C   0  0  0  0  0  0  0  0  0  0  0  0
   20.5844   -3.5641  -17.5956 O   0  0  0  0  0  0  0  0  0  0  0  0
   19.9490   -3.4562  -15.4399 O   0  0  0  0  0  0  0  0  0  0  0  0
  2  1  1  6
  2  3  1  0
  3  4  1  0
  4  5  2  0
  4  8  1  0
  6 12  1  0
  6  2  1  0
  7  6  2  0
  9 10  1  0
 11 10  1  1
 11 13  1  0
 11 12  1  0
 13 20  1  0
 14 13  2  0
 16 15  1  0
 16 17  2  0
 18 16  1  0
 19 21  1  0
 19 18  1  6
 20 19  1  0
 21 22  1  0
 23 21  2  0
M  END
$$$$
