DSN.pdb
     RDKit          3D

 23 22  0  0  1  0  0  0  0  0999 V2000
   15.2525  -11.6894  -13.5374 N   0  0  0  0  0  0  0  0  0  0  0  0
   15.3627  -12.1849  -12.1802 C   0  0  1  0  0  0  0  0  0  0  0  0
   16.2305  -13.4178  -12.1838 C   0  0  0  0  0  0  0  0  0  0  0  0
   15.5366  -14.5701  -12.7923 C   0  0  0  0  0  0  0  0  0  0  0  0
   14.3755  -14.4326  -13.2167 O   0  0  0  0  0  0  0  0  0  0  0  0
   16.0807  -11.1530  -11.3503 C   0  0  0  0  0  0  0  0  0  0  0  0
   16.3134  -11.3472  -10.1298 O   0  0  0  0  0  0  0  0  0  0  0  0
   16.1792  -15.7770  -12.8825 O   0  0  0  0  0  0  0  0  0  0  0  0
   18.4851   -6.9860  -11.2905 O   0  0  0  0  0  0  0  0  0  0  0  0
   17.8513   -7.9670  -12.0876 C   0  0  0  0  0  0  0  0  0  0  0  0
   17.0581   -8.8341  -11.1308 C   0  0  2  0  0  0  0  0  0  0  0  0
   16.5176   -9.9286  -11.9187 N   0  0  0  0  0  0  0  0  0  0  0  0
   15.9879   -7.9892  -10.5558 C   0  0  0  0  0  0  0  0  0  0  0  0
   14.9299   -7.8477  -11.1968 O   0  0  0  0  0  0  0  0  0  0  0  0
   14.0785   -4.9683   -5.4973 N   0  0  0  0  0  0  0  0  0  0  0  0
   13.9666   -5.5382   -6.7825 C   0  0  0  0  0  0  0  0  0  0  0  0
   12.9494   -5.2815   -7.4534 O   0  0  0  0  0  0  0  0  0  0  0  0
   15.0103   -6.3978   -7.3015 C   0  0  0  0  0  0  0  0  0  0  0  0
   15.1429   -6.3881   -8.8026 C   0  0  2  0  0  0  0  0  0  0  0  0
   16.0967   -7.3232   -9.3035 N   0  0  0  0  0  0  0  0  0  0  0  0
   15.3745   -4.9999   -9.3203 C   0  0  0  0  0  0  0  0  0  0  0  0
   16.5510   -4.6352   -9.9465 O   0  0  0  0  0  0  0  0  0  0  0  0
   14.4957   -4.0992   -9.2040 O   0  0  0  0  0  0  0  0  0  0  0  0
  2  1  1  6
  2  3  1  0
  3  4  1  0
  4  5  2  0
  4  8  1  0
  6 12  1  0
  6  2  1  0
  7  6  2  0
  9 10  1  0
 11 10  1  6
 11 13  1  0
 11 12  1  0
 13 20  1  0
 14 13  2  0
 16 15  1  0
 16 17  2  0
 18 16  1  0
 19 21  1  0
 19 18  1  1
 20 19  1  0
 21 22  1  0
 23 21  2  0
M  END
$$$$
