DSN.pdb
     RDKit          3D

 23 22  0  0  1  0  0  0  0  0999 V2000
   24.1667   -2.9819  -16.6267 N   0  0  0  0  0  0  0  0  0  0  0  0
   22.8923   -3.2494  -15.9911 C   0  0  1  0  0  0  0  0  0  0  0  0
   21.8065   -2.5523  -16.7710 C   0  0  0  0  0  0  0  0  0  0  0  0
   21.7902   -1.1006  -16.5029 C   0  0  0  0  0  0  0  0  0  0  0  0
   22.6554   -0.3717  -17.0200 O   0  0  0  0  0  0  0  0  0  0  0  0
   22.6112   -4.7265  -16.0839 C   0  0  0  0  0  0  0  0  0  0  0  0
   22.8241   -5.3634  -17.1471 O   0  0  0  0  0  0  0  0  0  0  0  0
   20.8228   -0.5732  -15.6882 O   0  0  0  0  0  0  0  0  0  0  0  0
   20.7134   -6.4570  -12.9904 O   0  0  0  0  0  0  0  0  0  0  0  0
   21.6701   -7.3197  -13.5732 C   0  0  0  0  0  0  0  0  0  0  0  0
   21.8145   -6.8712  -15.0136 C   0  0  2  0  0  0  0  0  0  0  0  0
   22.0972   -5.4467  -14.9748 N   0  0  0  0  0  0  0  0  0  0  0  0
   20.5326   -7.1594  -15.6945 C   0  0  0  0  0  0  0  0  0  0  0  0
   19.6255   -6.3082  -15.6439 O   0  0  0  0  0  0  0  0  0  0  0  0
   16.6302   -9.2727  -18.3406 N   0  0  0  0  0  0  0  0  0  0  0  0
   17.8368   -9.4569  -19.0470 C   0  0  0  0  0  0  0  0  0  0  0  0
   17.7754   -9.8857  -20.2146 O   0  0  0  0  0  0  0  0  0  0  0  0
   19.1092   -9.1538  -18.4252 C   0  0  0  0  0  0  0  0  0  0  0  0
   19.0146   -8.6963  -16.9925 C   0  0  2  0  0  0  0  0  0  0  0  0
   20.2728   -8.3614  -16.4096 N   0  0  0  0  0  0  0  0  0  0  0  0
   18.2381   -9.6716  -16.1591 C   0  0  0  0  0  0  0  0  0  0  0  0
   18.7790  -10.8698  -15.7339 O   0  0  0  0  0  0  0  0  0  0  0  0
   17.0471   -9.4353  -15.8086 O   0  0  0  0  0  0  0  0  0  0  0  0
  2  1  1  6
  2  3  1  0
  3  4  1  0
  4  5  2  0
  4  8  1  0
  6 12  1  0
  6  2  1  0
  7  6  2  0
  9 10  1  0
 11 10  1  1
 11 13  1  0
 11 12  1  0
 13 20  1  0
 14 13  2  0
 16 15  1  0
 16 17  2  0
 18 16  1  0
 19 21  1  0
 19 18  1  6
 20 19  1  0
 21 22  1  0
 23 21  2  0
M  END
$$$$
