DSN.pdb
     RDKit          3D

 23 22  0  0  1  0  0  0  0  0999 V2000
   16.9156  -12.0904  -14.5642 N   0  0  0  0  0  0  0  0  0  0  0  0
   18.0608  -12.0008  -15.4474 C   0  0  1  0  0  0  0  0  0  0  0  0
   17.8109  -12.8694  -16.6541 C   0  0  0  0  0  0  0  0  0  0  0  0
   17.5868  -14.2782  -16.2738 C   0  0  0  0  0  0  0  0  0  0  0  0
   18.4006  -14.8483  -15.5254 O   0  0  0  0  0  0  0  0  0  0  0  0
   18.1694  -10.5845  -15.9489 C   0  0  0  0  0  0  0  0  0  0  0  0
   19.0935  -10.2400  -16.7292 O   0  0  0  0  0  0  0  0  0  0  0  0
   16.4858  -14.9410  -16.7492 O   0  0  0  0  0  0  0  0  0  0  0  0
   15.9895   -6.3158  -16.3480 O   0  0  0  0  0  0  0  0  0  0  0  0
   15.9412   -7.6090  -15.7781 C   0  0  0  0  0  0  0  0  0  0  0  0
   17.3195   -8.2060  -15.9794 C   0  0  2  0  0  0  0  0  0  0  0  0
   17.2328   -9.5935  -15.5571 N   0  0  0  0  0  0  0  0  0  0  0  0
   18.2606   -7.4329  -15.1391 C   0  0  0  0  0  0  0  0  0  0  0  0
   18.4294   -7.7820  -13.9559 O   0  0  0  0  0  0  0  0  0  0  0  0
   22.3942   -5.3549  -12.6931 N   0  0  0  0  0  0  0  0  0  0  0  0
   22.2266   -5.1702  -14.0812 C   0  0  0  0  0  0  0  0  0  0  0  0
   22.8929   -4.2794  -14.6409 O   0  0  0  0  0  0  0  0  0  0  0  0
   21.3026   -5.9976  -14.8291 C   0  0  0  0  0  0  0  0  0  0  0  0
   19.8720   -5.5250  -14.8003 C   0  0  2  0  0  0  0  0  0  0  0  0
   18.9905   -6.3048  -15.6064 N   0  0  0  0  0  0  0  0  0  0  0  0
   19.7763   -4.0587  -15.0995 C   0  0  0  0  0  0  0  0  0  0  0  0
   20.0277   -3.0948  -14.1420 O   0  0  0  0  0  0  0  0  0  0  0  0
   19.4591   -3.6412  -16.2493 O   0  0  0  0  0  0  0  0  0  0  0  0
  2  1  1  1
  2  3  1  0
  3  4  1  0
  4  5  2  0
  4  8  1  0
  6 12  1  0
  6  2  1  0
  7  6  2  0
  9 10  1  0
 11 10  1  1
 11 13  1  0
 11 12  1  0
 13 20  1  0
 14 13  2  0
 16 15  1  0
 16 17  2  0
 18 16  1  0
 19 21  1  0
 19 18  1  6
 20 19  1  0
 21 22  1  0
 23 21  2  0
M  END
$$$$
