DSN.pdb
     RDKit          3D

 23 22  0  0  1  0  0  0  0  0999 V2000
   12.3378  -10.8354  -10.9632 N   0  0  0  0  0  0  0  0  0  0  0  0
   13.6881  -10.9263  -10.4455 C   0  0  1  0  0  0  0  0  0  0  0  0
   14.3347  -12.1723  -10.9953 C   0  0  0  0  0  0  0  0  0  0  0  0
   13.6943  -13.3947  -10.4706 C   0  0  0  0  0  0  0  0  0  0  0  0
   14.1520  -14.5087  -10.7817 O   0  0  0  0  0  0  0  0  0  0  0  0
   14.4822   -9.7590  -10.9709 C   0  0  0  0  0  0  0  0  0  0  0  0
   14.5711   -9.5358  -12.2053 O   0  0  0  0  0  0  0  0  0  0  0  0
   12.6040  -13.2881   -9.6477 O   0  0  0  0  0  0  0  0  0  0  0  0
   16.8629   -7.5548   -8.4321 O   0  0  0  0  0  0  0  0  0  0  0  0
   16.0504   -6.8102   -9.3179 C   0  0  0  0  0  0  0  0  0  0  0  0
   15.8565   -7.6836  -10.5410 C   0  0  2  0  0  0  0  0  0  0  0  0
   15.1556   -8.8737  -10.0901 N   0  0  0  0  0  0  0  0  0  0  0  0
   17.2008   -8.0041  -11.0702 C   0  0  0  0  0  0  0  0  0  0  0  0
   17.6458   -9.1560  -10.9109 O   0  0  0  0  0  0  0  0  0  0  0  0
   21.4267   -8.1565  -14.0030 N   0  0  0  0  0  0  0  0  0  0  0  0
   20.2456   -8.9128  -14.1508 C   0  0  0  0  0  0  0  0  0  0  0  0
   20.2505   -9.8593  -14.9600 O   0  0  0  0  0  0  0  0  0  0  0  0
   19.0627   -8.5917  -13.3793 C   0  0  0  0  0  0  0  0  0  0  0  0
   19.2139   -7.4050  -12.4629 C   0  0  2  0  0  0  0  0  0  0  0  0
   18.0220   -7.0665  -11.7558 N   0  0  0  0  0  0  0  0  0  0  0  0
   19.8054   -6.2310  -13.1845 C   0  0  0  0  0  0  0  0  0  0  0  0
   21.1229   -5.8510  -13.0147 O   0  0  0  0  0  0  0  0  0  0  0  0
   19.1171   -5.5354  -13.9842 O   0  0  0  0  0  0  0  0  0  0  0  0
  2  1  1  6
  2  3  1  0
  3  4  1  0
  4  5  2  0
  4  8  1  0
  6 12  1  0
  6  2  1  0
  7  6  2  0
  9 10  1  0
 11 10  1  1
 11 13  1  0
 11 12  1  0
 13 20  1  0
 14 13  2  0
 16 15  1  0
 16 17  2  0
 18 16  1  0
 19 21  1  0
 19 18  1  6
 20 19  1  0
 21 22  1  0
 23 21  2  0
M  END
$$$$
