KCW.pdb
     RDKit          3D

 30 31  0  0  1  0  0  0  0  0999 V2000
   27.3158  -22.8653  -18.1564 N   0  0  0  0  0  0  0  0  0  0  0  0
   27.6247  -23.4962  -16.8775 C   0  0  1  0  0  0  0  0  0  0  0  0
   28.8451  -24.3985  -17.0216 C   0  0  0  0  0  0  0  0  0  0  0  0
   28.4829  -25.7493  -17.5554 C   0  0  0  0  0  0  0  0  0  0  0  0
   27.3035  -26.3908  -16.8710 C   0  0  0  0  0  0  0  0  0  0  0  0
   27.1361  -27.7759  -17.4786 C   0  0  0  0  0  0  0  0  0  0  0  0
   26.0770  -28.5094  -16.8335 N   0  0  0  0  0  0  0  0  0  0  0  0
   28.0224  -22.4423  -15.9231 C   0  0  0  0  0  0  0  0  0  0  0  0
   29.2121  -22.2795  -15.5942 O   0  0  0  0  0  0  0  0  0  0  0  0
   27.0290  -21.6037  -15.3763 N   0  0  0  0  0  0  0  0  0  0  0  0
   27.4003  -20.6184  -14.4155 C   0  0  1  0  0  0  0  0  0  0  0  0
   26.9073  -19.2244  -14.8253 C   0  0  0  0  0  0  0  0  0  0  0  0
   27.3863  -18.0942  -13.4886 S   0  0  0  0  0  0  0  0  0  0  0  0
   26.7888  -20.9316  -13.1102 C   0  0  0  0  0  0  0  0  0  0  0  0
   25.5367  -21.2357  -13.0541 O   0  0  0  0  0  0  0  0  0  0  0  0
   27.4653  -20.9339  -11.8613 N   0  0  0  0  0  0  0  0  0  0  0  0
   26.7562  -21.1488  -10.6100 C   0  0  1  0  0  0  0  0  0  0  0  0
   27.7555  -20.9918   -9.4756 C   0  0  0  0  0  0  0  0  0  0  0  0
   27.1567  -20.4714   -8.2441 C   0  0  0  0  0  0  0  0  0  0  0  0
   25.8279  -20.2390   -8.0176 C   0  0  0  0  0  0  0  0  0  0  0  0
   25.7350  -19.7645   -6.7680 N   0  0  0  0  0  0  0  0  0  0  0  0
   26.9410  -19.6822   -6.1847 C   0  0  0  0  0  0  0  0  0  0  0  0
   27.3687  -19.2626   -4.9294 C   0  0  0  0  0  0  0  0  0  0  0  0
   28.7234  -19.2960   -4.6143 C   0  0  0  0  0  0  0  0  0  0  0  0
   29.6432  -19.7351   -5.5206 C   0  0  0  0  0  0  0  0  0  0  0  0
   29.1987  -20.1470   -6.7611 C   0  0  0  0  0  0  0  0  0  0  0  0
   27.8480  -20.1257   -7.1067 C   0  0  0  0  0  0  0  0  0  0  0  0
   25.6195  -20.2242  -10.4402 C   0  0  0  0  0  0  0  0  0  0  0  0
   24.4324  -20.7070   -9.9030 O   0  0  0  0  0  0  0  0  0  0  0  0
   25.7143  -19.0203  -10.7741 O   0  0  0  0  0  0  0  0  0  0  0  0
  2  1  1  6
  3  4  1  0
  3  2  1  0
  5  6  1  0
  5  4  1  0
  7  6  1  0
  8  2  1  0
  8 10  1  0
  9  8  2  0
 11 10  1  0
 11 12  1  6
 13 12  1  0
 14 11  1  0
 15 14  2  0
 16 14  1  0
 17 28  1  0
 17 16  1  0
 17 18  1  1
 19 18  1  0
 20 19  2  0
 21 20  1  0
 22 21  1  0
 22 27  2  0
 23 24  2  0
 23 22  1  0
 24 25  1  0
 25 26  2  0
 27 26  1  0
 27 19  1  0
 28 29  1  0
 30 28  2  0
M  END
$$$$
