KCW.pdb
     RDKit          3D

 30 31  0  0  1  0  0  0  0  0999 V2000
   24.8752  -22.2535  -16.9977 N   0  0  0  0  0  0  0  0  0  0  0  0
   25.5347  -23.4361  -16.4540 C   0  0  1  0  0  0  0  0  0  0  0  0
   26.2588  -24.1876  -17.5653 C   0  0  0  0  0  0  0  0  0  0  0  0
   25.6447  -23.9322  -18.9063 C   0  0  0  0  0  0  0  0  0  0  0  0
   26.1383  -22.6812  -19.5864 C   0  0  0  0  0  0  0  0  0  0  0  0
   25.4433  -22.6063  -20.9382 C   0  0  0  0  0  0  0  0  0  0  0  0
   25.8108  -21.4108  -21.6535 N   0  0  0  0  0  0  0  0  0  0  0  0
   26.5910  -22.9926  -15.5228 C   0  0  0  0  0  0  0  0  0  0  0  0
   27.4716  -23.7750  -15.1197 O   0  0  0  0  0  0  0  0  0  0  0  0
   26.5987  -21.6521  -15.0845 N   0  0  0  0  0  0  0  0  0  0  0  0
   27.4948  -21.2635  -14.0463 C   0  0  1  0  0  0  0  0  0  0  0  0
   28.0717  -19.8647  -14.3004 C   0  0  0  0  0  0  0  0  0  0  0  0
   26.6766  -18.7072  -14.2115 S   0  0  0  0  0  0  0  0  0  0  0  0
   26.7805  -21.2136  -12.7566 C   0  0  0  0  0  0  0  0  0  0  0  0
   25.5349  -20.8799  -12.7351 O   0  0  0  0  0  0  0  0  0  0  0  0
   27.3467  -21.5085  -11.4878 N   0  0  0  0  0  0  0  0  0  0  0  0
   26.5862  -21.3527  -10.2582 C   0  0  1  0  0  0  0  0  0  0  0  0
   27.5494  -21.5049   -9.0925 C   0  0  0  0  0  0  0  0  0  0  0  0
   27.1778  -20.7013   -7.9253 C   0  0  0  0  0  0  0  0  0  0  0  0
   25.9944  -20.0437   -7.7305 C   0  0  0  0  0  0  0  0  0  0  0  0
   26.0895  -19.4398   -6.5382 N   0  0  0  0  0  0  0  0  0  0  0  0
   27.2775  -19.6797   -5.9614 C   0  0  0  0  0  0  0  0  0  0  0  0
   27.8502  -19.2897   -4.7554 C   0  0  0  0  0  0  0  0  0  0  0  0
   29.1358  -19.7125   -4.4324 C   0  0  0  0  0  0  0  0  0  0  0  0
   29.8469  -20.5066   -5.2833 C   0  0  0  0  0  0  0  0  0  0  0  0
   29.2610  -20.8826   -6.4755 C   0  0  0  0  0  0  0  0  0  0  0  0
   27.9747  -20.4755   -6.8275 C   0  0  0  0  0  0  0  0  0  0  0  0
   25.8814  -20.0585  -10.1915 C   0  0  0  0  0  0  0  0  0  0  0  0
   24.5879  -20.0207   -9.6854 O   0  0  0  0  0  0  0  0  0  0  0  0
   26.4334  -19.0046  -10.5846 O   0  0  0  0  0  0  0  0  0  0  0  0
  2  1  1  6
  3  4  1  0
  3  2  1  0
  5  6  1  0
  5  4  1  0
  7  6  1  0
  8  2  1  0
  8 10  1  0
  9  8  2  0
 11 10  1  0
 11 12  1  6
 13 12  1  0
 14 11  1  0
 15 14  2  0
 16 14  1  0
 17 28  1  0
 17 16  1  0
 17 18  1  1
 19 18  1  0
 20 19  2  0
 21 20  1  0
 22 21  1  0
 22 27  2  0
 23 24  2  0
 23 22  1  0
 24 25  1  0
 25 26  2  0
 27 26  1  0
 27 19  1  0
 28 29  1  0
 30 28  2  0
M  END
$$$$
