KCW.pdb
     RDKit          3D

 30 31  0  0  1  0  0  0  0  0999 V2000
   27.7134  -22.1285  -17.3853 N   0  0  0  0  0  0  0  0  0  0  0  0
   28.3213  -22.1983  -16.0607 C   0  0  1  0  0  0  0  0  0  0  0  0
   29.7926  -21.8069  -16.1401 C   0  0  0  0  0  0  0  0  0  0  0  0
   30.6219  -22.8736  -16.7843 C   0  0  0  0  0  0  0  0  0  0  0  0
   30.9166  -24.0527  -15.8935 C   0  0  0  0  0  0  0  0  0  0  0  0
   31.7538  -25.0276  -16.7088 C   0  0  0  0  0  0  0  0  0  0  0  0
   32.1267  -26.1808  -15.9297 N   0  0  0  0  0  0  0  0  0  0  0  0
   27.6861  -21.1781  -15.2032 C   0  0  0  0  0  0  0  0  0  0  0  0
   28.0766  -19.9959  -15.2026 O   0  0  0  0  0  0  0  0  0  0  0  0
   26.6133  -21.5562  -14.3694 N   0  0  0  0  0  0  0  0  0  0  0  0
   25.9936  -20.5742  -13.5427 C   0  0  1  0  0  0  0  0  0  0  0  0
   24.6818  -20.0715  -14.1595 C   0  0  0  0  0  0  0  0  0  0  0  0
   23.5977  -21.5185  -14.3166 S   0  0  0  0  0  0  0  0  0  0  0  0
   25.6630  -21.1575  -12.2288 C   0  0  0  0  0  0  0  0  0  0  0  0
   25.3692  -22.4107  -12.1481 O   0  0  0  0  0  0  0  0  0  0  0  0
   25.6360  -20.4523  -10.9962 N   0  0  0  0  0  0  0  0  0  0  0  0
   25.1803  -21.0817   -9.7670 C   0  0  1  0  0  0  0  0  0  0  0  0
   25.7348  -20.2808   -8.6004 C   0  0  0  0  0  0  0  0  0  0  0  0
   27.1782  -20.4499   -8.4157 C   0  0  0  0  0  0  0  0  0  0  0  0
   28.0358  -21.1115   -9.2510 C   0  0  0  0  0  0  0  0  0  0  0  0
   29.2511  -21.0201   -8.6942 N   0  0  0  0  0  0  0  0  0  0  0  0
   29.2114  -20.3320   -7.5426 C   0  0  0  0  0  0  0  0  0  0  0  0
   30.1794  -19.9718   -6.6108 C   0  0  0  0  0  0  0  0  0  0  0  0
   29.8164  -19.2371   -5.4865 C   0  0  0  0  0  0  0  0  0  0  0  0
   28.5209  -18.8629   -5.2819 C   0  0  0  0  0  0  0  0  0  0  0  0
   27.5751  -19.2303   -6.2182 C   0  0  0  0  0  0  0  0  0  0  0  0
   27.9074  -19.9661   -7.3550 C   0  0  0  0  0  0  0  0  0  0  0  0
   23.7099  -21.1709   -9.6909 C   0  0  0  0  0  0  0  0  0  0  0  0
   23.1324  -21.9504   -8.6960 O   0  0  0  0  0  0  0  0  0  0  0  0
   22.9852  -20.5572  -10.5083 O   0  0  0  0  0  0  0  0  0  0  0  0
  2  1  1  6
  3  4  1  0
  3  2  1  0
  5  6  1  0
  5  4  1  0
  7  6  1  0
  8  2  1  0
  8 10  1  0
  9  8  2  0
 11 10  1  0
 11 12  1  6
 13 12  1  0
 14 11  1  0
 15 14  2  0
 16 14  1  0
 17 28  1  0
 17 16  1  0
 17 18  1  1
 19 18  1  0
 20 19  2  0
 21 20  1  0
 22 21  1  0
 22 27  2  0
 23 24  2  0
 23 22  1  0
 24 25  1  0
 25 26  2  0
 27 26  1  0
 27 19  1  0
 28 29  1  0
 30 28  2  0
M  END
$$$$
