KCW.pdb
     RDKit          3D

 30 31  0  0  1  0  0  0  0  0999 V2000
   35.8680  -28.5853  -17.4949 N   0  0  0  0  0  0  0  0  0  0  0  0
   34.8691  -28.5296  -18.5570 C   0  0  1  0  0  0  0  0  0  0  0  0
   35.5515  -28.3325  -19.9059 C   0  0  0  0  0  0  0  0  0  0  0  0
   34.5608  -28.1704  -21.0163 C   0  0  0  0  0  0  0  0  0  0  0  0
   33.7606  -26.8951  -20.9523 C   0  0  0  0  0  0  0  0  0  0  0  0
   32.7408  -26.9529  -22.0804 C   0  0  0  0  0  0  0  0  0  0  0  0
   31.9526  -25.7484  -22.1398 N   0  0  0  0  0  0  0  0  0  0  0  0
   34.2034  -29.8449  -18.6387 C   0  0  0  0  0  0  0  0  0  0  0  0
   33.2415  -30.0393  -19.4049 O   0  0  0  0  0  0  0  0  0  0  0  0
   34.6722  -30.9009  -17.8299 N   0  0  0  0  0  0  0  0  0  0  0  0
   34.0723  -32.1885  -17.9482 C   0  0  1  0  0  0  0  0  0  0  0  0
   35.0555  -33.3009  -17.5606 C   0  0  0  0  0  0  0  0  0  0  0  0
   36.1419  -33.5512  -18.9927 S   0  0  0  0  0  0  0  0  0  0  0  0
   32.9159  -32.2912  -17.0382 C   0  0  0  0  0  0  0  0  0  0  0  0
   33.0727  -32.0366  -15.7837 O   0  0  0  0  0  0  0  0  0  0  0  0
   31.5964  -32.6544  -17.4185 N   0  0  0  0  0  0  0  0  0  0  0  0
   30.5252  -32.7686  -16.4417 C   0  0  1  0  0  0  0  0  0  0  0  0
   29.2726  -32.1607  -17.0512 C   0  0  0  0  0  0  0  0  0  0  0  0
   28.1083  -32.2223  -16.1642 C   0  0  0  0  0  0  0  0  0  0  0  0
   27.8152  -31.3625  -15.1415 C   0  0  0  0  0  0  0  0  0  0  0  0
   26.6678  -31.7952  -14.6013 N   0  0  0  0  0  0  0  0  0  0  0  0
   26.2135  -32.8907  -15.2297 C   0  0  0  0  0  0  0  0  0  0  0  0
   25.0950  -33.6986  -15.0535 C   0  0  0  0  0  0  0  0  0  0  0  0
   24.8953  -34.7936  -15.8881 C   0  0  0  0  0  0  0  0  0  0  0  0
   25.7828  -35.0895  -16.8807 C   0  0  0  0  0  0  0  0  0  0  0  0
   26.8867  -34.2756  -17.0392 C   0  0  0  0  0  0  0  0  0  0  0  0
   27.1145  -33.1711  -16.2191 C   0  0  0  0  0  0  0  0  0  0  0  0
   30.2845  -34.1643  -16.0295 C   0  0  0  0  0  0  0  0  0  0  0  0
   29.7690  -34.4139  -14.7634 O   0  0  0  0  0  0  0  0  0  0  0  0
   30.5396  -35.1164  -16.8029 O   0  0  0  0  0  0  0  0  0  0  0  0
  2  1  1  1
  3  4  1  0
  3  2  1  0
  5  6  1  0
  5  4  1  0
  7  6  1  0
  8  2  1  0
  8 10  1  0
  9  8  2  0
 11 10  1  0
 11 12  1  1
 13 12  1  0
 14 11  1  0
 15 14  2  0
 16 14  1  0
 17 28  1  0
 17 16  1  0
 17 18  1  6
 19 18  1  0
 20 19  2  0
 21 20  1  0
 22 21  1  0
 22 27  2  0
 23 24  2  0
 23 22  1  0
 24 25  1  0
 25 26  2  0
 27 26  1  0
 27 19  1  0
 28 29  1  0
 30 28  2  0
M  END
$$$$
