KCW.pdb
     RDKit          3D

 30 31  0  0  1  0  0  0  0  0999 V2000
   26.4977  -21.8908  -17.6063 N   0  0  0  0  0  0  0  0  0  0  0  0
   27.4597  -22.4606  -16.6688 C   0  0  1  0  0  0  0  0  0  0  0  0
   28.7878  -22.7141  -17.3730 C   0  0  0  0  0  0  0  0  0  0  0  0
   28.8769  -24.1061  -17.9162 C   0  0  0  0  0  0  0  0  0  0  0  0
   28.7495  -25.1876  -16.8746 C   0  0  0  0  0  0  0  0  0  0  0  0
   29.0093  -26.5130  -17.5758 C   0  0  0  0  0  0  0  0  0  0  0  0
   28.9483  -27.6178  -16.6529 N   0  0  0  0  0  0  0  0  0  0  0  0
   27.7489  -21.4528  -15.6294 C   0  0  0  0  0  0  0  0  0  0  0  0
   28.8622  -20.9007  -15.5523 O   0  0  0  0  0  0  0  0  0  0  0  0
   26.7382  -21.1110  -14.7071 N   0  0  0  0  0  0  0  0  0  0  0  0
   27.0242  -20.1674  -13.6777 C   0  0  1  0  0  0  0  0  0  0  0  0
   26.2518  -18.8586  -13.8888 C   0  0  0  0  0  0  0  0  0  0  0  0
   24.4888  -19.2879  -13.8492 S   0  0  0  0  0  0  0  0  0  0  0  0
   26.6145  -20.7100  -12.3686 C   0  0  0  0  0  0  0  0  0  0  0  0
   25.5691  -21.4616  -12.2937 O   0  0  0  0  0  0  0  0  0  0  0  0
   27.2809  -20.4811  -11.1354 N   0  0  0  0  0  0  0  0  0  0  0  0
   26.6358  -20.7453   -9.8591 C   0  0  1  0  0  0  0  0  0  0  0  0
   27.2510  -19.8164   -8.8253 C   0  0  0  0  0  0  0  0  0  0  0  0
   26.8530  -20.1339   -7.4517 C   0  0  0  0  0  0  0  0  0  0  0  0
   25.6900  -20.7365   -7.0576 C   0  0  0  0  0  0  0  0  0  0  0  0
   25.7445  -20.8256   -5.7217 N   0  0  0  0  0  0  0  0  0  0  0  0
   26.8868  -20.3085   -5.2429 C   0  0  0  0  0  0  0  0  0  0  0  0
   27.4068  -20.1643   -3.9609 C   0  0  0  0  0  0  0  0  0  0  0  0
   28.6523  -19.5701   -3.7834 C   0  0  0  0  0  0  0  0  0  0  0  0
   29.3747  -19.1243   -4.8509 C   0  0  0  0  0  0  0  0  0  0  0  0
   28.8411  -19.2764   -6.1151 C   0  0  0  0  0  0  0  0  0  0  0  0
   27.5960  -19.8678   -6.3256 C   0  0  0  0  0  0  0  0  0  0  0  0
   25.1727  -20.5680   -9.9197 C   0  0  0  0  0  0  0  0  0  0  0  0
   24.3504  -21.5876   -9.4557 O   0  0  0  0  0  0  0  0  0  0  0  0
   24.6707  -19.5174  -10.3825 O   0  0  0  0  0  0  0  0  0  0  0  0
  2  1  1  6
  3  4  1  0
  3  2  1  0
  5  6  1  0
  5  4  1  0
  7  6  1  0
  8  2  1  0
  8 10  1  0
  9  8  2  0
 11 10  1  0
 11 12  1  6
 13 12  1  0
 14 11  1  0
 15 14  2  0
 16 14  1  0
 17 28  1  0
 17 16  1  0
 17 18  1  1
 19 18  1  0
 20 19  2  0
 21 20  1  0
 22 21  1  0
 22 27  2  0
 23 24  2  0
 23 22  1  0
 24 25  1  0
 25 26  2  0
 27 26  1  0
 27 19  1  0
 28 29  1  0
 30 28  2  0
M  END
$$$$
