KCW.pdb
     RDKit          3D

 30 31  0  0  1  0  0  0  0  0999 V2000
   28.3133  -20.7890  -15.0711 N   0  0  0  0  0  0  0  0  0  0  0  0
   27.9346  -20.1196  -13.8312 C   0  0  1  0  0  0  0  0  0  0  0  0
   27.4058  -18.7219  -14.1327 C   0  0  0  0  0  0  0  0  0  0  0  0
   28.2037  -18.0394  -15.1996 C   0  0  0  0  0  0  0  0  0  0  0  0
   27.5199  -17.9768  -16.5410 C   0  0  0  0  0  0  0  0  0  0  0  0
   28.3364  -17.0335  -17.4126 C   0  0  0  0  0  0  0  0  0  0  0  0
   27.8050  -16.9597  -18.7498 N   0  0  0  0  0  0  0  0  0  0  0  0
   26.7996  -20.8520  -13.2352 C   0  0  0  0  0  0  0  0  0  0  0  0
   26.1416  -21.6779  -13.8948 O   0  0  0  0  0  0  0  0  0  0  0  0
   26.4586  -20.6079  -11.8886 N   0  0  0  0  0  0  0  0  0  0  0  0
   25.3502  -21.2962  -11.3146 C   0  0  1  0  0  0  0  0  0  0  0  0
   25.3869  -21.2346   -9.7820 C   0  0  0  0  0  0  0  0  0  0  0  0
   26.0918  -19.6196   -9.3473 S   0  0  0  0  0  0  0  0  0  0  0  0
   24.0878  -20.6675  -11.7469 C   0  0  0  0  0  0  0  0  0  0  0  0
   23.8800  -19.4212  -11.4882 O   0  0  0  0  0  0  0  0  0  0  0  0
   23.0384  -21.3200  -12.4472 N   0  0  0  0  0  0  0  0  0  0  0  0
   21.8598  -20.5988  -12.9004 C   0  0  1  0  0  0  0  0  0  0  0  0
   22.1014  -20.1683  -14.3378 C   0  0  0  0  0  0  0  0  0  0  0  0
   20.9718  -19.4413  -14.9224 C   0  0  0  0  0  0  0  0  0  0  0  0
   20.3913  -18.3042  -14.4316 C   0  0  0  0  0  0  0  0  0  0  0  0
   19.3991  -17.9918  -15.2762 N   0  0  0  0  0  0  0  0  0  0  0  0
   19.3174  -18.8751  -16.2835 C   0  0  0  0  0  0  0  0  0  0  0  0
   18.4788  -18.9908  -17.3872 C   0  0  0  0  0  0  0  0  0  0  0  0
   18.6489  -20.0474  -18.2762 C   0  0  0  0  0  0  0  0  0  0  0  0
   19.6288  -20.9760  -18.0820 C   0  0  0  0  0  0  0  0  0  0  0  0
   20.4505  -20.8437  -16.9805 C   0  0  0  0  0  0  0  0  0  0  0  0
   20.3054  -19.7962  -16.0717 C   0  0  0  0  0  0  0  0  0  0  0  0
   20.6295  -21.4055  -12.7935 C   0  0  0  0  0  0  0  0  0  0  0  0
   19.4365  -20.7748  -12.4622 O   0  0  0  0  0  0  0  0  0  0  0  0
   20.6516  -22.6419  -12.9956 O   0  0  0  0  0  0  0  0  0  0  0  0
  2  1  1  6
  3  4  1  0
  3  2  1  0
  5  6  1  0
  5  4  1  0
  7  6  1  0
  8  2  1  0
  8 10  1  0
  9  8  2  0
 11 10  1  0
 11 12  1  1
 13 12  1  0
 14 11  1  0
 15 14  2  0
 16 14  1  0
 17 28  1  0
 17 16  1  0
 17 18  1  6
 19 18  1  0
 20 19  2  0
 21 20  1  0
 22 21  1  0
 22 27  2  0
 23 24  2  0
 23 22  1  0
 24 25  1  0
 25 26  2  0
 27 26  1  0
 27 19  1  0
 28 29  1  0
 30 28  2  0
M  END
$$$$
