KCW.pdb
     RDKit          3D

 30 31  0  0  1  0  0  0  0  0999 V2000
   30.7675  -24.7491  -16.2043 N   0  0  0  0  0  0  0  0  0  0  0  0
   29.5129  -24.3437  -16.8294 C   0  0  1  0  0  0  0  0  0  0  0  0
   28.4724  -25.4472  -16.6758 C   0  0  0  0  0  0  0  0  0  0  0  0
   28.7817  -26.6323  -17.5364 C   0  0  0  0  0  0  0  0  0  0  0  0
   28.8380  -27.9414  -16.7922 C   0  0  0  0  0  0  0  0  0  0  0  0
   29.2338  -29.0098  -17.8011 C   0  0  0  0  0  0  0  0  0  0  0  0
   29.3408  -30.3058  -17.1808 N   0  0  0  0  0  0  0  0  0  0  0  0
   28.9755  -23.1868  -16.0860 C   0  0  0  0  0  0  0  0  0  0  0  0
   29.3095  -22.9599  -14.9083 O   0  0  0  0  0  0  0  0  0  0  0  0
   28.0652  -22.3227  -16.7292 N   0  0  0  0  0  0  0  0  0  0  0  0
   27.6176  -21.1518  -16.0506 C   0  0  1  0  0  0  0  0  0  0  0  0
   28.0448  -19.8783  -16.7922 C   0  0  0  0  0  0  0  0  0  0  0  0
   27.4707  -18.4796  -15.7884 S   0  0  0  0  0  0  0  0  0  0  0  0
   26.1442  -21.1425  -15.9799 C   0  0  0  0  0  0  0  0  0  0  0  0
   25.4578  -21.4267  -17.0341 O   0  0  0  0  0  0  0  0  0  0  0  0
   25.3756  -20.8424  -14.8238 N   0  0  0  0  0  0  0  0  0  0  0  0
   23.9223  -20.8941  -14.8394 C   0  0  1  0  0  0  0  0  0  0  0  0
   23.4269  -20.4813  -13.4632 C   0  0  0  0  0  0  0  0  0  0  0  0
   21.9763  -20.6128  -13.3062 C   0  0  0  0  0  0  0  0  0  0  0  0
   21.2711  -21.7784  -13.1838 C   0  0  0  0  0  0  0  0  0  0  0  0
   19.9825  -21.4299  -13.0676 N   0  0  0  0  0  0  0  0  0  0  0  0
   19.8302  -20.0971  -13.1101 C   0  0  0  0  0  0  0  0  0  0  0  0
   18.7226  -19.2591  -13.0347 C   0  0  0  0  0  0  0  0  0  0  0  0
   18.8929  -17.8804  -13.1125 C   0  0  0  0  0  0  0  0  0  0  0  0
   20.1339  -17.3348  -13.2627 C   0  0  0  0  0  0  0  0  0  0  0  0
   21.2203  -18.1835  -13.3358 C   0  0  0  0  0  0  0  0  0  0  0  0
   21.0823  -19.5690  -13.2608 C   0  0  0  0  0  0  0  0  0  0  0  0
   23.3389  -20.0350  -15.8870 C   0  0  0  0  0  0  0  0  0  0  0  0
   22.1754  -20.4466  -16.5257 O   0  0  0  0  0  0  0  0  0  0  0  0
   23.8789  -18.9496  -16.2032 O   0  0  0  0  0  0  0  0  0  0  0  0
  2  1  1  1
  3  4  1  0
  3  2  1  0
  5  6  1  0
  5  4  1  0
  7  6  1  0
  8  2  1  0
  8 10  1  0
  9  8  2  0
 11 10  1  0
 11 12  1  6
 13 12  1  0
 14 11  1  0
 15 14  2  0
 16 14  1  0
 17 28  1  0
 17 16  1  0
 17 18  1  1
 19 18  1  0
 20 19  2  0
 21 20  1  0
 22 21  1  0
 22 27  2  0
 23 24  2  0
 23 22  1  0
 24 25  1  0
 25 26  2  0
 27 26  1  0
 27 19  1  0
 28 29  1  0
 30 28  2  0
M  END
$$$$
