KCW.pdb
     RDKit          3D

 30 31  0  0  1  0  0  0  0  0999 V2000
   21.7182  -20.8857  -15.5195 N   0  0  0  0  0  0  0  0  0  0  0  0
   21.9835  -20.0942  -14.3228 C   0  0  1  0  0  0  0  0  0  0  0  0
   20.6840  -19.8366  -13.5683 C   0  0  0  0  0  0  0  0  0  0  0  0
   19.6803  -19.1146  -14.4120 C   0  0  0  0  0  0  0  0  0  0  0  0
   19.4337  -19.7450  -15.7584 C   0  0  0  0  0  0  0  0  0  0  0  0
   18.2946  -18.9734  -16.4087 C   0  0  0  0  0  0  0  0  0  0  0  0
   18.5345  -17.5531  -16.3758 N   0  0  0  0  0  0  0  0  0  0  0  0
   22.8188  -20.8985  -13.4090 C   0  0  0  0  0  0  0  0  0  0  0  0
   22.3302  -21.4712  -12.4173 O   0  0  0  0  0  0  0  0  0  0  0  0
   24.1995  -21.0184  -13.6705 N   0  0  0  0  0  0  0  0  0  0  0  0
   25.0033  -21.8267  -12.8147 C   0  0  1  0  0  0  0  0  0  0  0  0
   26.0888  -22.5694  -13.6048 C   0  0  0  0  0  0  0  0  0  0  0  0
   25.2506  -23.9062  -14.5016 S   0  0  0  0  0  0  0  0  0  0  0  0
   25.6892  -20.9804  -11.8201 C   0  0  0  0  0  0  0  0  0  0  0  0
   25.9862  -19.7622  -12.1223 O   0  0  0  0  0  0  0  0  0  0  0  0
   26.0686  -21.3860  -10.5129 N   0  0  0  0  0  0  0  0  0  0  0  0
   26.9061  -20.5499   -9.6677 C   0  0  1  0  0  0  0  0  0  0  0  0
   26.4753  -20.7657   -8.2262 C   0  0  0  0  0  0  0  0  0  0  0  0
   27.1443  -19.8682   -7.2812 C   0  0  0  0  0  0  0  0  0  0  0  0
   27.0089  -18.5089   -7.2112 C   0  0  0  0  0  0  0  0  0  0  0  0
   27.8006  -18.1014   -6.2098 N   0  0  0  0  0  0  0  0  0  0  0  0
   28.4358  -19.1354   -5.6363 C   0  0  0  0  0  0  0  0  0  0  0  0
   29.3427  -19.2363   -4.5866 C   0  0  0  0  0  0  0  0  0  0  0  0
   29.8360  -20.4837   -4.2172 C   0  0  0  0  0  0  0  0  0  0  0  0
   29.4431  -21.6144   -4.8711 C   0  0  0  0  0  0  0  0  0  0  0  0
   28.5425  -21.4931   -5.9104 C   0  0  0  0  0  0  0  0  0  0  0  0
   28.0301  -20.2575   -6.3040 C   0  0  0  0  0  0  0  0  0  0  0  0
   28.3428  -20.8391   -9.8353 C   0  0  0  0  0  0  0  0  0  0  0  0
   29.2560  -19.7960   -9.7398 O   0  0  0  0  0  0  0  0  0  0  0  0
   28.7420  -22.0049  -10.0620 O   0  0  0  0  0  0  0  0  0  0  0  0
  2  1  1  6
  3  4  1  0
  3  2  1  0
  5  6  1  0
  5  4  1  0
  7  6  1  0
  8  2  1  0
  8 10  1  0
  9  8  2  0
 11 10  1  0
 11 12  1  6
 13 12  1  0
 14 11  1  0
 15 14  2  0
 16 14  1  0
 17 28  1  0
 17 16  1  0
 17 18  1  1
 19 18  1  0
 20 19  2  0
 21 20  1  0
 22 21  1  0
 22 27  2  0
 23 24  2  0
 23 22  1  0
 24 25  1  0
 25 26  2  0
 27 26  1  0
 27 19  1  0
 28 29  1  0
 30 28  2  0
M  END
$$$$
