QKC.pdb
     RDKit          3D

 25 24  0  0  1  0  0  0  0  0999 V2000
   12.8624  -14.4872   18.6670 N   0  0  0  0  0  0  0  0  0  0  0  0
   12.2535  -14.0111   19.8465 C   0  0  0  0  0  0  0  0  0  0  0  0
   12.9249  -13.8770   20.9012 O   0  0  0  0  0  0  0  0  0  0  0  0
   10.8143  -13.6526   19.8935 C   0  0  0  0  0  0  0  0  0  0  0  0
    9.9430  -14.7778   19.3805 C   0  0  0  0  0  0  0  0  0  0  0  0
    8.4963  -14.3245   19.4160 C   0  0  2  0  0  0  0  0  0  0  0  0
    8.3738  -12.9618   18.9354 N   0  0  0  0  0  0  0  0  0  0  0  0
    7.9700  -14.3929   20.8322 C   0  0  0  0  0  0  0  0  0  0  0  0
    7.7016  -13.3413   21.4410 O   0  0  0  0  0  0  0  0  0  0  0  0
    7.7773  -15.6339   21.4777 N   0  0  0  0  0  0  0  0  0  0  0  0
    7.0461  -15.7575   22.7732 C   0  0  1  0  0  0  0  0  0  0  0  0
    6.4607  -17.1208   22.8666 C   0  0  0  0  0  0  0  0  0  0  0  0
    5.3162  -17.3812   21.9758 C   0  0  0  0  0  0  0  0  0  0  0  0
    4.8321  -18.8088   21.9560 C   0  0  0  0  0  0  0  0  0  0  0  0
    3.7027  -18.9814   20.9401 C   0  0  0  0  0  0  0  0  0  0  0  0
    3.3385  -20.4060   20.8917 N   0  0  0  0  0  0  0  0  0  0  0  0
    7.9748  -15.3444   23.8240 C   0  0  0  0  0  0  0  0  0  0  0  0
    9.1930  -15.7399   23.6773 O   0  0  0  0  0  0  0  0  0  0  0  0
    7.6723  -14.5692   24.9555 N   0  0  0  0  0  0  0  0  0  0  0  0
    8.7280  -14.2926   25.9257 C   0  0  1  0  0  0  0  0  0  0  0  0
    8.4603  -12.9898   26.6442 C   0  0  0  0  0  0  0  0  0  0  0  0
    6.9850  -12.2291   25.9623 S   0  0  0  0  0  0  0  0  0  0  0  0
    8.8210  -15.4262   26.8574 C   0  0  0  0  0  0  0  0  0  0  0  0
    9.8179  -15.4779   27.8125 O   0  0  0  0  0  0  0  0  0  0  0  0
    8.0164  -16.4030   26.8467 O   0  0  0  0  0  0  0  0  0  0  0  0
  2  1  1  0
  2  4  1  0
  3  2  2  0
  5  4  1  0
  6  5  1  0
  6  7  1  1
  8  6  1  0
  8 10  1  0
  9  8  2  0
 10 11  1  0
 11 12  1  1
 12 13  1  0
 13 14  1  0
 14 15  1  0
 15 16  1  0
 17 18  2  0
 17 11  1  0
 19 17  1  0
 20 19  1  0
 20 23  1  0
 20 21  1  1
 22 21  1  0
 23 24  1  0
 25 23  2  0
M  END
$$$$
