QKC.pdb
     RDKit          3D

 25 24  0  0  1  0  0  0  0  0999 V2000
    2.1793  -24.3042   26.8063 N   0  0  0  0  0  0  0  0  0  0  0  0
    1.6204  -23.6186   25.7080 C   0  0  0  0  0  0  0  0  0  0  0  0
    0.4552  -23.1507   25.7743 O   0  0  0  0  0  0  0  0  0  0  0  0
    2.3726  -23.4223   24.4440 C   0  0  0  0  0  0  0  0  0  0  0  0
    1.6347  -22.5058   23.4933 C   0  0  0  0  0  0  0  0  0  0  0  0
    2.4266  -22.4069   22.2037 C   0  0  2  0  0  0  0  0  0  0  0  0
    2.7075  -23.7264   21.6719 N   0  0  0  0  0  0  0  0  0  0  0  0
    3.7355  -21.6926   22.4569 C   0  0  0  0  0  0  0  0  0  0  0  0
    4.7083  -22.3287   22.9014 O   0  0  0  0  0  0  0  0  0  0  0  0
    3.8730  -20.3117   22.1966 N   0  0  0  0  0  0  0  0  0  0  0  0
    5.1815  -19.6022   22.3090 C   0  0  1  0  0  0  0  0  0  0  0  0
    5.0618  -18.2679   21.6647 C   0  0  0  0  0  0  0  0  0  0  0  0
    6.3118  -17.4928   21.5759 C   0  0  0  0  0  0  0  0  0  0  0  0
    7.3426  -18.0467   20.6255 C   0  0  0  0  0  0  0  0  0  0  0  0
    8.5988  -17.1751   20.6243 C   0  0  0  0  0  0  0  0  0  0  0  0
    9.5635  -17.7566   19.6779 N   0  0  0  0  0  0  0  0  0  0  0  0
    5.5647  -19.6428   23.7193 C   0  0  0  0  0  0  0  0  0  0  0  0
    4.6764  -19.2151   24.5499 O   0  0  0  0  0  0  0  0  0  0  0  0
    6.7846  -20.0980   24.2458 N   0  0  0  0  0  0  0  0  0  0  0  0
    7.1012  -19.8150   25.6429 C   0  0  1  0  0  0  0  0  0  0  0  0
    6.9698  -21.0664   26.4807 C   0  0  0  0  0  0  0  0  0  0  0  0
    7.8789  -22.4015   25.6988 S   0  0  0  0  0  0  0  0  0  0  0  0
    8.4544  -19.2446   25.7136 C   0  0  0  0  0  0  0  0  0  0  0  0
    9.0211  -18.9148   26.9297 O   0  0  0  0  0  0  0  0  0  0  0  0
    9.1703  -19.0238   24.6937 O   0  0  0  0  0  0  0  0  0  0  0  0
  2  1  1  0
  2  4  1  0
  3  2  2  0
  5  4  1  0
  6  5  1  0
  6  7  1  1
  8  6  1  0
  8 10  1  0
  9  8  2  0
 10 11  1  0
 11 12  1  1
 12 13  1  0
 13 14  1  0
 14 15  1  0
 15 16  1  0
 17 18  2  0
 17 11  1  0
 19 17  1  0
 20 19  1  0
 20 23  1  0
 20 21  1  1
 22 21  1  0
 23 24  1  0
 25 23  2  0
M  END
$$$$
