QKC.pdb
     RDKit          3D

 25 24  0  0  1  0  0  0  0  0999 V2000
   11.6369  -15.3431   18.4626 N   0  0  0  0  0  0  0  0  0  0  0  0
   11.4056  -14.1333   19.1493 C   0  0  0  0  0  0  0  0  0  0  0  0
   12.2083  -13.7381   20.0328 O   0  0  0  0  0  0  0  0  0  0  0  0
   10.2215  -13.2859   18.8630 C   0  0  0  0  0  0  0  0  0  0  0  0
    9.2464  -13.2824   20.0195 C   0  0  0  0  0  0  0  0  0  0  0  0
    8.3070  -14.4628   19.8642 C   0  0  2  0  0  0  0  0  0  0  0  0
    7.2695  -14.1685   18.8947 N   0  0  0  0  0  0  0  0  0  0  0  0
    7.6586  -14.7829   21.1926 C   0  0  0  0  0  0  0  0  0  0  0  0
    6.5914  -14.2256   21.5072 O   0  0  0  0  0  0  0  0  0  0  0  0
    8.2456  -15.7065   22.0849 N   0  0  0  0  0  0  0  0  0  0  0  0
    7.6034  -16.0907   23.3765 C   0  0  1  0  0  0  0  0  0  0  0  0
    7.6062  -17.5728   23.4926 C   0  0  0  0  0  0  0  0  0  0  0  0
    7.0879  -18.1097   24.7631 C   0  0  0  0  0  0  0  0  0  0  0  0
    7.0683  -19.6139   24.8619 C   0  0  0  0  0  0  0  0  0  0  0  0
    6.3367  -20.0618   26.1275 C   0  0  0  0  0  0  0  0  0  0  0  0
    6.5340  -21.5111   26.2867 N   0  0  0  0  0  0  0  0  0  0  0  0
    8.2749  -15.3266   24.4264 C   0  0  0  0  0  0  0  0  0  0  0  0
    9.5634  -15.3433   24.3895 O   0  0  0  0  0  0  0  0  0  0  0  0
    7.6612  -14.5868   25.4505 N   0  0  0  0  0  0  0  0  0  0  0  0
    8.5002  -13.8389   26.3826 C   0  0  1  0  0  0  0  0  0  0  0  0
    7.7780  -12.6050   26.8737 C   0  0  0  0  0  0  0  0  0  0  0  0
    7.0497  -11.7484   25.4752 S   0  0  0  0  0  0  0  0  0  0  0  0
    8.8853  -14.7282   27.4883 C   0  0  0  0  0  0  0  0  0  0  0  0
    8.4557  -16.0408   27.5238 O   0  0  0  0  0  0  0  0  0  0  0  0
    9.6156  -14.3607   28.4543 O   0  0  0  0  0  0  0  0  0  0  0  0
  2  1  1  0
  2  4  1  0
  3  2  2  0
  5  4  1  0
  6  5  1  0
  6  7  1  6
  8  6  1  0
  8 10  1  0
  9  8  2  0
 10 11  1  0
 11 12  1  1
 12 13  1  0
 13 14  1  0
 14 15  1  0
 15 16  1  0
 17 18  2  0
 17 11  1  0
 19 17  1  0
 20 19  1  0
 20 23  1  0
 20 21  1  1
 22 21  1  0
 23 24  1  0
 25 23  2  0
M  END
$$$$
