QKC.pdb
     RDKit          3D

 25 24  0  0  1  0  0  0  0  0999 V2000
    7.6749  -11.8689   19.2716 N   0  0  0  0  0  0  0  0  0  0  0  0
    8.4254  -13.0582   19.1664 C   0  0  0  0  0  0  0  0  0  0  0  0
    9.6450  -13.0178   18.8628 O   0  0  0  0  0  0  0  0  0  0  0  0
    7.8171  -14.3902   19.4061 C   0  0  0  0  0  0  0  0  0  0  0  0
    7.3966  -14.5590   20.8495 C   0  0  0  0  0  0  0  0  0  0  0  0
    6.8450  -15.9597   21.0324 C   0  0  2  0  0  0  0  0  0  0  0  0
    5.4681  -16.0314   20.5834 N   0  0  0  0  0  0  0  0  0  0  0  0
    6.9045  -16.3498   22.4924 C   0  0  0  0  0  0  0  0  0  0  0  0
    6.0730  -15.8795   23.2899 O   0  0  0  0  0  0  0  0  0  0  0  0
    7.8908  -17.2415   22.9677 N   0  0  0  0  0  0  0  0  0  0  0  0
    7.9795  -17.6467   24.4016 C   0  0  1  0  0  0  0  0  0  0  0  0
    8.3008  -19.0964   24.4725 C   0  0  0  0  0  0  0  0  0  0  0  0
    7.2727  -19.9432   25.1027 C   0  0  0  0  0  0  0  0  0  0  0  0
    7.6554  -21.3906   25.2794 C   0  0  0  0  0  0  0  0  0  0  0  0
    6.5362  -22.1630   25.9783 C   0  0  0  0  0  0  0  0  0  0  0  0
    7.0104  -23.5319   26.2352 N   0  0  0  0  0  0  0  0  0  0  0  0
    8.9021  -16.7149   25.0480 C   0  0  0  0  0  0  0  0  0  0  0  0
    9.3282  -15.7497   24.3073 O   0  0  0  0  0  0  0  0  0  0  0  0
    9.3574  -16.7683   26.3756 N   0  0  0  0  0  0  0  0  0  0  0  0
    9.8885  -15.5549   26.9902 C   0  0  1  0  0  0  0  0  0  0  0  0
    8.8941  -14.4222   26.8740 C   0  0  0  0  0  0  0  0  0  0  0  0
    9.5481  -12.9717   27.7036 S   0  0  0  0  0  0  0  0  0  0  0  0
   10.2303  -15.8461   28.3902 C   0  0  0  0  0  0  0  0  0  0  0  0
   11.2281  -15.1422   29.0367 O   0  0  0  0  0  0  0  0  0  0  0  0
    9.6494  -16.7360   29.0773 O   0  0  0  0  0  0  0  0  0  0  0  0
  2  1  1  0
  2  4  1  0
  3  2  2  0
  5  4  1  0
  6  5  1  0
  6  7  1  1
  8  6  1  0
  8 10  1  0
  9  8  2  0
 10 11  1  0
 11 12  1  6
 12 13  1  0
 13 14  1  0
 14 15  1  0
 15 16  1  0
 17 18  2  0
 17 11  1  0
 19 17  1  0
 20 19  1  0
 20 23  1  0
 20 21  1  1
 22 21  1  0
 23 24  1  0
 25 23  2  0
M  END
$$$$
