QKC.pdb
     RDKit          3D

 25 24  0  0  1  0  0  0  0  0999 V2000
   10.2610  -26.4339   12.1707 N   0  0  0  0  0  0  0  0  0  0  0  0
   11.0610  -27.5012   12.6286 C   0  0  0  0  0  0  0  0  0  0  0  0
   11.7658  -28.1610   11.8229 O   0  0  0  0  0  0  0  0  0  0  0  0
   11.1051  -27.8865   14.0609 C   0  0  0  0  0  0  0  0  0  0  0  0
   10.1593  -27.0485   14.8925 C   0  0  0  0  0  0  0  0  0  0  0  0
   10.7972  -26.7971   16.2452 C   0  0  2  0  0  0  0  0  0  0  0  0
    9.8919  -27.1670   17.3159 N   0  0  0  0  0  0  0  0  0  0  0  0
   11.1476  -25.3325   16.3849 C   0  0  0  0  0  0  0  0  0  0  0  0
   12.2302  -24.9128   15.9372 O   0  0  0  0  0  0  0  0  0  0  0  0
   10.2643  -24.4300   17.0167 N   0  0  0  0  0  0  0  0  0  0  0  0
   10.5612  -22.9722   17.1387 C   0  0  1  0  0  0  0  0  0  0  0  0
    9.3426  -22.2016   16.7766 C   0  0  0  0  0  0  0  0  0  0  0  0
    9.3465  -21.6066   15.4286 C   0  0  0  0  0  0  0  0  0  0  0  0
    8.0899  -20.8629   15.0534 C   0  0  0  0  0  0  0  0  0  0  0  0
    8.2024  -20.2930   13.6392 C   0  0  0  0  0  0  0  0  0  0  0  0
    6.9931  -19.5020   13.3623 N   0  0  0  0  0  0  0  0  0  0  0  0
   11.1236  -22.7654   18.4721 C   0  0  0  0  0  0  0  0  0  0  0  0
   11.0946  -23.7902   19.2536 O   0  0  0  0  0  0  0  0  0  0  0  0
   11.6852  -21.5792   18.9724 N   0  0  0  0  0  0  0  0  0  0  0  0
   12.5588  -21.6483   20.1405 C   0  0  1  0  0  0  0  0  0  0  0  0
   13.6854  -22.6279   19.9031 C   0  0  0  0  0  0  0  0  0  0  0  0
   14.7793  -22.6293   21.3256 S   0  0  0  0  0  0  0  0  0  0  0  0
   13.0572  -20.2973   20.4372 C   0  0  0  0  0  0  0  0  0  0  0  0
   13.2149  -19.8715   21.7421 O   0  0  0  0  0  0  0  0  0  0  0  0
   13.3663  -19.4578   19.5421 O   0  0  0  0  0  0  0  0  0  0  0  0
  2  1  1  0
  2  4  1  0
  3  2  2  0
  5  4  1  0
  6  5  1  0
  6  7  1  1
  8  6  1  0
  8 10  1  0
  9  8  2  0
 10 11  1  0
 11 12  1  1
 12 13  1  0
 13 14  1  0
 14 15  1  0
 15 16  1  0
 17 18  2  0
 17 11  1  0
 19 17  1  0
 20 19  1  0
 20 23  1  0
 20 21  1  6
 22 21  1  0
 23 24  1  0
 25 23  2  0
M  END
$$$$
