QKC.pdb
     RDKit          3D

 25 24  0  0  1  0  0  0  0  0999 V2000
    9.2299  -12.3964   19.6234 N   0  0  0  0  0  0  0  0  0  0  0  0
    8.6539  -13.1571   18.5850 C   0  0  0  0  0  0  0  0  0  0  0  0
    9.2861  -13.3601   17.5171 O   0  0  0  0  0  0  0  0  0  0  0  0
    7.2958  -13.7427   18.7057 C   0  0  0  0  0  0  0  0  0  0  0  0
    6.8516  -13.8264   20.1493 C   0  0  0  0  0  0  0  0  0  0  0  0
    7.8494  -14.6743   20.9144 C   0  0  2  0  0  0  0  0  0  0  0  0
    8.0788  -15.9347   20.2350 N   0  0  0  0  0  0  0  0  0  0  0  0
    7.3258  -14.9563   22.3050 C   0  0  0  0  0  0  0  0  0  0  0  0
    6.6974  -14.0738   22.9172 O   0  0  0  0  0  0  0  0  0  0  0  0
    7.5385  -16.2082   22.9226 N   0  0  0  0  0  0  0  0  0  0  0  0
    7.2362  -16.4514   24.3640 C   0  0  1  0  0  0  0  0  0  0  0  0
    7.4240  -17.8966   24.6573 C   0  0  0  0  0  0  0  0  0  0  0  0
    7.3042  -18.2759   26.0761 C   0  0  0  0  0  0  0  0  0  0  0  0
    7.5845  -19.7263   26.3769 C   0  0  0  0  0  0  0  0  0  0  0  0
    7.4434  -20.0037   27.8739 C   0  0  0  0  0  0  0  0  0  0  0  0
    7.5211  -21.4579   28.0835 N   0  0  0  0  0  0  0  0  0  0  0  0
    8.0325  -15.4944   25.1303 C   0  0  0  0  0  0  0  0  0  0  0  0
    9.2865  -15.4505   24.8344 O   0  0  0  0  0  0  0  0  0  0  0  0
    7.5693  -14.6319   26.1374 N   0  0  0  0  0  0  0  0  0  0  0  0
    8.5257  -13.7666   26.8222 C   0  0  1  0  0  0  0  0  0  0  0  0
    7.8425  -12.5168   27.3285 C   0  0  0  0  0  0  0  0  0  0  0  0
    6.3657  -12.2129   26.3555 S   0  0  0  0  0  0  0  0  0  0  0  0
    9.1562  -14.5287   27.9101 C   0  0  0  0  0  0  0  0  0  0  0  0
   10.1717  -13.9754   28.6660 O   0  0  0  0  0  0  0  0  0  0  0  0
    8.8200  -15.7093   28.2178 O   0  0  0  0  0  0  0  0  0  0  0  0
  2  1  1  0
  2  4  1  0
  3  2  2  0
  5  4  1  0
  6  5  1  0
  6  7  1  6
  8  6  1  0
  8 10  1  0
  9  8  2  0
 10 11  1  0
 11 12  1  1
 12 13  1  0
 13 14  1  0
 14 15  1  0
 15 16  1  0
 17 18  2  0
 17 11  1  0
 19 17  1  0
 20 19  1  0
 20 23  1  0
 20 21  1  1
 22 21  1  0
 23 24  1  0
 25 23  2  0
M  END
$$$$
