QKC.pdb
     RDKit          3D

 25 24  0  0  1  0  0  0  0  0999 V2000
   12.0743  -20.9358   23.3242 N   0  0  0  0  0  0  0  0  0  0  0  0
   11.1962  -21.2440   22.2647 C   0  0  0  0  0  0  0  0  0  0  0  0
   10.8449  -22.4327   22.0529 O   0  0  0  0  0  0  0  0  0  0  0  0
   10.6562  -20.1937   21.3662 C   0  0  0  0  0  0  0  0  0  0  0  0
   11.0644  -18.8093   21.8193 C   0  0  0  0  0  0  0  0  0  0  0  0
    9.8577  -17.8952   21.7299 C   0  0  2  0  0  0  0  0  0  0  0  0
    9.7250  -17.3503   20.3926 N   0  0  0  0  0  0  0  0  0  0  0  0
   10.0029  -16.7535   22.7112 C   0  0  0  0  0  0  0  0  0  0  0  0
   11.0584  -16.0950   22.7380 O   0  0  0  0  0  0  0  0  0  0  0  0
    8.9577  -16.4209   23.6004 N   0  0  0  0  0  0  0  0  0  0  0  0
    9.0627  -15.2941   24.5737 C   0  0  1  0  0  0  0  0  0  0  0  0
    7.7212  -14.6752   24.7392 C   0  0  0  0  0  0  0  0  0  0  0  0
    7.6553  -13.5501   25.6884 C   0  0  0  0  0  0  0  0  0  0  0  0
    6.2995  -12.9048   25.8233 C   0  0  0  0  0  0  0  0  0  0  0  0
    6.3505  -11.7456   26.8189 C   0  0  0  0  0  0  0  0  0  0  0  0
    4.9858  -11.2230   26.9897 N   0  0  0  0  0  0  0  0  0  0  0  0
    9.7164  -15.8265   25.7680 C   0  0  0  0  0  0  0  0  0  0  0  0
    9.1790  -16.8844   26.2719 O   0  0  0  0  0  0  0  0  0  0  0  0
   10.8551  -15.3066   26.4050 N   0  0  0  0  0  0  0  0  0  0  0  0
   11.1321  -15.6947   27.7853 C   0  0  1  0  0  0  0  0  0  0  0  0
   10.0484  -15.1846   28.7075 C   0  0  0  0  0  0  0  0  0  0  0  0
   10.1381  -13.3945   28.7946 S   0  0  0  0  0  0  0  0  0  0  0  0
   11.2637  -17.1577   27.8464 C   0  0  0  0  0  0  0  0  0  0  0  0
   11.6460  -17.7860   29.0160 O   0  0  0  0  0  0  0  0  0  0  0  0
   11.0418  -17.9178   26.8593 O   0  0  0  0  0  0  0  0  0  0  0  0
  2  1  1  0
  2  4  1  0
  3  2  2  0
  5  4  1  0
  6  5  1  0
  6  7  1  6
  8  6  1  0
  8 10  1  0
  9  8  2  0
 10 11  1  0
 11 12  1  1
 12 13  1  0
 13 14  1  0
 14 15  1  0
 15 16  1  0
 17 18  2  0
 17 11  1  0
 19 17  1  0
 20 19  1  0
 20 23  1  0
 20 21  1  1
 22 21  1  0
 23 24  1  0
 25 23  2  0
M  END
$$$$
