QKC.pdb
     RDKit          3D

 25 24  0  0  1  0  0  0  0  0999 V2000
    9.4940  -12.5017   19.0092 N   0  0  0  0  0  0  0  0  0  0  0  0
    8.3634  -12.9965   18.3269 C   0  0  0  0  0  0  0  0  0  0  0  0
    8.3301  -13.0042   17.0699 O   0  0  0  0  0  0  0  0  0  0  0  0
    7.1806  -13.5222   19.0524 C   0  0  0  0  0  0  0  0  0  0  0  0
    7.3494  -13.4059   20.5512 C   0  0  0  0  0  0  0  0  0  0  0  0
    8.3766  -14.4260   21.0032 C   0  0  2  0  0  0  0  0  0  0  0  0
    8.3825  -15.5747   20.1183 N   0  0  0  0  0  0  0  0  0  0  0  0
    8.0572  -14.8910   22.4065 C   0  0  0  0  0  0  0  0  0  0  0  0
    7.6235  -14.0766   23.2415 O   0  0  0  0  0  0  0  0  0  0  0  0
    8.2434  -16.2381   22.7867 N   0  0  0  0  0  0  0  0  0  0  0  0
    7.9660  -16.7251   24.1702 C   0  0  1  0  0  0  0  0  0  0  0  0
    7.7694  -18.1982   24.1309 C   0  0  0  0  0  0  0  0  0  0  0  0
    6.4339  -18.6478   23.7002 C   0  0  0  0  0  0  0  0  0  0  0  0
    6.2453  -20.1428   23.6553 C   0  0  0  0  0  0  0  0  0  0  0  0
    4.8556  -20.4955   23.1243 C   0  0  0  0  0  0  0  0  0  0  0  0
    4.7314  -21.9611   23.0928 N   0  0  0  0  0  0  0  0  0  0  0  0
    9.0336  -16.2057   25.0232 C   0  0  0  0  0  0  0  0  0  0  0  0
    9.7572  -15.2736   24.5041 O   0  0  0  0  0  0  0  0  0  0  0  0
    9.3381  -16.6155   26.3317 N   0  0  0  0  0  0  0  0  0  0  0  0
    9.9381  -15.6538   27.2522 C   0  0  1  0  0  0  0  0  0  0  0  0
    9.0919  -14.4042   27.3398 C   0  0  0  0  0  0  0  0  0  0  0  0
    9.8002  -13.2928   28.5577 S   0  0  0  0  0  0  0  0  0  0  0  0
   10.1065  -16.2977   28.5632 C   0  0  0  0  0  0  0  0  0  0  0  0
   11.1765  -15.9782   29.3768 O   0  0  0  0  0  0  0  0  0  0  0  0
    9.3050  -17.1634   29.0210 O   0  0  0  0  0  0  0  0  0  0  0  0
  2  1  1  0
  2  4  1  0
  3  2  2  0
  5  4  1  0
  6  5  1  0
  6  7  1  6
  8  6  1  0
  8 10  1  0
  9  8  2  0
 10 11  1  0
 11 12  1  6
 12 13  1  0
 13 14  1  0
 14 15  1  0
 15 16  1  0
 17 18  2  0
 17 11  1  0
 19 17  1  0
 20 19  1  0
 20 23  1  0
 20 21  1  1
 22 21  1  0
 23 24  1  0
 25 23  2  0
M  END
$$$$
