SEC.pdb
     RDKit          3D

 22 21  0  0  1  0  0  0  0  0999 V2000
   29.0607  -18.3994  -19.0489 O   0  0  0  0  0  0  0  0  0  0  0  0
   28.4153  -18.3517  -17.8208 C   0  0  0  0  0  0  0  0  0  0  0  0
   27.1130  -17.6254  -17.8808 C   0  0  2  0  0  0  0  0  0  0  0  0
   27.3065  -16.2476  -18.2132 N   0  0  0  0  0  0  0  0  0  0  0  0
   26.3578  -17.7834  -16.5931 C   0  0  0  0  0  0  0  0  0  0  0  0
   26.6007  -17.0059  -15.6353 O   0  0  0  0  0  0  0  0  0  0  0  0
   25.3856  -18.8161  -16.5007 N   0  0  0  0  0  0  0  0  0  0  0  0
   24.6601  -19.0438  -15.2977 C   0  0  1  0  0  0  0  0  0  0  0  0
   23.2266  -19.4754  -15.5243 C   0  0  0  0  0  0  0  0  0  0  0  0
   22.2478  -18.5621  -14.8356 C   0  0  0  0  0  0  0  0  0  0  0  0
   20.8788  -19.0190  -15.1831 C   0  0  0  0  0  0  0  0  0  0  0  0
   20.1836  -18.3617  -15.9976 O   0  0  0  0  0  0  0  0  0  0  0  0
   25.2891  -20.0436  -14.4047 C   0  0  0  0  0  0  0  0  0  0  0  0
   25.8205  -21.0507  -14.9365 O   0  0  0  0  0  0  0  0  0  0  0  0
   20.3060  -20.1646  -14.6437 O   0  0  0  0  0  0  0  0  0  0  0  0
   25.3354  -19.9471  -12.9909 N   0  0  0  0  0  0  0  0  0  0  0  0
   25.9940  -20.9573  -12.1661 C   0  0  1  0  0  0  0  0  0  0  0  0
   26.4931  -20.3680  -10.8704 C   0  0  0  0  0  0  0  0  0  0  0  0
   25.1735  -20.2165   -9.6426 S   0  0  0  0  0  0  0  0  0  0  0  0
   25.0503  -22.0995  -11.9287 C   0  0  0  0  0  0  0  0  0  0  0  0
   25.4987  -23.3224  -11.4527 O   0  0  0  0  0  0  0  0  0  0  0  0
   23.8165  -21.9890  -12.1533 O   0  0  0  0  0  0  0  0  0  0  0  0
  1  2  1  0
  2  3  1  0
  3  4  1  1
  5  7  1  0
  5  3  1  0
  6  5  2  0
  8 13  1  0
  8  7  1  0
  8  9  1  6
 10 11  1  0
 10  9  1  0
 11 15  1  0
 12 11  2  0
 13 16  1  0
 14 13  2  0
 16 17  1  0
 17 20  1  0
 17 18  1  1
 18 19  1  0
 20 21  1  0
 22 20  2  0
M  END
$$$$
