SEC.pdb
     RDKit          3D

 22 21  0  0  1  0  0  0  0  0999 V2000
   24.0910  -23.1561  -12.7129 O   0  0  0  0  0  0  0  0  0  0  0  0
   25.4092  -22.7215  -12.7387 C   0  0  0  0  0  0  0  0  0  0  0  0
   25.5874  -21.3804  -12.1088 C   0  0  2  0  0  0  0  0  0  0  0  0
   25.2511  -21.4154  -10.7189 N   0  0  0  0  0  0  0  0  0  0  0  0
   24.7941  -20.3395  -12.8443 C   0  0  0  0  0  0  0  0  0  0  0  0
   23.9356  -19.6635  -12.2222 O   0  0  0  0  0  0  0  0  0  0  0  0
   25.0435  -20.1528  -14.2310 N   0  0  0  0  0  0  0  0  0  0  0  0
   24.4224  -19.0996  -14.9593 C   0  0  1  0  0  0  0  0  0  0  0  0
   25.0477  -18.8460  -16.3147 C   0  0  0  0  0  0  0  0  0  0  0  0
   24.4296  -17.6608  -17.0073 C   0  0  0  0  0  0  0  0  0  0  0  0
   25.1709  -17.4379  -18.2740 C   0  0  0  0  0  0  0  0  0  0  0  0
   24.9584  -18.1786  -19.2664 O   0  0  0  0  0  0  0  0  0  0  0  0
   22.9704  -19.2991  -15.1703 C   0  0  0  0  0  0  0  0  0  0  0  0
   22.5789  -20.4483  -15.4957 O   0  0  0  0  0  0  0  0  0  0  0  0
   26.1131  -16.4280  -18.4291 O   0  0  0  0  0  0  0  0  0  0  0  0
   21.9879  -18.2862  -15.0319 N   0  0  0  0  0  0  0  0  0  0  0  0
   20.5579  -18.5841  -15.0607 C   0  0  1  0  0  0  0  0  0  0  0  0
   19.9724  -18.6001  -13.6707 C   0  0  0  0  0  0  0  0  0  0  0  0
   18.2091  -19.0029  -13.6832 S   0  0  0  0  0  0  0  0  0  0  0  0
   19.8601  -17.5930  -15.9451 C   0  0  0  0  0  0  0  0  0  0  0  0
   18.7343  -17.9415  -16.6760 O   0  0  0  0  0  0  0  0  0  0  0  0
   20.2716  -16.4084  -16.0557 O   0  0  0  0  0  0  0  0  0  0  0  0
  1  2  1  0
  2  3  1  0
  3  4  1  1
  5  7  1  0
  5  3  1  0
  6  5  2  0
  8 13  1  0
  8  7  1  0
  8  9  1  6
 10 11  1  0
 10  9  1  0
 11 15  1  0
 12 11  2  0
 13 16  1  0
 14 13  2  0
 16 17  1  0
 17 20  1  0
 17 18  1  1
 18 19  1  0
 20 21  1  0
 22 20  2  0
M  END
$$$$
