SEC.pdb
     RDKit          3D

 22 21  0  0  1  0  0  0  0  0999 V2000
   18.5801  -15.8836  -16.9296 O   0  0  0  0  0  0  0  0  0  0  0  0
   19.0703  -14.8395  -16.1573 C   0  0  0  0  0  0  0  0  0  0  0  0
   18.1966  -13.6304  -16.1997 C   0  0  2  0  0  0  0  0  0  0  0  0
   17.9790  -13.1992  -17.5462 N   0  0  0  0  0  0  0  0  0  0  0  0
   18.7700  -12.5317  -15.3525 C   0  0  0  0  0  0  0  0  0  0  0  0
   18.9761  -12.7385  -14.1295 O   0  0  0  0  0  0  0  0  0  0  0  0
   19.0626  -11.2846  -15.9683 N   0  0  0  0  0  0  0  0  0  0  0  0
   19.5171  -10.1718  -15.2063 C   0  0  1  0  0  0  0  0  0  0  0  0
   20.5575   -9.3321  -15.9169 C   0  0  0  0  0  0  0  0  0  0  0  0
   21.1448   -8.2801  -15.0142 C   0  0  0  0  0  0  0  0  0  0  0  0
   22.1342   -7.5050  -15.8041 C   0  0  0  0  0  0  0  0  0  0  0  0
   22.5962   -6.4279  -15.3515 O   0  0  0  0  0  0  0  0  0  0  0  0
   18.4303   -9.2624  -14.7767 C   0  0  0  0  0  0  0  0  0  0  0  0
   17.5537   -8.9569  -15.6240 O   0  0  0  0  0  0  0  0  0  0  0  0
   22.5915   -7.9145  -17.0510 O   0  0  0  0  0  0  0  0  0  0  0  0
   18.3066   -8.7102  -13.4767 N   0  0  0  0  0  0  0  0  0  0  0  0
   17.1457   -7.9176  -13.0782 C   0  0  1  0  0  0  0  0  0  0  0  0
   16.8569   -8.0691  -11.6055 C   0  0  0  0  0  0  0  0  0  0  0  0
   16.4893   -9.7832  -11.1602 S   0  0  0  0  0  0  0  0  0  0  0  0
   17.3689   -6.4825  -13.4550 C   0  0  0  0  0  0  0  0  0  0  0  0
   18.5342   -6.0719  -14.0848 O   0  0  0  0  0  0  0  0  0  0  0  0
   16.5058   -5.5985  -13.2128 O   0  0  0  0  0  0  0  0  0  0  0  0
  1  2  1  0
  2  3  1  0
  3  4  1  6
  5  7  1  0
  5  3  1  0
  6  5  2  0
  8 13  1  0
  8  7  1  0
  8  9  1  6
 10 11  1  0
 10  9  1  0
 11 15  1  0
 12 11  2  0
 13 16  1  0
 14 13  2  0
 16 17  1  0
 17 20  1  0
 17 18  1  1
 18 19  1  0
 20 21  1  0
 22 20  2  0
M  END
$$$$
