SEC.pdb
     RDKit          3D

 22 21  0  0  1  0  0  0  0  0999 V2000
   16.4527  -11.0505  -10.7492 O   0  0  0  0  0  0  0  0  0  0  0  0
   15.8557  -10.5986   -9.5802 C   0  0  0  0  0  0  0  0  0  0  0  0
   14.7647   -9.6122   -9.8331 C   0  0  2  0  0  0  0  0  0  0  0  0
   13.8162  -10.1233  -10.7741 N   0  0  0  0  0  0  0  0  0  0  0  0
   15.3326   -8.2960  -10.2789 C   0  0  0  0  0  0  0  0  0  0  0  0
   15.2770   -7.9793  -11.4945 O   0  0  0  0  0  0  0  0  0  0  0  0
   15.9188   -7.4460   -9.3022 N   0  0  0  0  0  0  0  0  0  0  0  0
   16.4499   -6.1729   -9.6523 C   0  0  1  0  0  0  0  0  0  0  0  0
   16.1576   -5.0910   -8.6342 C   0  0  0  0  0  0  0  0  0  0  0  0
   16.6373   -3.7402   -9.0942 C   0  0  0  0  0  0  0  0  0  0  0  0
   15.5591   -3.1298   -9.9120 C   0  0  0  0  0  0  0  0  0  0  0  0
   14.3903   -3.0542   -9.4572 O   0  0  0  0  0  0  0  0  0  0  0  0
   17.9126   -6.1823   -9.8828 C   0  0  0  0  0  0  0  0  0  0  0  0
   18.6395   -6.7156   -9.0071 O   0  0  0  0  0  0  0  0  0  0  0  0
   15.7750   -2.6230  -11.1879 O   0  0  0  0  0  0  0  0  0  0  0  0
   18.5538   -5.6323  -11.0215 N   0  0  0  0  0  0  0  0  0  0  0  0
   19.9321   -5.9666  -11.3721 C   0  0  1  0  0  0  0  0  0  0  0  0
   20.0922   -7.4458  -11.6204 C   0  0  0  0  0  0  0  0  0  0  0  0
   21.7724   -7.8672  -12.1408 S   0  0  0  0  0  0  0  0  0  0  0  0
   20.3545   -5.1556  -12.5619 C   0  0  0  0  0  0  0  0  0  0  0  0
   21.6507   -4.6799  -12.6908 O   0  0  0  0  0  0  0  0  0  0  0  0
   19.5469   -4.8774  -13.4867 O   0  0  0  0  0  0  0  0  0  0  0  0
  1  2  1  0
  2  3  1  0
  3  4  1  6
  5  7  1  0
  5  3  1  0
  6  5  2  0
  8 13  1  0
  8  7  1  0
  8  9  1  1
 10 11  1  0
 10  9  1  0
 11 15  1  0
 12 11  2  0
 13 16  1  0
 14 13  2  0
 16 17  1  0
 17 20  1  0
 17 18  1  6
 18 19  1  0
 20 21  1  0
 22 20  2  0
M  END
$$$$
