SEC.pdb
     RDKit          3D

 22 21  0  0  1  0  0  0  0  0999 V2000
   17.1354  -10.8715  -13.8345 O   0  0  0  0  0  0  0  0  0  0  0  0
   16.0652  -10.2389  -14.4522 C   0  0  0  0  0  0  0  0  0  0  0  0
   16.3522   -9.8705  -15.8696 C   0  0  2  0  0  0  0  0  0  0  0  0
   16.6868  -11.0256  -16.6443 N   0  0  0  0  0  0  0  0  0  0  0  0
   17.4289   -8.8267  -15.9387 C   0  0  0  0  0  0  0  0  0  0  0  0
   18.5807   -9.1521  -16.3240 O   0  0  0  0  0  0  0  0  0  0  0  0
   17.1057   -7.4947  -15.5627 N   0  0  0  0  0  0  0  0  0  0  0  0
   18.0384   -6.4325  -15.7271 C   0  0  1  0  0  0  0  0  0  0  0  0
   17.4045   -5.0576  -15.7057 C   0  0  0  0  0  0  0  0  0  0  0  0
   18.3935   -3.9760  -16.0502 C   0  0  0  0  0  0  0  0  0  0  0  0
   17.6823   -2.6744  -15.9888 C   0  0  0  0  0  0  0  0  0  0  0  0
   17.4526   -2.1344  -14.8779 O   0  0  0  0  0  0  0  0  0  0  0  0
   19.1259   -6.4358  -14.7221 C   0  0  0  0  0  0  0  0  0  0  0  0
   18.8146   -6.6536  -13.5240 O   0  0  0  0  0  0  0  0  0  0  0  0
   17.2437   -2.0001  -17.1222 O   0  0  0  0  0  0  0  0  0  0  0  0
   20.4950   -6.2109  -15.0136 N   0  0  0  0  0  0  0  0  0  0  0  0
   21.5311   -6.3004  -13.9874 C   0  0  1  0  0  0  0  0  0  0  0  0
   22.7038   -7.1222  -14.4614 C   0  0  0  0  0  0  0  0  0  0  0  0
   22.2691   -8.8656  -14.6695 S   0  0  0  0  0  0  0  0  0  0  0  0
   21.9505   -4.9183  -13.5807 C   0  0  0  0  0  0  0  0  0  0  0  0
   22.5129   -4.6683  -12.3380 O   0  0  0  0  0  0  0  0  0  0  0  0
   21.8071   -3.9349  -14.3536 O   0  0  0  0  0  0  0  0  0  0  0  0
  1  2  1  0
  2  3  1  0
  3  4  1  6
  5  7  1  0
  5  3  1  0
  6  5  2  0
  8 13  1  0
  8  7  1  0
  8  9  1  1
 10 11  1  0
 10  9  1  0
 11 15  1  0
 12 11  2  0
 13 16  1  0
 14 13  2  0
 16 17  1  0
 17 20  1  0
 17 18  1  6
 18 19  1  0
 20 21  1  0
 22 20  2  0
M  END
$$$$
