SEC.pdb
     RDKit          3D

 22 21  0  0  1  0  0  0  0  0999 V2000
   13.6309   -8.3085  -10.7623 O   0  0  0  0  0  0  0  0  0  0  0  0
   14.9429   -8.1703  -11.1944 C   0  0  0  0  0  0  0  0  0  0  0  0
   15.5731   -9.4747  -11.5528 C   0  0  2  0  0  0  0  0  0  0  0  0
   15.5957  -10.3614  -10.4305 N   0  0  0  0  0  0  0  0  0  0  0  0
   16.9474   -9.2621  -12.1181 C   0  0  0  0  0  0  0  0  0  0  0  0
   17.9252   -9.1435  -11.3364 O   0  0  0  0  0  0  0  0  0  0  0  0
   17.0968   -9.2019  -13.5302 N   0  0  0  0  0  0  0  0  0  0  0  0
   18.3747   -9.0295  -14.1324 C   0  0  1  0  0  0  0  0  0  0  0  0
   18.4213   -9.4409  -15.5888 C   0  0  0  0  0  0  0  0  0  0  0  0
   19.7918   -9.2540  -16.1833 C   0  0  0  0  0  0  0  0  0  0  0  0
   20.2225  -10.5570  -16.7494 C   0  0  0  0  0  0  0  0  0  0  0  0
   19.4084  -11.2622  -17.3963 O   0  0  0  0  0  0  0  0  0  0  0  0
   18.8904   -7.6442  -14.0455 C   0  0  0  0  0  0  0  0  0  0  0  0
   18.0533   -6.7067  -14.0520 O   0  0  0  0  0  0  0  0  0  0  0  0
   21.5114  -11.0552  -16.6006 O   0  0  0  0  0  0  0  0  0  0  0  0
   20.2624   -7.2979  -13.9553 N   0  0  0  0  0  0  0  0  0  0  0  0
   20.7085   -5.9081  -13.8915 C   0  0  1  0  0  0  0  0  0  0  0  0
   21.9519   -5.7688  -13.0489 C   0  0  0  0  0  0  0  0  0  0  0  0
   22.6147   -4.0865  -13.0928 S   0  0  0  0  0  0  0  0  0  0  0  0
   20.9205   -5.3883  -15.2831 C   0  0  0  0  0  0  0  0  0  0  0  0
   20.6029   -4.0823  -15.6245 O   0  0  0  0  0  0  0  0  0  0  0  0
   21.3945   -6.1195  -16.1917 O   0  0  0  0  0  0  0  0  0  0  0  0
  1  2  1  0
  2  3  1  0
  3  4  1  1
  5  7  1  0
  5  3  1  0
  6  5  2  0
  8 13  1  0
  8  7  1  0
  8  9  1  6
 10 11  1  0
 10  9  1  0
 11 15  1  0
 12 11  2  0
 13 16  1  0
 14 13  2  0
 16 17  1  0
 17 20  1  0
 17 18  1  1
 18 19  1  0
 20 21  1  0
 22 20  2  0
M  END
$$$$
