SEC.pdb
     RDKit          3D

 22 21  0  0  1  0  0  0  0  0999 V2000
   12.8687  -13.0256  -13.9444 O   0  0  0  0  0  0  0  0  0  0  0  0
   13.6029  -12.3443  -12.9831 C   0  0  0  0  0  0  0  0  0  0  0  0
   15.0501  -12.2368  -13.3309 C   0  0  2  0  0  0  0  0  0  0  0  0
   15.7293  -13.4738  -13.0970 N   0  0  0  0  0  0  0  0  0  0  0  0
   15.6920  -11.1032  -12.5848 C   0  0  0  0  0  0  0  0  0  0  0  0
   16.2444  -11.3268  -11.4776 O   0  0  0  0  0  0  0  0  0  0  0  0
   15.6526   -9.8048  -13.1615 N   0  0  0  0  0  0  0  0  0  0  0  0
   16.3284   -8.7067  -12.5590 C   0  0  1  0  0  0  0  0  0  0  0  0
   16.7773   -7.6518  -13.5481 C   0  0  0  0  0  0  0  0  0  0  0  0
   17.5492   -6.5454  -12.8800 C   0  0  0  0  0  0  0  0  0  0  0  0
   17.9191   -5.5560  -13.9230 C   0  0  0  0  0  0  0  0  0  0  0  0
   18.5592   -4.5211  -13.6102 O   0  0  0  0  0  0  0  0  0  0  0  0
   15.5360   -8.0242  -11.5108 C   0  0  0  0  0  0  0  0  0  0  0  0
   14.3251   -7.7896  -11.7524 O   0  0  0  0  0  0  0  0  0  0  0  0
   17.5883   -5.7136  -15.2637 O   0  0  0  0  0  0  0  0  0  0  0  0
   16.0449   -7.6152  -10.2522 N   0  0  0  0  0  0  0  0  0  0  0  0
   15.2192   -6.9116   -9.2736 C   0  0  1  0  0  0  0  0  0  0  0  0
   14.9818   -7.7565   -8.0468 C   0  0  0  0  0  0  0  0  0  0  0  0
   13.9087   -6.9266   -6.8503 S   0  0  0  0  0  0  0  0  0  0  0  0
   15.8633   -5.6011   -8.9284 C   0  0  0  0  0  0  0  0  0  0  0  0
   15.1063   -4.4836   -8.6101 O   0  0  0  0  0  0  0  0  0  0  0  0
   17.1152   -5.4684   -8.9151 O   0  0  0  0  0  0  0  0  0  0  0  0
  1  2  1  0
  2  3  1  0
  3  4  1  1
  5  7  1  0
  5  3  1  0
  6  5  2  0
  8 13  1  0
  8  7  1  0
  8  9  1  6
 10 11  1  0
 10  9  1  0
 11 15  1  0
 12 11  2  0
 13 16  1  0
 14 13  2  0
 16 17  1  0
 17 20  1  0
 17 18  1  1
 18 19  1  0
 20 21  1  0
 22 20  2  0
M  END
$$$$
