SEC.pdb
     RDKit          3D

 22 21  0  0  1  0  0  0  0  0999 V2000
   20.2678  -11.0642  -21.0560 O   0  0  0  0  0  0  0  0  0  0  0  0
   19.6809  -10.1849  -20.1563 C   0  0  0  0  0  0  0  0  0  0  0  0
   20.4469  -10.0671  -18.8809 C   0  0  2  0  0  0  0  0  0  0  0  0
   20.5296  -11.3285  -18.2114 N   0  0  0  0  0  0  0  0  0  0  0  0
   19.8484   -9.0102  -17.9986 C   0  0  0  0  0  0  0  0  0  0  0  0
   19.7916   -7.8229  -18.4085 O   0  0  0  0  0  0  0  0  0  0  0  0
   19.3624   -9.3923  -16.7188 N   0  0  0  0  0  0  0  0  0  0  0  0
   18.8886   -8.4252  -15.7883 C   0  0  1  0  0  0  0  0  0  0  0  0
   17.9077   -8.9823  -14.7783 C   0  0  0  0  0  0  0  0  0  0  0  0
   16.6520   -9.4915  -15.4343 C   0  0  0  0  0  0  0  0  0  0  0  0
   15.8430  -10.1770  -14.3954 C   0  0  0  0  0  0  0  0  0  0  0  0
   16.2383  -10.1994  -13.2030 O   0  0  0  0  0  0  0  0  0  0  0  0
   19.9679   -7.7490  -15.0329 C   0  0  0  0  0  0  0  0  0  0  0  0
   20.9765   -8.4295  -14.7179 O   0  0  0  0  0  0  0  0  0  0  0  0
   14.6394  -10.8134  -14.6744 O   0  0  0  0  0  0  0  0  0  0  0  0
   19.9461   -6.3874  -14.6385 N   0  0  0  0  0  0  0  0  0  0  0  0
   21.1065   -5.7363  -14.0349 C   0  0  1  0  0  0  0  0  0  0  0  0
   22.3226   -5.8516  -14.9198 C   0  0  0  0  0  0  0  0  0  0  0  0
   23.6924   -4.8313  -14.3246 S   0  0  0  0  0  0  0  0  0  0  0  0
   20.7738   -4.3046  -13.7332 C   0  0  0  0  0  0  0  0  0  0  0  0
   21.3067   -3.6542  -12.6305 O   0  0  0  0  0  0  0  0  0  0  0  0
   19.9984   -3.6415  -14.4708 O   0  0  0  0  0  0  0  0  0  0  0  0
  1  2  1  0
  2  3  1  0
  3  4  1  1
  5  7  1  0
  5  3  1  0
  6  5  2  0
  8 13  1  0
  8  7  1  0
  8  9  1  1
 10 11  1  0
 10  9  1  0
 11 15  1  0
 12 11  2  0
 13 16  1  0
 14 13  2  0
 16 17  1  0
 17 20  1  0
 17 18  1  6
 18 19  1  0
 20 21  1  0
 22 20  2  0
M  END
$$$$
