LVC.pdb
     RDKit          3D

 22 21  0  0  1  0  0  0  0  0999 V2000
   20.8799  -23.0495  -14.7333 C   0  0  0  0  0  0  0  0  0  0  0  0
   20.5196  -21.5778  -14.7293 C   0  0  2  0  0  0  0  0  0  0  0  0
   20.5471  -21.0848  -16.1806 C   0  0  0  0  0  0  0  0  0  0  0  0
   21.5581  -20.8182  -13.9449 C   0  0  0  0  0  0  0  0  0  0  0  0
   21.6627  -21.2801  -12.5134 C   0  0  2  0  0  0  0  0  0  0  0  0
   20.4607  -20.8820  -11.8125 N   0  0  0  0  0  0  0  0  0  0  0  0
   22.8231  -20.5371  -11.9034 C   0  0  0  0  0  0  0  0  0  0  0  0
   22.8459  -19.2758  -11.8381 O   0  0  0  0  0  0  0  0  0  0  0  0
   24.0081  -20.7688   -8.6231 C   0  0  0  0  0  0  0  0  0  0  0  0
   25.2951  -21.1256   -9.4032 C   0  0  2  0  0  0  0  0  0  0  0  0
   26.4056  -20.4541   -8.6343 C   0  0  0  0  0  0  0  0  0  0  0  0
   25.0925  -20.5342  -10.7752 C   0  0  2  0  0  0  0  0  0  0  0  0
   23.9378  -21.2441  -11.3756 N   0  0  0  0  0  0  0  0  0  0  0  0
   26.2651  -20.6570  -11.6705 C   0  0  0  0  0  0  0  0  0  0  0  0
   27.1626  -21.5093  -11.3366 O   0  0  0  0  0  0  0  0  0  0  0  0
   26.5116  -19.9510  -12.8455 N   0  0  0  0  0  0  0  0  0  0  0  0
   27.3671  -20.3635  -13.9415 C   0  0  1  0  0  0  0  0  0  0  0  0
   26.9918  -21.6664  -14.5563 C   0  0  0  0  0  0  0  0  0  0  0  0
   28.0897  -22.0591  -15.9505 S   0  0  0  0  0  0  0  0  0  0  0  0
   27.3878  -19.3418  -15.0209 C   0  0  0  0  0  0  0  0  0  0  0  0
   28.5085  -19.2174  -15.8376 O   0  0  0  0  0  0  0  0  0  0  0  0
   26.4267  -18.5694  -15.2398 O   0  0  0  0  0  0  0  0  0  0  0  0
  2  3  1  6
  2  1  1  0
  4  5  1  0
  4  2  1  0
  5  7  1  0
  5  6  1  1
  7 13  1  0
  8  7  2  0
 10  9  1  1
 10 12  1  0
 10 11  1  0
 12 13  1  6
 14 15  2  0
 14 12  1  0
 16 14  1  0
 17 16  1  0
 17 20  1  0
 17 18  1  6
 19 18  1  0
 20 21  1  0
 22 20  2  0
M  END
$$$$
