LVC.pdb
     RDKit          3D

 22 21  0  0  1  0  0  0  0  0999 V2000
   19.5138  -20.6703    1.0299 C   0  0  0  0  0  0  0  0  0  0  0  0
   18.7302  -19.4945    0.4829 C   0  0  2  0  0  0  0  0  0  0  0  0
   19.7134  -18.5791   -0.2555 C   0  0  0  0  0  0  0  0  0  0  0  0
   18.1290  -18.7257    1.6311 C   0  0  0  0  0  0  0  0  0  0  0  0
   17.1887  -19.5598    2.4641 C   0  0  2  0  0  0  0  0  0  0  0  0
   16.0378  -19.9012    1.6559 N   0  0  0  0  0  0  0  0  0  0  0  0
   16.7180  -18.6813    3.5943 C   0  0  0  0  0  0  0  0  0  0  0  0
   15.7368  -17.8966    3.4636 O   0  0  0  0  0  0  0  0  0  0  0  0
   15.9576  -19.7477    7.1096 C   0  0  0  0  0  0  0  0  0  0  0  0
   17.0607  -18.6704    7.2326 C   0  0  2  0  0  0  0  0  0  0  0  0
   16.7026  -17.8984    8.4780 C   0  0  0  0  0  0  0  0  0  0  0  0
   16.9376  -17.8453    5.9768 C   0  0  2  0  0  0  0  0  0  0  0  0
   17.3721  -18.7131    4.8561 N   0  0  0  0  0  0  0  0  0  0  0  0
   17.7463  -16.6054    5.9810 C   0  0  0  0  0  0  0  0  0  0  0  0
   19.0185  -16.7433    6.0575 O   0  0  0  0  0  0  0  0  0  0  0  0
   17.2854  -15.2930    5.9094 N   0  0  0  0  0  0  0  0  0  0  0  0
   18.0948  -14.0896    5.8919 C   0  0  1  0  0  0  0  0  0  0  0  0
   17.6435  -13.0606    4.9151 C   0  0  0  0  0  0  0  0  0  0  0  0
   18.7299  -11.6045    4.9677 S   0  0  0  0  0  0  0  0  0  0  0  0
   18.1395  -13.4525    7.2340 C   0  0  0  0  0  0  0  0  0  0  0  0
   17.2986  -13.9069    8.2463 O   0  0  0  0  0  0  0  0  0  0  0  0
   18.9130  -12.5068    7.5085 O   0  0  0  0  0  0  0  0  0  0  0  0
  2  3  1  1
  2  1  1  0
  4  5  1  0
  4  2  1  0
  5  7  1  0
  5  6  1  6
  7 13  1  0
  8  7  2  0
 10  9  1  6
 10 12  1  0
 10 11  1  0
 12 13  1  6
 14 15  2  0
 14 12  1  0
 16 14  1  0
 17 16  1  0
 17 20  1  0
 17 18  1  6
 19 18  1  0
 20 21  1  0
 22 20  2  0
M  END
$$$$
