LVC.pdb
     RDKit          3D

 22 21  0  0  1  0  0  0  0  0999 V2000
   26.7554  -18.3885   -6.2935 C   0  0  0  0  0  0  0  0  0  0  0  0
   27.1023  -19.8616   -6.2200 C   0  0  2  0  0  0  0  0  0  0  0  0
   28.5871  -19.9757   -5.8565 C   0  0  0  0  0  0  0  0  0  0  0  0
   26.8908  -20.4860   -7.5751 C   0  0  0  0  0  0  0  0  0  0  0  0
   25.4791  -20.3237   -8.0794 C   0  0  2  0  0  0  0  0  0  0  0  0
   24.5994  -21.1168   -7.2479 N   0  0  0  0  0  0  0  0  0  0  0  0
   25.4483  -20.9017   -9.4707 C   0  0  0  0  0  0  0  0  0  0  0  0
   25.5488  -22.1436   -9.6783 O   0  0  0  0  0  0  0  0  0  0  0  0
   22.8308  -20.9886  -11.6871 C   0  0  0  0  0  0  0  0  0  0  0  0
   23.8604  -20.1838  -12.5145 C   0  0  2  0  0  0  0  0  0  0  0  0
   23.6352  -20.6267  -13.9386 C   0  0  0  0  0  0  0  0  0  0  0  0
   25.2041  -20.6053  -11.9759 C   0  0  2  0  0  0  0  0  0  0  0  0
   25.3013  -20.0546  -10.6029 N   0  0  0  0  0  0  0  0  0  0  0  0
   26.3563  -20.1348  -12.7774 C   0  0  0  0  0  0  0  0  0  0  0  0
   26.6144  -18.8797  -12.7403 O   0  0  0  0  0  0  0  0  0  0  0  0
   27.2035  -20.9011  -13.5742 N   0  0  0  0  0  0  0  0  0  0  0  0
   28.3853  -20.4397  -14.2770 C   0  0  1  0  0  0  0  0  0  0  0  0
   29.6104  -21.2425  -14.0105 C   0  0  0  0  0  0  0  0  0  0  0  0
   29.9017  -21.3964  -12.2230 S   0  0  0  0  0  0  0  0  0  0  0  0
   28.1643  -20.4234  -15.7467 C   0  0  0  0  0  0  0  0  0  0  0  0
   29.1628  -19.9499  -16.5935 O   0  0  0  0  0  0  0  0  0  0  0  0
   27.1021  -20.8237  -16.2756 O   0  0  0  0  0  0  0  0  0  0  0  0
  2  3  1  6
  2  1  1  0
  4  5  1  0
  4  2  1  0
  5  7  1  0
  5  6  1  1
  7 13  1  0
  8  7  2  0
 10  9  1  1
 10 12  1  0
 10 11  1  0
 12 13  1  1
 14 15  2  0
 14 12  1  0
 16 14  1  0
 17 16  1  0
 17 20  1  0
 17 18  1  6
 19 18  1  0
 20 21  1  0
 22 20  2  0
M  END
$$$$
