LVC.pdb
     RDKit          3D

 22 21  0  0  1  0  0  0  0  0999 V2000
   20.3302  -22.8463  -15.3029 C   0  0  0  0  0  0  0  0  0  0  0  0
   19.6826  -21.4941  -15.0846 C   0  0  2  0  0  0  0  0  0  0  0  0
   19.4327  -20.8667  -16.4608 C   0  0  0  0  0  0  0  0  0  0  0  0
   20.6335  -20.6098  -14.3199 C   0  0  0  0  0  0  0  0  0  0  0  0
   21.1396  -21.2534  -13.0536 C   0  0  2  0  0  0  0  0  0  0  0  0
   20.1580  -21.0499  -12.0099 N   0  0  0  0  0  0  0  0  0  0  0  0
   22.3922  -20.5122  -12.6633 C   0  0  0  0  0  0  0  0  0  0  0  0
   22.3708  -19.2903  -12.3439 O   0  0  0  0  0  0  0  0  0  0  0  0
   24.6741  -20.9664   -9.9171 C   0  0  0  0  0  0  0  0  0  0  0  0
   25.5370  -21.2602  -11.1667 C   0  0  2  0  0  0  0  0  0  0  0  0
   26.9133  -20.7594  -10.8061 C   0  0  0  0  0  0  0  0  0  0  0  0
   24.8963  -20.4643  -12.2754 C   0  0  2  0  0  0  0  0  0  0  0  0
   23.6488  -21.1767  -12.6413 N   0  0  0  0  0  0  0  0  0  0  0  0
   25.7433  -20.3054  -13.4790 C   0  0  0  0  0  0  0  0  0  0  0  0
   26.0408  -21.3728  -14.1235 O   0  0  0  0  0  0  0  0  0  0  0  0
   26.2598  -19.1221  -14.0014 N   0  0  0  0  0  0  0  0  0  0  0  0
   27.1607  -18.9934  -15.1307 C   0  0  1  0  0  0  0  0  0  0  0  0
   27.6348  -17.6047  -15.3824 C   0  0  0  0  0  0  0  0  0  0  0  0
   28.8054  -17.5674  -16.7724 S   0  0  0  0  0  0  0  0  0  0  0  0
   28.3578  -19.8585  -14.9643 C   0  0  0  0  0  0  0  0  0  0  0  0
   28.7141  -20.7516  -15.9712 O   0  0  0  0  0  0  0  0  0  0  0  0
   29.0803  -19.8243  -13.9421 O   0  0  0  0  0  0  0  0  0  0  0  0
  2  3  1  6
  2  1  1  0
  4  5  1  0
  4  2  1  0
  5  7  1  0
  5  6  1  1
  7 13  1  0
  8  7  2  0
 10  9  1  1
 10 12  1  0
 10 11  1  0
 12 13  1  6
 14 15  2  0
 14 12  1  0
 16 14  1  0
 17 16  1  0
 17 20  1  0
 17 18  1  1
 19 18  1  0
 20 21  1  0
 22 20  2  0
M  END
$$$$
