LVC.pdb
     RDKit          3D

 22 21  0  0  1  0  0  0  0  0999 V2000
   20.1972  -20.0042  -18.7073 C   0  0  0  0  0  0  0  0  0  0  0  0
   20.2691  -20.0939  -17.1965 C   0  0  2  0  0  0  0  0  0  0  0  0
   18.8449  -20.3086  -16.6717 C   0  0  0  0  0  0  0  0  0  0  0  0
   20.7904  -18.7901  -16.6495 C   0  0  0  0  0  0  0  0  0  0  0  0
   22.1530  -18.9245  -16.0179 C   0  0  2  0  0  0  0  0  0  0  0  0
   22.0459  -19.8076  -14.8764 N   0  0  0  0  0  0  0  0  0  0  0  0
   22.5315  -17.5563  -15.5122 C   0  0  0  0  0  0  0  0  0  0  0  0
   22.0072  -17.0611  -14.4752 O   0  0  0  0  0  0  0  0  0  0  0  0
   26.0098  -16.3821  -14.9304 C   0  0  0  0  0  0  0  0  0  0  0  0
   25.4055  -15.3456  -15.9065 C   0  0  2  0  0  0  0  0  0  0  0  0
   25.9755  -14.0228  -15.4591 C   0  0  0  0  0  0  0  0  0  0  0  0
   23.9152  -15.4412  -15.6986 C   0  0  2  0  0  0  0  0  0  0  0  0
   23.5033  -16.7757  -16.1957 N   0  0  0  0  0  0  0  0  0  0  0  0
   23.1347  -14.3941  -16.3955 C   0  0  0  0  0  0  0  0  0  0  0  0
   22.8791  -14.5909  -17.6362 O   0  0  0  0  0  0  0  0  0  0  0  0
   22.6381  -13.2088  -15.8584 N   0  0  0  0  0  0  0  0  0  0  0  0
   21.8298  -12.2183  -16.5432 C   0  0  1  0  0  0  0  0  0  0  0  0
   20.4059  -12.6108  -16.7300 C   0  0  0  0  0  0  0  0  0  0  0  0
   19.4472  -11.2359  -17.4328 S   0  0  0  0  0  0  0  0  0  0  0  0
   21.8514  -10.9173  -15.8248 C   0  0  0  0  0  0  0  0  0  0  0  0
   21.4685   -9.7532  -16.4854 O   0  0  0  0  0  0  0  0  0  0  0  0
   22.2033  -10.8114  -14.6276 O   0  0  0  0  0  0  0  0  0  0  0  0
  2  3  1  1
  2  1  1  0
  4  5  1  0
  4  2  1  0
  5  7  1  0
  5  6  1  1
  7 13  1  0
  8  7  2  0
 10  9  1  1
 10 12  1  0
 10 11  1  0
 12 13  1  6
 14 15  2  0
 14 12  1  0
 16 14  1  0
 17 16  1  0
 17 20  1  0
 17 18  1  1
 19 18  1  0
 20 21  1  0
 22 20  2  0
M  END
$$$$
