SWA.pdb
     RDKit          3D

 26 27  0  0  1  0  0  0  0  0999 V2000
   20.8570  -22.5489  -14.8413 O   0  0  0  0  0  0  0  0  0  0  0  0
   20.9831  -22.8533  -13.5018 C   0  0  0  0  0  0  0  0  0  0  0  0
   20.9383  -21.5259  -12.7368 C   0  0  2  0  0  0  0  0  0  0  0  0
   19.7576  -20.7736  -13.1305 N   0  0  0  0  0  0  0  0  0  0  0  0
   22.1708  -20.7606  -13.0964 C   0  0  0  0  0  0  0  0  0  0  0  0
   22.0586  -19.7955  -13.8957 O   0  0  0  0  0  0  0  0  0  0  0  0
   23.4082  -21.1407  -12.5339 N   0  0  0  0  0  0  0  0  0  0  0  0
   24.6168  -20.4209  -12.8499 C   0  0  1  0  0  0  0  0  0  0  0  0
   25.6333  -20.8609  -11.8193 C   0  0  0  0  0  0  0  0  0  0  0  0
   26.9956  -20.3923  -12.0795 C   0  0  0  0  0  0  0  0  0  0  0  0
   27.3174  -19.3225  -12.9021 C   0  0  0  0  0  0  0  0  0  0  0  0
   28.6625  -19.1636  -12.9180 N   0  0  0  0  0  0  0  0  0  0  0  0
   29.2376  -20.0878  -12.1376 C   0  0  0  0  0  0  0  0  0  0  0  0
   30.5527  -20.3529  -11.8203 C   0  0  0  0  0  0  0  0  0  0  0  0
   30.8238  -21.4008  -10.9675 C   0  0  0  0  0  0  0  0  0  0  0  0
   29.8205  -22.1699  -10.4393 C   0  0  0  0  0  0  0  0  0  0  0  0
   28.5160  -21.8931  -10.7648 C   0  0  0  0  0  0  0  0  0  0  0  0
   28.1987  -20.8561  -11.6128 C   0  0  0  0  0  0  0  0  0  0  0  0
   25.0748  -20.6470  -14.2266 C   0  0  0  0  0  0  0  0  0  0  0  0
   25.0523  -21.8099  -14.6938 O   0  0  0  0  0  0  0  0  0  0  0  0
   25.7853  -18.4261  -17.1592 C   0  0  0  0  0  0  0  0  0  0  0  0
   25.8341  -19.7679  -16.4508 C   0  0  2  0  0  0  0  0  0  0  0  0
   25.5418  -19.5951  -15.0469 N   0  0  0  0  0  0  0  0  0  0  0  0
   27.1458  -20.3701  -16.6741 C   0  0  0  0  0  0  0  0  0  0  0  0
   27.3575  -21.0777  -17.8554 O   0  0  0  0  0  0  0  0  0  0  0  0
   28.1156  -20.3045  -15.8805 O   0  0  0  0  0  0  0  0  0  0  0  0
  2  1  1  0
  3  2  1  0
  3  4  1  6
  5  7  1  0
  5  3  1  0
  6  5  2  0
  8  7  1  0
  8  9  1  1
  9 10  1  0
 10 18  1  0
 11 10  2  0
 11 12  1  0
 12 13  1  0
 13 14  1  0
 14 15  2  0
 16 15  1  0
 17 16  2  0
 18 13  2  0
 18 17  1  0
 19 23  1  0
 19  8  1  0
 20 19  2  0
 22 21  1  6
 22 24  1  0
 22 23  1  0
 24 25  1  0
 26 24  2  0
M  END
$$$$
