SWA.pdb
     RDKit          3D

 26 27  0  0  1  0  0  0  0  0999 V2000
   26.9442  -19.2553  -15.3388 O   0  0  0  0  0  0  0  0  0  0  0  0
   27.8733  -18.8383  -14.4084 C   0  0  0  0  0  0  0  0  0  0  0  0
   28.4745  -20.1013  -13.7816 C   0  0  2  0  0  0  0  0  0  0  0  0
   28.9858  -20.9715  -14.8286 N   0  0  0  0  0  0  0  0  0  0  0  0
   27.3808  -20.7943  -13.0350 C   0  0  0  0  0  0  0  0  0  0  0  0
   26.8859  -21.8360  -13.5378 O   0  0  0  0  0  0  0  0  0  0  0  0
   26.9424  -20.2638  -11.8027 N   0  0  0  0  0  0  0  0  0  0  0  0
   25.8444  -20.8648  -11.0873 C   0  0  1  0  0  0  0  0  0  0  0  0
   25.9309  -20.3207   -9.6782 C   0  0  0  0  0  0  0  0  0  0  0  0
   27.1564  -20.6866   -8.9660 C   0  0  0  0  0  0  0  0  0  0  0  0
   28.1314  -21.5397   -9.4622 C   0  0  0  0  0  0  0  0  0  0  0  0
   29.1244  -21.6583   -8.5484 N   0  0  0  0  0  0  0  0  0  0  0  0
   28.8397  -20.9161   -7.4705 C   0  0  0  0  0  0  0  0  0  0  0  0
   29.5098  -20.6969   -6.2859 C   0  0  0  0  0  0  0  0  0  0  0  0
   28.9379  -19.8587   -5.3536 C   0  0  0  0  0  0  0  0  0  0  0  0
   27.7323  -19.2502   -5.5844 C   0  0  0  0  0  0  0  0  0  0  0  0
   27.0773  -19.4785   -6.7690 C   0  0  0  0  0  0  0  0  0  0  0  0
   27.6113  -20.3084   -7.7289 C   0  0  0  0  0  0  0  0  0  0  0  0
   24.5419  -20.6050  -11.7137 C   0  0  0  0  0  0  0  0  0  0  0  0
   24.2002  -19.4208  -11.9419 O   0  0  0  0  0  0  0  0  0  0  0  0
   21.9915  -22.6204  -13.5425 C   0  0  0  0  0  0  0  0  0  0  0  0
   22.3871  -21.4096  -12.7165 C   0  0  2  0  0  0  0  0  0  0  0  0
   23.6566  -21.6474  -12.0699 N   0  0  0  0  0  0  0  0  0  0  0  0
   21.3217  -21.1252  -11.7588 C   0  0  0  0  0  0  0  0  0  0  0  0
   20.0796  -20.7272  -12.2485 O   0  0  0  0  0  0  0  0  0  0  0  0
   21.4297  -21.2097  -10.5115 O   0  0  0  0  0  0  0  0  0  0  0  0
  2  1  1  0
  3  2  1  0
  3  4  1  6
  5  7  1  0
  5  3  1  0
  6  5  2  0
  8  7  1  0
  8  9  1  1
  9 10  1  0
 10 18  1  0
 11 10  2  0
 11 12  1  0
 12 13  1  0
 13 14  1  0
 14 15  2  0
 16 15  1  0
 17 16  2  0
 18 13  2  0
 18 17  1  0
 19 23  1  0
 19  8  1  0
 20 19  2  0
 22 21  1  1
 22 24  1  0
 22 23  1  0
 24 25  1  0
 26 24  2  0
M  END
$$$$
