SWA.pdb
     RDKit          3D

 26 27  0  0  1  0  0  0  0  0999 V2000
   15.5417   -4.8876  -15.2677 O   0  0  0  0  0  0  0  0  0  0  0  0
   16.4817   -4.6072  -14.2980 C   0  0  0  0  0  0  0  0  0  0  0  0
   16.3531   -5.6940  -13.2248 C   0  0  2  0  0  0  0  0  0  0  0  0
   15.8745   -6.9263  -13.8310 N   0  0  0  0  0  0  0  0  0  0  0  0
   15.3653   -5.2092  -12.2133 C   0  0  0  0  0  0  0  0  0  0  0  0
   14.1456   -5.4439  -12.4142 O   0  0  0  0  0  0  0  0  0  0  0  0
   15.8270   -4.5110  -11.0769 N   0  0  0  0  0  0  0  0  0  0  0  0
   14.9058   -4.0432  -10.0713 C   0  0  1  0  0  0  0  0  0  0  0  0
   15.3852   -4.6461   -8.7690 C   0  0  0  0  0  0  0  0  0  0  0  0
   15.0592   -6.0640   -8.6063 C   0  0  0  0  0  0  0  0  0  0  0  0
   15.9637   -7.1039   -8.7656 C   0  0  0  0  0  0  0  0  0  0  0  0
   15.3310   -8.2806   -8.5425 N   0  0  0  0  0  0  0  0  0  0  0  0
   14.0454   -8.0546   -8.2426 C   0  0  0  0  0  0  0  0  0  0  0  0
   12.9968   -8.8963   -7.9385 C   0  0  0  0  0  0  0  0  0  0  0  0
   11.7646   -8.3402   -7.6717 C   0  0  0  0  0  0  0  0  0  0  0  0
   11.5708   -6.9843   -7.7041 C   0  0  0  0  0  0  0  0  0  0  0  0
   12.6249   -6.1593   -8.0085 C   0  0  0  0  0  0  0  0  0  0  0  0
   13.8733   -6.6712   -8.2818 C   0  0  0  0  0  0  0  0  0  0  0  0
   14.8142   -2.5787  -10.0152 C   0  0  0  0  0  0  0  0  0  0  0  0
   15.8690   -1.9021   -9.9873 O   0  0  0  0  0  0  0  0  0  0  0  0
   12.0238   -0.0453  -10.1860 C   0  0  0  0  0  0  0  0  0  0  0  0
   13.4672   -0.4622   -9.9677 C   0  0  2  0  0  0  0  0  0  0  0  0
   13.5734   -1.9025   -9.9917 N   0  0  0  0  0  0  0  0  0  0  0  0
   13.9357    0.1074   -8.7070 C   0  0  0  0  0  0  0  0  0  0  0  0
   14.0545    1.4921   -8.6094 O   0  0  0  0  0  0  0  0  0  0  0  0
   14.2457   -0.5535   -7.6865 O   0  0  0  0  0  0  0  0  0  0  0  0
  2  1  1  0
  3  2  1  0
  3  4  1  6
  5  7  1  0
  5  3  1  0
  6  5  2  0
  8  7  1  0
  8  9  1  1
  9 10  1  0
 10 18  1  0
 11 10  2  0
 11 12  1  0
 12 13  1  0
 13 14  1  0
 14 15  2  0
 16 15  1  0
 17 16  2  0
 18 13  2  0
 18 17  1  0
 19 23  1  0
 19  8  1  0
 20 19  2  0
 22 21  1  1
 22 24  1  0
 22 23  1  0
 24 25  1  0
 26 24  2  0
M  END
$$$$
