SWA.pdb
     RDKit          3D

 26 27  0  0  1  0  0  0  0  0999 V2000
   27.1317  -20.0285  -18.1227 O   0  0  0  0  0  0  0  0  0  0  0  0
   28.1466  -19.6923  -17.2511 C   0  0  0  0  0  0  0  0  0  0  0  0
   28.5686  -20.9824  -16.5391 C   0  0  2  0  0  0  0  0  0  0  0  0
   28.6654  -22.0653  -17.5050 N   0  0  0  0  0  0  0  0  0  0  0  0
   27.5164  -21.2988  -15.5259 C   0  0  0  0  0  0  0  0  0  0  0  0
   26.6350  -22.1439  -15.8289 O   0  0  0  0  0  0  0  0  0  0  0  0
   27.5445  -20.6466  -14.2745 N   0  0  0  0  0  0  0  0  0  0  0  0
   26.5868  -20.9741  -13.2478 C   0  0  1  0  0  0  0  0  0  0  0  0
   27.2043  -20.5012  -11.9500 C   0  0  0  0  0  0  0  0  0  0  0  0
   26.3681  -20.7242  -10.7693 C   0  0  0  0  0  0  0  0  0  0  0  0
   25.3194  -21.6302  -10.7061 C   0  0  0  0  0  0  0  0  0  0  0  0
   24.7631  -21.5800   -9.4720 N   0  0  0  0  0  0  0  0  0  0  0  0
   25.4057  -20.6759   -8.7214 C   0  0  0  0  0  0  0  0  0  0  0  0
   25.2343  -20.2526   -7.4206 C   0  0  0  0  0  0  0  0  0  0  0  0
   26.0796  -19.2814   -6.9295 C   0  0  0  0  0  0  0  0  0  0  0  0
   27.0718  -18.7400   -7.7038 C   0  0  0  0  0  0  0  0  0  0  0  0
   27.2298  -19.1721   -8.9971 C   0  0  0  0  0  0  0  0  0  0  0  0
   26.4083  -20.1401   -9.5293 C   0  0  0  0  0  0  0  0  0  0  0  0
   25.2634  -20.3859  -13.4903 C   0  0  0  0  0  0  0  0  0  0  0  0
   25.1829  -19.1779  -13.8149 O   0  0  0  0  0  0  0  0  0  0  0  0
   21.8955  -21.5727  -14.3500 C   0  0  0  0  0  0  0  0  0  0  0  0
   22.7639  -20.5732  -13.6073 C   0  0  2  0  0  0  0  0  0  0  0  0
   24.0723  -21.1372  -13.3704 N   0  0  0  0  0  0  0  0  0  0  0  0
   22.0903  -20.1949  -12.3678 C   0  0  0  0  0  0  0  0  0  0  0  0
   21.2907  -19.0540  -12.3699 O   0  0  0  0  0  0  0  0  0  0  0  0
   22.1707  -20.8190  -11.2822 O   0  0  0  0  0  0  0  0  0  0  0  0
  2  1  1  0
  3  2  1  0
  3  4  1  6
  5  7  1  0
  5  3  1  0
  6  5  2  0
  8  7  1  0
  8  9  1  1
  9 10  1  0
 10 18  1  0
 11 10  2  0
 11 12  1  0
 12 13  1  0
 13 14  1  0
 14 15  2  0
 16 15  1  0
 17 16  2  0
 18 13  2  0
 18 17  1  0
 19 23  1  0
 19  8  1  0
 20 19  2  0
 22 21  1  1
 22 24  1  0
 22 23  1  0
 24 25  1  0
 26 24  2  0
M  END
$$$$
