SWA.pdb
     RDKit          3D

 26 27  0  0  1  0  0  0  0  0999 V2000
   26.9568  -18.8568  -15.4635 O   0  0  0  0  0  0  0  0  0  0  0  0
   27.8659  -18.6317  -14.4507 C   0  0  0  0  0  0  0  0  0  0  0  0
   28.3729  -20.0040  -13.9935 C   0  0  2  0  0  0  0  0  0  0  0  0
   28.7540  -20.7960  -15.1522 N   0  0  0  0  0  0  0  0  0  0  0  0
   27.2528  -20.6752  -13.2664 C   0  0  0  0  0  0  0  0  0  0  0  0
   26.7836  -21.7380  -13.7492 O   0  0  0  0  0  0  0  0  0  0  0  0
   26.7620  -20.1015  -12.0738 N   0  0  0  0  0  0  0  0  0  0  0  0
   25.7024  -20.7353  -11.3295 C   0  0  1  0  0  0  0  0  0  0  0  0
   25.8172  -20.1971   -9.9201 C   0  0  0  0  0  0  0  0  0  0  0  0
   27.0757  -20.5290   -9.2499 C   0  0  0  0  0  0  0  0  0  0  0  0
   28.0546  -21.3587   -9.7775 C   0  0  0  0  0  0  0  0  0  0  0  0
   29.0813  -21.4486   -8.8985 N   0  0  0  0  0  0  0  0  0  0  0  0
   28.8153  -20.7100   -7.8133 C   0  0  0  0  0  0  0  0  0  0  0  0
   29.5202  -20.4694   -6.6533 C   0  0  0  0  0  0  0  0  0  0  0  0
   28.9597  -19.6428   -5.7040 C   0  0  0  0  0  0  0  0  0  0  0  0
   27.7315  -19.0662   -5.8944 C   0  0  0  0  0  0  0  0  0  0  0  0
   27.0420  -19.3154   -7.0549 C   0  0  0  0  0  0  0  0  0  0  0  0
   27.5635  -20.1348   -8.0305 C   0  0  0  0  0  0  0  0  0  0  0  0
   24.3751  -20.5063  -11.9146 C   0  0  0  0  0  0  0  0  0  0  0  0
   23.9732  -19.3297  -12.0734 O   0  0  0  0  0  0  0  0  0  0  0  0
   21.7960  -22.6013  -13.6531 C   0  0  0  0  0  0  0  0  0  0  0  0
   22.2278  -21.3607  -12.8919 C   0  0  2  0  0  0  0  0  0  0  0  0
   23.5316  -21.5703  -12.3066 N   0  0  0  0  0  0  0  0  0  0  0  0
   21.2134  -21.0476  -11.8888 C   0  0  0  0  0  0  0  0  0  0  0  0
   19.9603  -20.6221  -12.3243 O   0  0  0  0  0  0  0  0  0  0  0  0
   21.3754  -21.1301  -10.6473 O   0  0  0  0  0  0  0  0  0  0  0  0
  2  1  1  0
  3  2  1  0
  3  4  1  6
  5  7  1  0
  5  3  1  0
  6  5  2  0
  8  7  1  0
  8  9  1  1
  9 10  1  0
 10 18  1  0
 11 10  2  0
 11 12  1  0
 12 13  1  0
 13 14  1  0
 14 15  2  0
 16 15  1  0
 17 16  2  0
 18 13  2  0
 18 17  1  0
 19 23  1  0
 19  8  1  0
 20 19  2  0
 22 21  1  1
 22 24  1  0
 22 23  1  0
 24 25  1  0
 26 24  2  0
M  END
$$$$
