SWA.pdb
     RDKit          3D

 26 27  0  0  1  0  0  0  0  0999 V2000
   25.7810  -24.2713  -18.3769 O   0  0  0  0  0  0  0  0  0  0  0  0
   26.9318  -23.6310  -17.9665 C   0  0  0  0  0  0  0  0  0  0  0  0
   27.3582  -24.2828  -16.6464 C   0  0  2  0  0  0  0  0  0  0  0  0
   27.5257  -25.7144  -16.8391 N   0  0  0  0  0  0  0  0  0  0  0  0
   26.2727  -24.0285  -15.6509 C   0  0  0  0  0  0  0  0  0  0  0  0
   25.8104  -25.0092  -15.0126 O   0  0  0  0  0  0  0  0  0  0  0  0
   25.8056  -22.7103  -15.4604 N   0  0  0  0  0  0  0  0  0  0  0  0
   24.8288  -22.4114  -14.4430 C   0  0  1  0  0  0  0  0  0  0  0  0
   25.2932  -21.1231  -13.7996 C   0  0  0  0  0  0  0  0  0  0  0  0
   25.0727  -21.0589  -12.3538 C   0  0  0  0  0  0  0  0  0  0  0  0
   25.9851  -21.4815  -11.3979 C   0  0  0  0  0  0  0  0  0  0  0  0
   25.4619  -21.2797  -10.1649 N   0  0  0  0  0  0  0  0  0  0  0  0
   24.2406  -20.7406  -10.2732 C   0  0  0  0  0  0  0  0  0  0  0  0
   23.3065  -20.3521   -9.3368 C   0  0  0  0  0  0  0  0  0  0  0  0
   22.1152  -19.8196   -9.7797 C   0  0  0  0  0  0  0  0  0  0  0  0
   21.8512  -19.6733  -11.1161 C   0  0  0  0  0  0  0  0  0  0  0  0
   22.7917  -20.0647  -12.0362 C   0  0  0  0  0  0  0  0  0  0  0  0
   23.9954  -20.6018  -11.6390 C   0  0  0  0  0  0  0  0  0  0  0  0
   23.4619  -22.3176  -14.9712 C   0  0  0  0  0  0  0  0  0  0  0  0
   23.2378  -21.5747  -15.9556 O   0  0  0  0  0  0  0  0  0  0  0  0
   20.4907  -24.4377  -14.9901 C   0  0  0  0  0  0  0  0  0  0  0  0
   21.0555  -23.0286  -14.9694 C   0  0  2  0  0  0  0  0  0  0  0  0
   22.3856  -23.0388  -14.4064 N   0  0  0  0  0  0  0  0  0  0  0  0
   20.1433  -22.1674  -14.2214 C   0  0  0  0  0  0  0  0  0  0  0  0
   19.0964  -21.5564  -14.9081 O   0  0  0  0  0  0  0  0  0  0  0  0
   20.2221  -21.9257  -12.9927 O   0  0  0  0  0  0  0  0  0  0  0  0
  2  1  1  0
  3  2  1  0
  3  4  1  6
  5  7  1  0
  5  3  1  0
  6  5  2  0
  8  7  1  0
  8  9  1  6
  9 10  1  0
 10 18  1  0
 11 10  2  0
 11 12  1  0
 12 13  1  0
 13 14  1  0
 14 15  2  0
 16 15  1  0
 17 16  2  0
 18 13  2  0
 18 17  1  0
 19 23  1  0
 19  8  1  0
 20 19  2  0
 22 21  1  1
 22 24  1  0
 22 23  1  0
 24 25  1  0
 26 24  2  0
M  END
$$$$
