SWA.pdb
     RDKit          3D

 26 27  0  0  1  0  0  0  0  0999 V2000
   26.3889  -18.8825  -15.0946 O   0  0  0  0  0  0  0  0  0  0  0  0
   27.1673  -19.9170  -15.5706 C   0  0  0  0  0  0  0  0  0  0  0  0
   27.9041  -20.5117  -14.3653 C   0  0  2  0  0  0  0  0  0  0  0  0
   28.8044  -21.5628  -14.8118 N   0  0  0  0  0  0  0  0  0  0  0  0
   26.8720  -21.0836  -13.4477 C   0  0  0  0  0  0  0  0  0  0  0  0
   26.4105  -22.2242  -13.7101 O   0  0  0  0  0  0  0  0  0  0  0  0
   26.4522  -20.3339  -12.3280 N   0  0  0  0  0  0  0  0  0  0  0  0
   25.4789  -20.8636  -11.4057 C   0  0  1  0  0  0  0  0  0  0  0  0
   25.7659  -20.1912  -10.0810 C   0  0  0  0  0  0  0  0  0  0  0  0
   27.0407  -20.5775   -9.4739 C   0  0  0  0  0  0  0  0  0  0  0  0
   27.9729  -21.4177  -10.0654 C   0  0  0  0  0  0  0  0  0  0  0  0
   29.0318  -21.5620   -9.2331 N   0  0  0  0  0  0  0  0  0  0  0  0
   28.8318  -20.8489   -8.1171 C   0  0  0  0  0  0  0  0  0  0  0  0
   29.5904  -20.6625   -6.9812 C   0  0  0  0  0  0  0  0  0  0  0  0
   29.0933  -19.8493   -5.9860 C   0  0  0  0  0  0  0  0  0  0  0  0
   27.8754  -19.2337   -6.1083 C   0  0  0  0  0  0  0  0  0  0  0  0
   27.1320  -19.4292   -7.2455 C   0  0  0  0  0  0  0  0  0  0  0  0
   27.5892  -20.2333   -8.2651 C   0  0  0  0  0  0  0  0  0  0  0  0
   24.0953  -20.6603  -11.8537 C   0  0  0  0  0  0  0  0  0  0  0  0
   23.6175  -19.5015  -11.8519 O   0  0  0  0  0  0  0  0  0  0  0  0
   21.4919  -22.7852  -13.5442 C   0  0  0  0  0  0  0  0  0  0  0  0
   21.9481  -21.5358  -12.8124 C   0  0  2  0  0  0  0  0  0  0  0  0
   23.2802  -21.7297  -12.2889 N   0  0  0  0  0  0  0  0  0  0  0  0
   20.9799  -21.2252  -11.7639 C   0  0  0  0  0  0  0  0  0  0  0  0
   19.7412  -20.7086  -12.1378 O   0  0  0  0  0  0  0  0  0  0  0  0
   21.1702  -21.3859  -10.5341 O   0  0  0  0  0  0  0  0  0  0  0  0
  2  1  1  0
  3  2  1  0
  3  4  1  6
  5  7  1  0
  5  3  1  0
  6  5  2  0
  8  7  1  0
  8  9  1  1
  9 10  1  0
 10 18  1  0
 11 10  2  0
 11 12  1  0
 12 13  1  0
 13 14  1  0
 14 15  2  0
 16 15  1  0
 17 16  2  0
 18 13  2  0
 18 17  1  0
 19 23  1  0
 19  8  1  0
 20 19  2  0
 22 21  1  1
 22 24  1  0
 22 23  1  0
 24 25  1  0
 26 24  2  0
M  END
$$$$
