SWA.pdb
     RDKit          3D

 26 27  0  0  1  0  0  0  0  0999 V2000
   11.2526  -10.9997  -10.1578 O   0  0  0  0  0  0  0  0  0  0  0  0
   12.2200  -10.0213  -10.2559 C   0  0  0  0  0  0  0  0  0  0  0  0
   13.5760  -10.7355  -10.2758 C   0  0  2  0  0  0  0  0  0  0  0  0
   13.5520  -11.8575   -9.3508 N   0  0  0  0  0  0  0  0  0  0  0  0
   14.6095   -9.7452   -9.8454 C   0  0  0  0  0  0  0  0  0  0  0  0
   14.6839   -9.4577   -8.6228 O   0  0  0  0  0  0  0  0  0  0  0  0
   15.4602   -9.1700  -10.8137 N   0  0  0  0  0  0  0  0  0  0  0  0
   16.4874   -8.2329  -10.4329 C   0  0  1  0  0  0  0  0  0  0  0  0
   17.6936   -8.5875  -11.2748 C   0  0  0  0  0  0  0  0  0  0  0  0
   18.8062   -7.6431  -11.1600 C   0  0  0  0  0  0  0  0  0  0  0  0
   19.1831   -7.0082   -9.9854 C   0  0  0  0  0  0  0  0  0  0  0  0
   20.2456   -6.2060  -10.2355 N   0  0  0  0  0  0  0  0  0  0  0  0
   20.5818   -6.2890  -11.5293 C   0  0  0  0  0  0  0  0  0  0  0  0
   21.5701   -5.6845  -12.2765 C   0  0  0  0  0  0  0  0  0  0  0  0
   21.6554   -5.9857  -13.6185 C   0  0  0  0  0  0  0  0  0  0  0  0
   20.7855   -6.8633  -14.2103 C   0  0  0  0  0  0  0  0  0  0  0  0
   19.8068   -7.4571  -13.4527 C   0  0  0  0  0  0  0  0  0  0  0  0
   19.6845   -7.1857  -12.1086 C   0  0  0  0  0  0  0  0  0  0  0  0
   16.0756   -6.8331  -10.5984 C   0  0  0  0  0  0  0  0  0  0  0  0
   15.6831   -6.4414  -11.7226 O   0  0  0  0  0  0  0  0  0  0  0  0
   15.6206   -3.8576   -8.3273 C   0  0  0  0  0  0  0  0  0  0  0  0
   15.7491   -4.5176   -9.6884 C   0  0  2  0  0  0  0  0  0  0  0  0
   16.1061   -5.9082   -9.5302 N   0  0  0  0  0  0  0  0  0  0  0  0
   16.7311   -3.7793  -10.4782 C   0  0  0  0  0  0  0  0  0  0  0  0
   16.3419   -2.5757  -11.0620 O   0  0  0  0  0  0  0  0  0  0  0  0
   17.9154   -4.1411  -10.6801 O   0  0  0  0  0  0  0  0  0  0  0  0
  2  1  1  0
  3  2  1  0
  3  4  1  1
  5  7  1  0
  5  3  1  0
  6  5  2  0
  8  7  1  0
  8  9  1  6
  9 10  1  0
 10 18  1  0
 11 10  2  0
 11 12  1  0
 12 13  1  0
 13 14  1  0
 14 15  2  0
 16 15  1  0
 17 16  2  0
 18 13  2  0
 18 17  1  0
 19 23  1  0
 19  8  1  0
 20 19  2  0
 22 21  1  1
 22 24  1  0
 22 23  1  0
 24 25  1  0
 26 24  2  0
M  END
$$$$
