HRT.pdb
     RDKit          3D

 29 29  0  0  1  0  0  0  0  0999 V2000
    7.7098  -20.5112   24.4018 N   0  0  0  0  0  0  0  0  0  0  0  0
    7.4846  -19.2342   25.0324 C   0  0  1  0  0  0  0  0  0  0  0  0
    7.5168  -19.3096   26.5308 C   0  0  0  0  0  0  0  0  0  0  0  0
    6.6216  -20.4300   26.9413 C   0  0  0  0  0  0  0  0  0  0  0  0
    5.8545  -21.2211   26.1127 C   0  0  0  0  0  0  0  0  0  0  0  0
    5.1896  -22.1170   26.8622 N   0  0  0  0  0  0  0  0  0  0  0  0
    5.5173  -21.9142   28.1613 C   0  0  0  0  0  0  0  0  0  0  0  0
    6.3870  -20.8873   28.1926 N   0  0  0  0  0  0  0  0  0  0  0  0
    8.3675  -18.2267   24.4554 C   0  0  0  0  0  0  0  0  0  0  0  0
    9.5630  -18.5407   24.2225 O   0  0  0  0  0  0  0  0  0  0  0  0
    8.0638  -14.6851   18.6963 N   0  0  0  0  0  0  0  0  0  0  0  0
    8.1234  -13.3755   19.2077 C   0  0  0  0  0  0  0  0  0  0  0  0
    8.7670  -12.4295   18.6166 N   0  0  0  0  0  0  0  0  0  0  0  0
    7.4484  -13.0843   20.4220 N   0  0  0  0  0  0  0  0  0  0  0  0
    6.6768  -14.1032   21.0871 C   0  0  0  0  0  0  0  0  0  0  0  0
    7.5796  -15.1814   21.6585 C   0  0  0  0  0  0  0  0  0  0  0  0
    8.2185  -14.7522   22.9557 C   0  0  0  0  0  0  0  0  0  0  0  0
    8.9039  -15.8667   23.6791 C   0  0  2  0  0  0  0  0  0  0  0  0
    7.9908  -16.8982   24.1269 N   0  0  0  0  0  0  0  0  0  0  0  0
    9.7130  -15.3558   24.8390 C   0  0  0  0  0  0  0  0  0  0  0  0
   10.6722  -14.5811   24.5973 O   0  0  0  0  0  0  0  0  0  0  0  0
    8.7352  -11.4522   18.9366 C   0  0  0  0  0  0  0  0  0  0  0  0
    9.0242  -12.9086   27.2695 C   0  0  2  0  0  0  0  0  0  0  0  0
    9.1376  -14.2172   28.0049 O   0  0  0  0  0  0  0  0  0  0  0  0
    7.8958  -14.8396   28.0681 C   0  0  2  0  0  0  0  0  0  0  0  0
   10.1496  -15.1404   27.3122 N   0  0  0  0  0  0  0  0  0  0  0  0
    9.4491  -15.7009   26.1692 C   0  0  0  0  0  0  0  0  0  0  0  0
   10.4149  -16.2700   28.2496 O   0  0  0  0  0  0  0  0  0  0  0  0
   11.0775  -16.1044   29.4591 O   0  0  0  0  0  0  0  0  0  0  0  0
  2  1  1  6
  3  2  1  0
  3  4  1  0
  4  5  2  0
  4  8  1  0
  5  6  1  0
  6  7  1  0
  8  7  2  0
  9  2  1  0
 10  9  2  0
 11 12  1  0
 12 14  1  0
 12 13  2  0
 14 15  1  0
 16 17  1  0
 16 15  1  0
 18 17  1  1
 18 19  1  0
 19  9  1  0
 20 18  1  0
 21 20  2  0
 23 25  1  0
 23 22  1  1
 24 23  1  0
 25 26  1  1
 26 20  1  0
 27 25  1  0
 27 28  1  0
 29 27  2  0
M  END
$$$$
