HRT.pdb
     RDKit          3D

 29 29  0  0  1  0  0  0  0  0999 V2000
    8.2709  -15.7815   19.8157 N   0  0  0  0  0  0  0  0  0  0  0  0
    8.0139  -14.4808   20.3825 C   0  0  1  0  0  0  0  0  0  0  0  0
    7.0942  -13.6479   19.5385 C   0  0  0  0  0  0  0  0  0  0  0  0
    7.5785  -13.7346   18.1303 C   0  0  0  0  0  0  0  0  0  0  0  0
    6.8181  -13.6178   16.9861 C   0  0  0  0  0  0  0  0  0  0  0  0
    7.6204  -13.7542   15.9165 N   0  0  0  0  0  0  0  0  0  0  0  0
    8.8864  -13.9571   16.3552 C   0  0  0  0  0  0  0  0  0  0  0  0
    8.8442  -13.9425   17.7006 N   0  0  0  0  0  0  0  0  0  0  0  0
    7.6069  -14.6124   21.7769 C   0  0  0  0  0  0  0  0  0  0  0  0
    7.3052  -13.5705   22.4136 O   0  0  0  0  0  0  0  0  0  0  0  0
    9.7896  -19.8995   21.8375 N   0  0  0  0  0  0  0  0  0  0  0  0
   10.6953  -20.1455   22.8860 C   0  0  0  0  0  0  0  0  0  0  0  0
   11.8906  -20.5791   22.6815 N   0  0  0  0  0  0  0  0  0  0  0  0
   10.2768  -19.9067   24.2212 N   0  0  0  0  0  0  0  0  0  0  0  0
    8.9591  -19.3888   24.4883 C   0  0  0  0  0  0  0  0  0  0  0  0
    8.8396  -17.9467   24.0300 C   0  0  0  0  0  0  0  0  0  0  0  0
    7.5238  -17.3328   24.4386 C   0  0  0  0  0  0  0  0  0  0  0  0
    7.3311  -15.9418   23.9255 C   0  0  2  0  0  0  0  0  0  0  0  0
    7.5192  -15.8346   22.4933 N   0  0  0  0  0  0  0  0  0  0  0  0
    8.2238  -14.9632   24.6371 C   0  0  0  0  0  0  0  0  0  0  0  0
    8.7664  -14.0545   23.9598 O   0  0  0  0  0  0  0  0  0  0  0  0
   12.5442  -20.7876   23.4483 C   0  0  0  0  0  0  0  0  0  0  0  0
    7.7106  -12.2641   25.4049 C   0  0  2  0  0  0  0  0  0  0  0  0
    7.8804  -12.8445   26.7834 O   0  0  0  0  0  0  0  0  0  0  0  0
    6.6858  -13.4106   27.2145 C   0  0  2  0  0  0  0  0  0  0  0  0
    8.9923  -13.9028   26.7909 N   0  0  0  0  0  0  0  0  0  0  0  0
    8.4776  -15.0164   26.0122 C   0  0  0  0  0  0  0  0  0  0  0  0
    9.1197  -14.3845   28.1970 O   0  0  0  0  0  0  0  0  0  0  0  0
    8.7534  -15.6656   28.5896 O   0  0  0  0  0  0  0  0  0  0  0  0
  2  1  1  6
  3  2  1  0
  3  4  1  0
  4  5  2  0
  4  8  1  0
  5  6  1  0
  6  7  1  0
  8  7  2  0
  9  2  1  0
 10  9  2  0
 11 12  1  0
 12 14  1  0
 12 13  2  0
 14 15  1  0
 16 17  1  0
 16 15  1  0
 18 17  1  1
 18 19  1  0
 19  9  1  0
 20 18  1  0
 21 20  2  0
 23 25  1  0
 23 22  1  1
 24 23  1  0
 25 26  1  1
 26 20  1  0
 27 25  1  0
 27 28  1  0
 29 27  2  0
M  END
$$$$
