HRT.pdb
     RDKit          3D

 29 29  0  0  1  0  0  0  0  0999 V2000
    7.1231  -16.2356   18.6400 N   0  0  0  0  0  0  0  0  0  0  0  0
    8.0983  -15.5208   19.4258 C   0  0  1  0  0  0  0  0  0  0  0  0
    8.0874  -14.0430   19.1656 C   0  0  0  0  0  0  0  0  0  0  0  0
    8.4264  -13.8397   17.7272 C   0  0  0  0  0  0  0  0  0  0  0  0
    7.6892  -13.1406   16.7952 C   0  0  0  0  0  0  0  0  0  0  0  0
    8.3280  -13.1872   15.6135 N   0  0  0  0  0  0  0  0  0  0  0  0
    9.4658  -13.9061   15.7712 C   0  0  0  0  0  0  0  0  0  0  0  0
    9.5110  -14.2949   17.0591 N   0  0  0  0  0  0  0  0  0  0  0  0
    7.9796  -15.8914   20.8314 C   0  0  0  0  0  0  0  0  0  0  0  0
    6.8355  -15.9009   21.3537 O   0  0  0  0  0  0  0  0  0  0  0  0
   13.3178  -18.4484   26.6017 N   0  0  0  0  0  0  0  0  0  0  0  0
   12.2147  -18.6974   27.4391 C   0  0  0  0  0  0  0  0  0  0  0  0
   12.2952  -18.6497   28.7236 N   0  0  0  0  0  0  0  0  0  0  0  0
   10.9641  -19.0134   26.8466 N   0  0  0  0  0  0  0  0  0  0  0  0
   10.8158  -19.0048   25.4135 C   0  0  0  0  0  0  0  0  0  0  0  0
    9.7690  -17.9938   24.9822 C   0  0  0  0  0  0  0  0  0  0  0  0
    9.9542  -17.5681   23.5472 C   0  0  0  0  0  0  0  0  0  0  0  0
    8.9363  -16.5756   23.0845 C   0  0  2  0  0  0  0  0  0  0  0  0
    9.0607  -16.2493   21.6788 N   0  0  0  0  0  0  0  0  0  0  0  0
    8.9758  -15.3197   23.9105 C   0  0  0  0  0  0  0  0  0  0  0  0
    9.8917  -14.4899   23.6845 O   0  0  0  0  0  0  0  0  0  0  0  0
   11.4996  -18.8686   29.3382 C   0  0  0  0  0  0  0  0  0  0  0  0
    6.2929  -12.1729   26.5481 C   0  0  2  0  0  0  0  0  0  0  0  0
    6.4900  -13.4377   25.7561 O   0  0  0  0  0  0  0  0  0  0  0  0
    5.9321  -13.3010   24.4897 C   0  0  1  0  0  0  0  0  0  0  0  0
    7.9832  -13.7724   25.6352 N   0  0  0  0  0  0  0  0  0  0  0  0
    8.0445  -15.0329   24.9148 C   0  0  0  0  0  0  0  0  0  0  0  0
    8.4777  -14.0427   27.0164 O   0  0  0  0  0  0  0  0  0  0  0  0
    8.9138  -15.2958   27.4277 O   0  0  0  0  0  0  0  0  0  0  0  0
  2  1  1  6
  3  2  1  0
  3  4  1  0
  4  5  2  0
  4  8  1  0
  5  6  1  0
  6  7  1  0
  8  7  2  0
  9  2  1  0
 10  9  2  0
 11 12  1  0
 12 14  1  0
 12 13  2  0
 14 15  1  0
 16 17  1  0
 16 15  1  0
 18 17  1  1
 18 19  1  0
 19  9  1  0
 20 18  1  0
 21 20  2  0
 23 25  1  0
 23 22  1  1
 24 23  1  0
 25 26  1  1
 26 20  1  0
 27 25  1  0
 27 28  1  0
 29 27  2  0
M  END
$$$$
