HRT.pdb
     RDKit          3D

 29 29  0  0  1  0  0  0  0  0999 V2000
    7.0079  -14.0763   22.7492 N   0  0  0  0  0  0  0  0  0  0  0  0
    7.1489  -15.3437   22.0762 C   0  0  1  0  0  0  0  0  0  0  0  0
    8.3540  -15.3996   21.1838 C   0  0  0  0  0  0  0  0  0  0  0  0
    8.1697  -14.3715   20.1188 C   0  0  0  0  0  0  0  0  0  0  0  0
    7.2179  -13.3744   20.0884 C   0  0  0  0  0  0  0  0  0  0  0  0
    7.3800  -12.6544   18.9651 N   0  0  0  0  0  0  0  0  0  0  0  0
    8.4221  -13.1734   18.2718 C   0  0  0  0  0  0  0  0  0  0  0  0
    8.8905  -14.2146   18.9849 N   0  0  0  0  0  0  0  0  0  0  0  0
    7.0536  -16.4361   23.0380 C   0  0  0  0  0  0  0  0  0  0  0  0
    7.3285  -16.1994   24.2423 O   0  0  0  0  0  0  0  0  0  0  0  0
    2.9018  -24.3673   23.3212 N   0  0  0  0  0  0  0  0  0  0  0  0
    3.5175  -24.2435   24.5804 C   0  0  0  0  0  0  0  0  0  0  0  0
    3.3487  -25.1058   25.5220 N   0  0  0  0  0  0  0  0  0  0  0  0
    4.3575  -23.1253   24.8237 N   0  0  0  0  0  0  0  0  0  0  0  0
    4.4588  -22.0671   23.8513 C   0  0  0  0  0  0  0  0  0  0  0  0
    5.4847  -21.0333   24.2790 C   0  0  0  0  0  0  0  0  0  0  0  0
    5.5915  -19.9016   23.2876 C   0  0  0  0  0  0  0  0  0  0  0  0
    6.5625  -18.8411   23.6970 C   0  0  2  0  0  0  0  0  0  0  0  0
    6.6709  -17.7679   22.7304 N   0  0  0  0  0  0  0  0  0  0  0  0
    7.9217  -19.4181   23.9810 C   0  0  0  0  0  0  0  0  0  0  0  0
    8.5604  -19.9285   23.0269 O   0  0  0  0  0  0  0  0  0  0  0  0
    3.7715  -24.9999   26.4540 C   0  0  0  0  0  0  0  0  0  0  0  0
   11.1572  -18.1522   24.8131 C   0  0  2  0  0  0  0  0  0  0  0  0
   10.7189  -18.9594   26.0057 O   0  0  0  0  0  0  0  0  0  0  0  0
   10.1006  -18.1356   26.9398 C   0  0  2  0  0  0  0  0  0  0  0  0
    9.7574  -20.0770   25.5779 N   0  0  0  0  0  0  0  0  0  0  0  0
    8.5064  -19.4134   25.2524 C   0  0  0  0  0  0  0  0  0  0  0  0
    9.4993  -20.9105   26.7878 O   0  0  0  0  0  0  0  0  0  0  0  0
   10.4122  -21.8397   27.2701 O   0  0  0  0  0  0  0  0  0  0  0  0
  2  1  1  1
  3  2  1  0
  3  4  1  0
  4  5  2  0
  4  8  1  0
  5  6  1  0
  6  7  1  0
  8  7  2  0
  9  2  1  0
 10  9  2  0
 11 12  1  0
 12 14  1  0
 12 13  2  0
 14 15  1  0
 16 17  1  0
 16 15  1  0
 18 17  1  6
 18 19  1  0
 19  9  1  0
 20 18  1  0
 21 20  2  0
 23 25  1  0
 23 22  1  1
 24 23  1  0
 25 26  1  1
 26 20  1  0
 27 25  1  0
 27 28  1  0
 29 27  2  0
M  END
$$$$
