HRT.pdb
     RDKit          3D

 29 29  0  0  1  0  0  0  0  0999 V2000
    7.8549  -16.9308   19.7357 N   0  0  0  0  0  0  0  0  0  0  0  0
    8.0984  -15.7109   20.4649 C   0  0  1  0  0  0  0  0  0  0  0  0
    7.2545  -14.5663   19.9856 C   0  0  0  0  0  0  0  0  0  0  0  0
    7.6674  -14.2624   18.5848 C   0  0  0  0  0  0  0  0  0  0  0  0
    8.5532  -13.2876   18.1772 C   0  0  0  0  0  0  0  0  0  0  0  0
    8.6596  -13.3309   16.8381 N   0  0  0  0  0  0  0  0  0  0  0  0
    7.8552  -14.3193   16.3774 C   0  0  0  0  0  0  0  0  0  0  0  0
    7.2602  -14.8749   17.4494 N   0  0  0  0  0  0  0  0  0  0  0  0
    8.0252  -15.9607   21.9000 C   0  0  0  0  0  0  0  0  0  0  0  0
    6.8959  -15.9465   22.4536 O   0  0  0  0  0  0  0  0  0  0  0  0
    9.3789  -20.9993   27.9345 N   0  0  0  0  0  0  0  0  0  0  0  0
   10.6950  -20.5859   27.6567 C   0  0  0  0  0  0  0  0  0  0  0  0
   11.7181  -21.3363   27.8774 N   0  0  0  0  0  0  0  0  0  0  0  0
   10.9045  -19.2919   27.1119 N   0  0  0  0  0  0  0  0  0  0  0  0
    9.7930  -18.3957   26.9193 C   0  0  0  0  0  0  0  0  0  0  0  0
   10.2457  -17.1019   26.2673 C   0  0  0  0  0  0  0  0  0  0  0  0
   10.1637  -17.1701   24.7628 C   0  0  0  0  0  0  0  0  0  0  0  0
    9.0713  -16.3274   24.1872 C   0  0  2  0  0  0  0  0  0  0  0  0
    9.1358  -16.2236   22.7439 N   0  0  0  0  0  0  0  0  0  0  0  0
    9.0513  -14.9553   24.8021 C   0  0  0  0  0  0  0  0  0  0  0  0
    9.8611  -14.0988   24.3671 O   0  0  0  0  0  0  0  0  0  0  0  0
   12.6761  -21.0565   27.6270 C   0  0  0  0  0  0  0  0  0  0  0  0
    6.3428  -11.5833   27.0641 C   0  0  2  0  0  0  0  0  0  0  0  0
    6.5758  -12.9485   26.4742 O   0  0  0  0  0  0  0  0  0  0  0  0
    5.9976  -13.0294   25.2123 C   0  0  1  0  0  0  0  0  0  0  0  0
    8.0786  -13.2470   26.3799 N   0  0  0  0  0  0  0  0  0  0  0  0
    8.1772  -14.5891   25.8316 C   0  0  0  0  0  0  0  0  0  0  0  0
    8.5933  -13.3155   27.7783 O   0  0  0  0  0  0  0  0  0  0  0  0
    8.8207  -12.1850   28.5527 O   0  0  0  0  0  0  0  0  0  0  0  0
  2  1  1  6
  3  2  1  0
  3  4  1  0
  4  5  2  0
  4  8  1  0
  5  6  1  0
  6  7  1  0
  8  7  2  0
  9  2  1  0
 10  9  2  0
 11 12  1  0
 12 14  1  0
 12 13  2  0
 14 15  1  0
 16 17  1  0
 16 15  1  0
 18 17  1  1
 18 19  1  0
 19  9  1  0
 20 18  1  0
 21 20  2  0
 23 25  1  0
 23 22  1  1
 24 23  1  0
 25 26  1  1
 26 20  1  0
 27 25  1  0
 27 28  1  0
 29 27  2  0
M  END
$$$$
