MNM.pdb
     RDKit          3D

 25 24  0  0  1  0  0  0  0  0999 V2000
   32.2348  -21.8152  -10.0164 C   0  0  0  0  0  0  0  0  0  0  0  0
   32.1238  -22.8407  -11.4838 S   0  0  0  0  0  0  0  0  0  0  0  0
   31.9410  -21.9163  -12.9801 C   0  0  0  0  0  0  0  0  0  0  0  0
   30.8469  -20.9223  -13.0554 C   0  0  0  0  0  0  0  0  0  0  0  0
   29.4843  -21.4418  -12.9706 C   0  0  2  0  0  0  0  0  0  0  0  0
   28.8412  -21.8701  -14.1601 N   0  0  0  0  0  0  0  0  0  0  0  0
   28.5404  -20.4739  -12.2869 C   0  0  0  0  0  0  0  0  0  0  0  0
   28.9853  -19.6014  -11.4978 O   0  0  0  0  0  0  0  0  0  0  0  0
   23.2191  -21.7471  -12.2184 N   0  0  0  0  0  0  0  0  0  0  0  0
   24.4628  -21.2811  -12.7237 C   0  0  0  0  0  0  0  0  0  0  0  0
   25.1840  -22.0769  -13.3535 O   0  0  0  0  0  0  0  0  0  0  0  0
   24.8676  -19.8859  -12.4953 C   0  0  0  0  0  0  0  0  0  0  0  0
   26.1555  -19.7990  -11.7257 C   0  0  2  0  0  0  0  0  0  0  0  0
   27.1488  -20.5300  -12.5200 N   0  0  0  0  0  0  0  0  0  0  0  0
   26.0495  -20.4221  -10.3912 C   0  0  0  0  0  0  0  0  0  0  0  0
   26.0016  -21.7002  -10.2989 O   0  0  0  0  0  0  0  0  0  0  0  0
   29.4175  -19.2519   -5.1932 C   0  0  0  0  0  0  0  0  0  0  0  0
   27.8934  -19.7235   -4.3260 S   0  0  0  0  0  0  0  0  0  0  0  0
   26.7732  -20.5037   -5.5449 C   0  0  0  0  0  0  0  0  0  0  0  0
   26.8674  -19.7492   -6.8624 C   0  0  0  0  0  0  0  0  0  0  0  0
   25.9706  -20.4296   -7.8793 C   0  0  2  0  0  0  0  0  0  0  0  0
   25.9980  -19.7300   -9.1523 N   0  0  0  0  0  0  0  0  0  0  0  0
   24.6237  -20.6732   -7.3510 C   0  0  0  0  0  0  0  0  0  0  0  0
   23.6346  -20.1070   -7.8465 O   0  0  0  0  0  0  0  0  0  0  0  0
   24.4549  -21.5402   -6.2938 O   0  0  0  0  0  0  0  0  0  0  0  0
  1  2  1  0
  3  2  1  0
  4  3  1  0
  5  4  1  0
  5  6  1  6
  7  8  2  0
  7  5  1  0
  9 10  1  0
 10 12  1  0
 11 10  2  0
 13 12  1  6
 13 14  1  0
 14  7  1  0
 15 13  1  0
 15 16  2  0
 18 17  1  0
 19 20  1  0
 19 18  1  0
 21 22  1  0
 21 20  1  1
 22 15  1  0
 23 21  1  0
 24 23  2  0
 25 23  1  0
M  END
$$$$
