MNM.pdb
     RDKit          3D

 25 24  0  0  1  0  0  0  0  0999 V2000
   26.9318  -13.2304  -15.6830 C   0  0  0  0  0  0  0  0  0  0  0  0
   26.3175  -14.9092  -15.8313 S   0  0  0  0  0  0  0  0  0  0  0  0
   24.5560  -15.0286  -15.7339 C   0  0  0  0  0  0  0  0  0  0  0  0
   23.9529  -16.3779  -15.6543 C   0  0  0  0  0  0  0  0  0  0  0  0
   24.5399  -17.4081  -16.5075 C   0  0  2  0  0  0  0  0  0  0  0  0
   23.9098  -17.7144  -17.7409 N   0  0  0  0  0  0  0  0  0  0  0  0
   24.7319  -18.7209  -15.7761 C   0  0  0  0  0  0  0  0  0  0  0  0
   23.7668  -19.5133  -15.6267 O   0  0  0  0  0  0  0  0  0  0  0  0
   28.2902  -22.6642  -15.9892 N   0  0  0  0  0  0  0  0  0  0  0  0
   27.9095  -21.2956  -15.9525 C   0  0  0  0  0  0  0  0  0  0  0  0
   27.7785  -20.6862  -17.0303 O   0  0  0  0  0  0  0  0  0  0  0  0
   27.6813  -20.6352  -14.6586 C   0  0  0  0  0  0  0  0  0  0  0  0
   26.2323  -20.2916  -14.4570 C   0  0  2  0  0  0  0  0  0  0  0  0
   25.9919  -19.0810  -15.2498 N   0  0  0  0  0  0  0  0  0  0  0  0
   25.9180  -20.0133  -13.0414 C   0  0  0  0  0  0  0  0  0  0  0  0
   26.5179  -19.0497  -12.4446 O   0  0  0  0  0  0  0  0  0  0  0  0
   20.4562  -20.3147   -9.9965 C   0  0  0  0  0  0  0  0  0  0  0  0
   21.4493  -20.3895   -8.4781 S   0  0  0  0  0  0  0  0  0  0  0  0
   23.2110  -20.2467   -8.9526 C   0  0  0  0  0  0  0  0  0  0  0  0
   23.3785  -20.7105  -10.3916 C   0  0  0  0  0  0  0  0  0  0  0  0
   24.8057  -20.4394  -10.8285 C   0  0  2  0  0  0  0  0  0  0  0  0
   24.9831  -20.7230  -12.2423 N   0  0  0  0  0  0  0  0  0  0  0  0
   25.7842  -21.0930   -9.9522 C   0  0  0  0  0  0  0  0  0  0  0  0
   26.2277  -22.2214  -10.2249 O   0  0  0  0  0  0  0  0  0  0  0  0
   26.2157  -20.4470   -8.8145 O   0  0  0  0  0  0  0  0  0  0  0  0
  1  2  1  0
  3  2  1  0
  4  3  1  0
  5  4  1  0
  5  6  1  6
  7  8  2  0
  7  5  1  0
  9 10  1  0
 10 12  1  0
 11 10  2  0
 13 12  1  1
 13 14  1  0
 14  7  1  0
 15 13  1  0
 15 16  2  0
 18 17  1  0
 19 20  1  0
 19 18  1  0
 21 22  1  0
 21 20  1  1
 22 15  1  0
 23 21  1  0
 24 23  2  0
 25 23  1  0
M  END
$$$$
