MNM.pdb
     RDKit          3D

 25 24  0  0  1  0  0  0  0  0999 V2000
   26.0117  -18.6404  -19.4228 C   0  0  0  0  0  0  0  0  0  0  0  0
   27.2325  -18.5203  -20.7315 S   0  0  0  0  0  0  0  0  0  0  0  0
   28.2073  -19.9828  -20.9254 C   0  0  0  0  0  0  0  0  0  0  0  0
   27.6260  -21.2707  -20.4849 C   0  0  0  0  0  0  0  0  0  0  0  0
   28.5656  -22.2860  -20.0159 C   0  0  2  0  0  0  0  0  0  0  0  0
   29.7309  -22.5444  -20.7822 N   0  0  0  0  0  0  0  0  0  0  0  0
   27.8953  -23.6229  -19.7738 C   0  0  0  0  0  0  0  0  0  0  0  0
   27.6813  -24.4101  -20.7309 O   0  0  0  0  0  0  0  0  0  0  0  0
   26.1424  -27.7812  -17.2141 N   0  0  0  0  0  0  0  0  0  0  0  0
   27.0795  -27.0610  -16.4252 C   0  0  0  0  0  0  0  0  0  0  0  0
   27.5708  -27.6208  -15.4275 O   0  0  0  0  0  0  0  0  0  0  0  0
   27.4452  -25.6864  -16.7985 C   0  0  0  0  0  0  0  0  0  0  0  0
   26.9133  -25.3179  -18.1548 C   0  0  2  0  0  0  0  0  0  0  0  0
   27.4992  -24.0117  -18.4753 N   0  0  0  0  0  0  0  0  0  0  0  0
   25.4412  -25.2030  -18.1629 C   0  0  0  0  0  0  0  0  0  0  0  0
   24.8843  -24.2459  -17.5162 O   0  0  0  0  0  0  0  0  0  0  0  0
   21.4835  -27.3121  -22.6726 C   0  0  0  0  0  0  0  0  0  0  0  0
   20.1712  -26.7806  -21.5357 S   0  0  0  0  0  0  0  0  0  0  0  0
   20.9699  -26.0910  -20.0404 C   0  0  0  0  0  0  0  0  0  0  0  0
   22.4594  -26.3969  -20.0853 C   0  0  0  0  0  0  0  0  0  0  0  0
   23.1064  -25.8569  -18.8240 C   0  0  2  0  0  0  0  0  0  0  0  0
   24.5435  -26.0697  -18.8406 N   0  0  0  0  0  0  0  0  0  0  0  0
   22.4367  -26.3389  -17.6108 C   0  0  0  0  0  0  0  0  0  0  0  0
   21.4590  -25.7326  -17.1410 O   0  0  0  0  0  0  0  0  0  0  0  0
   22.8979  -27.4771  -16.9866 O   0  0  0  0  0  0  0  0  0  0  0  0
  1  2  1  0
  3  2  1  0
  4  3  1  0
  5  4  1  0
  5  6  1  6
  7  8  2  0
  7  5  1  0
  9 10  1  0
 10 12  1  0
 11 10  2  0
 13 12  1  1
 13 14  1  0
 14  7  1  0
 15 13  1  0
 15 16  2  0
 18 17  1  0
 19 20  1  0
 19 18  1  0
 21 22  1  0
 21 20  1  6
 22 15  1  0
 23 21  1  0
 24 23  2  0
 25 23  1  0
M  END
$$$$
