MNM.pdb
     RDKit          3D

 25 24  0  0  1  0  0  0  0  0999 V2000
   15.9242  -21.8700   10.1367 C   0  0  0  0  0  0  0  0  0  0  0  0
   14.6091  -21.0290    9.2532 S   0  0  0  0  0  0  0  0  0  0  0  0
   15.1209  -19.5144    8.4978 C   0  0  0  0  0  0  0  0  0  0  0  0
   16.5580  -19.3409    8.1892 C   0  0  0  0  0  0  0  0  0  0  0  0
   16.9682  -18.0266    7.7012 C   0  0  2  0  0  0  0  0  0  0  0  0
   16.5475  -17.6153    6.4105 N   0  0  0  0  0  0  0  0  0  0  0  0
   18.4702  -17.8358    7.7536 C   0  0  0  0  0  0  0  0  0  0  0  0
   19.1509  -17.8505    6.6962 O   0  0  0  0  0  0  0  0  0  0  0  0
   22.6828  -14.4687    8.5477 N   0  0  0  0  0  0  0  0  0  0  0  0
   22.2519  -15.7874    8.2401 C   0  0  0  0  0  0  0  0  0  0  0  0
   23.1087  -16.6345    7.9265 O   0  0  0  0  0  0  0  0  0  0  0  0
   20.8206  -16.1203    8.2973 C   0  0  0  0  0  0  0  0  0  0  0  0
   20.5701  -17.3629    9.1044 C   0  0  2  0  0  0  0  0  0  0  0  0
   19.1343  -17.6382    8.9840 N   0  0  0  0  0  0  0  0  0  0  0  0
   20.9097  -17.1787   10.5296 C   0  0  0  0  0  0  0  0  0  0  0  0
   20.1885  -16.4003   11.2495 O   0  0  0  0  0  0  0  0  0  0  0  0
   23.5197  -21.2984   14.9778 C   0  0  0  0  0  0  0  0  0  0  0  0
   24.2462  -19.7083   15.4688 S   0  0  0  0  0  0  0  0  0  0  0  0
   23.2396  -18.3765   14.7188 C   0  0  0  0  0  0  0  0  0  0  0  0
   23.1255  -18.6212   13.2218 C   0  0  0  0  0  0  0  0  0  0  0  0
   22.2739  -17.5240   12.6118 C   0  0  2  0  0  0  0  0  0  0  0  0
   21.9877  -17.7995   11.2143 N   0  0  0  0  0  0  0  0  0  0  0  0
   22.8296  -16.1898   12.8646 C   0  0  0  0  0  0  0  0  0  0  0  0
   23.6201  -15.6677   12.0603 O   0  0  0  0  0  0  0  0  0  0  0  0
   22.4696  -15.5091   14.0068 O   0  0  0  0  0  0  0  0  0  0  0  0
  1  2  1  0
  3  2  1  0
  4  3  1  0
  5  4  1  0
  5  6  1  6
  7  8  2  0
  7  5  1  0
  9 10  1  0
 10 12  1  0
 11 10  2  0
 13 12  1  6
 13 14  1  0
 14  7  1  0
 15 13  1  0
 15 16  2  0
 18 17  1  0
 19 20  1  0
 19 18  1  0
 21 22  1  0
 21 20  1  6
 22 15  1  0
 23 21  1  0
 24 23  2  0
 25 23  1  0
M  END
$$$$
