MNM.pdb
     RDKit          3D

 25 24  0  0  1  0  0  0  0  0999 V2000
   25.1422  -16.2470  -20.2159 C   0  0  0  0  0  0  0  0  0  0  0  0
   23.6182  -16.0583  -21.1429 S   0  0  0  0  0  0  0  0  0  0  0  0
   22.3155  -15.3036  -20.2156 C   0  0  0  0  0  0  0  0  0  0  0  0
   22.5134  -13.9166  -19.7383 C   0  0  0  0  0  0  0  0  0  0  0  0
   21.6118  -13.4516  -18.6873 C   0  0  2  0  0  0  0  0  0  0  0  0
   20.2553  -13.8646  -18.7188 N   0  0  0  0  0  0  0  0  0  0  0  0
   21.6071  -11.9421  -18.5588 C   0  0  0  0  0  0  0  0  0  0  0  0
   22.6875  -11.3106  -18.4334 O   0  0  0  0  0  0  0  0  0  0  0  0
   17.9351   -7.4145  -20.0311 N   0  0  0  0  0  0  0  0  0  0  0  0
   18.6491   -7.9708  -18.9357 C   0  0  0  0  0  0  0  0  0  0  0  0
   19.0698   -7.2039  -18.0497 O   0  0  0  0  0  0  0  0  0  0  0  0
   18.8739   -9.4227  -18.8717 C   0  0  0  0  0  0  0  0  0  0  0  0
   20.3204   -9.7518  -18.6313 C   0  0  2  0  0  0  0  0  0  0  0  0
   20.3962  -11.2158  -18.5774 N   0  0  0  0  0  0  0  0  0  0  0  0
   20.8134   -9.1945  -17.3559 C   0  0  0  0  0  0  0  0  0  0  0  0
   20.2701   -9.5702  -16.2568 O   0  0  0  0  0  0  0  0  0  0  0  0
   26.1130  -11.4191  -14.6825 C   0  0  0  0  0  0  0  0  0  0  0  0
   25.8424   -9.6694  -15.0859 S   0  0  0  0  0  0  0  0  0  0  0  0
   24.0475   -9.4251  -15.3464 C   0  0  0  0  0  0  0  0  0  0  0  0
   23.7916   -7.9733  -15.7212 C   0  0  0  0  0  0  0  0  0  0  0  0
   22.2997   -7.7740  -15.9105 C   0  0  2  0  0  0  0  0  0  0  0  0
   21.8684   -8.2550  -17.2118 N   0  0  0  0  0  0  0  0  0  0  0  0
   21.8834   -6.4010  -15.6039 C   0  0  0  0  0  0  0  0  0  0  0  0
   21.6989   -5.5747  -16.5136 O   0  0  0  0  0  0  0  0  0  0  0  0
   21.6951   -6.0249  -14.2921 O   0  0  0  0  0  0  0  0  0  0  0  0
  1  2  1  0
  3  2  1  0
  4  3  1  0
  5  4  1  0
  5  6  1  6
  7  8  2  0
  7  5  1  0
  9 10  1  0
 10 12  1  0
 11 10  2  0
 13 12  1  1
 13 14  1  0
 14  7  1  0
 15 13  1  0
 15 16  2  0
 18 17  1  0
 19 20  1  0
 19 18  1  0
 21 22  1  0
 21 20  1  6
 22 15  1  0
 23 21  1  0
 24 23  2  0
 25 23  1  0
M  END
$$$$
