MNM.pdb
     RDKit          3D

 25 24  0  0  1  0  0  0  0  0999 V2000
   25.4950  -17.8214  -19.2194 C   0  0  0  0  0  0  0  0  0  0  0  0
   27.2491  -17.8701  -18.8481 S   0  0  0  0  0  0  0  0  0  0  0  0
   27.6632  -18.9793  -17.5347 C   0  0  0  0  0  0  0  0  0  0  0  0
   26.8855  -18.8922  -16.2784 C   0  0  0  0  0  0  0  0  0  0  0  0
   27.3296  -19.7391  -15.1742 C   0  0  2  0  0  0  0  0  0  0  0  0
   27.3280  -21.1466  -15.3493 N   0  0  0  0  0  0  0  0  0  0  0  0
   26.5741  -19.4565  -13.8918 C   0  0  0  0  0  0  0  0  0  0  0  0
   26.3080  -18.2738  -13.5573 O   0  0  0  0  0  0  0  0  0  0  0  0
   22.9608  -21.4836  -14.4176 N   0  0  0  0  0  0  0  0  0  0  0  0
   23.2018  -20.7127  -13.2485 C   0  0  0  0  0  0  0  0  0  0  0  0
   22.6632  -19.5942  -13.1527 O   0  0  0  0  0  0  0  0  0  0  0  0
   24.0717  -21.2449  -12.1889 C   0  0  0  0  0  0  0  0  0  0  0  0
   25.2377  -20.3365  -11.9175 C   0  0  2  0  0  0  0  0  0  0  0  0
   26.1544  -20.5094  -13.0495 N   0  0  0  0  0  0  0  0  0  0  0  0
   25.9398  -20.6905  -10.6677 C   0  0  0  0  0  0  0  0  0  0  0  0
   26.4486  -21.8613  -10.5455 O   0  0  0  0  0  0  0  0  0  0  0  0
   29.2817  -19.6135   -3.6691 C   0  0  0  0  0  0  0  0  0  0  0  0
   28.7612  -18.8019   -5.2078 S   0  0  0  0  0  0  0  0  0  0  0  0
   27.6674  -19.9590   -6.1100 C   0  0  0  0  0  0  0  0  0  0  0  0
   27.2974  -19.3496   -7.4537 C   0  0  0  0  0  0  0  0  0  0  0  0
   26.4725  -20.3550   -8.2347 C   0  0  2  0  0  0  0  0  0  0  0  0
   26.1226  -19.8383   -9.5468 N   0  0  0  0  0  0  0  0  0  0  0  0
   25.3335  -20.8561   -7.4576 C   0  0  0  0  0  0  0  0  0  0  0  0
   24.1828  -20.4409   -7.6766 O   0  0  0  0  0  0  0  0  0  0  0  0
   25.5434  -21.7980   -6.4745 O   0  0  0  0  0  0  0  0  0  0  0  0
  1  2  1  0
  3  2  1  0
  4  3  1  0
  5  4  1  0
  5  6  1  6
  7  8  2  0
  7  5  1  0
  9 10  1  0
 10 12  1  0
 11 10  2  0
 13 12  1  6
 13 14  1  0
 14  7  1  0
 15 13  1  0
 15 16  2  0
 18 17  1  0
 19 20  1  0
 19 18  1  0
 21 22  1  0
 21 20  1  1
 22 15  1  0
 23 21  1  0
 24 23  2  0
 25 23  1  0
M  END
$$$$
