MNM.pdb
     RDKit          3D

 25 24  0  0  1  0  0  0  0  0999 V2000
   19.1885  -23.1038  -13.9374 C   0  0  0  0  0  0  0  0  0  0  0  0
   20.3987  -24.3983  -13.6598 S   0  0  0  0  0  0  0  0  0  0  0  0
   19.7311  -26.0304  -13.7920 C   0  0  0  0  0  0  0  0  0  0  0  0
   18.8937  -26.5325  -12.6797 C   0  0  0  0  0  0  0  0  0  0  0  0
   19.5041  -26.5383  -11.3526 C   0  0  2  0  0  0  0  0  0  0  0  0
   20.7139  -27.2533  -11.1601 N   0  0  0  0  0  0  0  0  0  0  0  0
   18.5433  -27.0065  -10.2789 C   0  0  0  0  0  0  0  0  0  0  0  0
   17.4524  -26.4079  -10.0960 O   0  0  0  0  0  0  0  0  0  0  0  0
   18.4174  -31.4749   -5.9796 N   0  0  0  0  0  0  0  0  0  0  0  0
   17.8158  -30.5208   -6.8439 C   0  0  0  0  0  0  0  0  0  0  0  0
   16.6121  -30.2474   -6.6811 O   0  0  0  0  0  0  0  0  0  0  0  0
   18.6171  -29.8838   -7.8997 C   0  0  0  0  0  0  0  0  0  0  0  0
   17.9750  -28.6205   -8.4000 C   0  0  2  0  0  0  0  0  0  0  0  0
   18.8501  -28.1191   -9.4652 N   0  0  0  0  0  0  0  0  0  0  0  0
   17.8643  -27.5961   -7.3423 C   0  0  0  0  0  0  0  0  0  0  0  0
   18.9259  -27.0114   -6.9233 O   0  0  0  0  0  0  0  0  0  0  0  0
   14.4574  -21.6645   -5.3988 C   0  0  0  0  0  0  0  0  0  0  0  0
   13.9831  -23.2490   -4.6495 S   0  0  0  0  0  0  0  0  0  0  0  0
   15.4761  -24.3051   -4.5787 C   0  0  0  0  0  0  0  0  0  0  0  0
   15.3740  -25.3842   -5.6459 C   0  0  0  0  0  0  0  0  0  0  0  0
   16.6538  -26.1987   -5.6400 C   0  0  2  0  0  0  0  0  0  0  0  0
   16.6609  -27.1701   -6.7204 N   0  0  0  0  0  0  0  0  0  0  0  0
   16.9424  -26.7625   -4.3166 C   0  0  0  0  0  0  0  0  0  0  0  0
   16.6234  -27.9315   -4.0405 O   0  0  0  0  0  0  0  0  0  0  0  0
   17.5747  -25.9862   -3.3704 O   0  0  0  0  0  0  0  0  0  0  0  0
  1  2  1  0
  3  2  1  0
  4  3  1  0
  5  4  1  0
  5  6  1  6
  7  8  2  0
  7  5  1  0
  9 10  1  0
 10 12  1  0
 11 10  2  0
 13 12  1  1
 13 14  1  0
 14  7  1  0
 15 13  1  0
 15 16  2  0
 18 17  1  0
 19 20  1  0
 19 18  1  0
 21 22  1  0
 21 20  1  1
 22 15  1  0
 23 21  1  0
 24 23  2  0
 25 23  1  0
M  END
$$$$
