MNM.pdb
     RDKit          3D

 25 24  0  0  1  0  0  0  0  0999 V2000
   37.5199  -31.2108  -14.0853 C   0  0  0  0  0  0  0  0  0  0  0  0
   36.7600  -29.5885  -13.9955 S   0  0  0  0  0  0  0  0  0  0  0  0
   36.5176  -28.8329  -15.5757 C   0  0  0  0  0  0  0  0  0  0  0  0
   35.8780  -27.4989  -15.6190 C   0  0  0  0  0  0  0  0  0  0  0  0
   35.7151  -26.8941  -16.9386 C   0  0  2  0  0  0  0  0  0  0  0  0
   36.8403  -26.8183  -17.7989 N   0  0  0  0  0  0  0  0  0  0  0  0
   35.1258  -25.5004  -16.8646 C   0  0  0  0  0  0  0  0  0  0  0  0
   35.8566  -24.4907  -17.0324 O   0  0  0  0  0  0  0  0  0  0  0  0
   33.4619  -22.3880  -19.1615 N   0  0  0  0  0  0  0  0  0  0  0  0
   33.3851  -23.7084  -19.6811 C   0  0  0  0  0  0  0  0  0  0  0  0
   33.6550  -23.8906  -20.8828 O   0  0  0  0  0  0  0  0  0  0  0  0
   32.9932  -24.8186  -18.7999 C   0  0  0  0  0  0  0  0  0  0  0  0
   32.8987  -24.3833  -17.3647 C   0  0  2  0  0  0  0  0  0  0  0  0
   33.7509  -25.3064  -16.6074 N   0  0  0  0  0  0  0  0  0  0  0  0
   31.5179  -24.4653  -16.8481 C   0  0  0  0  0  0  0  0  0  0  0  0
   30.9109  -25.5948  -16.8603 O   0  0  0  0  0  0  0  0  0  0  0  0
   28.5105  -19.7399  -13.7488 C   0  0  0  0  0  0  0  0  0  0  0  0
   28.2274  -19.6111  -15.5378 S   0  0  0  0  0  0  0  0  0  0  0  0
   28.8591  -21.1418  -16.3170 C   0  0  0  0  0  0  0  0  0  0  0  0
   28.8403  -22.2666  -15.2931 C   0  0  0  0  0  0  0  0  0  0  0  0
   29.3663  -23.5303  -15.9469 C   0  0  2  0  0  0  0  0  0  0  0  0
   30.7644  -23.3865  -16.3145 N   0  0  0  0  0  0  0  0  0  0  0  0
   28.4978  -23.9900  -17.0363 C   0  0  0  0  0  0  0  0  0  0  0  0
   27.4311  -24.5797  -16.7931 O   0  0  0  0  0  0  0  0  0  0  0  0
   28.8700  -23.7646  -18.3434 O   0  0  0  0  0  0  0  0  0  0  0  0
  1  2  1  0
  3  2  1  0
  4  3  1  0
  5  4  1  0
  5  6  1  1
  7  8  2  0
  7  5  1  0
  9 10  1  0
 10 12  1  0
 11 10  2  0
 13 12  1  6
 13 14  1  0
 14  7  1  0
 15 13  1  0
 15 16  2  0
 18 17  1  0
 19 20  1  0
 19 18  1  0
 21 22  1  0
 21 20  1  6
 22 15  1  0
 23 21  1  0
 24 23  2  0
 25 23  1  0
M  END
$$$$
