YIA.pdb
     RDKit          3D

 26 26  0  0  1  0  0  0  0  0999 V2000
    8.5581  -21.6004   30.4044 O   0  0  0  0  0  0  0  0  0  0  0  0
    8.3373  -21.1662   29.1147 C   0  0  0  0  0  0  0  0  0  0  0  0
    8.5022  -19.8235   28.8214 C   0  0  0  0  0  0  0  0  0  0  0  0
    8.2728  -19.4056   27.5063 C   0  0  0  0  0  0  0  0  0  0  0  0
    7.8978  -20.2773   26.5284 C   0  0  0  0  0  0  0  0  0  0  0  0
    7.6622  -19.8034   25.1439 C   0  0  0  0  0  0  0  0  0  0  0  0
    6.2966  -19.1131   25.1311 C   0  0  2  0  0  0  0  0  0  0  0  0
    5.3379  -19.9297   24.4538 N   0  0  0  0  0  0  0  0  0  0  0  0
    6.4231  -17.8064   24.4449 C   0  0  0  0  0  0  0  0  0  0  0  0
    6.2468  -17.6764   23.1966 O   0  0  0  0  0  0  0  0  0  0  0  0
    7.7403  -21.6026   26.8407 C   0  0  0  0  0  0  0  0  0  0  0  0
    7.9593  -22.0641   28.1433 C   0  0  0  0  0  0  0  0  0  0  0  0
    6.7448  -11.9598   26.2827 C   0  0  0  0  0  0  0  0  0  0  0  0
    6.9886  -12.9254   25.1128 C   0  0  0  0  0  0  0  0  0  0  0  0
    6.8396  -14.3388   25.5583 C   0  0  2  0  0  0  0  0  0  0  0  0
    7.5396  -14.6042   26.8654 C   0  0  0  0  0  0  0  0  0  0  0  0
    7.1359  -15.3830   24.5094 C   0  0  2  0  0  0  0  0  0  0  0  0
    6.7480  -16.6530   25.1720 N   0  0  0  0  0  0  0  0  0  0  0  0
    8.5562  -15.4802   24.1380 C   0  0  0  0  0  0  0  0  0  0  0  0
    9.3651  -16.0530   24.9342 O   0  0  0  0  0  0  0  0  0  0  0  0
   10.4583  -15.1163   20.9180 C   0  0  0  0  0  0  0  0  0  0  0  0
   10.2732  -15.5351   22.3714 C   0  0  2  0  0  0  0  0  0  0  0  0
    9.0684  -14.9662   22.9272 N   0  0  0  0  0  0  0  0  0  0  0  0
   11.4255  -15.0617   23.1713 C   0  0  0  0  0  0  0  0  0  0  0  0
   12.7050  -15.5328   22.8892 O   0  0  0  0  0  0  0  0  0  0  0  0
   11.2538  -14.2464   24.0921 O   0  0  0  0  0  0  0  0  0  0  0  0
  2  1  1  0
  2  3  2  0
  4  3  1  0
  5  4  2  0
  6  5  1  0
  7  9  1  0
  7  6  1  0
  7  8  1  6
  9 18  1  0
  9 10  2  0
 11 12  2  0
 11  5  1  0
 12  2  1  0
 14 15  1  0
 14 13  1  0
 15 16  1  1
 17 15  1  0
 17 18  1  1
 19 23  1  0
 19 17  1  0
 20 19  2  0
 22 21  1  6
 22 24  1  0
 22 23  1  0
 24 25  1  0
 26 24  2  0
M  END
$$$$
