YIA.pdb
     RDKit          3D

 26 26  0  0  1  0  0  0  0  0999 V2000
   -1.4135  -32.1774   30.0008 O   0  0  0  0  0  0  0  0  0  0  0  0
   -2.0509  -31.0161   30.3826 C   0  0  0  0  0  0  0  0  0  0  0  0
   -2.4741  -30.1309   29.4062 C   0  0  0  0  0  0  0  0  0  0  0  0
   -3.1184  -28.9592   29.8167 C   0  0  0  0  0  0  0  0  0  0  0  0
   -3.3330  -28.6783   31.1327 C   0  0  0  0  0  0  0  0  0  0  0  0
   -4.0190  -27.4277   31.5359 C   0  0  0  0  0  0  0  0  0  0  0  0
   -2.9882  -26.3003   31.4462 C   0  0  2  0  0  0  0  0  0  0  0  0
   -2.1158  -26.3391   32.5785 N   0  0  0  0  0  0  0  0  0  0  0  0
   -3.6976  -25.0008   31.3982 C   0  0  0  0  0  0  0  0  0  0  0  0
   -3.8437  -24.2700   32.4234 O   0  0  0  0  0  0  0  0  0  0  0  0
   -2.9058  -29.5686   32.0831 C   0  0  0  0  0  0  0  0  0  0  0  0
   -2.2569  -30.7529   31.7172 C   0  0  0  0  0  0  0  0  0  0  0  0
   -3.8977  -20.4423   27.6648 C   0  0  0  0  0  0  0  0  0  0  0  0
   -4.8149  -21.1818   28.6508 C   0  0  0  0  0  0  0  0  0  0  0  0
   -4.1884  -22.4576   29.0956 C   0  0  2  0  0  0  0  0  0  0  0  0
   -3.7058  -23.2926   27.9385 C   0  0  0  0  0  0  0  0  0  0  0  0
   -4.9827  -23.2522   30.1037 C   0  0  2  0  0  0  0  0  0  0  0  0
   -4.2384  -24.5330   30.1928 N   0  0  0  0  0  0  0  0  0  0  0  0
   -6.3598  -23.5558   29.6840 C   0  0  0  0  0  0  0  0  0  0  0  0
   -6.5546  -24.1005   28.5519 O   0  0  0  0  0  0  0  0  0  0  0  0
   -9.7191  -24.0422   31.1264 C   0  0  0  0  0  0  0  0  0  0  0  0
   -8.8041  -23.5925   29.9939 C   0  0  2  0  0  0  0  0  0  0  0  0
   -7.4856  -23.2719   30.4868 N   0  0  0  0  0  0  0  0  0  0  0  0
   -9.3700  -22.3839   29.3533 C   0  0  0  0  0  0  0  0  0  0  0  0
  -10.2217  -22.5138   28.2595 O   0  0  0  0  0  0  0  0  0  0  0  0
   -9.0874  -21.2557   29.7886 O   0  0  0  0  0  0  0  0  0  0  0  0
  2  1  1  0
  2  3  2  0
  4  3  1  0
  5  4  2  0
  6  5  1  0
  7  9  1  0
  7  6  1  0
  7  8  1  1
  9 18  1  0
  9 10  2  0
 11 12  2  0
 11  5  1  0
 12  2  1  0
 14 15  1  0
 14 13  1  0
 15 16  1  6
 17 15  1  0
 17 18  1  6
 19 23  1  0
 19 17  1  0
 20 19  2  0
 22 21  1  1
 22 24  1  0
 22 23  1  0
 24 25  1  0
 26 24  2  0
M  END
$$$$
