YIA.pdb
     RDKit          3D

 26 26  0  0  1  0  0  0  0  0999 V2000
    7.5795  -13.6326   15.9272 O   0  0  0  0  0  0  0  0  0  0  0  0
    7.6378  -14.0070   17.2527 C   0  0  0  0  0  0  0  0  0  0  0  0
    7.2978  -15.3033   17.5992 C   0  0  0  0  0  0  0  0  0  0  0  0
    7.3643  -15.6609   18.9499 C   0  0  0  0  0  0  0  0  0  0  0  0
    7.7496  -14.7757   19.9114 C   0  0  0  0  0  0  0  0  0  0  0  0
    7.8100  -15.1853   21.3346 C   0  0  0  0  0  0  0  0  0  0  0  0
    9.2141  -14.8478   21.8405 C   0  0  2  0  0  0  0  0  0  0  0  0
   10.1719  -15.7435   21.2704 N   0  0  0  0  0  0  0  0  0  0  0  0
    9.2343  -14.9587   23.3176 C   0  0  0  0  0  0  0  0  0  0  0  0
   10.1536  -15.5713   23.9389 O   0  0  0  0  0  0  0  0  0  0  0  0
    8.0820  -13.4971   19.5462 C   0  0  0  0  0  0  0  0  0  0  0  0
    8.0296  -13.0965   18.2067 C   0  0  0  0  0  0  0  0  0  0  0  0
    6.1436  -11.4945   27.3498 C   0  0  0  0  0  0  0  0  0  0  0  0
    7.2879  -12.5066   27.1870 C   0  0  0  0  0  0  0  0  0  0  0  0
    7.3199  -13.0448   25.7986 C   0  0  2  0  0  0  0  0  0  0  0  0
    5.9569  -13.4680   25.3168 C   0  0  0  0  0  0  0  0  0  0  0  0
    8.3864  -14.0785   25.5293 C   0  0  2  0  0  0  0  0  0  0  0  0
    8.2161  -14.3774   24.0856 N   0  0  0  0  0  0  0  0  0  0  0  0
    8.2131  -15.3342   26.2762 C   0  0  0  0  0  0  0  0  0  0  0  0
    8.2962  -15.3149   27.5447 O   0  0  0  0  0  0  0  0  0  0  0  0
    6.8202  -18.7388   25.7250 C   0  0  0  0  0  0  0  0  0  0  0  0
    7.7060  -17.7387   26.4579 C   0  0  2  0  0  0  0  0  0  0  0  0
    7.9532  -16.5705   25.6466 N   0  0  0  0  0  0  0  0  0  0  0  0
    9.0064  -18.3715   26.7743 C   0  0  0  0  0  0  0  0  0  0  0  0
   10.1823  -17.8344   26.2572 O   0  0  0  0  0  0  0  0  0  0  0  0
    9.0510  -19.3789   27.4990 O   0  0  0  0  0  0  0  0  0  0  0  0
  2  1  1  0
  2  3  2  0
  4  3  1  0
  5  4  2  0
  6  5  1  0
  7  9  1  0
  7  6  1  0
  7  8  1  6
  9 18  1  0
  9 10  2  0
 11 12  2  0
 11  5  1  0
 12  2  1  0
 14 15  1  0
 14 13  1  0
 15 16  1  1
 17 15  1  0
 17 18  1  6
 19 23  1  0
 19 17  1  0
 20 19  2  0
 22 21  1  6
 22 24  1  0
 22 23  1  0
 24 25  1  0
 26 24  2  0
M  END
$$$$
