YIA.pdb
     RDKit          3D

 26 26  0  0  1  0  0  0  0  0999 V2000
   14.4536  -17.3144   12.0407 O   0  0  0  0  0  0  0  0  0  0  0  0
   14.1957  -17.1218   13.3812 C   0  0  0  0  0  0  0  0  0  0  0  0
   13.6327  -15.9254   13.7910 C   0  0  0  0  0  0  0  0  0  0  0  0
   13.3798  -15.7520   15.1557 C   0  0  0  0  0  0  0  0  0  0  0  0
   13.6711  -16.7186   16.0709 C   0  0  0  0  0  0  0  0  0  0  0  0
   13.3910  -16.5046   17.5106 C   0  0  0  0  0  0  0  0  0  0  0  0
   13.0867  -15.0161   17.6932 C   0  0  2  0  0  0  0  0  0  0  0  0
   14.2840  -14.2473   17.5510 N   0  0  0  0  0  0  0  0  0  0  0  0
   12.5060  -14.8040   19.0394 C   0  0  0  0  0  0  0  0  0  0  0  0
   13.2188  -14.5181   20.0477 O   0  0  0  0  0  0  0  0  0  0  0  0
   14.2282  -17.8957   15.6435 C   0  0  0  0  0  0  0  0  0  0  0  0
   14.4980  -18.1116   14.2877 C   0  0  0  0  0  0  0  0  0  0  0  0
    7.7753  -12.4145   18.8041 C   0  0  0  0  0  0  0  0  0  0  0  0
    9.1934  -12.8681   19.1829 C   0  0  0  0  0  0  0  0  0  0  0  0
    9.1424  -14.0195   20.1262 C   0  0  2  0  0  0  0  0  0  0  0  0
    8.2312  -13.7605   21.2974 C   0  0  0  0  0  0  0  0  0  0  0  0
   10.4823  -14.5808   20.5360 C   0  0  2  0  0  0  0  0  0  0  0  0
   11.1235  -14.9159   19.2401 N   0  0  0  0  0  0  0  0  0  0  0  0
   10.4022  -15.8136   21.3349 C   0  0  0  0  0  0  0  0  0  0  0  0
    9.7571  -16.8075   20.8741 O   0  0  0  0  0  0  0  0  0  0  0  0
   12.1876  -17.3899   24.1928 C   0  0  0  0  0  0  0  0  0  0  0  0
   10.9906  -17.2299   23.2637 C   0  0  2  0  0  0  0  0  0  0  0  0
   11.0157  -15.9486   22.5990 N   0  0  0  0  0  0  0  0  0  0  0  0
    9.7400  -17.3236   24.0504 C   0  0  0  0  0  0  0  0  0  0  0  0
    8.8648  -16.2415   24.0917 O   0  0  0  0  0  0  0  0  0  0  0  0
    9.4700  -18.3638   24.6727 O   0  0  0  0  0  0  0  0  0  0  0  0
  2  1  1  0
  2  3  2  0
  4  3  1  0
  5  4  2  0
  6  5  1  0
  7  9  1  0
  7  6  1  0
  7  8  1  1
  9 18  1  0
  9 10  2  0
 11 12  2  0
 11  5  1  0
 12  2  1  0
 14 15  1  0
 14 13  1  0
 15 16  1  1
 17 15  1  0
 17 18  1  6
 19 23  1  0
 19 17  1  0
 20 19  2  0
 22 21  1  1
 22 24  1  0
 22 23  1  0
 24 25  1  0
 26 24  2  0
M  END
$$$$
