YIA.pdb
     RDKit          3D

 26 26  0  0  1  0  0  0  0  0999 V2000
    7.9635  -20.1940   17.5015 O   0  0  0  0  0  0  0  0  0  0  0  0
    8.4532  -19.3989   18.5156 C   0  0  0  0  0  0  0  0  0  0  0  0
    7.7205  -19.2738   19.6833 C   0  0  0  0  0  0  0  0  0  0  0  0
    8.2367  -18.4619   20.6987 C   0  0  0  0  0  0  0  0  0  0  0  0
    9.4229  -17.8052   20.5630 C   0  0  0  0  0  0  0  0  0  0  0  0
    9.9433  -16.9520   21.6576 C   0  0  0  0  0  0  0  0  0  0  0  0
    8.9506  -15.8023   21.8425 C   0  0  2  0  0  0  0  0  0  0  0  0
    8.9312  -14.9756   20.6759 N   0  0  0  0  0  0  0  0  0  0  0  0
    9.3529  -15.0026   23.0228 C   0  0  0  0  0  0  0  0  0  0  0  0
   10.3168  -14.1803   22.9878 O   0  0  0  0  0  0  0  0  0  0  0  0
   10.1322  -17.9431   19.3983 C   0  0  0  0  0  0  0  0  0  0  0  0
    9.6532  -18.7451   18.3568 C   0  0  0  0  0  0  0  0  0  0  0  0
    5.6146  -12.4033   25.4315 C   0  0  0  0  0  0  0  0  0  0  0  0
    6.9931  -12.8346   24.9080 C   0  0  0  0  0  0  0  0  0  0  0  0
    7.6443  -13.7785   25.8584 C   0  0  2  0  0  0  0  0  0  0  0  0
    7.6457  -13.2581   27.2719 C   0  0  0  0  0  0  0  0  0  0  0  0
    8.9897  -14.3084   25.4251 C   0  0  2  0  0  0  0  0  0  0  0  0
    8.6648  -15.1355   24.2364 N   0  0  0  0  0  0  0  0  0  0  0  0
    9.6451  -15.1758   26.4162 C   0  0  0  0  0  0  0  0  0  0  0  0
    9.3233  -16.4046   26.4705 O   0  0  0  0  0  0  0  0  0  0  0  0
   12.1031  -14.8957   29.2585 C   0  0  0  0  0  0  0  0  0  0  0  0
   11.2327  -15.6291   28.2455 C   0  0  2  0  0  0  0  0  0  0  0  0
   10.6258  -14.7060   27.3162 N   0  0  0  0  0  0  0  0  0  0  0  0
   10.1546  -16.3540   28.9552 C   0  0  0  0  0  0  0  0  0  0  0  0
   10.1895  -17.7437   29.0340 O   0  0  0  0  0  0  0  0  0  0  0  0
    9.2203  -15.7263   29.4799 O   0  0  0  0  0  0  0  0  0  0  0  0
  2  1  1  0
  2  3  2  0
  4  3  1  0
  5  4  2  0
  6  5  1  0
  7  9  1  0
  7  6  1  0
  7  8  1  6
  9 18  1  0
  9 10  2  0
 11 12  2  0
 11  5  1  0
 12  2  1  0
 14 15  1  0
 14 13  1  0
 15 16  1  1
 17 15  1  0
 17 18  1  6
 19 23  1  0
 19 17  1  0
 20 19  2  0
 22 21  1  1
 22 24  1  0
 22 23  1  0
 24 25  1  0
 26 24  2  0
M  END
$$$$
