YIA.pdb
     RDKit          3D

 26 26  0  0  1  0  0  0  0  0999 V2000
    6.7834  -10.5473   27.3361 O   0  0  0  0  0  0  0  0  0  0  0  0
    6.9681  -11.8886   27.0767 C   0  0  0  0  0  0  0  0  0  0  0  0
    5.9272  -12.7684   27.3191 C   0  0  0  0  0  0  0  0  0  0  0  0
    6.1372  -14.1246   27.0486 C   0  0  0  0  0  0  0  0  0  0  0  0
    7.3227  -14.5869   26.5611 C   0  0  0  0  0  0  0  0  0  0  0  0
    7.5141  -16.0305   26.2847 C   0  0  0  0  0  0  0  0  0  0  0  0
    6.5433  -16.4062   25.1632 C   0  0  2  0  0  0  0  0  0  0  0  0
    5.7713  -17.5487   25.5419 N   0  0  0  0  0  0  0  0  0  0  0  0
    7.3166  -16.7025   23.9349 C   0  0  0  0  0  0  0  0  0  0  0  0
    7.7866  -17.8540   23.6911 O   0  0  0  0  0  0  0  0  0  0  0  0
    8.3401  -13.6984   26.3284 C   0  0  0  0  0  0  0  0  0  0  0  0
    8.1736  -12.3332   26.5848 C   0  0  0  0  0  0  0  0  0  0  0  0
    8.1087  -12.3986   20.2074 C   0  0  0  0  0  0  0  0  0  0  0  0
    8.4580  -13.4650   21.2567 C   0  0  0  0  0  0  0  0  0  0  0  0
    7.9244  -14.7953   20.8518 C   0  0  2  0  0  0  0  0  0  0  0  0
    6.4467  -14.7556   20.5624 C   0  0  0  0  0  0  0  0  0  0  0  0
    8.3191  -15.9493   21.7412 C   0  0  2  0  0  0  0  0  0  0  0  0
    7.5550  -15.6970   22.9882 N   0  0  0  0  0  0  0  0  0  0  0  0
    9.7492  -15.9857   22.0847 C   0  0  0  0  0  0  0  0  0  0  0  0
   10.2346  -15.0593   22.8077 O   0  0  0  0  0  0  0  0  0  0  0  0
   12.5176  -18.4222   22.2680 C   0  0  0  0  0  0  0  0  0  0  0  0
   11.9932  -17.0037   22.0817 C   0  0  2  0  0  0  0  0  0  0  0  0
   10.6160  -17.0109   21.6489 N   0  0  0  0  0  0  0  0  0  0  0  0
   12.8023  -16.3101   21.0540 C   0  0  0  0  0  0  0  0  0  0  0  0
   12.2248  -15.9634   19.8354 O   0  0  0  0  0  0  0  0  0  0  0  0
   13.9932  -16.0373   21.2759 O   0  0  0  0  0  0  0  0  0  0  0  0
  2  1  1  0
  2  3  2  0
  4  3  1  0
  5  4  2  0
  6  5  1  0
  7  9  1  0
  7  6  1  0
  7  8  1  1
  9 18  1  0
  9 10  2  0
 11 12  2  0
 11  5  1  0
 12  2  1  0
 14 15  1  0
 14 13  1  0
 15 16  1  1
 17 15  1  0
 17 18  1  1
 19 23  1  0
 19 17  1  0
 20 19  2  0
 22 21  1  6
 22 24  1  0
 22 23  1  0
 24 25  1  0
 26 24  2  0
M  END
$$$$
