WEI.pdb
     RDKit          3D

 32 33  0  0  1  0  0  0  0  0999 V2000
    6.3328  -17.0491   24.1236 N   0  0  0  0  0  0  0  0  0  0  0  0
    7.6159  -16.5023   23.7713 C   0  0  1  0  0  0  0  0  0  0  0  0
    7.9646  -15.2433   24.5497 C   0  0  0  0  0  0  0  0  0  0  0  0
    7.2724  -14.1295   23.8521 C   0  0  0  0  0  0  0  0  0  0  0  0
    6.1726  -13.4346   24.3007 C   0  0  0  0  0  0  0  0  0  0  0  0
    5.8326  -12.5350   23.3559 N   0  0  0  0  0  0  0  0  0  0  0  0
    6.6858  -12.6315   22.3086 C   0  0  0  0  0  0  0  0  0  0  0  0
    6.7981  -11.9654   21.1104 C   0  0  0  0  0  0  0  0  0  0  0  0
    7.7722  -12.2425   20.1935 C   0  0  0  0  0  0  0  0  0  0  0  0
    8.6823  -13.2322   20.4814 C   0  0  0  0  0  0  0  0  0  0  0  0
    8.5890  -13.9189   21.6852 C   0  0  0  0  0  0  0  0  0  0  0  0
    7.6052  -13.6422   22.6142 C   0  0  0  0  0  0  0  0  0  0  0  0
    8.6615  -17.5094   24.1504 C   0  0  0  0  0  0  0  0  0  0  0  0
    8.4973  -18.2266   25.1649 O   0  0  0  0  0  0  0  0  0  0  0  0
    9.8441  -17.6699   23.3770 N   0  0  0  0  0  0  0  0  0  0  0  0
   11.0790  -18.1609   24.0318 C   0  0  1  0  0  0  0  0  0  0  0  0
   12.1443  -18.2983   22.9499 C   0  0  0  0  0  0  0  0  0  0  0  0
   13.4641  -18.7400   23.5024 C   0  0  0  0  0  0  0  0  0  0  0  0
   14.5437  -18.8570   22.4989 C   0  0  0  0  0  0  0  0  0  0  0  0
   15.6272  -18.2063   22.6899 O   0  0  0  0  0  0  0  0  0  0  0  0
   11.4627  -17.2985   25.1433 C   0  0  0  0  0  0  0  0  0  0  0  0
   11.9761  -16.1667   24.9590 O   0  0  0  0  0  0  0  0  0  0  0  0
   14.4952  -19.6099   21.3592 O   0  0  0  0  0  0  0  0  0  0  0  0
   10.5116  -13.2177   28.5993 C   0  0  0  0  0  0  0  0  0  0  0  0
   11.3244  -14.4673   28.5813 C   0  0  0  0  0  0  0  0  0  0  0  0
   11.0334  -15.4295   27.4918 C   0  0  2  0  0  0  0  0  0  0  0  0
    9.5345  -15.6708   27.4723 C   0  0  0  0  0  0  0  0  0  0  0  0
   11.7300  -16.7642   27.6119 C   0  0  2  0  0  0  0  0  0  0  0  0
   11.2943  -17.6443   26.5340 N   0  0  0  0  0  0  0  0  0  0  0  0
   11.6068  -17.3726   28.9296 C   0  0  0  0  0  0  0  0  0  0  0  0
   12.1589  -16.7992   29.9242 O   0  0  0  0  0  0  0  0  0  0  0  0
   10.9356  -18.5425   29.2391 O   0  0  0  0  0  0  0  0  0  0  0  0
  2  1  1  1
  3  2  1  0
  3  4  1  0
  4  5  2  0
  5  6  1  0
  7  6  1  0
  8  7  2  0
  9  8  1  0
 10 11  1  0
 10  9  2  0
 11 12  2  0
 12  4  1  0
 12  7  1  0
 13 14  2  0
 13  2  1  0
 15 13  1  0
 16 15  1  0
 16 17  1  6
 18 17  1  0
 19 23  1  0
 19 18  1  0
 20 19  2  0
 21 29  1  0
 21 16  1  0
 22 21  2  0
 25 24  1  0
 26 25  1  0
 26 27  1  1
 28 26  1  0
 28 30  1  0
 28 29  1  6
 30 32  1  0
 31 30  2  0
M  END
$$$$
