WEI.pdb
     RDKit          3D

 32 33  0  0  1  0  0  0  0  0999 V2000
    6.1245  -17.0840   25.2410 N   0  0  0  0  0  0  0  0  0  0  0  0
    7.2320  -16.5527   24.4923 C   0  0  1  0  0  0  0  0  0  0  0  0
    7.7895  -15.2654   25.0795 C   0  0  0  0  0  0  0  0  0  0  0  0
    7.0244  -14.1633   24.4422 C   0  0  0  0  0  0  0  0  0  0  0  0
    6.0146  -13.4242   25.0148 C   0  0  0  0  0  0  0  0  0  0  0  0
    5.5580  -12.5546   24.0914 N   0  0  0  0  0  0  0  0  0  0  0  0
    6.2479  -12.7135   22.9370 C   0  0  0  0  0  0  0  0  0  0  0  0
    6.1974  -12.0984   21.7078 C   0  0  0  0  0  0  0  0  0  0  0  0
    7.0226  -12.4356   20.6725 C   0  0  0  0  0  0  0  0  0  0  0  0
    7.9461  -13.4354   20.8680 C   0  0  0  0  0  0  0  0  0  0  0  0
    8.0158  -14.0714   22.1009 C   0  0  0  0  0  0  0  0  0  0  0  0
    7.1828  -13.7338   23.1495 C   0  0  0  0  0  0  0  0  0  0  0  0
    8.3539  -17.5460   24.5689 C   0  0  0  0  0  0  0  0  0  0  0  0
    8.2739  -18.5170   25.3572 O   0  0  0  0  0  0  0  0  0  0  0  0
    9.5153  -17.4093   23.7596 N   0  0  0  0  0  0  0  0  0  0  0  0
   10.8129  -17.9210   24.2589 C   0  0  1  0  0  0  0  0  0  0  0  0
   11.8036  -17.8556   23.1021 C   0  0  0  0  0  0  0  0  0  0  0  0
   11.1264  -17.9108   21.7677 C   0  0  0  0  0  0  0  0  0  0  0  0
   11.8693  -17.2518   20.6722 C   0  0  0  0  0  0  0  0  0  0  0  0
   13.1195  -17.0353   20.8270 O   0  0  0  0  0  0  0  0  0  0  0  0
   11.2379  -17.1991   25.4524 C   0  0  0  0  0  0  0  0  0  0  0  0
   11.8782  -16.1203   25.3831 O   0  0  0  0  0  0  0  0  0  0  0  0
   11.3373  -16.8408   19.4821 O   0  0  0  0  0  0  0  0  0  0  0  0
    8.9584  -13.8227   27.7981 C   0  0  0  0  0  0  0  0  0  0  0  0
   10.1076  -14.7219   27.4929 C   0  0  0  0  0  0  0  0  0  0  0  0
   10.2620  -15.9146   28.3595 C   0  0  2  0  0  0  0  0  0  0  0  0
   10.5212  -15.4307   29.7751 C   0  0  0  0  0  0  0  0  0  0  0  0
   11.3768  -16.8541   27.9649 C   0  0  2  0  0  0  0  0  0  0  0  0
   10.9722  -17.6351   26.8019 N   0  0  0  0  0  0  0  0  0  0  0  0
   11.8649  -17.6775   29.0628 C   0  0  0  0  0  0  0  0  0  0  0  0
   11.4892  -18.8928   29.1324 O   0  0  0  0  0  0  0  0  0  0  0  0
   12.7201  -17.2803   30.0755 O   0  0  0  0  0  0  0  0  0  0  0  0
  2  1  1  1
  3  2  1  0
  3  4  1  0
  4  5  2  0
  5  6  1  0
  7  6  1  0
  8  7  2  0
  9  8  1  0
 10 11  1  0
 10  9  2  0
 11 12  2  0
 12  4  1  0
 12  7  1  0
 13 14  2  0
 13  2  1  0
 15 13  1  0
 16 15  1  0
 16 17  1  6
 18 17  1  0
 19 23  1  0
 19 18  1  0
 20 19  2  0
 21 29  1  0
 21 16  1  0
 22 21  2  0
 25 24  1  0
 26 25  1  0
 26 27  1  1
 28 26  1  0
 28 30  1  0
 28 29  1  6
 30 32  1  0
 31 30  2  0
M  END
$$$$
