WEI.pdb
     RDKit          3D

 32 33  0  0  1  0  0  0  0  0999 V2000
    7.0669  -18.2203   21.3803 N   0  0  0  0  0  0  0  0  0  0  0  0
    7.5046  -16.9210   21.8158 C   0  0  1  0  0  0  0  0  0  0  0  0
    6.3827  -16.0746   22.3969 C   0  0  0  0  0  0  0  0  0  0  0  0
    6.8923  -14.6795   22.4120 C   0  0  0  0  0  0  0  0  0  0  0  0
    7.4778  -14.0058   21.3645 C   0  0  0  0  0  0  0  0  0  0  0  0
    7.8347  -12.7817   21.8021 N   0  0  0  0  0  0  0  0  0  0  0  0
    7.4939  -12.6479   23.1060 C   0  0  0  0  0  0  0  0  0  0  0  0
    7.6185  -11.6282   24.0205 C   0  0  0  0  0  0  0  0  0  0  0  0
    7.1812  -11.7284   25.3109 C   0  0  0  0  0  0  0  0  0  0  0  0
    6.5891  -12.9022   25.7141 C   0  0  0  0  0  0  0  0  0  0  0  0
    6.4523  -13.9462   24.8082 C   0  0  0  0  0  0  0  0  0  0  0  0
    6.8938  -13.8489   23.5033 C   0  0  0  0  0  0  0  0  0  0  0  0
    8.4788  -17.1198   22.9394 C   0  0  0  0  0  0  0  0  0  0  0  0
    8.0745  -17.5440   24.0472 O   0  0  0  0  0  0  0  0  0  0  0  0
    9.8624  -16.8360   22.7734 N   0  0  0  0  0  0  0  0  0  0  0  0
   10.8331  -17.3465   23.7694 C   0  0  1  0  0  0  0  0  0  0  0  0
   12.1314  -17.6451   23.0283 C   0  0  0  0  0  0  0  0  0  0  0  0
   13.1786  -18.2288   23.9254 C   0  0  0  0  0  0  0  0  0  0  0  0
   14.4681  -18.5162   23.2613 C   0  0  0  0  0  0  0  0  0  0  0  0
   14.5735  -19.5868   22.5711 O   0  0  0  0  0  0  0  0  0  0  0  0
   10.9802  -16.4174   24.8836 C   0  0  0  0  0  0  0  0  0  0  0  0
   11.5948  -15.3282   24.7633 O   0  0  0  0  0  0  0  0  0  0  0  0
   15.5856  -17.7309   23.3153 O   0  0  0  0  0  0  0  0  0  0  0  0
    7.8706  -13.9948   28.2990 C   0  0  0  0  0  0  0  0  0  0  0  0
    8.7316  -15.1098   27.8112 C   0  0  0  0  0  0  0  0  0  0  0  0
   10.1958  -14.8820   27.8548 C   0  0  2  0  0  0  0  0  0  0  0  0
   10.5071  -13.6868   26.9718 C   0  0  0  0  0  0  0  0  0  0  0  0
   11.0400  -16.0472   27.3957 C   0  0  2  0  0  0  0  0  0  0  0  0
   10.4468  -16.6444   26.2050 N   0  0  0  0  0  0  0  0  0  0  0  0
   11.3155  -17.0199   28.4443 C   0  0  0  0  0  0  0  0  0  0  0  0
   10.9098  -18.2178   28.2920 O   0  0  0  0  0  0  0  0  0  0  0  0
   11.9910  -16.7870   29.6294 O   0  0  0  0  0  0  0  0  0  0  0  0
  2  1  1  1
  3  2  1  0
  3  4  1  0
  4  5  2  0
  5  6  1  0
  7  6  1  0
  8  7  2  0
  9  8  1  0
 10 11  1  0
 10  9  2  0
 11 12  2  0
 12  4  1  0
 12  7  1  0
 13 14  2  0
 13  2  1  0
 15 13  1  0
 16 15  1  0
 16 17  1  6
 18 17  1  0
 19 23  1  0
 19 18  1  0
 20 19  2  0
 21 29  1  0
 21 16  1  0
 22 21  2  0
 25 24  1  0
 26 25  1  0
 26 27  1  6
 28 26  1  0
 28 30  1  0
 28 29  1  6
 30 32  1  0
 31 30  2  0
M  END
$$$$
