WEI.pdb
     RDKit          3D

 32 33  0  0  1  0  0  0  0  0999 V2000
    6.3589  -18.9596   22.7168 N   0  0  0  0  0  0  0  0  0  0  0  0
    7.1765  -17.8229   22.3866 C   0  0  1  0  0  0  0  0  0  0  0  0
    6.5054  -16.4931   22.6930 C   0  0  0  0  0  0  0  0  0  0  0  0
    6.6969  -15.6529   21.4832 C   0  0  0  0  0  0  0  0  0  0  0  0
    6.4801  -16.0291   20.1773 C   0  0  0  0  0  0  0  0  0  0  0  0
    6.8103  -14.9911   19.3830 N   0  0  0  0  0  0  0  0  0  0  0  0
    7.2345  -13.9539   20.1435 C   0  0  0  0  0  0  0  0  0  0  0  0
    7.6744  -12.6828   19.8560 C   0  0  0  0  0  0  0  0  0  0  0  0
    8.0514  -11.7903   20.8192 C   0  0  0  0  0  0  0  0  0  0  0  0
    7.9881  -12.1800   22.1362 C   0  0  0  0  0  0  0  0  0  0  0  0
    7.5473  -13.4591   22.4512 C   0  0  0  0  0  0  0  0  0  0  0  0
    7.1661  -14.3643   21.4803 C   0  0  0  0  0  0  0  0  0  0  0  0
    8.3950  -17.8669   23.2609 C   0  0  0  0  0  0  0  0  0  0  0  0
    8.2735  -18.0864   24.4887 O   0  0  0  0  0  0  0  0  0  0  0  0
    9.6955  -17.6641   22.7224 N   0  0  0  0  0  0  0  0  0  0  0  0
   10.8590  -17.6024   23.6375 C   0  0  1  0  0  0  0  0  0  0  0  0
   12.1140  -17.5360   22.7746 C   0  0  0  0  0  0  0  0  0  0  0  0
   13.3595  -17.3807   23.5911 C   0  0  0  0  0  0  0  0  0  0  0  0
   14.6109  -17.3420   22.8043 C   0  0  0  0  0  0  0  0  0  0  0  0
   15.0131  -16.2158   22.3529 O   0  0  0  0  0  0  0  0  0  0  0  0
   10.7247  -16.5015   24.5842 C   0  0  0  0  0  0  0  0  0  0  0  0
   10.8626  -15.3031   24.2329 O   0  0  0  0  0  0  0  0  0  0  0  0
   15.3980  -18.4184   22.5044 O   0  0  0  0  0  0  0  0  0  0  0  0
    8.4748  -12.3183   27.3309 C   0  0  0  0  0  0  0  0  0  0  0  0
    9.4777  -13.3872   27.6033 C   0  0  0  0  0  0  0  0  0  0  0  0
    9.5259  -14.5102   26.6369 C   0  0  2  0  0  0  0  0  0  0  0  0
    8.1534  -15.1586   26.6082 C   0  0  0  0  0  0  0  0  0  0  0  0
   10.5510  -15.5763   26.9432 C   0  0  2  0  0  0  0  0  0  0  0  0
   10.4246  -16.6687   25.9857 N   0  0  0  0  0  0  0  0  0  0  0  0
   10.5310  -16.0271   28.3282 C   0  0  0  0  0  0  0  0  0  0  0  0
   10.1188  -17.2050   28.5841 O   0  0  0  0  0  0  0  0  0  0  0  0
   10.9219  -15.2998   29.4386 O   0  0  0  0  0  0  0  0  0  0  0  0
  2  1  1  1
  3  2  1  0
  3  4  1  0
  4  5  2  0
  5  6  1  0
  7  6  1  0
  8  7  2  0
  9  8  1  0
 10 11  1  0
 10  9  2  0
 11 12  2  0
 12  4  1  0
 12  7  1  0
 13 14  2  0
 13  2  1  0
 15 13  1  0
 16 15  1  0
 16 17  1  6
 18 17  1  0
 19 23  1  0
 19 18  1  0
 20 19  2  0
 21 29  1  0
 21 16  1  0
 22 21  2  0
 25 24  1  0
 26 25  1  0
 26 27  1  1
 28 26  1  0
 28 30  1  0
 28 29  1  6
 30 32  1  0
 31 30  2  0
M  END
$$$$
