HTM.pdb
     RDKit          3D

 26 26  0  0  1  0  0  0  0  0999 V2000
    9.2123  -15.7542   19.3857 N   0  0  0  0  0  0  0  0  0  0  0  0
    8.1144  -14.9934   19.8738 C   0  0  1  0  0  0  0  0  0  0  0  0
    7.1006  -14.7608   18.7868 C   0  0  0  0  0  0  0  0  0  0  0  0
    7.8224  -14.2377   17.5897 C   0  0  0  0  0  0  0  0  0  0  0  0
    8.1007  -12.9505   17.2231 C   0  0  0  0  0  0  0  0  0  0  0  0
    8.7721  -13.0154   16.0614 N   0  0  0  0  0  0  0  0  0  0  0  0
    8.9132  -14.3021   15.7060 C   0  0  0  0  0  0  0  0  0  0  0  0
    8.3256  -15.0859   16.6492 N   0  0  0  0  0  0  0  0  0  0  0  0
    7.5075  -15.5589   21.1048 C   0  0  0  0  0  0  0  0  0  0  0  0
    6.3227  -15.2502   21.3839 O   0  0  0  0  0  0  0  0  0  0  0  0
    7.4518  -19.3603   21.9292 C   0  0  0  0  0  0  0  0  0  0  0  0
    8.0354  -18.5729   23.0662 C   0  0  1  0  0  0  0  0  0  0  0  0
    9.4161  -18.5263   22.9198 O   0  0  0  0  0  0  0  0  0  0  0  0
    7.5374  -17.1280   23.0778 C   0  0  2  0  0  0  0  0  0  0  0  0
    8.2098  -16.4323   21.9771 N   0  0  0  0  0  0  0  0  0  0  0  0
    7.9296  -16.5424   24.3823 C   0  0  0  0  0  0  0  0  0  0  0  0
    7.3713  -16.9988   25.4387 O   0  0  0  0  0  0  0  0  0  0  0  0
    6.0890  -10.6376   26.1514 C   0  0  0  0  0  0  0  0  0  0  0  0
    6.9308  -11.9929   27.0143 S   0  0  0  0  0  0  0  0  0  0  0  0
    7.2268  -13.3096   25.7991 C   0  0  0  0  0  0  0  0  0  0  0  0
    7.8657  -14.4589   26.5363 C   0  0  0  0  0  0  0  0  0  0  0  0
    9.1551  -14.9272   25.8799 C   0  0  2  0  0  0  0  0  0  0  0  0
    8.8703  -15.5193   24.5774 N   0  0  0  0  0  0  0  0  0  0  0  0
    9.8534  -15.9596   26.6827 C   0  0  0  0  0  0  0  0  0  0  0  0
   10.7933  -15.6419   27.6681 O   0  0  0  0  0  0  0  0  0  0  0  0
    9.6420  -17.2030   26.5263 O   0  0  0  0  0  0  0  0  0  0  0  0
  2  9  1  0
  2  1  1  6
  3  2  1  0
  4  8  1  0
  4  3  1  0
  5  4  2  0
  6  5  1  0
  6  7  1  0
  7  8  2  0
  9 10  2  0
 12 11  1  6
 12 14  1  0
 13 12  1  0
 14 15  1  6
 15  9  1  0
 16 14  1  0
 16 17  2  0
 19 18  1  0
 19 20  1  0
 20 21  1  0
 22 21  1  1
 22 23  1  0
 22 24  1  0
 23 16  1  0
 24 26  2  0
 24 25  1  0
M  END
$$$$
