HTM.pdb
     RDKit          3D

 26 26  0  0  1  0  0  0  0  0999 V2000
   11.0903  -18.4334   17.7205 N   0  0  0  0  0  0  0  0  0  0  0  0
   11.6557  -18.4061   19.0252 C   0  0  1  0  0  0  0  0  0  0  0  0
   12.9831  -17.6981   19.0173 C   0  0  0  0  0  0  0  0  0  0  0  0
   13.9462  -18.5362   18.2440 C   0  0  0  0  0  0  0  0  0  0  0  0
   13.8879  -18.9776   16.9517 C   0  0  0  0  0  0  0  0  0  0  0  0
   15.0019  -19.6970   16.7376 N   0  0  0  0  0  0  0  0  0  0  0  0
   15.7399  -19.7093   17.8587 C   0  0  0  0  0  0  0  0  0  0  0  0
   15.0976  -18.9880   18.8160 N   0  0  0  0  0  0  0  0  0  0  0  0
   10.7320  -17.8695   20.0558 C   0  0  0  0  0  0  0  0  0  0  0  0
    9.8891  -17.0046   19.7119 O   0  0  0  0  0  0  0  0  0  0  0  0
    8.0704  -19.4946   21.6340 C   0  0  0  0  0  0  0  0  0  0  0  0
    8.9168  -19.0170   22.7781 C   0  0  1  0  0  0  0  0  0  0  0  0
    9.7816  -20.0368   23.1548 O   0  0  0  0  0  0  0  0  0  0  0  0
    9.7810  -17.8176   22.3900 C   0  0  2  0  0  0  0  0  0  0  0  0
   10.7623  -18.2932   21.4111 N   0  0  0  0  0  0  0  0  0  0  0  0
   10.4584  -17.3512   23.6238 C   0  0  0  0  0  0  0  0  0  0  0  0
   11.7158  -17.5582   23.7345 O   0  0  0  0  0  0  0  0  0  0  0  0
   10.2217  -12.7347   30.0343 C   0  0  0  0  0  0  0  0  0  0  0  0
    9.4680  -13.2595   28.4702 S   0  0  0  0  0  0  0  0  0  0  0  0
   10.4197  -14.6800   27.8584 C   0  0  0  0  0  0  0  0  0  0  0  0
    9.8401  -15.0595   26.5195 C   0  0  0  0  0  0  0  0  0  0  0  0
   10.5756  -16.2244   25.8754 C   0  0  2  0  0  0  0  0  0  0  0  0
    9.8468  -16.6922   24.7015 N   0  0  0  0  0  0  0  0  0  0  0  0
   10.7106  -17.3817   26.7922 C   0  0  0  0  0  0  0  0  0  0  0  0
   11.8503  -17.5975   27.5731 O   0  0  0  0  0  0  0  0  0  0  0  0
    9.7966  -18.2543   26.9275 O   0  0  0  0  0  0  0  0  0  0  0  0
  2  9  1  0
  2  1  1  6
  3  2  1  0
  4  8  1  0
  4  3  1  0
  5  4  2  0
  6  5  1  0
  6  7  1  0
  7  8  2  0
  9 10  2  0
 12 11  1  6
 12 14  1  0
 13 12  1  0
 14 15  1  6
 15  9  1  0
 16 14  1  0
 16 17  2  0
 19 18  1  0
 19 20  1  0
 20 21  1  0
 22 21  1  1
 22 23  1  0
 22 24  1  0
 23 16  1  0
 24 26  2  0
 24 25  1  0
M  END
$$$$
