HTM.pdb
     RDKit          3D

 26 26  0  0  1  0  0  0  0  0999 V2000
   11.6626  -17.4525   18.4901 N   0  0  0  0  0  0  0  0  0  0  0  0
   11.1094  -17.7902   19.7559 C   0  0  1  0  0  0  0  0  0  0  0  0
   12.1266  -18.4933   20.6128 C   0  0  0  0  0  0  0  0  0  0  0  0
   12.3429  -19.8563   20.0442 C   0  0  0  0  0  0  0  0  0  0  0  0
   11.7888  -21.0550   20.3972 C   0  0  0  0  0  0  0  0  0  0  0  0
   12.3139  -21.9807   19.5775 N   0  0  0  0  0  0  0  0  0  0  0  0
   13.1719  -21.3856   18.7341 C   0  0  0  0  0  0  0  0  0  0  0  0
   13.2060  -20.0541   19.0083 N   0  0  0  0  0  0  0  0  0  0  0  0
   10.4811  -16.6382   20.4499 C   0  0  0  0  0  0  0  0  0  0  0  0
   11.1128  -15.5542   20.5022 O   0  0  0  0  0  0  0  0  0  0  0  0
    7.1294  -15.0937   19.6519 C   0  0  0  0  0  0  0  0  0  0  0  0
    7.1437  -15.4572   21.1083 C   0  0  1  0  0  0  0  0  0  0  0  0
    6.5726  -16.7139   21.2643 O   0  0  0  0  0  0  0  0  0  0  0  0
    8.5649  -15.5390   21.6646 C   0  0  2  0  0  0  0  0  0  0  0  0
    9.1985  -16.7117   21.0555 N   0  0  0  0  0  0  0  0  0  0  0  0
    8.4488  -15.7122   23.1326 C   0  0  0  0  0  0  0  0  0  0  0  0
    9.2275  -16.5516   23.7027 O   0  0  0  0  0  0  0  0  0  0  0  0
    7.1396  -10.4316   27.1527 C   0  0  0  0  0  0  0  0  0  0  0  0
    6.2024  -11.8637   27.7533 S   0  0  0  0  0  0  0  0  0  0  0  0
    7.1657  -13.3500   27.3523 C   0  0  0  0  0  0  0  0  0  0  0  0
    6.9708  -13.6226   25.8825 C   0  0  0  0  0  0  0  0  0  0  0  0
    7.8102  -14.7913   25.3904 C   0  0  2  0  0  0  0  0  0  0  0  0
    7.5544  -15.0336   23.9748 N   0  0  0  0  0  0  0  0  0  0  0  0
    7.4998  -16.0502   26.1093 C   0  0  0  0  0  0  0  0  0  0  0  0
    8.2510  -16.5027   27.1984 O   0  0  0  0  0  0  0  0  0  0  0  0
    6.5283  -16.8009   25.7809 O   0  0  0  0  0  0  0  0  0  0  0  0
  2  9  1  0
  2  1  1  6
  3  2  1  0
  4  8  1  0
  4  3  1  0
  5  4  2  0
  6  5  1  0
  6  7  1  0
  7  8  2  0
  9 10  2  0
 12 11  1  6
 12 14  1  0
 13 12  1  0
 14 15  1  6
 15  9  1  0
 16 14  1  0
 16 17  2  0
 19 18  1  0
 19 20  1  0
 20 21  1  0
 22 21  1  1
 22 23  1  0
 22 24  1  0
 23 16  1  0
 24 26  2  0
 24 25  1  0
M  END
$$$$
