HTM.pdb
     RDKit          3D

 26 26  0  0  1  0  0  0  0  0999 V2000
   12.5632  -16.1343   18.9091 N   0  0  0  0  0  0  0  0  0  0  0  0
   12.7425  -14.7319   19.0623 C   0  0  1  0  0  0  0  0  0  0  0  0
   13.1368  -14.0981   17.7560 C   0  0  0  0  0  0  0  0  0  0  0  0
   14.3501  -14.8052   17.2501 C   0  0  0  0  0  0  0  0  0  0  0  0
   15.6737  -14.4971   17.3980 C   0  0  0  0  0  0  0  0  0  0  0  0
   16.3674  -15.4498   16.7532 N   0  0  0  0  0  0  0  0  0  0  0  0
   15.5094  -16.3310   16.2156 C   0  0  0  0  0  0  0  0  0  0  0  0
   14.2395  -15.9469   16.5143 N   0  0  0  0  0  0  0  0  0  0  0  0
   11.5820  -14.0556   19.6941 C   0  0  0  0  0  0  0  0  0  0  0  0
   11.6630  -12.8251   19.9314 O   0  0  0  0  0  0  0  0  0  0  0  0
    8.0880  -13.6420   18.6185 C   0  0  0  0  0  0  0  0  0  0  0  0
    8.0219  -14.2958   19.9681 C   0  0  1  0  0  0  0  0  0  0  0  0
    7.8736  -15.6665   19.7976 O   0  0  0  0  0  0  0  0  0  0  0  0
    9.3035  -14.0806   20.7726 C   0  0  2  0  0  0  0  0  0  0  0  0
   10.3872  -14.7412   20.0400 N   0  0  0  0  0  0  0  0  0  0  0  0
    9.1009  -14.7212   22.0944 C   0  0  0  0  0  0  0  0  0  0  0  0
    9.9423  -15.6094   22.4677 O   0  0  0  0  0  0  0  0  0  0  0  0
    5.7440  -11.3916   27.8756 C   0  0  0  0  0  0  0  0  0  0  0  0
    7.3758  -11.7152   27.1528 S   0  0  0  0  0  0  0  0  0  0  0  0
    7.3878  -13.4418   26.5900 C   0  0  0  0  0  0  0  0  0  0  0  0
    7.3185  -13.4186   25.0842 C   0  0  0  0  0  0  0  0  0  0  0  0
    8.2254  -14.4575   24.4433 C   0  0  2  0  0  0  0  0  0  0  0  0
    8.0598  -14.4443   22.9940 N   0  0  0  0  0  0  0  0  0  0  0  0
    7.9189  -15.8334   24.9027 C   0  0  0  0  0  0  0  0  0  0  0  0
    8.4200  -16.3597   26.0973 O   0  0  0  0  0  0  0  0  0  0  0  0
    7.1790  -16.6248   24.2384 O   0  0  0  0  0  0  0  0  0  0  0  0
  2  9  1  0
  2  1  1  6
  3  2  1  0
  4  8  1  0
  4  3  1  0
  5  4  2  0
  6  5  1  0
  6  7  1  0
  7  8  2  0
  9 10  2  0
 12 11  1  6
 12 14  1  0
 13 12  1  0
 14 15  1  6
 15  9  1  0
 16 14  1  0
 16 17  2  0
 19 18  1  0
 19 20  1  0
 20 21  1  0
 22 21  1  1
 22 23  1  0
 22 24  1  0
 23 16  1  0
 24 26  2  0
 24 25  1  0
M  END
$$$$
