HTM.pdb
     RDKit          3D

 26 26  0  0  1  0  0  0  0  0999 V2000
   11.7473  -15.5146   17.8215 N   0  0  0  0  0  0  0  0  0  0  0  0
   12.2825  -15.1027   19.0731 C   0  0  1  0  0  0  0  0  0  0  0  0
   13.5809  -14.3670   18.8826 C   0  0  0  0  0  0  0  0  0  0  0  0
   14.5532  -15.3072   18.2511 C   0  0  0  0  0  0  0  0  0  0  0  0
   15.3052  -16.3021   18.8107 C   0  0  0  0  0  0  0  0  0  0  0  0
   16.0179  -16.8552   17.8154 N   0  0  0  0  0  0  0  0  0  0  0  0
   15.7253  -16.2296   16.6645 C   0  0  0  0  0  0  0  0  0  0  0  0
   14.8095  -15.2557   16.9136 N   0  0  0  0  0  0  0  0  0  0  0  0
   11.3161  -14.3428   19.9050 C   0  0  0  0  0  0  0  0  0  0  0  0
   11.5389  -13.1258   20.1199 O   0  0  0  0  0  0  0  0  0  0  0  0
    7.8001  -13.3994   19.4635 C   0  0  0  0  0  0  0  0  0  0  0  0
    7.8674  -14.2198   20.7188 C   0  0  1  0  0  0  0  0  0  0  0  0
    7.5959  -15.5456   20.4054 O   0  0  0  0  0  0  0  0  0  0  0  0
    9.2579  -14.1851   21.3523 C   0  0  2  0  0  0  0  0  0  0  0  0
   10.1531  -14.9341   20.4662 N   0  0  0  0  0  0  0  0  0  0  0  0
    9.1521  -14.8520   22.6723 C   0  0  0  0  0  0  0  0  0  0  0  0
    9.6262  -16.0343   22.7886 O   0  0  0  0  0  0  0  0  0  0  0  0
    6.5207  -12.0820   28.4744 C   0  0  0  0  0  0  0  0  0  0  0  0
    6.2976  -12.0707   26.6744 S   0  0  0  0  0  0  0  0  0  0  0  0
    6.5162  -13.7760   26.0894 C   0  0  0  0  0  0  0  0  0  0  0  0
    7.9860  -14.0954   26.1909 C   0  0  0  0  0  0  0  0  0  0  0  0
    8.4562  -15.0312   25.0883 C   0  0  2  0  0  0  0  0  0  0  0  0
    8.5742  -14.3052   23.8285 N   0  0  0  0  0  0  0  0  0  0  0  0
    7.5112  -16.1500   24.8577 C   0  0  0  0  0  0  0  0  0  0  0  0
    7.4022  -17.2382   25.7290 O   0  0  0  0  0  0  0  0  0  0  0  0
    6.7373  -16.1919   23.8504 O   0  0  0  0  0  0  0  0  0  0  0  0
  2  9  1  0
  2  1  1  6
  3  2  1  0
  4  8  1  0
  4  3  1  0
  5  4  2  0
  6  5  1  0
  6  7  1  0
  7  8  2  0
  9 10  2  0
 12 11  1  6
 12 14  1  0
 13 12  1  0
 14 15  1  6
 15  9  1  0
 16 14  1  0
 16 17  2  0
 19 18  1  0
 19 20  1  0
 20 21  1  0
 22 21  1  1
 22 23  1  0
 22 24  1  0
 23 16  1  0
 24 26  2  0
 24 25  1  0
M  END
$$$$
