HTM.pdb
     RDKit          3D

 26 26  0  0  1  0  0  0  0  0999 V2000
    9.7180  -15.3358   19.3069 N   0  0  0  0  0  0  0  0  0  0  0  0
    8.5431  -14.7877   19.8914 C   0  0  1  0  0  0  0  0  0  0  0  0
    7.3950  -14.8271   18.9200 C   0  0  0  0  0  0  0  0  0  0  0  0
    7.8871  -14.3175   17.6062 C   0  0  0  0  0  0  0  0  0  0  0  0
    8.1911  -13.0435   17.2146 C   0  0  0  0  0  0  0  0  0  0  0  0
    8.5908  -13.1169   15.9343 N   0  0  0  0  0  0  0  0  0  0  0  0
    8.5409  -14.3961   15.5305 C   0  0  0  0  0  0  0  0  0  0  0  0
    8.1026  -15.1662   16.5620 N   0  0  0  0  0  0  0  0  0  0  0  0
    8.1994  -15.3947   21.2016 C   0  0  0  0  0  0  0  0  0  0  0  0
    7.1146  -15.0706   21.7450 O   0  0  0  0  0  0  0  0  0  0  0  0
    8.2605  -19.0725   22.3354 C   0  0  0  0  0  0  0  0  0  0  0  0
    9.1067  -18.2703   23.2808 C   0  0  1  0  0  0  0  0  0  0  0  0
   10.4397  -18.3987   22.9115 O   0  0  0  0  0  0  0  0  0  0  0  0
    8.7692  -16.7806   23.2290 C   0  0  2  0  0  0  0  0  0  0  0  0
    9.0446  -16.3243   21.8639 N   0  0  0  0  0  0  0  0  0  0  0  0
    9.6607  -16.0979   24.1972 C   0  0  0  0  0  0  0  0  0  0  0  0
   10.4725  -15.2166   23.7495 O   0  0  0  0  0  0  0  0  0  0  0  0
    5.9608  -12.2209   26.9042 C   0  0  0  0  0  0  0  0  0  0  0  0
    7.7216  -11.7896   26.8431 S   0  0  0  0  0  0  0  0  0  0  0  0
    8.6522  -13.2158   27.4740 C   0  0  0  0  0  0  0  0  0  0  0  0
    8.7085  -14.2352   26.3648 C   0  0  0  0  0  0  0  0  0  0  0  0
    9.8163  -15.2569   26.5684 C   0  0  2  0  0  0  0  0  0  0  0  0
    9.7029  -16.3253   25.5816 N   0  0  0  0  0  0  0  0  0  0  0  0
    9.7570  -15.8934   27.9060 C   0  0  0  0  0  0  0  0  0  0  0  0
   10.4092  -15.3639   29.0238 O   0  0  0  0  0  0  0  0  0  0  0  0
    9.1077  -16.9642   28.1232 O   0  0  0  0  0  0  0  0  0  0  0  0
  2  9  1  0
  2  1  1  6
  3  2  1  0
  4  8  1  0
  4  3  1  0
  5  4  2  0
  6  5  1  0
  6  7  1  0
  7  8  2  0
  9 10  2  0
 12 11  1  6
 12 14  1  0
 13 12  1  0
 14 15  1  6
 15  9  1  0
 16 14  1  0
 16 17  2  0
 19 18  1  0
 19 20  1  0
 20 21  1  0
 22 21  1  1
 22 23  1  0
 22 24  1  0
 23 16  1  0
 24 26  2  0
 24 25  1  0
M  END
$$$$
