HTM.pdb
     RDKit          3D

 26 26  0  0  1  0  0  0  0  0999 V2000
    7.8765  -17.0385   19.6756 N   0  0  0  0  0  0  0  0  0  0  0  0
    8.1279  -16.0097   20.6248 C   0  0  1  0  0  0  0  0  0  0  0  0
    7.2021  -14.8441   20.4068 C   0  0  0  0  0  0  0  0  0  0  0  0
    7.6916  -14.0846   19.2187 C   0  0  0  0  0  0  0  0  0  0  0  0
    8.4127  -12.9252   19.1516 C   0  0  0  0  0  0  0  0  0  0  0  0
    8.5975  -12.6591   17.8480 N   0  0  0  0  0  0  0  0  0  0  0  0
    8.0118  -13.6194   17.1156 C   0  0  0  0  0  0  0  0  0  0  0  0
    7.4378  -14.5234   17.9537 N   0  0  0  0  0  0  0  0  0  0  0  0
    8.1162  -16.4892   22.0295 C   0  0  0  0  0  0  0  0  0  0  0  0
    7.0321  -16.8992   22.5127 O   0  0  0  0  0  0  0  0  0  0  0  0
    9.7274  -19.3455   23.4102 C   0  0  0  0  0  0  0  0  0  0  0  0
   10.2001  -18.2110   24.2722 C   0  0  1  0  0  0  0  0  0  0  0  0
   11.4315  -17.7717   23.8027 O   0  0  0  0  0  0  0  0  0  0  0  0
    9.2485  -17.0161   24.2195 C   0  0  2  0  0  0  0  0  0  0  0  0
    9.2775  -16.5032   22.8470 N   0  0  0  0  0  0  0  0  0  0  0  0
    9.7700  -16.0017   25.1668 C   0  0  0  0  0  0  0  0  0  0  0  0
   10.6788  -15.2027   24.7524 O   0  0  0  0  0  0  0  0  0  0  0  0
    6.2594  -11.3883   26.2205 C   0  0  0  0  0  0  0  0  0  0  0  0
    7.3109  -11.6248   27.6794 S   0  0  0  0  0  0  0  0  0  0  0  0
    8.7894  -12.5321   27.1420 C   0  0  0  0  0  0  0  0  0  0  0  0
    8.7661  -13.8702   27.8360 C   0  0  0  0  0  0  0  0  0  0  0  0
    9.8874  -14.7866   27.3721 C   0  0  2  0  0  0  0  0  0  0  0  0
    9.3577  -15.8266   26.4969 N   0  0  0  0  0  0  0  0  0  0  0  0
   10.5596  -15.4714   28.5023 C   0  0  0  0  0  0  0  0  0  0  0  0
   11.4161  -14.8071   29.3858 O   0  0  0  0  0  0  0  0  0  0  0  0
   10.4001  -16.7093   28.7413 O   0  0  0  0  0  0  0  0  0  0  0  0
  2  9  1  0
  2  1  1  6
  3  2  1  0
  4  8  1  0
  4  3  1  0
  5  4  2  0
  6  5  1  0
  6  7  1  0
  7  8  2  0
  9 10  2  0
 12 11  1  6
 12 14  1  0
 13 12  1  0
 14 15  1  6
 15  9  1  0
 16 14  1  0
 16 17  2  0
 19 18  1  0
 19 20  1  0
 20 21  1  0
 22 21  1  1
 22 23  1  0
 22 24  1  0
 23 16  1  0
 24 26  2  0
 24 25  1  0
M  END
$$$$
