HTM.pdb
     RDKit          3D

 26 26  0  0  1  0  0  0  0  0999 V2000
   11.8112  -16.3245   17.6820 N   0  0  0  0  0  0  0  0  0  0  0  0
   12.0266  -15.9276   19.0306 C   0  0  1  0  0  0  0  0  0  0  0  0
   12.4817  -14.4953   19.0996 C   0  0  0  0  0  0  0  0  0  0  0  0
   13.9734  -14.4841   19.0456 C   0  0  0  0  0  0  0  0  0  0  0  0
   14.8911  -14.6250   20.0489 C   0  0  0  0  0  0  0  0  0  0  0  0
   16.1044  -14.5409   19.4784 N   0  0  0  0  0  0  0  0  0  0  0  0
   15.9574  -14.3529   18.1576 C   0  0  0  0  0  0  0  0  0  0  0  0
   14.6302  -14.3141   17.8637 N   0  0  0  0  0  0  0  0  0  0  0  0
   10.8665  -16.1981   19.9162 C   0  0  0  0  0  0  0  0  0  0  0  0
    9.7123  -15.9720   19.4762 O   0  0  0  0  0  0  0  0  0  0  0  0
    9.7546  -19.3618   21.4037 C   0  0  0  0  0  0  0  0  0  0  0  0
    9.9274  -18.4066   22.5488 C   0  0  1  0  0  0  0  0  0  0  0  0
   11.1875  -18.5919   23.1035 O   0  0  0  0  0  0  0  0  0  0  0  0
    9.8473  -16.9489   22.0963 C   0  0  2  0  0  0  0  0  0  0  0  0
   11.0081  -16.7009   21.2369 N   0  0  0  0  0  0  0  0  0  0  0  0
    9.9128  -16.1096   23.3168 C   0  0  0  0  0  0  0  0  0  0  0  0
   11.0486  -15.6292   23.6563 O   0  0  0  0  0  0  0  0  0  0  0  0
    6.1157  -11.0194   27.8946 C   0  0  0  0  0  0  0  0  0  0  0  0
    6.2475  -11.9698   26.3554 S   0  0  0  0  0  0  0  0  0  0  0  0
    7.5866  -13.1768   26.5754 C   0  0  0  0  0  0  0  0  0  0  0  0
    7.7808  -13.8709   25.2514 C   0  0  0  0  0  0  0  0  0  0  0  0
    8.9371  -14.8583   25.2754 C   0  0  2  0  0  0  0  0  0  0  0  0
    8.8329  -15.7826   24.1516 N   0  0  0  0  0  0  0  0  0  0  0  0
    8.9532  -15.6774   26.5110 C   0  0  0  0  0  0  0  0  0  0  0  0
    9.3851  -15.1769   27.7432 O   0  0  0  0  0  0  0  0  0  0  0  0
    8.5742  -16.8903   26.5297 O   0  0  0  0  0  0  0  0  0  0  0  0
  2  9  1  0
  2  1  1  6
  3  2  1  0
  4  8  1  0
  4  3  1  0
  5  4  2  0
  6  5  1  0
  6  7  1  0
  7  8  2  0
  9 10  2  0
 12 11  1  6
 12 14  1  0
 13 12  1  0
 14 15  1  6
 15  9  1  0
 16 14  1  0
 16 17  2  0
 19 18  1  0
 19 20  1  0
 20 21  1  0
 22 21  1  1
 22 23  1  0
 22 24  1  0
 23 16  1  0
 24 26  2  0
 24 25  1  0
M  END
$$$$
