HTM.pdb
     RDKit          3D

 26 26  0  0  1  0  0  0  0  0999 V2000
    9.4199  -17.4018   17.7073 N   0  0  0  0  0  0  0  0  0  0  0  0
    9.1926  -16.4119   18.7028 C   0  0  1  0  0  0  0  0  0  0  0  0
    8.3629  -15.2832   18.1540 C   0  0  0  0  0  0  0  0  0  0  0  0
    8.9851  -13.9996   18.5937 C   0  0  0  0  0  0  0  0  0  0  0  0
   10.0973  -13.7771   19.3567 C   0  0  0  0  0  0  0  0  0  0  0  0
   10.2328  -12.4449   19.4642 N   0  0  0  0  0  0  0  0  0  0  0  0
    9.2383  -11.8458   18.7907 C   0  0  0  0  0  0  0  0  0  0  0  0
    8.4442  -12.8008   18.2370 N   0  0  0  0  0  0  0  0  0  0  0  0
    8.6383  -16.9626   19.9648 C   0  0  0  0  0  0  0  0  0  0  0  0
    7.7420  -17.8392   19.8923 O   0  0  0  0  0  0  0  0  0  0  0  0
    8.5428  -19.3931   21.3511 C   0  0  0  0  0  0  0  0  0  0  0  0
    9.0664  -18.5919   22.5076 C   0  0  1  0  0  0  0  0  0  0  0  0
   10.4526  -18.5438   22.4311 O   0  0  0  0  0  0  0  0  0  0  0  0
    8.5658  -17.1481   22.4779 C   0  0  2  0  0  0  0  0  0  0  0  0
    9.0789  -16.5401   21.2472 N   0  0  0  0  0  0  0  0  0  0  0  0
    9.1275  -16.4677   23.6695 C   0  0  0  0  0  0  0  0  0  0  0  0
   10.3087  -15.9840   23.5851 O   0  0  0  0  0  0  0  0  0  0  0  0
    6.1620  -10.9262   26.1524 C   0  0  0  0  0  0  0  0  0  0  0  0
    6.3331  -12.5938   26.8451 S   0  0  0  0  0  0  0  0  0  0  0  0
    7.7377  -13.3869   26.0109 C   0  0  0  0  0  0  0  0  0  0  0  0
    7.9676  -14.7125   26.6912 C   0  0  0  0  0  0  0  0  0  0  0  0
    9.0493  -15.5367   26.0106 C   0  0  2  0  0  0  0  0  0  0  0  0
    8.4804  -16.2970   24.9032 N   0  0  0  0  0  0  0  0  0  0  0  0
    9.6759  -16.5147   26.9319 C   0  0  0  0  0  0  0  0  0  0  0  0
   10.6155  -16.1458   27.8996 O   0  0  0  0  0  0  0  0  0  0  0  0
    9.3986  -17.7546   26.9013 O   0  0  0  0  0  0  0  0  0  0  0  0
  2  9  1  0
  2  1  1  6
  3  2  1  0
  4  8  1  0
  4  3  1  0
  5  4  2  0
  6  5  1  0
  6  7  1  0
  7  8  2  0
  9 10  2  0
 12 11  1  6
 12 14  1  0
 13 12  1  0
 14 15  1  6
 15  9  1  0
 16 14  1  0
 16 17  2  0
 19 18  1  0
 19 20  1  0
 20 21  1  0
 22 21  1  1
 22 23  1  0
 22 24  1  0
 23 16  1  0
 24 26  2  0
 24 25  1  0
M  END
$$$$
