HDM.pdb
     RDKit          3D

 27 27  0  0  1  0  0  0  0  0999 V2000
    9.2160  -16.6003   19.2364 N   0  0  0  0  0  0  0  0  0  0  0  0
    8.5578  -17.5307   20.1229 C   0  0  1  0  0  0  0  0  0  0  0  0
    8.2414  -18.8121   19.3889 C   0  0  0  0  0  0  0  0  0  0  0  0
    7.8842  -18.4662   17.9859 C   0  0  0  0  0  0  0  0  0  0  0  0
    8.2503  -17.3308   17.3069 C   0  0  0  0  0  0  0  0  0  0  0  0
    7.7277  -17.3897   16.0538 N   0  0  0  0  0  0  0  0  0  0  0  0
    7.0490  -18.5575   15.9788 C   0  0  0  0  0  0  0  0  0  0  0  0
    7.1467  -19.2013   17.1448 N   0  0  0  0  0  0  0  0  0  0  0  0
    9.4618  -17.8219   21.2905 C   0  0  0  0  0  0  0  0  0  0  0  0
    9.1804  -18.6742   22.1620 O   0  0  0  0  0  0  0  0  0  0  0  0
   10.6931  -17.1298   21.4545 N   0  0  0  0  0  0  0  0  0  0  0  0
   11.5547  -17.3734   22.5591 C   0  0  1  0  0  0  0  0  0  0  0  0
   12.9894  -16.9759   22.3262 C   0  0  0  0  0  0  0  0  0  0  0  0
   13.9334  -17.6942   23.2007 C   0  0  0  0  0  0  0  0  0  0  0  0
   13.5109  -18.0508   24.3390 O   0  0  0  0  0  0  0  0  0  0  0  0
   11.0716  -16.5694   23.7136 C   0  0  0  0  0  0  0  0  0  0  0  0
   11.2613  -15.3285   23.7067 O   0  0  0  0  0  0  0  0  0  0  0  0
   15.2243  -18.0011   22.8735 O   0  0  0  0  0  0  0  0  0  0  0  0
    7.0700  -11.7874   26.7630 C   0  0  0  0  0  0  0  0  0  0  0  0
    7.7581  -12.9163   25.5360 S   0  0  0  0  0  0  0  0  0  0  0  0
    8.2353  -14.4923   26.2832 C   0  0  0  0  0  0  0  0  0  0  0  0
    8.9115  -15.3756   25.2978 C   0  0  0  0  0  0  0  0  0  0  0  0
    9.9707  -16.2695   25.8875 C   0  0  2  0  0  0  0  0  0  0  0  0
   10.4039  -17.1472   24.8232 N   0  0  0  0  0  0  0  0  0  0  0  0
    9.5074  -17.0617   27.0194 C   0  0  0  0  0  0  0  0  0  0  0  0
    9.0491  -16.4792   28.0328 O   0  0  0  0  0  0  0  0  0  0  0  0
    9.5289  -18.4475   27.0776 O   0  0  0  0  0  0  0  0  0  0  0  0
  2  1  1  6
  2  3  1  0
  4  3  1  0
  5  4  2  0
  6  7  1  0
  6  5  1  0
  7  8  2  0
  8  4  1  0
  9 10  2  0
  9  2  1  0
 11  9  1  0
 12 11  1  0
 12 13  1  6
 14 13  1  0
 15 14  2  0
 16 12  1  0
 17 16  2  0
 18 14  1  0
 20 19  1  0
 21 20  1  0
 22 21  1  0
 23 22  1  6
 23 24  1  0
 24 16  1  0
 25 23  1  0
 26 25  2  0
 27 25  1  0
M  END
$$$$
