HDM.pdb
     RDKit          3D

 27 27  0  0  1  0  0  0  0  0999 V2000
    7.5242  -16.8486   18.9115 N   0  0  0  0  0  0  0  0  0  0  0  0
    8.6356  -16.1544   19.5177 C   0  0  1  0  0  0  0  0  0  0  0  0
    8.3801  -14.6659   19.5185 C   0  0  0  0  0  0  0  0  0  0  0  0
    8.3143  -14.2064   18.1043 C   0  0  0  0  0  0  0  0  0  0  0  0
    7.3879  -13.3473   17.5677 C   0  0  0  0  0  0  0  0  0  0  0  0
    7.6693  -13.1777   16.2490 N   0  0  0  0  0  0  0  0  0  0  0  0
    8.7621  -13.9326   15.9927 C   0  0  0  0  0  0  0  0  0  0  0  0
    9.1460  -14.5495   17.1132 N   0  0  0  0  0  0  0  0  0  0  0  0
    8.8096  -16.6425   20.9307 C   0  0  0  0  0  0  0  0  0  0  0  0
    7.8392  -16.8915   21.6800 O   0  0  0  0  0  0  0  0  0  0  0  0
   10.1048  -16.8445   21.4820 N   0  0  0  0  0  0  0  0  0  0  0  0
   10.2968  -17.4307   22.7631 C   0  0  1  0  0  0  0  0  0  0  0  0
   11.6181  -18.1357   22.9310 C   0  0  0  0  0  0  0  0  0  0  0  0
   11.7425  -19.3325   22.0802 C   0  0  0  0  0  0  0  0  0  0  0  0
   11.0476  -20.3418   22.3961 O   0  0  0  0  0  0  0  0  0  0  0  0
   10.2591  -16.3476   23.7820 C   0  0  0  0  0  0  0  0  0  0  0  0
   11.1490  -15.4627   23.7558 O   0  0  0  0  0  0  0  0  0  0  0  0
   12.5492  -19.4308   20.9814 O   0  0  0  0  0  0  0  0  0  0  0  0
    5.9953  -11.2419   27.6490 C   0  0  0  0  0  0  0  0  0  0  0  0
    6.1492  -12.6791   26.5702 S   0  0  0  0  0  0  0  0  0  0  0  0
    7.8038  -13.4023   26.6657 C   0  0  0  0  0  0  0  0  0  0  0  0
    7.9666  -14.5116   25.6904 C   0  0  0  0  0  0  0  0  0  0  0  0
    9.3179  -15.1760   25.7235 C   0  0  2  0  0  0  0  0  0  0  0  0
    9.2575  -16.2727   24.7831 N   0  0  0  0  0  0  0  0  0  0  0  0
    9.6941  -15.6772   27.0390 C   0  0  0  0  0  0  0  0  0  0  0  0
    9.8862  -14.8644   27.9764 O   0  0  0  0  0  0  0  0  0  0  0  0
    9.8639  -17.0168   27.3571 O   0  0  0  0  0  0  0  0  0  0  0  0
  2  1  1  1
  2  3  1  0
  4  3  1  0
  5  4  2  0
  6  7  1  0
  6  5  1  0
  7  8  2  0
  8  4  1  0
  9 10  2  0
  9  2  1  0
 11  9  1  0
 12 11  1  0
 12 13  1  6
 14 13  1  0
 15 14  2  0
 16 12  1  0
 17 16  2  0
 18 14  1  0
 20 19  1  0
 21 20  1  0
 22 21  1  0
 23 22  1  1
 23 24  1  0
 24 16  1  0
 25 23  1  0
 26 25  2  0
 27 25  1  0
M  END
$$$$
