HDM.pdb
     RDKit          3D

 27 27  0  0  1  0  0  0  0  0999 V2000
    8.5567  -17.0314   19.7266 N   0  0  0  0  0  0  0  0  0  0  0  0
    8.9501  -15.9948   20.6515 C   0  0  1  0  0  0  0  0  0  0  0  0
    7.8437  -14.9764   20.7915 C   0  0  0  0  0  0  0  0  0  0  0  0
    7.7950  -14.1705   19.5410 C   0  0  0  0  0  0  0  0  0  0  0  0
    8.3476  -12.9289   19.3483 C   0  0  0  0  0  0  0  0  0  0  0  0
    8.0863  -12.5328   18.0749 N   0  0  0  0  0  0  0  0  0  0  0  0
    7.3784  -13.5334   17.5026 C   0  0  0  0  0  0  0  0  0  0  0  0
    7.2060  -14.5166   18.3898 N   0  0  0  0  0  0  0  0  0  0  0  0
    9.2442  -16.6153   21.9908 C   0  0  0  0  0  0  0  0  0  0  0  0
    8.3538  -17.1304   22.7028 O   0  0  0  0  0  0  0  0  0  0  0  0
   10.5673  -16.6427   22.5111 N   0  0  0  0  0  0  0  0  0  0  0  0
   10.8736  -17.2418   23.7637 C   0  0  1  0  0  0  0  0  0  0  0  0
   12.3187  -17.6368   23.9257 C   0  0  0  0  0  0  0  0  0  0  0  0
   12.5613  -18.4440   25.1345 C   0  0  0  0  0  0  0  0  0  0  0  0
   11.5607  -18.7134   25.8608 O   0  0  0  0  0  0  0  0  0  0  0  0
   10.5784  -16.2552   24.8371 C   0  0  0  0  0  0  0  0  0  0  0  0
   10.7982  -15.0391   24.6165 O   0  0  0  0  0  0  0  0  0  0  0  0
   13.7813  -18.9198   25.5258 O   0  0  0  0  0  0  0  0  0  0  0  0
    6.8591  -11.4176   25.9020 C   0  0  0  0  0  0  0  0  0  0  0  0
    7.2638  -12.5392   27.2553 S   0  0  0  0  0  0  0  0  0  0  0  0
    8.8745  -13.3220   27.0048 C   0  0  0  0  0  0  0  0  0  0  0  0
    8.7318  -14.7722   26.7135 C   0  0  0  0  0  0  0  0  0  0  0  0
    9.9206  -15.6069   27.1119 C   0  0  2  0  0  0  0  0  0  0  0  0
   10.0578  -16.6318   26.1013 N   0  0  0  0  0  0  0  0  0  0  0  0
    9.7903  -16.2260   28.4247 C   0  0  0  0  0  0  0  0  0  0  0  0
    9.7984  -15.5025   29.4508 O   0  0  0  0  0  0  0  0  0  0  0  0
    9.6536  -17.5884   28.6475 O   0  0  0  0  0  0  0  0  0  0  0  0
  2  1  1  6
  2  3  1  0
  4  3  1  0
  5  4  2  0
  6  7  1  0
  6  5  1  0
  7  8  2  0
  8  4  1  0
  9 10  2  0
  9  2  1  0
 11  9  1  0
 12 11  1  0
 12 13  1  6
 14 13  1  0
 15 14  2  0
 16 12  1  0
 17 16  2  0
 18 14  1  0
 20 19  1  0
 21 20  1  0
 22 21  1  0
 23 22  1  6
 23 24  1  0
 24 16  1  0
 25 23  1  0
 26 25  2  0
 27 25  1  0
M  END
$$$$
