HDM.pdb
     RDKit          3D

 27 27  0  0  1  0  0  0  0  0999 V2000
    8.7376  -16.6710   19.5445 N   0  0  0  0  0  0  0  0  0  0  0  0
    9.0488  -15.5724   20.4282 C   0  0  1  0  0  0  0  0  0  0  0  0
    8.0083  -14.4862   20.2927 C   0  0  0  0  0  0  0  0  0  0  0  0
    8.0077  -14.0190   18.8794 C   0  0  0  0  0  0  0  0  0  0  0  0
    7.2797  -12.9750   18.3655 C   0  0  0  0  0  0  0  0  0  0  0  0
    7.5559  -12.8675   17.0392 N   0  0  0  0  0  0  0  0  0  0  0  0
    8.4479  -13.8442   16.7557 C   0  0  0  0  0  0  0  0  0  0  0  0
    8.7161  -14.5342   17.8673 N   0  0  0  0  0  0  0  0  0  0  0  0
    9.0795  -16.0748   21.8466 C   0  0  0  0  0  0  0  0  0  0  0  0
    8.0805  -16.0273   22.5981 O   0  0  0  0  0  0  0  0  0  0  0  0
   10.2640  -16.6334   22.4007 N   0  0  0  0  0  0  0  0  0  0  0  0
   10.2665  -17.3081   23.6524 C   0  0  1  0  0  0  0  0  0  0  0  0
   11.4063  -18.2772   23.8325 C   0  0  0  0  0  0  0  0  0  0  0  0
   11.3662  -19.3954   22.8735 C   0  0  0  0  0  0  0  0  0  0  0  0
   12.2846  -19.4455   22.0043 O   0  0  0  0  0  0  0  0  0  0  0  0
   10.3973  -16.2911   24.7301 C   0  0  0  0  0  0  0  0  0  0  0  0
   11.2838  -15.4088   24.6233 O   0  0  0  0  0  0  0  0  0  0  0  0
   10.4148  -20.3763   22.8548 O   0  0  0  0  0  0  0  0  0  0  0  0
    6.4884  -11.0623   26.1468 C   0  0  0  0  0  0  0  0  0  0  0  0
    6.7318  -12.6532   26.9610 S   0  0  0  0  0  0  0  0  0  0  0  0
    8.3311  -13.3781   26.5289 C   0  0  0  0  0  0  0  0  0  0  0  0
    8.5688  -14.6445   27.2692 C   0  0  0  0  0  0  0  0  0  0  0  0
    9.8645  -15.3319   26.9264 C   0  0  2  0  0  0  0  0  0  0  0  0
    9.5604  -16.2766   25.8748 N   0  0  0  0  0  0  0  0  0  0  0  0
   10.4752  -16.0288   28.0510 C   0  0  0  0  0  0  0  0  0  0  0  0
   10.4417  -17.2833   28.0903 O   0  0  0  0  0  0  0  0  0  0  0  0
   11.1111  -15.4081   29.1163 O   0  0  0  0  0  0  0  0  0  0  0  0
  2  1  1  6
  2  3  1  0
  4  3  1  0
  5  4  2  0
  6  7  1  0
  6  5  1  0
  7  8  2  0
  8  4  1  0
  9 10  2  0
  9  2  1  0
 11  9  1  0
 12 11  1  0
 12 13  1  6
 14 13  1  0
 15 14  2  0
 16 12  1  0
 17 16  2  0
 18 14  1  0
 20 19  1  0
 21 20  1  0
 22 21  1  0
 23 22  1  1
 23 24  1  0
 24 16  1  0
 25 23  1  0
 26 25  2  0
 27 25  1  0
M  END
$$$$
