HDM.pdb
     RDKit          3D

 27 27  0  0  1  0  0  0  0  0999 V2000
    7.1498  -16.6080   20.1865 N   0  0  0  0  0  0  0  0  0  0  0  0
    8.3958  -16.0812   20.6910 C   0  0  1  0  0  0  0  0  0  0  0  0
    8.3733  -14.5716   20.6566 C   0  0  0  0  0  0  0  0  0  0  0  0
    8.3226  -14.1414   19.2325 C   0  0  0  0  0  0  0  0  0  0  0  0
    7.2889  -13.4818   18.6157 C   0  0  0  0  0  0  0  0  0  0  0  0
    7.6269  -13.2681   17.3168 N   0  0  0  0  0  0  0  0  0  0  0  0
    8.8608  -13.7976   17.1525 C   0  0  0  0  0  0  0  0  0  0  0  0
    9.2746  -14.3219   18.3089 N   0  0  0  0  0  0  0  0  0  0  0  0
    8.5945  -16.5558   22.1054 C   0  0  0  0  0  0  0  0  0  0  0  0
    7.6611  -16.5985   22.9373 O   0  0  0  0  0  0  0  0  0  0  0  0
    9.8716  -16.9826   22.5627 N   0  0  0  0  0  0  0  0  0  0  0  0
   10.0831  -17.4407   23.8920 C   0  0  1  0  0  0  0  0  0  0  0  0
   11.3769  -18.1868   24.0926 C   0  0  0  0  0  0  0  0  0  0  0  0
   11.5517  -18.6722   25.4731 C   0  0  0  0  0  0  0  0  0  0  0  0
   12.7366  -18.8683   25.8717 O   0  0  0  0  0  0  0  0  0  0  0  0
   10.1299  -16.2568   24.7914 C   0  0  0  0  0  0  0  0  0  0  0  0
   11.0607  -15.4267   24.6488 O   0  0  0  0  0  0  0  0  0  0  0  0
   10.5331  -18.9245   26.3485 O   0  0  0  0  0  0  0  0  0  0  0  0
    6.5575  -10.1539   27.4826 C   0  0  0  0  0  0  0  0  0  0  0  0
    6.5435  -11.7723   26.6864 S   0  0  0  0  0  0  0  0  0  0  0  0
    8.0184  -12.7291   27.1095 C   0  0  0  0  0  0  0  0  0  0  0  0
    8.1224  -13.9579   26.2803 C   0  0  0  0  0  0  0  0  0  0  0  0
    9.3005  -14.8353   26.6133 C   0  0  2  0  0  0  0  0  0  0  0  0
    9.1648  -16.0263   25.8046 N   0  0  0  0  0  0  0  0  0  0  0  0
    9.3791  -15.2040   28.0209 C   0  0  0  0  0  0  0  0  0  0  0  0
    9.0793  -16.3722   28.3697 O   0  0  0  0  0  0  0  0  0  0  0  0
    9.7687  -14.3502   29.0425 O   0  0  0  0  0  0  0  0  0  0  0  0
  2  1  1  1
  2  3  1  0
  4  3  1  0
  5  4  2  0
  6  7  1  0
  6  5  1  0
  7  8  2  0
  8  4  1  0
  9 10  2  0
  9  2  1  0
 11  9  1  0
 12 11  1  0
 12 13  1  6
 14 13  1  0
 15 14  2  0
 16 12  1  0
 17 16  2  0
 18 14  1  0
 20 19  1  0
 21 20  1  0
 22 21  1  0
 23 22  1  1
 23 24  1  0
 24 16  1  0
 25 23  1  0
 26 25  2  0
 27 25  1  0
M  END
$$$$
