HDM.pdb
     RDKit          3D

 27 27  0  0  1  0  0  0  0  0999 V2000
    8.3271  -16.9781   19.0798 N   0  0  0  0  0  0  0  0  0  0  0  0
    9.0204  -16.0909   19.9836 C   0  0  1  0  0  0  0  0  0  0  0  0
    8.2009  -14.8441   20.2179 C   0  0  0  0  0  0  0  0  0  0  0  0
    8.1418  -14.0818   18.9409 C   0  0  0  0  0  0  0  0  0  0  0  0
    8.8866  -12.9755   18.6158 C   0  0  0  0  0  0  0  0  0  0  0  0
    8.5412  -12.5751   17.3640 N   0  0  0  0  0  0  0  0  0  0  0  0
    7.5911  -13.4380   16.9368 C   0  0  0  0  0  0  0  0  0  0  0  0
    7.3547  -14.3428   17.8901 N   0  0  0  0  0  0  0  0  0  0  0  0
    9.2524  -16.8014   21.2899 C   0  0  0  0  0  0  0  0  0  0  0  0
    8.3169  -17.2720   21.9744 O   0  0  0  0  0  0  0  0  0  0  0  0
   10.5654  -16.9704   21.8091 N   0  0  0  0  0  0  0  0  0  0  0  0
   10.8062  -17.5902   23.0660 C   0  0  1  0  0  0  0  0  0  0  0  0
   12.1951  -18.1529   23.2243 C   0  0  0  0  0  0  0  0  0  0  0  0
   12.3689  -18.9091   24.4771 C   0  0  0  0  0  0  0  0  0  0  0  0
   11.3567  -19.5188   24.9301 O   0  0  0  0  0  0  0  0  0  0  0  0
   10.6373  -16.5657   24.1311 C   0  0  0  0  0  0  0  0  0  0  0  0
   11.3226  -15.5156   24.0729 O   0  0  0  0  0  0  0  0  0  0  0  0
   13.5368  -18.9990   25.1811 O   0  0  0  0  0  0  0  0  0  0  0  0
    5.8935  -11.8007   27.4687 C   0  0  0  0  0  0  0  0  0  0  0  0
    6.2317  -13.2789   26.4922 S   0  0  0  0  0  0  0  0  0  0  0  0
    7.8626  -13.9618   26.8714 C   0  0  0  0  0  0  0  0  0  0  0  0
    8.2315  -15.0419   25.9198 C   0  0  0  0  0  0  0  0  0  0  0  0
    9.5965  -15.6354   26.1508 C   0  0  2  0  0  0  0  0  0  0  0  0
    9.7325  -16.7260   25.2113 N   0  0  0  0  0  0  0  0  0  0  0  0
    9.8014  -16.1272   27.5071 C   0  0  0  0  0  0  0  0  0  0  0  0
    9.6951  -17.3564   27.7395 O   0  0  0  0  0  0  0  0  0  0  0  0
   10.1138  -15.3310   28.5993 O   0  0  0  0  0  0  0  0  0  0  0  0
  2  1  1  6
  2  3  1  0
  4  3  1  0
  5  4  2  0
  6  7  1  0
  6  5  1  0
  7  8  2  0
  8  4  1  0
  9 10  2  0
  9  2  1  0
 11  9  1  0
 12 11  1  0
 12 13  1  6
 14 13  1  0
 15 14  2  0
 16 12  1  0
 17 16  2  0
 18 14  1  0
 20 19  1  0
 21 20  1  0
 22 21  1  0
 23 22  1  1
 23 24  1  0
 24 16  1  0
 25 23  1  0
 26 25  2  0
 27 25  1  0
M  END
$$$$
