HDM.pdb
     RDKit          3D

 27 27  0  0  1  0  0  0  0  0999 V2000
    7.2247  -16.6752   20.2156 N   0  0  0  0  0  0  0  0  0  0  0  0
    8.4535  -16.0332   20.6187 C   0  0  1  0  0  0  0  0  0  0  0  0
    8.2859  -14.5324   20.5994 C   0  0  0  0  0  0  0  0  0  0  0  0
    8.0468  -14.1110   19.1919 C   0  0  0  0  0  0  0  0  0  0  0  0
    6.8849  -13.5862   18.6835 C   0  0  0  0  0  0  0  0  0  0  0  0
    7.0686  -13.3307   17.3614 N   0  0  0  0  0  0  0  0  0  0  0  0
    8.3379  -13.7008   17.0750 C   0  0  0  0  0  0  0  0  0  0  0  0
    8.9219  -14.1697   18.1807 N   0  0  0  0  0  0  0  0  0  0  0  0
    8.8143  -16.4879   22.0073 C   0  0  0  0  0  0  0  0  0  0  0  0
    7.9637  -16.6111   22.9164 O   0  0  0  0  0  0  0  0  0  0  0  0
   10.1584  -16.8017   22.3496 N   0  0  0  0  0  0  0  0  0  0  0  0
   10.5082  -17.3404   23.6181 C   0  0  1  0  0  0  0  0  0  0  0  0
   11.8967  -17.9223   23.6835 C   0  0  0  0  0  0  0  0  0  0  0  0
   12.9017  -17.0878   23.0013 C   0  0  0  0  0  0  0  0  0  0  0  0
   12.9171  -17.1186   21.7363 O   0  0  0  0  0  0  0  0  0  0  0  0
   10.4584  -16.2427   24.6207 C   0  0  0  0  0  0  0  0  0  0  0  0
   10.6254  -15.0611   24.2311 O   0  0  0  0  0  0  0  0  0  0  0  0
   13.8128  -16.2880   23.6320 O   0  0  0  0  0  0  0  0  0  0  0  0
    6.3343  -11.4106   27.7933 C   0  0  0  0  0  0  0  0  0  0  0  0
    6.8353  -12.7922   26.7476 S   0  0  0  0  0  0  0  0  0  0  0  0
    8.3960  -13.5128   27.3085 C   0  0  0  0  0  0  0  0  0  0  0  0
    8.8481  -14.5986   26.4003 C   0  0  0  0  0  0  0  0  0  0  0  0
   10.0801  -15.3282   26.8676 C   0  0  2  0  0  0  0  0  0  0  0  0
   10.2292  -16.4758   26.0006 N   0  0  0  0  0  0  0  0  0  0  0  0
   10.0121  -15.7669   28.2555 C   0  0  0  0  0  0  0  0  0  0  0  0
    9.6956  -16.9546   28.5117 O   0  0  0  0  0  0  0  0  0  0  0  0
   10.2748  -14.9618   29.3542 O   0  0  0  0  0  0  0  0  0  0  0  0
  2  1  1  1
  2  3  1  0
  4  3  1  0
  5  4  2  0
  6  7  1  0
  6  5  1  0
  7  8  2  0
  8  4  1  0
  9 10  2  0
  9  2  1  0
 11  9  1  0
 12 11  1  0
 12 13  1  6
 14 13  1  0
 15 14  2  0
 16 12  1  0
 17 16  2  0
 18 14  1  0
 20 19  1  0
 21 20  1  0
 22 21  1  0
 23 22  1  6
 23 24  1  0
 24 16  1  0
 25 23  1  0
 26 25  2  0
 27 25  1  0
M  END
$$$$
