REA.pdb
     RDKit          3D

 26 25  0  0  1  0  0  0  0  0999 V2000
   25.3264  -25.5657  -14.7347 N   0  0  0  0  0  0  0  0  0  0  0  0
   25.4466  -24.8040  -15.9250 C   0  0  0  0  0  0  0  0  0  0  0  0
   26.2544  -25.2238  -16.8411 N   0  0  0  0  0  0  0  0  0  0  0  0
   24.7011  -23.5966  -16.1291 N   0  0  0  0  0  0  0  0  0  0  0  0
   23.6992  -23.1703  -15.1547 C   0  0  0  0  0  0  0  0  0  0  0  0
   22.4981  -24.0443  -15.2345 C   0  0  0  0  0  0  0  0  0  0  0  0
   21.3787  -23.7183  -14.3232 C   0  0  0  0  0  0  0  0  0  0  0  0
   20.1792  -23.0737  -14.9293 C   0  0  2  0  0  0  0  0  0  0  0  0
   20.6418  -22.0233  -15.8437 N   0  0  0  0  0  0  0  0  0  0  0  0
   19.4682  -22.3548  -13.8107 C   0  0  0  0  0  0  0  0  0  0  0  0
   19.4448  -21.0911  -13.7926 O   0  0  0  0  0  0  0  0  0  0  0  0
   26.4774  -24.6874  -17.7116 N   0  0  0  0  0  0  0  0  0  0  0  0
   18.8319  -23.0800  -12.7894 C   0  0  1  0  0  0  0  0  0  0  0  0
   17.9014  -22.4766  -11.8139 C   0  0  0  0  0  0  0  0  0  0  0  0
   16.7786  -21.8078  -12.5892 C   0  0  0  0  0  0  0  0  0  0  0  0
   15.7026  -21.2039  -11.7554 C   0  0  0  0  0  0  0  0  0  0  0  0
   14.7242  -20.5813  -12.7354 O   0  0  0  0  0  0  0  0  0  0  0  0
   13.5028  -20.5398  -12.5189 C   0  0  0  0  0  0  0  0  0  0  0  0
   17.4787  -23.5300  -10.9036 O   0  0  0  0  0  0  0  0  0  0  0  0
   17.2594  -24.7180  -11.3276 O   0  0  0  0  0  0  0  0  0  0  0  0
   15.2150  -20.0399  -13.9147 C   0  0  0  0  0  0  0  0  0  0  0  0
   15.7338  -25.2788   -9.3463 C   0  0  2  0  0  0  0  0  0  0  0  0
   16.7742  -24.4652   -8.6496 N   0  0  0  0  0  0  0  0  0  0  0  0
   17.2692  -23.3821   -9.4959 C   0  0  0  0  0  0  0  0  0  0  0  0
   17.9112  -25.2685   -8.1250 O   0  0  0  0  0  0  0  0  0  0  0  0
   19.1867  -24.9498   -8.5254 O   0  0  0  0  0  0  0  0  0  0  0  0
  2  3  2  0
  2  1  1  0
  4  2  1  0
  5  4  1  0
  6  5  1  0
  7  6  1  0
  8 10  1  0
  8  7  1  0
  8  9  1  6
 10 11  2  0
 12 10  1  0
 12 13  1  0
 13 14  1  1
 15 14  1  0
 15 16  1  0
 16 17  2  0
 18 23  1  0
 18 13  1  0
 19 18  2  0
 20 16  1  0
 22 21  1  1
 22 24  1  0
 22 23  1  0
 24 25  1  0
 26 24  2  0
M  END
$$$$
