REA.pdb
     RDKit          3D

 26 25  0  0  1  0  0  0  0  0999 V2000
   24.5206  -16.8364  -16.2537 N   0  0  0  0  0  0  0  0  0  0  0  0
   25.7898  -16.6836  -15.6394 C   0  0  0  0  0  0  0  0  0  0  0  0
   26.6207  -17.6705  -15.6982 N   0  0  0  0  0  0  0  0  0  0  0  0
   26.1636  -15.4748  -14.9655 N   0  0  0  0  0  0  0  0  0  0  0  0
   25.2295  -14.3543  -14.8803 C   0  0  0  0  0  0  0  0  0  0  0  0
   25.1856  -13.6206  -16.1737 C   0  0  0  0  0  0  0  0  0  0  0  0
   24.3555  -12.3963  -16.2140 C   0  0  0  0  0  0  0  0  0  0  0  0
   22.9103  -12.5480  -15.8822 C   0  0  2  0  0  0  0  0  0  0  0  0
   22.3491  -13.5811  -16.7603 N   0  0  0  0  0  0  0  0  0  0  0  0
   22.2399  -11.2602  -16.2893 C   0  0  0  0  0  0  0  0  0  0  0  0
   22.5413  -10.7174  -17.3903 O   0  0  0  0  0  0  0  0  0  0  0  0
   27.5800  -17.6502  -15.2802 N   0  0  0  0  0  0  0  0  0  0  0  0
   21.2831  -10.6606  -15.4535 C   0  0  1  0  0  0  0  0  0  0  0  0
   20.6146   -9.3797  -15.7607 C   0  0  0  0  0  0  0  0  0  0  0  0
   19.1831   -9.4661  -15.2582 C   0  0  0  0  0  0  0  0  0  0  0  0
   18.4002   -8.2027  -15.3504 C   0  0  0  0  0  0  0  0  0  0  0  0
   17.0277   -8.5283  -14.7885 O   0  0  0  0  0  0  0  0  0  0  0  0
   16.0346   -8.6933  -15.5146 C   0  0  0  0  0  0  0  0  0  0  0  0
   21.4123   -8.3171  -15.1679 O   0  0  0  0  0  0  0  0  0  0  0  0
   21.9620   -8.4675  -14.0214 O   0  0  0  0  0  0  0  0  0  0  0  0
   16.8802   -8.6453  -13.4140 C   0  0  0  0  0  0  0  0  0  0  0  0
   22.8484   -4.9232  -16.0952 C   0  0  1  0  0  0  0  0  0  0  0  0
   22.5850   -6.0640  -15.1683 N   0  0  0  0  0  0  0  0  0  0  0  0
   21.6728   -7.0404  -15.7591 C   0  0  0  0  0  0  0  0  0  0  0  0
   22.0930   -5.6458  -13.8280 O   0  0  0  0  0  0  0  0  0  0  0  0
   22.9673   -5.0295  -12.9652 O   0  0  0  0  0  0  0  0  0  0  0  0
  2  3  2  0
  2  1  1  0
  4  2  1  0
  5  4  1  0
  6  5  1  0
  7  6  1  0
  8 10  1  0
  8  7  1  0
  8  9  1  6
 10 11  2  0
 12 10  1  0
 12 13  1  0
 13 14  1  6
 15 14  1  0
 15 16  1  0
 16 17  2  0
 18 23  1  0
 18 13  1  0
 19 18  2  0
 20 16  1  0
 22 21  1  6
 22 24  1  0
 22 23  1  0
 24 25  1  0
 26 24  2  0
M  END
$$$$
