REA.pdb
     RDKit          3D

 26 25  0  0  1  0  0  0  0  0999 V2000
   18.4805  -24.8148  -13.1626 N   0  0  0  0  0  0  0  0  0  0  0  0
   17.7213  -23.8498  -12.4526 C   0  0  0  0  0  0  0  0  0  0  0  0
   16.9227  -24.2614  -11.5248 N   0  0  0  0  0  0  0  0  0  0  0  0
   17.8210  -22.4487  -12.7390 N   0  0  0  0  0  0  0  0  0  0  0  0
   18.7514  -21.9643  -13.7564 C   0  0  0  0  0  0  0  0  0  0  0  0
   20.1552  -22.2049  -13.3271 C   0  0  0  0  0  0  0  0  0  0  0  0
   20.9565  -21.0105  -12.9791 C   0  0  0  0  0  0  0  0  0  0  0  0
   21.2695  -20.0607  -14.0843 C   0  0  2  0  0  0  0  0  0  0  0  0
   21.1975  -20.7986  -15.3507 N   0  0  0  0  0  0  0  0  0  0  0  0
   22.7180  -19.6752  -13.9202 C   0  0  0  0  0  0  0  0  0  0  0  0
   23.0973  -19.0990  -12.8610 O   0  0  0  0  0  0  0  0  0  0  0  0
   16.2965  -23.6302  -10.9728 N   0  0  0  0  0  0  0  0  0  0  0  0
   23.6479  -19.9523  -14.9362 C   0  0  1  0  0  0  0  0  0  0  0  0
   25.0385  -19.4542  -14.9320 C   0  0  0  0  0  0  0  0  0  0  0  0
   25.9118  -20.4977  -15.6084 C   0  0  0  0  0  0  0  0  0  0  0  0
   27.3429  -20.1194  -15.7716 C   0  0  0  0  0  0  0  0  0  0  0  0
   28.0514  -21.3814  -16.2307 O   0  0  0  0  0  0  0  0  0  0  0  0
   29.2671  -21.4076  -16.4797 C   0  0  0  0  0  0  0  0  0  0  0  0
   25.0363  -18.1462  -15.5692 O   0  0  0  0  0  0  0  0  0  0  0  0
   24.2771  -17.9029  -16.5711 O   0  0  0  0  0  0  0  0  0  0  0  0
   27.3118  -22.5460  -16.3767 C   0  0  0  0  0  0  0  0  0  0  0  0
   26.5921  -14.7011  -15.1930 C   0  0  1  0  0  0  0  0  0  0  0  0
   25.8906  -15.7839  -15.9449 N   0  0  0  0  0  0  0  0  0  0  0  0
   25.8353  -17.0258  -15.1773 C   0  0  0  0  0  0  0  0  0  0  0  0
   26.4580  -16.0394  -17.2962 O   0  0  0  0  0  0  0  0  0  0  0  0
   26.2696  -15.0996  -18.2812 O   0  0  0  0  0  0  0  0  0  0  0  0
  2  3  2  0
  2  1  1  0
  4  2  1  0
  5  4  1  0
  6  5  1  0
  7  6  1  0
  8 10  1  0
  8  7  1  0
  8  9  1  6
 10 11  2  0
 12 10  1  0
 12 13  1  0
 13 14  1  1
 15 14  1  0
 15 16  1  0
 16 17  2  0
 18 23  1  0
 18 13  1  0
 19 18  2  0
 20 16  1  0
 22 21  1  1
 22 24  1  0
 22 23  1  0
 24 25  1  0
 26 24  2  0
M  END
$$$$
