REA.pdb
     RDKit          3D

 26 25  0  0  1  0  0  0  0  0999 V2000
   12.7301  -14.1875  -10.7524 N   0  0  0  0  0  0  0  0  0  0  0  0
   11.6486  -13.3121  -10.4772 C   0  0  0  0  0  0  0  0  0  0  0  0
   10.7733  -13.6778   -9.6008 N   0  0  0  0  0  0  0  0  0  0  0  0
   11.5097  -12.0492  -11.1412 N   0  0  0  0  0  0  0  0  0  0  0  0
   12.5718  -11.5480  -12.0107 C   0  0  0  0  0  0  0  0  0  0  0  0
   13.5142  -10.6974  -11.2352 C   0  0  0  0  0  0  0  0  0  0  0  0
   14.6147  -10.0639  -11.9950 C   0  0  0  0  0  0  0  0  0  0  0  0
   15.9864  -10.6040  -11.7754 C   0  0  2  0  0  0  0  0  0  0  0  0
   15.8750  -11.7917  -10.9208 N   0  0  0  0  0  0  0  0  0  0  0  0
   16.7239   -9.5784  -10.9521 C   0  0  0  0  0  0  0  0  0  0  0  0
   16.8722   -9.7605   -9.7101 O   0  0  0  0  0  0  0  0  0  0  0  0
    9.9156  -13.1249   -9.3682 N   0  0  0  0  0  0  0  0  0  0  0  0
   17.2470   -8.4229  -11.5562 C   0  0  1  0  0  0  0  0  0  0  0  0
   17.9244   -7.3433  -10.8097 C   0  0  0  0  0  0  0  0  0  0  0  0
   19.1470   -6.9190  -11.6060 C   0  0  0  0  0  0  0  0  0  0  0  0
   19.9395   -5.8081  -11.0096 C   0  0  0  0  0  0  0  0  0  0  0  0
   21.0700   -5.5395  -11.9869 O   0  0  0  0  0  0  0  0  0  0  0  0
   21.6704   -6.4526  -12.5755 C   0  0  0  0  0  0  0  0  0  0  0  0
   16.9457   -6.2921  -10.5769 O   0  0  0  0  0  0  0  0  0  0  0  0
   16.3097   -5.7571  -11.5508 O   0  0  0  0  0  0  0  0  0  0  0  0
   21.4440   -4.2257  -12.2295 C   0  0  0  0  0  0  0  0  0  0  0  0
   15.1337   -4.5403   -7.7537 C   0  0  1  0  0  0  0  0  0  0  0  0
   15.6705   -4.6268   -9.1445 N   0  0  0  0  0  0  0  0  0  0  0  0
   16.5865   -5.7541   -9.3007 C   0  0  0  0  0  0  0  0  0  0  0  0
   16.3142   -3.3717   -9.6174 O   0  0  0  0  0  0  0  0  0  0  0  0
   15.5202   -2.2843   -9.8930 O   0  0  0  0  0  0  0  0  0  0  0  0
  2  3  2  0
  2  1  1  0
  4  2  1  0
  5  4  1  0
  6  5  1  0
  7  6  1  0
  8 10  1  0
  8  7  1  0
  8  9  1  1
 10 11  2  0
 12 10  1  0
 12 13  1  0
 13 14  1  1
 15 14  1  0
 15 16  1  0
 16 17  2  0
 18 23  1  0
 18 13  1  0
 19 18  2  0
 20 16  1  0
 22 21  1  6
 22 24  1  0
 22 23  1  0
 24 25  1  0
 26 24  2  0
M  END
$$$$
