REA.pdb
     RDKit          3D

 26 25  0  0  1  0  0  0  0  0999 V2000
   29.7709  -21.5419   -9.9646 N   0  0  0  0  0  0  0  0  0  0  0  0
   30.9054  -21.6962  -10.8017 C   0  0  0  0  0  0  0  0  0  0  0  0
   31.9006  -22.3917  -10.3615 N   0  0  0  0  0  0  0  0  0  0  0  0
   30.9687  -21.1055  -12.1064 N   0  0  0  0  0  0  0  0  0  0  0  0
   29.7992  -20.4407  -12.6768 C   0  0  0  0  0  0  0  0  0  0  0  0
   28.8304  -21.4486  -13.1852 C   0  0  0  0  0  0  0  0  0  0  0  0
   27.6493  -20.9276  -13.9085 C   0  0  0  0  0  0  0  0  0  0  0  0
   26.7144  -21.9329  -14.4892 C   0  0  2  0  0  0  0  0  0  0  0  0
   27.4692  -22.7594  -15.4382 N   0  0  0  0  0  0  0  0  0  0  0  0
   25.7206  -21.1628  -15.3216 C   0  0  0  0  0  0  0  0  0  0  0  0
   25.8878  -21.0701  -16.5711 O   0  0  0  0  0  0  0  0  0  0  0  0
   32.7597  -22.5989  -10.9221 N   0  0  0  0  0  0  0  0  0  0  0  0
   24.6108  -20.5485  -14.7178 C   0  0  2  0  0  0  0  0  0  0  0  0
   23.6031  -19.7650  -15.4611 C   0  0  0  0  0  0  0  0  0  0  0  0
   22.2330  -20.1185  -14.9072 C   0  0  0  0  0  0  0  0  0  0  0  0
   21.0975  -19.3418  -15.4774 C   0  0  0  0  0  0  0  0  0  0  0  0
   19.8516  -19.8712  -14.7898 O   0  0  0  0  0  0  0  0  0  0  0  0
   19.9013  -20.7239  -13.8892 C   0  0  0  0  0  0  0  0  0  0  0  0
   23.9698  -18.3615  -15.3476 O   0  0  0  0  0  0  0  0  0  0  0  0
   24.6682  -17.9411  -14.3603 O   0  0  0  0  0  0  0  0  0  0  0  0
   18.6140  -19.3831  -15.1835 C   0  0  0  0  0  0  0  0  0  0  0  0
   24.0733  -15.5709  -14.6388 C   0  0  2  0  0  0  0  0  0  0  0  0
   23.9974  -15.9314  -16.0859 N   0  0  0  0  0  0  0  0  0  0  0  0
   23.6194  -17.3299  -16.2750 C   0  0  0  0  0  0  0  0  0  0  0  0
   25.2401  -15.6274  -16.8451 O   0  0  0  0  0  0  0  0  0  0  0  0
   25.6351  -14.3170  -16.9701 O   0  0  0  0  0  0  0  0  0  0  0  0
  2  3  2  0
  2  1  1  0
  4  2  1  0
  5  4  1  0
  6  5  1  0
  7  6  1  0
  8 10  1  0
  8  7  1  0
  8  9  1  6
 10 11  2  0
 12 10  1  0
 12 13  1  0
 13 14  1  6
 15 14  1  0
 15 16  1  0
 16 17  2  0
 18 23  1  0
 18 13  1  0
 19 18  2  0
 20 16  1  0
 22 21  1  6
 22 24  1  0
 22 23  1  0
 24 25  1  0
 26 24  2  0
M  END
$$$$
