REA.pdb
     RDKit          3D

 26 25  0  0  1  0  0  0  0  0999 V2000
   25.1749  -22.8758  -15.7303 N   0  0  0  0  0  0  0  0  0  0  0  0
   26.1741  -22.4009  -14.8429 C   0  0  0  0  0  0  0  0  0  0  0  0
   27.4115  -22.5292  -15.1899 N   0  0  0  0  0  0  0  0  0  0  0  0
   25.8439  -21.7906  -13.5885 N   0  0  0  0  0  0  0  0  0  0  0  0
   24.4480  -21.6212  -13.1912 C   0  0  0  0  0  0  0  0  0  0  0  0
   23.9552  -20.2784  -13.5999 C   0  0  0  0  0  0  0  0  0  0  0  0
   22.7218  -20.2448  -14.4168 C   0  0  0  0  0  0  0  0  0  0  0  0
   22.6047  -21.2552  -15.5063 C   0  0  2  0  0  0  0  0  0  0  0  0
   23.5594  -20.8972  -16.5618 N   0  0  0  0  0  0  0  0  0  0  0  0
   21.2376  -21.0718  -16.1154 C   0  0  0  0  0  0  0  0  0  0  0  0
   21.1070  -20.3823  -17.1667 O   0  0  0  0  0  0  0  0  0  0  0  0
   28.2187  -22.2823  -14.5711 N   0  0  0  0  0  0  0  0  0  0  0  0
   20.1091  -21.6622  -15.5224 C   0  0  1  0  0  0  0  0  0  0  0  0
   18.7524  -21.6016  -16.1034 C   0  0  0  0  0  0  0  0  0  0  0  0
   18.1189  -22.9752  -15.9580 C   0  0  0  0  0  0  0  0  0  0  0  0
   16.7267  -22.9799  -15.4294 C   0  0  0  0  0  0  0  0  0  0  0  0
   16.3414  -24.4429  -15.3007 O   0  0  0  0  0  0  0  0  0  0  0  0
   17.1605  -25.3620  -15.4584 C   0  0  0  0  0  0  0  0  0  0  0  0
   18.0399  -20.5213  -15.4383 O   0  0  0  0  0  0  0  0  0  0  0  0
   18.2089  -20.2912  -14.1902 O   0  0  0  0  0  0  0  0  0  0  0  0
   15.0261  -24.7619  -14.9956 C   0  0  0  0  0  0  0  0  0  0  0  0
   15.8217  -19.0423  -14.0682 C   0  0  2  0  0  0  0  0  0  0  0  0
   16.4409  -18.5505  -15.3348 N   0  0  0  0  0  0  0  0  0  0  0  0
   17.1134  -19.6257  -16.0602 C   0  0  0  0  0  0  0  0  0  0  0  0
   17.3671  -17.4022  -15.1426 O   0  0  0  0  0  0  0  0  0  0  0  0
   16.8774  -16.2426  -14.5909 O   0  0  0  0  0  0  0  0  0  0  0  0
  2  3  2  0
  2  1  1  0
  4  2  1  0
  5  4  1  0
  6  5  1  0
  7  6  1  0
  8 10  1  0
  8  7  1  0
  8  9  1  6
 10 11  2  0
 12 10  1  0
 12 13  1  0
 13 14  1  6
 15 14  1  0
 15 16  1  0
 16 17  2  0
 18 23  1  0
 18 13  1  0
 19 18  2  0
 20 16  1  0
 22 21  1  6
 22 24  1  0
 22 23  1  0
 24 25  1  0
 26 24  2  0
M  END
$$$$
