REA.pdb
     RDKit          3D

 26 25  0  0  1  0  0  0  0  0999 V2000
   26.5894  -20.0226   -9.0232 N   0  0  0  0  0  0  0  0  0  0  0  0
   25.3998  -20.7823   -9.1625 C   0  0  0  0  0  0  0  0  0  0  0  0
   24.6052  -20.8663   -8.1479 N   0  0  0  0  0  0  0  0  0  0  0  0
   25.0665  -21.4480  -10.3876 N   0  0  0  0  0  0  0  0  0  0  0  0
   26.1127  -21.8218  -11.3366 C   0  0  0  0  0  0  0  0  0  0  0  0
   26.3085  -20.7410  -12.3398 C   0  0  0  0  0  0  0  0  0  0  0  0
   25.3269  -20.6762  -13.4453 C   0  0  0  0  0  0  0  0  0  0  0  0
   25.3458  -21.7926  -14.4326 C   0  0  2  0  0  0  0  0  0  0  0  0
   26.4986  -21.5952  -15.3189 N   0  0  0  0  0  0  0  0  0  0  0  0
   24.1280  -21.6146  -15.3037 C   0  0  0  0  0  0  0  0  0  0  0  0
   24.2253  -20.9869  -16.3966 O   0  0  0  0  0  0  0  0  0  0  0  0
   23.6964  -21.3852   -8.1611 N   0  0  0  0  0  0  0  0  0  0  0  0
   22.8870  -22.1417  -14.9089 C   0  0  2  0  0  0  0  0  0  0  0  0
   21.6704  -22.0867  -15.7446 C   0  0  0  0  0  0  0  0  0  0  0  0
   20.7374  -23.1955  -15.2872 C   0  0  0  0  0  0  0  0  0  0  0  0
   19.3996  -23.2102  -15.9412 C   0  0  0  0  0  0  0  0  0  0  0  0
   18.6667  -24.4013  -15.3500 O   0  0  0  0  0  0  0  0  0  0  0  0
   19.1999  -25.5154  -15.2272 C   0  0  0  0  0  0  0  0  0  0  0  0
   21.1269  -20.7413  -15.6376 O   0  0  0  0  0  0  0  0  0  0  0  0
   21.0816  -20.1371  -14.5096 O   0  0  0  0  0  0  0  0  0  0  0  0
   17.3539  -24.2365  -14.9326 C   0  0  0  0  0  0  0  0  0  0  0  0
   19.9881  -17.8750  -17.8306 C   0  0  1  0  0  0  0  0  0  0  0  0
   20.0568  -18.6215  -16.5391 N   0  0  0  0  0  0  0  0  0  0  0  0
   20.6059  -19.9633  -16.7195 C   0  0  0  0  0  0  0  0  0  0  0  0
   18.7580  -18.6901  -15.8168 O   0  0  0  0  0  0  0  0  0  0  0  0
   18.3787  -17.6252  -15.0353 O   0  0  0  0  0  0  0  0  0  0  0  0
  2  3  2  0
  2  1  1  0
  4  2  1  0
  5  4  1  0
  6  5  1  0
  7  6  1  0
  8 10  1  0
  8  7  1  0
  8  9  1  6
 10 11  2  0
 12 10  1  0
 12 13  1  0
 13 14  1  1
 15 14  1  0
 15 16  1  0
 16 17  2  0
 18 23  1  0
 18 13  1  0
 19 18  2  0
 20 16  1  0
 22 21  1  1
 22 24  1  0
 22 23  1  0
 24 25  1  0
 26 24  2  0
M  END
$$$$
