REA.pdb
     RDKit          3D

 26 25  0  0  1  0  0  0  0  0999 V2000
   22.9784  -20.4422   -9.3813 N   0  0  0  0  0  0  0  0  0  0  0  0
   23.8458  -21.0190   -8.4188 C   0  0  0  0  0  0  0  0  0  0  0  0
   23.3211  -21.6705   -7.4348 N   0  0  0  0  0  0  0  0  0  0  0  0
   25.2708  -20.8960   -8.5146 N   0  0  0  0  0  0  0  0  0  0  0  0
   25.8733  -20.0090   -9.5072 C   0  0  0  0  0  0  0  0  0  0  0  0
   26.6978  -20.7928  -10.4657 C   0  0  0  0  0  0  0  0  0  0  0  0
   26.3622  -20.6510  -11.9000 C   0  0  0  0  0  0  0  0  0  0  0  0
   25.3308  -21.5770  -12.4478 C   0  0  2  0  0  0  0  0  0  0  0  0
   26.0085  -22.8018  -12.8881 N   0  0  0  0  0  0  0  0  0  0  0  0
   24.7999  -20.9323  -13.7033 C   0  0  0  0  0  0  0  0  0  0  0  0
   25.4224  -21.0772  -14.7938 O   0  0  0  0  0  0  0  0  0  0  0  0
   23.8783  -22.1345   -6.6802 N   0  0  0  0  0  0  0  0  0  0  0  0
   23.6187  -20.1727  -13.6687 C   0  0  2  0  0  0  0  0  0  0  0  0
   22.9620  -19.6241  -14.8727 C   0  0  0  0  0  0  0  0  0  0  0  0
   21.4736  -19.5155  -14.5861 C   0  0  0  0  0  0  0  0  0  0  0  0
   20.6536  -18.9465  -15.6913 C   0  0  0  0  0  0  0  0  0  0  0  0
   19.2141  -19.0190  -15.2140 O   0  0  0  0  0  0  0  0  0  0  0  0
   18.2535  -18.7721  -15.9602 C   0  0  0  0  0  0  0  0  0  0  0  0
   23.6202  -18.3673  -15.1954 O   0  0  0  0  0  0  0  0  0  0  0  0
   23.5299  -17.3569  -14.4143 O   0  0  0  0  0  0  0  0  0  0  0  0
   18.9656  -19.3742  -13.8961 C   0  0  0  0  0  0  0  0  0  0  0  0
   26.0380  -16.8603  -17.6863 C   0  0  1  0  0  0  0  0  0  0  0  0
   24.9143  -16.7873  -16.7056 N   0  0  0  0  0  0  0  0  0  0  0  0
   24.4116  -18.1150  -16.3605 C   0  0  0  0  0  0  0  0  0  0  0  0
   23.7942  -15.9108  -17.1418 O   0  0  0  0  0  0  0  0  0  0  0  0
   22.6808  -16.4897  -17.7022 O   0  0  0  0  0  0  0  0  0  0  0  0
  2  3  2  0
  2  1  1  0
  4  2  1  0
  5  4  1  0
  6  5  1  0
  7  6  1  0
  8 10  1  0
  8  7  1  0
  8  9  1  6
 10 11  2  0
 12 10  1  0
 12 13  1  0
 13 14  1  6
 15 14  1  0
 15 16  1  0
 16 17  2  0
 18 23  1  0
 18 13  1  0
 19 18  2  0
 20 16  1  0
 22 21  1  1
 22 24  1  0
 22 23  1  0
 24 25  1  0
 26 24  2  0
M  END
$$$$
