REA.pdb
     RDKit          3D

 26 25  0  0  1  0  0  0  0  0999 V2000
   27.3915  -20.6159  -10.7810 N   0  0  0  0  0  0  0  0  0  0  0  0
   28.5983  -20.6788  -11.5235 C   0  0  0  0  0  0  0  0  0  0  0  0
   29.5789  -21.3663  -11.0401 N   0  0  0  0  0  0  0  0  0  0  0  0
   28.7492  -20.0058  -12.7803 N   0  0  0  0  0  0  0  0  0  0  0  0
   27.6389  -19.2484  -13.3537 C   0  0  0  0  0  0  0  0  0  0  0  0
   26.5889  -20.1743  -13.8566 C   0  0  0  0  0  0  0  0  0  0  0  0
   25.4723  -19.5637  -14.6118 C   0  0  0  0  0  0  0  0  0  0  0  0
   24.4320  -20.4879  -15.1459 C   0  0  2  0  0  0  0  0  0  0  0  0
   25.1116  -21.5546  -15.8901 N   0  0  0  0  0  0  0  0  0  0  0  0
   23.6530  -19.7074  -16.1743 C   0  0  0  0  0  0  0  0  0  0  0  0
   24.0617  -19.6634  -17.3696 O   0  0  0  0  0  0  0  0  0  0  0  0
   30.5303  -21.4089  -11.4743 N   0  0  0  0  0  0  0  0  0  0  0  0
   22.4768  -19.0296  -15.8127 C   0  0  1  0  0  0  0  0  0  0  0  0
   21.5827  -18.3656  -16.7829 C   0  0  0  0  0  0  0  0  0  0  0  0
   20.1693  -18.8660  -16.5360 C   0  0  0  0  0  0  0  0  0  0  0  0
   19.6890  -19.9072  -17.4863 C   0  0  0  0  0  0  0  0  0  0  0  0
   18.9662  -20.9369  -16.6361 O   0  0  0  0  0  0  0  0  0  0  0  0
   18.0861  -20.6239  -15.8188 C   0  0  0  0  0  0  0  0  0  0  0  0
   21.7628  -16.9297  -16.6318 O   0  0  0  0  0  0  0  0  0  0  0  0
   21.6644  -16.3708  -15.4841 O   0  0  0  0  0  0  0  0  0  0  0  0
   19.3029  -22.2751  -16.7795 C   0  0  0  0  0  0  0  0  0  0  0  0
   22.7446  -13.8813  -18.6748 C   0  0  1  0  0  0  0  0  0  0  0  0
   22.1901  -14.5712  -17.4722 N   0  0  0  0  0  0  0  0  0  0  0  0
   22.0598  -16.0104  -17.6872 C   0  0  0  0  0  0  0  0  0  0  0  0
   20.8996  -14.0033  -16.9974 O   0  0  0  0  0  0  0  0  0  0  0  0
   20.9211  -12.8637  -16.2295 O   0  0  0  0  0  0  0  0  0  0  0  0
  2  3  2  0
  2  1  1  0
  4  2  1  0
  5  4  1  0
  6  5  1  0
  7  6  1  0
  8 10  1  0
  8  7  1  0
  8  9  1  6
 10 11  2  0
 12 10  1  0
 12 13  1  0
 13 14  1  6
 15 14  1  0
 15 16  1  0
 16 17  2  0
 18 23  1  0
 18 13  1  0
 19 18  2  0
 20 16  1  0
 22 21  1  1
 22 24  1  0
 22 23  1  0
 24 25  1  0
 26 24  2  0
M  END
$$$$
