REA.pdb
     RDKit          3D

 26 25  0  0  1  0  0  0  0  0999 V2000
   10.4111  -11.4373  -11.7300 N   0  0  0  0  0  0  0  0  0  0  0  0
   10.6662  -10.1336  -11.2329 C   0  0  0  0  0  0  0  0  0  0  0  0
   10.2816   -9.8502  -10.0330 N   0  0  0  0  0  0  0  0  0  0  0  0
   11.3323   -9.1398  -12.0226 N   0  0  0  0  0  0  0  0  0  0  0  0
   11.8136   -9.4595  -13.3648 C   0  0  0  0  0  0  0  0  0  0  0  0
   13.2071   -9.9764  -13.3029 C   0  0  0  0  0  0  0  0  0  0  0  0
   13.9044  -10.1603  -14.5951 C   0  0  0  0  0  0  0  0  0  0  0  0
   15.3145  -10.6402  -14.5402 C   0  0  2  0  0  0  0  0  0  0  0  0
   15.3673  -11.7903  -13.6302 N   0  0  0  0  0  0  0  0  0  0  0  0
   16.1114   -9.5518  -13.8665 C   0  0  0  0  0  0  0  0  0  0  0  0
   16.2533   -9.5646  -12.6106 O   0  0  0  0  0  0  0  0  0  0  0  0
   10.4182   -8.9153   -9.5830 N   0  0  0  0  0  0  0  0  0  0  0  0
   16.6970   -8.5247  -14.6253 C   0  0  1  0  0  0  0  0  0  0  0  0
   17.5504   -7.4655  -14.0496 C   0  0  0  0  0  0  0  0  0  0  0  0
   19.0002   -7.8391  -14.3097 C   0  0  0  0  0  0  0  0  0  0  0  0
   20.0052   -6.8360  -13.8606 C   0  0  0  0  0  0  0  0  0  0  0  0
   21.3482   -7.3573  -14.3402 O   0  0  0  0  0  0  0  0  0  0  0  0
   21.9297   -6.8842  -15.3295 C   0  0  0  0  0  0  0  0  0  0  0  0
   17.1272   -6.1998  -14.6292 O   0  0  0  0  0  0  0  0  0  0  0  0
   17.0412   -6.0525  -15.8981 O   0  0  0  0  0  0  0  0  0  0  0  0
   21.9453   -8.3998  -13.6464 C   0  0  0  0  0  0  0  0  0  0  0  0
   15.6037   -2.8948  -13.6079 C   0  0  1  0  0  0  0  0  0  0  0  0
   16.3607   -3.7798  -14.5426 N   0  0  0  0  0  0  0  0  0  0  0  0
   16.7697   -5.0243  -13.8959 C   0  0  0  0  0  0  0  0  0  0  0  0
   17.5340   -3.1191  -15.1750 O   0  0  0  0  0  0  0  0  0  0  0  0
   17.3152   -2.1293  -16.1030 O   0  0  0  0  0  0  0  0  0  0  0  0
  2  3  2  0
  2  1  1  0
  4  2  1  0
  5  4  1  0
  6  5  1  0
  7  6  1  0
  8 10  1  0
  8  7  1  0
  8  9  1  1
 10 11  2  0
 12 10  1  0
 12 13  1  0
 13 14  1  6
 15 14  1  0
 15 16  1  0
 16 17  2  0
 18 23  1  0
 18 13  1  0
 19 18  2  0
 20 16  1  0
 22 21  1  6
 22 24  1  0
 22 23  1  0
 24 25  1  0
 26 24  2  0
M  END
$$$$
