REA.pdb
     RDKit          3D

 26 25  0  0  1  0  0  0  0  0999 V2000
   19.6044  -15.4806  -15.7378 N   0  0  0  0  0  0  0  0  0  0  0  0
   18.5752  -15.8222  -16.6519 C   0  0  0  0  0  0  0  0  0  0  0  0
   17.9987  -16.9706  -16.5229 N   0  0  0  0  0  0  0  0  0  0  0  0
   18.1676  -14.9323  -17.6994 N   0  0  0  0  0  0  0  0  0  0  0  0
   18.6822  -13.5658  -17.7533 C   0  0  0  0  0  0  0  0  0  0  0  0
   19.8731  -13.4983  -18.6421 C   0  0  0  0  0  0  0  0  0  0  0  0
   20.5229  -12.1762  -18.7814 C   0  0  0  0  0  0  0  0  0  0  0  0
   21.2283  -11.6398  -17.5829 C   0  0  2  0  0  0  0  0  0  0  0  0
   20.6795  -12.3072  -16.3968 N   0  0  0  0  0  0  0  0  0  0  0  0
   20.8228  -10.1927  -17.4593 C   0  0  0  0  0  0  0  0  0  0  0  0
   21.0974   -9.3830  -18.3902 O   0  0  0  0  0  0  0  0  0  0  0  0
   17.2405  -17.3163  -17.1562 N   0  0  0  0  0  0  0  0  0  0  0  0
   20.1421   -9.7393  -16.3171 C   0  0  1  0  0  0  0  0  0  0  0  0
   19.6490   -8.3567  -16.1523 C   0  0  0  0  0  0  0  0  0  0  0  0
   18.2071   -8.4271  -15.6778 C   0  0  0  0  0  0  0  0  0  0  0  0
   18.0027   -9.0974  -14.3637 C   0  0  0  0  0  0  0  0  0  0  0  0
   16.5177   -8.9803  -14.0697 O   0  0  0  0  0  0  0  0  0  0  0  0
   15.7127   -9.8840  -14.3449 C   0  0  0  0  0  0  0  0  0  0  0  0
   20.5616   -7.6718  -15.2495 O   0  0  0  0  0  0  0  0  0  0  0  0
   21.0683   -8.2768  -14.2413 O   0  0  0  0  0  0  0  0  0  0  0  0
   16.0456   -7.8208  -13.4719 C   0  0  0  0  0  0  0  0  0  0  0  0
   23.3165   -5.6466  -15.0286 C   0  0  2  0  0  0  0  0  0  0  0  0
   21.9416   -5.6958  -14.4481 N   0  0  0  0  0  0  0  0  0  0  0  0
   20.9884   -6.3113  -15.3684 C   0  0  0  0  0  0  0  0  0  0  0  0
   21.4359   -4.3728  -13.9927 O   0  0  0  0  0  0  0  0  0  0  0  0
   22.0920   -3.7300  -12.9705 O   0  0  0  0  0  0  0  0  0  0  0  0
  2  3  2  0
  2  1  1  0
  4  2  1  0
  5  4  1  0
  6  5  1  0
  7  6  1  0
  8 10  1  0
  8  7  1  0
  8  9  1  1
 10 11  2  0
 12 10  1  0
 12 13  1  0
 13 14  1  6
 15 14  1  0
 15 16  1  0
 16 17  2  0
 18 23  1  0
 18 13  1  0
 19 18  2  0
 20 16  1  0
 22 21  1  1
 22 24  1  0
 22 23  1  0
 24 25  1  0
 26 24  2  0
M  END
$$$$
