MNT.pdb
     RDKit          3D

 24 23  0  0  1  0  0  0  0  0999 V2000
   26.9929  -14.0986  -14.9792 C   0  0  0  0  0  0  0  0  0  0  0  0
   25.2864  -14.6627  -14.7701 S   0  0  0  0  0  0  0  0  0  0  0  0
   24.4650  -14.6648  -16.3738 C   0  0  0  0  0  0  0  0  0  0  0  0
   24.4834  -13.2750  -17.0027 C   0  0  0  0  0  0  0  0  0  0  0  0
   23.1797  -12.6085  -16.6165 C   0  0  2  0  0  0  0  0  0  0  0  0
   22.1169  -13.4435  -17.1417 N   0  0  0  0  0  0  0  0  0  0  0  0
   23.0698  -11.2503  -17.2372 C   0  0  0  0  0  0  0  0  0  0  0  0
   23.5288  -11.0135  -18.3894 O   0  0  0  0  0  0  0  0  0  0  0  0
   19.6740   -7.9431  -19.9097 N   0  0  0  0  0  0  0  0  0  0  0  0
   20.7509   -7.9658  -19.0173 C   0  0  0  0  0  0  0  0  0  0  0  0
   21.3581   -6.8539  -18.8460 O   0  0  0  0  0  0  0  0  0  0  0  0
   21.2418   -9.1141  -18.2747 C   0  0  0  0  0  0  0  0  0  0  0  0
   22.2082   -8.8608  -17.1726 C   0  0  2  0  0  0  0  0  0  0  0  0
   22.4474  -10.1813  -16.5552 N   0  0  0  0  0  0  0  0  0  0  0  0
   21.6806   -7.9809  -16.1075 C   0  0  0  0  0  0  0  0  0  0  0  0
   20.7234   -8.4001  -15.3617 O   0  0  0  0  0  0  0  0  0  0  0  0
   21.8226   -3.8514  -13.3002 C   0  0  0  0  0  0  0  0  0  0  0  0
   22.3419   -4.6438  -14.4519 C   0  0  1  0  0  0  0  0  0  0  0  0
   23.6217   -5.1274  -14.1158 O   0  0  0  0  0  0  0  0  0  0  0  0
   21.5128   -5.8594  -14.7946 C   0  0  2  0  0  0  0  0  0  0  0  0
   22.1441   -6.6728  -15.8136 N   0  0  0  0  0  0  0  0  0  0  0  0
   20.1332   -5.4696  -15.0993 C   0  0  0  0  0  0  0  0  0  0  0  0
   19.1083   -5.5652  -14.1731 O   0  0  0  0  0  0  0  0  0  0  0  0
   19.8699   -5.0292  -16.2527 O   0  0  0  0  0  0  0  0  0  0  0  0
  1  2  1  0
  2  3  1  0
  3  4  1  0
  5  7  1  0
  5  4  1  0
  5  6  1  6
  7  8  2  0
  9 10  1  0
 10 12  1  0
 11 10  2  0
 13 12  1  6
 14 13  1  0
 14  7  1  0
 15 21  1  0
 15 13  1  0
 16 15  2  0
 18 17  1  1
 19 18  1  0
 20 21  1  6
 20 18  1  0
 22 20  1  0
 23 22  1  0
 24 22  2  0
M  END
$$$$
