MNT.pdb
     RDKit          3D

 24 23  0  0  1  0  0  0  0  0999 V2000
   27.0429  -14.5636  -14.6309 C   0  0  0  0  0  0  0  0  0  0  0  0
   27.0312  -16.0248  -15.6979 S   0  0  0  0  0  0  0  0  0  0  0  0
   25.3773  -16.2455  -16.3780 C   0  0  0  0  0  0  0  0  0  0  0  0
   24.6168  -14.9235  -16.4142 C   0  0  0  0  0  0  0  0  0  0  0  0
   23.2755  -15.2137  -17.0543 C   0  0  2  0  0  0  0  0  0  0  0  0
   23.5341  -16.0992  -18.1730 N   0  0  0  0  0  0  0  0  0  0  0  0
   22.6494  -13.9574  -17.5755 C   0  0  0  0  0  0  0  0  0  0  0  0
   23.0072  -13.4503  -18.6751 O   0  0  0  0  0  0  0  0  0  0  0  0
   17.5081  -11.7218  -18.8940 N   0  0  0  0  0  0  0  0  0  0  0  0
   18.5161  -11.5730  -17.9356 C   0  0  0  0  0  0  0  0  0  0  0  0
   18.5652  -10.4387  -17.3480 O   0  0  0  0  0  0  0  0  0  0  0  0
   19.5009  -12.5679  -17.5466 C   0  0  0  0  0  0  0  0  0  0  0  0
   20.9086  -12.1167  -17.3810 C   0  0  2  0  0  0  0  0  0  0  0  0
   21.6332  -13.2916  -16.8549 N   0  0  0  0  0  0  0  0  0  0  0  0
   21.0746  -11.0333  -16.3883 C   0  0  0  0  0  0  0  0  0  0  0  0
   21.0658  -11.3197  -15.1368 O   0  0  0  0  0  0  0  0  0  0  0  0
   21.8181   -6.7449  -17.2131 C   0  0  0  0  0  0  0  0  0  0  0  0
   22.2738   -7.5300  -16.0299 C   0  0  1  0  0  0  0  0  0  0  0  0
   22.3198   -6.6675  -14.9168 O   0  0  0  0  0  0  0  0  0  0  0  0
   21.3519   -8.6627  -15.6426 C   0  0  2  0  0  0  0  0  0  0  0  0
   21.2519   -9.6585  -16.6899 N   0  0  0  0  0  0  0  0  0  0  0  0
   20.0637   -8.1395  -15.1791 C   0  0  0  0  0  0  0  0  0  0  0  0
   19.9275   -7.4286  -13.9988 O   0  0  0  0  0  0  0  0  0  0  0  0
   19.0378   -8.3459  -15.8852 O   0  0  0  0  0  0  0  0  0  0  0  0
  1  2  1  0
  2  3  1  0
  3  4  1  0
  5  7  1  0
  5  4  1  0
  5  6  1  6
  7  8  2  0
  9 10  1  0
 10 12  1  0
 11 10  2  0
 13 12  1  1
 14 13  1  0
 14  7  1  0
 15 21  1  0
 15 13  1  0
 16 15  2  0
 18 17  1  6
 19 18  1  0
 20 21  1  6
 20 18  1  0
 22 20  1  0
 23 22  1  0
 24 22  2  0
M  END
$$$$
