MNT.pdb
     RDKit          3D

 24 23  0  0  1  0  0  0  0  0999 V2000
   29.3221  -25.1027  -23.3338 C   0  0  0  0  0  0  0  0  0  0  0  0
   31.0522  -24.5736  -23.3036 S   0  0  0  0  0  0  0  0  0  0  0  0
   31.7297  -24.8651  -21.6596 C   0  0  0  0  0  0  0  0  0  0  0  0
   31.3419  -26.2469  -21.1423 C   0  0  0  0  0  0  0  0  0  0  0  0
   31.5761  -26.2298  -19.6464 C   0  0  2  0  0  0  0  0  0  0  0  0
   33.0097  -26.3269  -19.4511 N   0  0  0  0  0  0  0  0  0  0  0  0
   30.9248  -27.4077  -18.9903 C   0  0  0  0  0  0  0  0  0  0  0  0
   31.5527  -28.4865  -18.8004 O   0  0  0  0  0  0  0  0  0  0  0  0
   27.6498  -30.2302  -15.8286 N   0  0  0  0  0  0  0  0  0  0  0  0
   27.6202  -28.8326  -15.7788 C   0  0  0  0  0  0  0  0  0  0  0  0
   27.0669  -28.3220  -14.7456 O   0  0  0  0  0  0  0  0  0  0  0  0
   28.1499  -27.9150  -16.7729 C   0  0  0  0  0  0  0  0  0  0  0  0
   28.8929  -28.4974  -17.9224 C   0  0  2  0  0  0  0  0  0  0  0  0
   29.5808  -27.3554  -18.5585 N   0  0  0  0  0  0  0  0  0  0  0  0
   28.0199  -29.0981  -18.9540 C   0  0  0  0  0  0  0  0  0  0  0  0
   27.5338  -28.3522  -19.8789 O   0  0  0  0  0  0  0  0  0  0  0  0
   26.4822  -32.8151  -21.7701 C   0  0  0  0  0  0  0  0  0  0  0  0
   27.3587  -32.2130  -20.7246 C   0  0  1  0  0  0  0  0  0  0  0  0
   28.5729  -31.8326  -21.3294 O   0  0  0  0  0  0  0  0  0  0  0  0
   26.7989  -30.9618  -20.0888 C   0  0  2  0  0  0  0  0  0  0  0  0
   27.6538  -30.4665  -19.0295 N   0  0  0  0  0  0  0  0  0  0  0  0
   25.4026  -31.1682  -19.6940 C   0  0  0  0  0  0  0  0  0  0  0  0
   24.3497  -31.0541  -20.5859 O   0  0  0  0  0  0  0  0  0  0  0  0
   25.1510  -31.4616  -18.4923 O   0  0  0  0  0  0  0  0  0  0  0  0
  1  2  1  0
  2  3  1  0
  3  4  1  0
  5  7  1  0
  5  4  1  0
  5  6  1  6
  7  8  2  0
  9 10  1  0
 10 12  1  0
 11 10  2  0
 13 12  1  1
 14 13  1  0
 14  7  1  0
 15 21  1  0
 15 13  1  0
 16 15  2  0
 18 17  1  6
 19 18  1  0
 20 21  1  1
 20 18  1  0
 22 20  1  0
 23 22  1  0
 24 22  2  0
M  END
$$$$
