MNT.pdb
     RDKit          3D

 24 23  0  0  1  0  0  0  0  0999 V2000
   17.6478  -14.7194  -14.8994 C   0  0  0  0  0  0  0  0  0  0  0  0
   18.3409  -14.8249  -16.5674 S   0  0  0  0  0  0  0  0  0  0  0  0
   18.2755  -13.1972  -17.3376 C   0  0  0  0  0  0  0  0  0  0  0  0
   18.4971  -12.0929  -16.3086 C   0  0  0  0  0  0  0  0  0  0  0  0
   18.4327  -10.7809  -17.0620 C   0  0  2  0  0  0  0  0  0  0  0  0
   19.5590  -10.7726  -17.9752 N   0  0  0  0  0  0  0  0  0  0  0  0
   18.5693   -9.6202  -16.1259 C   0  0  0  0  0  0  0  0  0  0  0  0
   17.7541   -9.4383  -15.1790 O   0  0  0  0  0  0  0  0  0  0  0  0
   22.5145   -9.7532  -14.1574 N   0  0  0  0  0  0  0  0  0  0  0  0
   21.6337   -8.6846  -13.9602 C   0  0  0  0  0  0  0  0  0  0  0  0
   21.1010   -8.6064  -12.8007 O   0  0  0  0  0  0  0  0  0  0  0  0
   21.2688   -7.6670  -14.9309 C   0  0  0  0  0  0  0  0  0  0  0  0
   19.8372   -7.5699  -15.3230 C   0  0  2  0  0  0  0  0  0  0  0  0
   19.6173   -8.6839  -16.2679 N   0  0  0  0  0  0  0  0  0  0  0  0
   19.5000   -6.3245  -16.0456 C   0  0  0  0  0  0  0  0  0  0  0  0
   20.2025   -5.9773  -17.0626 O   0  0  0  0  0  0  0  0  0  0  0  0
   16.0116   -5.2162  -17.4969 C   0  0  0  0  0  0  0  0  0  0  0  0
   16.6597   -4.1033  -16.7451 C   0  0  1  0  0  0  0  0  0  0  0  0
   16.0851   -4.0427  -15.4602 O   0  0  0  0  0  0  0  0  0  0  0  0
   18.1449   -4.2798  -16.5305 C   0  0  2  0  0  0  0  0  0  0  0  0
   18.4378   -5.4430  -15.7185 N   0  0  0  0  0  0  0  0  0  0  0  0
   18.7439   -3.0341  -16.0430 C   0  0  0  0  0  0  0  0  0  0  0  0
   18.8228   -1.8898  -16.8186 O   0  0  0  0  0  0  0  0  0  0  0  0
   19.2061   -3.0045  -14.8687 O   0  0  0  0  0  0  0  0  0  0  0  0
  1  2  1  0
  2  3  1  0
  3  4  1  0
  5  7  1  0
  5  4  1  0
  5  6  1  6
  7  8  2  0
  9 10  1  0
 10 12  1  0
 11 10  2  0
 13 12  1  6
 14 13  1  0
 14  7  1  0
 15 21  1  0
 15 13  1  0
 16 15  2  0
 18 17  1  6
 19 18  1  0
 20 21  1  1
 20 18  1  0
 22 20  1  0
 23 22  1  0
 24 22  2  0
M  END
$$$$
