MNT.pdb
     RDKit          3D

 24 23  0  0  1  0  0  0  0  0999 V2000
   27.9929  -16.3680  -15.4251 C   0  0  0  0  0  0  0  0  0  0  0  0
   26.8216  -15.2181  -16.1864 S   0  0  0  0  0  0  0  0  0  0  0  0
   25.1424  -15.7370  -15.7890 C   0  0  0  0  0  0  0  0  0  0  0  0
   24.1140  -14.8485  -16.4820 C   0  0  0  0  0  0  0  0  0  0  0  0
   24.3118  -13.4505  -15.9349 C   0  0  2  0  0  0  0  0  0  0  0  0
   24.1790  -13.5475  -14.4943 N   0  0  0  0  0  0  0  0  0  0  0  0
   23.2565  -12.5213  -16.4495 C   0  0  0  0  0  0  0  0  0  0  0  0
   23.1840  -12.2201  -17.6735 O   0  0  0  0  0  0  0  0  0  0  0  0
   19.4278  -13.2666  -16.9789 N   0  0  0  0  0  0  0  0  0  0  0  0
   19.2248  -12.5724  -15.7815 C   0  0  0  0  0  0  0  0  0  0  0  0
   18.2371  -12.9628  -15.0700 O   0  0  0  0  0  0  0  0  0  0  0  0
   20.0159  -11.4650  -15.2727 C   0  0  0  0  0  0  0  0  0  0  0  0
   21.2163  -11.0597  -16.0522 C   0  0  2  0  0  0  0  0  0  0  0  0
   22.3010  -11.9459  -15.5827 N   0  0  0  0  0  0  0  0  0  0  0  0
   21.6559   -9.6721  -15.7915 C   0  0  0  0  0  0  0  0  0  0  0  0
   22.2078   -9.3875  -14.6677 O   0  0  0  0  0  0  0  0  0  0  0  0
   23.8495   -7.3895  -18.1710 C   0  0  0  0  0  0  0  0  0  0  0  0
   22.7033   -6.6303  -17.5934 C   0  0  1  0  0  0  0  0  0  0  0  0
   21.6866   -6.5550  -18.5657 O   0  0  0  0  0  0  0  0  0  0  0  0
   22.0753   -7.2787  -16.3818 C   0  0  2  0  0  0  0  0  0  0  0  0
   21.5274   -8.5834  -16.6917 N   0  0  0  0  0  0  0  0  0  0  0  0
   21.1289   -6.3606  -15.7419 C   0  0  0  0  0  0  0  0  0  0  0  0
   21.5250   -5.1744  -15.1477 O   0  0  0  0  0  0  0  0  0  0  0  0
   19.9037   -6.6646  -15.7326 O   0  0  0  0  0  0  0  0  0  0  0  0
  1  2  1  0
  2  3  1  0
  3  4  1  0
  5  7  1  0
  5  4  1  0
  5  6  1  1
  7  8  2  0
  9 10  1  0
 10 12  1  0
 11 10  2  0
 13 12  1  1
 14 13  1  0
 14  7  1  0
 15 21  1  0
 15 13  1  0
 16 15  2  0
 18 17  1  6
 19 18  1  0
 20 21  1  6
 20 18  1  0
 22 20  1  0
 23 22  1  0
 24 22  2  0
M  END
$$$$
