MNT.pdb
     RDKit          3D

 24 23  0  0  1  0  0  0  0  0999 V2000
   24.4625  -12.6787  -14.7081 C   0  0  0  0  0  0  0  0  0  0  0  0
   23.5311  -13.3387  -16.1120 S   0  0  0  0  0  0  0  0  0  0  0  0
   21.7677  -13.1857  -15.7745 C   0  0  0  0  0  0  0  0  0  0  0  0
   21.3377  -11.7222  -15.7498 C   0  0  0  0  0  0  0  0  0  0  0  0
   19.8744  -11.7082  -15.3607 C   0  0  2  0  0  0  0  0  0  0  0  0
   19.1436  -12.2719  -16.4790 N   0  0  0  0  0  0  0  0  0  0  0  0
   19.3950  -10.3077  -15.1352 C   0  0  0  0  0  0  0  0  0  0  0  0
   18.8474   -9.6423  -16.0580 O   0  0  0  0  0  0  0  0  0  0  0  0
   17.1290   -9.8507  -10.7621 N   0  0  0  0  0  0  0  0  0  0  0  0
   17.3775   -9.0594  -11.8885 C   0  0  0  0  0  0  0  0  0  0  0  0
   16.4224   -8.9756  -12.7341 O   0  0  0  0  0  0  0  0  0  0  0  0
   18.5989   -8.3322  -12.1889 C   0  0  0  0  0  0  0  0  0  0  0  0
   19.0570   -8.3084  -13.6039 C   0  0  2  0  0  0  0  0  0  0  0  0
   19.5381   -9.6777  -13.8790 N   0  0  0  0  0  0  0  0  0  0  0  0
   20.1973   -7.3986  -13.8463 C   0  0  0  0  0  0  0  0  0  0  0  0
   21.3133   -7.6158  -13.2500 O   0  0  0  0  0  0  0  0  0  0  0  0
   22.5334   -3.8729  -16.4732 C   0  0  0  0  0  0  0  0  0  0  0  0
   21.2992   -4.6545  -16.1738 C   0  0  1  0  0  0  0  0  0  0  0  0
   21.1115   -5.5980  -17.2031 O   0  0  0  0  0  0  0  0  0  0  0  0
   21.3609   -5.4458  -14.8882 C   0  0  2  0  0  0  0  0  0  0  0  0
   20.1834   -6.2695  -14.7050 N   0  0  0  0  0  0  0  0  0  0  0  0
   21.6651   -4.5640  -13.7577 C   0  0  0  0  0  0  0  0  0  0  0  0
   22.9377   -4.4446  -13.2251 O   0  0  0  0  0  0  0  0  0  0  0  0
   20.7287   -3.8867  -13.2500 O   0  0  0  0  0  0  0  0  0  0  0  0
  1  2  1  0
  2  3  1  0
  3  4  1  0
  5  7  1  0
  5  4  1  0
  5  6  1  6
  7  8  2  0
  9 10  1  0
 10 12  1  0
 11 10  2  0
 13 12  1  1
 14 13  1  0
 14  7  1  0
 15 21  1  0
 15 13  1  0
 16 15  2  0
 18 17  1  6
 19 18  1  0
 20 21  1  1
 20 18  1  0
 22 20  1  0
 23 22  1  0
 24 22  2  0
M  END
$$$$
