MNT.pdb
     RDKit          3D

 24 23  0  0  1  0  0  0  0  0999 V2000
   24.5561  -16.8682  -18.4275 C   0  0  0  0  0  0  0  0  0  0  0  0
   24.2552  -17.8443  -19.9210 S   0  0  0  0  0  0  0  0  0  0  0  0
   24.5200  -19.5876  -19.5499 C   0  0  0  0  0  0  0  0  0  0  0  0
   24.3789  -19.8590  -18.0552 C   0  0  0  0  0  0  0  0  0  0  0  0
   23.1052  -20.6588  -17.8796 C   0  0  2  0  0  0  0  0  0  0  0  0
   22.0381  -19.8713  -18.4657 N   0  0  0  0  0  0  0  0  0  0  0  0
   22.8017  -20.8678  -16.4283 C   0  0  0  0  0  0  0  0  0  0  0  0
   23.5804  -21.5219  -15.6800 O   0  0  0  0  0  0  0  0  0  0  0  0
   20.6871  -20.2367  -11.5221 N   0  0  0  0  0  0  0  0  0  0  0  0
   20.8255  -19.1607  -12.4051 C   0  0  0  0  0  0  0  0  0  0  0  0
   20.6912  -17.9970  -11.8931 O   0  0  0  0  0  0  0  0  0  0  0  0
   21.1036  -19.2338  -13.8293 C   0  0  0  0  0  0  0  0  0  0  0  0
   21.2523  -20.5845  -14.4344 C   0  0  2  0  0  0  0  0  0  0  0  0
   21.6303  -20.3399  -15.8413 N   0  0  0  0  0  0  0  0  0  0  0  0
   19.9984  -21.3680  -14.4594 C   0  0  0  0  0  0  0  0  0  0  0  0
   19.0293  -20.9807  -15.2072 O   0  0  0  0  0  0  0  0  0  0  0  0
   18.8405  -24.6807  -11.7514 C   0  0  0  0  0  0  0  0  0  0  0  0
   18.5443  -24.6246  -13.2119 C   0  0  1  0  0  0  0  0  0  0  0  0
   17.2773  -25.2009  -13.4296 O   0  0  0  0  0  0  0  0  0  0  0  0
   18.4697  -23.2257  -13.7780 C   0  0  2  0  0  0  0  0  0  0  0  0
   19.7493  -22.5497  -13.7153 N   0  0  0  0  0  0  0  0  0  0  0  0
   17.3623  -22.4844  -13.1679 C   0  0  0  0  0  0  0  0  0  0  0  0
   16.0349  -22.7549  -13.4546 O   0  0  0  0  0  0  0  0  0  0  0  0
   17.6306  -21.5624  -12.3484 O   0  0  0  0  0  0  0  0  0  0  0  0
  1  2  1  0
  2  3  1  0
  3  4  1  0
  5  7  1  0
  5  4  1  0
  5  6  1  1
  7  8  2  0
  9 10  1  0
 10 12  1  0
 11 10  2  0
 13 12  1  1
 14 13  1  0
 14  7  1  0
 15 21  1  0
 15 13  1  0
 16 15  2  0
 18 17  1  1
 19 18  1  0
 20 21  1  1
 20 18  1  0
 22 20  1  0
 23 22  1  0
 24 22  2  0
M  END
$$$$
