ISC.pdb
     RDKit          3D

 21 20  0  0  1  0  0  0  0  0999 V2000
   14.6674  -13.0247  -15.9858 C   0  0  0  0  0  0  0  0  0  0  0  0
   15.7753  -12.6891  -16.9280 C   0  0  0  0  0  0  0  0  0  0  0  0
   16.9551  -12.0414  -16.2320 C   0  0  2  0  0  0  0  0  0  0  0  0
   16.5401  -10.7810  -15.5264 C   0  0  0  0  0  0  0  0  0  0  0  0
   18.0067  -11.7490  -17.2989 C   0  0  2  0  0  0  0  0  0  0  0  0
   18.3156  -12.9890  -17.9446 N   0  0  0  0  0  0  0  0  0  0  0  0
   19.2333  -11.1687  -16.7069 C   0  0  0  0  0  0  0  0  0  0  0  0
   20.0715  -11.8609  -16.0736 O   0  0  0  0  0  0  0  0  0  0  0  0
   21.0121   -7.7430  -18.1698 O   0  0  0  0  0  0  0  0  0  0  0  0
   21.6491   -8.7264  -17.4157 C   0  0  0  0  0  0  0  0  0  0  0  0
   20.7419   -9.2355  -16.3102 C   0  0  2  0  0  0  0  0  0  0  0  0
   19.5040   -9.7700  -16.8432 N   0  0  0  0  0  0  0  0  0  0  0  0
   20.4067   -8.0772  -15.4676 C   0  0  0  0  0  0  0  0  0  0  0  0
   19.3876   -7.4088  -15.7013 O   0  0  0  0  0  0  0  0  0  0  0  0
   21.2400   -7.7223  -14.3935 N   0  0  0  0  0  0  0  0  0  0  0  0
   20.9458   -6.5321  -13.6392 C   0  0  1  0  0  0  0  0  0  0  0  0
   21.2907   -6.6962  -12.1707 C   0  0  0  0  0  0  0  0  0  0  0  0
   20.1641   -7.9471  -11.4947 S   0  0  0  0  0  0  0  0  0  0  0  0
   21.6531   -5.3952  -14.2493 C   0  0  0  0  0  0  0  0  0  0  0  0
   22.4840   -5.5166  -15.1872 O   0  0  0  0  0  0  0  0  0  0  0  0
   21.4035   -4.1194  -13.7791 O   0  0  0  0  0  0  0  0  0  0  0  0
  2  3  1  0
  2  1  1  0
  3  5  1  0
  3  4  1  6
  5  6  1  1
  5  7  1  0
  7  8  2  0
 10  9  1  0
 11 10  1  6
 12  7  1  0
 12 11  1  0
 13 15  1  0
 13 11  1  0
 14 13  2  0
 16 19  1  0
 16 17  1  1
 16 15  1  0
 18 17  1  0
 19 21  1  0
 20 19  2  0
M  END
$$$$
