ISC.pdb
     RDKit          3D

 21 20  0  0  1  0  0  0  0  0999 V2000
   29.5531  -11.1929  -17.7020 C   0  0  0  0  0  0  0  0  0  0  0  0
   28.2235  -11.8438  -17.5117 C   0  0  0  0  0  0  0  0  0  0  0  0
   27.0695  -10.8984  -17.7767 C   0  0  2  0  0  0  0  0  0  0  0  0
   27.4606   -9.8317  -18.7605 C   0  0  0  0  0  0  0  0  0  0  0  0
   26.6684  -10.2856  -16.4375 C   0  0  2  0  0  0  0  0  0  0  0  0
   26.5407  -11.3587  -15.4984 N   0  0  0  0  0  0  0  0  0  0  0  0
   25.3881   -9.5492  -16.5397 C   0  0  0  0  0  0  0  0  0  0  0  0
   25.2608   -8.5068  -17.2326 O   0  0  0  0  0  0  0  0  0  0  0  0
   20.6341   -9.3556  -15.4901 O   0  0  0  0  0  0  0  0  0  0  0  0
   21.8393  -10.0282  -15.2987 C   0  0  0  0  0  0  0  0  0  0  0  0
   22.9852   -9.2893  -15.9659 C   0  0  2  0  0  0  0  0  0  0  0  0
   24.2331  -10.0160  -15.8352 N   0  0  0  0  0  0  0  0  0  0  0  0
   23.1340   -8.0078  -15.2591 C   0  0  0  0  0  0  0  0  0  0  0  0
   23.7324   -7.9591  -14.1731 O   0  0  0  0  0  0  0  0  0  0  0  0
   22.5985   -6.8321  -15.8115 N   0  0  0  0  0  0  0  0  0  0  0  0
   22.7374   -5.5919  -15.0939 C   0  0  1  0  0  0  0  0  0  0  0  0
   23.2881   -4.4883  -15.9779 C   0  0  0  0  0  0  0  0  0  0  0  0
   25.0032   -4.9275  -16.3732 S   0  0  0  0  0  0  0  0  0  0  0  0
   21.4362   -5.2330  -14.5079 C   0  0  0  0  0  0  0  0  0  0  0  0
   21.2781   -4.2831  -13.6970 O   0  0  0  0  0  0  0  0  0  0  0  0
   20.3183   -5.9679  -14.8557 O   0  0  0  0  0  0  0  0  0  0  0  0
  2  3  1  0
  2  1  1  0
  3  5  1  0
  3  4  1  6
  5  6  1  1
  5  7  1  0
  7  8  2  0
 10  9  1  0
 11 10  1  1
 12  7  1  0
 12 11  1  0
 13 15  1  0
 13 11  1  0
 14 13  2  0
 16 19  1  0
 16 17  1  6
 16 15  1  0
 18 17  1  0
 19 21  1  0
 20 19  2  0
M  END
$$$$
