ISC.pdb
     RDKit          3D

 21 20  0  0  1  0  0  0  0  0999 V2000
   16.8045  -13.8277  -18.2536 C   0  0  0  0  0  0  0  0  0  0  0  0
   17.7672  -13.3470  -17.2193 C   0  0  0  0  0  0  0  0  0  0  0  0
   17.7618  -11.8387  -17.0755 C   0  0  2  0  0  0  0  0  0  0  0  0
   18.0837  -11.1707  -18.3827 C   0  0  0  0  0  0  0  0  0  0  0  0
   18.7950  -11.4807  -16.0105 C   0  0  2  0  0  0  0  0  0  0  0  0
   18.4628  -12.2180  -14.8290 N   0  0  0  0  0  0  0  0  0  0  0  0
   18.7916  -10.0295  -15.7175 C   0  0  0  0  0  0  0  0  0  0  0  0
   19.1539   -9.1685  -16.5602 O   0  0  0  0  0  0  0  0  0  0  0  0
   18.3466   -8.5503  -11.8117 O   0  0  0  0  0  0  0  0  0  0  0  0
   17.7401   -7.8133  -12.8270 C   0  0  0  0  0  0  0  0  0  0  0  0
   18.3632   -8.1306  -14.1744 C   0  0  2  0  0  0  0  0  0  0  0  0
   18.3654   -9.5568  -14.4356 N   0  0  0  0  0  0  0  0  0  0  0  0
   19.7628   -7.6818  -14.1122 C   0  0  0  0  0  0  0  0  0  0  0  0
   20.6869   -8.4927  -14.2809 O   0  0  0  0  0  0  0  0  0  0  0  0
   20.0594   -6.3316  -13.8614 N   0  0  0  0  0  0  0  0  0  0  0  0
   21.4037   -5.8580  -14.0637 C   0  0  1  0  0  0  0  0  0  0  0  0
   21.8708   -6.0811  -15.4900 C   0  0  0  0  0  0  0  0  0  0  0  0
   23.5142   -5.3274  -15.6371 S   0  0  0  0  0  0  0  0  0  0  0  0
   21.4723   -4.4405  -13.6750 C   0  0  0  0  0  0  0  0  0  0  0  0
   20.5752   -3.6009  -13.9494 O   0  0  0  0  0  0  0  0  0  0  0  0
   22.5735   -3.9906  -12.9709 O   0  0  0  0  0  0  0  0  0  0  0  0
  2  3  1  0
  2  1  1  0
  3  5  1  0
  3  4  1  6
  5  6  1  1
  5  7  1  0
  7  8  2  0
 10  9  1  0
 11 10  1  1
 12  7  1  0
 12 11  1  0
 13 15  1  0
 13 11  1  0
 14 13  2  0
 16 19  1  0
 16 17  1  6
 16 15  1  0
 18 17  1  0
 19 21  1  0
 20 19  2  0
M  END
$$$$
