ISC.pdb
     RDKit          3D

 21 20  0  0  1  0  0  0  0  0999 V2000
   11.1363  -10.0822   -9.1770 C   0  0  0  0  0  0  0  0  0  0  0  0
   12.5202  -10.3553   -9.6649 C   0  0  0  0  0  0  0  0  0  0  0  0
   13.3071   -9.0866   -9.9235 C   0  0  2  0  0  0  0  0  0  0  0  0
   12.5919   -8.1978  -10.9019 C   0  0  0  0  0  0  0  0  0  0  0  0
   14.6739   -9.5020  -10.4613 C   0  0  2  0  0  0  0  0  0  0  0  0
   15.3523  -10.1982   -9.4100 N   0  0  0  0  0  0  0  0  0  0  0  0
   15.4698   -8.3279  -10.8850 C   0  0  0  0  0  0  0  0  0  0  0  0
   15.3101   -7.7694  -12.0010 O   0  0  0  0  0  0  0  0  0  0  0  0
   17.7447   -4.3754   -9.5057 O   0  0  0  0  0  0  0  0  0  0  0  0
   17.1924   -5.6049   -9.1520 C   0  0  0  0  0  0  0  0  0  0  0  0
   17.0916   -6.5216  -10.3578 C   0  0  2  0  0  0  0  0  0  0  0  0
   16.4668   -7.7841  -10.0140 N   0  0  0  0  0  0  0  0  0  0  0  0
   18.4679   -6.8042  -10.7937 C   0  0  0  0  0  0  0  0  0  0  0  0
   19.1262   -7.7002  -10.2427 O   0  0  0  0  0  0  0  0  0  0  0  0
   19.0435   -6.0596  -11.8370 N   0  0  0  0  0  0  0  0  0  0  0  0
   20.3652   -6.3984  -12.2960 C   0  0  1  0  0  0  0  0  0  0  0  0
   20.3330   -7.4905  -13.3490 C   0  0  0  0  0  0  0  0  0  0  0  0
   22.0299   -7.6956  -13.9568 S   0  0  0  0  0  0  0  0  0  0  0  0
   21.0262   -5.1783  -12.7853 C   0  0  0  0  0  0  0  0  0  0  0  0
   20.4003   -4.1730  -13.2127 O   0  0  0  0  0  0  0  0  0  0  0  0
   22.4071   -5.1163  -12.7822 O   0  0  0  0  0  0  0  0  0  0  0  0
  2  3  1  0
  2  1  1  0
  3  5  1  0
  3  4  1  6
  5  6  1  1
  5  7  1  0
  7  8  2  0
 10  9  1  0
 11 10  1  1
 12  7  1  0
 12 11  1  0
 13 15  1  0
 13 11  1  0
 14 13  2  0
 16 19  1  0
 16 17  1  6
 16 15  1  0
 18 17  1  0
 19 21  1  0
 20 19  2  0
M  END
$$$$
