ISC.pdb
     RDKit          3D

 21 20  0  0  1  0  0  0  0  0999 V2000
   18.8076  -13.4299  -19.5767 C   0  0  0  0  0  0  0  0  0  0  0  0
   19.2063  -13.0845  -18.1804 C   0  0  0  0  0  0  0  0  0  0  0  0
   19.0630  -11.6057  -17.8833 C   0  0  2  0  0  0  0  0  0  0  0  0
   19.9428  -10.7861  -18.7851 C   0  0  0  0  0  0  0  0  0  0  0  0
   19.4390  -11.3987  -16.4185 C   0  0  2  0  0  0  0  0  0  0  0  0
   18.6243  -12.2820  -15.6400 N   0  0  0  0  0  0  0  0  0  0  0  0
   19.2143   -9.9985  -15.9934 C   0  0  0  0  0  0  0  0  0  0  0  0
   18.0695   -9.4781  -15.9569 O   0  0  0  0  0  0  0  0  0  0  0  0
   20.5376   -7.8165  -12.9019 O   0  0  0  0  0  0  0  0  0  0  0  0
   20.9927   -7.3377  -14.1288 C   0  0  0  0  0  0  0  0  0  0  0  0
   20.0861   -7.7915  -15.2586 C   0  0  2  0  0  0  0  0  0  0  0  0
   20.3217   -9.1801  -15.6030 N   0  0  0  0  0  0  0  0  0  0  0  0
   20.4262   -6.9724  -16.4322 C   0  0  0  0  0  0  0  0  0  0  0  0
   21.4063   -7.2644  -17.1351 O   0  0  0  0  0  0  0  0  0  0  0  0
   19.6418   -5.8545  -16.7626 N   0  0  0  0  0  0  0  0  0  0  0  0
   19.9400   -5.1164  -17.9620 C   0  0  1  0  0  0  0  0  0  0  0  0
   18.6826   -4.7696  -18.7373 C   0  0  0  0  0  0  0  0  0  0  0  0
   17.9140   -6.3355  -19.2351 S   0  0  0  0  0  0  0  0  0  0  0  0
   20.7160   -3.9188  -17.6030 C   0  0  0  0  0  0  0  0  0  0  0  0
   20.9767   -3.5902  -16.4161 O   0  0  0  0  0  0  0  0  0  0  0  0
   21.1911   -3.1005  -18.6107 O   0  0  0  0  0  0  0  0  0  0  0  0
  2  3  1  0
  2  1  1  0
  3  5  1  0
  3  4  1  6
  5  6  1  1
  5  7  1  0
  7  8  2  0
 10  9  1  0
 11 10  1  1
 12  7  1  0
 12 11  1  0
 13 15  1  0
 13 11  1  0
 14 13  2  0
 16 19  1  0
 16 17  1  1
 16 15  1  0
 18 17  1  0
 19 21  1  0
 20 19  2  0
M  END
$$$$
