ISC.pdb
     RDKit          3D

 21 20  0  0  1  0  0  0  0  0999 V2000
   24.7088  -13.3599  -14.9053 C   0  0  0  0  0  0  0  0  0  0  0  0
   23.2945  -13.2529  -15.3700 C   0  0  0  0  0  0  0  0  0  0  0  0
   22.9428  -11.8587  -15.8477 C   0  0  2  0  0  0  0  0  0  0  0  0
   23.0848  -10.8558  -14.7374 C   0  0  0  0  0  0  0  0  0  0  0  0
   21.5064  -11.9042  -16.3621 C   0  0  2  0  0  0  0  0  0  0  0  0
   21.4300  -12.9648  -17.3208 N   0  0  0  0  0  0  0  0  0  0  0  0
   21.1156  -10.6235  -16.9938 C   0  0  0  0  0  0  0  0  0  0  0  0
   20.9904  -10.4939  -18.2389 O   0  0  0  0  0  0  0  0  0  0  0  0
   18.5559   -7.3403  -18.0936 O   0  0  0  0  0  0  0  0  0  0  0  0
   19.0237   -8.5041  -17.4868 C   0  0  0  0  0  0  0  0  0  0  0  0
   20.3615   -8.2638  -16.8107 C   0  0  2  0  0  0  0  0  0  0  0  0
   20.8638   -9.4708  -16.1837 N   0  0  0  0  0  0  0  0  0  0  0  0
   20.1305   -7.2688  -15.7521 C   0  0  0  0  0  0  0  0  0  0  0  0
   19.5536   -7.5953  -14.7031 O   0  0  0  0  0  0  0  0  0  0  0  0
   20.5626   -5.9431  -15.9246 N   0  0  0  0  0  0  0  0  0  0  0  0
   20.3555   -4.9927  -14.8634 C   0  0  1  0  0  0  0  0  0  0  0  0
   21.6554   -4.3418  -14.4286 C   0  0  0  0  0  0  0  0  0  0  0  0
   22.6563   -5.6287  -13.6330 S   0  0  0  0  0  0  0  0  0  0  0  0
   19.3601   -4.0011  -15.3003 C   0  0  0  0  0  0  0  0  0  0  0  0
   19.0379   -3.8245  -16.5044 O   0  0  0  0  0  0  0  0  0  0  0  0
   18.7363   -3.2136  -14.3508 O   0  0  0  0  0  0  0  0  0  0  0  0
  2  3  1  0
  2  1  1  0
  3  5  1  0
  3  4  1  1
  5  6  1  6
  5  7  1  0
  7  8  2  0
 10  9  1  0
 11 10  1  1
 12  7  1  0
 12 11  1  0
 13 15  1  0
 13 11  1  0
 14 13  2  0
 16 19  1  0
 16 17  1  6
 16 15  1  0
 18 17  1  0
 19 21  1  0
 20 19  2  0
M  END
$$$$
