ISC.pdb
     RDKit          3D

 21 20  0  0  1  0  0  0  0  0999 V2000
   26.2446  -17.9557  -18.0566 C   0  0  0  0  0  0  0  0  0  0  0  0
   27.2966  -17.9116  -16.9988 C   0  0  0  0  0  0  0  0  0  0  0  0
   26.7250  -17.6508  -15.6200 C   0  0  2  0  0  0  0  0  0  0  0  0
   27.0931  -16.2771  -15.1341 C   0  0  0  0  0  0  0  0  0  0  0  0
   27.2784  -18.7259  -14.6886 C   0  0  2  0  0  0  0  0  0  0  0  0
   27.1887  -19.9766  -15.3798 N   0  0  0  0  0  0  0  0  0  0  0  0
   26.5138  -18.7929  -13.4226 C   0  0  0  0  0  0  0  0  0  0  0  0
   26.3353  -17.7886  -12.6863 O   0  0  0  0  0  0  0  0  0  0  0  0
   24.6445  -22.3188  -12.4306 O   0  0  0  0  0  0  0  0  0  0  0  0
   24.1124  -21.1794  -11.8305 C   0  0  0  0  0  0  0  0  0  0  0  0
   25.1361  -20.0593  -11.7890 C   0  0  2  0  0  0  0  0  0  0  0  0
   25.9436  -20.0333  -12.9930 N   0  0  0  0  0  0  0  0  0  0  0  0
   26.0286  -20.3404  -10.6539 C   0  0  0  0  0  0  0  0  0  0  0  0
   27.0566  -21.0153  -10.8198 O   0  0  0  0  0  0  0  0  0  0  0  0
   25.7203  -19.8453   -9.3756 N   0  0  0  0  0  0  0  0  0  0  0  0
   26.4050  -20.3838   -8.2296 C   0  0  1  0  0  0  0  0  0  0  0  0
   26.7870  -19.2984   -7.2404 C   0  0  0  0  0  0  0  0  0  0  0  0
   27.8644  -18.1322   -8.1178 S   0  0  0  0  0  0  0  0  0  0  0  0
   25.5607  -21.4199   -7.6143 C   0  0  0  0  0  0  0  0  0  0  0  0
   24.3894  -21.6787   -7.9965 O   0  0  0  0  0  0  0  0  0  0  0  0
   26.0653  -22.1574   -6.5596 O   0  0  0  0  0  0  0  0  0  0  0  0
  2  3  1  0
  2  1  1  0
  3  5  1  0
  3  4  1  1
  5  6  1  6
  5  7  1  0
  7  8  2  0
 10  9  1  0
 11 10  1  6
 12  7  1  0
 12 11  1  0
 13 15  1  0
 13 11  1  0
 14 13  2  0
 16 19  1  0
 16 17  1  1
 16 15  1  0
 18 17  1  0
 19 21  1  0
 20 19  2  0
M  END
$$$$
