ISC.pdb
     RDKit          3D

 21 20  0  0  1  0  0  0  0  0999 V2000
   19.5188  -14.4008  -18.4190 C   0  0  0  0  0  0  0  0  0  0  0  0
   18.8167  -13.8933  -17.2036 C   0  0  0  0  0  0  0  0  0  0  0  0
   18.9194  -12.3887  -17.0579 C   0  0  2  0  0  0  0  0  0  0  0  0
   20.3527  -11.9554  -16.9288 C   0  0  0  0  0  0  0  0  0  0  0  0
   18.1170  -11.9968  -15.8200 C   0  0  2  0  0  0  0  0  0  0  0  0
   16.7899  -12.5057  -15.9932 N   0  0  0  0  0  0  0  0  0  0  0  0
   18.0751  -10.5276  -15.6433 C   0  0  0  0  0  0  0  0  0  0  0  0
   17.5960   -9.7550  -16.5130 O   0  0  0  0  0  0  0  0  0  0  0  0
   18.2262   -8.8547  -11.9542 O   0  0  0  0  0  0  0  0  0  0  0  0
   17.8217   -8.0789  -13.0386 C   0  0  0  0  0  0  0  0  0  0  0  0
   18.5528   -8.4910  -14.3036 C   0  0  2  0  0  0  0  0  0  0  0  0
   18.5917   -9.9332  -14.4482 N   0  0  0  0  0  0  0  0  0  0  0  0
   19.9379   -8.0142  -14.1691 C   0  0  0  0  0  0  0  0  0  0  0  0
   20.7885   -8.7177  -13.6022 O   0  0  0  0  0  0  0  0  0  0  0  0
   20.3039   -6.7586  -14.6825 N   0  0  0  0  0  0  0  0  0  0  0  0
   21.6785   -6.3392  -14.6000 C   0  0  1  0  0  0  0  0  0  0  0  0
   22.1754   -5.7753  -15.9182 C   0  0  0  0  0  0  0  0  0  0  0  0
   22.0567   -7.1054  -17.1459 S   0  0  0  0  0  0  0  0  0  0  0  0
   21.8159   -5.3729  -13.4988 C   0  0  0  0  0  0  0  0  0  0  0  0
   20.8466   -4.7377  -13.0072 O   0  0  0  0  0  0  0  0  0  0  0  0
   23.0691   -5.1388  -12.9643 O   0  0  0  0  0  0  0  0  0  0  0  0
  2  3  1  0
  2  1  1  0
  3  5  1  0
  3  4  1  1
  5  6  1  6
  5  7  1  0
  7  8  2  0
 10  9  1  0
 11 10  1  1
 12  7  1  0
 12 11  1  0
 13 15  1  0
 13 11  1  0
 14 13  2  0
 16 19  1  0
 16 17  1  6
 16 15  1  0
 18 17  1  0
 19 21  1  0
 20 19  2  0
M  END
$$$$
