MWA.pdb
     RDKit          3D

 28 29  0  0  1  0  0  0  0  0999 V2000
    7.8451  -11.4689   19.7332 C   0  0  0  0  0  0  0  0  0  0  0  0
    6.8263  -12.8994   19.3887 S   0  0  0  0  0  0  0  0  0  0  0  0
    7.3346  -14.4433   20.0857 C   0  0  0  0  0  0  0  0  0  0  0  0
    8.5045  -14.4617   20.9973 C   0  0  0  0  0  0  0  0  0  0  0  0
    8.8907  -15.7753   21.5284 C   0  0  2  0  0  0  0  0  0  0  0  0
    7.7478  -16.5794   21.8506 N   0  0  0  0  0  0  0  0  0  0  0  0
    9.7288  -15.6883   22.7613 C   0  0  0  0  0  0  0  0  0  0  0  0
   10.7729  -14.9894   22.8209 O   0  0  0  0  0  0  0  0  0  0  0  0
    9.3155  -16.4331   23.9090 N   0  0  0  0  0  0  0  0  0  0  0  0
   10.0079  -16.2866   25.1779 C   0  0  1  0  0  0  0  0  0  0  0  0
    9.0233  -16.4805   26.3369 C   0  0  0  0  0  0  0  0  0  0  0  0
    7.8022  -15.6698   26.1421 C   0  0  0  0  0  0  0  0  0  0  0  0
    6.5534  -16.1360   25.7921 C   0  0  0  0  0  0  0  0  0  0  0  0
    5.6914  -15.0828   25.7081 N   0  0  0  0  0  0  0  0  0  0  0  0
    6.3696  -13.9474   25.9993 C   0  0  0  0  0  0  0  0  0  0  0  0
    5.9779  -12.6286   26.0572 C   0  0  0  0  0  0  0  0  0  0  0  0
    6.8842  -11.6370   26.3859 C   0  0  0  0  0  0  0  0  0  0  0  0
    8.1966  -11.9585   26.6607 C   0  0  0  0  0  0  0  0  0  0  0  0
    8.5599  -13.2825   26.5955 C   0  0  0  0  0  0  0  0  0  0  0  0
    7.6900  -14.3032   26.2722 C   0  0  0  0  0  0  0  0  0  0  0  0
   11.0108  -17.3784   25.2844 C   0  0  0  0  0  0  0  0  0  0  0  0
   11.6524  -17.5265   26.3808 O   0  0  0  0  0  0  0  0  0  0  0  0
   11.9470  -20.5098   23.5705 C   0  0  0  0  0  0  0  0  0  0  0  0
   12.3233  -19.3004   24.4369 C   0  0  2  0  0  0  0  0  0  0  0  0
   11.3048  -18.2809   24.2270 N   0  0  0  0  0  0  0  0  0  0  0  0
   13.6574  -18.7905   24.1147 C   0  0  0  0  0  0  0  0  0  0  0  0
   13.7769  -17.7635   23.4098 O   0  0  0  0  0  0  0  0  0  0  0  0
   14.7978  -19.4196   24.5729 O   0  0  0  0  0  0  0  0  0  0  0  0
  1  2  1  0
  3  2  1  0
  4  3  1  0
  5  4  1  0
  5  6  1  1
  7  5  1  0
  8  7  2  0
  9  7  1  0
 10  9  1  0
 10 11  1  1
 11 12  1  0
 12 20  1  0
 12 13  2  0
 13 14  1  0
 15 16  2  0
 15 14  1  0
 17 16  1  0
 18 17  2  0
 19 18  1  0
 19 20  2  0
 20 15  1  0
 21 22  2  0
 21 10  1  0
 24 23  1  6
 24 25  1  0
 25 21  1  0
 26 24  1  0
 27 26  2  0
 28 26  1  0
M  END
$$$$
