MWA.pdb
     RDKit          3D

 28 29  0  0  1  0  0  0  0  0999 V2000
    7.6277  -11.5010   19.9684 C   0  0  0  0  0  0  0  0  0  0  0  0
    7.2062  -12.9786   19.0508 S   0  0  0  0  0  0  0  0  0  0  0  0
    7.8334  -14.5166   19.6584 C   0  0  0  0  0  0  0  0  0  0  0  0
    8.5629  -14.5272   20.9498 C   0  0  0  0  0  0  0  0  0  0  0  0
    9.0810  -15.8290   21.3899 C   0  0  2  0  0  0  0  0  0  0  0  0
    8.0667  -16.8426   21.3718 N   0  0  0  0  0  0  0  0  0  0  0  0
    9.6490  -15.7999   22.7706 C   0  0  0  0  0  0  0  0  0  0  0  0
   10.5895  -15.0317   23.0987 O   0  0  0  0  0  0  0  0  0  0  0  0
    9.0920  -16.6844   23.7454 N   0  0  0  0  0  0  0  0  0  0  0  0
    9.5726  -16.6757   25.1165 C   0  0  1  0  0  0  0  0  0  0  0  0
    8.3900  -16.7823   26.0864 C   0  0  0  0  0  0  0  0  0  0  0  0
    7.4574  -15.6472   25.9188 C   0  0  0  0  0  0  0  0  0  0  0  0
    6.2028  -15.6914   25.3502 C   0  0  0  0  0  0  0  0  0  0  0  0
    5.6566  -14.4423   25.3770 N   0  0  0  0  0  0  0  0  0  0  0  0
    6.5432  -13.5973   25.9549 C   0  0  0  0  0  0  0  0  0  0  0  0
    6.4904  -12.2477   26.2230 C   0  0  0  0  0  0  0  0  0  0  0  0
    7.5529  -11.6076   26.8346 C   0  0  0  0  0  0  0  0  0  0  0  0
    8.6827  -12.3163   27.1847 C   0  0  0  0  0  0  0  0  0  0  0  0
    8.7082  -13.6618   26.9053 C   0  0  0  0  0  0  0  0  0  0  0  0
    7.6723  -14.3403   26.2973 C   0  0  0  0  0  0  0  0  0  0  0  0
   10.4022  -17.8918   25.3218 C   0  0  0  0  0  0  0  0  0  0  0  0
    9.8534  -19.0422   25.2160 O   0  0  0  0  0  0  0  0  0  0  0  0
   13.9681  -18.8825   25.6653 C   0  0  0  0  0  0  0  0  0  0  0  0
   12.4737  -19.1023   25.9368 C   0  0  2  0  0  0  0  0  0  0  0  0
   11.7880  -17.8540   25.6332 N   0  0  0  0  0  0  0  0  0  0  0  0
   12.2243  -19.5214   27.3172 C   0  0  0  0  0  0  0  0  0  0  0  0
   11.5837  -18.7724   28.0883 O   0  0  0  0  0  0  0  0  0  0  0  0
   12.6821  -20.7334   27.7948 O   0  0  0  0  0  0  0  0  0  0  0  0
  1  2  1  0
  3  2  1  0
  4  3  1  0
  5  4  1  0
  5  6  1  1
  7  5  1  0
  8  7  2  0
  9  7  1  0
 10  9  1  0
 10 11  1  1
 11 12  1  0
 12 20  1  0
 12 13  2  0
 13 14  1  0
 15 16  2  0
 15 14  1  0
 17 16  1  0
 18 17  2  0
 19 18  1  0
 19 20  2  0
 20 15  1  0
 21 22  2  0
 21 10  1  0
 24 23  1  1
 24 25  1  0
 25 21  1  0
 26 24  1  0
 27 26  2  0
 28 26  1  0
M  END
$$$$
