MWA.pdb
     RDKit          3D

 28 29  0  0  1  0  0  0  0  0999 V2000
    7.7833  -11.6535   19.4654 C   0  0  0  0  0  0  0  0  0  0  0  0
    6.8097  -13.0993   19.0592 S   0  0  0  0  0  0  0  0  0  0  0  0
    7.3974  -14.6622   19.6421 C   0  0  0  0  0  0  0  0  0  0  0  0
    8.4630  -14.6820   20.6737 C   0  0  0  0  0  0  0  0  0  0  0  0
    8.8780  -16.0077   21.1504 C   0  0  2  0  0  0  0  0  0  0  0  0
    7.7642  -16.9010   21.2845 N   0  0  0  0  0  0  0  0  0  0  0  0
    9.5709  -15.9672   22.4725 C   0  0  0  0  0  0  0  0  0  0  0  0
   10.6184  -15.2984   22.6666 O   0  0  0  0  0  0  0  0  0  0  0  0
    9.0101  -16.7222   23.5488 N   0  0  0  0  0  0  0  0  0  0  0  0
    9.6109  -16.6888   24.8712 C   0  0  1  0  0  0  0  0  0  0  0  0
    8.5292  -16.8707   25.9423 C   0  0  0  0  0  0  0  0  0  0  0  0
    7.5075  -15.8054   25.8563 C   0  0  0  0  0  0  0  0  0  0  0  0
    6.2095  -15.9452   25.4144 C   0  0  0  0  0  0  0  0  0  0  0  0
    5.5823  -14.7364   25.4827 N   0  0  0  0  0  0  0  0  0  0  0  0
    6.4597  -13.8229   25.9621 C   0  0  0  0  0  0  0  0  0  0  0  0
    6.3389  -12.4759   26.2209 C   0  0  0  0  0  0  0  0  0  0  0  0
    7.4085  -11.7541   26.7186 C   0  0  0  0  0  0  0  0  0  0  0  0
    8.6139  -12.3775   26.9627 C   0  0  0  0  0  0  0  0  0  0  0  0
    8.7062  -13.7225   26.6953 C   0  0  0  0  0  0  0  0  0  0  0  0
    7.6661  -14.4807   26.1989 C   0  0  0  0  0  0  0  0  0  0  0  0
   10.5277  -17.8527   24.9904 C   0  0  0  0  0  0  0  0  0  0  0  0
   10.0651  -19.0291   24.7960 O   0  0  0  0  0  0  0  0  0  0  0  0
   12.7268  -18.9392   23.3903 C   0  0  0  0  0  0  0  0  0  0  0  0
   12.8124  -18.8064   24.9168 C   0  0  2  0  0  0  0  0  0  0  0  0
   11.9068  -17.7366   25.3121 N   0  0  0  0  0  0  0  0  0  0  0  0
   14.1792  -18.5366   25.3667 C   0  0  0  0  0  0  0  0  0  0  0  0
   14.8679  -19.4617   25.8523 O   0  0  0  0  0  0  0  0  0  0  0  0
   14.7332  -17.2758   25.2680 O   0  0  0  0  0  0  0  0  0  0  0  0
  1  2  1  0
  3  2  1  0
  4  3  1  0
  5  4  1  0
  5  6  1  1
  7  5  1  0
  8  7  2  0
  9  7  1  0
 10  9  1  0
 10 11  1  1
 11 12  1  0
 12 20  1  0
 12 13  2  0
 13 14  1  0
 15 16  2  0
 15 14  1  0
 17 16  1  0
 18 17  2  0
 19 18  1  0
 19 20  2  0
 20 15  1  0
 21 22  2  0
 21 10  1  0
 24 23  1  6
 24 25  1  0
 25 21  1  0
 26 24  1  0
 27 26  2  0
 28 26  1  0
M  END
$$$$
