MWA.pdb
     RDKit          3D

 28 29  0  0  1  0  0  0  0  0999 V2000
    8.6261  -12.0792   18.7851 C   0  0  0  0  0  0  0  0  0  0  0  0
    7.9623  -13.6651   18.2879 S   0  0  0  0  0  0  0  0  0  0  0  0
    8.8840  -15.1063   18.7367 C   0  0  0  0  0  0  0  0  0  0  0  0
   10.2313  -14.9324   19.3323 C   0  0  0  0  0  0  0  0  0  0  0  0
   10.6011  -15.8860   20.3863 C   0  0  2  0  0  0  0  0  0  0  0  0
    9.8561  -17.1076   20.2882 N   0  0  0  0  0  0  0  0  0  0  0  0
   10.3895  -15.3512   21.7643 C   0  0  0  0  0  0  0  0  0  0  0  0
   10.9346  -14.2926   22.1697 O   0  0  0  0  0  0  0  0  0  0  0  0
    9.5320  -16.0813   22.6443 N   0  0  0  0  0  0  0  0  0  0  0  0
    9.0701  -15.4916   23.8893 C   0  0  1  0  0  0  0  0  0  0  0  0
    7.6237  -15.9179   24.1655 C   0  0  0  0  0  0  0  0  0  0  0  0
    7.0690  -15.2011   25.3338 C   0  0  0  0  0  0  0  0  0  0  0  0
    6.5115  -15.7701   26.4584 C   0  0  0  0  0  0  0  0  0  0  0  0
    6.1141  -14.7809   27.3086 N   0  0  0  0  0  0  0  0  0  0  0  0
    6.4087  -13.5852   26.7452 C   0  0  0  0  0  0  0  0  0  0  0  0
    6.2200  -12.2912   27.1766 C   0  0  0  0  0  0  0  0  0  0  0  0
    6.6184  -11.2217   26.3955 C   0  0  0  0  0  0  0  0  0  0  0  0
    7.2118  -11.4393   25.1700 C   0  0  0  0  0  0  0  0  0  0  0  0
    7.3877  -12.7407   24.7644 C   0  0  0  0  0  0  0  0  0  0  0  0
    7.0060  -13.8365   25.5105 C   0  0  0  0  0  0  0  0  0  0  0  0
    9.8952  -16.0445   24.9951 C   0  0  0  0  0  0  0  0  0  0  0  0
   10.4516  -17.1860   24.8430 O   0  0  0  0  0  0  0  0  0  0  0  0
   11.2604  -14.9245   28.2979 C   0  0  0  0  0  0  0  0  0  0  0  0
   10.9890  -15.9789   27.2165 C   0  0  2  0  0  0  0  0  0  0  0  0
   10.1067  -15.3727   26.2291 N   0  0  0  0  0  0  0  0  0  0  0  0
   10.4002  -17.1972   27.7757 C   0  0  0  0  0  0  0  0  0  0  0  0
    9.2179  -17.4998   27.4993 O   0  0  0  0  0  0  0  0  0  0  0  0
   11.1228  -18.0286   28.6081 O   0  0  0  0  0  0  0  0  0  0  0  0
  1  2  1  0
  3  2  1  0
  4  3  1  0
  5  4  1  0
  5  6  1  6
  7  5  1  0
  8  7  2  0
  9  7  1  0
 10  9  1  0
 10 11  1  1
 11 12  1  0
 12 20  1  0
 12 13  2  0
 13 14  1  0
 15 16  2  0
 15 14  1  0
 17 16  1  0
 18 17  2  0
 19 18  1  0
 19 20  2  0
 20 15  1  0
 21 22  2  0
 21 10  1  0
 24 23  1  1
 24 25  1  0
 25 21  1  0
 26 24  1  0
 27 26  2  0
 28 26  1  0
M  END
$$$$
