MWA.pdb
     RDKit          3D

 28 29  0  0  1  0  0  0  0  0999 V2000
    8.1250  -11.6661   19.6009 C   0  0  0  0  0  0  0  0  0  0  0  0
    7.3291  -13.1337   18.9562 S   0  0  0  0  0  0  0  0  0  0  0  0
    7.6137  -14.6537   19.8146 C   0  0  0  0  0  0  0  0  0  0  0  0
    8.9145  -14.8512   20.4995 C   0  0  0  0  0  0  0  0  0  0  0  0
    9.1154  -16.1558   21.1434 C   0  0  2  0  0  0  0  0  0  0  0  0
    7.8954  -16.9050   21.2268 N   0  0  0  0  0  0  0  0  0  0  0  0
    9.6623  -16.0501   22.5288 C   0  0  0  0  0  0  0  0  0  0  0  0
   10.6665  -15.3456   22.8073 O   0  0  0  0  0  0  0  0  0  0  0  0
    9.0087  -16.7831   23.5672 N   0  0  0  0  0  0  0  0  0  0  0  0
    9.4424  -16.6608   24.9485 C   0  0  1  0  0  0  0  0  0  0  0  0
    8.2343  -16.7590   25.8871 C   0  0  0  0  0  0  0  0  0  0  0  0
    7.3127  -15.6192   25.6931 C   0  0  0  0  0  0  0  0  0  0  0  0
    6.0940  -15.6479   25.0503 C   0  0  0  0  0  0  0  0  0  0  0  0
    5.5465  -14.3993   25.0759 N   0  0  0  0  0  0  0  0  0  0  0  0
    6.3969  -13.5699   25.7263 C   0  0  0  0  0  0  0  0  0  0  0  0
    6.3277  -12.2274   26.0245 C   0  0  0  0  0  0  0  0  0  0  0  0
    7.3517  -11.6039   26.7139 C   0  0  0  0  0  0  0  0  0  0  0  0
    8.4591  -12.3223   27.1125 C   0  0  0  0  0  0  0  0  0  0  0  0
    8.5018  -13.6604   26.8014 C   0  0  0  0  0  0  0  0  0  0  0  0
    7.5041  -14.3224   26.1163 C   0  0  0  0  0  0  0  0  0  0  0  0
   10.3191  -17.8198   25.2606 C   0  0  0  0  0  0  0  0  0  0  0  0
    9.8883  -19.0023   25.0332 O   0  0  0  0  0  0  0  0  0  0  0  0
   13.8497  -18.6145   25.9276 C   0  0  0  0  0  0  0  0  0  0  0  0
   12.3595  -18.8996   26.1582 C   0  0  2  0  0  0  0  0  0  0  0  0
   11.6256  -17.6926   25.8043 N   0  0  0  0  0  0  0  0  0  0  0  0
   12.0864  -19.2997   27.5397 C   0  0  0  0  0  0  0  0  0  0  0  0
   12.5924  -20.3500   27.9944 O   0  0  0  0  0  0  0  0  0  0  0  0
   11.2773  -18.5408   28.3617 O   0  0  0  0  0  0  0  0  0  0  0  0
  1  2  1  0
  3  2  1  0
  4  3  1  0
  5  4  1  0
  5  6  1  1
  7  5  1  0
  8  7  2  0
  9  7  1  0
 10  9  1  0
 10 11  1  1
 11 12  1  0
 12 20  1  0
 12 13  2  0
 13 14  1  0
 15 16  2  0
 15 14  1  0
 17 16  1  0
 18 17  2  0
 19 18  1  0
 19 20  2  0
 20 15  1  0
 21 22  2  0
 21 10  1  0
 24 23  1  1
 24 25  1  0
 25 21  1  0
 26 24  1  0
 27 26  2  0
 28 26  1  0
M  END
$$$$
