MWA.pdb
     RDKit          3D

 28 29  0  0  1  0  0  0  0  0999 V2000
    7.3629  -12.8622   17.4633 C   0  0  0  0  0  0  0  0  0  0  0  0
    7.6039  -13.9038   18.8987 S   0  0  0  0  0  0  0  0  0  0  0  0
    7.0457  -13.2792   20.4563 C   0  0  0  0  0  0  0  0  0  0  0  0
    7.2258  -14.1191   21.6656 C   0  0  0  0  0  0  0  0  0  0  0  0
    8.3558  -15.0569   21.6399 C   0  0  2  0  0  0  0  0  0  0  0  0
    7.9211  -16.4143   21.4817 N   0  0  0  0  0  0  0  0  0  0  0  0
    9.1923  -15.0041   22.8757 C   0  0  0  0  0  0  0  0  0  0  0  0
    9.8925  -14.0032   23.1758 O   0  0  0  0  0  0  0  0  0  0  0  0
    9.1864  -16.1421   23.7405 N   0  0  0  0  0  0  0  0  0  0  0  0
    9.9239  -16.1272   24.9922 C   0  0  1  0  0  0  0  0  0  0  0  0
    8.9970  -16.5141   26.1505 C   0  0  0  0  0  0  0  0  0  0  0  0
    7.7620  -15.7012   26.1411 C   0  0  0  0  0  0  0  0  0  0  0  0
    6.4957  -16.1341   25.8119 C   0  0  0  0  0  0  0  0  0  0  0  0
    5.6249  -15.0905   25.9215 N   0  0  0  0  0  0  0  0  0  0  0  0
    6.3147  -13.9941   26.3164 C   0  0  0  0  0  0  0  0  0  0  0  0
    5.9210  -12.6996   26.5717 C   0  0  0  0  0  0  0  0  0  0  0  0
    6.8416  -11.7476   26.9705 C   0  0  0  0  0  0  0  0  0  0  0  0
    8.1704  -12.0848   27.1176 C   0  0  0  0  0  0  0  0  0  0  0  0
    8.5354  -13.3839   26.8561 C   0  0  0  0  0  0  0  0  0  0  0  0
    7.6516  -14.3649   26.4566 C   0  0  0  0  0  0  0  0  0  0  0  0
   10.9753  -17.1754   24.9202 C   0  0  0  0  0  0  0  0  0  0  0  0
   11.5969  -17.5048   25.9883 O   0  0  0  0  0  0  0  0  0  0  0  0
   11.9897  -19.9681   22.7856 C   0  0  0  0  0  0  0  0  0  0  0  0
   12.3828  -18.8563   23.7677 C   0  0  2  0  0  0  0  0  0  0  0  0
   11.3375  -17.8435   23.7197 N   0  0  0  0  0  0  0  0  0  0  0  0
   13.6914  -18.2824   23.4492 C   0  0  0  0  0  0  0  0  0  0  0  0
   13.7670  -17.1140   23.0074 O   0  0  0  0  0  0  0  0  0  0  0  0
   14.8554  -19.0038   23.6253 O   0  0  0  0  0  0  0  0  0  0  0  0
  1  2  1  0
  3  2  1  0
  4  3  1  0
  5  4  1  0
  5  6  1  1
  7  5  1  0
  8  7  2  0
  9  7  1  0
 10  9  1  0
 10 11  1  1
 11 12  1  0
 12 20  1  0
 12 13  2  0
 13 14  1  0
 15 16  2  0
 15 14  1  0
 17 16  1  0
 18 17  2  0
 19 18  1  0
 19 20  2  0
 20 15  1  0
 21 22  2  0
 21 10  1  0
 24 23  1  6
 24 25  1  0
 25 21  1  0
 26 24  1  0
 27 26  2  0
 28 26  1  0
M  END
$$$$
