MWA.pdb
     RDKit          3D

 28 29  0  0  1  0  0  0  0  0999 V2000
    7.8766  -11.4906   19.6772 C   0  0  0  0  0  0  0  0  0  0  0  0
    7.3719  -13.0584   18.9770 S   0  0  0  0  0  0  0  0  0  0  0  0
    7.2417  -14.4346   20.0803 C   0  0  0  0  0  0  0  0  0  0  0  0
    7.9507  -14.3728   21.3816 C   0  0  0  0  0  0  0  0  0  0  0  0
    8.8134  -15.5169   21.7037 C   0  0  2  0  0  0  0  0  0  0  0  0
    8.0725  -16.7427   21.7744 N   0  0  0  0  0  0  0  0  0  0  0  0
    9.5342  -15.3630   23.0024 C   0  0  0  0  0  0  0  0  0  0  0  0
   10.3452  -14.4261   23.2186 O   0  0  0  0  0  0  0  0  0  0  0  0
    9.2821  -16.3249   24.0291 N   0  0  0  0  0  0  0  0  0  0  0  0
    9.9597  -16.2370   25.3113 C   0  0  1  0  0  0  0  0  0  0  0  0
    8.9555  -16.4511   26.4498 C   0  0  0  0  0  0  0  0  0  0  0  0
    7.7609  -15.5974   26.2763 C   0  0  0  0  0  0  0  0  0  0  0  0
    6.5197  -16.0008   25.8336 C   0  0  0  0  0  0  0  0  0  0  0  0
    5.6837  -14.9239   25.8072 N   0  0  0  0  0  0  0  0  0  0  0  0
    6.3711  -13.8352   26.2268 C   0  0  0  0  0  0  0  0  0  0  0  0
    6.0039  -12.5175   26.3851 C   0  0  0  0  0  0  0  0  0  0  0  0
    6.9146  -11.5807   26.8388 C   0  0  0  0  0  0  0  0  0  0  0  0
    8.2067  -11.9566   27.1393 C   0  0  0  0  0  0  0  0  0  0  0  0
    8.5457  -13.2780   26.9720 C   0  0  0  0  0  0  0  0  0  0  0  0
    7.6706  -14.2451   26.5226 C   0  0  0  0  0  0  0  0  0  0  0  0
   10.9391  -17.3521   25.3925 C   0  0  0  0  0  0  0  0  0  0  0  0
   11.4907  -17.6126   26.5165 O   0  0  0  0  0  0  0  0  0  0  0  0
   11.8468  -20.4082   23.6059 C   0  0  0  0  0  0  0  0  0  0  0  0
   12.2813  -19.2215   24.4765 C   0  0  2  0  0  0  0  0  0  0  0  0
   11.3056  -18.1582   24.2812 N   0  0  0  0  0  0  0  0  0  0  0  0
   13.6333  -18.7669   24.1466 C   0  0  0  0  0  0  0  0  0  0  0  0
   14.6220  -19.4447   24.5056 O   0  0  0  0  0  0  0  0  0  0  0  0
   13.8475  -17.5985   23.4429 O   0  0  0  0  0  0  0  0  0  0  0  0
  1  2  1  0
  3  2  1  0
  4  3  1  0
  5  4  1  0
  5  6  1  1
  7  5  1  0
  8  7  2  0
  9  7  1  0
 10  9  1  0
 10 11  1  1
 11 12  1  0
 12 20  1  0
 12 13  2  0
 13 14  1  0
 15 16  2  0
 15 14  1  0
 17 16  1  0
 18 17  2  0
 19 18  1  0
 19 20  2  0
 20 15  1  0
 21 22  2  0
 21 10  1  0
 24 23  1  6
 24 25  1  0
 25 21  1  0
 26 24  1  0
 27 26  2  0
 28 26  1  0
M  END
$$$$
