MWA.pdb
     RDKit          3D

 28 29  0  0  1  0  0  0  0  0999 V2000
    7.8504  -11.6746   19.7553 C   0  0  0  0  0  0  0  0  0  0  0  0
    6.8841  -13.1520   19.4606 S   0  0  0  0  0  0  0  0  0  0  0  0
    7.4439  -14.6504   20.2151 C   0  0  0  0  0  0  0  0  0  0  0  0
    8.5204  -14.5757   21.2328 C   0  0  0  0  0  0  0  0  0  0  0  0
    8.9946  -15.8582   21.7688 C   0  0  2  0  0  0  0  0  0  0  0  0
    7.9189  -16.7857   21.9676 N   0  0  0  0  0  0  0  0  0  0  0  0
    9.7057  -15.7232   23.0749 C   0  0  0  0  0  0  0  0  0  0  0  0
   10.6494  -14.9100   23.2498 O   0  0  0  0  0  0  0  0  0  0  0  0
    9.2866  -16.5563   24.1579 N   0  0  0  0  0  0  0  0  0  0  0  0
    9.9148  -16.4489   25.4635 C   0  0  1  0  0  0  0  0  0  0  0  0
    8.8594  -16.5954   26.5658 C   0  0  0  0  0  0  0  0  0  0  0  0
    7.6799  -15.7467   26.2926 C   0  0  0  0  0  0  0  0  0  0  0  0
    6.4594  -16.1667   25.8094 C   0  0  0  0  0  0  0  0  0  0  0  0
    5.6323  -15.0893   25.6897 N   0  0  0  0  0  0  0  0  0  0  0  0
    6.3049  -13.9839   26.0893 C   0  0  0  0  0  0  0  0  0  0  0  0
    5.9384  -12.6588   26.1652 C   0  0  0  0  0  0  0  0  0  0  0  0
    6.8314  -11.7043   26.6172 C   0  0  0  0  0  0  0  0  0  0  0  0
    8.1050  -12.0699   26.9988 C   0  0  0  0  0  0  0  0  0  0  0  0
    8.4438  -13.3991   26.9127 C   0  0  0  0  0  0  0  0  0  0  0  0
    7.5859  -14.3837   26.4682 C   0  0  0  0  0  0  0  0  0  0  0  0
   10.8535  -17.5909   25.6187 C   0  0  0  0  0  0  0  0  0  0  0  0
   11.3682  -17.8191   26.7670 O   0  0  0  0  0  0  0  0  0  0  0  0
   11.7393  -20.7164   23.8921 C   0  0  0  0  0  0  0  0  0  0  0  0
   12.1259  -19.5634   24.8282 C   0  0  2  0  0  0  0  0  0  0  0  0
   11.2194  -18.4573   24.5536 N   0  0  0  0  0  0  0  0  0  0  0  0
   13.5222  -19.1603   24.6519 C   0  0  0  0  0  0  0  0  0  0  0  0
   13.7939  -18.1312   23.9938 O   0  0  0  0  0  0  0  0  0  0  0  0
   14.5569  -19.8933   25.1982 O   0  0  0  0  0  0  0  0  0  0  0  0
  1  2  1  0
  3  2  1  0
  4  3  1  0
  5  4  1  0
  5  6  1  1
  7  5  1  0
  8  7  2  0
  9  7  1  0
 10  9  1  0
 10 11  1  1
 11 12  1  0
 12 20  1  0
 12 13  2  0
 13 14  1  0
 15 16  2  0
 15 14  1  0
 17 16  1  0
 18 17  2  0
 19 18  1  0
 19 20  2  0
 20 15  1  0
 21 22  2  0
 21 10  1  0
 24 23  1  6
 24 25  1  0
 25 21  1  0
 26 24  1  0
 27 26  2  0
 28 26  1  0
M  END
$$$$
