MWA.pdb
     RDKit          3D

 28 29  0  0  1  0  0  0  0  0999 V2000
    6.5139  -12.0316   19.3730 C   0  0  0  0  0  0  0  0  0  0  0  0
    7.6608  -13.1042   18.5144 S   0  0  0  0  0  0  0  0  0  0  0  0
    8.0856  -14.6310   19.2996 C   0  0  0  0  0  0  0  0  0  0  0  0
    8.8473  -14.5892   20.5716 C   0  0  0  0  0  0  0  0  0  0  0  0
    9.2230  -15.8884   21.1442 C   0  0  2  0  0  0  0  0  0  0  0  0
    8.1099  -16.7909   21.1994 N   0  0  0  0  0  0  0  0  0  0  0  0
    9.7738  -15.7842   22.5282 C   0  0  0  0  0  0  0  0  0  0  0  0
   10.6880  -14.9757   22.8329 O   0  0  0  0  0  0  0  0  0  0  0  0
    9.2311  -16.6425   23.5340 N   0  0  0  0  0  0  0  0  0  0  0  0
    9.7271  -16.5931   24.8988 C   0  0  1  0  0  0  0  0  0  0  0  0
    8.5701  -16.7962   25.8838 C   0  0  0  0  0  0  0  0  0  0  0  0
    7.5669  -15.7171   25.7599 C   0  0  0  0  0  0  0  0  0  0  0  0
    6.3409  -15.8023   25.1362 C   0  0  0  0  0  0  0  0  0  0  0  0
    5.7076  -14.5985   25.2309 N   0  0  0  0  0  0  0  0  0  0  0  0
    6.5100  -13.7421   25.9066 C   0  0  0  0  0  0  0  0  0  0  0  0
    6.3524  -12.4233   26.2702 C   0  0  0  0  0  0  0  0  0  0  0  0
    7.3433  -11.7615   26.9721 C   0  0  0  0  0  0  0  0  0  0  0  0
    8.5061  -12.4171   27.3176 C   0  0  0  0  0  0  0  0  0  0  0  0
    8.6368  -13.7327   26.9418 C   0  0  0  0  0  0  0  0  0  0  0  0
    7.6749  -14.4312   26.2419 C   0  0  0  0  0  0  0  0  0  0  0  0
   10.6569  -17.7364   25.0929 C   0  0  0  0  0  0  0  0  0  0  0  0
   10.2883  -18.9048   24.7260 O   0  0  0  0  0  0  0  0  0  0  0  0
   14.2272  -18.3971   25.6926 C   0  0  0  0  0  0  0  0  0  0  0  0
   12.7570  -18.8063   25.8541 C   0  0  2  0  0  0  0  0  0  0  0  0
   11.9491  -17.6088   25.6697 N   0  0  0  0  0  0  0  0  0  0  0  0
   12.5007  -19.4227   27.1571 C   0  0  0  0  0  0  0  0  0  0  0  0
   11.7094  -18.8768   27.9582 O   0  0  0  0  0  0  0  0  0  0  0  0
   13.1153  -20.6020   27.5283 O   0  0  0  0  0  0  0  0  0  0  0  0
  1  2  1  0
  3  2  1  0
  4  3  1  0
  5  4  1  0
  5  6  1  1
  7  5  1  0
  8  7  2  0
  9  7  1  0
 10  9  1  0
 10 11  1  1
 11 12  1  0
 12 20  1  0
 12 13  2  0
 13 14  1  0
 15 16  2  0
 15 14  1  0
 17 16  1  0
 18 17  2  0
 19 18  1  0
 19 20  2  0
 20 15  1  0
 21 22  2  0
 21 10  1  0
 24 23  1  1
 24 25  1  0
 25 21  1  0
 26 24  1  0
 27 26  2  0
 28 26  1  0
M  END
$$$$
