MWA.pdb
     RDKit          3D

 28 29  0  0  1  0  0  0  0  0999 V2000
    7.9854  -11.8732   19.3193 C   0  0  0  0  0  0  0  0  0  0  0  0
    7.2439  -13.4972   19.1935 S   0  0  0  0  0  0  0  0  0  0  0  0
    8.1198  -14.8472   19.9272 C   0  0  0  0  0  0  0  0  0  0  0  0
    8.7294  -14.6564   21.2659 C   0  0  0  0  0  0  0  0  0  0  0  0
    9.3767  -15.8351   21.8564 C   0  0  2  0  0  0  0  0  0  0  0  0
    8.4522  -16.9150   22.0452 N   0  0  0  0  0  0  0  0  0  0  0  0
   10.0064  -15.5584   23.1818 C   0  0  0  0  0  0  0  0  0  0  0  0
   11.0283  -14.8358   23.3070 O   0  0  0  0  0  0  0  0  0  0  0  0
    9.4134  -16.1439   24.3430 N   0  0  0  0  0  0  0  0  0  0  0  0
    9.8666  -15.7763   25.6736 C   0  0  1  0  0  0  0  0  0  0  0  0
    8.7087  -15.8921   26.6716 C   0  0  0  0  0  0  0  0  0  0  0  0
    7.5560  -15.0671   26.2508 C   0  0  0  0  0  0  0  0  0  0  0  0
    6.3872  -15.5195   25.6775 C   0  0  0  0  0  0  0  0  0  0  0  0
    5.5703  -14.4559   25.4312 N   0  0  0  0  0  0  0  0  0  0  0  0
    6.1986  -13.3274   25.8383 C   0  0  0  0  0  0  0  0  0  0  0  0
    5.8212  -12.0033   25.8174 C   0  0  0  0  0  0  0  0  0  0  0  0
    6.6646  -11.0213   26.3042 C   0  0  0  0  0  0  0  0  0  0  0  0
    7.8989  -11.3578   26.8185 C   0  0  0  0  0  0  0  0  0  0  0  0
    8.2496  -12.6867   26.8270 C   0  0  0  0  0  0  0  0  0  0  0  0
    7.4406  -13.6983   26.3523 C   0  0  0  0  0  0  0  0  0  0  0  0
   10.8950  -16.7618   26.0988 C   0  0  0  0  0  0  0  0  0  0  0  0
   11.9125  -16.9588   25.3496 O   0  0  0  0  0  0  0  0  0  0  0  0
   12.2741  -17.7242   29.2118 C   0  0  0  0  0  0  0  0  0  0  0  0
   12.0038  -18.2043   27.7795 C   0  0  2  0  0  0  0  0  0  0  0  0
   10.8154  -17.5094   27.3045 N   0  0  0  0  0  0  0  0  0  0  0  0
   11.8304  -19.6565   27.7128 C   0  0  0  0  0  0  0  0  0  0  0  0
   10.6833  -20.1405   27.5873 O   0  0  0  0  0  0  0  0  0  0  0  0
   12.9102  -20.5138   27.7854 O   0  0  0  0  0  0  0  0  0  0  0  0
  1  2  1  0
  3  2  1  0
  4  3  1  0
  5  4  1  0
  5  6  1  1
  7  5  1  0
  8  7  2  0
  9  7  1  0
 10  9  1  0
 10 11  1  1
 11 12  1  0
 12 20  1  0
 12 13  2  0
 13 14  1  0
 15 16  2  0
 15 14  1  0
 17 16  1  0
 18 17  2  0
 19 18  1  0
 19 20  2  0
 20 15  1  0
 21 22  2  0
 21 10  1  0
 24 23  1  1
 24 25  1  0
 25 21  1  0
 26 24  1  0
 27 26  2  0
 28 26  1  0
M  END
$$$$
