FMS.pdb
     RDKit          3D

 26 26  0  0  1  0  0  0  0  0999 V2000
    7.8355  -16.2179   19.8994 N   0  0  0  0  0  0  0  0  0  0  0  0
    7.2959  -16.3521   21.2150 C   0  0  1  0  0  0  0  0  0  0  0  0
    6.9949  -17.7786   21.5914 C   0  0  0  0  0  0  0  0  0  0  0  0
    5.5386  -18.0076   21.4165 C   0  0  0  0  0  0  0  0  0  0  0  0
    5.0592  -18.3497   20.1739 C   0  0  0  0  0  0  0  0  0  0  0  0
    3.7052  -18.5598   20.0209 C   0  0  0  0  0  0  0  0  0  0  0  0
    2.8601  -18.4272   21.0957 C   0  0  0  0  0  0  0  0  0  0  0  0
    3.3609  -18.0794   22.3511 C   0  0  0  0  0  0  0  0  0  0  0  0
    4.7010  -17.8702   22.5081 C   0  0  0  0  0  0  0  0  0  0  0  0
    8.1945  -15.7963   22.2671 C   0  0  0  0  0  0  0  0  0  0  0  0
    9.3914  -15.6216   22.0102 O   0  0  0  0  0  0  0  0  0  0  0  0
    6.0259  -12.1729   27.5042 C   0  0  0  0  0  0  0  0  0  0  0  0
    7.1299  -11.3886   26.3041 S   0  0  0  0  0  0  0  0  0  0  0  0
    7.4424  -12.4994   24.8850 C   0  0  0  0  0  0  0  0  0  0  0  0
    7.6467  -13.8817   25.4540 C   0  0  0  0  0  0  0  0  0  0  0  0
    8.4816  -14.7662   24.5620 C   0  0  2  0  0  0  0  0  0  0  0  0
    7.7288  -15.4550   23.5669 N   0  0  0  0  0  0  0  0  0  0  0  0
    9.1684  -15.7481   25.4321 C   0  0  0  0  0  0  0  0  0  0  0  0
    9.8599  -15.3041   26.3776 O   0  0  0  0  0  0  0  0  0  0  0  0
   10.1809  -19.2990   23.9533 O   0  0  0  0  0  0  0  0  0  0  0  0
    9.6826  -19.4568   25.2442 C   0  0  0  0  0  0  0  0  0  0  0  0
    9.8761  -18.1158   25.9628 C   0  0  2  0  0  0  0  0  0  0  0  0
    9.0925  -17.1493   25.2633 N   0  0  0  0  0  0  0  0  0  0  0  0
   11.2892  -17.7714   26.0964 C   0  0  0  0  0  0  0  0  0  0  0  0
   11.8910  -16.6690   25.5041 O   0  0  0  0  0  0  0  0  0  0  0  0
   12.0271  -18.5151   26.7934 O   0  0  0  0  0  0  0  0  0  0  0  0
  2  1  1  6
  3  2  1  0
  4  3  1  0
  5  4  2  0
  6  5  1  0
  7  6  2  0
  7  8  1  0
  8  9  2  0
  9  4  1  0
 10  2  1  0
 10 11  2  0
 13 12  1  0
 14 13  1  0
 16 15  1  1
 15 14  1  0
 16 17  1  0
 17 10  1  0
 18 16  1  0
 19 18  2  0
 21 20  1  0
 22 21  1  6
 22 23  1  0
 23 18  1  0
 24 22  1  0
 25 24  1  0
 26 24  2  0
M  END
$$$$
