FMS.pdb
     RDKit          3D

 26 26  0  0  1  0  0  0  0  0999 V2000
    9.6864  -12.9569   20.8553 N   0  0  0  0  0  0  0  0  0  0  0  0
    8.6848  -13.8963   21.2484 C   0  0  1  0  0  0  0  0  0  0  0  0
    8.5624  -15.0640   20.3057 C   0  0  0  0  0  0  0  0  0  0  0  0
    7.9271  -14.5846   19.0526 C   0  0  0  0  0  0  0  0  0  0  0  0
    7.6125  -15.4947   18.0709 C   0  0  0  0  0  0  0  0  0  0  0  0
    7.0232  -15.0402   16.9103 C   0  0  0  0  0  0  0  0  0  0  0  0
    6.7598  -13.7017   16.7479 C   0  0  0  0  0  0  0  0  0  0  0  0
    7.0848  -12.7895   17.7530 C   0  0  0  0  0  0  0  0  0  0  0  0
    7.6684  -13.2344   18.9043 C   0  0  0  0  0  0  0  0  0  0  0  0
    8.9169  -14.4506   22.6129 C   0  0  0  0  0  0  0  0  0  0  0  0
   10.0747  -14.6696   22.9884 O   0  0  0  0  0  0  0  0  0  0  0  0
    6.8283  -10.7120   27.0983 C   0  0  0  0  0  0  0  0  0  0  0  0
    7.3203  -12.4486   26.9712 S   0  0  0  0  0  0  0  0  0  0  0  0
    6.3614  -13.3026   25.6687 C   0  0  0  0  0  0  0  0  0  0  0  0
    6.7659  -14.7554   25.7154 C   0  0  0  0  0  0  0  0  0  0  0  0
    7.9969  -15.0487   24.8946 C   0  0  2  0  0  0  0  0  0  0  0  0
    7.8525  -14.7412   23.5104 N   0  0  0  0  0  0  0  0  0  0  0  0
    8.3003  -16.4894   25.0533 C   0  0  0  0  0  0  0  0  0  0  0  0
    7.3727  -17.3056   24.8465 O   0  0  0  0  0  0  0  0  0  0  0  0
   12.0696  -17.8170   25.1593 O   0  0  0  0  0  0  0  0  0  0  0  0
   11.0802  -18.7638   24.9058 C   0  0  0  0  0  0  0  0  0  0  0  0
    9.8556  -18.3609   25.7367 C   0  0  2  0  0  0  0  0  0  0  0  0
    9.5660  -16.9991   25.4219 N   0  0  0  0  0  0  0  0  0  0  0  0
   10.0542  -18.6273   27.1589 C   0  0  0  0  0  0  0  0  0  0  0  0
   10.3412  -19.8762   27.6941 O   0  0  0  0  0  0  0  0  0  0  0  0
    9.9620  -17.6696   27.9699 O   0  0  0  0  0  0  0  0  0  0  0  0
  2  1  1  6
  3  2  1  0
  4  3  1  0
  5  4  2  0
  6  5  1  0
  7  6  2  0
  7  8  1  0
  8  9  2  0
  9  4  1  0
 10  2  1  0
 10 11  2  0
 13 12  1  0
 14 13  1  0
 16 15  1  1
 15 14  1  0
 16 17  1  0
 17 10  1  0
 18 16  1  0
 19 18  2  0
 21 20  1  0
 22 21  1  6
 22 23  1  0
 23 18  1  0
 24 22  1  0
 25 24  1  0
 26 24  2  0
M  END
$$$$
