FMS.pdb
     RDKit          3D

 26 26  0  0  1  0  0  0  0  0999 V2000
    6.5821  -17.3735   26.2773 N   0  0  0  0  0  0  0  0  0  0  0  0
    7.0842  -16.3405   25.4283 C   0  0  1  0  0  0  0  0  0  0  0  0
    8.2138  -15.5598   26.0462 C   0  0  0  0  0  0  0  0  0  0  0  0
    7.7385  -14.1763   26.2985 C   0  0  0  0  0  0  0  0  0  0  0  0
    6.4396  -13.8478   25.9886 C   0  0  0  0  0  0  0  0  0  0  0  0
    6.0071  -12.5603   26.2259 C   0  0  0  0  0  0  0  0  0  0  0  0
    6.8655  -11.6313   26.7619 C   0  0  0  0  0  0  0  0  0  0  0  0
    8.1812  -11.9792   27.0715 C   0  0  0  0  0  0  0  0  0  0  0  0
    8.6145  -13.2528   26.8385 C   0  0  0  0  0  0  0  0  0  0  0  0
    7.5679  -16.8563   24.1155 C   0  0  0  0  0  0  0  0  0  0  0  0
    7.8506  -18.0549   24.0032 O   0  0  0  0  0  0  0  0  0  0  0  0
    8.4971  -11.8205   20.2308 C   0  0  0  0  0  0  0  0  0  0  0  0
    7.2066  -12.9809   19.7188 S   0  0  0  0  0  0  0  0  0  0  0  0
    6.9978  -14.3098   20.9581 C   0  0  0  0  0  0  0  0  0  0  0  0
    8.0056  -15.3802   20.6190 C   0  0  0  0  0  0  0  0  0  0  0  0
    8.0951  -16.4567   21.6717 C   0  0  2  0  0  0  0  0  0  0  0  0
    7.7195  -16.0198   22.9753 N   0  0  0  0  0  0  0  0  0  0  0  0
    9.4959  -16.9366   21.6942 C   0  0  0  0  0  0  0  0  0  0  0  0
    9.9378  -17.4905   20.6611 O   0  0  0  0  0  0  0  0  0  0  0  0
   13.2974  -15.4220   22.2793 O   0  0  0  0  0  0  0  0  0  0  0  0
   12.4015  -16.3051   21.6817 C   0  0  0  0  0  0  0  0  0  0  0  0
   11.7558  -17.1164   22.8117 C   0  0  2  0  0  0  0  0  0  0  0  0
   10.3619  -16.8091   22.8039 N   0  0  0  0  0  0  0  0  0  0  0  0
   12.4216  -16.8883   24.0915 C   0  0  0  0  0  0  0  0  0  0  0  0
   13.7742  -17.0995   24.3247 O   0  0  0  0  0  0  0  0  0  0  0  0
   11.7365  -16.4714   25.0611 O   0  0  0  0  0  0  0  0  0  0  0  0
  2  1  1  1
  3  2  1  0
  4  3  1  0
  5  4  2  0
  6  5  1  0
  7  6  2  0
  7  8  1  0
  8  9  2  0
  9  4  1  0
 10  2  1  0
 10 11  2  0
 13 12  1  0
 14 13  1  0
 16 15  1  6
 15 14  1  0
 16 17  1  0
 17 10  1  0
 18 16  1  0
 19 18  2  0
 21 20  1  0
 22 21  1  6
 22 23  1  0
 23 18  1  0
 24 22  1  0
 25 24  1  0
 26 24  2  0
M  END
$$$$
