FMS.pdb
     RDKit          3D

 26 26  0  0  1  0  0  0  0  0999 V2000
    6.2555  -16.5983   21.6993 N   0  0  0  0  0  0  0  0  0  0  0  0
    7.6755  -16.6701   21.5640 C   0  0  1  0  0  0  0  0  0  0  0  0
    8.1666  -16.2316   20.2098 C   0  0  0  0  0  0  0  0  0  0  0  0
    7.9267  -14.7725   20.0791 C   0  0  0  0  0  0  0  0  0  0  0  0
    6.6490  -14.3227   19.8423 C   0  0  0  0  0  0  0  0  0  0  0  0
    6.4358  -12.9659   19.7217 C   0  0  0  0  0  0  0  0  0  0  0  0
    7.4867  -12.0889   19.8376 C   0  0  0  0  0  0  0  0  0  0  0  0
    8.7783  -12.5599   20.0780 C   0  0  0  0  0  0  0  0  0  0  0  0
    8.9949  -13.9026   20.1983 C   0  0  0  0  0  0  0  0  0  0  0  0
    8.3946  -15.8522   22.5825 C   0  0  0  0  0  0  0  0  0  0  0  0
    9.2265  -15.0164   22.2100 O   0  0  0  0  0  0  0  0  0  0  0  0
    6.5482  -11.7580   26.6656 C   0  0  0  0  0  0  0  0  0  0  0  0
    7.6010  -12.6510   27.8353 S   0  0  0  0  0  0  0  0  0  0  0  0
    8.7903  -13.7237   26.9520 C   0  0  0  0  0  0  0  0  0  0  0  0
    8.0086  -14.4505   25.8857 C   0  0  0  0  0  0  0  0  0  0  0  0
    8.8773  -15.3184   25.0098 C   0  0  2  0  0  0  0  0  0  0  0  0
    8.1621  -15.9938   23.9784 N   0  0  0  0  0  0  0  0  0  0  0  0
    9.5367  -16.3118   25.8882 C   0  0  0  0  0  0  0  0  0  0  0  0
    8.8040  -17.1136   26.5124 O   0  0  0  0  0  0  0  0  0  0  0  0
   13.6694  -16.4562   26.2196 O   0  0  0  0  0  0  0  0  0  0  0  0
   12.9645  -17.6556   26.1537 C   0  0  0  0  0  0  0  0  0  0  0  0
   11.6087  -17.4124   26.8282 C   0  0  2  0  0  0  0  0  0  0  0  0
   10.9353  -16.4113   26.0654 N   0  0  0  0  0  0  0  0  0  0  0  0
   11.7577  -17.0983   28.2468 C   0  0  0  0  0  0  0  0  0  0  0  0
   12.3903  -17.9171   29.1729 O   0  0  0  0  0  0  0  0  0  0  0  0
   11.2854  -16.0140   28.6765 O   0  0  0  0  0  0  0  0  0  0  0  0
  2  1  1  6
  3  2  1  0
  4  3  1  0
  5  4  2  0
  6  5  1  0
  7  6  2  0
  7  8  1  0
  8  9  2  0
  9  4  1  0
 10  2  1  0
 10 11  2  0
 13 12  1  0
 14 13  1  0
 16 15  1  1
 15 14  1  0
 16 17  1  0
 17 10  1  0
 18 16  1  0
 19 18  2  0
 21 20  1  0
 22 21  1  6
 22 23  1  0
 23 18  1  0
 24 22  1  0
 25 24  1  0
 26 24  2  0
M  END
$$$$
