FMS.pdb
     RDKit          3D

 26 26  0  0  1  0  0  0  0  0999 V2000
    6.2097  -18.0949   25.6792 N   0  0  0  0  0  0  0  0  0  0  0  0
    6.6992  -16.7780   25.4218 C   0  0  1  0  0  0  0  0  0  0  0  0
    7.2469  -16.0971   26.6480 C   0  0  0  0  0  0  0  0  0  0  0  0
    7.0539  -14.6336   26.4918 C   0  0  0  0  0  0  0  0  0  0  0  0
    8.1319  -13.7953   26.6531 C   0  0  0  0  0  0  0  0  0  0  0  0
    7.9431  -12.4374   26.5066 C   0  0  0  0  0  0  0  0  0  0  0  0
    6.6977  -11.9420   26.2053 C   0  0  0  0  0  0  0  0  0  0  0  0
    5.6127  -12.8050   26.0445 C   0  0  0  0  0  0  0  0  0  0  0  0
    5.7943  -14.1506   26.1884 C   0  0  0  0  0  0  0  0  0  0  0  0
    7.7704  -16.7527   24.3850 C   0  0  0  0  0  0  0  0  0  0  0  0
    8.2108  -17.8206   23.9435 O   0  0  0  0  0  0  0  0  0  0  0  0
    8.1128  -11.6618   20.1031 C   0  0  0  0  0  0  0  0  0  0  0  0
    7.2627  -13.1875   19.6302 S   0  0  0  0  0  0  0  0  0  0  0  0
    7.1653  -14.3430   21.0447 C   0  0  0  0  0  0  0  0  0  0  0  0
    8.4045  -14.1163   21.8750 C   0  0  0  0  0  0  0  0  0  0  0  0
    8.8756  -15.3642   22.5792 C   0  0  2  0  0  0  0  0  0  0  0  0
    8.3129  -15.5401   23.8769 N   0  0  0  0  0  0  0  0  0  0  0  0
   10.3503  -15.2809   22.6855 C   0  0  0  0  0  0  0  0  0  0  0  0
   10.9967  -15.0447   21.6387 O   0  0  0  0  0  0  0  0  0  0  0  0
   12.2528  -18.6328   25.0295 O   0  0  0  0  0  0  0  0  0  0  0  0
   11.2932  -17.6729   24.7172 C   0  0  0  0  0  0  0  0  0  0  0  0
   12.0430  -16.4651   24.1418 C   0  0  2  0  0  0  0  0  0  0  0  0
   11.0711  -15.4506   23.8893 N   0  0  0  0  0  0  0  0  0  0  0  0
   12.8540  -16.8320   22.9838 C   0  0  0  0  0  0  0  0  0  0  0  0
   14.1789  -16.4588   22.7996 O   0  0  0  0  0  0  0  0  0  0  0  0
   12.3312  -17.5350   22.0806 O   0  0  0  0  0  0  0  0  0  0  0  0
  2  1  1  1
  3  2  1  0
  4  3  1  0
  5  4  2  0
  6  5  1  0
  7  6  2  0
  7  8  1  0
  8  9  2  0
  9  4  1  0
 10  2  1  0
 10 11  2  0
 13 12  1  0
 14 13  1  0
 16 15  1  1
 15 14  1  0
 16 17  1  0
 17 10  1  0
 18 16  1  0
 19 18  2  0
 21 20  1  0
 22 21  1  6
 22 23  1  0
 23 18  1  0
 24 22  1  0
 25 24  1  0
 26 24  2  0
M  END
$$$$
