FMS.pdb
     RDKit          3D

 26 26  0  0  1  0  0  0  0  0999 V2000
    5.8512  -18.0948   25.7446 N   0  0  0  0  0  0  0  0  0  0  0  0
    6.4523  -16.8094   25.5812 C   0  0  1  0  0  0  0  0  0  0  0  0
    7.1615  -16.3234   26.8173 C   0  0  0  0  0  0  0  0  0  0  0  0
    7.2368  -14.8421   26.7572 C   0  0  0  0  0  0  0  0  0  0  0  0
    8.4377  -14.2220   27.0110 C   0  0  0  0  0  0  0  0  0  0  0  0
    8.4979  -12.8457   26.9536 C   0  0  0  0  0  0  0  0  0  0  0  0
    7.3740  -12.1176   26.6477 C   0  0  0  0  0  0  0  0  0  0  0  0
    6.1619  -12.7606   26.3924 C   0  0  0  0  0  0  0  0  0  0  0  0
    6.0968  -14.1233   26.4480 C   0  0  0  0  0  0  0  0  0  0  0  0
    7.4361  -16.7703   24.4614 C   0  0  0  0  0  0  0  0  0  0  0  0
    8.1793  -17.7409   24.2745 O   0  0  0  0  0  0  0  0  0  0  0  0
    8.5005  -11.9114   19.5893 C   0  0  0  0  0  0  0  0  0  0  0  0
    7.3407  -13.2931   19.4479 S   0  0  0  0  0  0  0  0  0  0  0  0
    7.0178  -14.0414   21.0853 C   0  0  0  0  0  0  0  0  0  0  0  0
    8.3617  -14.2499   21.7386 C   0  0  0  0  0  0  0  0  0  0  0  0
    8.4544  -15.5563   22.4867 C   0  0  2  0  0  0  0  0  0  0  0  0
    7.5575  -15.6526   23.5902 N   0  0  0  0  0  0  0  0  0  0  0  0
    9.8484  -15.6917   22.9676 C   0  0  0  0  0  0  0  0  0  0  0  0
   10.2859  -14.8075   23.7398 O   0  0  0  0  0  0  0  0  0  0  0  0
   11.8914  -19.0799   22.2204 O   0  0  0  0  0  0  0  0  0  0  0  0
   12.3535  -18.3340   23.3019 C   0  0  0  0  0  0  0  0  0  0  0  0
   12.0897  -16.8599   22.9709 C   0  0  2  0  0  0  0  0  0  0  0  0
   10.7126  -16.7518   22.6113 N   0  0  0  0  0  0  0  0  0  0  0  0
   13.0219  -16.3548   21.9664 C   0  0  0  0  0  0  0  0  0  0  0  0
   12.6513  -15.8824   20.7142 O   0  0  0  0  0  0  0  0  0  0  0  0
   14.2504  -16.3396   22.2382 O   0  0  0  0  0  0  0  0  0  0  0  0
  2  1  1  1
  3  2  1  0
  4  3  1  0
  5  4  2  0
  6  5  1  0
  7  6  2  0
  7  8  1  0
  8  9  2  0
  9  4  1  0
 10  2  1  0
 10 11  2  0
 13 12  1  0
 14 13  1  0
 16 15  1  1
 15 14  1  0
 16 17  1  0
 17 10  1  0
 18 16  1  0
 19 18  2  0
 21 20  1  0
 22 21  1  6
 22 23  1  0
 23 18  1  0
 24 22  1  0
 25 24  1  0
 26 24  2  0
M  END
$$$$
