FMS.pdb
     RDKit          3D

 26 26  0  0  1  0  0  0  0  0999 V2000
    6.0504  -18.1218   25.9471 N   0  0  0  0  0  0  0  0  0  0  0  0
    6.4976  -16.7974   25.6539 C   0  0  1  0  0  0  0  0  0  0  0  0
    7.3464  -16.2013   26.7455 C   0  0  0  0  0  0  0  0  0  0  0  0
    7.2381  -14.7231   26.6630 C   0  0  0  0  0  0  0  0  0  0  0  0
    5.9945  -14.1487   26.5429 C   0  0  0  0  0  0  0  0  0  0  0  0
    5.9037  -12.7751   26.4663 C   0  0  0  0  0  0  0  0  0  0  0  0
    7.0401  -12.0045   26.5099 C   0  0  0  0  0  0  0  0  0  0  0  0
    8.2957  -12.6015   26.6320 C   0  0  0  0  0  0  0  0  0  0  0  0
    8.3912  -13.9613   26.7083 C   0  0  0  0  0  0  0  0  0  0  0  0
    7.2836  -16.7201   24.3892 C   0  0  0  0  0  0  0  0  0  0  0  0
    8.1027  -17.6097   24.1303 O   0  0  0  0  0  0  0  0  0  0  0  0
    8.1544  -11.2926   19.8215 C   0  0  0  0  0  0  0  0  0  0  0  0
    7.3727  -12.8044   19.2070 S   0  0  0  0  0  0  0  0  0  0  0  0
    8.0533  -14.2776   20.0507 C   0  0  0  0  0  0  0  0  0  0  0  0
    7.4588  -14.2955   21.4373 C   0  0  0  0  0  0  0  0  0  0  0  0
    7.8063  -15.5442   22.2088 C   0  0  2  0  0  0  0  0  0  0  0  0
    7.1297  -15.6558   23.4583 N   0  0  0  0  0  0  0  0  0  0  0  0
    9.2694  -15.5294   22.4368 C   0  0  0  0  0  0  0  0  0  0  0  0
    9.6910  -14.9672   23.4740 O   0  0  0  0  0  0  0  0  0  0  0  0
   11.3387  -18.4891   22.7558 O   0  0  0  0  0  0  0  0  0  0  0  0
   11.6496  -17.1839   23.1294 C   0  0  0  0  0  0  0  0  0  0  0  0
   11.5947  -16.3315   21.8556 C   0  0  2  0  0  0  0  0  0  0  0  0
   10.2161  -16.1076   21.5610 N   0  0  0  0  0  0  0  0  0  0  0  0
   12.3590  -16.9343   20.7667 C   0  0  0  0  0  0  0  0  0  0  0  0
   11.8348  -17.2620   19.5232 O   0  0  0  0  0  0  0  0  0  0  0  0
   13.5790  -17.1807   20.9514 O   0  0  0  0  0  0  0  0  0  0  0  0
  2  1  1  1
  3  2  1  0
  4  3  1  0
  5  4  2  0
  6  5  1  0
  7  6  2  0
  7  8  1  0
  8  9  2  0
  9  4  1  0
 10  2  1  0
 10 11  2  0
 13 12  1  0
 14 13  1  0
 16 15  1  1
 15 14  1  0
 16 17  1  0
 17 10  1  0
 18 16  1  0
 19 18  2  0
 21 20  1  0
 22 21  1  1
 22 23  1  0
 23 18  1  0
 24 22  1  0
 25 24  1  0
 26 24  2  0
M  END
$$$$
