FNT.pdb
     RDKit          3D

 27 27  0  0  1  0  0  0  0  0999 V2000
    5.4984  -17.2089   25.4110 N   0  0  0  0  0  0  0  0  0  0  0  0
    6.3315  -16.0825   25.0677 C   0  0  1  0  0  0  0  0  0  0  0  0
    7.2147  -15.6463   26.1901 C   0  0  0  0  0  0  0  0  0  0  0  0
    7.1348  -14.1725   26.3153 C   0  0  0  0  0  0  0  0  0  0  0  0
    6.2109  -13.5536   27.1246 C   0  0  0  0  0  0  0  0  0  0  0  0
    6.1693  -12.1803   27.2131 C   0  0  0  0  0  0  0  0  0  0  0  0
    7.0363  -11.3980   26.5060 C   0  0  0  0  0  0  0  0  0  0  0  0
    7.9672  -12.0088   25.6910 C   0  0  0  0  0  0  0  0  0  0  0  0
    8.0091  -13.3907   25.6021 C   0  0  0  0  0  0  0  0  0  0  0  0
    7.0237  -16.3405   23.8018 C   0  0  0  0  0  0  0  0  0  0  0  0
    7.4589  -17.5090   23.5247 O   0  0  0  0  0  0  0  0  0  0  0  0
    7.4780  -14.9085   18.1861 N   0  0  0  0  0  0  0  0  0  0  0  0
    8.2871  -14.6394   19.3156 C   0  0  0  0  0  0  0  0  0  0  0  0
    9.5372  -14.5850   19.1310 O   0  0  0  0  0  0  0  0  0  0  0  0
    7.7261  -14.4305   20.6452 C   0  0  0  0  0  0  0  0  0  0  0  0
    7.9391  -15.6211   21.5667 C   0  0  2  0  0  0  0  0  0  0  0  0
    7.2574  -15.3394   22.8139 N   0  0  0  0  0  0  0  0  0  0  0  0
    9.3666  -15.9294   21.7675 C   0  0  0  0  0  0  0  0  0  0  0  0
   10.0623  -15.2376   22.5825 O   0  0  0  0  0  0  0  0  0  0  0  0
   12.9133  -19.3355   21.4849 C   0  0  0  0  0  0  0  0  0  0  0  0
   11.4837  -18.8614   21.2316 C   0  0  1  0  0  0  0  0  0  0  0  0
   10.7309  -19.3710   22.3134 O   0  0  0  0  0  0  0  0  0  0  0  0
   11.4260  -17.3540   21.3755 C   0  0  2  0  0  0  0  0  0  0  0  0
   10.0500  -16.9730   21.1012 N   0  0  0  0  0  0  0  0  0  0  0  0
   12.3532  -16.7656   20.3694 C   0  0  0  0  0  0  0  0  0  0  0  0
   12.0290  -16.8087   19.1548 O   0  0  0  0  0  0  0  0  0  0  0  0
   13.5416  -16.1864   20.7668 O   0  0  0  0  0  0  0  0  0  0  0  0
  2  1  1  1
  3  2  1  0
  4  5  2  0
  4  3  1  0
  6  5  1  0
  7  6  2  0
  8  7  1  0
  8  9  2  0
  9  4  1  0
 10  2  1  0
 11 10  2  0
 13 12  1  0
 14 13  2  0
 15 13  1  0
 16 15  1  6
 16 17  1  0
 17 10  1  0
 18 19  2  0
 18 16  1  0
 21 20  1  1
 21 23  1  0
 22 21  1  0
 23 24  1  6
 24 18  1  0
 25 23  1  0
 26 25  2  0
 27 25  1  0
M  END
$$$$
