FNT.pdb
     RDKit          3D

 27 27  0  0  1  0  0  0  0  0999 V2000
    7.2516  -16.5927   26.3600 N   0  0  0  0  0  0  0  0  0  0  0  0
    7.5654  -16.0743   25.0511 C   0  0  1  0  0  0  0  0  0  0  0  0
    8.3688  -14.8163   25.0987 C   0  0  0  0  0  0  0  0  0  0  0  0
    7.5905  -13.7797   25.8154 C   0  0  0  0  0  0  0  0  0  0  0  0
    8.0564  -13.1702   26.9568 C   0  0  0  0  0  0  0  0  0  0  0  0
    7.3017  -12.2108   27.5936 C   0  0  0  0  0  0  0  0  0  0  0  0
    6.0783  -11.8389   27.1155 C   0  0  0  0  0  0  0  0  0  0  0  0
    5.6015  -12.4441   25.9708 C   0  0  0  0  0  0  0  0  0  0  0  0
    6.3610  -13.4094   25.3301 C   0  0  0  0  0  0  0  0  0  0  0  0
    8.1314  -17.1371   24.2152 C   0  0  0  0  0  0  0  0  0  0  0  0
    8.5284  -18.2332   24.7372 O   0  0  0  0  0  0  0  0  0  0  0  0
    8.4867  -20.3015   19.8050 N   0  0  0  0  0  0  0  0  0  0  0  0
    8.8863  -18.9497   19.6787 C   0  0  0  0  0  0  0  0  0  0  0  0
    9.6973  -18.6715   18.7489 O   0  0  0  0  0  0  0  0  0  0  0  0
    8.3972  -17.9051   20.5708 C   0  0  0  0  0  0  0  0  0  0  0  0
    8.8808  -18.0802   22.0017 C   0  0  2  0  0  0  0  0  0  0  0  0
    8.2780  -17.0327   22.8009 N   0  0  0  0  0  0  0  0  0  0  0  0
   10.3514  -18.0838   22.1026 C   0  0  0  0  0  0  0  0  0  0  0  0
   11.0217  -19.0694   21.6483 O   0  0  0  0  0  0  0  0  0  0  0  0
   12.6342  -16.2976   20.4113 C   0  0  0  0  0  0  0  0  0  0  0  0
   13.0337  -15.9411   21.8417 C   0  0  1  0  0  0  0  0  0  0  0  0
   12.2613  -14.8030   22.1655 O   0  0  0  0  0  0  0  0  0  0  0  0
   12.5561  -17.0319   22.7788 C   0  0  2  0  0  0  0  0  0  0  0  0
   11.1051  -17.0391   22.6862 N   0  0  0  0  0  0  0  0  0  0  0  0
   13.0010  -16.6759   24.1548 C   0  0  0  0  0  0  0  0  0  0  0  0
   12.1282  -16.3912   25.0147 O   0  0  0  0  0  0  0  0  0  0  0  0
   14.3439  -16.6603   24.4744 O   0  0  0  0  0  0  0  0  0  0  0  0
  2  1  1  1
  3  2  1  0
  4  5  2  0
  4  3  1  0
  6  5  1  0
  7  6  2  0
  8  7  1  0
  8  9  2  0
  9  4  1  0
 10  2  1  0
 11 10  2  0
 13 12  1  0
 14 13  2  0
 15 13  1  0
 16 15  1  6
 16 17  1  0
 17 10  1  0
 18 19  2  0
 18 16  1  0
 21 20  1  6
 21 23  1  0
 22 21  1  0
 23 24  1  1
 24 18  1  0
 25 23  1  0
 26 25  2  0
 27 25  1  0
M  END
$$$$
