FNT.pdb
     RDKit          3D

 27 27  0  0  1  0  0  0  0  0999 V2000
    6.4280  -16.5898   26.0660 N   0  0  0  0  0  0  0  0  0  0  0  0
    7.7570  -16.1949   25.6681 C   0  0  1  0  0  0  0  0  0  0  0  0
    8.3494  -15.1557   26.5620 C   0  0  0  0  0  0  0  0  0  0  0  0
    7.6339  -13.8767   26.3468 C   0  0  0  0  0  0  0  0  0  0  0  0
    7.2385  -13.4580   25.0979 C   0  0  0  0  0  0  0  0  0  0  0  0
    6.5754  -12.2618   24.9402 C   0  0  0  0  0  0  0  0  0  0  0  0
    6.2931  -11.4617   26.0098 C   0  0  0  0  0  0  0  0  0  0  0  0
    6.6854  -11.8724   27.2672 C   0  0  0  0  0  0  0  0  0  0  0  0
    7.3525  -13.0762   27.4257 C   0  0  0  0  0  0  0  0  0  0  0  0
    8.5913  -17.3827   25.4646 C   0  0  0  0  0  0  0  0  0  0  0  0
    9.6751  -17.5368   26.1227 O   0  0  0  0  0  0  0  0  0  0  0  0
    7.4404  -21.3874   26.2010 N   0  0  0  0  0  0  0  0  0  0  0  0
    7.2208  -20.9500   24.8731 C   0  0  0  0  0  0  0  0  0  0  0  0
    6.0231  -20.7423   24.5239 O   0  0  0  0  0  0  0  0  0  0  0  0
    8.3131  -20.7408   23.9299 C   0  0  0  0  0  0  0  0  0  0  0  0
    9.1648  -19.5298   24.2762 C   0  0  2  0  0  0  0  0  0  0  0  0
    8.2681  -18.4241   24.5460 N   0  0  0  0  0  0  0  0  0  0  0  0
   10.1444  -19.2103   23.2221 C   0  0  0  0  0  0  0  0  0  0  0  0
   10.9928  -20.0870   22.8498 O   0  0  0  0  0  0  0  0  0  0  0  0
    9.3455  -17.5892   19.9251 C   0  0  0  0  0  0  0  0  0  0  0  0
   10.4937  -16.7796   20.5243 C   0  0  1  0  0  0  0  0  0  0  0  0
    9.8700  -15.7420   21.2529 O   0  0  0  0  0  0  0  0  0  0  0  0
   11.2112  -17.6231   21.5586 C   0  0  2  0  0  0  0  0  0  0  0  0
   10.2188  -17.9594   22.5666 N   0  0  0  0  0  0  0  0  0  0  0  0
   12.3040  -16.7956   22.1411 C   0  0  0  0  0  0  0  0  0  0  0  0
   12.2754  -16.5420   23.3728 O   0  0  0  0  0  0  0  0  0  0  0  0
   13.3240  -16.3198   21.3419 O   0  0  0  0  0  0  0  0  0  0  0  0
  2  1  1  1
  3  2  1  0
  4  5  2  0
  4  3  1  0
  6  5  1  0
  7  6  2  0
  8  7  1  0
  8  9  2  0
  9  4  1  0
 10  2  1  0
 11 10  2  0
 13 12  1  0
 14 13  2  0
 15 13  1  0
 16 15  1  6
 16 17  1  0
 17 10  1  0
 18 19  2  0
 18 16  1  0
 21 20  1  1
 21 23  1  0
 22 21  1  0
 23 24  1  1
 24 18  1  0
 25 23  1  0
 26 25  2  0
 27 25  1  0
M  END
$$$$
