FNT.pdb
     RDKit          3D

 27 27  0  0  1  0  0  0  0  0999 V2000
    5.1191  -17.8142   24.6077 N   0  0  0  0  0  0  0  0  0  0  0  0
    5.9328  -16.6256   24.6834 C   0  0  1  0  0  0  0  0  0  0  0  0
    6.7322  -16.5446   25.9421 C   0  0  0  0  0  0  0  0  0  0  0  0
    7.1163  -15.1329   26.1738 C   0  0  0  0  0  0  0  0  0  0  0  0
    8.3716  -14.7754   26.6073 C   0  0  0  0  0  0  0  0  0  0  0  0
    8.6889  -13.4512   26.8108 C   0  0  0  0  0  0  0  0  0  0  0  0
    7.7747  -12.4615   26.5907 C   0  0  0  0  0  0  0  0  0  0  0  0
    6.5123  -12.8094   26.1557 C   0  0  0  0  0  0  0  0  0  0  0  0
    6.1932  -14.1418   25.9508 C   0  0  0  0  0  0  0  0  0  0  0  0
    6.7077  -16.4710   23.4489 C   0  0  0  0  0  0  0  0  0  0  0  0
    7.2103  -17.4896   22.8645 O   0  0  0  0  0  0  0  0  0  0  0  0
    8.3387  -12.4607   19.0499 N   0  0  0  0  0  0  0  0  0  0  0  0
    7.8266  -13.6721   19.5724 C   0  0  0  0  0  0  0  0  0  0  0  0
    7.8186  -14.6757   18.8027 O   0  0  0  0  0  0  0  0  0  0  0  0
    7.3241  -13.7825   20.9369 C   0  0  0  0  0  0  0  0  0  0  0  0
    7.7295  -15.0849   21.6089 C   0  0  2  0  0  0  0  0  0  0  0  0
    6.9525  -15.2125   22.8252 N   0  0  0  0  0  0  0  0  0  0  0  0
    9.1798  -15.1605   21.8617 C   0  0  0  0  0  0  0  0  0  0  0  0
   10.0067  -14.9465   20.9144 O   0  0  0  0  0  0  0  0  0  0  0  0
   10.8441  -14.4195   25.5172 C   0  0  0  0  0  0  0  0  0  0  0  0
   11.3394  -15.7089   24.8654 C   0  0  1  0  0  0  0  0  0  0  0  0
   10.4226  -16.7029   25.2753 O   0  0  0  0  0  0  0  0  0  0  0  0
   11.1735  -15.6030   23.3629 C   0  0  2  0  0  0  0  0  0  0  0  0
    9.7466  -15.4632   23.1215 N   0  0  0  0  0  0  0  0  0  0  0  0
   11.6962  -16.8597   22.7583 C   0  0  0  0  0  0  0  0  0  0  0  0
   10.8915  -17.6204   22.1617 O   0  0  0  0  0  0  0  0  0  0  0  0
   13.0361  -17.1780   22.8535 O   0  0  0  0  0  0  0  0  0  0  0  0
  2  1  1  6
  3  2  1  0
  4  5  2  0
  4  3  1  0
  6  5  1  0
  7  6  2  0
  8  7  1  0
  8  9  2  0
  9  4  1  0
 10  2  1  0
 11 10  2  0
 13 12  1  0
 14 13  2  0
 15 13  1  0
 16 15  1  1
 16 17  1  0
 17 10  1  0
 18 19  2  0
 18 16  1  0
 21 20  1  1
 21 23  1  0
 22 21  1  0
 23 24  1  1
 24 18  1  0
 25 23  1  0
 26 25  2  0
 27 25  1  0
M  END
$$$$
