FNT.pdb
     RDKit          3D

 27 27  0  0  1  0  0  0  0  0999 V2000
    5.8293  -16.8477   24.6686 N   0  0  0  0  0  0  0  0  0  0  0  0
    7.0153  -16.0669   24.9224 C   0  0  1  0  0  0  0  0  0  0  0  0
    7.0053  -15.4093   26.2631 C   0  0  0  0  0  0  0  0  0  0  0  0
    6.7345  -13.9640   26.0839 C   0  0  0  0  0  0  0  0  0  0  0  0
    5.5082  -13.4071   26.3619 C   0  0  0  0  0  0  0  0  0  0  0  0
    5.2970  -12.0586   26.1817 C   0  0  0  0  0  0  0  0  0  0  0  0
    6.2901  -11.2405   25.7253 C   0  0  0  0  0  0  0  0  0  0  0  0
    7.5244  -11.7892   25.4435 C   0  0  0  0  0  0  0  0  0  0  0  0
    7.7367  -13.1461   25.6249 C   0  0  0  0  0  0  0  0  0  0  0  0
    8.2103  -16.8656   24.6354 C   0  0  0  0  0  0  0  0  0  0  0  0
    8.2839  -18.0842   25.0112 O   0  0  0  0  0  0  0  0  0  0  0  0
   12.9343  -18.5015   23.3295 N   0  0  0  0  0  0  0  0  0  0  0  0
   12.5732  -17.4282   22.4808 C   0  0  0  0  0  0  0  0  0  0  0  0
   13.3059  -17.2178   21.4716 O   0  0  0  0  0  0  0  0  0  0  0  0
   11.4103  -16.5869   22.7387 C   0  0  0  0  0  0  0  0  0  0  0  0
   10.6383  -17.0149   23.9768 C   0  0  2  0  0  0  0  0  0  0  0  0
    9.3462  -16.3603   23.9374 N   0  0  0  0  0  0  0  0  0  0  0  0
   11.3711  -16.7304   25.2238 C   0  0  0  0  0  0  0  0  0  0  0  0
   12.2558  -15.8120   25.2508 O   0  0  0  0  0  0  0  0  0  0  0  0
   11.3561  -14.7236   27.3786 C   0  0  0  0  0  0  0  0  0  0  0  0
   11.1658  -15.9350   28.2890 C   0  0  1  0  0  0  0  0  0  0  0  0
    9.7857  -16.2309   28.2224 O   0  0  0  0  0  0  0  0  0  0  0  0
   11.8644  -17.1325   27.6772 C   0  0  2  0  0  0  0  0  0  0  0  0
   11.1606  -17.4231   26.4386 N   0  0  0  0  0  0  0  0  0  0  0  0
   11.7470  -18.2660   28.6361 C   0  0  0  0  0  0  0  0  0  0  0  0
   11.0547  -19.2633   28.3069 O   0  0  0  0  0  0  0  0  0  0  0  0
   12.3864  -18.2180   29.8586 O   0  0  0  0  0  0  0  0  0  0  0  0
  2  1  1  1
  3  2  1  0
  4  5  2  0
  4  3  1  0
  6  5  1  0
  7  6  2  0
  8  7  1  0
  8  9  2  0
  9  4  1  0
 10  2  1  0
 11 10  2  0
 13 12  1  0
 14 13  2  0
 15 13  1  0
 16 15  1  6
 16 17  1  0
 17 10  1  0
 18 19  2  0
 18 16  1  0
 21 20  1  6
 21 23  1  0
 22 21  1  0
 23 24  1  6
 24 18  1  0
 25 23  1  0
 26 25  2  0
 27 25  1  0
M  END
$$$$
