FNT.pdb
     RDKit          3D

 27 27  0  0  1  0  0  0  0  0999 V2000
    6.6594  -16.4941   26.9111 N   0  0  0  0  0  0  0  0  0  0  0  0
    7.1932  -16.4030   25.5742 C   0  0  1  0  0  0  0  0  0  0  0  0
    8.1260  -15.2505   25.3954 C   0  0  0  0  0  0  0  0  0  0  0  0
    7.4544  -14.0158   25.8629 C   0  0  0  0  0  0  0  0  0  0  0  0
    6.3009  -13.5428   25.2821 C   0  0  0  0  0  0  0  0  0  0  0  0
    5.7075  -12.3905   25.7464 C   0  0  0  0  0  0  0  0  0  0  0  0
    6.2417  -11.6884   26.7882 C   0  0  0  0  0  0  0  0  0  0  0  0
    7.3988  -12.1543   27.3781 C   0  0  0  0  0  0  0  0  0  0  0  0
    7.9958  -13.3139   26.9109 C   0  0  0  0  0  0  0  0  0  0  0  0
    7.7310  -17.7024   25.1612 C   0  0  0  0  0  0  0  0  0  0  0  0
    7.2192  -18.7873   25.6000 O   0  0  0  0  0  0  0  0  0  0  0  0
    8.0092  -21.0058   20.7992 N   0  0  0  0  0  0  0  0  0  0  0  0
    8.1423  -20.8598   22.2006 C   0  0  0  0  0  0  0  0  0  0  0  0
    8.4549  -21.8916   22.8619 O   0  0  0  0  0  0  0  0  0  0  0  0
    7.9326  -19.5842   22.8754 C   0  0  0  0  0  0  0  0  0  0  0  0
    9.1600  -19.1156   23.6408 C   0  0  2  0  0  0  0  0  0  0  0  0
    8.8315  -17.8509   24.2670 N   0  0  0  0  0  0  0  0  0  0  0  0
   10.3558  -19.0209   22.7840 C   0  0  0  0  0  0  0  0  0  0  0  0
   10.9632  -20.0795   22.4134 O   0  0  0  0  0  0  0  0  0  0  0  0
   11.2115  -15.1869   22.0559 C   0  0  0  0  0  0  0  0  0  0  0  0
   12.1820  -15.9130   22.9852 C   0  0  1  0  0  0  0  0  0  0  0  0
   11.5490  -15.9142   24.2485 O   0  0  0  0  0  0  0  0  0  0  0  0
   12.2675  -17.3696   22.5763 C   0  0  2  0  0  0  0  0  0  0  0  0
   10.9021  -17.8005   22.3234 N   0  0  0  0  0  0  0  0  0  0  0  0
   12.8640  -18.1263   23.7120 C   0  0  0  0  0  0  0  0  0  0  0  0
   12.1062  -18.8236   24.4344 O   0  0  0  0  0  0  0  0  0  0  0  0
   14.2199  -18.0602   23.9621 O   0  0  0  0  0  0  0  0  0  0  0  0
  2  1  1  1
  3  2  1  0
  4  5  2  0
  4  3  1  0
  6  5  1  0
  7  6  2  0
  8  7  1  0
  8  9  2  0
  9  4  1  0
 10  2  1  0
 11 10  2  0
 13 12  1  0
 14 13  2  0
 15 13  1  0
 16 15  1  6
 16 17  1  0
 17 10  1  0
 18 19  2  0
 18 16  1  0
 21 20  1  6
 21 23  1  0
 22 21  1  0
 23 24  1  1
 24 18  1  0
 25 23  1  0
 26 25  2  0
 27 25  1  0
M  END
$$$$
