FNT.pdb
     RDKit          3D

 27 27  0  0  1  0  0  0  0  0999 V2000
    7.7386  -16.0799   26.0492 N   0  0  0  0  0  0  0  0  0  0  0  0
    7.4114  -16.3507   24.6707 C   0  0  1  0  0  0  0  0  0  0  0  0
    6.6864  -15.2243   24.0107 C   0  0  0  0  0  0  0  0  0  0  0  0
    6.6430  -14.0735   24.9423 C   0  0  0  0  0  0  0  0  0  0  0  0
    5.7195  -13.9854   25.9575 C   0  0  0  0  0  0  0  0  0  0  0  0
    5.7125  -12.8983   26.8023 C   0  0  0  0  0  0  0  0  0  0  0  0
    6.6143  -11.8834   26.6589 C   0  0  0  0  0  0  0  0  0  0  0  0
    7.5453  -11.9620   25.6435 C   0  0  0  0  0  0  0  0  0  0  0  0
    7.5523  -13.0560   24.7935 C   0  0  0  0  0  0  0  0  0  0  0  0
    8.6026  -16.8205   23.9574 C   0  0  0  0  0  0  0  0  0  0  0  0
    8.5616  -17.8859   23.2541 O   0  0  0  0  0  0  0  0  0  0  0  0
   11.3117  -17.2613   21.1506 N   0  0  0  0  0  0  0  0  0  0  0  0
   11.6755  -16.1332   21.9237 C   0  0  0  0  0  0  0  0  0  0  0  0
   11.5732  -14.9987   21.3740 O   0  0  0  0  0  0  0  0  0  0  0  0
   12.1508  -16.2492   23.2974 C   0  0  0  0  0  0  0  0  0  0  0  0
   11.1076  -16.8406   24.2323 C   0  0  2  0  0  0  0  0  0  0  0  0
    9.8584  -16.1465   23.9927 N   0  0  0  0  0  0  0  0  0  0  0  0
   11.5190  -16.7785   25.6465 C   0  0  0  0  0  0  0  0  0  0  0  0
   12.6401  -17.2672   26.0089 O   0  0  0  0  0  0  0  0  0  0  0  0
   10.8895  -13.6626   28.0378 C   0  0  0  0  0  0  0  0  0  0  0  0
   10.3859  -14.9598   28.6675 C   0  0  1  0  0  0  0  0  0  0  0  0
    9.0551  -15.0960   28.2126 O   0  0  0  0  0  0  0  0  0  0  0  0
   11.1385  -16.1299   28.0670 C   0  0  2  0  0  0  0  0  0  0  0  0
   10.7371  -16.1966   26.6711 N   0  0  0  0  0  0  0  0  0  0  0  0
   10.7268  -17.3594   28.7998 C   0  0  0  0  0  0  0  0  0  0  0  0
   11.0924  -17.4981   29.9953 O   0  0  0  0  0  0  0  0  0  0  0  0
    9.9603  -18.3229   28.1756 O   0  0  0  0  0  0  0  0  0  0  0  0
  2  1  1  1
  3  2  1  0
  4  5  2  0
  4  3  1  0
  6  5  1  0
  7  6  2  0
  8  7  1  0
  8  9  2  0
  9  4  1  0
 10  2  1  0
 11 10  2  0
 13 12  1  0
 14 13  2  0
 15 13  1  0
 16 15  1  6
 16 17  1  0
 17 10  1  0
 18 19  2  0
 18 16  1  0
 21 20  1  6
 21 23  1  0
 22 21  1  0
 23 24  1  6
 24 18  1  0
 25 23  1  0
 26 25  2  0
 27 25  1  0
M  END
$$$$
