FSY.pdb
     RDKit          3D

 30 31  0  0  1  0  0  0  0  0999 V2000
    7.6480  -15.7902   20.0670 N   0  0  0  0  0  0  0  0  0  0  0  0
    8.1385  -15.2673   21.3283 C   0  0  1  0  0  0  0  0  0  0  0  0
    6.9743  -14.5607   21.9718 C   0  0  0  0  0  0  0  0  0  0  0  0
    7.2855  -13.8673   23.2218 C   0  0  0  0  0  0  0  0  0  0  0  0
    7.9157  -12.6531   23.3057 C   0  0  0  0  0  0  0  0  0  0  0  0
    8.1681  -12.0636   24.5231 C   0  0  0  0  0  0  0  0  0  0  0  0
    7.7965  -12.6726   25.7032 C   0  0  0  0  0  0  0  0  0  0  0  0
    7.1635  -13.8909   25.6343 C   0  0  0  0  0  0  0  0  0  0  0  0
    6.9166  -14.4702   24.4109 C   0  0  0  0  0  0  0  0  0  0  0  0
    8.6918  -16.3556   22.1677 C   0  0  0  0  0  0  0  0  0  0  0  0
    7.9344  -17.3575   22.3856 O   0  0  0  0  0  0  0  0  0  0  0  0
   12.5595  -16.7860   22.1865 O   0  0  0  0  0  0  0  0  0  0  0  0
   11.7289  -17.8898   22.4561 C   0  0  0  0  0  0  0  0  0  0  0  0
   10.6169  -17.4052   23.3483 C   0  0  2  0  0  0  0  0  0  0  0  0
    9.9928  -16.2724   22.6920 N   0  0  0  0  0  0  0  0  0  0  0  0
   11.0682  -17.0782   24.7142 C   0  0  0  0  0  0  0  0  0  0  0  0
   11.7236  -16.0162   24.8753 O   0  0  0  0  0  0  0  0  0  0  0  0
    8.4296  -12.0519   27.6659 O   0  0  0  0  0  0  0  0  0  0  0  0
    8.8668  -13.3702   27.7662 C   0  0  0  0  0  0  0  0  0  0  0  0
    8.1729  -14.4257   27.2411 C   0  0  0  0  0  0  0  0  0  0  0  0
    8.6637  -15.6975   27.3779 C   0  0  0  0  0  0  0  0  0  0  0  0
    9.8537  -15.9755   28.0359 C   0  0  0  0  0  0  0  0  0  0  0  0
   10.4074  -17.3333   28.2006 C   0  0  0  0  0  0  0  0  0  0  0  0
   11.4358  -17.6126   27.1706 C   0  0  2  0  0  0  0  0  0  0  0  0
   10.8207  -17.8663   25.8556 N   0  0  0  0  0  0  0  0  0  0  0  0
   12.3478  -18.6805   27.5453 C   0  0  0  0  0  0  0  0  0  0  0  0
   12.3752  -19.7485   26.8376 O   0  0  0  0  0  0  0  0  0  0  0  0
   10.5304  -14.8670   28.5572 C   0  0  0  0  0  0  0  0  0  0  0  0
   10.0502  -13.5866   28.4274 C   0  0  0  0  0  0  0  0  0  0  0  0
   13.1964  -18.6074   28.6296 O   0  0  0  0  0  0  0  0  0  0  0  0
  2  1  1  6
  2  3  1  0
  3  4  1  0
  4  9  1  0
  4  5  2  0
  5  6  1  0
  6  7  2  0
  8  7  1  0
  9  8  2  0
 10 11  2  0
 10  2  1  0
 13 12  1  0
 14 13  1  6
 14 15  1  0
 15 10  1  0
 16 17  2  0
 16 14  1  0
 18 19  1  0
 19 29  2  0
 19 20  1  0
 20 21  2  0
 21 22  1  0
 22 23  1  0
 24 23  1  1
 24 25  1  0
 24 26  1  0
 25 16  1  0
 26 30  1  0
 27 26  2  0
 28 22  2  0
 29 28  1  0
M  END
$$$$
