FSY.pdb
     RDKit          3D

 30 31  0  0  1  0  0  0  0  0999 V2000
    7.4740  -17.6081   20.8580 N   0  0  0  0  0  0  0  0  0  0  0  0
    8.1819  -16.6866   21.7267 C   0  0  1  0  0  0  0  0  0  0  0  0
    7.1687  -15.6637   22.1696 C   0  0  0  0  0  0  0  0  0  0  0  0
    7.3417  -14.3309   21.5917 C   0  0  0  0  0  0  0  0  0  0  0  0
    8.1174  -13.3393   22.1333 C   0  0  0  0  0  0  0  0  0  0  0  0
    8.2323  -12.1109   21.5239 C   0  0  0  0  0  0  0  0  0  0  0  0
    7.5713  -11.8327   20.3460 C   0  0  0  0  0  0  0  0  0  0  0  0
    6.7896  -12.8180   19.7912 C   0  0  0  0  0  0  0  0  0  0  0  0
    6.6828  -14.0422   20.4102 C   0  0  0  0  0  0  0  0  0  0  0  0
    8.8089  -17.4089   22.8582 C   0  0  0  0  0  0  0  0  0  0  0  0
    8.5704  -18.6579   22.9480 O   0  0  0  0  0  0  0  0  0  0  0  0
   12.1002  -17.6695   23.2044 O   0  0  0  0  0  0  0  0  0  0  0  0
   11.2856  -18.4218   24.0712 C   0  0  0  0  0  0  0  0  0  0  0  0
   10.3820  -17.4538   24.7881 C   0  0  2  0  0  0  0  0  0  0  0  0
    9.6260  -16.7343   23.7810 N   0  0  0  0  0  0  0  0  0  0  0  0
   11.1074  -16.5444   25.6953 C   0  0  0  0  0  0  0  0  0  0  0  0
   12.3525  -16.6932   25.8003 O   0  0  0  0  0  0  0  0  0  0  0  0
    6.3034  -11.8236   25.0047 O   0  0  0  0  0  0  0  0  0  0  0  0
    6.9899  -12.6762   25.8655 C   0  0  0  0  0  0  0  0  0  0  0  0
    6.5080  -13.9006   26.2398 C   0  0  0  0  0  0  0  0  0  0  0  0
    7.2384  -14.6874   27.0910 C   0  0  0  0  0  0  0  0  0  0  0  0
    8.4678  -14.2975   27.6037 C   0  0  0  0  0  0  0  0  0  0  0  0
    9.2770  -15.1211   28.5226 C   0  0  0  0  0  0  0  0  0  0  0  0
   10.5954  -15.4387   27.9246 C   0  0  2  0  0  0  0  0  0  0  0  0
   10.5111  -15.5189   26.4555 N   0  0  0  0  0  0  0  0  0  0  0  0
   11.2084  -16.6304   28.4874 C   0  0  0  0  0  0  0  0  0  0  0  0
   12.3747  -16.5388   29.0106 O   0  0  0  0  0  0  0  0  0  0  0  0
    8.9225  -13.0387   27.1949 C   0  0  0  0  0  0  0  0  0  0  0  0
    8.2008  -12.2394   26.3421 C   0  0  0  0  0  0  0  0  0  0  0  0
   10.5981  -17.8667   28.4926 O   0  0  0  0  0  0  0  0  0  0  0  0
  2  1  1  6
  2  3  1  0
  3  4  1  0
  4  9  1  0
  4  5  2  0
  5  6  1  0
  6  7  2  0
  8  7  1  0
  9  8  2  0
 10 11  2  0
 10  2  1  0
 13 12  1  0
 14 13  1  6
 14 15  1  0
 15 10  1  0
 16 17  2  0
 16 14  1  0
 18 19  1  0
 19 29  2  0
 19 20  1  0
 20 21  2  0
 21 22  1  0
 22 23  1  0
 24 23  1  1
 24 25  1  0
 24 26  1  0
 25 16  1  0
 26 30  1  0
 27 26  2  0
 28 22  2  0
 29 28  1  0
M  END
$$$$
