FSY.pdb
     RDKit          3D

 30 31  0  0  1  0  0  0  0  0999 V2000
    6.6859  -19.5334   26.8822 N   0  0  0  0  0  0  0  0  0  0  0  0
    6.8474  -18.2490   26.2270 C   0  0  1  0  0  0  0  0  0  0  0  0
    7.7138  -17.4186   27.1374 C   0  0  0  0  0  0  0  0  0  0  0  0
    7.8282  -16.0082   26.7658 C   0  0  0  0  0  0  0  0  0  0  0  0
    8.9764  -15.4090   26.3176 C   0  0  0  0  0  0  0  0  0  0  0  0
    9.0003  -14.0746   25.9828 C   0  0  0  0  0  0  0  0  0  0  0  0
    7.8701  -13.2913   26.0860 C   0  0  0  0  0  0  0  0  0  0  0  0
    6.7110  -13.8790   26.5342 C   0  0  0  0  0  0  0  0  0  0  0  0
    6.6998  -15.2143   26.8659 C   0  0  0  0  0  0  0  0  0  0  0  0
    7.4253  -18.4195   24.8735 C   0  0  0  0  0  0  0  0  0  0  0  0
    8.4877  -19.1182   24.7840 O   0  0  0  0  0  0  0  0  0  0  0  0
    5.5372  -16.6307   21.8977 O   0  0  0  0  0  0  0  0  0  0  0  0
    6.2320  -17.7661   21.4403 C   0  0  0  0  0  0  0  0  0  0  0  0
    7.3489  -18.0296   22.4151 C   0  0  2  0  0  0  0  0  0  0  0  0
    6.8187  -17.8319   23.7505 N   0  0  0  0  0  0  0  0  0  0  0  0
    8.5465  -17.2056   22.1637 C   0  0  0  0  0  0  0  0  0  0  0  0
    9.1796  -17.4045   21.0946 O   0  0  0  0  0  0  0  0  0  0  0  0
    6.9699  -13.8122   17.6125 O   0  0  0  0  0  0  0  0  0  0  0  0
    7.6518  -13.8361   18.8265 C   0  0  0  0  0  0  0  0  0  0  0  0
    7.1276  -13.3292   19.9838 C   0  0  0  0  0  0  0  0  0  0  0  0
    7.8562  -13.3870   21.1427 C   0  0  0  0  0  0  0  0  0  0  0  0
    9.1254  -13.9451   21.2036 C   0  0  0  0  0  0  0  0  0  0  0  0
    9.9348  -14.0210   22.4350 C   0  0  0  0  0  0  0  0  0  0  0  0
   10.2584  -15.4285   22.7682 C   0  0  2  0  0  0  0  0  0  0  0  0
    9.0371  -16.2101   23.0317 N   0  0  0  0  0  0  0  0  0  0  0  0
   11.2151  -15.5553   23.8550 C   0  0  0  0  0  0  0  0  0  0  0  0
   12.3595  -14.9896   23.7420 O   0  0  0  0  0  0  0  0  0  0  0  0
    9.6227  -14.4513   19.9974 C   0  0  0  0  0  0  0  0  0  0  0  0
    8.9034  -14.4001   18.8282 C   0  0  0  0  0  0  0  0  0  0  0  0
   10.9571  -16.2553   25.0146 O   0  0  0  0  0  0  0  0  0  0  0  0
  2  1  1  1
  2  3  1  0
  3  4  1  0
  4  9  1  0
  4  5  2  0
  5  6  1  0
  6  7  2  0
  8  7  1  0
  9  8  2  0
 10 11  2  0
 10  2  1  0
 13 12  1  0
 14 13  1  6
 14 15  1  0
 15 10  1  0
 16 17  2  0
 16 14  1  0
 18 19  1  0
 19 29  2  0
 19 20  1  0
 20 21  2  0
 21 22  1  0
 22 23  1  0
 24 23  1  1
 24 25  1  0
 24 26  1  0
 25 16  1  0
 26 30  1  0
 27 26  2  0
 28 22  2  0
 29 28  1  0
M  END
$$$$
