FSY.pdb
     RDKit          3D

 30 31  0  0  1  0  0  0  0  0999 V2000
    5.9941  -17.4613   24.8673 N   0  0  0  0  0  0  0  0  0  0  0  0
    6.7250  -16.2887   24.4250 C   0  0  1  0  0  0  0  0  0  0  0  0
    7.2727  -15.6403   25.6695 C   0  0  0  0  0  0  0  0  0  0  0  0
    6.9739  -14.2148   25.8072 C   0  0  0  0  0  0  0  0  0  0  0  0
    5.8140  -13.7069   26.3315 C   0  0  0  0  0  0  0  0  0  0  0  0
    5.6112  -12.3496   26.4316 C   0  0  0  0  0  0  0  0  0  0  0  0
    6.5675  -11.4508   26.0081 C   0  0  0  0  0  0  0  0  0  0  0  0
    7.7360  -11.9460   25.4800 C   0  0  0  0  0  0  0  0  0  0  0  0
    7.9269  -13.3053   25.3853 C   0  0  0  0  0  0  0  0  0  0  0  0
    7.7800  -16.6632   23.4544 C   0  0  0  0  0  0  0  0  0  0  0  0
    8.3606  -17.7832   23.6376 O   0  0  0  0  0  0  0  0  0  0  0  0
    8.6797  -14.1366   20.3527 O   0  0  0  0  0  0  0  0  0  0  0  0
    8.7980  -15.5199   20.1216 C   0  0  0  0  0  0  0  0  0  0  0  0
    9.1506  -16.1642   21.4361 C   0  0  2  0  0  0  0  0  0  0  0  0
    8.1134  -15.8126   22.3869 N   0  0  0  0  0  0  0  0  0  0  0  0
   10.4960  -15.8001   21.9196 C   0  0  0  0  0  0  0  0  0  0  0  0
   10.9786  -14.7032   21.5358 O   0  0  0  0  0  0  0  0  0  0  0  0
   10.9814  -14.6049   30.3445 O   0  0  0  0  0  0  0  0  0  0  0  0
   10.8606  -14.9340   28.9968 C   0  0  0  0  0  0  0  0  0  0  0  0
   11.9400  -15.1424   28.1828 C   0  0  0  0  0  0  0  0  0  0  0  0
   11.7458  -15.4636   26.8651 C   0  0  0  0  0  0  0  0  0  0  0  0
   10.4835  -15.5907   26.3023 C   0  0  0  0  0  0  0  0  0  0  0  0
   10.2419  -15.9339   24.8876 C   0  0  0  0  0  0  0  0  0  0  0  0
   11.5124  -16.2669   24.2008 C   0  0  2  0  0  0  0  0  0  0  0  0
   11.2842  -16.5889   22.7808 N   0  0  0  0  0  0  0  0  0  0  0  0
   12.2680  -17.3139   24.8682 C   0  0  0  0  0  0  0  0  0  0  0  0
   13.4048  -17.0244   25.3841 O   0  0  0  0  0  0  0  0  0  0  0  0
    9.4085  -15.3691   27.1704 C   0  0  0  0  0  0  0  0  0  0  0  0
    9.5884  -15.0466   28.4935 C   0  0  0  0  0  0  0  0  0  0  0  0
   11.8247  -18.6145   24.9811 O   0  0  0  0  0  0  0  0  0  0  0  0
  2  1  1  1
  2  3  1  0
  3  4  1  0
  4  9  1  0
  4  5  2  0
  5  6  1  0
  6  7  2  0
  8  7  1  0
  9  8  2  0
 10 11  2  0
 10  2  1  0
 13 12  1  0
 14 13  1  6
 14 15  1  0
 15 10  1  0
 16 17  2  0
 16 14  1  0
 18 19  1  0
 19 29  2  0
 19 20  1  0
 20 21  2  0
 21 22  1  0
 22 23  1  0
 24 23  1  1
 24 25  1  0
 24 26  1  0
 25 16  1  0
 26 30  1  0
 27 26  2  0
 28 22  2  0
 29 28  1  0
M  END
$$$$
