FSY.pdb
     RDKit          3D

 30 31  0  0  1  0  0  0  0  0999 V2000
    6.5472  -17.9275   20.0581 N   0  0  0  0  0  0  0  0  0  0  0  0
    7.3588  -16.9120   20.7022 C   0  0  1  0  0  0  0  0  0  0  0  0
    6.5874  -15.6231   20.5892 C   0  0  0  0  0  0  0  0  0  0  0  0
    7.2974  -14.4338   21.0603 C   0  0  0  0  0  0  0  0  0  0  0  0
    8.1188  -13.6565   20.2861 C   0  0  0  0  0  0  0  0  0  0  0  0
    8.7477  -12.5478   20.8044 C   0  0  0  0  0  0  0  0  0  0  0  0
    8.5747  -12.1782   22.1216 C   0  0  0  0  0  0  0  0  0  0  0  0
    7.7534  -12.9487   22.9101 C   0  0  0  0  0  0  0  0  0  0  0  0
    7.1301  -14.0549   22.3801 C   0  0  0  0  0  0  0  0  0  0  0  0
    7.6557  -17.2888   22.1040 C   0  0  0  0  0  0  0  0  0  0  0  0
    6.7548  -17.9383   22.7296 O   0  0  0  0  0  0  0  0  0  0  0  0
   11.1385  -18.4568   22.9561 O   0  0  0  0  0  0  0  0  0  0  0  0
   10.0075  -18.7682   23.7338 C   0  0  0  0  0  0  0  0  0  0  0  0
    9.2718  -17.4794   23.9890 C   0  0  2  0  0  0  0  0  0  0  0  0
    8.8782  -16.9391   22.7019 N   0  0  0  0  0  0  0  0  0  0  0  0
   10.0521  -16.5122   24.7840 C   0  0  0  0  0  0  0  0  0  0  0  0
   10.9642  -15.8738   24.1976 O   0  0  0  0  0  0  0  0  0  0  0  0
    5.2708  -12.6423   25.5057 O   0  0  0  0  0  0  0  0  0  0  0  0
    6.4756  -13.1110   26.0233 C   0  0  0  0  0  0  0  0  0  0  0  0
    7.4894  -13.5837   25.2359 C   0  0  0  0  0  0  0  0  0  0  0  0
    8.6484  -14.0295   25.8147 C   0  0  0  0  0  0  0  0  0  0  0  0
    8.8507  -14.0260   27.1877 C   0  0  0  0  0  0  0  0  0  0  0  0
   10.0860  -14.5002   27.8407 C   0  0  0  0  0  0  0  0  0  0  0  0
   10.7977  -15.4744   26.9798 C   0  0  2  0  0  0  0  0  0  0  0  0
    9.8536  -16.2477   26.1535 N   0  0  0  0  0  0  0  0  0  0  0  0
   11.6936  -16.3471   27.7203 C   0  0  0  0  0  0  0  0  0  0  0  0
   12.6165  -15.8221   28.4380 O   0  0  0  0  0  0  0  0  0  0  0  0
    7.7884  -13.5345   27.9548 C   0  0  0  0  0  0  0  0  0  0  0  0
    6.6209  -13.0844   27.3881 C   0  0  0  0  0  0  0  0  0  0  0  0
   11.6039  -17.7227   27.6962 O   0  0  0  0  0  0  0  0  0  0  0  0
  2  1  1  1
  2  3  1  0
  3  4  1  0
  4  9  1  0
  4  5  2  0
  5  6  1  0
  6  7  2  0
  8  7  1  0
  9  8  2  0
 10 11  2  0
 10  2  1  0
 13 12  1  0
 14 13  1  6
 14 15  1  0
 15 10  1  0
 16 17  2  0
 16 14  1  0
 18 19  1  0
 19 29  2  0
 19 20  1  0
 20 21  2  0
 21 22  1  0
 22 23  1  0
 24 23  1  1
 24 25  1  0
 24 26  1  0
 25 16  1  0
 26 30  1  0
 27 26  2  0
 28 22  2  0
 29 28  1  0
M  END
$$$$
