FSY.pdb
     RDKit          3D

 30 31  0  0  1  0  0  0  0  0999 V2000
    6.4097  -17.5735   20.0853 N   0  0  0  0  0  0  0  0  0  0  0  0
    7.6721  -16.9166   20.3674 C   0  0  1  0  0  0  0  0  0  0  0  0
    7.3267  -15.6090   21.0308 C   0  0  0  0  0  0  0  0  0  0  0  0
    7.5500  -14.4199   20.2083 C   0  0  0  0  0  0  0  0  0  0  0  0
    8.7646  -13.8110   20.0289 C   0  0  0  0  0  0  0  0  0  0  0  0
    8.8924  -12.6958   19.2330 C   0  0  0  0  0  0  0  0  0  0  0  0
    7.8032  -12.1501   18.5868 C   0  0  0  0  0  0  0  0  0  0  0  0
    6.5785  -12.7505   18.7576 C   0  0  0  0  0  0  0  0  0  0  0  0
    6.4636  -13.8652   19.5560 C   0  0  0  0  0  0  0  0  0  0  0  0
    8.5374  -17.7803   21.2043 C   0  0  0  0  0  0  0  0  0  0  0  0
    7.9959  -18.3271   22.2205 O   0  0  0  0  0  0  0  0  0  0  0  0
   12.6739  -17.4618   20.8226 O   0  0  0  0  0  0  0  0  0  0  0  0
   12.1396  -18.7244   21.1411 C   0  0  0  0  0  0  0  0  0  0  0  0
   10.8341  -18.4905   21.8541 C   0  0  2  0  0  0  0  0  0  0  0  0
    9.8902  -17.9774   20.8797 N   0  0  0  0  0  0  0  0  0  0  0  0
   10.9625  -17.6034   23.0258 C   0  0  0  0  0  0  0  0  0  0  0  0
   11.0210  -16.3638   22.8175 O   0  0  0  0  0  0  0  0  0  0  0  0
   10.5857  -13.9205   30.9580 O   0  0  0  0  0  0  0  0  0  0  0  0
   10.4231  -14.7150   29.8259 C   0  0  0  0  0  0  0  0  0  0  0  0
   10.5512  -16.0767   29.8486 C   0  0  0  0  0  0  0  0  0  0  0  0
   10.3773  -16.7952   28.6951 C   0  0  0  0  0  0  0  0  0  0  0  0
   10.0715  -16.1996   27.4794 C   0  0  0  0  0  0  0  0  0  0  0  0
    9.8796  -16.9454   26.2207 C   0  0  0  0  0  0  0  0  0  0  0  0
   11.1690  -17.1269   25.5127 C   0  0  2  0  0  0  0  0  0  0  0  0
   11.0247  -18.0391   24.3642 N   0  0  0  0  0  0  0  0  0  0  0  0
   12.2510  -17.5433   26.3893 C   0  0  0  0  0  0  0  0  0  0  0  0
   12.8990  -16.6500   27.0407 O   0  0  0  0  0  0  0  0  0  0  0  0
    9.9498  -14.8057   27.5018 C   0  0  0  0  0  0  0  0  0  0  0  0
   10.1214  -14.0727   28.6508 C   0  0  0  0  0  0  0  0  0  0  0  0
   12.6218  -18.8598   26.5635 O   0  0  0  0  0  0  0  0  0  0  0  0
  2  1  1  1
  2  3  1  0
  3  4  1  0
  4  9  1  0
  4  5  2  0
  5  6  1  0
  6  7  2  0
  8  7  1  0
  9  8  2  0
 10 11  2  0
 10  2  1  0
 13 12  1  0
 14 13  1  6
 14 15  1  0
 15 10  1  0
 16 17  2  0
 16 14  1  0
 18 19  1  0
 19 29  2  0
 19 20  1  0
 20 21  2  0
 21 22  1  0
 22 23  1  0
 24 23  1  1
 24 25  1  0
 24 26  1  0
 25 16  1  0
 26 30  1  0
 27 26  2  0
 28 22  2  0
 29 28  1  0
M  END
$$$$
