FSY.pdb
     RDKit          3D

 30 31  0  0  1  0  0  0  0  0999 V2000
    7.3665  -16.8657   21.3264 N   0  0  0  0  0  0  0  0  0  0  0  0
    8.4742  -16.1638   21.9470 C   0  0  1  0  0  0  0  0  0  0  0  0
    7.9274  -14.8375   22.4062 C   0  0  0  0  0  0  0  0  0  0  0  0
    7.7623  -13.8375   21.3512 C   0  0  0  0  0  0  0  0  0  0  0  0
    8.7369  -12.9649   20.9425 C   0  0  0  0  0  0  0  0  0  0  0  0
    8.5033  -12.0552   19.9368 C   0  0  0  0  0  0  0  0  0  0  0  0
    7.2802  -11.9882   19.3035 C   0  0  0  0  0  0  0  0  0  0  0  0
    6.2931  -12.8575   19.7031 C   0  0  0  0  0  0  0  0  0  0  0  0
    6.5390  -13.7625   20.7098 C   0  0  0  0  0  0  0  0  0  0  0  0
    9.0514  -16.9662   23.0507 C   0  0  0  0  0  0  0  0  0  0  0  0
    8.2334  -17.6234   23.7746 O   0  0  0  0  0  0  0  0  0  0  0  0
   13.1246  -17.0574   23.6335 O   0  0  0  0  0  0  0  0  0  0  0  0
   12.3570  -18.1389   24.1048 C   0  0  0  0  0  0  0  0  0  0  0  0
   10.9990  -17.5988   24.4676 C   0  0  2  0  0  0  0  0  0  0  0  0
   10.4380  -16.9913   23.2761 N   0  0  0  0  0  0  0  0  0  0  0  0
   11.0313  -16.6628   25.6075 C   0  0  0  0  0  0  0  0  0  0  0  0
   10.8090  -15.4468   25.3725 O   0  0  0  0  0  0  0  0  0  0  0  0
    6.7996  -11.8067   25.9057 O   0  0  0  0  0  0  0  0  0  0  0  0
    7.4093  -12.9411   26.4353 C   0  0  0  0  0  0  0  0  0  0  0  0
    8.4929  -12.8825   27.2681 C   0  0  0  0  0  0  0  0  0  0  0  0
    9.0418  -14.0408   27.7520 C   0  0  0  0  0  0  0  0  0  0  0  0
    8.5442  -15.2967   27.4338 C   0  0  0  0  0  0  0  0  0  0  0  0
    9.1135  -16.5615   27.9374 C   0  0  0  0  0  0  0  0  0  0  0  0
   10.5827  -16.4516   28.0992 C   0  0  2  0  0  0  0  0  0  0  0  0
   11.2926  -17.0274   26.9431 N   0  0  0  0  0  0  0  0  0  0  0  0
   11.0653  -17.0105   29.3511 C   0  0  0  0  0  0  0  0  0  0  0  0
   11.1504  -18.2838   29.4690 O   0  0  0  0  0  0  0  0  0  0  0  0
    7.4358  -15.3101   26.5795 C   0  0  0  0  0  0  0  0  0  0  0  0
    6.8753  -14.1568   26.0869 C   0  0  0  0  0  0  0  0  0  0  0  0
   11.4434  -16.2396   30.4299 O   0  0  0  0  0  0  0  0  0  0  0  0
  2  1  1  1
  2  3  1  0
  3  4  1  0
  4  9  1  0
  4  5  2  0
  5  6  1  0
  6  7  2  0
  8  7  1  0
  9  8  2  0
 10 11  2  0
 10  2  1  0
 13 12  1  0
 14 13  1  6
 14 15  1  0
 15 10  1  0
 16 17  2  0
 16 14  1  0
 18 19  1  0
 19 29  2  0
 19 20  1  0
 20 21  2  0
 21 22  1  0
 22 23  1  0
 24 23  1  6
 24 25  1  0
 24 26  1  0
 25 16  1  0
 26 30  1  0
 27 26  2  0
 28 22  2  0
 29 28  1  0
M  END
$$$$
