FSY.pdb
     RDKit          3D

 30 31  0  0  1  0  0  0  0  0999 V2000
    6.0843  -17.6196   25.2130 N   0  0  0  0  0  0  0  0  0  0  0  0
    6.7696  -16.4546   24.6856 C   0  0  1  0  0  0  0  0  0  0  0  0
    7.2746  -15.6875   25.8796 C   0  0  0  0  0  0  0  0  0  0  0  0
    7.1910  -14.2318   25.7603 C   0  0  0  0  0  0  0  0  0  0  0  0
    8.1327  -13.4423   25.1535 C   0  0  0  0  0  0  0  0  0  0  0  0
    7.9772  -12.0772   25.0780 C   0  0  0  0  0  0  0  0  0  0  0  0
    6.8683  -11.4535   25.6099 C   0  0  0  0  0  0  0  0  0  0  0  0
    5.9154  -12.2329   26.2215 C   0  0  0  0  0  0  0  0  0  0  0  0
    6.0823  -13.5969   26.2907 C   0  0  0  0  0  0  0  0  0  0  0  0
    7.8507  -16.8579   23.7563 C   0  0  0  0  0  0  0  0  0  0  0  0
    8.4753  -17.9346   24.0310 O   0  0  0  0  0  0  0  0  0  0  0  0
    7.9655  -15.0743   20.2632 O   0  0  0  0  0  0  0  0  0  0  0  0
    8.6154  -16.3222   20.3006 C   0  0  0  0  0  0  0  0  0  0  0  0
    9.1833  -16.4890   21.6852 C   0  0  2  0  0  0  0  0  0  0  0  0
    8.1611  -16.0790   22.6288 N   0  0  0  0  0  0  0  0  0  0  0  0
   10.4505  -15.7606   21.8855 C   0  0  0  0  0  0  0  0  0  0  0  0
   10.5458  -14.6063   21.3938 O   0  0  0  0  0  0  0  0  0  0  0  0
   10.6703  -15.5375   30.3174 O   0  0  0  0  0  0  0  0  0  0  0  0
   10.7059  -15.5350   28.9253 C   0  0  0  0  0  0  0  0  0  0  0  0
   11.6639  -16.1943   28.2050 C   0  0  0  0  0  0  0  0  0  0  0  0
   11.6369  -16.1482   26.8359 C   0  0  0  0  0  0  0  0  0  0  0  0
   10.6671  -15.4523   26.1279 C   0  0  0  0  0  0  0  0  0  0  0  0
   10.6119  -15.3828   24.6550 C   0  0  0  0  0  0  0  0  0  0  0  0
   11.7255  -16.1499   24.0482 C   0  0  2  0  0  0  0  0  0  0  0  0
   11.5655  -16.2600   22.5873 N   0  0  0  0  0  0  0  0  0  0  0  0
   11.9252  -17.4529   24.6605 C   0  0  0  0  0  0  0  0  0  0  0  0
   12.6921  -17.5458   25.6830 O   0  0  0  0  0  0  0  0  0  0  0  0
    9.7073  -14.7929   26.9040 C   0  0  0  0  0  0  0  0  0  0  0  0
    9.7221  -14.8305   28.2771 C   0  0  0  0  0  0  0  0  0  0  0  0
   11.3272  -18.6067   24.2000 O   0  0  0  0  0  0  0  0  0  0  0  0
  2  1  1  1
  2  3  1  0
  3  4  1  0
  4  9  1  0
  4  5  2  0
  5  6  1  0
  6  7  2  0
  8  7  1  0
  9  8  2  0
 10 11  2  0
 10  2  1  0
 13 12  1  0
 14 13  1  6
 14 15  1  0
 15 10  1  0
 16 17  2  0
 16 14  1  0
 18 19  1  0
 19 29  2  0
 19 20  1  0
 20 21  2  0
 21 22  1  0
 22 23  1  0
 24 23  1  1
 24 25  1  0
 24 26  1  0
 25 16  1  0
 26 30  1  0
 27 26  2  0
 28 22  2  0
 29 28  1  0
M  END
$$$$
