SWL.pdb
     RDKit          3D

 29 30  0  0  1  0  0  0  0  0999 V2000
    8.9524  -17.4267   19.9853 O   0  0  0  0  0  0  0  0  0  0  0  0
    7.5908  -17.4676   20.2779 C   0  0  0  0  0  0  0  0  0  0  0  0
    7.2037  -16.1322   20.8354 C   0  0  2  0  0  0  0  0  0  0  0  0
    7.0801  -15.1607   19.7942 N   0  0  0  0  0  0  0  0  0  0  0  0
    8.1563  -15.6654   21.8877 C   0  0  0  0  0  0  0  0  0  0  0  0
    8.9466  -14.6945   21.6707 O   0  0  0  0  0  0  0  0  0  0  0  0
    8.2244  -16.2738   23.1604 N   0  0  0  0  0  0  0  0  0  0  0  0
    9.2178  -15.8448   24.1077 C   0  0  1  0  0  0  0  0  0  0  0  0
    8.6681  -15.8425   25.4998 C   0  0  0  0  0  0  0  0  0  0  0  0
    7.5061  -14.9919   25.7333 C   0  0  0  0  0  0  0  0  0  0  0  0
    6.1619  -15.3781   25.7403 C   0  0  0  0  0  0  0  0  0  0  0  0
    5.3892  -14.3295   26.0203 N   0  0  0  0  0  0  0  0  0  0  0  0
    6.1857  -13.2693   26.1959 C   0  0  0  0  0  0  0  0  0  0  0  0
    5.8688  -11.9655   26.4920 C   0  0  0  0  0  0  0  0  0  0  0  0
    6.8481  -10.9882   26.6278 C   0  0  0  0  0  0  0  0  0  0  0  0
    8.1712  -11.3405   26.4600 C   0  0  0  0  0  0  0  0  0  0  0  0
    8.4573  -12.6658   26.1617 C   0  0  0  0  0  0  0  0  0  0  0  0
    7.5065  -13.6510   26.0232 C   0  0  0  0  0  0  0  0  0  0  0  0
   10.3414  -16.8142   24.0788 C   0  0  0  0  0  0  0  0  0  0  0  0
   10.0875  -18.0293   23.9198 O   0  0  0  0  0  0  0  0  0  0  0  0
   14.1859  -16.3233   20.9214 C   0  0  0  0  0  0  0  0  0  0  0  0
   13.5880  -16.0960   22.2529 C   0  0  2  0  0  0  0  0  0  0  0  0
   14.0035  -14.6587   22.6808 C   0  0  0  0  0  0  0  0  0  0  0  0
   13.8677  -16.9930   23.3713 C   0  0  0  0  0  0  0  0  0  0  0  0
   12.7573  -17.4824   24.1929 C   0  0  2  0  0  0  0  0  0  0  0  0
   11.6942  -16.4291   24.2229 N   0  0  0  0  0  0  0  0  0  0  0  0
   13.0492  -17.7985   25.5725 C   0  0  0  0  0  0  0  0  0  0  0  0
   12.4026  -17.0797   26.6042 O   0  0  0  0  0  0  0  0  0  0  0  0
   13.8413  -18.6707   25.9753 O   0  0  0  0  0  0  0  0  0  0  0  0
  1  2  1  0
  2  3  1  0
  3  4  1  6
  3  5  1  0
  5  6  2  0
  5  7  1  0
  7  8  1  0
  8 19  1  0
  8  9  1  1
 10  9  1  0
 10 11  2  0
 12 11  1  0
 13 12  1  0
 14 13  2  0
 15 14  1  0
 16 15  2  0
 16 17  1  0
 17 18  2  0
 18 13  1  0
 18 10  1  0
 19 20  2  0
 22 21  1  6
 22 24  1  0
 23 22  1  0
 25 24  1  1
 26 25  1  0
 26 19  1  0
 27 28  1  0
 27 25  1  0
 29 27  2  0
M  END
$$$$
