SWL.pdb
     RDKit          3D

 29 30  0  0  1  0  0  0  0  0999 V2000
   13.0693  -18.0770   21.6453 O   0  0  0  0  0  0  0  0  0  0  0  0
   12.0666  -18.3003   20.7041 C   0  0  0  0  0  0  0  0  0  0  0  0
   11.6236  -16.9671   20.1844 C   0  0  2  0  0  0  0  0  0  0  0  0
   12.7206  -16.2527   19.6105 N   0  0  0  0  0  0  0  0  0  0  0  0
   10.9495  -16.1494   21.2379 C   0  0  0  0  0  0  0  0  0  0  0  0
   11.4697  -15.0702   21.6612 O   0  0  0  0  0  0  0  0  0  0  0  0
    9.7156  -16.5318   21.8086 N   0  0  0  0  0  0  0  0  0  0  0  0
    9.1501  -15.7561   22.8794 C   0  0  1  0  0  0  0  0  0  0  0  0
    7.6574  -15.8650   22.8925 C   0  0  0  0  0  0  0  0  0  0  0  0
    6.9768  -15.2672   24.0361 C   0  0  0  0  0  0  0  0  0  0  0  0
    6.2114  -15.9247   25.0044 C   0  0  0  0  0  0  0  0  0  0  0  0
    5.7757  -15.0502   25.9103 N   0  0  0  0  0  0  0  0  0  0  0  0
    6.2314  -13.8412   25.5644 C   0  0  0  0  0  0  0  0  0  0  0  0
    6.0491  -12.6216   26.1706 C   0  0  0  0  0  0  0  0  0  0  0  0
    6.6013  -11.4570   25.6498 C   0  0  0  0  0  0  0  0  0  0  0  0
    7.3509  -11.5317   24.4942 C   0  0  0  0  0  0  0  0  0  0  0  0
    7.5159  -12.7788   23.9070 C   0  0  0  0  0  0  0  0  0  0  0  0
    6.9806  -13.9454   24.4034 C   0  0  0  0  0  0  0  0  0  0  0  0
    9.6437  -16.3058   24.1668 C   0  0  0  0  0  0  0  0  0  0  0  0
   10.2924  -17.3760   24.1580 O   0  0  0  0  0  0  0  0  0  0  0  0
   10.3793  -14.3815   30.0721 C   0  0  0  0  0  0  0  0  0  0  0  0
   10.8182  -15.1320   28.8780 C   0  0  2  0  0  0  0  0  0  0  0  0
   12.3166  -14.7724   28.6601 C   0  0  0  0  0  0  0  0  0  0  0  0
   10.1329  -14.9837   27.5965 C   0  0  0  0  0  0  0  0  0  0  0  0
   10.2921  -16.0214   26.5740 C   0  0  2  0  0  0  0  0  0  0  0  0
    9.4155  -15.6748   25.4113 N   0  0  0  0  0  0  0  0  0  0  0  0
    9.9461  -17.3734   26.9495 C   0  0  0  0  0  0  0  0  0  0  0  0
    8.5916  -17.7782   26.9267 O   0  0  0  0  0  0  0  0  0  0  0  0
   10.7402  -18.2631   27.3074 O   0  0  0  0  0  0  0  0  0  0  0  0
  1  2  1  0
  2  3  1  0
  3  4  1  1
  3  5  1  0
  5  6  2  0
  5  7  1  0
  7  8  1  0
  8 19  1  0
  8  9  1  1
 10  9  1  0
 10 11  2  0
 12 11  1  0
 13 12  1  0
 14 13  2  0
 15 14  1  0
 16 15  2  0
 16 17  1  0
 17 18  2  0
 18 13  1  0
 18 10  1  0
 19 20  2  0
 22 21  1  1
 22 24  1  0
 23 22  1  0
 25 24  1  1
 26 25  1  0
 26 19  1  0
 27 28  1  0
 27 25  1  0
 29 27  2  0
M  END
$$$$
