SWL.pdb
     RDKit          3D

 29 30  0  0  1  0  0  0  0  0999 V2000
   13.1108  -18.0925   20.9083 O   0  0  0  0  0  0  0  0  0  0  0  0
   11.8064  -18.4456   20.5692 C   0  0  0  0  0  0  0  0  0  0  0  0
   11.0684  -17.1883   20.2247 C   0  0  2  0  0  0  0  0  0  0  0  0
   11.8786  -16.3235   19.4254 N   0  0  0  0  0  0  0  0  0  0  0  0
   10.5719  -16.4772   21.4415 C   0  0  0  0  0  0  0  0  0  0  0  0
   11.0485  -15.3491   21.7802 O   0  0  0  0  0  0  0  0  0  0  0  0
    9.5605  -17.0180   22.2655 N   0  0  0  0  0  0  0  0  0  0  0  0
    9.1065  -16.2860   23.4172 C   0  0  1  0  0  0  0  0  0  0  0  0
    7.7448  -16.7402   23.8409 C   0  0  0  0  0  0  0  0  0  0  0  0
    6.9822  -15.8100   24.6664 C   0  0  0  0  0  0  0  0  0  0  0  0
    5.9315  -16.1163   25.5371 C   0  0  0  0  0  0  0  0  0  0  0  0
    5.5036  -15.0082   26.1406 N   0  0  0  0  0  0  0  0  0  0  0  0
    6.2410  -13.9866   25.6914 C   0  0  0  0  0  0  0  0  0  0  0  0
    6.1813  -12.6497   26.0031 C   0  0  0  0  0  0  0  0  0  0  0  0
    7.0369  -11.7239   25.4171 C   0  0  0  0  0  0  0  0  0  0  0  0
    7.9684  -12.1627   24.4992 C   0  0  0  0  0  0  0  0  0  0  0  0
    8.0025  -13.5194   24.2068 C   0  0  0  0  0  0  0  0  0  0  0  0
    7.1675  -14.4549   24.7737 C   0  0  0  0  0  0  0  0  0  0  0  0
   10.0337  -16.5624   24.5427 C   0  0  0  0  0  0  0  0  0  0  0  0
   11.0183  -17.3094   24.3453 O   0  0  0  0  0  0  0  0  0  0  0  0
   10.7805  -13.1706   27.2423 C   0  0  0  0  0  0  0  0  0  0  0  0
    9.9907  -14.2385   27.8884 C   0  0  2  0  0  0  0  0  0  0  0  0
    9.5590  -13.6856   29.2775 C   0  0  0  0  0  0  0  0  0  0  0  0
   10.5475  -15.5734   28.0930 C   0  0  0  0  0  0  0  0  0  0  0  0
   10.7881  -16.4354   26.9325 C   0  0  2  0  0  0  0  0  0  0  0  0
    9.8579  -16.0192   25.8362 N   0  0  0  0  0  0  0  0  0  0  0  0
   10.5859  -17.8548   27.1142 C   0  0  0  0  0  0  0  0  0  0  0  0
   11.5837  -18.6245   27.7554 O   0  0  0  0  0  0  0  0  0  0  0  0
    9.5886  -18.5075   26.7541 O   0  0  0  0  0  0  0  0  0  0  0  0
  1  2  1  0
  2  3  1  0
  3  4  1  1
  3  5  1  0
  5  6  2  0
  5  7  1  0
  7  8  1  0
  8 19  1  0
  8  9  1  1
 10  9  1  0
 10 11  2  0
 12 11  1  0
 13 12  1  0
 14 13  2  0
 15 14  1  0
 16 15  2  0
 16 17  1  0
 17 18  2  0
 18 13  1  0
 18 10  1  0
 19 20  2  0
 22 21  1  1
 22 24  1  0
 23 22  1  0
 25 24  1  1
 26 25  1  0
 26 19  1  0
 27 28  1  0
 27 25  1  0
 29 27  2  0
M  END
$$$$
