SWL.pdb
     RDKit          3D

 29 30  0  0  1  0  0  0  0  0999 V2000
   10.2809  -18.6791   18.0537 O   0  0  0  0  0  0  0  0  0  0  0  0
   10.1471  -18.2020   19.3559 C   0  0  0  0  0  0  0  0  0  0  0  0
    9.6891  -16.7781   19.2753 C   0  0  2  0  0  0  0  0  0  0  0  0
   10.5407  -16.0158   18.4167 N   0  0  0  0  0  0  0  0  0  0  0  0
    9.5884  -16.1432   20.6242 C   0  0  0  0  0  0  0  0  0  0  0  0
   10.5443  -15.4505   21.0943 O   0  0  0  0  0  0  0  0  0  0  0  0
    8.4393  -16.2807   21.4336 N   0  0  0  0  0  0  0  0  0  0  0  0
    8.4258  -15.7243   22.7596 C   0  0  1  0  0  0  0  0  0  0  0  0
    7.0411  -15.7207   23.3275 C   0  0  0  0  0  0  0  0  0  0  0  0
    6.9048  -15.2250   24.6928 C   0  0  0  0  0  0  0  0  0  0  0  0
    6.6611  -15.9774   25.8462 C   0  0  0  0  0  0  0  0  0  0  0  0
    6.6318  -15.1786   26.9122 N   0  0  0  0  0  0  0  0  0  0  0  0
    6.8480  -13.9272   26.4920 C   0  0  0  0  0  0  0  0  0  0  0  0
    6.9039  -12.7534   27.2041 C   0  0  0  0  0  0  0  0  0  0  0  0
    7.1323  -11.5314   26.5818 C   0  0  0  0  0  0  0  0  0  0  0  0
    7.3066  -11.5007   25.2137 C   0  0  0  0  0  0  0  0  0  0  0  0
    7.2443  -12.7040   24.5242 C   0  0  0  0  0  0  0  0  0  0  0  0
    7.0206  -13.9256   25.1171 C   0  0  0  0  0  0  0  0  0  0  0  0
    9.2598  -16.5839   23.6363 C   0  0  0  0  0  0  0  0  0  0  0  0
    9.1097  -17.8253   23.5852 O   0  0  0  0  0  0  0  0  0  0  0  0
   13.4346  -17.5930   23.0188 C   0  0  0  0  0  0  0  0  0  0  0  0
   13.1022  -16.4005   23.8246 C   0  0  2  0  0  0  0  0  0  0  0  0
   14.4240  -15.5939   23.9802 C   0  0  0  0  0  0  0  0  0  0  0  0
   12.4976  -16.5260   25.1484 C   0  0  0  0  0  0  0  0  0  0  0  0
   11.1204  -17.0133   25.2642 C   0  0  2  0  0  0  0  0  0  0  0  0
   10.2226  -16.0651   24.5324 N   0  0  0  0  0  0  0  0  0  0  0  0
   10.5756  -17.1350   26.5973 C   0  0  0  0  0  0  0  0  0  0  0  0
   11.1441  -18.0624   27.5006 O   0  0  0  0  0  0  0  0  0  0  0  0
    9.6192  -16.4878   27.0627 O   0  0  0  0  0  0  0  0  0  0  0  0
  1  2  1  0
  2  3  1  0
  3  4  1  6
  3  5  1  0
  5  6  2  0
  5  7  1  0
  7  8  1  0
  8 19  1  0
  8  9  1  1
 10  9  1  0
 10 11  2  0
 12 11  1  0
 13 12  1  0
 14 13  2  0
 15 14  1  0
 16 15  2  0
 16 17  1  0
 17 18  2  0
 18 13  1  0
 18 10  1  0
 19 20  2  0
 22 21  1  1
 22 24  1  0
 23 22  1  0
 25 24  1  1
 26 25  1  0
 26 19  1  0
 27 28  1  0
 27 25  1  0
 29 27  2  0
M  END
$$$$
