SWL.pdb
     RDKit          3D

 29 30  0  0  1  0  0  0  0  0999 V2000
   10.7244  -20.4789   23.9670 O   0  0  0  0  0  0  0  0  0  0  0  0
    9.5148  -20.4605   23.2758 C   0  0  0  0  0  0  0  0  0  0  0  0
    9.6678  -19.5282   22.1134 C   0  0  2  0  0  0  0  0  0  0  0  0
   10.4956  -20.1058   21.1012 N   0  0  0  0  0  0  0  0  0  0  0  0
   10.1915  -18.1922   22.5301 C   0  0  0  0  0  0  0  0  0  0  0  0
   11.3609  -17.8170   22.2040 O   0  0  0  0  0  0  0  0  0  0  0  0
    9.4215  -17.2914   23.2983 N   0  0  0  0  0  0  0  0  0  0  0  0
    9.9226  -15.9712   23.5703 C   0  0  1  0  0  0  0  0  0  0  0  0
    8.8010  -15.0023   23.7783 C   0  0  0  0  0  0  0  0  0  0  0  0
    7.8090  -14.9249   22.7113 C   0  0  0  0  0  0  0  0  0  0  0  0
    6.6378  -15.6791   22.5878 C   0  0  0  0  0  0  0  0  0  0  0  0
    5.9693  -15.3054   21.4976 N   0  0  0  0  0  0  0  0  0  0  0  0
    6.6670  -14.3309   20.9036 C   0  0  0  0  0  0  0  0  0  0  0  0
    6.4007  -13.6290   19.7527 C   0  0  0  0  0  0  0  0  0  0  0  0
    7.2623  -12.6453   19.2809 C   0  0  0  0  0  0  0  0  0  0  0  0
    8.4134  -12.3696   19.9894 C   0  0  0  0  0  0  0  0  0  0  0  0
    8.6525  -13.0965   21.1477 C   0  0  0  0  0  0  0  0  0  0  0  0
    7.8152  -14.0738   21.6354 C   0  0  0  0  0  0  0  0  0  0  0  0
   10.7044  -16.0180   24.8311 C   0  0  0  0  0  0  0  0  0  0  0  0
   11.7500  -15.3359   24.9197 O   0  0  0  0  0  0  0  0  0  0  0  0
    9.4794  -13.6773   26.7897 C   0  0  0  0  0  0  0  0  0  0  0  0
    9.6521  -14.8180   27.7122 C   0  0  2  0  0  0  0  0  0  0  0  0
    9.2179  -14.3139   29.1190 C   0  0  0  0  0  0  0  0  0  0  0  0
   10.9430  -15.4861   27.8563 C   0  0  0  0  0  0  0  0  0  0  0  0
   11.1666  -16.7673   27.1808 C   0  0  2  0  0  0  0  0  0  0  0  0
   10.3230  -16.8011   25.9448 N   0  0  0  0  0  0  0  0  0  0  0  0
   10.8442  -17.9661   27.9207 C   0  0  0  0  0  0  0  0  0  0  0  0
    9.9511  -18.9101   27.3634 O   0  0  0  0  0  0  0  0  0  0  0  0
   11.2822  -18.2771   29.0439 O   0  0  0  0  0  0  0  0  0  0  0  0
  1  2  1  0
  2  3  1  0
  3  4  1  6
  3  5  1  0
  5  6  2  0
  5  7  1  0
  7  8  1  0
  8 19  1  0
  8  9  1  1
 10  9  1  0
 10 11  2  0
 12 11  1  0
 13 12  1  0
 14 13  2  0
 15 14  1  0
 16 15  2  0
 16 17  1  0
 17 18  2  0
 18 13  1  0
 18 10  1  0
 19 20  2  0
 22 21  1  6
 22 24  1  0
 23 22  1  0
 25 24  1  1
 26 25  1  0
 26 19  1  0
 27 28  1  0
 27 25  1  0
 29 27  2  0
M  END
$$$$
