SWL.pdb
     RDKit          3D

 29 30  0  0  1  0  0  0  0  0999 V2000
   10.1465  -18.9929   19.4445 O   0  0  0  0  0  0  0  0  0  0  0  0
   11.1914  -19.4785   20.2279 C   0  0  0  0  0  0  0  0  0  0  0  0
   10.8216  -19.2664   21.6639 C   0  0  2  0  0  0  0  0  0  0  0  0
    9.6096  -19.9525   21.9857 N   0  0  0  0  0  0  0  0  0  0  0  0
   10.7194  -17.8162   22.0092 C   0  0  0  0  0  0  0  0  0  0  0  0
   11.6783  -17.0175   21.7702 O   0  0  0  0  0  0  0  0  0  0  0  0
    9.5656  -17.2685   22.6117 N   0  0  0  0  0  0  0  0  0  0  0  0
    9.4814  -15.8515   22.8426 C   0  0  1  0  0  0  0  0  0  0  0  0
    8.0622  -15.3801   22.7829 C   0  0  0  0  0  0  0  0  0  0  0  0
    7.3869  -15.2022   24.0638 C   0  0  0  0  0  0  0  0  0  0  0  0
    6.8520  -16.2002   24.8847 C   0  0  0  0  0  0  0  0  0  0  0  0
    6.3418  -15.6557   25.9885 N   0  0  0  0  0  0  0  0  0  0  0  0
    6.5255  -14.3329   25.9150 C   0  0  0  0  0  0  0  0  0  0  0  0
    6.1701  -13.3411   26.7972 C   0  0  0  0  0  0  0  0  0  0  0  0
    6.4406  -12.0022   26.5391 C   0  0  0  0  0  0  0  0  0  0  0  0
    7.0825  -11.6645   25.3657 C   0  0  0  0  0  0  0  0  0  0  0  0
    7.4280  -12.6902   24.4964 C   0  0  0  0  0  0  0  0  0  0  0  0
    7.1722  -14.0221   24.7296 C   0  0  0  0  0  0  0  0  0  0  0  0
    9.9825  -15.5698   24.2110 C   0  0  0  0  0  0  0  0  0  0  0  0
   10.5601  -14.4816   24.4311 O   0  0  0  0  0  0  0  0  0  0  0  0
    9.5086  -13.3832   27.7672 C   0  0  0  0  0  0  0  0  0  0  0  0
    9.7548  -14.8359   27.6625 C   0  0  2  0  0  0  0  0  0  0  0  0
    9.6449  -15.4046   29.1069 C   0  0  0  0  0  0  0  0  0  0  0  0
   10.9859  -15.3542   27.0713 C   0  0  0  0  0  0  0  0  0  0  0  0
   10.9401  -16.5943   26.2918 C   0  0  2  0  0  0  0  0  0  0  0  0
    9.8381  -16.4772   25.2857 N   0  0  0  0  0  0  0  0  0  0  0  0
   10.6931  -17.8191   27.0181 C   0  0  0  0  0  0  0  0  0  0  0  0
    9.6778  -18.6986   26.5766 O   0  0  0  0  0  0  0  0  0  0  0  0
   11.2991  -18.2062   28.0345 O   0  0  0  0  0  0  0  0  0  0  0  0
  1  2  1  0
  2  3  1  0
  3  4  1  6
  3  5  1  0
  5  6  2  0
  5  7  1  0
  7  8  1  0
  8 19  1  0
  8  9  1  1
 10  9  1  0
 10 11  2  0
 12 11  1  0
 13 12  1  0
 14 13  2  0
 15 14  1  0
 16 15  2  0
 16 17  1  0
 17 18  2  0
 18 13  1  0
 18 10  1  0
 19 20  2  0
 22 21  1  1
 22 24  1  0
 23 22  1  0
 25 24  1  1
 26 25  1  0
 26 19  1  0
 27 28  1  0
 27 25  1  0
 29 27  2  0
M  END
$$$$
