CGQ.pdb
     RDKit          3D

 20 19  0  0  1  0  0  0  0  0999 V2000
    3.6681  -19.6009   20.7939 N   0  0  0  0  0  0  0  0  0  0  0  0
    2.2407  -19.7636   20.8898 C   0  0  1  0  0  0  0  0  0  0  0  0
    1.7354  -20.4239   19.6022 C   0  0  0  0  0  0  0  0  0  0  0  0
    2.7265  -19.9468   18.1869 S   0  0  0  0  0  0  0  0  0  0  0  0
    1.9134  -20.5904   22.0804 C   0  0  0  0  0  0  0  0  0  0  0  0
    0.7041  -20.8632   22.3535 O   0  0  0  0  0  0  0  0  0  0  0  0
    2.9636  -21.0847   22.9278 N   0  0  0  0  0  0  0  0  0  0  0  0
    2.5863  -21.9893   23.9755 C   0  0  0  0  0  0  0  0  0  0  0  0
    3.1609  -23.3325   23.8663 C   0  0  0  0  0  0  0  0  0  0  0  0
    3.7016  -23.7227   22.7687 O   0  0  0  0  0  0  0  0  0  0  0  0
    5.1810  -26.8527   28.6163 N   0  0  0  0  0  0  0  0  0  0  0  0
    5.9668  -25.8295   27.9924 C   0  0  0  0  0  0  0  0  0  0  0  0
    7.0003  -25.3889   28.5427 O   0  0  0  0  0  0  0  0  0  0  0  0
    5.5140  -25.3129   26.6778 C   0  0  0  0  0  0  0  0  0  0  0  0
    4.3168  -25.9950   26.1267 C   0  0  0  0  0  0  0  0  0  0  0  0
    3.9108  -25.5881   24.7407 C   0  0  2  0  0  0  0  0  0  0  0  0
    3.1942  -24.3156   24.8904 N   0  0  0  0  0  0  0  0  0  0  0  0
    3.0302  -26.5655   24.0812 C   0  0  0  0  0  0  0  0  0  0  0  0
    3.4874  -27.6573   23.6995 O   0  0  0  0  0  0  0  0  0  0  0  0
    1.7017  -26.2812   23.8826 O   0  0  0  0  0  0  0  0  0  0  0  0
  2  3  1  0
  2  1  1  6
  4  3  1  0
  5  6  2  0
  5  2  1  0
  7  5  1  0
  8  9  1  0
  8  7  1  0
  9 10  2  0
 11 12  1  0
 12 14  1  0
 12 13  2  0
 14 15  1  0
 16 15  1  1
 17 16  1  0
 17  9  1  0
 18 20  1  0
 18 16  1  0
 19 18  2  0
M  END
$$$$
