CGQ.pdb
     RDKit          3D

 20 19  0  0  1  0  0  0  0  0999 V2000
    4.6342  -20.4473   20.9967 N   0  0  0  0  0  0  0  0  0  0  0  0
    3.6129  -19.5060   20.6168 C   0  0  1  0  0  0  0  0  0  0  0  0
    2.2841  -19.9469   21.2407 C   0  0  0  0  0  0  0  0  0  0  0  0
    2.4853  -20.3981   22.9637 S   0  0  0  0  0  0  0  0  0  0  0  0
    3.9954  -18.1454   21.0756 C   0  0  0  0  0  0  0  0  0  0  0  0
    3.4056  -17.1250   20.6041 O   0  0  0  0  0  0  0  0  0  0  0  0
    5.0341  -17.9782   22.0546 N   0  0  0  0  0  0  0  0  0  0  0  0
    5.3368  -16.6367   22.4632 C   0  0  0  0  0  0  0  0  0  0  0  0
    6.3254  -16.5286   23.5390 C   0  0  0  0  0  0  0  0  0  0  0  0
    6.6843  -15.3775   23.9810 O   0  0  0  0  0  0  0  0  0  0  0  0
    6.9704  -19.8087   28.5542 N   0  0  0  0  0  0  0  0  0  0  0  0
    8.2407  -19.1488   28.6222 C   0  0  0  0  0  0  0  0  0  0  0  0
    8.9733  -19.2691   29.6290 O   0  0  0  0  0  0  0  0  0  0  0  0
    8.6544  -18.3212   27.4628 C   0  0  0  0  0  0  0  0  0  0  0  0
    7.6540  -18.2486   26.3691 C   0  0  0  0  0  0  0  0  0  0  0  0
    8.0365  -17.4087   25.1860 C   0  0  2  0  0  0  0  0  0  0  0  0
    6.9747  -17.6094   24.1922 N   0  0  0  0  0  0  0  0  0  0  0  0
    9.3303  -17.7881   24.5963 C   0  0  0  0  0  0  0  0  0  0  0  0
   10.3881  -17.5286   25.1965 O   0  0  0  0  0  0  0  0  0  0  0  0
    9.3800  -18.4292   23.3831 O   0  0  0  0  0  0  0  0  0  0  0  0
  2  3  1  0
  2  1  1  1
  4  3  1  0
  5  6  2  0
  5  2  1  0
  7  5  1  0
  8  9  1  0
  8  7  1  0
  9 10  2  0
 11 12  1  0
 12 14  1  0
 12 13  2  0
 14 15  1  0
 16 15  1  1
 17 16  1  0
 17  9  1  0
 18 20  1  0
 18 16  1  0
 19 18  2  0
M  END
$$$$
