CGQ.pdb
     RDKit          3D

 20 19  0  0  1  0  0  0  0  0999 V2000
    9.4606  -17.9742   19.1787 N   0  0  0  0  0  0  0  0  0  0  0  0
    9.0471  -16.6481   18.7997 C   0  0  1  0  0  0  0  0  0  0  0  0
    8.1828  -16.7465   17.5377 C   0  0  0  0  0  0  0  0  0  0  0  0
    6.7780  -17.8315   17.7868 S   0  0  0  0  0  0  0  0  0  0  0  0
    8.2939  -16.0235   19.9180 C   0  0  0  0  0  0  0  0  0  0  0  0
    8.0208  -14.7842   19.8883 O   0  0  0  0  0  0  0  0  0  0  0  0
    7.8712  -16.8189   21.0379 N   0  0  0  0  0  0  0  0  0  0  0  0
    7.1813  -16.1409   22.0973 C   0  0  0  0  0  0  0  0  0  0  0  0
    8.0474  -15.4265   23.0384 C   0  0  0  0  0  0  0  0  0  0  0  0
    8.7644  -14.4374   22.6421 O   0  0  0  0  0  0  0  0  0  0  0  0
    7.1730  -11.0777   26.6301 N   0  0  0  0  0  0  0  0  0  0  0  0
    6.3847  -12.2435   26.3597 C   0  0  0  0  0  0  0  0  0  0  0  0
    5.1485  -12.1568   26.1887 O   0  0  0  0  0  0  0  0  0  0  0  0
    7.0821  -13.5508   26.2908 C   0  0  0  0  0  0  0  0  0  0  0  0
    8.2799  -13.5650   25.4147 C   0  0  0  0  0  0  0  0  0  0  0  0
    9.0050  -14.8750   25.3174 C   0  0  2  0  0  0  0  0  0  0  0  0
    8.1994  -15.7132   24.4209 N   0  0  0  0  0  0  0  0  0  0  0  0
    9.1541  -15.5558   26.6135 C   0  0  0  0  0  0  0  0  0  0  0  0
    8.4827  -16.5724   26.8636 O   0  0  0  0  0  0  0  0  0  0  0  0
   10.0322  -15.0762   27.5538 O   0  0  0  0  0  0  0  0  0  0  0  0
  2  3  1  0
  2  1  1  1
  4  3  1  0
  5  6  2  0
  5  2  1  0
  7  5  1  0
  8  9  1  0
  8  7  1  0
  9 10  2  0
 11 12  1  0
 12 14  1  0
 12 13  2  0
 14 15  1  0
 16 15  1  1
 17 16  1  0
 17  9  1  0
 18 20  1  0
 18 16  1  0
 19 18  2  0
M  END
$$$$
