CGQ.pdb
     RDKit          3D

 20 19  0  0  1  0  0  0  0  0999 V2000
    7.9939  -12.7945   25.9810 N   0  0  0  0  0  0  0  0  0  0  0  0
    7.0335  -13.8572   26.1283 C   0  0  1  0  0  0  0  0  0  0  0  0
    5.6363  -13.2403   26.2564 C   0  0  0  0  0  0  0  0  0  0  0  0
    5.6839  -11.6856   27.1473 S   0  0  0  0  0  0  0  0  0  0  0  0
    7.1131  -14.7653   24.9548 C   0  0  0  0  0  0  0  0  0  0  0  0
    6.4246  -15.8314   24.9265 O   0  0  0  0  0  0  0  0  0  0  0  0
    7.9693  -14.4413   23.8469 N   0  0  0  0  0  0  0  0  0  0  0  0
    8.4848  -15.5370   23.0776 C   0  0  0  0  0  0  0  0  0  0  0  0
    9.9345  -15.5137   22.8671 C   0  0  0  0  0  0  0  0  0  0  0  0
   10.4580  -14.6959   22.0266 O   0  0  0  0  0  0  0  0  0  0  0  0
    8.8250  -14.9709   27.7277 N   0  0  0  0  0  0  0  0  0  0  0  0
   10.1933  -14.6706   28.0299 C   0  0  0  0  0  0  0  0  0  0  0  0
   10.5169  -14.2051   29.1451 O   0  0  0  0  0  0  0  0  0  0  0  0
   11.2077  -14.9289   26.9791 C   0  0  0  0  0  0  0  0  0  0  0  0
   10.6558  -15.4522   25.7048 C   0  0  0  0  0  0  0  0  0  0  0  0
   11.6650  -15.8794   24.6800 C   0  0  2  0  0  0  0  0  0  0  0  0
   10.8895  -16.3369   23.5204 N   0  0  0  0  0  0  0  0  0  0  0  0
   12.5369  -16.9715   25.1413 C   0  0  0  0  0  0  0  0  0  0  0  0
   13.7089  -16.7312   25.4811 O   0  0  0  0  0  0  0  0  0  0  0  0
   12.0656  -18.2598   25.2000 O   0  0  0  0  0  0  0  0  0  0  0  0
  2  3  1  0
  2  1  1  6
  4  3  1  0
  5  6  2  0
  5  2  1  0
  7  5  1  0
  8  9  1  0
  8  7  1  0
  9 10  2  0
 11 12  1  0
 12 14  1  0
 12 13  2  0
 14 15  1  0
 16 15  1  1
 17 16  1  0
 17  9  1  0
 18 20  1  0
 18 16  1  0
 19 18  2  0
M  END
$$$$
