CGQ.pdb
     RDKit          3D

 20 19  0  0  1  0  0  0  0  0999 V2000
    7.8272  -13.4552   17.2594 N   0  0  0  0  0  0  0  0  0  0  0  0
    8.4492  -14.4074   18.1424 C   0  0  1  0  0  0  0  0  0  0  0  0
    9.9530  -14.1157   18.1963 C   0  0  0  0  0  0  0  0  0  0  0  0
   10.7771  -14.6360   16.6920 S   0  0  0  0  0  0  0  0  0  0  0  0
    7.8352  -14.3086   19.4920 C   0  0  0  0  0  0  0  0  0  0  0  0
    7.5078  -13.1755   19.9614 O   0  0  0  0  0  0  0  0  0  0  0  0
    7.6092  -15.4944   20.2718 N   0  0  0  0  0  0  0  0  0  0  0  0
    6.9466  -15.3301   21.5336 C   0  0  0  0  0  0  0  0  0  0  0  0
    7.8337  -15.0341   22.6613 C   0  0  0  0  0  0  0  0  0  0  0  0
    9.1020  -14.9362   22.4845 O   0  0  0  0  0  0  0  0  0  0  0  0
    5.8798  -10.5491   26.9581 N   0  0  0  0  0  0  0  0  0  0  0  0
    6.1854  -11.9485   27.0000 C   0  0  0  0  0  0  0  0  0  0  0  0
    5.7858  -12.6647   27.9447 O   0  0  0  0  0  0  0  0  0  0  0  0
    6.9890  -12.5157   25.8897 C   0  0  0  0  0  0  0  0  0  0  0  0
    7.5601  -13.8575   26.1650 C   0  0  0  0  0  0  0  0  0  0  0  0
    8.3858  -14.4566   25.0648 C   0  0  2  0  0  0  0  0  0  0  0  0
    7.4362  -14.8298   24.0091 N   0  0  0  0  0  0  0  0  0  0  0  0
    9.1375  -15.6500   25.4845 C   0  0  0  0  0  0  0  0  0  0  0  0
   10.2051  -15.5252   26.1100 O   0  0  0  0  0  0  0  0  0  0  0  0
    8.6683  -16.9064   25.1900 O   0  0  0  0  0  0  0  0  0  0  0  0
  2  3  1  0
  2  1  1  6
  4  3  1  0
  5  6  2  0
  5  2  1  0
  7  5  1  0
  8  9  1  0
  8  7  1  0
  9 10  2  0
 11 12  1  0
 12 14  1  0
 12 13  2  0
 14 15  1  0
 16 15  1  1
 17 16  1  0
 17  9  1  0
 18 20  1  0
 18 16  1  0
 19 18  2  0
M  END
$$$$
