PIT.pdb
     RDKit          3D

 23 23  0  0  1  0  0  0  0  0999 V2000
   22.0210  -13.8410  -19.7356 N   0  0  0  0  0  0  0  0  0  0  0  0
   20.8726  -13.9405  -20.6158 C   0  0  0  0  0  0  0  0  0  0  0  0
   21.0571  -12.7595  -21.5754 C   0  0  0  0  0  0  0  0  0  0  0  0
   21.5271  -11.6872  -20.6118 C   0  0  0  0  0  0  0  0  0  0  0  0
   22.3882  -12.4617  -19.6607 C   0  0  1  0  0  0  0  0  0  0  0  0
   22.2642  -11.9314  -18.2482 C   0  0  0  0  0  0  0  0  0  0  0  0
   21.4290  -12.5122  -17.5427 O   0  0  0  0  0  0  0  0  0  0  0  0
   26.7846  -11.0170  -15.6464 C   0  0  0  0  0  0  0  0  0  0  0  0
   25.3785  -11.3628  -16.0834 C   0  0  0  0  0  0  0  0  0  0  0  0
   24.5997  -10.0621  -16.1195 C   0  0  2  0  0  0  0  0  0  0  0  0
   24.6234   -9.5656  -14.6688 C   0  0  0  0  0  0  0  0  0  0  0  0
   23.1499  -10.3035  -16.5084 C   0  0  2  0  0  0  0  0  0  0  0  0
   23.0706  -10.8629  -17.8517 N   0  0  0  0  0  0  0  0  0  0  0  0
   22.4220   -9.0297  -16.4380 C   0  0  0  0  0  0  0  0  0  0  0  0
   22.9000   -8.0309  -17.1181 O   0  0  0  0  0  0  0  0  0  0  0  0
   18.8743   -8.0652  -17.5363 C   0  0  0  0  0  0  0  0  0  0  0  0
   19.1471   -7.5403  -16.1508 C   0  0  1  0  0  0  0  0  0  0  0  0
   18.5883   -8.3852  -15.1846 O   0  0  0  0  0  0  0  0  0  0  0  0
   20.6234   -7.3920  -15.8714 C   0  0  2  0  0  0  0  0  0  0  0  0
   21.2513   -8.7252  -15.7291 N   0  0  0  0  0  0  0  0  0  0  0  0
   20.7530   -6.6612  -14.5837 C   0  0  0  0  0  0  0  0  0  0  0  0
   20.4863   -5.3106  -14.5027 O   0  0  0  0  0  0  0  0  0  0  0  0
   21.1116   -7.2526  -13.5216 O   0  0  0  0  0  0  0  0  0  0  0  0
  1  5  1  0
  2  3  1  0
  2  1  1  0
  3  4  1  0
  5  4  1  0
  5  6  1  1
  6 13  1  0
  6  7  2  0
  8  9  1  0
  9 10  1  0
 10 12  1  0
 10 11  1  1
 12 14  1  0
 12 13  1  6
 14 15  2  0
 17 16  1  6
 17 18  1  0
 17 19  1  0
 19 21  1  0
 20 14  1  0
 19 20  1  1
 21 22  1  0
 23 21  2  0
M  END
$$$$
