PIT.pdb
     RDKit          3D

 23 23  0  0  1  0  0  0  0  0999 V2000
   17.8991  -10.0491  -17.4244 N   0  0  0  0  0  0  0  0  0  0  0  0
   17.4318  -11.4163  -17.5510 C   0  0  0  0  0  0  0  0  0  0  0  0
   16.1288  -11.4226  -16.7439 C   0  0  0  0  0  0  0  0  0  0  0  0
   16.5346  -10.5786  -15.5513 C   0  0  0  0  0  0  0  0  0  0  0  0
   17.4245   -9.5458  -16.1737 C   0  0  1  0  0  0  0  0  0  0  0  0
   18.5695   -9.1784  -15.2541 C   0  0  0  0  0  0  0  0  0  0  0  0
   18.2554   -9.0116  -14.0683 O   0  0  0  0  0  0  0  0  0  0  0  0
   22.1928  -11.1133  -13.8318 C   0  0  0  0  0  0  0  0  0  0  0  0
   22.1351  -10.9182  -15.3305 C   0  0  0  0  0  0  0  0  0  0  0  0
   22.2631   -9.4282  -15.5825 C   0  0  2  0  0  0  0  0  0  0  0  0
   23.4832   -9.0071  -14.7543 C   0  0  0  0  0  0  0  0  0  0  0  0
   21.0532   -8.6776  -15.0492 C   0  0  2  0  0  0  0  0  0  0  0  0
   19.8546   -9.0571  -15.7861 N   0  0  0  0  0  0  0  0  0  0  0  0
   21.2981   -7.2348  -15.1736 C   0  0  0  0  0  0  0  0  0  0  0  0
   21.8556   -6.8165  -16.2703 O   0  0  0  0  0  0  0  0  0  0  0  0
   19.0828   -4.3020  -15.6476 C   0  0  0  0  0  0  0  0  0  0  0  0
   20.0454   -3.9741  -14.5362 C   0  0  1  0  0  0  0  0  0  0  0  0
   19.4422   -4.1691  -13.2881 O   0  0  0  0  0  0  0  0  0  0  0  0
   21.3053   -4.8035  -14.6019 C   0  0  2  0  0  0  0  0  0  0  0  0
   21.0060   -6.2125  -14.2596 N   0  0  0  0  0  0  0  0  0  0  0  0
   22.2439   -4.2531  -13.5893 C   0  0  0  0  0  0  0  0  0  0  0  0
   22.5985   -4.9858  -12.4761 O   0  0  0  0  0  0  0  0  0  0  0  0
   22.7475   -3.0969  -13.7149 O   0  0  0  0  0  0  0  0  0  0  0  0
  1  5  1  0
  2  3  1  0
  2  1  1  0
  3  4  1  0
  5  4  1  0
  5  6  1  1
  6 13  1  0
  6  7  2  0
  8  9  1  0
  9 10  1  0
 10 12  1  0
 10 11  1  1
 12 14  1  0
 12 13  1  6
 14 15  2  0
 17 16  1  6
 17 18  1  0
 17 19  1  0
 19 21  1  0
 20 14  1  0
 19 20  1  1
 21 22  1  0
 23 21  2  0
M  END
$$$$
