PIT.pdb
     RDKit          3D

 23 23  0  0  1  0  0  0  0  0999 V2000
   28.7688  -20.8595  -15.6056 N   0  0  0  0  0  0  0  0  0  0  0  0
   28.6052  -20.2745  -16.9226 C   0  0  0  0  0  0  0  0  0  0  0  0
   28.4786  -18.7748  -16.6319 C   0  0  0  0  0  0  0  0  0  0  0  0
   27.5953  -18.8025  -15.3997 C   0  0  0  0  0  0  0  0  0  0  0  0
   28.0934  -20.0141  -14.6718 C   0  0  1  0  0  0  0  0  0  0  0  0
   26.9625  -20.7452  -13.9801 C   0  0  0  0  0  0  0  0  0  0  0  0
   26.4950  -21.7022  -14.6109 O   0  0  0  0  0  0  0  0  0  0  0  0
   26.7222  -20.1815   -8.4491 C   0  0  0  0  0  0  0  0  0  0  0  0
   26.6891  -20.8696   -9.7957 C   0  0  0  0  0  0  0  0  0  0  0  0
   25.4687  -20.3430  -10.5257 C   0  0  2  0  0  0  0  0  0  0  0  0
   24.2821  -20.9550   -9.7712 C   0  0  0  0  0  0  0  0  0  0  0  0
   25.4262  -20.8521  -11.9577 C   0  0  2  0  0  0  0  0  0  0  0  0
   26.5393  -20.3065  -12.7240 N   0  0  0  0  0  0  0  0  0  0  0  0
   24.1457  -20.4614  -12.5617 C   0  0  0  0  0  0  0  0  0  0  0  0
   23.8346  -19.2000  -12.5374 O   0  0  0  0  0  0  0  0  0  0  0  0
   23.0044  -20.8407  -16.1817 C   0  0  0  0  0  0  0  0  0  0  0  0
   21.8831  -21.2444  -15.2602 C   0  0  1  0  0  0  0  0  0  0  0  0
   21.8133  -22.6382  -15.1499 O   0  0  0  0  0  0  0  0  0  0  0  0
   22.0322  -20.6544  -13.8785 C   0  0  2  0  0  0  0  0  0  0  0  0
   23.1844  -21.2712  -13.1829 N   0  0  0  0  0  0  0  0  0  0  0  0
   20.7903  -20.9782  -13.1289 C   0  0  0  0  0  0  0  0  0  0  0  0
   20.7957  -21.9108  -12.1130 O   0  0  0  0  0  0  0  0  0  0  0  0
   19.6896  -20.4102  -13.3973 O   0  0  0  0  0  0  0  0  0  0  0  0
  1  5  1  0
  2  3  1  0
  2  1  1  0
  3  4  1  0
  5  4  1  0
  5  6  1  6
  6 13  1  0
  6  7  2  0
  8  9  1  0
  9 10  1  0
 10 12  1  0
 10 11  1  1
 12 14  1  0
 12 13  1  6
 14 15  2  0
 17 16  1  6
 17 18  1  0
 17 19  1  0
 19 21  1  0
 20 14  1  0
 19 20  1  1
 21 22  1  0
 23 21  2  0
M  END
$$$$
