PIT.pdb
     RDKit          3D

 23 23  0  0  1  0  0  0  0  0999 V2000
   28.7622  -20.5192  -15.6983 N   0  0  0  0  0  0  0  0  0  0  0  0
   28.5559  -19.8732  -16.9803 C   0  0  0  0  0  0  0  0  0  0  0  0
   28.3979  -18.3939  -16.6115 C   0  0  0  0  0  0  0  0  0  0  0  0
   27.5422  -18.5064  -15.3648 C   0  0  0  0  0  0  0  0  0  0  0  0
   28.0859  -19.7396  -14.7094 C   0  0  1  0  0  0  0  0  0  0  0  0
   26.9888  -20.5337  -14.0330 C   0  0  0  0  0  0  0  0  0  0  0  0
   26.5581  -21.4927  -14.6867 O   0  0  0  0  0  0  0  0  0  0  0  0
   26.7799  -20.0879   -8.4983 C   0  0  0  0  0  0  0  0  0  0  0  0
   26.7352  -20.7962   -9.8339 C   0  0  0  0  0  0  0  0  0  0  0  0
   25.5060  -20.2840  -10.5594 C   0  0  2  0  0  0  0  0  0  0  0  0
   24.3307  -20.9360   -9.8210 C   0  0  0  0  0  0  0  0  0  0  0  0
   25.4803  -20.7679  -12.0005 C   0  0  2  0  0  0  0  0  0  0  0  0
   26.5534  -20.1449  -12.7648 N   0  0  0  0  0  0  0  0  0  0  0  0
   24.1741  -20.4407  -12.5870 C   0  0  0  0  0  0  0  0  0  0  0  0
   23.8566  -19.1836  -12.6729 O   0  0  0  0  0  0  0  0  0  0  0  0
   21.8483  -22.9186  -15.1267 C   0  0  0  0  0  0  0  0  0  0  0  0
   21.9737  -21.4197  -15.2105 C   0  0  1  0  0  0  0  0  0  0  0  0
   20.8943  -20.8734  -15.9148 O   0  0  0  0  0  0  0  0  0  0  0  0
   22.0443  -20.7706  -13.8492 C   0  0  2  0  0  0  0  0  0  0  0  0
   23.1936  -21.3092  -13.0870 N   0  0  0  0  0  0  0  0  0  0  0  0
   20.7890  -21.1187  -13.1336 C   0  0  0  0  0  0  0  0  0  0  0  0
   20.8051  -21.9482  -12.0321 O   0  0  0  0  0  0  0  0  0  0  0  0
   19.6666  -20.6665  -13.5105 O   0  0  0  0  0  0  0  0  0  0  0  0
  1  5  1  0
  2  3  1  0
  2  1  1  0
  3  4  1  0
  5  4  1  0
  5  6  1  6
  6 13  1  0
  6  7  2  0
  8  9  1  0
  9 10  1  0
 10 12  1  0
 10 11  1  1
 12 14  1  0
 12 13  1  6
 14 15  2  0
 17 16  1  1
 17 18  1  0
 17 19  1  0
 19 21  1  0
 20 14  1  0
 19 20  1  1
 21 22  1  0
 23 21  2  0
M  END
$$$$
