PIT.pdb
     RDKit          3D

 23 23  0  0  1  0  0  0  0  0999 V2000
   22.0212  -13.3955  -20.1004 N   0  0  0  0  0  0  0  0  0  0  0  0
   20.8564  -13.3788  -20.9645 C   0  0  0  0  0  0  0  0  0  0  0  0
   21.1380  -12.2120  -21.9178 C   0  0  0  0  0  0  0  0  0  0  0  0
   21.7202  -11.1971  -20.9533 C   0  0  0  0  0  0  0  0  0  0  0  0
   22.5176  -12.0576  -20.0207 C   0  0  1  0  0  0  0  0  0  0  0  0
   22.4638  -11.5304  -18.6026 C   0  0  0  0  0  0  0  0  0  0  0  0
   21.4938  -11.9165  -17.9374 O   0  0  0  0  0  0  0  0  0  0  0  0
   27.0645  -11.3524  -15.9150 C   0  0  0  0  0  0  0  0  0  0  0  0
   25.6116  -11.4904  -16.3122 C   0  0  0  0  0  0  0  0  0  0  0  0
   25.0403  -10.0871  -16.3740 C   0  0  2  0  0  0  0  0  0  0  0  0
   25.0813   -9.5965  -14.9216 C   0  0  0  0  0  0  0  0  0  0  0  0
   23.5871  -10.1075  -16.8207 C   0  0  2  0  0  0  0  0  0  0  0  0
   23.4746  -10.6762  -18.1577 N   0  0  0  0  0  0  0  0  0  0  0  0
   23.0657   -8.7346  -16.8002 C   0  0  0  0  0  0  0  0  0  0  0  0
   23.8126   -7.8049  -17.3161 O   0  0  0  0  0  0  0  0  0  0  0  0
   19.8870   -7.3154  -18.4278 C   0  0  0  0  0  0  0  0  0  0  0  0
   20.0200   -6.7970  -17.0196 C   0  0  1  0  0  0  0  0  0  0  0  0
   19.2003   -7.5231  -16.1476 O   0  0  0  0  0  0  0  0  0  0  0  0
   21.4416   -6.8588  -16.5148 C   0  0  2  0  0  0  0  0  0  0  0  0
   21.8438   -8.2667  -16.2964 N   0  0  0  0  0  0  0  0  0  0  0  0
   21.4742   -6.1432  -15.2125 C   0  0  0  0  0  0  0  0  0  0  0  0
   21.6694   -6.8265  -14.0306 O   0  0  0  0  0  0  0  0  0  0  0  0
   21.3242   -4.8866  -15.1452 O   0  0  0  0  0  0  0  0  0  0  0  0
  1  5  1  0
  2  3  1  0
  2  1  1  0
  3  4  1  0
  5  4  1  0
  5  6  1  1
  6 13  1  0
  6  7  2  0
  8  9  1  0
  9 10  1  0
 10 12  1  0
 10 11  1  1
 12 14  1  0
 12 13  1  6
 14 15  2  0
 17 16  1  6
 17 18  1  0
 17 19  1  0
 19 21  1  0
 20 14  1  0
 19 20  1  1
 21 22  1  0
 23 21  2  0
M  END
$$$$
