PIT.pdb
     RDKit          3D

 23 23  0  0  1  0  0  0  0  0999 V2000
   20.4690  -20.7174  -13.4996 N   0  0  0  0  0  0  0  0  0  0  0  0
   19.9884  -20.9474  -14.8485 C   0  0  0  0  0  0  0  0  0  0  0  0
   20.4858  -22.3620  -15.1665 C   0  0  0  0  0  0  0  0  0  0  0  0
   21.8756  -22.3120  -14.5623 C   0  0  0  0  0  0  0  0  0  0  0  0
   21.6637  -21.4837  -13.3315 C   0  0  1  0  0  0  0  0  0  0  0  0
   22.8573  -20.5951  -13.0529 C   0  0  0  0  0  0  0  0  0  0  0  0
   22.7683  -19.4441  -13.5001 O   0  0  0  0  0  0  0  0  0  0  0  0
   25.3090  -20.9425   -8.2742 C   0  0  0  0  0  0  0  0  0  0  0  0
   24.7192  -20.4523   -9.5779 C   0  0  0  0  0  0  0  0  0  0  0  0
   25.7030  -20.8248  -10.6702 C   0  0  2  0  0  0  0  0  0  0  0  0
   26.9453  -19.9786  -10.3663 C   0  0  0  0  0  0  0  0  0  0  0  0
   25.1812  -20.4164  -12.0386 C   0  0  2  0  0  0  0  0  0  0  0  0
   23.9374  -21.1147  -12.3371 N   0  0  0  0  0  0  0  0  0  0  0  0
   26.2016  -20.7293  -13.0475 C   0  0  0  0  0  0  0  0  0  0  0  0
   27.0764  -21.6424  -12.7483 O   0  0  0  0  0  0  0  0  0  0  0  0
   26.6436  -23.0044  -15.5788 C   0  0  0  0  0  0  0  0  0  0  0  0
   26.9133  -21.6589  -16.2002 C   0  0  1  0  0  0  0  0  0  0  0  0
   25.7456  -21.1350  -16.7675 O   0  0  0  0  0  0  0  0  0  0  0  0
   27.4588  -20.6635  -15.2046 C   0  0  2  0  0  0  0  0  0  0  0  0
   26.3728  -20.1761  -14.3244 N   0  0  0  0  0  0  0  0  0  0  0  0
   27.9961  -19.5169  -15.9830 C   0  0  0  0  0  0  0  0  0  0  0  0
   29.0902  -19.6685  -16.8088 O   0  0  0  0  0  0  0  0  0  0  0  0
   27.4688  -18.3665  -15.9138 O   0  0  0  0  0  0  0  0  0  0  0  0
  1  5  1  0
  2  3  1  0
  2  1  1  0
  3  4  1  0
  5  4  1  0
  5  6  1  6
  6 13  1  0
  6  7  2  0
  8  9  1  0
  9 10  1  0
 10 12  1  0
 10 11  1  1
 12 14  1  0
 12 13  1  6
 14 15  2  0
 17 16  1  1
 17 18  1  0
 17 19  1  0
 19 21  1  0
 20 14  1  0
 19 20  1  1
 21 22  1  0
 23 21  2  0
M  END
$$$$
