WWG.pdb
     RDKit          3D

 33 36  0  0  1  0  0  0  0  0999 V2000
   28.5179  -21.0786  -14.8397 N   0  0  0  0  0  0  0  0  0  0  0  0
   27.4653  -20.2302  -14.3574 C   0  0  1  0  0  0  0  0  0  0  0  0
   26.5233  -19.9022  -15.4883 C   0  0  0  0  0  0  0  0  0  0  0  0
   27.0697  -18.8482  -16.3647 C   0  0  0  0  0  0  0  0  0  0  0  0
   27.6112  -18.9383  -17.6068 C   0  0  0  0  0  0  0  0  0  0  0  0
   27.9978  -17.7206  -18.0278 N   0  0  0  0  0  0  0  0  0  0  0  0
   27.7034  -16.8458  -17.0542 C   0  0  0  0  0  0  0  0  0  0  0  0
   27.9069  -15.4629  -16.9970 C   0  0  0  0  0  0  0  0  0  0  0  0
   27.5109  -14.7991  -15.8645 C   0  0  0  0  0  0  0  0  0  0  0  0
   26.9275  -15.4640  -14.8048 C   0  0  0  0  0  0  0  0  0  0  0  0
   26.7295  -16.8192  -14.8639 C   0  0  0  0  0  0  0  0  0  0  0  0
   27.1259  -17.4977  -16.0029 C   0  0  0  0  0  0  0  0  0  0  0  0
   26.6841  -20.8958  -13.2981 C   0  0  0  0  0  0  0  0  0  0  0  0
   26.4068  -22.1462  -13.3754 O   0  0  0  0  0  0  0  0  0  0  0  0
   26.1654  -20.2470  -12.1174 N   0  0  0  0  0  0  0  0  0  0  0  0
   25.3979  -20.9950  -11.1544 C   0  0  1  0  0  0  0  0  0  0  0  0
   25.6927  -20.7147   -9.7420 C   0  0  0  0  0  0  0  0  0  0  0  0
   27.0546  -20.9108   -9.2736 C   0  0  0  0  0  0  0  0  0  0  0  0
   28.0147  -21.6536   -9.9694 C   0  0  0  0  0  0  0  0  0  0  0  0
   29.1458  -21.6671   -9.2590 N   0  0  0  0  0  0  0  0  0  0  0  0
   28.9863  -20.9607   -8.1093 C   0  0  0  0  0  0  0  0  0  0  0  0
   29.8555  -20.6832   -7.0805 C   0  0  0  0  0  0  0  0  0  0  0  0
   29.4211  -19.9174   -6.0358 C   0  0  0  0  0  0  0  0  0  0  0  0
   28.1344  -19.4397   -6.0273 C   0  0  0  0  0  0  0  0  0  0  0  0
   27.2887  -19.7310   -7.0617 C   0  0  0  0  0  0  0  0  0  0  0  0
   27.6715  -20.4921   -8.1313 C   0  0  0  0  0  0  0  0  0  0  0  0
   23.9132  -20.8077  -11.4445 C   0  0  0  0  0  0  0  0  0  0  0  0
   23.4675  -19.6488  -11.4114 O   0  0  0  0  0  0  0  0  0  0  0  0
   23.0820  -21.9079  -11.7376 N   0  0  0  0  0  0  0  0  0  0  0  0
   21.6931  -21.8008  -12.1024 C   0  0  0  0  0  0  0  0  0  0  0  0
   20.8106  -21.5953  -10.9363 C   0  0  0  0  0  0  0  0  0  0  0  0
   19.9962  -20.6685  -10.9267 O   0  0  0  0  0  0  0  0  0  0  0  0
   20.9078  -22.4494   -9.8590 O   0  0  0  0  0  0  0  0  0  0  0  0
  2 13  1  0
  2  1  1  6
  3  2  1  0
  4  3  1  0
  5  4  2  0
  6  5  1  0
  7  6  1  0
  7 12  2  0
  8  7  1  0
  9  8  2  0
  9 10  1  0
 10 11  2  0
 11 12  1  0
 12  4  1  0
 13 14  2  0
 15 16  1  0
 15 13  1  0
 16 17  1  1
 18 17  1  0
 19 18  2  0
 20 19  1  0
 21 20  1  0
 21 26  2  0
 22 21  1  0
 23 22  2  0
 23 24  1  0
 24 25  2  0
 25 26  1  0
 26 18  1  0
 27 28  2  0
 27 16  1  0
 29 27  1  0
 30 29  1  0
 31 30  1  0
 32 31  2  0
 33 31  1  0
M  END
$$$$
