WWG.pdb
     RDKit          3D

 33 36  0  0  1  0  0  0  0  0999 V2000
   26.5989  -20.4404  -12.7390 N   0  0  0  0  0  0  0  0  0  0  0  0
   25.4880  -20.3269  -11.8371 C   0  0  1  0  0  0  0  0  0  0  0  0
   24.2443  -20.8652  -12.4983 C   0  0  0  0  0  0  0  0  0  0  0  0
   23.8345  -20.0347  -13.6473 C   0  0  0  0  0  0  0  0  0  0  0  0
   24.2909  -20.0264  -14.9262 C   0  0  0  0  0  0  0  0  0  0  0  0
   23.6413  -19.0884  -15.6387 N   0  0  0  0  0  0  0  0  0  0  0  0
   22.7650  -18.4929  -14.8157 C   0  0  0  0  0  0  0  0  0  0  0  0
   21.8584  -17.4572  -15.0656 C   0  0  0  0  0  0  0  0  0  0  0  0
   21.0695  -17.0267  -14.0300 C   0  0  0  0  0  0  0  0  0  0  0  0
   21.1576  -17.5901  -12.7730 C   0  0  0  0  0  0  0  0  0  0  0  0
   22.0471  -18.6048  -12.5312 C   0  0  0  0  0  0  0  0  0  0  0  0
   22.8474  -19.0461  -13.5703 C   0  0  0  0  0  0  0  0  0  0  0  0
   25.7169  -21.1049  -10.6052 C   0  0  0  0  0  0  0  0  0  0  0  0
   26.0940  -22.3299  -10.6639 O   0  0  0  0  0  0  0  0  0  0  0  0
   25.5459  -20.6026   -9.2626 N   0  0  0  0  0  0  0  0  0  0  0  0
   25.0759  -21.4729   -8.2149 C   0  0  1  0  0  0  0  0  0  0  0  0
   25.7633  -21.3492   -6.9216 C   0  0  0  0  0  0  0  0  0  0  0  0
   26.7620  -20.3037   -6.7730 C   0  0  0  0  0  0  0  0  0  0  0  0
   26.8551  -19.1940   -7.6201 C   0  0  0  0  0  0  0  0  0  0  0  0
   27.8919  -18.4448   -7.2349 N   0  0  0  0  0  0  0  0  0  0  0  0
   28.5025  -19.0064   -6.1589 C   0  0  0  0  0  0  0  0  0  0  0  0
   29.5854  -18.6059   -5.4119 C   0  0  0  0  0  0  0  0  0  0  0  0
   29.9779  -19.3731   -4.3518 C   0  0  0  0  0  0  0  0  0  0  0  0
   29.2923  -20.5230   -4.0494 C   0  0  0  0  0  0  0  0  0  0  0  0
   28.2195  -20.9006   -4.8086 C   0  0  0  0  0  0  0  0  0  0  0  0
   27.7843  -20.1704   -5.8797 C   0  0  0  0  0  0  0  0  0  0  0  0
   23.5721  -21.2874   -8.0481 C   0  0  0  0  0  0  0  0  0  0  0  0
   23.1144  -20.1474   -8.2317 O   0  0  0  0  0  0  0  0  0  0  0  0
   22.7374  -22.3684   -7.6989 N   0  0  0  0  0  0  0  0  0  0  0  0
   21.9409  -22.4240   -6.5006 C   0  0  0  0  0  0  0  0  0  0  0  0
   20.6172  -23.0398   -6.7227 C   0  0  0  0  0  0  0  0  0  0  0  0
   20.2931  -23.4322   -7.8467 O   0  0  0  0  0  0  0  0  0  0  0  0
   19.7480  -23.1701   -5.6611 O   0  0  0  0  0  0  0  0  0  0  0  0
  2 13  1  0
  2  1  1  6
  3  2  1  0
  4  3  1  0
  5  4  2  0
  6  5  1  0
  7  6  1  0
  7 12  2  0
  8  7  1  0
  9  8  2  0
  9 10  1  0
 10 11  2  0
 11 12  1  0
 12  4  1  0
 13 14  2  0
 15 16  1  0
 15 13  1  0
 16 17  1  1
 18 17  1  0
 19 18  2  0
 20 19  1  0
 21 20  1  0
 21 26  2  0
 22 21  1  0
 23 22  2  0
 23 24  1  0
 24 25  2  0
 25 26  1  0
 26 18  1  0
 27 28  2  0
 27 16  1  0
 29 27  1  0
 30 29  1  0
 31 30  1  0
 32 31  2  0
 33 31  1  0
M  END
$$$$
