WWG.pdb
     RDKit          3D

 33 36  0  0  1  0  0  0  0  0999 V2000
   26.6951  -20.5040  -15.5526 N   0  0  0  0  0  0  0  0  0  0  0  0
   25.5243  -20.0379  -14.8655 C   0  0  1  0  0  0  0  0  0  0  0  0
   24.3073  -20.2764  -15.7233 C   0  0  0  0  0  0  0  0  0  0  0  0
   24.2479  -19.3360  -16.8589 C   0  0  0  0  0  0  0  0  0  0  0  0
   24.6200  -19.5052  -18.1539 C   0  0  0  0  0  0  0  0  0  0  0  0
   24.4042  -18.3714  -18.8449 N   0  0  0  0  0  0  0  0  0  0  0  0
   23.8916  -17.4716  -17.9920 C   0  0  0  0  0  0  0  0  0  0  0  0
   23.5005  -16.1465  -18.2115 C   0  0  0  0  0  0  0  0  0  0  0  0
   23.0047  -15.4359  -17.1488 C   0  0  0  0  0  0  0  0  0  0  0  0
   22.8897  -15.9997  -15.8941 C   0  0  0  0  0  0  0  0  0  0  0  0
   23.2739  -17.2985  -15.6821 C   0  0  0  0  0  0  0  0  0  0  0  0
   23.7754  -18.0236  -16.7487 C   0  0  0  0  0  0  0  0  0  0  0  0
   25.3279  -20.7580  -13.5933 C   0  0  0  0  0  0  0  0  0  0  0  0
   25.2666  -22.0394  -13.5680 O   0  0  0  0  0  0  0  0  0  0  0  0
   25.1844  -20.1335  -12.2997 N   0  0  0  0  0  0  0  0  0  0  0  0
   24.7218  -20.8988  -11.1701 C   0  0  1  0  0  0  0  0  0  0  0  0
   25.2677  -20.5069   -9.8629 C   0  0  0  0  0  0  0  0  0  0  0  0
   26.6756  -20.7589   -9.6041 C   0  0  0  0  0  0  0  0  0  0  0  0
   27.5051  -21.4839  -10.4667 C   0  0  0  0  0  0  0  0  0  0  0  0
   28.7243  -21.5616   -9.9265 N   0  0  0  0  0  0  0  0  0  0  0  0
   28.7500  -20.9158   -8.7313 C   0  0  0  0  0  0  0  0  0  0  0  0
   29.7637  -20.7147   -7.8241 C   0  0  0  0  0  0  0  0  0  0  0  0
   29.5044  -19.9976   -6.6905 C   0  0  0  0  0  0  0  0  0  0  0  0
   28.2467  -19.4924   -6.4742 C   0  0  0  0  0  0  0  0  0  0  0  0
   27.2551  -19.7075   -7.3909 C   0  0  0  0  0  0  0  0  0  0  0  0
   27.4599  -20.4174   -8.5416 C   0  0  0  0  0  0  0  0  0  0  0  0
   23.1977  -20.8833  -11.1463 C   0  0  0  0  0  0  0  0  0  0  0  0
   22.6480  -20.3996  -10.1430 O   0  0  0  0  0  0  0  0  0  0  0  0
   22.4454  -21.3987  -12.2213 N   0  0  0  0  0  0  0  0  0  0  0  0
   21.0065  -21.4071  -12.2740 C   0  0  0  0  0  0  0  0  0  0  0  0
   20.4519  -22.7534  -12.5207 C   0  0  0  0  0  0  0  0  0  0  0  0
   21.1865  -23.6710  -12.8957 O   0  0  0  0  0  0  0  0  0  0  0  0
   19.1048  -22.9727  -12.3284 O   0  0  0  0  0  0  0  0  0  0  0  0
  2 13  1  0
  2  1  1  6
  3  2  1  0
  4  3  1  0
  5  4  2  0
  6  5  1  0
  7  6  1  0
  7 12  2  0
  8  7  1  0
  9  8  2  0
  9 10  1  0
 10 11  2  0
 11 12  1  0
 12  4  1  0
 13 14  2  0
 15 16  1  0
 15 13  1  0
 16 17  1  1
 18 17  1  0
 19 18  2  0
 20 19  1  0
 21 20  1  0
 21 26  2  0
 22 21  1  0
 23 22  2  0
 23 24  1  0
 24 25  2  0
 25 26  1  0
 26 18  1  0
 27 28  2  0
 27 16  1  0
 29 27  1  0
 30 29  1  0
 31 30  1  0
 32 31  2  0
 33 31  1  0
M  END
$$$$
