WWG.pdb
     RDKit          3D

 33 36  0  0  1  0  0  0  0  0999 V2000
   27.8404  -20.7981   -9.2816 N   0  0  0  0  0  0  0  0  0  0  0  0
   26.4176  -20.9336   -9.1484 C   0  0  1  0  0  0  0  0  0  0  0  0
   25.9182  -19.9891   -8.0843 C   0  0  0  0  0  0  0  0  0  0  0  0
   27.0309  -19.3777   -7.3321 C   0  0  0  0  0  0  0  0  0  0  0  0
   27.8072  -18.3061   -7.6372 C   0  0  0  0  0  0  0  0  0  0  0  0
   28.7187  -18.1093   -6.6676 N   0  0  0  0  0  0  0  0  0  0  0  0
   28.5272  -19.0564   -5.7369 C   0  0  0  0  0  0  0  0  0  0  0  0
   29.2112  -19.2908   -4.5393 C   0  0  0  0  0  0  0  0  0  0  0  0
   28.8082  -20.3462   -3.7623 C   0  0  0  0  0  0  0  0  0  0  0  0
   27.7599  -21.1613   -4.1393 C   0  0  0  0  0  0  0  0  0  0  0  0
   27.0917  -20.9291   -5.3136 C   0  0  0  0  0  0  0  0  0  0  0  0
   27.4912  -19.8661   -6.1043 C   0  0  0  0  0  0  0  0  0  0  0  0
   25.7276  -20.5994  -10.4084 C   0  0  0  0  0  0  0  0  0  0  0  0
   25.6645  -19.3855  -10.8192 O   0  0  0  0  0  0  0  0  0  0  0  0
   25.0741  -21.5515  -11.2746 N   0  0  0  0  0  0  0  0  0  0  0  0
   24.3846  -21.1042  -12.4579 C   0  0  1  0  0  0  0  0  0  0  0  0
   25.0154  -21.4539  -13.7386 C   0  0  0  0  0  0  0  0  0  0  0  0
   26.2850  -20.8293  -14.0710 C   0  0  0  0  0  0  0  0  0  0  0  0
   27.5292  -21.3819  -13.7480 C   0  0  0  0  0  0  0  0  0  0  0  0
   28.4894  -20.5504  -14.1615 N   0  0  0  0  0  0  0  0  0  0  0  0
   27.9408  -19.4569  -14.7525 C   0  0  0  0  0  0  0  0  0  0  0  0
   28.5130  -18.3507  -15.3356 C   0  0  0  0  0  0  0  0  0  0  0  0
   27.7019  -17.3945  -15.8778 C   0  0  0  0  0  0  0  0  0  0  0  0
   26.3388  -17.5492  -15.8334 C   0  0  0  0  0  0  0  0  0  0  0  0
   25.7940  -18.6576  -15.2465 C   0  0  0  0  0  0  0  0  0  0  0  0
   26.5589  -19.6446  -14.6891 C   0  0  0  0  0  0  0  0  0  0  0  0
   22.9429  -21.5973  -12.4127 C   0  0  0  0  0  0  0  0  0  0  0  0
   22.5745  -22.1884  -11.3843 O   0  0  0  0  0  0  0  0  0  0  0  0
   22.0658  -21.3896  -13.4966 N   0  0  0  0  0  0  0  0  0  0  0  0
   21.1414  -20.2899  -13.5928 C   0  0  0  0  0  0  0  0  0  0  0  0
   19.8939  -20.5247  -12.8382 C   0  0  0  0  0  0  0  0  0  0  0  0
   19.0401  -19.6381  -12.7539 O   0  0  0  0  0  0  0  0  0  0  0  0
   19.6950  -21.7446  -12.2283 O   0  0  0  0  0  0  0  0  0  0  0  0
  2 13  1  0
  2  1  1  6
  3  2  1  0
  4  3  1  0
  5  4  2  0
  6  5  1  0
  7  6  1  0
  7 12  2  0
  8  7  1  0
  9  8  2  0
  9 10  1  0
 10 11  2  0
 11 12  1  0
 12  4  1  0
 13 14  2  0
 15 16  1  0
 15 13  1  0
 16 17  1  6
 18 17  1  0
 19 18  2  0
 20 19  1  0
 21 20  1  0
 21 26  2  0
 22 21  1  0
 23 22  2  0
 23 24  1  0
 24 25  2  0
 25 26  1  0
 26 18  1  0
 27 28  2  0
 27 16  1  0
 29 27  1  0
 30 29  1  0
 31 30  1  0
 32 31  2  0
 33 31  1  0
M  END
$$$$
