WWG.pdb
     RDKit          3D

 33 36  0  0  1  0  0  0  0  0999 V2000
   26.7992  -19.2557  -12.1513 N   0  0  0  0  0  0  0  0  0  0  0  0
   26.5623  -20.6123  -12.5560 C   0  0  1  0  0  0  0  0  0  0  0  0
   25.7696  -21.3257  -11.4900 C   0  0  0  0  0  0  0  0  0  0  0  0
   26.3328  -21.0954  -10.1457 C   0  0  0  0  0  0  0  0  0  0  0  0
   25.7114  -20.7788   -8.9805 C   0  0  0  0  0  0  0  0  0  0  0  0
   26.6203  -20.6446   -7.9979 N   0  0  0  0  0  0  0  0  0  0  0  0
   27.8286  -20.8761   -8.5329 C   0  0  0  0  0  0  0  0  0  0  0  0
   29.0940  -20.8569   -7.9366 C   0  0  0  0  0  0  0  0  0  0  0  0
   30.1824  -21.1300   -8.7246 C   0  0  0  0  0  0  0  0  0  0  0  0
   30.0472  -21.4168  -10.0680 C   0  0  0  0  0  0  0  0  0  0  0  0
   28.8059  -21.4348  -10.6494 C   0  0  0  0  0  0  0  0  0  0  0  0
   27.7014  -21.1605   -9.8621 C   0  0  0  0  0  0  0  0  0  0  0  0
   25.7868  -20.6694  -13.8093 C   0  0  0  0  0  0  0  0  0  0  0  0
   24.8535  -19.8202  -14.0420 O   0  0  0  0  0  0  0  0  0  0  0  0
   25.9774  -21.6413  -14.8596 N   0  0  0  0  0  0  0  0  0  0  0  0
   25.6033  -21.3294  -16.2156 C   0  0  1  0  0  0  0  0  0  0  0  0
   26.6587  -20.7419  -17.0531 C   0  0  0  0  0  0  0  0  0  0  0  0
   27.2786  -19.5049  -16.6080 C   0  0  0  0  0  0  0  0  0  0  0  0
   28.6037  -19.4163  -16.1674 C   0  0  0  0  0  0  0  0  0  0  0  0
   28.8515  -18.1558  -15.8011 N   0  0  0  0  0  0  0  0  0  0  0  0
   27.7438  -17.3892  -15.9782 C   0  0  0  0  0  0  0  0  0  0  0  0
   27.5154  -16.0509  -15.7593 C   0  0  0  0  0  0  0  0  0  0  0  0
   26.2844  -15.5339  -16.0486 C   0  0  0  0  0  0  0  0  0  0  0  0
   25.3008  -16.3500  -16.5491 C   0  0  0  0  0  0  0  0  0  0  0  0
   25.5524  -17.6780  -16.7564 C   0  0  0  0  0  0  0  0  0  0  0  0
   26.7658  -18.2470  -16.4845 C   0  0  0  0  0  0  0  0  0  0  0  0
   25.0221  -22.5758  -16.8730 C   0  0  0  0  0  0  0  0  0  0  0  0
   25.7725  -23.5579  -16.9964 O   0  0  0  0  0  0  0  0  0  0  0  0
   23.6864  -22.6090  -17.3223 N   0  0  0  0  0  0  0  0  0  0  0  0
   23.0809  -23.7353  -17.9843 C   0  0  0  0  0  0  0  0  0  0  0  0
   23.6487  -23.9828  -19.3249 C   0  0  0  0  0  0  0  0  0  0  0  0
   24.4144  -24.9320  -19.5119 O   0  0  0  0  0  0  0  0  0  0  0  0
   23.3146  -23.1410  -20.3638 O   0  0  0  0  0  0  0  0  0  0  0  0
  2 13  1  0
  2  1  1  1
  3  2  1  0
  4  3  1  0
  5  4  2  0
  6  5  1  0
  7  6  1  0
  7 12  2  0
  8  7  1  0
  9  8  2  0
  9 10  1  0
 10 11  2  0
 11 12  1  0
 12  4  1  0
 13 14  2  0
 15 16  1  0
 15 13  1  0
 16 17  1  6
 18 17  1  0
 19 18  2  0
 20 19  1  0
 21 20  1  0
 21 26  2  0
 22 21  1  0
 23 22  2  0
 23 24  1  0
 24 25  2  0
 25 26  1  0
 26 18  1  0
 27 28  2  0
 27 16  1  0
 29 27  1  0
 30 29  1  0
 31 30  1  0
 32 31  2  0
 33 31  1  0
M  END
$$$$
