WWG.pdb
     RDKit          3D

 33 36  0  0  1  0  0  0  0  0999 V2000
   25.5705  -18.8442   -8.2383 N   0  0  0  0  0  0  0  0  0  0  0  0
   26.4109  -19.8212   -8.8704 C   0  0  1  0  0  0  0  0  0  0  0  0
   26.1511  -21.1776   -8.2651 C   0  0  0  0  0  0  0  0  0  0  0  0
   26.3708  -21.1748   -6.8059 C   0  0  0  0  0  0  0  0  0  0  0  0
   25.5587  -21.5886   -5.7992 C   0  0  0  0  0  0  0  0  0  0  0  0
   26.1589  -21.3850   -4.6128 N   0  0  0  0  0  0  0  0  0  0  0  0
   27.3599  -20.8395   -4.8576 C   0  0  0  0  0  0  0  0  0  0  0  0
   28.3624  -20.4373   -3.9686 C   0  0  0  0  0  0  0  0  0  0  0  0
   29.5093  -19.8974   -4.4912 C   0  0  0  0  0  0  0  0  0  0  0  0
   29.6822  -19.7493   -5.8526 C   0  0  0  0  0  0  0  0  0  0  0  0
   28.6980  -20.1442   -6.7213 C   0  0  0  0  0  0  0  0  0  0  0  0
   27.5369  -20.6904   -6.2031 C   0  0  0  0  0  0  0  0  0  0  0  0
   26.1331  -19.9114  -10.3161 C   0  0  0  0  0  0  0  0  0  0  0  0
   24.9323  -19.8243  -10.7596 O   0  0  0  0  0  0  0  0  0  0  0  0
   27.1300  -20.1035  -11.3424 N   0  0  0  0  0  0  0  0  0  0  0  0
   26.8524  -19.7277  -12.7053 C   0  0  1  0  0  0  0  0  0  0  0  0
   28.0238  -19.4111  -13.5347 C   0  0  0  0  0  0  0  0  0  0  0  0
   27.8027  -19.0543  -14.9262 C   0  0  0  0  0  0  0  0  0  0  0  0
   27.2692  -17.8278  -15.3371 C   0  0  0  0  0  0  0  0  0  0  0  0
   27.1648  -17.8288  -16.6688 N   0  0  0  0  0  0  0  0  0  0  0  0
   27.6084  -19.0098  -17.1734 C   0  0  0  0  0  0  0  0  0  0  0  0
   27.7091  -19.4701  -18.4653 C   0  0  0  0  0  0  0  0  0  0  0  0
   28.2188  -20.7184  -18.6850 C   0  0  0  0  0  0  0  0  0  0  0  0
   28.6197  -21.4895  -17.6226 C   0  0  0  0  0  0  0  0  0  0  0  0
   28.5079  -21.0097  -16.3471 C   0  0  0  0  0  0  0  0  0  0  0  0
   28.0053  -19.7683  -16.0708 C   0  0  0  0  0  0  0  0  0  0  0  0
   26.0034  -20.8116  -13.3596 C   0  0  0  0  0  0  0  0  0  0  0  0
   26.2739  -21.9920  -13.0833 O   0  0  0  0  0  0  0  0  0  0  0  0
   24.9547  -20.4840  -14.2427 N   0  0  0  0  0  0  0  0  0  0  0  0
   24.1206  -21.4522  -14.9062 C   0  0  0  0  0  0  0  0  0  0  0  0
   22.7612  -21.5228  -14.3336 C   0  0  0  0  0  0  0  0  0  0  0  0
   22.0418  -20.5206  -14.3105 O   0  0  0  0  0  0  0  0  0  0  0  0
   22.3058  -22.7199  -13.8247 O   0  0  0  0  0  0  0  0  0  0  0  0
  2 13  1  0
  2  1  1  1
  3  2  1  0
  4  3  1  0
  5  4  2  0
  6  5  1  0
  7  6  1  0
  7 12  2  0
  8  7  1  0
  9  8  2  0
  9 10  1  0
 10 11  2  0
 11 12  1  0
 12  4  1  0
 13 14  2  0
 15 16  1  0
 15 13  1  0
 16 17  1  6
 18 17  1  0
 19 18  2  0
 20 19  1  0
 21 20  1  0
 21 26  2  0
 22 21  1  0
 23 22  2  0
 23 24  1  0
 24 25  2  0
 25 26  1  0
 26 18  1  0
 27 28  2  0
 27 16  1  0
 29 27  1  0
 30 29  1  0
 31 30  1  0
 32 31  2  0
 33 31  1  0
M  END
$$$$
