WWG.pdb
     RDKit          3D

 33 36  0  0  1  0  0  0  0  0999 V2000
   27.3921  -16.7655  -14.2888 N   0  0  0  0  0  0  0  0  0  0  0  0
   26.2640  -17.6376  -14.4530 C   0  0  1  0  0  0  0  0  0  0  0  0
   25.7466  -17.5329  -15.8655 C   0  0  0  0  0  0  0  0  0  0  0  0
   25.1825  -16.1977  -16.1420 C   0  0  0  0  0  0  0  0  0  0  0  0
   25.7967  -15.0564  -16.5473 C   0  0  0  0  0  0  0  0  0  0  0  0
   24.8944  -14.0650  -16.6595 N   0  0  0  0  0  0  0  0  0  0  0  0
   23.6973  -14.5707  -16.3260 C   0  0  0  0  0  0  0  0  0  0  0  0
   22.4431  -13.9530  -16.2764 C   0  0  0  0  0  0  0  0  0  0  0  0
   21.3661  -14.7099  -15.8927 C   0  0  0  0  0  0  0  0  0  0  0  0
   21.5019  -16.0433  -15.5625 C   0  0  0  0  0  0  0  0  0  0  0  0
   22.7323  -16.6458  -15.6121 C   0  0  0  0  0  0  0  0  0  0  0  0
   23.8251  -15.8898  -15.9982 C   0  0  0  0  0  0  0  0  0  0  0  0
   26.6352  -19.0445  -14.2116 C   0  0  0  0  0  0  0  0  0  0  0  0
   27.7692  -19.4998  -14.6030 O   0  0  0  0  0  0  0  0  0  0  0  0
   25.8043  -20.0196  -13.5461 N   0  0  0  0  0  0  0  0  0  0  0  0
   26.3284  -21.3223  -13.2232 C   0  0  1  0  0  0  0  0  0  0  0  0
   27.3327  -21.3618  -12.1507 C   0  0  0  0  0  0  0  0  0  0  0  0
   26.9368  -20.9208  -10.8236 C   0  0  0  0  0  0  0  0  0  0  0  0
   25.6421  -20.4999  -10.5004 C   0  0  0  0  0  0  0  0  0  0  0  0
   25.6176  -20.1319   -9.2165 N   0  0  0  0  0  0  0  0  0  0  0  0
   26.8471  -20.2888   -8.6598 C   0  0  0  0  0  0  0  0  0  0  0  0
   27.3074  -20.0607   -7.3842 C   0  0  0  0  0  0  0  0  0  0  0  0
   28.6153  -20.3290   -7.0950 C   0  0  0  0  0  0  0  0  0  0  0  0
   29.4450  -20.8182   -8.0729 C   0  0  0  0  0  0  0  0  0  0  0  0
   28.9636  -21.0350   -9.3342 C   0  0  0  0  0  0  0  0  0  0  0  0
   27.6640  -20.7840   -9.6777 C   0  0  0  0  0  0  0  0  0  0  0  0
   25.1704  -22.2645  -12.9147 C   0  0  0  0  0  0  0  0  0  0  0  0
   24.4715  -22.0029  -11.9218 O   0  0  0  0  0  0  0  0  0  0  0  0
   24.9065  -23.3869  -13.7256 N   0  0  0  0  0  0  0  0  0  0  0  0
   25.5772  -23.6650  -14.9691 C   0  0  0  0  0  0  0  0  0  0  0  0
   25.2382  -24.9942  -15.5160 C   0  0  0  0  0  0  0  0  0  0  0  0
   24.1715  -25.1699  -16.1108 O   0  0  0  0  0  0  0  0  0  0  0  0
   26.1259  -26.0359  -15.3536 O   0  0  0  0  0  0  0  0  0  0  0  0
  2 13  1  0
  2  1  1  6
  3  2  1  0
  4  3  1  0
  5  4  2  0
  6  5  1  0
  7  6  1  0
  7 12  2  0
  8  7  1  0
  9  8  2  0
  9 10  1  0
 10 11  2  0
 11 12  1  0
 12  4  1  0
 13 14  2  0
 15 16  1  0
 15 13  1  0
 16 17  1  1
 18 17  1  0
 19 18  2  0
 20 19  1  0
 21 20  1  0
 21 26  2  0
 22 21  1  0
 23 22  2  0
 23 24  1  0
 24 25  2  0
 25 26  1  0
 26 18  1  0
 27 28  2  0
 27 16  1  0
 29 27  1  0
 30 29  1  0
 31 30  1  0
 32 31  2  0
 33 31  1  0
M  END
$$$$
