HHI.pdb
     RDKit          3D

 29 30  0  0  1  0  0  0  0  0999 V2000
    8.1700  -17.0536   18.7759 N   0  0  0  0  0  0  0  0  0  0  0  0
    8.0472  -15.9768   19.7208 C   0  0  1  0  0  0  0  0  0  0  0  0
    7.1601  -14.9037   19.1756 C   0  0  0  0  0  0  0  0  0  0  0  0
    7.6166  -14.2995   17.9154 C   0  0  0  0  0  0  0  0  0  0  0  0
    8.3614  -13.1576   17.7219 C   0  0  0  0  0  0  0  0  0  0  0  0
    8.5296  -12.9818   16.4011 N   0  0  0  0  0  0  0  0  0  0  0  0
    7.9076  -13.9854   15.7853 C   0  0  0  0  0  0  0  0  0  0  0  0
    7.3458  -14.7974   16.6977 N   0  0  0  0  0  0  0  0  0  0  0  0
    7.6884  -16.4022   21.0911 C   0  0  0  0  0  0  0  0  0  0  0  0
    6.4434  -16.5695   21.3315 O   0  0  0  0  0  0  0  0  0  0  0  0
    8.5640  -16.6389   22.1529 N   0  0  0  0  0  0  0  0  0  0  0  0
    8.2395  -16.9838   23.5028 C   0  0  1  0  0  0  0  0  0  0  0  0
    8.4453  -18.4017   23.8890 C   0  0  0  0  0  0  0  0  0  0  0  0
    7.9449  -18.6751   25.2519 C   0  0  0  0  0  0  0  0  0  0  0  0
    6.6640  -18.5664   25.7177 C   0  0  0  0  0  0  0  0  0  0  0  0
    6.6966  -18.9188   27.0130 N   0  0  0  0  0  0  0  0  0  0  0  0
    7.9300  -19.2425   27.3836 C   0  0  0  0  0  0  0  0  0  0  0  0
    8.7057  -19.0869   26.2735 N   0  0  0  0  0  0  0  0  0  0  0  0
    8.9529  -16.0700   24.4377 C   0  0  0  0  0  0  0  0  0  0  0  0
   10.1940  -15.8670   24.3713 O   0  0  0  0  0  0  0  0  0  0  0  0
    6.0569  -11.7794   26.0335 C   0  0  0  0  0  0  0  0  0  0  0  0
    7.1622  -12.6791   25.5376 C   0  0  0  0  0  0  0  0  0  0  0  0
    7.8107  -13.3372   26.7214 C   0  0  2  0  0  0  0  0  0  0  0  0
    8.5388  -12.3302   27.5942 C   0  0  0  0  0  0  0  0  0  0  0  0
    8.8156  -14.3933   26.3096 C   0  0  2  0  0  0  0  0  0  0  0  0
    8.2270  -15.3907   25.4495 N   0  0  0  0  0  0  0  0  0  0  0  0
    9.2939  -15.0527   27.5428 C   0  0  0  0  0  0  0  0  0  0  0  0
   10.2364  -14.6237   28.2567 O   0  0  0  0  0  0  0  0  0  0  0  0
    8.6791  -16.2203   27.9581 O   0  0  0  0  0  0  0  0  0  0  0  0
  2  9  1  0
  2  1  1  6
  3  2  1  0
  4  3  1  0
  4  8  1  0
  5  4  2  0
  6  5  1  0
  6  7  1  0
  7  8  2  0
  9 10  2  0
 11 12  1  0
 11  9  1  0
 13 14  1  0
 12 13  1  1
 14 18  1  0
 15 14  2  0
 15 16  1  0
 16 17  1  0
 18 17  2  0
 19 20  2  0
 19 12  1  0
 22 21  1  0
 22 23  1  0
 23 25  1  0
 23 24  1  6
 25 26  1  6
 25 27  1  0
 26 19  1  0
 27 29  1  0
 28 27  2  0
M  END
$$$$
