HHI.pdb
     RDKit          3D

 29 30  0  0  1  0  0  0  0  0999 V2000
    8.9933  -16.5488   18.8445 N   0  0  0  0  0  0  0  0  0  0  0  0
    8.2923  -15.4948   19.5265 C   0  0  1  0  0  0  0  0  0  0  0  0
    7.1841  -14.9680   18.6721 C   0  0  0  0  0  0  0  0  0  0  0  0
    7.5512  -14.6960   17.2747 C   0  0  0  0  0  0  0  0  0  0  0  0
    7.7321  -15.5839   16.2378 C   0  0  0  0  0  0  0  0  0  0  0  0
    8.0746  -14.8884   15.1411 N   0  0  0  0  0  0  0  0  0  0  0  0
    8.1071  -13.6016   15.4820 C   0  0  0  0  0  0  0  0  0  0  0  0
    7.7897  -13.4696   16.7816 N   0  0  0  0  0  0  0  0  0  0  0  0
    7.8697  -15.8311   20.9034 C   0  0  0  0  0  0  0  0  0  0  0  0
    6.8640  -15.1909   21.3664 O   0  0  0  0  0  0  0  0  0  0  0  0
    8.4531  -16.7723   21.7543 N   0  0  0  0  0  0  0  0  0  0  0  0
    8.0551  -17.1266   23.0819 C   0  0  1  0  0  0  0  0  0  0  0  0
    8.2148  -18.5525   23.4600 C   0  0  0  0  0  0  0  0  0  0  0  0
    7.8201  -18.7933   24.8632 C   0  0  0  0  0  0  0  0  0  0  0  0
    8.6303  -18.9211   25.9573 C   0  0  0  0  0  0  0  0  0  0  0  0
    7.8225  -19.1291   27.0095 N   0  0  0  0  0  0  0  0  0  0  0  0
    6.5491  -19.1384   26.6329 C   0  0  0  0  0  0  0  0  0  0  0  0
    6.5571  -18.9272   25.2862 N   0  0  0  0  0  0  0  0  0  0  0  0
    8.7376  -16.2375   24.0625 C   0  0  0  0  0  0  0  0  0  0  0  0
    9.9585  -15.9417   23.9732 O   0  0  0  0  0  0  0  0  0  0  0  0
    5.8323  -12.0828   25.9753 C   0  0  0  0  0  0  0  0  0  0  0  0
    6.9675  -12.9191   25.4378 C   0  0  0  0  0  0  0  0  0  0  0  0
    7.5254  -13.7462   26.5601 C   0  0  2  0  0  0  0  0  0  0  0  0
    8.1818  -12.8816   27.6219 C   0  0  0  0  0  0  0  0  0  0  0  0
    8.5618  -14.7402   26.0778 C   0  0  2  0  0  0  0  0  0  0  0  0
    8.0045  -15.6907   25.1467 N   0  0  0  0  0  0  0  0  0  0  0  0
    9.0575  -15.4715   27.2627 C   0  0  0  0  0  0  0  0  0  0  0  0
    9.9822  -15.0644   28.0119 O   0  0  0  0  0  0  0  0  0  0  0  0
    8.4811  -16.6863   27.5879 O   0  0  0  0  0  0  0  0  0  0  0  0
  2  9  1  0
  2  1  1  6
  3  2  1  0
  4  3  1  0
  4  8  1  0
  5  4  2  0
  6  5  1  0
  6  7  1  0
  7  8  2  0
  9 10  2  0
 11 12  1  0
 11  9  1  0
 13 14  1  0
 12 13  1  1
 14 18  1  0
 15 14  2  0
 15 16  1  0
 16 17  1  0
 18 17  2  0
 19 20  2  0
 19 12  1  0
 22 21  1  0
 22 23  1  0
 23 25  1  0
 23 24  1  1
 25 26  1  6
 25 27  1  0
 26 19  1  0
 27 29  1  0
 28 27  2  0
M  END
$$$$
