HHI.pdb
     RDKit          3D

 29 30  0  0  1  0  0  0  0  0999 V2000
    9.9110  -17.0682   18.5050 N   0  0  0  0  0  0  0  0  0  0  0  0
   10.4016  -16.4586   19.7113 C   0  0  1  0  0  0  0  0  0  0  0  0
   10.9108  -15.0813   19.4294 C   0  0  0  0  0  0  0  0  0  0  0  0
   12.3751  -14.9523   19.4040 C   0  0  0  0  0  0  0  0  0  0  0  0
   13.2988  -15.6999   18.7082 C   0  0  0  0  0  0  0  0  0  0  0  0
   14.5244  -15.2335   18.9983 N   0  0  0  0  0  0  0  0  0  0  0  0
   14.3720  -14.2225   19.8515 C   0  0  0  0  0  0  0  0  0  0  0  0
   13.0651  -14.0399   20.1079 N   0  0  0  0  0  0  0  0  0  0  0  0
    9.4649  -16.5211   20.8541 C   0  0  0  0  0  0  0  0  0  0  0  0
    8.2744  -16.1044   20.6425 O   0  0  0  0  0  0  0  0  0  0  0  0
    9.7418  -16.9847   22.1420 N   0  0  0  0  0  0  0  0  0  0  0  0
    8.8463  -17.0888   23.2528 C   0  0  1  0  0  0  0  0  0  0  0  0
    8.6048  -18.4547   23.7797 C   0  0  0  0  0  0  0  0  0  0  0  0
    7.8866  -19.2984   22.8024 C   0  0  0  0  0  0  0  0  0  0  0  0
    6.5463  -19.3226   22.5331 C   0  0  0  0  0  0  0  0  0  0  0  0
    6.3651  -20.2453   21.5746 N   0  0  0  0  0  0  0  0  0  0  0  0
    7.5208  -20.8008   21.2291 C   0  0  0  0  0  0  0  0  0  0  0  0
    8.4688  -20.2013   22.0036 N   0  0  0  0  0  0  0  0  0  0  0  0
    9.2885  -16.1711   24.3391 C   0  0  0  0  0  0  0  0  0  0  0  0
   10.5032  -15.9422   24.5800 O   0  0  0  0  0  0  0  0  0  0  0  0
    5.6826  -12.2569   25.7998 C   0  0  0  0  0  0  0  0  0  0  0  0
    6.9336  -12.9857   25.3742 C   0  0  0  0  0  0  0  0  0  0  0  0
    7.5022  -13.6974   26.5680 C   0  0  2  0  0  0  0  0  0  0  0  0
    7.9943  -12.7209   27.6217 C   0  0  0  0  0  0  0  0  0  0  0  0
    8.6663  -14.5936   26.1990 C   0  0  2  0  0  0  0  0  0  0  0  0
    8.3220  -15.5179   25.1463 N   0  0  0  0  0  0  0  0  0  0  0  0
    9.0309  -15.3641   27.4064 C   0  0  0  0  0  0  0  0  0  0  0  0
    8.5430  -16.4836   27.7076 O   0  0  0  0  0  0  0  0  0  0  0  0
    9.9685  -14.8382   28.2770 O   0  0  0  0  0  0  0  0  0  0  0  0
  2  9  1  0
  2  1  1  6
  3  2  1  0
  4  3  1  0
  4  8  1  0
  5  4  2  0
  6  5  1  0
  6  7  1  0
  7  8  2  0
  9 10  2  0
 11 12  1  0
 11  9  1  0
 13 14  1  0
 12 13  1  1
 14 18  1  0
 15 14  2  0
 15 16  1  0
 16 17  1  0
 18 17  2  0
 19 20  2  0
 19 12  1  0
 22 21  1  0
 22 23  1  0
 23 25  1  0
 23 24  1  1
 25 26  1  6
 25 27  1  0
 26 19  1  0
 27 29  1  0
 28 27  2  0
M  END
$$$$
