HHI.pdb
     RDKit          3D

 29 30  0  0  1  0  0  0  0  0999 V2000
   10.4380  -16.8293   18.5157 N   0  0  0  0  0  0  0  0  0  0  0  0
   10.8330  -16.1368   19.7123 C   0  0  1  0  0  0  0  0  0  0  0  0
   11.2297  -14.7308   19.3940 C   0  0  0  0  0  0  0  0  0  0  0  0
   12.6778  -14.5030   19.2818 C   0  0  0  0  0  0  0  0  0  0  0  0
   13.6477  -14.5976   20.2548 C   0  0  0  0  0  0  0  0  0  0  0  0
   14.8321  -14.2887   19.7020 N   0  0  0  0  0  0  0  0  0  0  0  0
   14.6098  -14.0087   18.4193 C   0  0  0  0  0  0  0  0  0  0  0  0
   13.2990  -14.1356   18.1490 N   0  0  0  0  0  0  0  0  0  0  0  0
    9.8674  -16.2414   20.8277 C   0  0  0  0  0  0  0  0  0  0  0  0
    8.6595  -15.9071   20.5730 O   0  0  0  0  0  0  0  0  0  0  0  0
   10.1337  -16.6644   22.1317 N   0  0  0  0  0  0  0  0  0  0  0  0
    9.2026  -16.8776   23.1966 C   0  0  1  0  0  0  0  0  0  0  0  0
    9.0233  -18.2807   23.6449 C   0  0  0  0  0  0  0  0  0  0  0  0
    8.3890  -19.1113   22.6007 C   0  0  0  0  0  0  0  0  0  0  0  0
    8.9963  -19.9340   21.6929 C   0  0  0  0  0  0  0  0  0  0  0  0
    8.0163  -20.4767   20.9527 N   0  0  0  0  0  0  0  0  0  0  0  0
    6.8271  -20.0377   21.3484 C   0  0  0  0  0  0  0  0  0  0  0  0
    7.0703  -19.1825   22.3816 N   0  0  0  0  0  0  0  0  0  0  0  0
    9.5449  -15.9929   24.3447 C   0  0  0  0  0  0  0  0  0  0  0  0
   10.7332  -15.7681   24.6958 O   0  0  0  0  0  0  0  0  0  0  0  0
    5.5677  -12.4092   25.8954 C   0  0  0  0  0  0  0  0  0  0  0  0
    6.8663  -13.0222   25.4317 C   0  0  0  0  0  0  0  0  0  0  0  0
    7.5102  -13.7171   26.5969 C   0  0  2  0  0  0  0  0  0  0  0  0
    7.9068  -12.7361   27.6861 C   0  0  0  0  0  0  0  0  0  0  0  0
    8.7568  -14.4766   26.1925 C   0  0  2  0  0  0  0  0  0  0  0  0
    8.5092  -15.3682   25.0858 N   0  0  0  0  0  0  0  0  0  0  0  0
    9.1851  -15.2763   27.3593 C   0  0  0  0  0  0  0  0  0  0  0  0
    8.6872  -16.3858   27.6801 O   0  0  0  0  0  0  0  0  0  0  0  0
   10.1990  -14.7916   28.1660 O   0  0  0  0  0  0  0  0  0  0  0  0
  2  9  1  0
  2  1  1  6
  3  2  1  0
  4  3  1  0
  4  8  1  0
  5  4  2  0
  6  5  1  0
  6  7  1  0
  7  8  2  0
  9 10  2  0
 11 12  1  0
 11  9  1  0
 13 14  1  0
 12 13  1  1
 14 18  1  0
 15 14  2  0
 15 16  1  0
 16 17  1  0
 18 17  2  0
 19 20  2  0
 19 12  1  0
 22 21  1  0
 22 23  1  0
 23 25  1  0
 23 24  1  1
 25 26  1  6
 25 27  1  0
 26 19  1  0
 27 29  1  0
 28 27  2  0
M  END
$$$$
