HHI.pdb
     RDKit          3D

 29 30  0  0  1  0  0  0  0  0999 V2000
    8.8068  -16.5696   19.2253 N   0  0  0  0  0  0  0  0  0  0  0  0
    8.2825  -15.5066   20.0394 C   0  0  1  0  0  0  0  0  0  0  0  0
    7.2404  -14.7408   19.2888 C   0  0  0  0  0  0  0  0  0  0  0  0
    7.6217  -14.3428   17.9259 C   0  0  0  0  0  0  0  0  0  0  0  0
    8.3841  -13.2711   17.5175 C   0  0  0  0  0  0  0  0  0  0  0  0
    8.4609  -13.2939   16.1769 N   0  0  0  0  0  0  0  0  0  0  0  0
    7.7663  -14.3500   15.7580 C   0  0  0  0  0  0  0  0  0  0  0  0
    7.2485  -14.9993   16.8152 N   0  0  0  0  0  0  0  0  0  0  0  0
    7.8509  -15.9257   21.3905 C   0  0  0  0  0  0  0  0  0  0  0  0
    6.7366  -15.4562   21.8072 O   0  0  0  0  0  0  0  0  0  0  0  0
    8.5315  -16.7783   22.2623 N   0  0  0  0  0  0  0  0  0  0  0  0
    8.1642  -17.1546   23.5927 C   0  0  1  0  0  0  0  0  0  0  0  0
    8.3242  -18.5883   23.9406 C   0  0  0  0  0  0  0  0  0  0  0  0
    7.9869  -18.8483   25.3552 C   0  0  0  0  0  0  0  0  0  0  0  0
    8.8090  -19.3036   26.3485 C   0  0  0  0  0  0  0  0  0  0  0  0
    8.0592  -19.3829   27.4595 N   0  0  0  0  0  0  0  0  0  0  0  0
    6.8109  -19.0016   27.2153 C   0  0  0  0  0  0  0  0  0  0  0  0
    6.7747  -18.6683   25.8940 N   0  0  0  0  0  0  0  0  0  0  0  0
    8.8764  -16.2879   24.5722 C   0  0  0  0  0  0  0  0  0  0  0  0
   10.1178  -16.0829   24.5181 O   0  0  0  0  0  0  0  0  0  0  0  0
    6.1821  -11.9553   26.1488 C   0  0  0  0  0  0  0  0  0  0  0  0
    7.3307  -12.8399   25.7302 C   0  0  0  0  0  0  0  0  0  0  0  0
    7.7959  -13.6183   26.9272 C   0  0  2  0  0  0  0  0  0  0  0  0
    8.5111  -12.7308   27.9305 C   0  0  0  0  0  0  0  0  0  0  0  0
    8.7464  -14.7355   26.5490 C   0  0  2  0  0  0  0  0  0  0  0  0
    8.1491  -15.6579   25.6145 N   0  0  0  0  0  0  0  0  0  0  0  0
    9.0836  -15.4672   27.7881 C   0  0  0  0  0  0  0  0  0  0  0  0
    8.4034  -16.4140   28.2602 O   0  0  0  0  0  0  0  0  0  0  0  0
   10.2179  -15.1035   28.4916 O   0  0  0  0  0  0  0  0  0  0  0  0
  2  9  1  0
  2  1  1  6
  3  2  1  0
  4  3  1  0
  4  8  1  0
  5  4  2  0
  6  5  1  0
  6  7  1  0
  7  8  2  0
  9 10  2  0
 11 12  1  0
 11  9  1  0
 13 14  1  0
 12 13  1  1
 14 18  1  0
 15 14  2  0
 15 16  1  0
 16 17  1  0
 18 17  2  0
 19 20  2  0
 19 12  1  0
 22 21  1  0
 22 23  1  0
 23 25  1  0
 23 24  1  1
 25 26  1  6
 25 27  1  0
 26 19  1  0
 27 29  1  0
 28 27  2  0
M  END
$$$$
