HHI.pdb
     RDKit          3D

 29 30  0  0  1  0  0  0  0  0999 V2000
    9.7480  -15.5313   19.3822 N   0  0  0  0  0  0  0  0  0  0  0  0
    8.7937  -14.7778   20.1497 C   0  0  1  0  0  0  0  0  0  0  0  0
    7.5465  -14.5541   19.3558 C   0  0  0  0  0  0  0  0  0  0  0  0
    7.7591  -14.2801   17.9271 C   0  0  0  0  0  0  0  0  0  0  0  0
    8.1891  -13.1203   17.3220 C   0  0  0  0  0  0  0  0  0  0  0  0
    8.2232  -13.3239   15.9949 N   0  0  0  0  0  0  0  0  0  0  0  0
    7.8256  -14.5757   15.7757 C   0  0  0  0  0  0  0  0  0  0  0  0
    7.5391  -15.1711   16.9464 N   0  0  0  0  0  0  0  0  0  0  0  0
    8.5440  -15.3082   21.5076 C   0  0  0  0  0  0  0  0  0  0  0  0
    7.5567  -14.8052   22.1465 O   0  0  0  0  0  0  0  0  0  0  0  0
    9.2728  -16.2990   22.1689 N   0  0  0  0  0  0  0  0  0  0  0  0
    9.0512  -16.8300   23.4787 C   0  0  1  0  0  0  0  0  0  0  0  0
    9.6125  -18.1770   23.7479 C   0  0  0  0  0  0  0  0  0  0  0  0
    8.9643  -19.2147   22.9200 C   0  0  0  0  0  0  0  0  0  0  0  0
    7.7698  -19.1416   22.2586 C   0  0  0  0  0  0  0  0  0  0  0  0
    7.5992  -20.3237   21.6449 N   0  0  0  0  0  0  0  0  0  0  0  0
    8.6234  -21.1337   21.8867 C   0  0  0  0  0  0  0  0  0  0  0  0
    9.4741  -20.4303   22.6866 N   0  0  0  0  0  0  0  0  0  0  0  0
    9.5114  -15.8490   24.5003 C   0  0  0  0  0  0  0  0  0  0  0  0
   10.6277  -15.2705   24.4295 O   0  0  0  0  0  0  0  0  0  0  0  0
    6.0779  -12.1679   26.0548 C   0  0  0  0  0  0  0  0  0  0  0  0
    7.2945  -12.9732   25.6696 C   0  0  0  0  0  0  0  0  0  0  0  0
    7.8404  -13.6346   26.9024 C   0  0  2  0  0  0  0  0  0  0  0  0
    8.3104  -12.6151   27.9249 C   0  0  0  0  0  0  0  0  0  0  0  0
    9.0126  -14.5427   26.5930 C   0  0  2  0  0  0  0  0  0  0  0  0
    8.6768  -15.5382   25.6044 N   0  0  0  0  0  0  0  0  0  0  0  0
    9.3843  -15.2278   27.8488 C   0  0  0  0  0  0  0  0  0  0  0  0
    8.9087  -16.3304   28.2229 O   0  0  0  0  0  0  0  0  0  0  0  0
   10.3149  -14.6351   28.6834 O   0  0  0  0  0  0  0  0  0  0  0  0
  2  9  1  0
  2  1  1  6
  3  2  1  0
  4  3  1  0
  4  8  1  0
  5  4  2  0
  6  5  1  0
  6  7  1  0
  7  8  2  0
  9 10  2  0
 11 12  1  0
 11  9  1  0
 13 14  1  0
 12 13  1  6
 14 18  1  0
 15 14  2  0
 15 16  1  0
 16 17  1  0
 18 17  2  0
 19 20  2  0
 19 12  1  0
 22 21  1  0
 22 23  1  0
 23 25  1  0
 23 24  1  1
 25 26  1  6
 25 27  1  0
 26 19  1  0
 27 29  1  0
 28 27  2  0
M  END
$$$$
