HHI.pdb
     RDKit          3D

 29 30  0  0  1  0  0  0  0  0999 V2000
    9.0924  -16.1265   19.3635 N   0  0  0  0  0  0  0  0  0  0  0  0
    8.2745  -15.1079   19.9642 C   0  0  1  0  0  0  0  0  0  0  0  0
    7.2074  -14.6682   19.0135 C   0  0  0  0  0  0  0  0  0  0  0  0
    7.6816  -14.3075   17.6694 C   0  0  0  0  0  0  0  0  0  0  0  0
    8.2708  -13.1381   17.2434 C   0  0  0  0  0  0  0  0  0  0  0  0
    8.5269  -13.2484   15.9296 N   0  0  0  0  0  0  0  0  0  0  0  0
    8.1098  -14.4529   15.5443 C   0  0  0  0  0  0  0  0  0  0  0  0
    7.5916  -15.1102   16.5963 N   0  0  0  0  0  0  0  0  0  0  0  0
    7.7649  -15.4465   21.3107 C   0  0  0  0  0  0  0  0  0  0  0  0
    6.9118  -14.6409   21.8197 O   0  0  0  0  0  0  0  0  0  0  0  0
    8.1173  -16.5518   22.0882 N   0  0  0  0  0  0  0  0  0  0  0  0
    7.6810  -16.8732   23.4121 C   0  0  1  0  0  0  0  0  0  0  0  0
    7.7128  -18.3086   23.7868 C   0  0  0  0  0  0  0  0  0  0  0  0
    6.8285  -19.1184   22.9238 C   0  0  0  0  0  0  0  0  0  0  0  0
    5.4618  -19.1193   22.8810 C   0  0  0  0  0  0  0  0  0  0  0  0
    5.1088  -20.0152   21.9453 N   0  0  0  0  0  0  0  0  0  0  0  0
    6.1817  -20.5760   21.3994 C   0  0  0  0  0  0  0  0  0  0  0  0
    7.2550  -20.0079   22.0187 N   0  0  0  0  0  0  0  0  0  0  0  0
    8.4323  -16.0498   24.3998 C   0  0  0  0  0  0  0  0  0  0  0  0
    9.6734  -15.8543   24.3142 O   0  0  0  0  0  0  0  0  0  0  0  0
    6.9408  -11.0603   27.4817 C   0  0  0  0  0  0  0  0  0  0  0  0
    7.9430  -12.1839   27.3806 C   0  0  0  0  0  0  0  0  0  0  0  0
    7.3292  -13.3025   26.5888 C   0  0  2  0  0  0  0  0  0  0  0  0
    6.1419  -13.9153   27.3104 C   0  0  0  0  0  0  0  0  0  0  0  0
    8.3176  -14.4164   26.3112 C   0  0  2  0  0  0  0  0  0  0  0  0
    7.7444  -15.4523   25.4870 N   0  0  0  0  0  0  0  0  0  0  0  0
    8.6995  -15.0028   27.6130 C   0  0  0  0  0  0  0  0  0  0  0  0
    9.3579  -14.3978   28.4976 O   0  0  0  0  0  0  0  0  0  0  0  0
    8.3184  -16.3016   27.8987 O   0  0  0  0  0  0  0  0  0  0  0  0
  2  9  1  0
  2  1  1  6
  3  2  1  0
  4  3  1  0
  4  8  1  0
  5  4  2  0
  6  5  1  0
  6  7  1  0
  7  8  2  0
  9 10  2  0
 11 12  1  0
 11  9  1  0
 13 14  1  0
 12 13  1  1
 14 18  1  0
 15 14  2  0
 15 16  1  0
 16 17  1  0
 18 17  2  0
 19 20  2  0
 19 12  1  0
 22 21  1  0
 22 23  1  0
 23 25  1  0
 23 24  1  1
 25 26  1  6
 25 27  1  0
 26 19  1  0
 27 29  1  0
 28 27  2  0
M  END
$$$$
