HHI.pdb
     RDKit          3D

 29 30  0  0  1  0  0  0  0  0999 V2000
   10.9891  -18.2421   19.8105 N   0  0  0  0  0  0  0  0  0  0  0  0
   11.1015  -17.6728   21.1261 C   0  0  1  0  0  0  0  0  0  0  0  0
   12.5380  -17.4502   21.4766 C   0  0  0  0  0  0  0  0  0  0  0  0
   13.3917  -18.6440   21.3906 C   0  0  0  0  0  0  0  0  0  0  0  0
   13.1025  -19.9432   21.7437 C   0  0  0  0  0  0  0  0  0  0  0  0
   14.1875  -20.6976   21.5039 N   0  0  0  0  0  0  0  0  0  0  0  0
   15.1291  -19.8932   21.0146 C   0  0  0  0  0  0  0  0  0  0  0  0
   14.6569  -18.6367   20.9400 N   0  0  0  0  0  0  0  0  0  0  0  0
   10.2456  -16.4888   21.3564 C   0  0  0  0  0  0  0  0  0  0  0  0
   10.7179  -15.3596   20.9857 O   0  0  0  0  0  0  0  0  0  0  0  0
    8.9761  -16.4712   21.9382 N   0  0  0  0  0  0  0  0  0  0  0  0
    8.0595  -15.3759   22.0203 C   0  0  1  0  0  0  0  0  0  0  0  0
    6.6204  -15.7080   21.8761 C   0  0  0  0  0  0  0  0  0  0  0  0
    6.2885  -16.9932   22.5248 C   0  0  0  0  0  0  0  0  0  0  0  0
    7.1059  -17.7988   23.2681 C   0  0  0  0  0  0  0  0  0  0  0  0
    6.3642  -18.8524   23.6457 N   0  0  0  0  0  0  0  0  0  0  0  0
    5.1254  -18.7499   23.1785 C   0  0  0  0  0  0  0  0  0  0  0  0
    5.0870  -17.5817   22.4772 N   0  0  0  0  0  0  0  0  0  0  0  0
    8.3050  -14.6115   23.2746 C   0  0  0  0  0  0  0  0  0  0  0  0
    8.2655  -13.3536   23.3199 O   0  0  0  0  0  0  0  0  0  0  0  0
    5.7560  -12.3448   25.8374 C   0  0  0  0  0  0  0  0  0  0  0  0
    6.9924  -12.9809   25.2510 C   0  0  0  0  0  0  0  0  0  0  0  0
    7.5347  -13.9729   26.2394 C   0  0  2  0  0  0  0  0  0  0  0  0
    7.8585  -13.3187   27.5710 C   0  0  0  0  0  0  0  0  0  0  0  0
    8.7989  -14.6432   25.7423 C   0  0  2  0  0  0  0  0  0  0  0  0
    8.5957  -15.3056   24.4770 N   0  0  0  0  0  0  0  0  0  0  0  0
    9.1890  -15.6526   26.7489 C   0  0  0  0  0  0  0  0  0  0  0  0
    9.5848  -15.3791   27.9111 O   0  0  0  0  0  0  0  0  0  0  0  0
    9.1224  -16.9927   26.4125 O   0  0  0  0  0  0  0  0  0  0  0  0
  2  9  1  0
  2  1  1  6
  3  2  1  0
  4  3  1  0
  4  8  1  0
  5  4  2  0
  6  5  1  0
  6  7  1  0
  7  8  2  0
  9 10  2  0
 11 12  1  0
 11  9  1  0
 13 14  1  0
 12 13  1  1
 14 18  1  0
 15 14  2  0
 15 16  1  0
 16 17  1  0
 18 17  2  0
 19 20  2  0
 19 12  1  0
 22 21  1  0
 22 23  1  0
 23 25  1  0
 23 24  1  1
 25 26  1  6
 25 27  1  0
 26 19  1  0
 27 29  1  0
 28 27  2  0
M  END
$$$$
