HHI.pdb
     RDKit          3D

 29 30  0  0  1  0  0  0  0  0999 V2000
    8.6487  -17.8546   18.6150 N   0  0  0  0  0  0  0  0  0  0  0  0
    8.6443  -16.7265   19.5065 C   0  0  1  0  0  0  0  0  0  0  0  0
    7.8555  -15.6005   18.9183 C   0  0  0  0  0  0  0  0  0  0  0  0
    8.4433  -14.2657   19.1035 C   0  0  0  0  0  0  0  0  0  0  0  0
    9.6576  -13.9226   19.6549 C   0  0  0  0  0  0  0  0  0  0  0  0
    9.7700  -12.5846   19.6294 N   0  0  0  0  0  0  0  0  0  0  0  0
    8.6575  -12.1038   19.0777 C   0  0  0  0  0  0  0  0  0  0  0  0
    7.8388  -13.1190   18.7519 N   0  0  0  0  0  0  0  0  0  0  0  0
    8.2678  -17.0484   20.9001 C   0  0  0  0  0  0  0  0  0  0  0  0
    7.1499  -17.6467   21.0679 O   0  0  0  0  0  0  0  0  0  0  0  0
    9.0018  -16.7668   22.0543 N   0  0  0  0  0  0  0  0  0  0  0  0
    8.6376  -17.0209   23.4142 C   0  0  1  0  0  0  0  0  0  0  0  0
    9.0235  -18.3440   23.9642 C   0  0  0  0  0  0  0  0  0  0  0  0
   10.4527  -18.6369   23.7313 C   0  0  0  0  0  0  0  0  0  0  0  0
   11.3877  -17.8458   23.1233 C   0  0  0  0  0  0  0  0  0  0  0  0
   12.5415  -18.5322   23.1440 N   0  0  0  0  0  0  0  0  0  0  0  0
   12.3792  -19.7114   23.7327 C   0  0  0  0  0  0  0  0  0  0  0  0
   11.0671  -19.7685   24.0976 N   0  0  0  0  0  0  0  0  0  0  0  0
    9.1400  -15.9187   24.2806 C   0  0  0  0  0  0  0  0  0  0  0  0
   10.1275  -15.2043   23.9636 O   0  0  0  0  0  0  0  0  0  0  0  0
    6.0506  -12.1616   25.9229 C   0  0  0  0  0  0  0  0  0  0  0  0
    7.2269  -13.0141   25.5146 C   0  0  0  0  0  0  0  0  0  0  0  0
    7.8166  -13.6375   26.7470 C   0  0  2  0  0  0  0  0  0  0  0  0
    8.3844  -12.5905   27.6888 C   0  0  0  0  0  0  0  0  0  0  0  0
    8.9325  -14.6080   26.4192 C   0  0  2  0  0  0  0  0  0  0  0  0
    8.4971  -15.6442   25.5149 N   0  0  0  0  0  0  0  0  0  0  0  0
    9.3602  -15.2343   27.6878 C   0  0  0  0  0  0  0  0  0  0  0  0
    8.9401  -16.3427   28.1086 O   0  0  0  0  0  0  0  0  0  0  0  0
   10.2826  -14.5756   28.4808 O   0  0  0  0  0  0  0  0  0  0  0  0
  2  9  1  0
  2  1  1  6
  3  2  1  0
  4  3  1  0
  4  8  1  0
  5  4  2  0
  6  5  1  0
  6  7  1  0
  7  8  2  0
  9 10  2  0
 11 12  1  0
 11  9  1  0
 13 14  1  0
 12 13  1  1
 14 18  1  0
 15 14  2  0
 15 16  1  0
 16 17  1  0
 18 17  2  0
 19 20  2  0
 19 12  1  0
 22 21  1  0
 22 23  1  0
 23 25  1  0
 23 24  1  1
 25 26  1  6
 25 27  1  0
 26 19  1  0
 27 29  1  0
 28 27  2  0
M  END
$$$$
