HHI.pdb
     RDKit          3D

 29 30  0  0  1  0  0  0  0  0999 V2000
    9.1637  -16.7283   18.3946 N   0  0  0  0  0  0  0  0  0  0  0  0
    8.4332  -15.7443   19.1466 C   0  0  1  0  0  0  0  0  0  0  0  0
    7.3388  -15.1582   18.3131 C   0  0  0  0  0  0  0  0  0  0  0  0
    7.7543  -14.6837   16.9850 C   0  0  0  0  0  0  0  0  0  0  0  0
    8.5455  -13.6050   16.6588 C   0  0  0  0  0  0  0  0  0  0  0  0
    8.6478  -13.5454   15.3210 N   0  0  0  0  0  0  0  0  0  0  0  0
    7.9404  -14.5583   14.8240 C   0  0  0  0  0  0  0  0  0  0  0  0
    7.3895  -15.2614   15.8286 N   0  0  0  0  0  0  0  0  0  0  0  0
    7.9824  -16.2018   20.4788 C   0  0  0  0  0  0  0  0  0  0  0  0
    6.8614  -16.8158   20.5246 O   0  0  0  0  0  0  0  0  0  0  0  0
    8.6491  -16.0332   21.6943 N   0  0  0  0  0  0  0  0  0  0  0  0
    8.3324  -16.6164   22.9616 C   0  0  1  0  0  0  0  0  0  0  0  0
    8.6856  -18.0470   23.1361 C   0  0  0  0  0  0  0  0  0  0  0  0
    8.2512  -18.5607   24.4514 C   0  0  0  0  0  0  0  0  0  0  0  0
    9.0271  -18.8724   25.5333 C   0  0  0  0  0  0  0  0  0  0  0  0
    8.1910  -19.2982   26.4938 N   0  0  0  0  0  0  0  0  0  0  0  0
    6.9324  -19.2699   26.0713 C   0  0  0  0  0  0  0  0  0  0  0  0
    6.9796  -18.8064   24.7902 N   0  0  0  0  0  0  0  0  0  0  0  0
    8.9164  -15.7884   24.0530 C   0  0  0  0  0  0  0  0  0  0  0  0
   10.0760  -15.3015   23.9874 O   0  0  0  0  0  0  0  0  0  0  0  0
    5.5839  -12.3582   26.4942 C   0  0  0  0  0  0  0  0  0  0  0  0
    6.7823  -13.0103   25.8496 C   0  0  0  0  0  0  0  0  0  0  0  0
    7.4816  -13.8502   26.8794 C   0  0  2  0  0  0  0  0  0  0  0  0
    8.0676  -13.0002   27.9930 C   0  0  0  0  0  0  0  0  0  0  0  0
    8.6129  -14.6622   26.2833 C   0  0  2  0  0  0  0  0  0  0  0  0
    8.1557  -15.5241   25.2207 N   0  0  0  0  0  0  0  0  0  0  0  0
    9.1739  -15.4990   27.3648 C   0  0  0  0  0  0  0  0  0  0  0  0
    9.9082  -15.0649   28.2891 O   0  0  0  0  0  0  0  0  0  0  0  0
    8.8853  -16.8518   27.3812 O   0  0  0  0  0  0  0  0  0  0  0  0
  2  9  1  0
  2  1  1  6
  3  2  1  0
  4  3  1  0
  4  8  1  0
  5  4  2  0
  6  5  1  0
  6  7  1  0
  7  8  2  0
  9 10  2  0
 11 12  1  0
 11  9  1  0
 13 14  1  0
 12 13  1  6
 14 18  1  0
 15 14  2  0
 15 16  1  0
 16 17  1  0
 18 17  2  0
 19 20  2  0
 19 12  1  0
 22 21  1  0
 22 23  1  0
 23 25  1  0
 23 24  1  1
 25 26  1  6
 25 27  1  0
 26 19  1  0
 27 29  1  0
 28 27  2  0
M  END
$$$$
