YWG.pdb
     RDKit          3D

 31 33  0  0  1  0  0  0  0  0999 V2000
    8.6396  -13.9880   15.7459 O   0  0  0  0  0  0  0  0  0  0  0  0
    8.3350  -14.0899   17.1141 C   0  0  0  0  0  0  0  0  0  0  0  0
    8.4545  -15.3076   17.7586 C   0  0  0  0  0  0  0  0  0  0  0  0
    8.1665  -15.4720   19.1129 C   0  0  0  0  0  0  0  0  0  0  0  0
    7.7467  -14.3870   19.8456 C   0  0  0  0  0  0  0  0  0  0  0  0
    7.4411  -14.5615   21.2967 C   0  0  0  0  0  0  0  0  0  0  0  0
    7.6788  -15.9930   21.7275 C   0  0  2  0  0  0  0  0  0  0  0  0
    6.8132  -16.9161   21.0613 N   0  0  0  0  0  0  0  0  0  0  0  0
    7.5703  -16.1743   23.2083 C   0  0  0  0  0  0  0  0  0  0  0  0
    6.5408  -15.8332   23.8369 O   0  0  0  0  0  0  0  0  0  0  0  0
    7.6246  -13.1652   19.2098 C   0  0  0  0  0  0  0  0  0  0  0  0
    7.9115  -13.0048   17.8638 C   0  0  0  0  0  0  0  0  0  0  0  0
    8.6499  -16.7543   23.9661 N   0  0  0  0  0  0  0  0  0  0  0  0
    9.6948  -16.0328   24.5987 C   0  0  1  0  0  0  0  0  0  0  0  0
    9.4310  -15.4366   25.9129 C   0  0  0  0  0  0  0  0  0  0  0  0
    8.0451  -14.9848   26.1209 C   0  0  0  0  0  0  0  0  0  0  0  0
    6.8407  -15.6421   26.0678 C   0  0  0  0  0  0  0  0  0  0  0  0
    5.8125  -14.7812   26.3209 N   0  0  0  0  0  0  0  0  0  0  0  0
    6.3242  -13.5746   26.5380 C   0  0  0  0  0  0  0  0  0  0  0  0
    5.6759  -12.3881   26.8294 C   0  0  0  0  0  0  0  0  0  0  0  0
    6.4129  -11.2288   27.0178 C   0  0  0  0  0  0  0  0  0  0  0  0
    7.7764  -11.3172   26.9040 C   0  0  0  0  0  0  0  0  0  0  0  0
    8.4273  -12.5096   26.6115 C   0  0  0  0  0  0  0  0  0  0  0  0
    7.6923  -13.6579   26.4245 C   0  0  0  0  0  0  0  0  0  0  0  0
   10.9876  -16.7560   24.4965 C   0  0  0  0  0  0  0  0  0  0  0  0
   11.0970  -17.8744   25.0332 O   0  0  0  0  0  0  0  0  0  0  0  0
   12.1281  -16.2519   23.8193 N   0  0  0  0  0  0  0  0  0  0  0  0
   13.3185  -17.1049   23.6340 C   0  0  0  0  0  0  0  0  0  0  0  0
   14.3497  -16.4092   22.8652 C   0  0  0  0  0  0  0  0  0  0  0  0
   14.1165  -16.0497   21.5558 O   0  0  0  0  0  0  0  0  0  0  0  0
   15.4485  -16.1344   23.3863 O   0  0  0  0  0  0  0  0  0  0  0  0
  2  1  1  0
  3  2  2  0
  4  3  1  0
  5  4  2  0
  5 11  1  0
  6  5  1  0
  7  6  1  0
  7  8  1  6
  9 10  2  0
  9  7  1  0
 11 12  2  0
 12  2  1  0
 13  9  1  0
 14 13  1  0
 14 15  1  1
 16 15  1  0
 16 17  2  0
 18 17  1  0
 19 18  1  0
 20 19  2  0
 21 20  1  0
 22 21  2  0
 22 23  1  0
 23 24  2  0
 24 19  1  0
 24 16  1  0
 25 14  1  0
 26 25  2  0
 27 25  1  0
 28 27  1  0
 29 28  1  0
 29 30  1  0
 31 29  2  0
M  END
$$$$
