YWG.pdb
     RDKit          3D

 31 33  0  0  1  0  0  0  0  0999 V2000
    9.9850  -18.4463   30.3415 O   0  0  0  0  0  0  0  0  0  0  0  0
    9.5381  -18.8586   29.0744 C   0  0  0  0  0  0  0  0  0  0  0  0
   10.3741  -18.7481   27.9783 C   0  0  0  0  0  0  0  0  0  0  0  0
    9.9880  -19.1391   26.6968 C   0  0  0  0  0  0  0  0  0  0  0  0
    8.7287  -19.6562   26.5045 C   0  0  0  0  0  0  0  0  0  0  0  0
    8.3156  -20.0781   25.1331 C   0  0  0  0  0  0  0  0  0  0  0  0
    7.1268  -19.2707   24.6578 C   0  0  2  0  0  0  0  0  0  0  0  0
    6.1203  -20.0845   24.0494 N   0  0  0  0  0  0  0  0  0  0  0  0
    7.5159  -18.1657   23.7278 C   0  0  0  0  0  0  0  0  0  0  0  0
    7.1484  -18.1573   22.5294 O   0  0  0  0  0  0  0  0  0  0  0  0
    7.8859  -19.7709   27.5946 C   0  0  0  0  0  0  0  0  0  0  0  0
    8.2722  -19.3815   28.8670 C   0  0  0  0  0  0  0  0  0  0  0  0
    8.3275  -17.0649   24.1817 N   0  0  0  0  0  0  0  0  0  0  0  0
    8.6329  -15.9004   23.4313 C   0  0  1  0  0  0  0  0  0  0  0  0
    8.6964  -14.6157   24.1369 C   0  0  0  0  0  0  0  0  0  0  0  0
    7.5220  -14.3083   24.9702 C   0  0  0  0  0  0  0  0  0  0  0  0
    6.4664  -15.0748   25.3988 C   0  0  0  0  0  0  0  0  0  0  0  0
    5.6045  -14.3283   26.1486 N   0  0  0  0  0  0  0  0  0  0  0  0
    6.0785  -13.0892   26.2170 C   0  0  0  0  0  0  0  0  0  0  0  0
    5.5514  -11.9844   26.8606 C   0  0  0  0  0  0  0  0  0  0  0  0
    6.2169  -10.7694   26.8002 C   0  0  0  0  0  0  0  0  0  0  0  0
    7.3894  -10.7218   26.0909 C   0  0  0  0  0  0  0  0  0  0  0  0
    7.9187  -11.8322   25.4446 C   0  0  0  0  0  0  0  0  0  0  0  0
    7.2549  -13.0361   25.5063 C   0  0  0  0  0  0  0  0  0  0  0  0
    9.7552  -16.1446   22.4902 C   0  0  0  0  0  0  0  0  0  0  0  0
    9.9956  -15.3009   21.6064 O   0  0  0  0  0  0  0  0  0  0  0  0
   10.5868  -17.2939   22.5274 N   0  0  0  0  0  0  0  0  0  0  0  0
   11.6743  -17.4551   21.5424 C   0  0  0  0  0  0  0  0  0  0  0  0
   12.4668  -18.6511   21.8248 C   0  0  0  0  0  0  0  0  0  0  0  0
   12.5111  -19.6861   20.9164 O   0  0  0  0  0  0  0  0  0  0  0  0
   13.1099  -18.7460   22.8888 O   0  0  0  0  0  0  0  0  0  0  0  0
  2  1  1  0
  3  2  2  0
  4  3  1  0
  5  4  2  0
  5 11  1  0
  6  5  1  0
  7  6  1  0
  7  8  1  6
  9 10  2  0
  9  7  1  0
 11 12  2  0
 12  2  1  0
 13  9  1  0
 14 13  1  0
 14 15  1  1
 16 15  1  0
 16 17  2  0
 18 17  1  0
 19 18  1  0
 20 19  2  0
 21 20  1  0
 22 21  2  0
 22 23  1  0
 23 24  2  0
 24 19  1  0
 24 16  1  0
 25 14  1  0
 26 25  2  0
 27 25  1  0
 28 27  1  0
 29 28  1  0
 29 30  1  0
 31 29  2  0
M  END
$$$$
