YWG.pdb
     RDKit          3D

 31 33  0  0  1  0  0  0  0  0999 V2000
    5.4103  -19.0687   16.3650 O   0  0  0  0  0  0  0  0  0  0  0  0
    5.8116  -18.3121   17.4793 C   0  0  0  0  0  0  0  0  0  0  0  0
    6.9959  -18.6129   18.1270 C   0  0  0  0  0  0  0  0  0  0  0  0
    7.4467  -17.8999   19.2373 C   0  0  0  0  0  0  0  0  0  0  0  0
    6.6917  -16.8547   19.7147 C   0  0  0  0  0  0  0  0  0  0  0  0
    7.1753  -16.0887   20.9016 C   0  0  0  0  0  0  0  0  0  0  0  0
    8.5479  -16.5654   21.3260 C   0  0  2  0  0  0  0  0  0  0  0  0
    8.5999  -17.9814   21.5200 N   0  0  0  0  0  0  0  0  0  0  0  0
    9.0467  -15.8671   22.5511 C   0  0  0  0  0  0  0  0  0  0  0  0
    9.0978  -14.6164   22.6179 O   0  0  0  0  0  0  0  0  0  0  0  0
    5.5062  -16.5464   19.0732 C   0  0  0  0  0  0  0  0  0  0  0  0
    5.0606  -17.2567   17.9701 C   0  0  0  0  0  0  0  0  0  0  0  0
    9.4838  -16.6126   23.7041 N   0  0  0  0  0  0  0  0  0  0  0  0
   10.0494  -16.0567   24.8804 C   0  0  1  0  0  0  0  0  0  0  0  0
    9.2174  -15.9895   26.0868 C   0  0  0  0  0  0  0  0  0  0  0  0
    7.8900  -15.3830   25.8905 C   0  0  0  0  0  0  0  0  0  0  0  0
    6.6911  -15.9000   25.4654 C   0  0  0  0  0  0  0  0  0  0  0  0
    5.7346  -14.9274   25.4297 N   0  0  0  0  0  0  0  0  0  0  0  0
    6.2875  -13.7854   25.8236 C   0  0  0  0  0  0  0  0  0  0  0  0
    5.7157  -12.5321   25.9460 C   0  0  0  0  0  0  0  0  0  0  0  0
    6.4858  -11.4628   26.3775 C   0  0  0  0  0  0  0  0  0  0  0  0
    7.8038  -11.7054   26.6679 C   0  0  0  0  0  0  0  0  0  0  0  0
    8.3778  -12.9649   26.5451 C   0  0  0  0  0  0  0  0  0  0  0  0
    7.6103  -14.0234   26.1158 C   0  0  0  0  0  0  0  0  0  0  0  0
   11.4268  -16.5628   25.1071 C   0  0  0  0  0  0  0  0  0  0  0  0
   11.6802  -17.7556   24.8543 O   0  0  0  0  0  0  0  0  0  0  0  0
   12.4931  -15.7684   25.6024 N   0  0  0  0  0  0  0  0  0  0  0  0
   13.4168  -15.0987   24.6656 C   0  0  0  0  0  0  0  0  0  0  0  0
   14.3789  -16.0478   24.1070 C   0  0  0  0  0  0  0  0  0  0  0  0
   14.8350  -17.1032   24.8661 O   0  0  0  0  0  0  0  0  0  0  0  0
   14.7952  -15.9118   22.9396 O   0  0  0  0  0  0  0  0  0  0  0  0
  2  1  1  0
  3  2  2  0
  4  3  1  0
  5  4  2  0
  5 11  1  0
  6  5  1  0
  7  6  1  0
  7  8  1  1
  9 10  2  0
  9  7  1  0
 11 12  2  0
 12  2  1  0
 13  9  1  0
 14 13  1  0
 14 15  1  1
 16 15  1  0
 16 17  2  0
 18 17  1  0
 19 18  1  0
 20 19  2  0
 21 20  1  0
 22 21  2  0
 22 23  1  0
 23 24  2  0
 24 19  1  0
 24 16  1  0
 25 14  1  0
 26 25  2  0
 27 25  1  0
 28 27  1  0
 29 28  1  0
 29 30  1  0
 31 29  2  0
M  END
$$$$
