YWG.pdb
     RDKit          3D

 31 33  0  0  1  0  0  0  0  0999 V2000
    7.9894  -21.7078   17.1345 O   0  0  0  0  0  0  0  0  0  0  0  0
    8.3974  -20.9785   18.2645 C   0  0  0  0  0  0  0  0  0  0  0  0
    9.1549  -21.5924   19.2452 C   0  0  0  0  0  0  0  0  0  0  0  0
    9.5888  -20.9225   20.3885 C   0  0  0  0  0  0  0  0  0  0  0  0
    9.2561  -19.5991   20.5569 C   0  0  0  0  0  0  0  0  0  0  0  0
    9.7231  -18.8801   21.7794 C   0  0  0  0  0  0  0  0  0  0  0  0
    9.0737  -17.5166   21.8818 C   0  0  2  0  0  0  0  0  0  0  0  0
    9.2511  -16.7353   20.6971 N   0  0  0  0  0  0  0  0  0  0  0  0
    9.5420  -16.7437   23.0737 C   0  0  0  0  0  0  0  0  0  0  0  0
   10.2434  -15.7121   22.9520 O   0  0  0  0  0  0  0  0  0  0  0  0
    8.4994  -18.9767   19.5814 C   0  0  0  0  0  0  0  0  0  0  0  0
    8.0695  -19.6450   18.4462 C   0  0  0  0  0  0  0  0  0  0  0  0
    9.1972  -17.1591   24.4098 N   0  0  0  0  0  0  0  0  0  0  0  0
    9.5944  -16.5065   25.6051 C   0  0  1  0  0  0  0  0  0  0  0  0
    8.5792  -16.2681   26.6371 C   0  0  0  0  0  0  0  0  0  0  0  0
    7.4604  -15.4073   26.2178 C   0  0  0  0  0  0  0  0  0  0  0  0
    6.2223  -15.6894   25.6956 C   0  0  0  0  0  0  0  0  0  0  0  0
    5.5326  -14.5385   25.4471 N   0  0  0  0  0  0  0  0  0  0  0  0
    6.2981  -13.5108   25.7976 C   0  0  0  0  0  0  0  0  0  0  0  0
    6.0307  -12.1557   25.7271 C   0  0  0  0  0  0  0  0  0  0  0  0
    6.9850  -11.2425   26.1491 C   0  0  0  0  0  0  0  0  0  0  0  0
    8.1715  -11.7378   26.6255 C   0  0  0  0  0  0  0  0  0  0  0  0
    8.4396  -13.0995   26.6963 C   0  0  0  0  0  0  0  0  0  0  0  0
    7.4901  -14.0026   26.2759 C   0  0  0  0  0  0  0  0  0  0  0  0
   10.8781  -17.0510   26.1154 C   0  0  0  0  0  0  0  0  0  0  0  0
   11.4049  -16.5204   27.1112 O   0  0  0  0  0  0  0  0  0  0  0  0
   11.5596  -18.1526   25.5359 N   0  0  0  0  0  0  0  0  0  0  0  0
   12.7796  -18.6880   26.1714 C   0  0  0  0  0  0  0  0  0  0  0  0
   13.2213  -19.9157   25.5109 C   0  0  0  0  0  0  0  0  0  0  0  0
   12.5886  -20.3570   24.3693 O   0  0  0  0  0  0  0  0  0  0  0  0
   14.1737  -20.5741   25.9732 O   0  0  0  0  0  0  0  0  0  0  0  0
  2  1  1  0
  3  2  2  0
  4  3  1  0
  5  4  2  0
  5 11  1  0
  6  5  1  0
  7  6  1  0
  7  8  1  6
  9 10  2  0
  9  7  1  0
 11 12  2  0
 12  2  1  0
 13  9  1  0
 14 13  1  0
 14 15  1  1
 16 15  1  0
 16 17  2  0
 18 17  1  0
 19 18  1  0
 20 19  2  0
 21 20  1  0
 22 21  2  0
 22 23  1  0
 23 24  2  0
 24 19  1  0
 24 16  1  0
 25 14  1  0
 26 25  2  0
 27 25  1  0
 28 27  1  0
 29 28  1  0
 29 30  1  0
 31 29  2  0
M  END
$$$$
