YWG.pdb
     RDKit          3D

 31 33  0  0  1  0  0  0  0  0999 V2000
    7.3614  -13.8584   16.0922 O   0  0  0  0  0  0  0  0  0  0  0  0
    7.6086  -13.8939   17.4753 C   0  0  0  0  0  0  0  0  0  0  0  0
    8.8282  -13.4684   17.9692 C   0  0  0  0  0  0  0  0  0  0  0  0
    9.1330  -13.4803   19.3298 C   0  0  0  0  0  0  0  0  0  0  0  0
    8.1907  -13.9308   20.2240 C   0  0  0  0  0  0  0  0  0  0  0  0
    8.5150  -13.9408   21.6814 C   0  0  0  0  0  0  0  0  0  0  0  0
    9.3931  -15.1240   22.0284 C   0  0  2  0  0  0  0  0  0  0  0  0
    8.7942  -16.3731   21.6729 N   0  0  0  0  0  0  0  0  0  0  0  0
    9.7893  -15.1438   23.4706 C   0  0  0  0  0  0  0  0  0  0  0  0
   10.4255  -14.1963   23.9888 O   0  0  0  0  0  0  0  0  0  0  0  0
    6.9682  -14.3579   19.7394 C   0  0  0  0  0  0  0  0  0  0  0  0
    6.6681  -14.3450   18.3867 C   0  0  0  0  0  0  0  0  0  0  0  0
    9.4473  -16.2573   24.3189 N   0  0  0  0  0  0  0  0  0  0  0  0
    9.7842  -16.3832   25.6911 C   0  0  1  0  0  0  0  0  0  0  0  0
    8.6948  -16.4355   26.6722 C   0  0  0  0  0  0  0  0  0  0  0  0
    7.5436  -15.5699   26.3659 C   0  0  0  0  0  0  0  0  0  0  0  0
    6.2979  -15.8355   25.8530 C   0  0  0  0  0  0  0  0  0  0  0  0
    5.5734  -14.6854   25.7322 N   0  0  0  0  0  0  0  0  0  0  0  0
    6.3236  -13.6746   26.1569 C   0  0  0  0  0  0  0  0  0  0  0  0
    6.0213  -12.3266   26.2212 C   0  0  0  0  0  0  0  0  0  0  0  0
    6.9650  -11.4312   26.7011 C   0  0  0  0  0  0  0  0  0  0  0  0
    8.1767  -11.9366   27.0969 C   0  0  0  0  0  0  0  0  0  0  0  0
    8.4798  -13.2912   27.0324 C   0  0  0  0  0  0  0  0  0  0  0  0
    7.5408  -14.1765   26.5547 C   0  0  0  0  0  0  0  0  0  0  0  0
   10.8476  -17.3995   25.8938 C   0  0  0  0  0  0  0  0  0  0  0  0
   11.3794  -17.5005   27.0154 O   0  0  0  0  0  0  0  0  0  0  0  0
   11.3097  -18.2783   24.8801 N   0  0  0  0  0  0  0  0  0  0  0  0
   12.4057  -19.2260   25.1624 C   0  0  0  0  0  0  0  0  0  0  0  0
   11.9315  -20.3562   25.9600 C   0  0  0  0  0  0  0  0  0  0  0  0
   12.8019  -21.3564   26.3346 O   0  0  0  0  0  0  0  0  0  0  0  0
   10.7366  -20.4258   26.3090 O   0  0  0  0  0  0  0  0  0  0  0  0
  2  1  1  0
  3  2  2  0
  4  3  1  0
  5  4  2  0
  5 11  1  0
  6  5  1  0
  7  6  1  0
  7  8  1  1
  9 10  2  0
  9  7  1  0
 11 12  2  0
 12  2  1  0
 13  9  1  0
 14 13  1  0
 14 15  1  1
 16 15  1  0
 16 17  2  0
 18 17  1  0
 19 18  1  0
 20 19  2  0
 21 20  1  0
 22 21  2  0
 22 23  1  0
 23 24  2  0
 24 19  1  0
 24 16  1  0
 25 14  1  0
 26 25  2  0
 27 25  1  0
 28 27  1  0
 29 28  1  0
 29 30  1  0
 31 29  2  0
M  END
$$$$
