YWG.pdb
     RDKit          3D

 31 33  0  0  1  0  0  0  0  0999 V2000
    6.4407  -23.9278   19.3646 O   0  0  0  0  0  0  0  0  0  0  0  0
    7.0437  -22.8359   20.0123 C   0  0  0  0  0  0  0  0  0  0  0  0
    8.0931  -22.1686   19.4073 C   0  0  0  0  0  0  0  0  0  0  0  0
    8.7319  -21.0799   19.9995 C   0  0  0  0  0  0  0  0  0  0  0  0
    8.3095  -20.6445   21.2334 C   0  0  0  0  0  0  0  0  0  0  0  0
    8.9909  -19.4767   21.8668 C   0  0  0  0  0  0  0  0  0  0  0  0
    8.1279  -18.2365   21.7755 C   0  0  2  0  0  0  0  0  0  0  0  0
    7.6661  -17.9877   20.4449 N   0  0  0  0  0  0  0  0  0  0  0  0
    8.8113  -17.0186   22.3111 C   0  0  0  0  0  0  0  0  0  0  0  0
    9.1253  -16.0615   21.5652 O   0  0  0  0  0  0  0  0  0  0  0  0
    7.2607  -21.3053   21.8458 C   0  0  0  0  0  0  0  0  0  0  0  0
    6.6277  -22.3871   21.2549 C   0  0  0  0  0  0  0  0  0  0  0  0
    9.1300  -16.9019   23.7115 N   0  0  0  0  0  0  0  0  0  0  0  0
    9.8341  -15.8260   24.3107 C   0  0  1  0  0  0  0  0  0  0  0  0
    9.4492  -15.4116   25.6644 C   0  0  0  0  0  0  0  0  0  0  0  0
    8.0478  -14.9823   25.8055 C   0  0  0  0  0  0  0  0  0  0  0  0
    6.8576  -15.6555   25.6804 C   0  0  0  0  0  0  0  0  0  0  0  0
    5.8051  -14.8128   25.8908 N   0  0  0  0  0  0  0  0  0  0  0  0
    6.2868  -13.6023   26.1507 C   0  0  0  0  0  0  0  0  0  0  0  0
    5.6068  -12.4293   26.4235 C   0  0  0  0  0  0  0  0  0  0  0  0
    6.3158  -11.2626   26.6659 C   0  0  0  0  0  0  0  0  0  0  0  0
    7.6846  -11.3303   26.6226 C   0  0  0  0  0  0  0  0  0  0  0  0
    8.3674  -12.5092   26.3487 C   0  0  0  0  0  0  0  0  0  0  0  0
    7.6601  -13.6648   26.1080 C   0  0  0  0  0  0  0  0  0  0  0  0
   11.2979  -15.9542   24.0966 C   0  0  0  0  0  0  0  0  0  0  0  0
   12.0544  -15.0823   24.5640 O   0  0  0  0  0  0  0  0  0  0  0  0
   11.9056  -17.0190   23.3821 N   0  0  0  0  0  0  0  0  0  0  0  0
   13.3709  -17.0545   23.2076 C   0  0  0  0  0  0  0  0  0  0  0  0
   14.0121  -17.7965   24.2924 C   0  0  0  0  0  0  0  0  0  0  0  0
   14.6097  -19.0128   24.0442 O   0  0  0  0  0  0  0  0  0  0  0  0
   14.0247  -17.3363   25.4511 O   0  0  0  0  0  0  0  0  0  0  0  0
  2  1  1  0
  3  2  2  0
  4  3  1  0
  5  4  2  0
  5 11  1  0
  6  5  1  0
  7  6  1  0
  7  8  1  6
  9 10  2  0
  9  7  1  0
 11 12  2  0
 12  2  1  0
 13  9  1  0
 14 13  1  0
 14 15  1  1
 16 15  1  0
 16 17  2  0
 18 17  1  0
 19 18  1  0
 20 19  2  0
 21 20  1  0
 22 21  2  0
 22 23  1  0
 23 24  2  0
 24 19  1  0
 24 16  1  0
 25 14  1  0
 26 25  2  0
 27 25  1  0
 28 27  1  0
 29 28  1  0
 29 30  1  0
 31 29  2  0
M  END
$$$$
