YWG.pdb
     RDKit          3D

 31 33  0  0  1  0  0  0  0  0999 V2000
    7.4005  -13.6426   16.2791 O   0  0  0  0  0  0  0  0  0  0  0  0
    7.7597  -13.7044   17.6364 C   0  0  0  0  0  0  0  0  0  0  0  0
    6.7854  -13.8904   18.6001 C   0  0  0  0  0  0  0  0  0  0  0  0
    7.0791  -13.9594   19.9614 C   0  0  0  0  0  0  0  0  0  0  0  0
    8.3856  -13.8392   20.3724 C   0  0  0  0  0  0  0  0  0  0  0  0
    8.7013  -13.9162   21.8297 C   0  0  0  0  0  0  0  0  0  0  0  0
    9.4370  -15.1990   22.1532 C   0  0  2  0  0  0  0  0  0  0  0  0
    8.6663  -16.3642   21.8470 N   0  0  0  0  0  0  0  0  0  0  0  0
    9.8985  -15.2554   23.5748 C   0  0  0  0  0  0  0  0  0  0  0  0
   10.6649  -14.3850   24.0503 O   0  0  0  0  0  0  0  0  0  0  0  0
    9.3667  -13.6535   19.4160 C   0  0  0  0  0  0  0  0  0  0  0  0
    9.0719  -13.5852   18.0638 C   0  0  0  0  0  0  0  0  0  0  0  0
    9.4719  -16.3160   24.4520 N   0  0  0  0  0  0  0  0  0  0  0  0
    9.8607  -16.4725   25.8073 C   0  0  1  0  0  0  0  0  0  0  0  0
    8.8389  -16.3073   26.8470 C   0  0  0  0  0  0  0  0  0  0  0  0
    7.6404  -15.5632   26.4245 C   0  0  0  0  0  0  0  0  0  0  0  0
    6.4281  -15.9702   25.9248 C   0  0  0  0  0  0  0  0  0  0  0  0
    5.6318  -14.8938   25.6612 N   0  0  0  0  0  0  0  0  0  0  0  0
    6.3025  -13.7922   25.9797 C   0  0  0  0  0  0  0  0  0  0  0  0
    5.9098  -12.4695   25.8843 C   0  0  0  0  0  0  0  0  0  0  0  0
    6.7799  -11.4628   26.2741 C   0  0  0  0  0  0  0  0  0  0  0  0
    8.0125  -11.8356   26.7452 C   0  0  0  0  0  0  0  0  0  0  0  0
    8.4066  -13.1647   26.8411 C   0  0  0  0  0  0  0  0  0  0  0  0
    7.5404  -14.1608   26.4525 C   0  0  0  0  0  0  0  0  0  0  0  0
   10.7350  -17.6597   25.9834 C   0  0  0  0  0  0  0  0  0  0  0  0
   11.0821  -17.9877   27.1336 O   0  0  0  0  0  0  0  0  0  0  0  0
   11.2126  -18.4598   24.9133 N   0  0  0  0  0  0  0  0  0  0  0  0
   12.0806  -19.6223   25.1859 C   0  0  0  0  0  0  0  0  0  0  0  0
   13.4842  -19.2215   25.2744 C   0  0  0  0  0  0  0  0  0  0  0  0
   14.4666  -20.1684   25.4657 O   0  0  0  0  0  0  0  0  0  0  0  0
   13.8055  -18.0208   25.1773 O   0  0  0  0  0  0  0  0  0  0  0  0
  2  1  1  0
  3  2  2  0
  4  3  1  0
  5  4  2  0
  5 11  1  0
  6  5  1  0
  7  6  1  0
  7  8  1  1
  9 10  2  0
  9  7  1  0
 11 12  2  0
 12  2  1  0
 13  9  1  0
 14 13  1  0
 14 15  1  1
 16 15  1  0
 16 17  2  0
 18 17  1  0
 19 18  1  0
 20 19  2  0
 21 20  1  0
 22 21  2  0
 22 23  1  0
 23 24  2  0
 24 19  1  0
 24 16  1  0
 25 14  1  0
 26 25  2  0
 27 25  1  0
 28 27  1  0
 29 28  1  0
 29 30  1  0
 31 29  2  0
M  END
$$$$
