YWG.pdb
     RDKit          3D

 31 33  0  0  1  0  0  0  0  0999 V2000
   11.6792  -14.1583   30.0707 O   0  0  0  0  0  0  0  0  0  0  0  0
   10.9124  -15.1116   29.3789 C   0  0  0  0  0  0  0  0  0  0  0  0
   10.9843  -16.4457   29.7359 C   0  0  0  0  0  0  0  0  0  0  0  0
   10.2493  -17.4374   29.0876 C   0  0  0  0  0  0  0  0  0  0  0  0
    9.4170  -17.0856   28.0513 C   0  0  0  0  0  0  0  0  0  0  0  0
    8.6270  -18.1465   27.3586 C   0  0  0  0  0  0  0  0  0  0  0  0
    9.2780  -18.5313   26.0473 C   0  0  2  0  0  0  0  0  0  0  0  0
   10.6734  -18.2192   26.0166 N   0  0  0  0  0  0  0  0  0  0  0  0
    8.5957  -17.9206   24.8646 C   0  0  0  0  0  0  0  0  0  0  0  0
    7.4659  -18.3098   24.4862 O   0  0  0  0  0  0  0  0  0  0  0  0
    9.3381  -15.7539   27.6875 C   0  0  0  0  0  0  0  0  0  0  0  0
   10.0699  -14.7705   28.3336 C   0  0  0  0  0  0  0  0  0  0  0  0
    9.2158  -16.8552   24.1184 N   0  0  0  0  0  0  0  0  0  0  0  0
    8.7478  -16.3294   22.8867 C   0  0  1  0  0  0  0  0  0  0  0  0
    7.9924  -15.0720   22.9101 C   0  0  0  0  0  0  0  0  0  0  0  0
    7.2204  -14.8363   24.1417 C   0  0  0  0  0  0  0  0  0  0  0  0
    6.5061  -15.6762   24.9599 C   0  0  0  0  0  0  0  0  0  0  0  0
    5.9411  -14.9789   25.9879 N   0  0  0  0  0  0  0  0  0  0  0  0
    6.2737  -13.6996   25.8552 C   0  0  0  0  0  0  0  0  0  0  0  0
    5.9353  -12.6199   26.6504 C   0  0  0  0  0  0  0  0  0  0  0  0
    6.3940  -11.3529   26.3232 C   0  0  0  0  0  0  0  0  0  0  0  0
    7.1771  -11.2300   25.2044 C   0  0  0  0  0  0  0  0  0  0  0  0
    7.5172  -12.3153   24.4059 C   0  0  0  0  0  0  0  0  0  0  0  0
    7.0593  -13.5709   24.7336 C   0  0  0  0  0  0  0  0  0  0  0  0
    9.7958  -16.4012   21.8373 C   0  0  0  0  0  0  0  0  0  0  0  0
    9.5850  -15.8585   20.7364 O   0  0  0  0  0  0  0  0  0  0  0  0
   11.0424  -17.0583   22.0036 N   0  0  0  0  0  0  0  0  0  0  0  0
   11.8091  -17.5049   20.8239 C   0  0  0  0  0  0  0  0  0  0  0  0
   13.0874  -16.8010   20.7299 C   0  0  0  0  0  0  0  0  0  0  0  0
   13.4694  -15.9190   21.7170 O   0  0  0  0  0  0  0  0  0  0  0  0
   13.8436  -16.9920   19.7572 O   0  0  0  0  0  0  0  0  0  0  0  0
  2  1  1  0
  3  2  2  0
  4  3  1  0
  5  4  2  0
  5 11  1  0
  6  5  1  0
  7  6  1  0
  7  8  1  1
  9 10  2  0
  9  7  1  0
 11 12  2  0
 12  2  1  0
 13  9  1  0
 14 13  1  0
 14 15  1  1
 16 15  1  0
 16 17  2  0
 18 17  1  0
 19 18  1  0
 20 19  2  0
 21 20  1  0
 22 21  2  0
 22 23  1  0
 23 24  2  0
 24 19  1  0
 24 16  1  0
 25 14  1  0
 26 25  2  0
 27 25  1  0
 28 27  1  0
 29 28  1  0
 29 30  1  0
 31 29  2  0
M  END
$$$$
