DHE.pdb
     RDKit          3D

 28 28  0  0  1  0  0  0  0  0999 V2000
   15.3488  -12.8141  -15.1568 N   0  0  0  0  0  0  0  0  0  0  0  0
   15.1653  -11.3876  -15.1836 C   0  0  1  0  0  0  0  0  0  0  0  0
   14.0170  -11.0638  -14.2206 C   0  0  0  0  0  0  0  0  0  0  0  0
   12.7795  -11.6974  -14.7231 C   0  0  0  0  0  0  0  0  0  0  0  0
   12.5200  -11.6483  -15.9431 O   0  0  0  0  0  0  0  0  0  0  0  0
   16.4154  -10.6916  -14.6968 C   0  0  0  0  0  0  0  0  0  0  0  0
   17.3019  -11.3264  -14.0916 O   0  0  0  0  0  0  0  0  0  0  0  0
   11.8845  -12.3543  -13.8693 O   0  0  0  0  0  0  0  0  0  0  0  0
   16.5635   -9.3027  -14.9403 N   0  0  0  0  0  0  0  0  0  0  0  0
   17.7848   -8.5756  -14.9354 C   0  0  1  0  0  0  0  0  0  0  0  0
   18.9791   -9.2957  -15.5474 C   0  0  0  0  0  0  0  0  0  0  0  0
   20.2193   -8.4908  -15.4266 C   0  0  0  0  0  0  0  0  0  0  0  0
   20.4825   -7.2542  -14.9172 C   0  0  0  0  0  0  0  0  0  0  0  0
   21.8053   -6.9423  -15.0232 N   0  0  0  0  0  0  0  0  0  0  0  0
   22.3747   -8.0042  -15.6089 C   0  0  0  0  0  0  0  0  0  0  0  0
   21.4488   -8.9391  -15.8582 N   0  0  0  0  0  0  0  0  0  0  0  0
   17.6579   -7.1728  -15.3615 C   0  0  0  0  0  0  0  0  0  0  0  0
   17.2811   -6.8988  -16.5525 O   0  0  0  0  0  0  0  0  0  0  0  0
   17.9395   -6.0779  -14.4953 N   0  0  0  0  0  0  0  0  0  0  0  0
   17.8430   -4.7117  -14.8857 C   0  0  1  0  0  0  0  0  0  0  0  0
   17.1619   -3.8228  -13.9160 C   0  0  0  0  0  0  0  0  0  0  0  0
   15.6874   -4.0706  -13.7720 C   0  0  0  0  0  0  0  0  0  0  0  0
   15.0089   -3.1873  -12.8238 C   0  0  0  0  0  0  0  0  0  0  0  0
   14.1595   -2.3698  -13.2939 O   0  0  0  0  0  0  0  0  0  0  0  0
   19.1904   -4.2194  -15.2819 C   0  0  0  0  0  0  0  0  0  0  0  0
   19.3737   -3.1161  -16.1017 O   0  0  0  0  0  0  0  0  0  0  0  0
   15.2033   -3.1565  -11.4549 O   0  0  0  0  0  0  0  0  0  0  0  0
   20.1973   -4.8228  -14.8601 O   0  0  0  0  0  0  0  0  0  0  0  0
  2  1  1  1
  2  3  1  0
  2  6  1  0
  3  4  1  0
  4  8  1  0
  4  5  2  0
  6  7  2  0
  9  6  1  0
  9 10  1  0
 10 11  1  6
 11 12  1  0
 12 16  1  0
 13 14  1  0
 13 12  2  0
 14 15  1  0
 15 16  2  0
 17 10  1  0
 17 18  2  0
 19 17  1  0
 20 19  1  0
 20 21  1  1
 22 23  1  0
 22 21  1  0
 23 24  2  0
 25 20  1  0
 26 25  1  0
 27 23  1  0
 28 25  2  0
M  END
$$$$
