DHE.pdb
     RDKit          3D

 28 28  0  0  1  0  0  0  0  0999 V2000
   17.6834   -9.6028  -14.1613 N   0  0  0  0  0  0  0  0  0  0  0  0
   17.9688   -8.6696  -13.1043 C   0  0  1  0  0  0  0  0  0  0  0  0
   18.3185   -7.3323  -13.7676 C   0  0  0  0  0  0  0  0  0  0  0  0
   19.6579   -7.4405  -14.3834 C   0  0  0  0  0  0  0  0  0  0  0  0
   20.3053   -8.5001  -14.2555 O   0  0  0  0  0  0  0  0  0  0  0  0
   16.7468   -8.4744  -12.2367 C   0  0  0  0  0  0  0  0  0  0  0  0
   15.6373   -8.2239  -12.7481 O   0  0  0  0  0  0  0  0  0  0  0  0
   20.2265   -6.3865  -15.1097 O   0  0  0  0  0  0  0  0  0  0  0  0
   16.8833   -8.5808  -10.8295 N   0  0  0  0  0  0  0  0  0  0  0  0
   15.8562   -8.3745   -9.8689 C   0  0  1  0  0  0  0  0  0  0  0  0
   15.5427   -9.5690   -8.9775 C   0  0  0  0  0  0  0  0  0  0  0  0
   14.9200  -10.6733   -9.7477 C   0  0  0  0  0  0  0  0  0  0  0  0
   14.5222  -10.7963  -11.0457 C   0  0  0  0  0  0  0  0  0  0  0  0
   14.0045  -12.0327  -11.2936 N   0  0  0  0  0  0  0  0  0  0  0  0
   14.0821  -12.6903  -10.1289 C   0  0  0  0  0  0  0  0  0  0  0  0
   14.6243  -11.8999   -9.1937 N   0  0  0  0  0  0  0  0  0  0  0  0
   15.9550   -7.1010   -9.1384 C   0  0  0  0  0  0  0  0  0  0  0  0
   16.9277   -6.9009   -8.3326 O   0  0  0  0  0  0  0  0  0  0  0  0
   15.0006   -6.0542   -9.2860 N   0  0  0  0  0  0  0  0  0  0  0  0
   15.0992   -4.7923   -8.6332 C   0  0  1  0  0  0  0  0  0  0  0  0
   15.2551   -3.6251   -9.5320 C   0  0  0  0  0  0  0  0  0  0  0  0
   15.3082   -2.2990   -8.8284 C   0  0  0  0  0  0  0  0  0  0  0  0
   15.4454   -1.1426   -9.7134 C   0  0  0  0  0  0  0  0  0  0  0  0
   14.3777   -0.6108  -10.1475 O   0  0  0  0  0  0  0  0  0  0  0  0
   13.9679   -4.6458   -7.6775 C   0  0  0  0  0  0  0  0  0  0  0  0
   12.9002   -5.5297   -7.6391 O   0  0  0  0  0  0  0  0  0  0  0  0
   16.6334   -0.5671  -10.1256 O   0  0  0  0  0  0  0  0  0  0  0  0
   13.9790   -3.6890   -6.8773 O   0  0  0  0  0  0  0  0  0  0  0  0
  2  1  1  6
  2  3  1  0
  2  6  1  0
  3  4  1  0
  4  8  1  0
  4  5  2  0
  6  7  2  0
  9  6  1  0
  9 10  1  0
 10 11  1  1
 11 12  1  0
 12 16  1  0
 13 14  1  0
 13 12  2  0
 14 15  1  0
 15 16  2  0
 17 10  1  0
 17 18  2  0
 19 17  1  0
 20 19  1  0
 20 21  1  6
 22 23  1  0
 22 21  1  0
 23 24  2  0
 25 20  1  0
 26 25  1  0
 27 23  1  0
 28 25  2  0
M  END
$$$$
