DHE.pdb
     RDKit          3D

 28 28  0  0  1  0  0  0  0  0999 V2000
   14.0500  -12.6150  -12.7610 N   0  0  0  0  0  0  0  0  0  0  0  0
   14.1668  -11.1947  -12.9570 C   0  0  1  0  0  0  0  0  0  0  0  0
   13.8583  -10.5283  -11.6110 C   0  0  0  0  0  0  0  0  0  0  0  0
   12.4109  -10.6519  -11.3376 C   0  0  0  0  0  0  0  0  0  0  0  0
   11.6789  -11.2267  -12.1695 O   0  0  0  0  0  0  0  0  0  0  0  0
   15.5788  -10.8381  -13.3609 C   0  0  0  0  0  0  0  0  0  0  0  0
   16.5540  -11.4138  -12.8389 O   0  0  0  0  0  0  0  0  0  0  0  0
   11.8318  -10.1418  -10.1687 O   0  0  0  0  0  0  0  0  0  0  0  0
   15.7761   -9.8365  -14.3448 N   0  0  0  0  0  0  0  0  0  0  0  0
   17.0234   -9.4372  -14.8972 C   0  0  1  0  0  0  0  0  0  0  0  0
   17.3315   -9.9849  -16.2845 C   0  0  0  0  0  0  0  0  0  0  0  0
   17.3407  -11.4683  -16.2935 C   0  0  0  0  0  0  0  0  0  0  0  0
   16.5270  -12.4024  -16.8620 C   0  0  0  0  0  0  0  0  0  0  0  0
   16.9571  -13.6679  -16.5940 N   0  0  0  0  0  0  0  0  0  0  0  0
   18.0581  -13.5178  -15.8456 C   0  0  0  0  0  0  0  0  0  0  0  0
   18.3057  -12.2157  -15.6539 N   0  0  0  0  0  0  0  0  0  0  0  0
   17.3231   -8.0044  -14.7469 C   0  0  0  0  0  0  0  0  0  0  0  0
   16.3797   -7.1439  -14.8164 O   0  0  0  0  0  0  0  0  0  0  0  0
   18.6414   -7.5144  -14.5221 N   0  0  0  0  0  0  0  0  0  0  0  0
   18.9591   -6.1355  -14.3615 C   0  0  1  0  0  0  0  0  0  0  0  0
   20.2251   -5.8568  -13.6444 C   0  0  0  0  0  0  0  0  0  0  0  0
   20.3387   -6.5173  -12.3001 C   0  0  0  0  0  0  0  0  0  0  0  0
   21.6636   -6.4306  -11.6865 C   0  0  0  0  0  0  0  0  0  0  0  0
   22.5841   -5.8770  -12.3627 O   0  0  0  0  0  0  0  0  0  0  0  0
   18.8756   -5.4566  -15.6831 C   0  0  0  0  0  0  0  0  0  0  0  0
   18.7218   -4.0845  -15.8122 O   0  0  0  0  0  0  0  0  0  0  0  0
   22.0136   -6.8953  -10.4319 O   0  0  0  0  0  0  0  0  0  0  0  0
   18.9465   -6.1487  -16.7184 O   0  0  0  0  0  0  0  0  0  0  0  0
  2  1  1  1
  2  3  1  0
  2  6  1  0
  3  4  1  0
  4  8  1  0
  4  5  2  0
  6  7  2  0
  9  6  1  0
  9 10  1  0
 10 11  1  6
 11 12  1  0
 12 16  1  0
 13 14  1  0
 13 12  2  0
 14 15  1  0
 15 16  2  0
 17 10  1  0
 17 18  2  0
 19 17  1  0
 20 19  1  0
 20 21  1  6
 22 23  1  0
 22 21  1  0
 23 24  2  0
 25 20  1  0
 26 25  1  0
 27 23  1  0
 28 25  2  0
M  END
$$$$
