DHE.pdb
     RDKit          3D

 28 28  0  0  1  0  0  0  0  0999 V2000
   27.0869  -20.9664  -11.6580 N   0  0  0  0  0  0  0  0  0  0  0  0
   25.6933  -20.6276  -11.5460 C   0  0  1  0  0  0  0  0  0  0  0  0
   25.5305  -19.8146  -10.2563 C   0  0  0  0  0  0  0  0  0  0  0  0
   25.9930  -20.6321   -9.1149 C   0  0  0  0  0  0  0  0  0  0  0  0
   26.4818  -21.7604   -9.3299 O   0  0  0  0  0  0  0  0  0  0  0  0
   25.2694  -19.7694  -12.7155 C   0  0  0  0  0  0  0  0  0  0  0  0
   26.0446  -18.9170  -13.1926 O   0  0  0  0  0  0  0  0  0  0  0  0
   25.8996  -20.1785   -7.7931 O   0  0  0  0  0  0  0  0  0  0  0  0
   23.9736  -19.9501  -13.2620 N   0  0  0  0  0  0  0  0  0  0  0  0
   23.6273  -19.8858  -14.6389 C   0  0  1  0  0  0  0  0  0  0  0  0
   24.5201  -20.6865  -15.5777 C   0  0  0  0  0  0  0  0  0  0  0  0
   25.8121  -19.9983  -15.8177 C   0  0  0  0  0  0  0  0  0  0  0  0
   26.2637  -18.7413  -15.5454 C   0  0  0  0  0  0  0  0  0  0  0  0
   27.5535  -18.5753  -15.9543 N   0  0  0  0  0  0  0  0  0  0  0  0
   27.9101  -19.7502  -16.4903 C   0  0  0  0  0  0  0  0  0  0  0  0
   26.8884  -20.6131  -16.4198 N   0  0  0  0  0  0  0  0  0  0  0  0
   22.1899  -20.0439  -14.9115 C   0  0  0  0  0  0  0  0  0  0  0  0
   21.6217  -21.1715  -14.7087 O   0  0  0  0  0  0  0  0  0  0  0  0
   21.3788  -18.9803  -15.4010 N   0  0  0  0  0  0  0  0  0  0  0  0
   19.9557  -18.9788  -15.3494 C   0  0  1  0  0  0  0  0  0  0  0  0
   19.3282  -17.6430  -15.2217 C   0  0  0  0  0  0  0  0  0  0  0  0
   17.8444  -17.6708  -14.9896 C   0  0  0  0  0  0  0  0  0  0  0  0
   17.4181  -17.1385  -13.6955 C   0  0  0  0  0  0  0  0  0  0  0  0
   17.8440  -15.9881  -13.3695 O   0  0  0  0  0  0  0  0  0  0  0  0
   19.4234  -19.7664  -16.4944 C   0  0  0  0  0  0  0  0  0  0  0  0
   18.2095  -20.4348  -16.4442 O   0  0  0  0  0  0  0  0  0  0  0  0
   16.5895  -17.7706  -12.7864 O   0  0  0  0  0  0  0  0  0  0  0  0
   20.0956  -19.8290  -17.5433 O   0  0  0  0  0  0  0  0  0  0  0  0
  2  1  1  6
  2  3  1  0
  2  6  1  0
  3  4  1  0
  4  8  1  0
  4  5  2  0
  6  7  2  0
  9  6  1  0
  9 10  1  0
 10 11  1  6
 11 12  1  0
 12 16  1  0
 13 14  1  0
 13 12  2  0
 14 15  1  0
 15 16  2  0
 17 10  1  0
 17 18  2  0
 19 17  1  0
 20 19  1  0
 20 21  1  6
 22 23  1  0
 22 21  1  0
 23 24  2  0
 25 20  1  0
 26 25  1  0
 27 23  1  0
 28 25  2  0
M  END
$$$$
