DHE.pdb
     RDKit          3D

 28 28  0  0  1  0  0  0  0  0999 V2000
   22.7052  -12.2322  -16.6270 N   0  0  0  0  0  0  0  0  0  0  0  0
   22.8539  -11.0090  -17.3693 C   0  0  1  0  0  0  0  0  0  0  0  0
   22.7545  -11.3704  -18.8560 C   0  0  0  0  0  0  0  0  0  0  0  0
   23.7739  -10.6038  -19.6030 C   0  0  0  0  0  0  0  0  0  0  0  0
   24.8576  -10.3269  -19.0487 O   0  0  0  0  0  0  0  0  0  0  0  0
   21.7348  -10.0523  -17.0281 C   0  0  0  0  0  0  0  0  0  0  0  0
   21.2216   -9.3341  -17.9090 O   0  0  0  0  0  0  0  0  0  0  0  0
   23.5615  -10.1762  -20.9197 O   0  0  0  0  0  0  0  0  0  0  0  0
   21.2775   -9.9851  -15.6878 N   0  0  0  0  0  0  0  0  0  0  0  0
   20.2473   -9.1394  -15.1942 C   0  0  1  0  0  0  0  0  0  0  0  0
   19.3612   -9.7469  -14.1147 C   0  0  0  0  0  0  0  0  0  0  0  0
   18.4321  -10.7565  -14.6787 C   0  0  0  0  0  0  0  0  0  0  0  0
   18.2483  -11.2565  -15.9334 C   0  0  0  0  0  0  0  0  0  0  0  0
   17.2601  -12.1951  -15.9564 N   0  0  0  0  0  0  0  0  0  0  0  0
   16.8218  -12.2804  -14.6932 C   0  0  0  0  0  0  0  0  0  0  0  0
   17.5057  -11.4323  -13.9145 N   0  0  0  0  0  0  0  0  0  0  0  0
   20.6798   -7.7640  -14.8997 C   0  0  0  0  0  0  0  0  0  0  0  0
   21.6688   -7.5598  -14.1151 O   0  0  0  0  0  0  0  0  0  0  0  0
   20.0387   -6.6208  -15.4569 N   0  0  0  0  0  0  0  0  0  0  0  0
   20.4507   -5.2802  -15.2094 C   0  0  1  0  0  0  0  0  0  0  0  0
   20.8137   -4.4969  -16.4133 C   0  0  0  0  0  0  0  0  0  0  0  0
   21.2352   -3.0826  -16.1332 C   0  0  0  0  0  0  0  0  0  0  0  0
   21.4787   -2.2701  -17.3248 C   0  0  0  0  0  0  0  0  0  0  0  0
   21.7596   -2.8825  -18.4005 O   0  0  0  0  0  0  0  0  0  0  0  0
   19.4337   -4.6046  -14.3586 C   0  0  0  0  0  0  0  0  0  0  0  0
   19.7444   -3.5484  -13.5154 O   0  0  0  0  0  0  0  0  0  0  0  0
   21.4315   -0.8897  -17.3946 O   0  0  0  0  0  0  0  0  0  0  0  0
   18.2528   -5.0036  -14.4044 O   0  0  0  0  0  0  0  0  0  0  0  0
  2  1  1  1
  2  3  1  0
  2  6  1  0
  3  4  1  0
  4  8  1  0
  4  5  2  0
  6  7  2  0
  9  6  1  0
  9 10  1  0
 10 11  1  1
 11 12  1  0
 12 16  1  0
 13 14  1  0
 13 12  2  0
 14 15  1  0
 15 16  2  0
 17 10  1  0
 17 18  2  0
 19 17  1  0
 20 19  1  0
 20 21  1  6
 22 23  1  0
 22 21  1  0
 23 24  2  0
 25 20  1  0
 26 25  1  0
 27 23  1  0
 28 25  2  0
M  END
$$$$
