DHE.pdb
     RDKit          3D

 28 28  0  0  1  0  0  0  0  0999 V2000
   27.1258  -21.0479  -14.9090 N   0  0  0  0  0  0  0  0  0  0  0  0
   26.8100  -20.0358  -15.8813 C   0  0  1  0  0  0  0  0  0  0  0  0
   26.4703  -20.7597  -17.1895 C   0  0  0  0  0  0  0  0  0  0  0  0
   27.6856  -21.4356  -17.6908 C   0  0  0  0  0  0  0  0  0  0  0  0
   28.5912  -20.7547  -18.2147 O   0  0  0  0  0  0  0  0  0  0  0  0
   25.6007  -19.2454  -15.4378 C   0  0  0  0  0  0  0  0  0  0  0  0
   25.1153  -19.4102  -14.3010 O   0  0  0  0  0  0  0  0  0  0  0  0
   27.8540  -22.8228  -17.5961 O   0  0  0  0  0  0  0  0  0  0  0  0
   25.0265  -18.3118  -16.3373 N   0  0  0  0  0  0  0  0  0  0  0  0
   23.9098  -17.4725  -16.0758 C   0  0  1  0  0  0  0  0  0  0  0  0
   24.0145  -16.0535  -16.6192 C   0  0  0  0  0  0  0  0  0  0  0  0
   22.8635  -15.2213  -16.1912 C   0  0  0  0  0  0  0  0  0  0  0  0
   22.6244  -14.4571  -15.0881 C   0  0  0  0  0  0  0  0  0  0  0  0
   21.4009  -13.8594  -15.1511 N   0  0  0  0  0  0  0  0  0  0  0  0
   20.8699  -14.2591  -16.3143 C   0  0  0  0  0  0  0  0  0  0  0  0
   21.7237  -15.0711  -16.9509 N   0  0  0  0  0  0  0  0  0  0  0  0
   22.6040  -18.1050  -16.3214 C   0  0  0  0  0  0  0  0  0  0  0  0
   22.4390  -18.8519  -17.3463 O   0  0  0  0  0  0  0  0  0  0  0  0
   21.4875  -17.9246  -15.4557 N   0  0  0  0  0  0  0  0  0  0  0  0
   20.2083  -18.5097  -15.6777 C   0  0  1  0  0  0  0  0  0  0  0  0
   19.5256  -19.0179  -14.4652 C   0  0  0  0  0  0  0  0  0  0  0  0
   18.2141  -19.7014  -14.7283 C   0  0  0  0  0  0  0  0  0  0  0  0
   17.4834  -20.1048  -13.5272 C   0  0  0  0  0  0  0  0  0  0  0  0
   17.4059  -21.3478  -13.2819 O   0  0  0  0  0  0  0  0  0  0  0  0
   19.3696  -17.5680  -16.4680 C   0  0  0  0  0  0  0  0  0  0  0  0
   18.6834  -17.9533  -17.6097 O   0  0  0  0  0  0  0  0  0  0  0  0
   16.8650  -19.2580  -12.6254 O   0  0  0  0  0  0  0  0  0  0  0  0
   19.2791  -16.3830  -16.0892 O   0  0  0  0  0  0  0  0  0  0  0  0
  2  1  1  1
  2  3  1  0
  2  6  1  0
  3  4  1  0
  4  8  1  0
  4  5  2  0
  6  7  2  0
  9  6  1  0
  9 10  1  0
 10 11  1  6
 11 12  1  0
 12 16  1  0
 13 14  1  0
 13 12  2  0
 14 15  1  0
 15 16  2  0
 17 10  1  0
 17 18  2  0
 19 17  1  0
 20 19  1  0
 20 21  1  1
 22 23  1  0
 22 21  1  0
 23 24  2  0
 25 20  1  0
 26 25  1  0
 27 23  1  0
 28 25  2  0
M  END
$$$$
