DHE.pdb
     RDKit          3D

 28 28  0  0  1  0  0  0  0  0999 V2000
   33.8826  -35.4682   -5.6784 N   0  0  0  0  0  0  0  0  0  0  0  0
   32.8877  -36.3323   -5.1014 C   0  0  1  0  0  0  0  0  0  0  0  0
   33.5980  -37.2008   -4.0565 C   0  0  0  0  0  0  0  0  0  0  0  0
   34.5645  -38.0820   -4.7452 C   0  0  0  0  0  0  0  0  0  0  0  0
   34.2596  -38.5783   -5.8493 O   0  0  0  0  0  0  0  0  0  0  0  0
   31.8243  -35.5129   -4.4072 C   0  0  0  0  0  0  0  0  0  0  0  0
   32.1351  -34.6679   -3.5443 O   0  0  0  0  0  0  0  0  0  0  0  0
   35.8180  -38.3792   -4.1955 O   0  0  0  0  0  0  0  0  0  0  0  0
   30.4655  -35.7213   -4.7541 N   0  0  0  0  0  0  0  0  0  0  0  0
   29.3421  -35.0740   -4.1718 C   0  0  1  0  0  0  0  0  0  0  0  0
   28.2400  -34.6729   -5.1435 C   0  0  0  0  0  0  0  0  0  0  0  0
   27.1697  -33.9031   -4.4636 C   0  0  0  0  0  0  0  0  0  0  0  0
   27.1399  -32.6820   -3.8586 C   0  0  0  0  0  0  0  0  0  0  0  0
   25.8972  -32.3934   -3.3785 N   0  0  0  0  0  0  0  0  0  0  0  0
   25.1407  -33.4542   -3.6907 C   0  0  0  0  0  0  0  0  0  0  0  0
   25.8779  -34.3660   -4.3376 N   0  0  0  0  0  0  0  0  0  0  0  0
   28.8438  -35.7112   -2.9426 C   0  0  0  0  0  0  0  0  0  0  0  0
   28.6599  -36.9763   -2.9086 O   0  0  0  0  0  0  0  0  0  0  0  0
   28.5490  -34.9744   -1.7599 N   0  0  0  0  0  0  0  0  0  0  0  0
   28.0549  -35.5624   -0.5607 C   0  0  1  0  0  0  0  0  0  0  0  0
   28.9624  -35.4770    0.6070 C   0  0  0  0  0  0  0  0  0  0  0  0
   28.4538  -36.1618    1.8434 C   0  0  0  0  0  0  0  0  0  0  0  0
   29.3465  -36.0788    2.9991 C   0  0  0  0  0  0  0  0  0  0  0  0
   30.5597  -35.7782    2.7782 O   0  0  0  0  0  0  0  0  0  0  0  0
   26.6926  -35.0328   -0.2809 C   0  0  0  0  0  0  0  0  0  0  0  0
   25.7370  -35.7547    0.4181 O   0  0  0  0  0  0  0  0  0  0  0  0
   28.9950  -36.2967    4.3188 O   0  0  0  0  0  0  0  0  0  0  0  0
   26.3964  -33.8927   -0.6913 O   0  0  0  0  0  0  0  0  0  0  0  0
  2  1  1  1
  2  3  1  0
  2  6  1  0
  3  4  1  0
  4  8  1  0
  4  5  2  0
  6  7  2  0
  9  6  1  0
  9 10  1  0
 10 11  1  6
 11 12  1  0
 12 16  1  0
 13 14  1  0
 13 12  2  0
 14 15  1  0
 15 16  2  0
 17 10  1  0
 17 18  2  0
 19 17  1  0
 20 19  1  0
 20 21  1  1
 22 23  1  0
 22 21  1  0
 23 24  2  0
 25 20  1  0
 26 25  1  0
 27 23  1  0
 28 25  2  0
M  END
$$$$
