AQY.pdb
     RDKit          3D

 27 27  0  0  1  0  0  0  0  0999 V2000
   23.1918  -13.7781  -16.0264 C   0  0  0  0  0  0  0  0  0  0  0  0
   22.6242  -13.3415  -17.3575 C   0  0  2  0  0  0  0  0  0  0  0  0
   23.3162  -14.0361  -18.3889 N   0  0  0  0  0  0  0  0  0  0  0  0
   22.6777  -11.8640  -17.5080 C   0  0  0  0  0  0  0  0  0  0  0  0
   23.7525  -11.2681  -17.7752 O   0  0  0  0  0  0  0  0  0  0  0  0
   18.9034   -8.7911  -20.9032 N   0  0  0  0  0  0  0  0  0  0  0  0
   20.1269   -9.4281  -21.1401 C   0  0  0  0  0  0  0  0  0  0  0  0
   20.4777   -9.7454  -22.2842 O   0  0  0  0  0  0  0  0  0  0  0  0
   21.0651   -9.7524  -20.0093 C   0  0  0  0  0  0  0  0  0  0  0  0
   20.4663   -9.3650  -18.6898 C   0  0  0  0  0  0  0  0  0  0  0  0
   21.3932   -9.6769  -17.5721 C   0  0  2  0  0  0  0  0  0  0  0  0
   21.5061  -11.1164  -17.3492 N   0  0  0  0  0  0  0  0  0  0  0  0
   20.9069   -9.1064  -16.2974 C   0  0  0  0  0  0  0  0  0  0  0  0
   20.2013   -9.7387  -15.4563 O   0  0  0  0  0  0  0  0  0  0  0  0
   19.6837   -5.0245   -8.7833 O   0  0  0  0  0  0  0  0  0  0  0  0
   20.1634   -5.5765   -9.9728 C   0  0  0  0  0  0  0  0  0  0  0  0
   19.9847   -6.9134  -10.2571 C   0  0  0  0  0  0  0  0  0  0  0  0
   20.4618   -7.4468  -11.4331 C   0  0  0  0  0  0  0  0  0  0  0  0
   21.1397   -6.6757  -12.3831 C   0  0  0  0  0  0  0  0  0  0  0  0
   21.6342   -7.3168  -13.6166 C   0  0  0  0  0  0  0  0  0  0  0  0
   20.6748   -7.1006  -14.7599 C   0  0  2  0  0  0  0  0  0  0  0  0
   21.2205   -7.7544  -15.9321 N   0  0  0  0  0  0  0  0  0  0  0  0
   20.5169   -5.6718  -15.1028 C   0  0  0  0  0  0  0  0  0  0  0  0
   19.5293   -4.8602  -14.5477 O   0  0  0  0  0  0  0  0  0  0  0  0
   21.3112   -5.3419  -12.0854 C   0  0  0  0  0  0  0  0  0  0  0  0
   20.8293   -4.8052  -10.8988 C   0  0  0  0  0  0  0  0  0  0  0  0
   21.2882   -5.1317  -15.9265 O   0  0  0  0  0  0  0  0  0  0  0  0
  2  1  1  1
  2  3  1  0
  4  5  2  0
  4  2  1  0
  7  6  1  0
  7  9  1  0
  8  7  2  0
 11 10  1  6
 10  9  1  0
 11 12  1  0
 12  4  1  0
 13 11  1  0
 13 14  2  0
 15 16  1  0
 16 17  2  0
 16 26  1  0
 17 18  1  0
 18 19  2  0
 19 20  1  0
 21 20  1  1
 21 22  1  0
 22 13  1  0
 23 21  1  0
 23 24  1  0
 25 19  1  0
 26 25  2  0
 27 23  2  0
M  END
$$$$
