AQY.pdb
     RDKit          3D

 27 27  0  0  1  0  0  0  0  0999 V2000
   21.9405  -19.0169  -15.3539 C   0  0  0  0  0  0  0  0  0  0  0  0
   22.5670  -19.1195  -13.9822 C   0  0  2  0  0  0  0  0  0  0  0  0
   23.1184  -17.8515  -13.6457 N   0  0  0  0  0  0  0  0  0  0  0  0
   23.5593  -20.2242  -13.9238 C   0  0  0  0  0  0  0  0  0  0  0  0
   23.2096  -21.4287  -14.0171 O   0  0  0  0  0  0  0  0  0  0  0  0
   27.6118  -21.8439  -16.5705 N   0  0  0  0  0  0  0  0  0  0  0  0
   28.4885  -22.0888  -15.5073 C   0  0  0  0  0  0  0  0  0  0  0  0
   29.3807  -22.9430  -15.5911 O   0  0  0  0  0  0  0  0  0  0  0  0
   28.3791  -21.3206  -14.2181 C   0  0  0  0  0  0  0  0  0  0  0  0
   27.2624  -20.3214  -14.2840 C   0  0  0  0  0  0  0  0  0  0  0  0
   25.9997  -20.8982  -13.7564 C   0  0  2  0  0  0  0  0  0  0  0  0
   24.9148  -19.9195  -13.7613 N   0  0  0  0  0  0  0  0  0  0  0  0
   26.1528  -21.3264  -12.3492 C   0  0  0  0  0  0  0  0  0  0  0  0
   26.7845  -22.3619  -11.9838 O   0  0  0  0  0  0  0  0  0  0  0  0
   28.2883  -19.8279   -3.9782 O   0  0  0  0  0  0  0  0  0  0  0  0
   27.9263  -19.7873   -5.3262 C   0  0  0  0  0  0  0  0  0  0  0  0
   28.3910  -18.7892   -6.1556 C   0  0  0  0  0  0  0  0  0  0  0  0
   28.0277  -18.7592   -7.4832 C   0  0  0  0  0  0  0  0  0  0  0  0
   27.1844  -19.7208   -8.0495 C   0  0  0  0  0  0  0  0  0  0  0  0
   26.8271  -19.6196   -9.4775 C   0  0  0  0  0  0  0  0  0  0  0  0
   25.9184  -20.7507   -9.8887 C   0  0  2  0  0  0  0  0  0  0  0  0
   25.5714  -20.5621  -11.2827 N   0  0  0  0  0  0  0  0  0  0  0  0
   24.6498  -20.7607   -9.1307 C   0  0  0  0  0  0  0  0  0  0  0  0
   24.4911  -21.4336   -7.9206 O   0  0  0  0  0  0  0  0  0  0  0  0
   26.7276  -20.7116   -7.2088 C   0  0  0  0  0  0  0  0  0  0  0  0
   27.0950  -20.7407   -5.8701 C   0  0  0  0  0  0  0  0  0  0  0  0
   23.6502  -20.1471   -9.5656 O   0  0  0  0  0  0  0  0  0  0  0  0
  2  1  1  6
  2  3  1  0
  4  5  2  0
  4  2  1  0
  7  6  1  0
  7  9  1  0
  8  7  2  0
 11 10  1  1
 10  9  1  0
 11 12  1  0
 12  4  1  0
 13 11  1  0
 13 14  2  0
 15 16  1  0
 16 17  2  0
 16 26  1  0
 17 18  1  0
 18 19  2  0
 19 20  1  0
 21 20  1  1
 21 22  1  0
 22 13  1  0
 23 21  1  0
 23 24  1  0
 25 19  1  0
 26 25  2  0
 27 23  2  0
M  END
$$$$
