AQY.pdb
     RDKit          3D

 27 27  0  0  1  0  0  0  0  0999 V2000
   24.6350  -16.2749  -17.2547 C   0  0  0  0  0  0  0  0  0  0  0  0
   25.4012  -17.5507  -16.9907 C   0  0  2  0  0  0  0  0  0  0  0  0
   26.2010  -17.8371  -18.1324 N   0  0  0  0  0  0  0  0  0  0  0  0
   24.4866  -18.6626  -16.6222 C   0  0  0  0  0  0  0  0  0  0  0  0
   23.5057  -18.9750  -17.3447 O   0  0  0  0  0  0  0  0  0  0  0  0
   25.9016  -23.2404  -12.4286 N   0  0  0  0  0  0  0  0  0  0  0  0
   24.5652  -23.4917  -12.7603 C   0  0  0  0  0  0  0  0  0  0  0  0
   23.9918  -24.5239  -12.3882 O   0  0  0  0  0  0  0  0  0  0  0  0
   23.7727  -22.5136  -13.5846 C   0  0  0  0  0  0  0  0  0  0  0  0
   24.6496  -21.4070  -14.0908 C   0  0  0  0  0  0  0  0  0  0  0  0
   23.8799  -20.4644  -14.9420 C   0  0  2  0  0  0  0  0  0  0  0  0
   24.7204  -19.3800  -15.4443 N   0  0  0  0  0  0  0  0  0  0  0  0
   22.7945  -19.8146  -14.1762 C   0  0  0  0  0  0  0  0  0  0  0  0
   22.9623  -18.8292  -13.3978 O   0  0  0  0  0  0  0  0  0  0  0  0
   17.6812  -18.2202  -19.3262 O   0  0  0  0  0  0  0  0  0  0  0  0
   18.3174  -18.2237  -18.0833 C   0  0  0  0  0  0  0  0  0  0  0  0
   17.5982  -18.0654  -16.9180 C   0  0  0  0  0  0  0  0  0  0  0  0
   18.2359  -18.0706  -15.6979 C   0  0  0  0  0  0  0  0  0  0  0  0
   19.6200  -18.2337  -15.5784 C   0  0  0  0  0  0  0  0  0  0  0  0
   20.2379  -18.2172  -14.2387 C   0  0  0  0  0  0  0  0  0  0  0  0
   20.3176  -19.6087  -13.6631 C   0  0  2  0  0  0  0  0  0  0  0  0
   21.4422  -20.2841  -14.2783 N   0  0  0  0  0  0  0  0  0  0  0  0
   19.1172  -20.4155  -13.9666 C   0  0  0  0  0  0  0  0  0  0  0  0
   17.8807  -20.1982  -13.3617 O   0  0  0  0  0  0  0  0  0  0  0  0
   20.3256  -18.3904  -16.7510 C   0  0  0  0  0  0  0  0  0  0  0  0
   19.6810  -18.3850  -17.9808 C   0  0  0  0  0  0  0  0  0  0  0  0
   19.1768  -21.3459  -14.8008 O   0  0  0  0  0  0  0  0  0  0  0  0
  2  1  1  6
  2  3  1  0
  4  5  2  0
  4  2  1  0
  7  6  1  0
  7  9  1  0
  8  7  2  0
 11 10  1  1
 10  9  1  0
 11 12  1  0
 12  4  1  0
 13 11  1  0
 13 14  2  0
 15 16  1  0
 16 17  2  0
 16 26  1  0
 17 18  1  0
 18 19  2  0
 19 20  1  0
 21 20  1  6
 21 22  1  0
 22 13  1  0
 23 21  1  0
 23 24  1  0
 25 19  1  0
 26 25  2  0
 27 23  2  0
M  END
$$$$
