AQY.pdb
     RDKit          3D

 27 27  0  0  1  0  0  0  0  0999 V2000
   21.8845   -3.0692  -23.1774 C   0  0  0  0  0  0  0  0  0  0  0  0
   20.6957   -3.9975  -23.0808 C   0  0  2  0  0  0  0  0  0  0  0  0
   19.5114   -3.2284  -23.2574 N   0  0  0  0  0  0  0  0  0  0  0  0
   20.7121   -4.7642  -21.8078 C   0  0  0  0  0  0  0  0  0  0  0  0
   21.6851   -5.4960  -21.4927 O   0  0  0  0  0  0  0  0  0  0  0  0
   17.7157   -2.7371  -16.7836 N   0  0  0  0  0  0  0  0  0  0  0  0
   17.0179   -3.0196  -17.9636 C   0  0  0  0  0  0  0  0  0  0  0  0
   15.8854   -2.5630  -18.1678 O   0  0  0  0  0  0  0  0  0  0  0  0
   17.6199   -3.8917  -19.0318 C   0  0  0  0  0  0  0  0  0  0  0  0
   18.9605   -4.4118  -18.6050 C   0  0  0  0  0  0  0  0  0  0  0  0
   19.5311   -5.3201  -19.6321 C   0  0  2  0  0  0  0  0  0  0  0  0
   19.6205   -4.6712  -20.9380 N   0  0  0  0  0  0  0  0  0  0  0  0
   18.6765   -6.5108  -19.8289 C   0  0  0  0  0  0  0  0  0  0  0  0
   17.7788   -6.6051  -20.7178 O   0  0  0  0  0  0  0  0  0  0  0  0
   16.0726  -14.9550  -19.1546 O   0  0  0  0  0  0  0  0  0  0  0  0
   16.7846  -13.7544  -19.1214 C   0  0  0  0  0  0  0  0  0  0  0  0
   17.1504  -13.1795  -17.9231 C   0  0  0  0  0  0  0  0  0  0  0  0
   17.8525  -11.9956  -17.9024 C   0  0  0  0  0  0  0  0  0  0  0  0
   18.2247  -11.3264  -19.0730 C   0  0  0  0  0  0  0  0  0  0  0  0
   18.9666  -10.0547  -18.9753 C   0  0  0  0  0  0  0  0  0  0  0  0
   18.0444   -8.8757  -19.1590 C   0  0  2  0  0  0  0  0  0  0  0  0
   18.8248   -7.6665  -18.9910 N   0  0  0  0  0  0  0  0  0  0  0  0
   16.9702   -8.8348  -18.1450 C   0  0  0  0  0  0  0  0  0  0  0  0
   15.7464   -9.4817  -18.3056 O   0  0  0  0  0  0  0  0  0  0  0  0
   17.8523  -11.9123  -20.2626 C   0  0  0  0  0  0  0  0  0  0  0  0
   17.1442  -13.1065  -20.2820 C   0  0  0  0  0  0  0  0  0  0  0  0
   17.1321   -8.1990  -17.0798 O   0  0  0  0  0  0  0  0  0  0  0  0
  2  1  1  1
  2  3  1  0
  4  5  2  0
  4  2  1  0
  7  6  1  0
  7  9  1  0
  8  7  2  0
 11 10  1  1
 10  9  1  0
 11 12  1  0
 12  4  1  0
 13 11  1  0
 13 14  2  0
 15 16  1  0
 16 17  2  0
 16 26  1  0
 17 18  1  0
 18 19  2  0
 19 20  1  0
 21 20  1  1
 21 22  1  0
 22 13  1  0
 23 21  1  0
 23 24  1  0
 25 19  1  0
 26 25  2  0
 27 23  2  0
M  END
$$$$
