AQY.pdb
     RDKit          3D

 27 27  0  0  1  0  0  0  0  0999 V2000
   14.1866  -12.1089  -15.0432 C   0  0  0  0  0  0  0  0  0  0  0  0
   15.6819  -12.3240  -15.0917 C   0  0  2  0  0  0  0  0  0  0  0  0
   15.9317  -13.7242  -15.1381 N   0  0  0  0  0  0  0  0  0  0  0  0
   16.3615  -11.6448  -13.9580 C   0  0  0  0  0  0  0  0  0  0  0  0
   16.4066  -12.1619  -12.8125 O   0  0  0  0  0  0  0  0  0  0  0  0
   20.7663   -7.1368  -14.6615 N   0  0  0  0  0  0  0  0  0  0  0  0
   20.6063   -7.2253  -13.2739 C   0  0  0  0  0  0  0  0  0  0  0  0
   21.3356   -6.5923  -12.4992 O   0  0  0  0  0  0  0  0  0  0  0  0
   19.5384   -8.0961  -12.6695 C   0  0  0  0  0  0  0  0  0  0  0  0
   18.7874   -8.8387  -13.7346 C   0  0  0  0  0  0  0  0  0  0  0  0
   17.6765   -9.6313  -13.1490 C   0  0  2  0  0  0  0  0  0  0  0  0
   16.9659  -10.4008  -14.1677 N   0  0  0  0  0  0  0  0  0  0  0  0
   16.6634   -8.7539  -12.5239 C   0  0  0  0  0  0  0  0  0  0  0  0
   15.7644   -8.1331  -13.1653 O   0  0  0  0  0  0  0  0  0  0  0  0
   11.4451   -5.3522   -6.2385 O   0  0  0  0  0  0  0  0  0  0  0  0
   12.3992   -6.0867   -6.9455 C   0  0  0  0  0  0  0  0  0  0  0  0
   12.0306   -7.1581   -7.7306 C   0  0  0  0  0  0  0  0  0  0  0  0
   12.9798   -7.8751   -8.4235 C   0  0  0  0  0  0  0  0  0  0  0  0
   14.3417   -7.5605   -8.3688 C   0  0  0  0  0  0  0  0  0  0  0  0
   15.3051   -8.3801   -9.1285 C   0  0  0  0  0  0  0  0  0  0  0  0
   15.6703   -7.7155  -10.4319 C   0  0  2  0  0  0  0  0  0  0  0  0
   16.6449   -8.5516  -11.1032 N   0  0  0  0  0  0  0  0  0  0  0  0
   16.3042   -6.3951  -10.2351 C   0  0  0  0  0  0  0  0  0  0  0  0
   15.6022   -5.1939  -10.3152 O   0  0  0  0  0  0  0  0  0  0  0  0
   14.6952   -6.4879   -7.5803 C   0  0  0  0  0  0  0  0  0  0  0  0
   13.7367   -5.7656   -6.8821 C   0  0  0  0  0  0  0  0  0  0  0  0
   17.5268   -6.3135   -9.9829 O   0  0  0  0  0  0  0  0  0  0  0  0
  2  1  1  1
  2  3  1  0
  4  5  2  0
  4  2  1  0
  7  6  1  0
  7  9  1  0
  8  7  2  0
 11 10  1  6
 10  9  1  0
 11 12  1  0
 12  4  1  0
 13 11  1  0
 13 14  2  0
 15 16  1  0
 16 17  2  0
 16 26  1  0
 17 18  1  0
 18 19  2  0
 19 20  1  0
 21 20  1  1
 21 22  1  0
 22 13  1  0
 23 21  1  0
 23 24  1  0
 25 19  1  0
 26 25  2  0
 27 23  2  0
M  END
$$$$
