AQY.pdb
     RDKit          3D

 27 27  0  0  1  0  0  0  0  0999 V2000
   20.7051  -13.2705  -20.7066 C   0  0  0  0  0  0  0  0  0  0  0  0
   21.5853  -12.1906  -20.1203 C   0  0  2  0  0  0  0  0  0  0  0  0
   22.5875  -12.8127  -19.3244 N   0  0  0  0  0  0  0  0  0  0  0  0
   20.7828  -11.1872  -19.3734 C   0  0  0  0  0  0  0  0  0  0  0  0
   20.2541  -10.2040  -19.9526 O   0  0  0  0  0  0  0  0  0  0  0  0
   17.1676  -12.6592  -14.6360 N   0  0  0  0  0  0  0  0  0  0  0  0
   16.7138  -12.2835  -15.9057 C   0  0  0  0  0  0  0  0  0  0  0  0
   15.5720  -12.5659  -16.2918 O   0  0  0  0  0  0  0  0  0  0  0  0
   17.5998  -11.5197  -16.8521 C   0  0  0  0  0  0  0  0  0  0  0  0
   18.9333  -11.2371  -16.2261 C   0  0  0  0  0  0  0  0  0  0  0  0
   19.8014  -10.4622  -17.1488 C   0  0  2  0  0  0  0  0  0  0  0  0
   20.6102  -11.3380  -17.9935 N   0  0  0  0  0  0  0  0  0  0  0  0
   20.7608   -9.6204  -16.4020 C   0  0  0  0  0  0  0  0  0  0  0  0
   21.7317  -10.0740  -15.7261 O   0  0  0  0  0  0  0  0  0  0  0  0
   25.7119   -8.8704  -20.2479 O   0  0  0  0  0  0  0  0  0  0  0  0
   24.8188   -8.2400  -19.3793 C   0  0  0  0  0  0  0  0  0  0  0  0
   25.1615   -7.9909  -18.0676 C   0  0  0  0  0  0  0  0  0  0  0  0
   24.2730   -7.3685  -17.2200 C   0  0  0  0  0  0  0  0  0  0  0  0
   23.0005   -6.9637  -17.6367 C   0  0  0  0  0  0  0  0  0  0  0  0
   22.0954   -6.3124  -16.6705 C   0  0  0  0  0  0  0  0  0  0  0  0
   21.5427   -7.3140  -15.6879 C   0  0  2  0  0  0  0  0  0  0  0  0
   20.6376   -8.1906  -16.4033 N   0  0  0  0  0  0  0  0  0  0  0  0
   20.7568   -6.6755  -14.6116 C   0  0  0  0  0  0  0  0  0  0  0  0
   19.3988   -6.9184  -14.4135 O   0  0  0  0  0  0  0  0  0  0  0  0
   22.6718   -7.2194  -18.9497 C   0  0  0  0  0  0  0  0  0  0  0  0
   23.5691   -7.8471  -19.8034 C   0  0  0  0  0  0  0  0  0  0  0  0
   21.3032   -5.8735  -13.8222 O   0  0  0  0  0  0  0  0  0  0  0  0
  2  1  1  1
  2  3  1  0
  4  5  2  0
  4  2  1  0
  7  6  1  0
  7  9  1  0
  8  7  2  0
 11 10  1  1
 10  9  1  0
 11 12  1  0
 12  4  1  0
 13 11  1  0
 13 14  2  0
 15 16  1  0
 16 17  2  0
 16 26  1  0
 17 18  1  0
 18 19  2  0
 19 20  1  0
 21 20  1  6
 21 22  1  0
 22 13  1  0
 23 21  1  0
 23 24  1  0
 25 19  1  0
 26 25  2  0
 27 23  2  0
M  END
$$$$
