AQY.pdb
     RDKit          3D

 27 27  0  0  1  0  0  0  0  0999 V2000
   20.4540  -12.3573  -21.0286 C   0  0  0  0  0  0  0  0  0  0  0  0
   21.2822  -12.0670  -19.7980 C   0  0  2  0  0  0  0  0  0  0  0  0
   21.3619  -13.2565  -19.0209 N   0  0  0  0  0  0  0  0  0  0  0  0
   20.7379  -10.9089  -19.0425 C   0  0  0  0  0  0  0  0  0  0  0  0
   20.7282   -9.7500  -19.5310 O   0  0  0  0  0  0  0  0  0  0  0  0
   16.4088  -11.4009  -14.4714 N   0  0  0  0  0  0  0  0  0  0  0  0
   16.5651  -10.0243  -14.6700 C   0  0  0  0  0  0  0  0  0  0  0  0
   15.7944   -9.2064  -14.1506 O   0  0  0  0  0  0  0  0  0  0  0  0
   17.6795   -9.4849  -15.5251 C   0  0  0  0  0  0  0  0  0  0  0  0
   18.4664  -10.6014  -16.1450 C   0  0  0  0  0  0  0  0  0  0  0  0
   19.6143  -10.0744  -16.9261 C   0  0  2  0  0  0  0  0  0  0  0  0
   20.2236  -11.1101  -17.7573 N   0  0  0  0  0  0  0  0  0  0  0  0
   20.6889   -9.5849  -16.0358 C   0  0  0  0  0  0  0  0  0  0  0  0
   21.5219  -10.3345  -15.4448 O   0  0  0  0  0  0  0  0  0  0  0  0
   21.2863   -1.5015  -16.7670 O   0  0  0  0  0  0  0  0  0  0  0  0
   21.6640   -2.8296  -16.5595 C   0  0  0  0  0  0  0  0  0  0  0  0
   22.8826   -3.1405  -15.9951 C   0  0  0  0  0  0  0  0  0  0  0  0
   23.2446   -4.4536  -15.7950 C   0  0  0  0  0  0  0  0  0  0  0  0
   22.4116   -5.5207  -16.1468 C   0  0  0  0  0  0  0  0  0  0  0  0
   22.8696   -6.9039  -15.9143 C   0  0  0  0  0  0  0  0  0  0  0  0
   21.9309   -7.6355  -14.9881 C   0  0  2  0  0  0  0  0  0  0  0  0
   20.8508   -8.1813  -15.7849 N   0  0  0  0  0  0  0  0  0  0  0  0
   21.3131   -6.7408  -13.9872 C   0  0  0  0  0  0  0  0  0  0  0  0
   22.0310   -6.1463  -12.9512 O   0  0  0  0  0  0  0  0  0  0  0  0
   21.1975   -5.1950  -16.7100 C   0  0  0  0  0  0  0  0  0  0  0  0
   20.8337   -3.8702  -16.9110 C   0  0  0  0  0  0  0  0  0  0  0  0
   20.0902   -6.4825  -14.0415 O   0  0  0  0  0  0  0  0  0  0  0  0
  2  1  1  6
  2  3  1  0
  4  5  2  0
  4  2  1  0
  7  6  1  0
  7  9  1  0
  8  7  2  0
 11 10  1  1
 10  9  1  0
 11 12  1  0
 12  4  1  0
 13 11  1  0
 13 14  2  0
 15 16  1  0
 16 17  2  0
 16 26  1  0
 17 18  1  0
 18 19  2  0
 19 20  1  0
 21 20  1  6
 21 22  1  0
 22 13  1  0
 23 21  1  0
 23 24  1  0
 25 19  1  0
 26 25  2  0
 27 23  2  0
M  END
$$$$
