SKE.pdb
     RDKit          3D

 25 24  0  0  1  0  0  0  0  0999 V2000
   27.3159  -21.7481  -16.2046 O   0  0  0  0  0  0  0  0  0  0  0  0
   26.0137  -21.2674  -16.0683 C   0  0  0  0  0  0  0  0  0  0  0  0
   25.7511  -20.7611  -14.6678 C   0  0  2  0  0  0  0  0  0  0  0  0
   25.8066  -21.8066  -13.6659 N   0  0  0  0  0  0  0  0  0  0  0  0
   24.4105  -20.1219  -14.6509 C   0  0  0  0  0  0  0  0  0  0  0  0
   23.5964  -20.5054  -13.7429 O   0  0  0  0  0  0  0  0  0  0  0  0
   24.0194  -19.1329  -15.5787 N   0  0  0  0  0  0  0  0  0  0  0  0
   22.7634  -18.4705  -15.4341 C   0  0  1  0  0  0  0  0  0  0  0  0
   22.7175  -17.1420  -16.1676 C   0  0  0  0  0  0  0  0  0  0  0  0
   21.3926  -16.4457  -15.9419 C   0  0  0  0  0  0  0  0  0  0  0  0
   21.4256  -15.1388  -16.7042 C   0  0  0  0  0  0  0  0  0  0  0  0
   20.1073  -14.4215  -16.4142 C   0  0  0  0  0  0  0  0  0  0  0  0
   20.1460  -13.1049  -16.9802 N   0  0  0  0  0  0  0  0  0  0  0  0
   21.6583  -19.3399  -15.9237 C   0  0  0  0  0  0  0  0  0  0  0  0
   21.7793  -19.8947  -17.0305 O   0  0  0  0  0  0  0  0  0  0  0  0
   20.5047  -19.5337  -15.1610 N   0  0  0  0  0  0  0  0  0  0  0  0
   19.4725  -20.4727  -15.6702 C   0  0  1  0  0  0  0  0  0  0  0  0
   19.4290  -21.5889  -14.6852 C   0  0  0  0  0  0  0  0  0  0  0  0
   18.1786  -21.8463  -13.9563 C   0  0  0  0  0  0  0  0  0  0  0  0
   18.1328  -22.9322  -13.0018 C   0  0  0  0  0  0  0  0  0  0  0  0
   17.1058  -23.1287  -12.2610 O   0  0  0  0  0  0  0  0  0  0  0  0
   18.2459  -19.6561  -15.7252 C   0  0  0  0  0  0  0  0  0  0  0  0
   18.0487  -18.6487  -15.0171 O   0  0  0  0  0  0  0  0  0  0  0  0
   19.1714  -23.8441  -12.8052 O   0  0  0  0  0  0  0  0  0  0  0  0
   17.1998  -19.9745  -16.6028 O   0  0  0  0  0  0  0  0  0  0  0  0
  1  2  1  0
  3  5  1  0
  3  2  1  0
  3  4  1  1
  5  6  2  0
  7  5  1  0
  8  7  1  0
  8  9  1  6
 10  9  1  0
 11 10  1  0
 12 11  1  0
 13 12  1  0
 14  8  1  0
 15 14  2  0
 16 14  1  0
 17 16  1  0
 17 22  1  0
 17 18  1  1
 19 18  1  0
 20 19  1  0
 20 24  1  0
 21 20  2  0
 22 25  1  0
 23 22  2  0
M  END
$$$$
