SKE.pdb
     RDKit          3D

 25 24  0  0  1  0  0  0  0  0999 V2000
   24.7461   -9.2364  -19.6704 O   0  0  0  0  0  0  0  0  0  0  0  0
   24.0477  -10.2893  -20.2611 C   0  0  0  0  0  0  0  0  0  0  0  0
   23.2479  -11.0681  -19.2411 C   0  0  2  0  0  0  0  0  0  0  0  0
   22.5368  -12.1929  -19.8150 N   0  0  0  0  0  0  0  0  0  0  0  0
   22.2818  -10.1379  -18.6027 C   0  0  0  0  0  0  0  0  0  0  0  0
   21.5893   -9.3968  -19.3810 O   0  0  0  0  0  0  0  0  0  0  0  0
   22.1095  -10.0498  -17.2047 N   0  0  0  0  0  0  0  0  0  0  0  0
   21.1241   -9.1743  -16.6573 C   0  0  1  0  0  0  0  0  0  0  0  0
   20.1948   -9.8783  -15.6848 C   0  0  0  0  0  0  0  0  0  0  0  0
   18.9730   -9.0328  -15.3967 C   0  0  0  0  0  0  0  0  0  0  0  0
   18.1144   -9.7898  -14.4067 C   0  0  0  0  0  0  0  0  0  0  0  0
   16.7889   -9.0360  -14.3001 C   0  0  0  0  0  0  0  0  0  0  0  0
   15.8630   -9.8064  -13.5227 N   0  0  0  0  0  0  0  0  0  0  0  0
   21.7748   -8.0250  -15.9698 C   0  0  0  0  0  0  0  0  0  0  0  0
   22.8428   -8.2184  -15.3621 O   0  0  0  0  0  0  0  0  0  0  0  0
   21.2033   -6.7513  -16.0018 N   0  0  0  0  0  0  0  0  0  0  0  0
   21.9294   -5.6361  -15.3419 C   0  0  1  0  0  0  0  0  0  0  0  0
   21.5732   -4.4152  -16.1169 C   0  0  0  0  0  0  0  0  0  0  0  0
   21.9055   -3.0963  -15.5594 C   0  0  0  0  0  0  0  0  0  0  0  0
   21.4969   -1.9078  -16.2754 C   0  0  0  0  0  0  0  0  0  0  0  0
   20.9324   -1.9795  -17.4236 O   0  0  0  0  0  0  0  0  0  0  0  0
   21.4223   -5.6523  -13.9574 C   0  0  0  0  0  0  0  0  0  0  0  0
   20.3153   -6.1226  -13.6276 O   0  0  0  0  0  0  0  0  0  0  0  0
   21.6709   -0.6082  -15.7961 O   0  0  0  0  0  0  0  0  0  0  0  0
   22.1776   -5.1246  -12.9006 O   0  0  0  0  0  0  0  0  0  0  0  0
  1  2  1  0
  3  5  1  0
  3  2  1  0
  3  4  1  6
  5  6  2  0
  7  5  1  0
  8  7  1  0
  8  9  1  1
 10  9  1  0
 11 10  1  0
 12 11  1  0
 13 12  1  0
 14  8  1  0
 15 14  2  0
 16 14  1  0
 17 16  1  0
 17 22  1  0
 17 18  1  6
 19 18  1  0
 20 19  1  0
 20 24  1  0
 21 20  2  0
 22 25  1  0
 23 22  2  0
M  END
$$$$
