SKE.pdb
     RDKit          3D

 25 24  0  0  1  0  0  0  0  0999 V2000
   16.3091   -5.4622  -19.5815 O   0  0  0  0  0  0  0  0  0  0  0  0
   17.3561   -6.3790  -19.4877 C   0  0  0  0  0  0  0  0  0  0  0  0
   16.9280   -7.6417  -18.7743 C   0  0  2  0  0  0  0  0  0  0  0  0
   15.5422   -7.6135  -18.3515 N   0  0  0  0  0  0  0  0  0  0  0  0
   17.8086   -7.8264  -17.5925 C   0  0  0  0  0  0  0  0  0  0  0  0
   17.4571   -7.2431  -16.5105 O   0  0  0  0  0  0  0  0  0  0  0  0
   18.9862   -8.6034  -17.6261 N   0  0  0  0  0  0  0  0  0  0  0  0
   19.7568   -8.7894  -16.4392 C   0  0  1  0  0  0  0  0  0  0  0  0
   20.5542  -10.0812  -16.4587 C   0  0  0  0  0  0  0  0  0  0  0  0
   19.6353  -11.2827  -16.5120 C   0  0  0  0  0  0  0  0  0  0  0  0
   20.5001  -12.5152  -16.6638 C   0  0  0  0  0  0  0  0  0  0  0  0
   19.5552  -13.7139  -16.7474 C   0  0  0  0  0  0  0  0  0  0  0  0
   20.3223  -14.9245  -16.7835 N   0  0  0  0  0  0  0  0  0  0  0  0
   20.6849   -7.6427  -16.2375 C   0  0  0  0  0  0  0  0  0  0  0  0
   21.2114   -7.1169  -17.2343 O   0  0  0  0  0  0  0  0  0  0  0  0
   20.9643   -7.1610  -14.9569 N   0  0  0  0  0  0  0  0  0  0  0  0
   21.8320   -5.9623  -14.8284 C   0  0  1  0  0  0  0  0  0  0  0  0
   21.1004   -4.8651  -15.5206 C   0  0  0  0  0  0  0  0  0  0  0  0
   21.5623   -3.4807  -15.3452 C   0  0  0  0  0  0  0  0  0  0  0  0
   20.8161   -2.4074  -15.9644 C   0  0  0  0  0  0  0  0  0  0  0  0
   19.8397   -2.6438  -16.7601 O   0  0  0  0  0  0  0  0  0  0  0  0
   21.9733   -5.7808  -13.3720 C   0  0  0  0  0  0  0  0  0  0  0  0
   21.2831   -6.3831  -12.5258 O   0  0  0  0  0  0  0  0  0  0  0  0
   21.0790   -1.0521  -15.7576 O   0  0  0  0  0  0  0  0  0  0  0  0
   22.9198   -4.8944  -12.8386 O   0  0  0  0  0  0  0  0  0  0  0  0
  1  2  1  0
  3  5  1  0
  3  2  1  0
  3  4  1  1
  5  6  2  0
  7  5  1  0
  8  7  1  0
  8  9  1  6
 10  9  1  0
 11 10  1  0
 12 11  1  0
 13 12  1  0
 14  8  1  0
 15 14  2  0
 16 14  1  0
 17 16  1  0
 17 22  1  0
 17 18  1  1
 19 18  1  0
 20 19  1  0
 20 24  1  0
 21 20  2  0
 22 25  1  0
 23 22  2  0
M  END
$$$$
