SKE.pdb
     RDKit          3D

 25 24  0  0  1  0  0  0  0  0999 V2000
   25.4563  -13.4264  -14.9642 O   0  0  0  0  0  0  0  0  0  0  0  0
   24.6970  -14.5567  -15.2665 C   0  0  0  0  0  0  0  0  0  0  0  0
   25.3353  -15.3787  -16.3635 C   0  0  2  0  0  0  0  0  0  0  0  0
   25.2565  -14.7476  -17.6657 N   0  0  0  0  0  0  0  0  0  0  0  0
   24.6576  -16.6998  -16.4054 C   0  0  0  0  0  0  0  0  0  0  0  0
   23.6199  -16.7962  -17.1459 O   0  0  0  0  0  0  0  0  0  0  0  0
   25.1108  -17.8190  -15.6748 N   0  0  0  0  0  0  0  0  0  0  0  0
   24.4231  -19.0659  -15.7730 C   0  0  1  0  0  0  0  0  0  0  0  0
   25.3337  -20.2547  -15.5229 C   0  0  0  0  0  0  0  0  0  0  0  0
   24.5845  -21.5571  -15.7057 C   0  0  0  0  0  0  0  0  0  0  0  0
   25.5815  -22.6852  -15.5525 C   0  0  0  0  0  0  0  0  0  0  0  0
   24.8515  -23.9769  -15.9203 C   0  0  0  0  0  0  0  0  0  0  0  0
   25.7443  -25.0885  -15.7714 N   0  0  0  0  0  0  0  0  0  0  0  0
   23.2854  -19.1086  -14.8136 C   0  0  0  0  0  0  0  0  0  0  0  0
   23.4908  -18.7934  -13.6279 O   0  0  0  0  0  0  0  0  0  0  0  0
   22.0092  -19.4943  -15.2289 N   0  0  0  0  0  0  0  0  0  0  0  0
   20.9118  -19.4937  -14.2278 C   0  0  1  0  0  0  0  0  0  0  0  0
   20.1283  -18.2559  -14.4966 C   0  0  0  0  0  0  0  0  0  0  0  0
   19.5425  -18.0603  -15.8305 C   0  0  0  0  0  0  0  0  0  0  0  0
   18.7810  -16.8591  -16.0940 C   0  0  0  0  0  0  0  0  0  0  0  0
   18.3412  -16.5897  -17.2671 O   0  0  0  0  0  0  0  0  0  0  0  0
   20.1857  -20.7486  -14.4962 C   0  0  0  0  0  0  0  0  0  0  0  0
   19.2570  -21.1806  -13.7848 O   0  0  0  0  0  0  0  0  0  0  0  0
   18.4597  -15.9089  -15.1231 O   0  0  0  0  0  0  0  0  0  0  0  0
   20.5069  -21.5524  -15.5992 O   0  0  0  0  0  0  0  0  0  0  0  0
  1  2  1  0
  3  5  1  0
  3  2  1  0
  3  4  1  6
  5  6  2  0
  7  5  1  0
  8  7  1  0
  8  9  1  1
 10  9  1  0
 11 10  1  0
 12 11  1  0
 13 12  1  0
 14  8  1  0
 15 14  2  0
 16 14  1  0
 17 16  1  0
 17 22  1  0
 17 18  1  6
 19 18  1  0
 20 19  1  0
 20 24  1  0
 21 20  2  0
 22 25  1  0
 23 22  2  0
M  END
$$$$
