SKE.pdb
     RDKit          3D

 25 24  0  0  1  0  0  0  0  0999 V2000
   16.8192  -12.9922  -12.1378 O   0  0  0  0  0  0  0  0  0  0  0  0
   16.3821  -11.6717  -12.0349 C   0  0  0  0  0  0  0  0  0  0  0  0
   15.4211  -11.4918  -10.8814 C   0  0  2  0  0  0  0  0  0  0  0  0
   14.1694  -12.1976  -11.0691 N   0  0  0  0  0  0  0  0  0  0  0  0
   15.1576  -10.0388  -10.7212 C   0  0  0  0  0  0  0  0  0  0  0  0
   14.3922   -9.4894  -11.5852 O   0  0  0  0  0  0  0  0  0  0  0  0
   15.7096   -9.2689   -9.6750 N   0  0  0  0  0  0  0  0  0  0  0  0
   15.4495   -7.8674   -9.6017 C   0  0  1  0  0  0  0  0  0  0  0  0
   15.3938   -7.3592   -8.1721 C   0  0  0  0  0  0  0  0  0  0  0  0
   15.0586   -5.8837   -8.1359 C   0  0  0  0  0  0  0  0  0  0  0  0
   13.6055   -5.7531   -7.7337 C   0  0  0  0  0  0  0  0  0  0  0  0
   13.3052   -4.2578   -7.6311 C   0  0  0  0  0  0  0  0  0  0  0  0
   11.9421   -4.0716   -7.2280 N   0  0  0  0  0  0  0  0  0  0  0  0
   16.4858   -7.1068  -10.3530 C   0  0  0  0  0  0  0  0  0  0  0  0
   17.6587   -7.1254   -9.9392 O   0  0  0  0  0  0  0  0  0  0  0  0
   16.1552   -6.3837  -11.5010 N   0  0  0  0  0  0  0  0  0  0  0  0
   17.2373   -5.6548  -12.2109 C   0  0  1  0  0  0  0  0  0  0  0  0
   17.2672   -6.2268  -13.5857 C   0  0  0  0  0  0  0  0  0  0  0  0
   18.0011   -7.4788  -13.8196 C   0  0  0  0  0  0  0  0  0  0  0  0
   18.0223   -8.0422  -15.1516 C   0  0  0  0  0  0  0  0  0  0  0  0
   16.9413   -8.3716  -15.7559 O   0  0  0  0  0  0  0  0  0  0  0  0
   16.8176   -4.2429  -12.1439 C   0  0  0  0  0  0  0  0  0  0  0  0
   15.6456   -3.8752  -11.9285 O   0  0  0  0  0  0  0  0  0  0  0  0
   19.1880   -8.2711  -15.8848 O   0  0  0  0  0  0  0  0  0  0  0  0
   17.7391   -3.2015  -12.3238 O   0  0  0  0  0  0  0  0  0  0  0  0
  1  2  1  0
  3  5  1  0
  3  2  1  0
  3  4  1  6
  5  6  2  0
  7  5  1  0
  8  7  1  0
  8  9  1  1
 10  9  1  0
 11 10  1  0
 12 11  1  0
 13 12  1  0
 14  8  1  0
 15 14  2  0
 16 14  1  0
 17 16  1  0
 17 22  1  0
 17 18  1  6
 19 18  1  0
 20 19  1  0
 20 24  1  0
 21 20  2  0
 22 25  1  0
 23 22  2  0
M  END
$$$$
