SKE.pdb
     RDKit          3D

 25 24  0  0  1  0  0  0  0  0999 V2000
   17.5864  -14.0183  -13.6705 O   0  0  0  0  0  0  0  0  0  0  0  0
   16.9478  -12.7918  -13.8530 C   0  0  0  0  0  0  0  0  0  0  0  0
   15.8398  -12.5858  -12.8447 C   0  0  2  0  0  0  0  0  0  0  0  0
   14.6033  -13.2436  -13.2168 N   0  0  0  0  0  0  0  0  0  0  0  0
   15.6078  -11.1254  -12.7045 C   0  0  0  0  0  0  0  0  0  0  0  0
   15.0544  -10.5287  -13.6905 O   0  0  0  0  0  0  0  0  0  0  0  0
   15.9682  -10.3977  -11.5502 N   0  0  0  0  0  0  0  0  0  0  0  0
   15.7165   -8.9946  -11.4793 C   0  0  1  0  0  0  0  0  0  0  0  0
   14.9735   -8.5990  -10.2158 C   0  0  0  0  0  0  0  0  0  0  0  0
   13.5207   -9.0167  -10.2901 C   0  0  0  0  0  0  0  0  0  0  0  0
   12.8157   -8.4420   -9.0806 C   0  0  0  0  0  0  0  0  0  0  0  0
   11.3869   -8.9850   -9.0989 C   0  0  0  0  0  0  0  0  0  0  0  0
   10.6833   -8.5157   -7.9413 N   0  0  0  0  0  0  0  0  0  0  0  0
   16.9937   -8.2332  -11.5564 C   0  0  0  0  0  0  0  0  0  0  0  0
   17.9055   -8.5122  -10.7575 O   0  0  0  0  0  0  0  0  0  0  0  0
   17.1725   -7.2236  -12.5044 N   0  0  0  0  0  0  0  0  0  0  0  0
   18.5266   -6.6331  -12.6586 C   0  0  1  0  0  0  0  0  0  0  0  0
   19.3870   -7.7373  -13.1670 C   0  0  0  0  0  0  0  0  0  0  0  0
   20.7383   -7.4210  -13.6517 C   0  0  0  0  0  0  0  0  0  0  0  0
   21.5937   -8.4977  -14.0999 C   0  0  0  0  0  0  0  0  0  0  0  0
   22.6475   -8.8295  -13.4505 O   0  0  0  0  0  0  0  0  0  0  0  0
   18.3247   -5.5257  -13.6110 C   0  0  0  0  0  0  0  0  0  0  0  0
   17.4042   -5.4905  -14.4517 O   0  0  0  0  0  0  0  0  0  0  0  0
   21.3578   -9.2573  -15.2472 O   0  0  0  0  0  0  0  0  0  0  0  0
   19.1811   -4.4156  -13.6269 O   0  0  0  0  0  0  0  0  0  0  0  0
  1  2  1  0
  3  5  1  0
  3  2  1  0
  3  4  1  6
  5  6  2  0
  7  5  1  0
  8  7  1  0
  8  9  1  1
 10  9  1  0
 11 10  1  0
 12 11  1  0
 13 12  1  0
 14  8  1  0
 15 14  2  0
 16 14  1  0
 17 16  1  0
 17 22  1  0
 17 18  1  6
 19 18  1  0
 20 19  1  0
 20 24  1  0
 21 20  2  0
 22 25  1  0
 23 22  2  0
M  END
$$$$
