SKE.pdb
     RDKit          3D

 25 24  0  0  1  0  0  0  0  0999 V2000
   20.8426  -10.9861  -16.4852 O   0  0  0  0  0  0  0  0  0  0  0  0
   19.9357  -11.7924  -15.7976 C   0  0  0  0  0  0  0  0  0  0  0  0
   18.5224  -11.2683  -15.9182 C   0  0  2  0  0  0  0  0  0  0  0  0
   18.1150  -11.0429  -17.2905 N   0  0  0  0  0  0  0  0  0  0  0  0
   18.4336   -9.9976  -15.1542 C   0  0  0  0  0  0  0  0  0  0  0  0
   18.5863   -8.9128  -15.8131 O   0  0  0  0  0  0  0  0  0  0  0  0
   18.1925   -9.9523  -13.7644 N   0  0  0  0  0  0  0  0  0  0  0  0
   18.0494   -8.6962  -13.1019 C   0  0  1  0  0  0  0  0  0  0  0  0
   17.3819   -8.8260  -11.7445 C   0  0  0  0  0  0  0  0  0  0  0  0
   17.1055   -7.4637  -11.1458 C   0  0  0  0  0  0  0  0  0  0  0  0
   16.3041   -7.6733   -9.8793 C   0  0  0  0  0  0  0  0  0  0  0  0
   15.9447   -6.2866   -9.3458 C   0  0  0  0  0  0  0  0  0  0  0  0
   15.0602   -6.4209   -8.2256 N   0  0  0  0  0  0  0  0  0  0  0  0
   19.3767   -8.0424  -12.9357 C   0  0  0  0  0  0  0  0  0  0  0  0
   20.3195   -8.7113  -12.4762 O   0  0  0  0  0  0  0  0  0  0  0  0
   19.5677   -6.7043  -13.2864 N   0  0  0  0  0  0  0  0  0  0  0  0
   20.9560   -6.1776  -13.3275 C   0  0  1  0  0  0  0  0  0  0  0  0
   21.2843   -6.0329  -14.7729 C   0  0  0  0  0  0  0  0  0  0  0  0
   22.5285   -5.3496  -15.1551 C   0  0  0  0  0  0  0  0  0  0  0  0
   22.7851   -5.0882  -16.5543 C   0  0  0  0  0  0  0  0  0  0  0  0
   21.9949   -5.5120  -17.4699 O   0  0  0  0  0  0  0  0  0  0  0  0
   20.8748   -4.9048  -12.5874 C   0  0  0  0  0  0  0  0  0  0  0  0
   19.8225   -4.2522  -12.4395 O   0  0  0  0  0  0  0  0  0  0  0  0
   23.8840   -4.3679  -17.0260 O   0  0  0  0  0  0  0  0  0  0  0  0
   22.0095   -4.3383  -11.9894 O   0  0  0  0  0  0  0  0  0  0  0  0
  1  2  1  0
  3  5  1  0
  3  2  1  0
  3  4  1  6
  5  6  2  0
  7  5  1  0
  8  7  1  0
  8  9  1  1
 10  9  1  0
 11 10  1  0
 12 11  1  0
 13 12  1  0
 14  8  1  0
 15 14  2  0
 16 14  1  0
 17 16  1  0
 17 22  1  0
 17 18  1  6
 19 18  1  0
 20 19  1  0
 20 24  1  0
 21 20  2  0
 22 25  1  0
 23 22  2  0
M  END
$$$$
