SKE.pdb
     RDKit          3D

 25 24  0  0  1  0  0  0  0  0999 V2000
   25.9168  -16.3880  -15.8902 O   0  0  0  0  0  0  0  0  0  0  0  0
   26.2732  -16.7591  -17.1866 C   0  0  0  0  0  0  0  0  0  0  0  0
   26.6766  -18.2147  -17.2578 C   0  0  2  0  0  0  0  0  0  0  0  0
   27.1600  -18.6072  -18.5663 N   0  0  0  0  0  0  0  0  0  0  0  0
   25.4972  -19.0399  -16.8913 C   0  0  0  0  0  0  0  0  0  0  0  0
   24.5468  -19.1044  -17.7439 O   0  0  0  0  0  0  0  0  0  0  0  0
   25.3966  -19.7350  -15.6671 N   0  0  0  0  0  0  0  0  0  0  0  0
   24.2643  -20.5630  -15.4035 C   0  0  1  0  0  0  0  0  0  0  0  0
   24.6530  -21.9245  -14.8555 C   0  0  0  0  0  0  0  0  0  0  0  0
   23.4351  -22.8075  -14.6884 C   0  0  0  0  0  0  0  0  0  0  0  0
   23.9061  -24.1416  -14.1514 C   0  0  0  0  0  0  0  0  0  0  0  0
   22.6821  -25.0556  -14.0953 C   0  0  0  0  0  0  0  0  0  0  0  0
   23.0455  -26.3032  -13.4899 N   0  0  0  0  0  0  0  0  0  0  0  0
   23.3427  -19.8930  -14.4449 C   0  0  0  0  0  0  0  0  0  0  0  0
   23.7979  -19.4912  -13.3592 O   0  0  0  0  0  0  0  0  0  0  0  0
   21.9920  -19.7155  -14.7513 N   0  0  0  0  0  0  0  0  0  0  0  0
   21.1634  -18.8919  -13.8341 C   0  0  1  0  0  0  0  0  0  0  0  0
   20.5603  -17.8304  -14.6871 C   0  0  0  0  0  0  0  0  0  0  0  0
   19.5702  -16.9191  -14.0955 C   0  0  0  0  0  0  0  0  0  0  0  0
   18.8145  -16.0434  -14.9639 C   0  0  0  0  0  0  0  0  0  0  0  0
   19.3040  -15.6083  -16.0654 O   0  0  0  0  0  0  0  0  0  0  0  0
   20.1942  -19.8512  -13.2732 C   0  0  0  0  0  0  0  0  0  0  0  0
   19.8091  -20.8781  -13.8668 O   0  0  0  0  0  0  0  0  0  0  0  0
   17.5171  -15.6044  -14.6938 O   0  0  0  0  0  0  0  0  0  0  0  0
   19.6333  -19.6586  -12.0027 O   0  0  0  0  0  0  0  0  0  0  0  0
  1  2  1  0
  3  5  1  0
  3  2  1  0
  3  4  1  6
  5  6  2  0
  7  5  1  0
  8  7  1  0
  8  9  1  1
 10  9  1  0
 11 10  1  0
 12 11  1  0
 13 12  1  0
 14  8  1  0
 15 14  2  0
 16 14  1  0
 17 16  1  0
 17 22  1  0
 17 18  1  6
 19 18  1  0
 20 19  1  0
 20 24  1  0
 21 20  2  0
 22 25  1  0
 23 22  2  0
M  END
$$$$
