SKE.pdb
     RDKit          3D

 25 24  0  0  1  0  0  0  0  0999 V2000
   15.2284   -8.8609  -21.4969 O   0  0  0  0  0  0  0  0  0  0  0  0
   15.5294   -8.8188  -20.1356 C   0  0  0  0  0  0  0  0  0  0  0  0
   15.3013  -10.1590  -19.4735 C   0  0  2  0  0  0  0  0  0  0  0  0
   13.9030  -10.4305  -19.2070 N   0  0  0  0  0  0  0  0  0  0  0  0
   16.0674  -10.1827  -18.2012 C   0  0  0  0  0  0  0  0  0  0  0  0
   15.6525   -9.4234  -17.2601 O   0  0  0  0  0  0  0  0  0  0  0  0
   17.2054  -10.9940  -18.0049 N   0  0  0  0  0  0  0  0  0  0  0  0
   17.9574  -10.8942  -16.7959 C   0  0  1  0  0  0  0  0  0  0  0  0
   18.5980  -12.2118  -16.3977 C   0  0  0  0  0  0  0  0  0  0  0  0
   17.5444  -13.2597  -16.1099 C   0  0  0  0  0  0  0  0  0  0  0  0
   18.2604  -14.5404  -15.7394 C   0  0  0  0  0  0  0  0  0  0  0  0
   17.1842  -15.6018  -15.5119 C   0  0  0  0  0  0  0  0  0  0  0  0
   17.8044  -16.8349  -15.1249 N   0  0  0  0  0  0  0  0  0  0  0  0
   19.0147   -9.8540  -16.9261 C   0  0  0  0  0  0  0  0  0  0  0  0
   19.4941   -9.6261  -18.0511 O   0  0  0  0  0  0  0  0  0  0  0  0
   19.4651   -9.1435  -15.8115 N   0  0  0  0  0  0  0  0  0  0  0  0
   20.4061   -8.0149  -16.0280 C   0  0  1  0  0  0  0  0  0  0  0  0
   19.6478   -7.0116  -16.8259 C   0  0  0  0  0  0  0  0  0  0  0  0
   20.1909   -5.6524  -16.9611 C   0  0  0  0  0  0  0  0  0  0  0  0
   19.3659   -4.6219  -17.5524 C   0  0  0  0  0  0  0  0  0  0  0  0
   18.1869   -4.8756  -17.9859 O   0  0  0  0  0  0  0  0  0  0  0  0
   20.7543   -7.5763  -14.6640 C   0  0  0  0  0  0  0  0  0  0  0  0
   20.1084   -7.8933  -13.6454 O   0  0  0  0  0  0  0  0  0  0  0  0
   19.7630   -3.2917  -17.6998 O   0  0  0  0  0  0  0  0  0  0  0  0
   21.8644   -6.7533  -14.4264 O   0  0  0  0  0  0  0  0  0  0  0  0
  1  2  1  0
  3  5  1  0
  3  2  1  0
  3  4  1  1
  5  6  2  0
  7  5  1  0
  8  7  1  0
  8  9  1  6
 10  9  1  0
 11 10  1  0
 12 11  1  0
 13 12  1  0
 14  8  1  0
 15 14  2  0
 16 14  1  0
 17 16  1  0
 17 22  1  0
 17 18  1  6
 19 18  1  0
 20 19  1  0
 20 24  1  0
 21 20  2  0
 22 25  1  0
 23 22  2  0
M  END
$$$$
