SKE.pdb
     RDKit          3D

 25 24  0  0  1  0  0  0  0  0999 V2000
   28.0642  -12.8183  -15.8427 O   0  0  0  0  0  0  0  0  0  0  0  0
   26.9585  -11.9750  -15.9513 C   0  0  0  0  0  0  0  0  0  0  0  0
   26.9038  -11.3005  -17.3036 C   0  0  2  0  0  0  0  0  0  0  0  0
   28.0938  -10.5293  -17.6026 N   0  0  0  0  0  0  0  0  0  0  0  0
   25.7125  -10.4137  -17.3302 C   0  0  0  0  0  0  0  0  0  0  0  0
   25.9276   -9.1535  -17.3391 O   0  0  0  0  0  0  0  0  0  0  0  0
   24.3895  -10.9049  -17.3461 N   0  0  0  0  0  0  0  0  0  0  0  0
   23.2954  -10.0118  -17.5516 C   0  0  1  0  0  0  0  0  0  0  0  0
   22.0262  -10.7320  -17.9705 C   0  0  0  0  0  0  0  0  0  0  0  0
   21.3164   -9.9782  -19.0745 C   0  0  0  0  0  0  0  0  0  0  0  0
   20.0406  -10.7267  -19.3942 C   0  0  0  0  0  0  0  0  0  0  0  0
   19.3045   -9.9155  -20.4605 C   0  0  0  0  0  0  0  0  0  0  0  0
   18.0826  -10.5805  -20.8067 N   0  0  0  0  0  0  0  0  0  0  0  0
   23.0282   -9.2248  -16.3162 C   0  0  0  0  0  0  0  0  0  0  0  0
   23.2429   -9.7547  -15.2114 O   0  0  0  0  0  0  0  0  0  0  0  0
   22.5456   -7.9164  -16.3880 N   0  0  0  0  0  0  0  0  0  0  0  0
   22.4011   -7.1481  -15.1250 C   0  0  1  0  0  0  0  0  0  0  0  0
   22.4340   -5.7139  -15.5254 C   0  0  0  0  0  0  0  0  0  0  0  0
   22.1711   -4.6851  -14.5089 C   0  0  0  0  0  0  0  0  0  0  0  0
   22.1276   -3.2962  -14.9102 C   0  0  0  0  0  0  0  0  0  0  0  0
   21.7479   -2.3777  -14.1011 O   0  0  0  0  0  0  0  0  0  0  0  0
   21.1089   -7.6021  -14.5790 C   0  0  0  0  0  0  0  0  0  0  0  0
   20.1465   -7.9679  -15.2827 O   0  0  0  0  0  0  0  0  0  0  0  0
   22.4874   -2.8376  -16.1787 O   0  0  0  0  0  0  0  0  0  0  0  0
   20.8809   -7.6504  -13.1964 O   0  0  0  0  0  0  0  0  0  0  0  0
  1  2  1  0
  3  5  1  0
  3  2  1  0
  3  4  1  1
  5  6  2  0
  7  5  1  0
  8  7  1  0
  8  9  1  1
 10  9  1  0
 11 10  1  0
 12 11  1  0
 13 12  1  0
 14  8  1  0
 15 14  2  0
 16 14  1  0
 17 16  1  0
 17 22  1  0
 17 18  1  6
 19 18  1  0
 20 19  1  0
 20 24  1  0
 21 20  2  0
 22 25  1  0
 23 22  2  0
M  END
$$$$
