SKE.pdb
     RDKit          3D

 25 24  0  0  1  0  0  0  0  0999 V2000
   14.4185   -3.2983   -8.9213 O   0  0  0  0  0  0  0  0  0  0  0  0
   15.2089   -4.3311   -9.4251 C   0  0  0  0  0  0  0  0  0  0  0  0
   15.2160   -5.5280   -8.5009 C   0  0  2  0  0  0  0  0  0  0  0  0
   15.8028   -5.2433   -7.2069 N   0  0  0  0  0  0  0  0  0  0  0  0
   15.9728   -6.6203   -9.1646 C   0  0  0  0  0  0  0  0  0  0  0  0
   17.1328   -6.8884   -8.6989 O   0  0  0  0  0  0  0  0  0  0  0  0
   15.4654   -7.3501  -10.2609 N   0  0  0  0  0  0  0  0  0  0  0  0
   16.1850   -8.4729  -10.7696 C   0  0  1  0  0  0  0  0  0  0  0  0
   15.3090   -9.7026  -10.9292 C   0  0  0  0  0  0  0  0  0  0  0  0
   16.0839  -10.8399  -11.5593 C   0  0  0  0  0  0  0  0  0  0  0  0
   15.1329  -12.0051  -11.7276 C   0  0  0  0  0  0  0  0  0  0  0  0
   15.9290  -13.1392  -12.3731 C   0  0  0  0  0  0  0  0  0  0  0  0
   15.0706  -14.2693  -12.5760 N   0  0  0  0  0  0  0  0  0  0  0  0
   16.8075   -8.1403  -12.0806 C   0  0  0  0  0  0  0  0  0  0  0  0
   16.1459   -7.4894  -12.9089 O   0  0  0  0  0  0  0  0  0  0  0  0
   18.1087   -8.5476  -12.3823 N   0  0  0  0  0  0  0  0  0  0  0  0
   18.6511   -8.2342  -13.7291 C   0  0  1  0  0  0  0  0  0  0  0  0
   19.5435   -7.0577  -13.5350 C   0  0  0  0  0  0  0  0  0  0  0  0
   20.6393   -7.1490  -12.5595 C   0  0  0  0  0  0  0  0  0  0  0  0
   21.5881   -6.0614  -12.4649 C   0  0  0  0  0  0  0  0  0  0  0  0
   21.6287   -5.1308  -13.3450 O   0  0  0  0  0  0  0  0  0  0  0  0
   19.3468   -9.4714  -14.1283 C   0  0  0  0  0  0  0  0  0  0  0  0
   19.4276  -10.4870  -13.4091 O   0  0  0  0  0  0  0  0  0  0  0  0
   22.5201   -5.9247  -11.4346 O   0  0  0  0  0  0  0  0  0  0  0  0
   19.9761   -9.5807  -15.3765 O   0  0  0  0  0  0  0  0  0  0  0  0
  1  2  1  0
  3  5  1  0
  3  2  1  0
  3  4  1  1
  5  6  2  0
  7  5  1  0
  8  7  1  0
  8  9  1  6
 10  9  1  0
 11 10  1  0
 12 11  1  0
 13 12  1  0
 14  8  1  0
 15 14  2  0
 16 14  1  0
 17 16  1  0
 17 22  1  0
 17 18  1  1
 19 18  1  0
 20 19  1  0
 20 24  1  0
 21 20  2  0
 22 25  1  0
 23 22  2  0
M  END
$$$$
