SKE.pdb
     RDKit          3D

 25 24  0  0  1  0  0  0  0  0999 V2000
   16.4083  -12.7269  -14.3589 O   0  0  0  0  0  0  0  0  0  0  0  0
   16.3448  -13.3455  -15.6074 C   0  0  0  0  0  0  0  0  0  0  0  0
   17.7204  -13.7116  -16.1177 C   0  0  2  0  0  0  0  0  0  0  0  0
   18.4933  -14.4828  -15.1650 N   0  0  0  0  0  0  0  0  0  0  0  0
   18.4409  -12.4551  -16.4469 C   0  0  0  0  0  0  0  0  0  0  0  0
   19.6170  -12.3176  -15.9650 O   0  0  0  0  0  0  0  0  0  0  0  0
   17.8839  -11.4386  -17.2521 N   0  0  0  0  0  0  0  0  0  0  0  0
   18.6690  -10.3055  -17.6218 C   0  0  1  0  0  0  0  0  0  0  0  0
   18.3096   -9.7711  -18.9966 C   0  0  0  0  0  0  0  0  0  0  0  0
   18.5980  -10.7998  -20.0687 C   0  0  0  0  0  0  0  0  0  0  0  0
   18.2094  -10.1956  -21.4006 C   0  0  0  0  0  0  0  0  0  0  0  0
   18.4357  -11.2734  -22.4608 C   0  0  0  0  0  0  0  0  0  0  0  0
   18.0381  -10.7718  -23.7435 N   0  0  0  0  0  0  0  0  0  0  0  0
   18.5162   -9.2175  -16.6169 C   0  0  0  0  0  0  0  0  0  0  0  0
   17.4797   -9.1789  -15.9303 O   0  0  0  0  0  0  0  0  0  0  0  0
   19.5128   -8.2550  -16.4427 N   0  0  0  0  0  0  0  0  0  0  0  0
   19.2954   -7.1906  -15.4297 C   0  0  1  0  0  0  0  0  0  0  0  0
   20.6555   -6.7958  -14.9689 C   0  0  0  0  0  0  0  0  0  0  0  0
   20.7938   -5.6492  -14.0595 C   0  0  0  0  0  0  0  0  0  0  0  0
   22.1182   -5.2146  -13.6733 C   0  0  0  0  0  0  0  0  0  0  0  0
   22.8646   -5.9332  -12.9192 O   0  0  0  0  0  0  0  0  0  0  0  0
   18.5701   -6.1405  -16.1681 C   0  0  0  0  0  0  0  0  0  0  0  0
   18.7088   -5.9266  -17.3889 O   0  0  0  0  0  0  0  0  0  0  0  0
   22.6931   -4.0079  -14.0761 O   0  0  0  0  0  0  0  0  0  0  0  0
   17.6555   -5.2971  -15.5215 O   0  0  0  0  0  0  0  0  0  0  0  0
  1  2  1  0
  3  5  1  0
  3  2  1  0
  3  4  1  1
  5  6  2  0
  7  5  1  0
  8  7  1  0
  8  9  1  6
 10  9  1  0
 11 10  1  0
 12 11  1  0
 13 12  1  0
 14  8  1  0
 15 14  2  0
 16 14  1  0
 17 16  1  0
 17 22  1  0
 17 18  1  6
 19 18  1  0
 20 19  1  0
 20 24  1  0
 21 20  2  0
 22 25  1  0
 23 22  2  0
M  END
$$$$
