RPA.pdb
     RDKit          3D

 24 24  0  0  1  0  0  0  0  0999 V2000
   21.5535  -10.9219    8.8342 N   0  0  0  0  0  0  0  0  0  0  0  0
   20.6169  -11.9106    9.2063 C   0  0  0  0  0  0  0  0  0  0  0  0
   20.4275  -12.2362   10.4325 N   0  0  0  0  0  0  0  0  0  0  0  0
   19.8391  -12.5879    8.1939 N   0  0  0  0  0  0  0  0  0  0  0  0
   19.9683  -12.1082    6.8541 C   0  0  0  0  0  0  0  0  0  0  0  0
   18.7381  -11.9614    6.0472 C   0  0  0  0  0  0  0  0  0  0  0  0
   17.8869  -13.1520    5.8079 C   0  0  0  0  0  0  0  0  0  0  0  0
   16.6888  -13.0240    4.9499 C   0  0  2  0  0  0  0  0  0  0  0  0
   15.6743  -12.3366    5.6474 N   0  0  0  0  0  0  0  0  0  0  0  0
   16.2756  -14.3917    4.5064 C   0  0  0  0  0  0  0  0  0  0  0  0
   15.0581  -14.6818    4.7979 O   0  0  0  0  0  0  0  0  0  0  0  0
   19.6903  -12.9148   10.7028 N   0  0  0  0  0  0  0  0  0  0  0  0
   17.0613  -15.3305    3.8369 C   0  0  0  0  0  0  0  0  0  0  0  0
   18.4332  -15.3642    3.4253 C   0  0  0  0  0  0  0  0  0  0  0  0
   18.2834  -15.7577    1.9611 C   0  0  0  0  0  0  0  0  0  0  0  0
   17.2613  -16.8707    2.0561 C   0  0  2  0  0  0  0  0  0  0  0  0
   16.5473  -16.6318    3.3720 C   0  0  0  0  0  0  0  0  0  0  0  0
   16.9205  -17.7011    4.3424 O   0  0  0  0  0  0  0  0  0  0  0  0
   17.9402  -17.6727    5.0645 C   0  0  0  0  0  0  0  0  0  0  0  0
   14.9440  -20.5351    5.8294 C   0  0  2  0  0  0  0  0  0  0  0  0
   16.2497  -19.8621    5.4754 N   0  0  0  0  0  0  0  0  0  0  0  0
   16.0706  -18.8354    4.4670 C   0  0  0  0  0  0  0  0  0  0  0  0
   17.2061  -20.8581    4.9464 O   0  0  0  0  0  0  0  0  0  0  0  0
   17.5054  -20.8264    3.7114 O   0  0  0  0  0  0  0  0  0  0  0  0
  2  1  1  0
  2  3  2  0
  4  2  1  0
  5  4  1  0
  6  5  1  0
  7  6  1  0
  8 10  1  0
  8  7  1  0
  8  9  1  1
 10 12  1  0
 11 10  2  0
 12 13  1  0
 12 16  1  0
 13 14  1  0
 15 14  1  0
 16 15  1  0
 17 21  1  0
 16 17  1  1
 18 17  2  0
 20 19  1  1
 20 21  1  0
 22 20  1  0
 22 24  1  0
 23 22  2  0
M  END
$$$$
