RPA.pdb
     RDKit          3D

 24 24  0  0  1  0  0  0  0  0999 V2000
   21.0735  -18.6320  -17.9826 N   0  0  0  0  0  0  0  0  0  0  0  0
   20.6441  -17.3568  -17.5555 C   0  0  0  0  0  0  0  0  0  0  0  0
   19.9855  -16.5710  -18.3264 N   0  0  0  0  0  0  0  0  0  0  0  0
   20.9439  -16.9035  -16.2163 N   0  0  0  0  0  0  0  0  0  0  0  0
   20.7393  -17.8412  -15.1578 C   0  0  0  0  0  0  0  0  0  0  0  0
   20.9859  -19.2716  -15.4396 C   0  0  0  0  0  0  0  0  0  0  0  0
   20.8490  -20.2568  -14.3396 C   0  0  0  0  0  0  0  0  0  0  0  0
   22.0372  -20.6093  -13.5323 C   0  0  2  0  0  0  0  0  0  0  0  0
   23.0222  -21.1856  -14.3606 N   0  0  0  0  0  0  0  0  0  0  0  0
   21.6034  -21.5098  -12.4193 C   0  0  0  0  0  0  0  0  0  0  0  0
   21.8696  -22.7499  -12.6265 O   0  0  0  0  0  0  0  0  0  0  0  0
   19.6286  -15.6572  -17.9878 N   0  0  0  0  0  0  0  0  0  0  0  0
   20.9666  -21.1352  -11.2357 C   0  0  0  0  0  0  0  0  0  0  0  0
   20.4160  -19.9043  -10.7513 C   0  0  0  0  0  0  0  0  0  0  0  0
   21.0791  -19.8128   -9.3827 C   0  0  0  0  0  0  0  0  0  0  0  0
   20.9089  -21.2292   -8.8753 C   0  0  2  0  0  0  0  0  0  0  0  0
   20.7132  -22.0683  -10.1227 C   0  0  0  0  0  0  0  0  0  0  0  0
   19.3046  -22.5554  -10.1794 O   0  0  0  0  0  0  0  0  0  0  0  0
   18.3710  -21.9472  -10.7453 C   0  0  0  0  0  0  0  0  0  0  0  0
   17.7200  -25.8379   -9.0747 C   0  0  2  0  0  0  0  0  0  0  0  0
   17.7227  -24.4809   -9.7390 N   0  0  0  0  0  0  0  0  0  0  0  0
   18.9854  -23.7923   -9.5528 C   0  0  0  0  0  0  0  0  0  0  0  0
   16.6537  -23.6344   -9.1668 O   0  0  0  0  0  0  0  0  0  0  0  0
   15.4702  -23.7532   -9.6151 O   0  0  0  0  0  0  0  0  0  0  0  0
  2  1  1  0
  2  3  2  0
  4  2  1  0
  5  4  1  0
  6  5  1  0
  7  6  1  0
  8 10  1  0
  8  7  1  0
  8  9  1  6
 10 12  1  0
 11 10  2  0
 12 13  1  0
 12 16  1  0
 13 14  1  0
 15 14  1  0
 16 15  1  0
 17 21  1  0
 16 17  1  1
 18 17  2  0
 20 19  1  6
 20 21  1  0
 22 20  1  0
 22 24  1  0
 23 22  2  0
M  END
$$$$
