RPA.pdb
     RDKit          3D

 24 24  0  0  1  0  0  0  0  0999 V2000
   21.6953  -21.5209  -14.6659 N   0  0  0  0  0  0  0  0  0  0  0  0
   21.6867  -20.1414  -14.9662 C   0  0  0  0  0  0  0  0  0  0  0  0
   20.6509  -19.5608  -15.4515 N   0  0  0  0  0  0  0  0  0  0  0  0
   22.8669  -19.3419  -14.7283 N   0  0  0  0  0  0  0  0  0  0  0  0
   23.8359  -19.8766  -13.8245 C   0  0  0  0  0  0  0  0  0  0  0  0
   23.4221  -20.1187  -12.4258 C   0  0  0  0  0  0  0  0  0  0  0  0
   24.4301  -20.5963  -11.4485 C   0  0  0  0  0  0  0  0  0  0  0  0
   25.4941  -21.5195  -11.8996 C   0  0  2  0  0  0  0  0  0  0  0  0
   24.9164  -22.7056  -12.3975 N   0  0  0  0  0  0  0  0  0  0  0  0
   26.4317  -21.7554  -10.7580 C   0  0  0  0  0  0  0  0  0  0  0  0
   26.0989  -22.7499  -10.0152 O   0  0  0  0  0  0  0  0  0  0  0  0
   20.6477  -18.5426  -15.6524 N   0  0  0  0  0  0  0  0  0  0  0  0
   27.5786  -21.0237  -10.4483 C   0  0  0  0  0  0  0  0  0  0  0  0
   28.2250  -19.8920  -11.0437 C   0  0  0  0  0  0  0  0  0  0  0  0
   29.6557  -20.4043  -11.1533 C   0  0  0  0  0  0  0  0  0  0  0  0
   29.8486  -21.0391   -9.7923 C   0  0  2  0  0  0  0  0  0  0  0  0
   28.4457  -21.3277   -9.2953 C   0  0  0  0  0  0  0  0  0  0  0  0
   28.1213  -20.4145   -8.1615 O   0  0  0  0  0  0  0  0  0  0  0  0
   27.6548  -19.2629   -8.2955 C   0  0  0  0  0  0  0  0  0  0  0  0
   28.2932  -20.8586   -4.3813 C   0  0  2  0  0  0  0  0  0  0  0  0
   28.0396  -20.0845   -5.6539 N   0  0  0  0  0  0  0  0  0  0  0  0
   28.3522  -20.8688   -6.8330 C   0  0  0  0  0  0  0  0  0  0  0  0
   28.8776  -18.8665   -5.6817 O   0  0  0  0  0  0  0  0  0  0  0  0
   28.5664  -17.8897   -4.9303 O   0  0  0  0  0  0  0  0  0  0  0  0
  2  1  1  0
  2  3  2  0
  4  2  1  0
  5  4  1  0
  6  5  1  0
  7  6  1  0
  8 10  1  0
  8  7  1  0
  8  9  1  1
 10 12  1  0
 11 10  2  0
 12 13  1  0
 12 16  1  0
 13 14  1  0
 15 14  1  0
 16 15  1  0
 17 21  1  0
 16 17  1  1
 18 17  2  0
 20 19  1  6
 20 21  1  0
 22 20  1  0
 22 24  1  0
 23 22  2  0
M  END
$$$$
