RPA.pdb
     RDKit          3D

 24 24  0  0  1  0  0  0  0  0999 V2000
   29.8034  -18.7046  -18.0365 N   0  0  0  0  0  0  0  0  0  0  0  0
   28.8428  -17.6789  -17.9015 C   0  0  0  0  0  0  0  0  0  0  0  0
   28.7497  -16.7226  -18.7514 N   0  0  0  0  0  0  0  0  0  0  0  0
   27.9288  -17.6865  -16.7821 N   0  0  0  0  0  0  0  0  0  0  0  0
   28.0258  -18.7892  -15.8786 C   0  0  0  0  0  0  0  0  0  0  0  0
   27.5625  -20.1132  -16.3462 C   0  0  0  0  0  0  0  0  0  0  0  0
   26.4466  -20.7796  -15.6319 C   0  0  0  0  0  0  0  0  0  0  0  0
   26.7490  -21.8476  -14.6542 C   0  0  2  0  0  0  0  0  0  0  0  0
   27.1500  -23.0163  -15.3338 N   0  0  0  0  0  0  0  0  0  0  0  0
   25.5455  -22.0528  -13.7896 C   0  0  0  0  0  0  0  0  0  0  0  0
   24.8345  -23.0680  -14.1291 O   0  0  0  0  0  0  0  0  0  0  0  0
   28.0051  -16.0038  -18.6753 N   0  0  0  0  0  0  0  0  0  0  0  0
   25.1509  -21.2741  -12.7012 C   0  0  0  0  0  0  0  0  0  0  0  0
   25.6723  -20.0892  -12.0873 C   0  0  0  0  0  0  0  0  0  0  0  0
   25.7235  -20.5218  -10.6274 C   0  0  0  0  0  0  0  0  0  0  0  0
   24.3766  -21.1953  -10.4701 C   0  0  2  0  0  0  0  0  0  0  0  0
   23.9646  -21.5748  -11.8789 C   0  0  0  0  0  0  0  0  0  0  0  0
   22.8191  -20.7222  -12.3095 O   0  0  0  0  0  0  0  0  0  0  0  0
   22.9189  -19.5195  -12.6344 C   0  0  0  0  0  0  0  0  0  0  0  0
   19.4104  -21.6853  -13.5492 C   0  0  2  0  0  0  0  0  0  0  0  0
   20.3873  -20.6679  -13.0074 N   0  0  0  0  0  0  0  0  0  0  0  0
   21.5200  -21.3004  -12.3593 C   0  0  0  0  0  0  0  0  0  0  0  0
   19.7181  -19.8027  -12.0123 O   0  0  0  0  0  0  0  0  0  0  0  0
   20.0176  -19.9341  -10.7840 O   0  0  0  0  0  0  0  0  0  0  0  0
  2  1  1  0
  2  3  2  0
  4  2  1  0
  5  4  1  0
  6  5  1  0
  7  6  1  0
  8 10  1  0
  8  7  1  0
  8  9  1  6
 10 12  1  0
 11 10  2  0
 12 13  1  0
 12 16  1  0
 13 14  1  0
 15 14  1  0
 16 15  1  0
 17 21  1  0
 16 17  1  1
 18 17  2  0
 20 19  1  6
 20 21  1  0
 22 20  1  0
 22 24  1  0
 23 22  2  0
M  END
$$$$
