RPA.pdb
     RDKit          3D

 24 24  0  0  1  0  0  0  0  0999 V2000
   25.0064  -20.6110   -9.0391 N   0  0  0  0  0  0  0  0  0  0  0  0
   24.1610  -20.8246  -10.1494 C   0  0  0  0  0  0  0  0  0  0  0  0
   22.9119  -20.5344  -10.1149 N   0  0  0  0  0  0  0  0  0  0  0  0
   24.6965  -21.3849  -11.3692 N   0  0  0  0  0  0  0  0  0  0  0  0
   26.0920  -21.6919  -11.3788 C   0  0  0  0  0  0  0  0  0  0  0  0
   26.8758  -21.3247  -12.5775 C   0  0  0  0  0  0  0  0  0  0  0  0
   26.3869  -21.7424  -13.9139 C   0  0  0  0  0  0  0  0  0  0  0  0
   27.1714  -21.3837  -15.1156 C   0  0  2  0  0  0  0  0  0  0  0  0
   28.5490  -21.4453  -14.8214 N   0  0  0  0  0  0  0  0  0  0  0  0
   26.7291  -20.0336  -15.5842 C   0  0  0  0  0  0  0  0  0  0  0  0
   27.5118  -19.0808  -15.2221 O   0  0  0  0  0  0  0  0  0  0  0  0
   22.2959  -20.7043  -10.9325 N   0  0  0  0  0  0  0  0  0  0  0  0
   25.5961  -19.7374  -16.3427 C   0  0  0  0  0  0  0  0  0  0  0  0
   24.4622  -20.5004  -16.7729 C   0  0  0  0  0  0  0  0  0  0  0  0
   24.4550  -20.1869  -18.2638 C   0  0  0  0  0  0  0  0  0  0  0  0
   24.6819  -18.6900  -18.2534 C   0  0  2  0  0  0  0  0  0  0  0  0
   25.3298  -18.4041  -16.9129 C   0  0  0  0  0  0  0  0  0  0  0  0
   24.3704  -17.6629  -16.0440 O   0  0  0  0  0  0  0  0  0  0  0  0
   23.4490  -18.2006  -15.3932 C   0  0  0  0  0  0  0  0  0  0  0  0
   24.1948  -14.0188  -14.9661 C   0  0  2  0  0  0  0  0  0  0  0  0
   23.6796  -15.4361  -15.0604 N   0  0  0  0  0  0  0  0  0  0  0  0
   24.4987  -16.2499  -15.9379 C   0  0  0  0  0  0  0  0  0  0  0  0
   22.2999  -15.4394  -15.5925 O   0  0  0  0  0  0  0  0  0  0  0  0
   22.1140  -15.7328  -16.8152 O   0  0  0  0  0  0  0  0  0  0  0  0
  2  1  1  0
  2  3  2  0
  4  2  1  0
  5  4  1  0
  6  5  1  0
  7  6  1  0
  8 10  1  0
  8  7  1  0
  8  9  1  1
 10 12  1  0
 11 10  2  0
 12 13  1  0
 12 16  1  0
 13 14  1  0
 15 14  1  0
 16 15  1  0
 17 21  1  0
 16 17  1  6
 18 17  2  0
 20 19  1  1
 20 21  1  0
 22 20  1  0
 22 24  1  0
 23 22  2  0
M  END
$$$$
