KAC.pdb
     RDKit          3D

 21 20  0  0  1  0  0  0  0  0999 V2000
    7.9676  -19.5546   21.5787 N   0  0  0  0  0  0  0  0  0  0  0  0
    7.7044  -18.6710   22.6797 C   0  0  1  0  0  0  0  0  0  0  0  0
    8.3775  -19.1571   23.9467 C   0  0  0  0  0  0  0  0  0  0  0  0
    7.3382  -19.9448   24.7164 C   0  0  0  0  0  0  0  0  0  0  0  0
    7.9144  -20.4975   26.0076 C   0  0  0  0  0  0  0  0  0  0  0  0
    6.8925  -21.3590   26.7453 C   0  0  0  0  0  0  0  0  0  0  0  0
    7.5071  -21.7201   28.0268 N   0  0  0  0  0  0  0  0  0  0  0  0
    8.0631  -17.2634   22.3620 C   0  0  0  0  0  0  0  0  0  0  0  0
    9.2339  -16.9846   21.9977 O   0  0  0  0  0  0  0  0  0  0  0  0
    6.4131  -13.9647   21.9535 C   0  0  0  0  0  0  0  0  0  0  0  0
    7.5896  -14.8455   22.3146 C   0  0  2  0  0  0  0  0  0  0  0  0
    7.1298  -16.1960   22.4513 N   0  0  0  0  0  0  0  0  0  0  0  0
    8.2866  -14.3549   23.5316 C   0  0  0  0  0  0  0  0  0  0  0  0
    9.3806  -13.7650   23.3802 O   0  0  0  0  0  0  0  0  0  0  0  0
    7.7781  -14.5211   24.8375 N   0  0  0  0  0  0  0  0  0  0  0  0
    8.4349  -14.0248   26.0298 C   0  0  1  0  0  0  0  0  0  0  0  0
    7.6102  -12.8371   26.5275 C   0  0  0  0  0  0  0  0  0  0  0  0
    5.8462  -13.2659   26.5841 S   0  0  0  0  0  0  0  0  0  0  0  0
    8.4482  -15.0176   27.1203 C   0  0  0  0  0  0  0  0  0  0  0  0
    7.9118  -16.1280   26.9378 O   0  0  0  0  0  0  0  0  0  0  0  0
    9.0399  -14.7415   28.3317 O   0  0  0  0  0  0  0  0  0  0  0  0
  2  1  1  6
  2  8  1  0
  3  2  1  0
  4  3  1  0
  4  5  1  0
  6  5  1  0
  7  6  1  0
  8  9  2  0
 11 10  1  1
 12  8  1  0
 12 11  1  0
 13 11  1  0
 13 15  1  0
 14 13  2  0
 16 19  1  0
 16 15  1  0
 16 17  1  1
 18 17  1  0
 19 21  1  0
 20 19  2  0
M  END
$$$$
