KAC.pdb
     RDKit          3D

 21 20  0  0  1  0  0  0  0  0999 V2000
    6.0911  -17.0198   21.3724 N   0  0  0  0  0  0  0  0  0  0  0  0
    7.0772  -16.0208   21.6754 C   0  0  1  0  0  0  0  0  0  0  0  0
    6.4477  -14.6487   21.8018 C   0  0  0  0  0  0  0  0  0  0  0  0
    7.5163  -13.6439   21.4257 C   0  0  0  0  0  0  0  0  0  0  0  0
    7.8197  -13.6968   19.9391 C   0  0  0  0  0  0  0  0  0  0  0  0
    8.9634  -12.7538   19.5740 C   0  0  0  0  0  0  0  0  0  0  0  0
    9.1773  -12.9056   18.1312 N   0  0  0  0  0  0  0  0  0  0  0  0
    7.8819  -16.3782   22.8736 C   0  0  0  0  0  0  0  0  0  0  0  0
    7.3141  -16.5234   23.9862 O   0  0  0  0  0  0  0  0  0  0  0  0
   11.3301  -17.5372   23.6189 C   0  0  0  0  0  0  0  0  0  0  0  0
    9.9907  -16.9523   24.0118 C   0  0  2  0  0  0  0  0  0  0  0  0
    9.2890  -16.5675   22.8230 N   0  0  0  0  0  0  0  0  0  0  0  0
   10.1452  -15.8286   24.9714 C   0  0  0  0  0  0  0  0  0  0  0  0
   10.7384  -14.7996   24.5752 O   0  0  0  0  0  0  0  0  0  0  0  0
    9.6593  -15.8665   26.2959 N   0  0  0  0  0  0  0  0  0  0  0  0
    9.9514  -14.8569   27.2931 C   0  0  1  0  0  0  0  0  0  0  0  0
    8.6126  -14.2473   27.7111 C   0  0  0  0  0  0  0  0  0  0  0  0
    8.3581  -12.6468   26.8910 S   0  0  0  0  0  0  0  0  0  0  0  0
   10.5558  -15.4269   28.5116 C   0  0  0  0  0  0  0  0  0  0  0  0
   10.6086  -16.6656   28.6415 O   0  0  0  0  0  0  0  0  0  0  0  0
   11.0610  -14.6189   29.5046 O   0  0  0  0  0  0  0  0  0  0  0  0
  2  1  1  1
  2  8  1  0
  3  2  1  0
  4  3  1  0
  4  5  1  0
  6  5  1  0
  7  6  1  0
  8  9  2  0
 11 10  1  6
 12  8  1  0
 12 11  1  0
 13 11  1  0
 13 15  1  0
 14 13  2  0
 16 19  1  0
 16 15  1  0
 16 17  1  1
 18 17  1  0
 19 21  1  0
 20 19  2  0
M  END
$$$$
