KAC.pdb
     RDKit          3D

 21 20  0  0  1  0  0  0  0  0999 V2000
    1.0709  -27.6985   31.6341 N   0  0  0  0  0  0  0  0  0  0  0  0
    0.0468  -28.3936   30.9059 C   0  0  1  0  0  0  0  0  0  0  0  0
    0.5651  -29.7009   30.3425 C   0  0  0  0  0  0  0  0  0  0  0  0
    1.9048  -29.3984   29.7045 C   0  0  0  0  0  0  0  0  0  0  0  0
    1.7444  -29.0315   28.2402 C   0  0  0  0  0  0  0  0  0  0  0  0
    3.0978  -28.7722   27.5833 C   0  0  0  0  0  0  0  0  0  0  0  0
    2.8164  -28.4051   26.1918 N   0  0  0  0  0  0  0  0  0  0  0  0
   -1.1827  -28.5853   31.7198 C   0  0  0  0  0  0  0  0  0  0  0  0
   -2.1960  -29.1216   31.2032 O   0  0  0  0  0  0  0  0  0  0  0  0
   -2.2196  -28.7642   35.2024 C   0  0  0  0  0  0  0  0  0  0  0  0
   -2.5124  -28.3388   33.7798 C   0  0  2  0  0  0  0  0  0  0  0  0
   -1.2714  -28.1844   33.0799 N   0  0  0  0  0  0  0  0  0  0  0  0
   -3.3474  -27.1106   33.7374 C   0  0  0  0  0  0  0  0  0  0  0  0
   -4.4793  -27.1552   34.2708 O   0  0  0  0  0  0  0  0  0  0  0  0
   -2.9283  -25.9077   33.1298 N   0  0  0  0  0  0  0  0  0  0  0  0
   -3.7355  -24.7058   33.0754 C   0  0  1  0  0  0  0  0  0  0  0  0
   -2.7688  -23.5214   33.1115 C   0  0  0  0  0  0  0  0  0  0  0  0
   -1.8686  -23.4822   34.6886 S   0  0  0  0  0  0  0  0  0  0  0  0
   -4.4952  -24.5939   31.8163 C   0  0  0  0  0  0  0  0  0  0  0  0
   -4.2847  -25.4173   30.9043 O   0  0  0  0  0  0  0  0  0  0  0  0
   -5.4292  -23.6003   31.6304 O   0  0  0  0  0  0  0  0  0  0  0  0
  2  1  1  1
  2  8  1  0
  3  2  1  0
  4  3  1  0
  4  5  1  0
  6  5  1  0
  7  6  1  0
  8  9  2  0
 11 10  1  1
 12  8  1  0
 12 11  1  0
 13 11  1  0
 13 15  1  0
 14 13  2  0
 16 19  1  0
 16 15  1  0
 16 17  1  6
 18 17  1  0
 19 21  1  0
 20 19  2  0
M  END
$$$$
