KAC.pdb
     RDKit          3D

 21 20  0  0  1  0  0  0  0  0999 V2000
    9.2733  -18.9714   21.5944 N   0  0  0  0  0  0  0  0  0  0  0  0
   10.1334  -17.9365   21.0928 C   0  0  1  0  0  0  0  0  0  0  0  0
   10.1967  -17.9611   19.5794 C   0  0  0  0  0  0  0  0  0  0  0  0
   11.4773  -18.6797   19.2096 C   0  0  0  0  0  0  0  0  0  0  0  0
   11.1979  -19.8694   18.3089 C   0  0  0  0  0  0  0  0  0  0  0  0
   12.4884  -20.5914   17.9297 C   0  0  0  0  0  0  0  0  0  0  0  0
   12.0889  -21.7624   17.1425 N   0  0  0  0  0  0  0  0  0  0  0  0
    9.7546  -16.5964   21.6138 C   0  0  0  0  0  0  0  0  0  0  0  0
   10.5167  -15.6145   21.4238 O   0  0  0  0  0  0  0  0  0  0  0  0
    6.6909  -14.8983   22.6941 C   0  0  0  0  0  0  0  0  0  0  0  0
    8.1988  -15.0274   22.7048 C   0  0  2  0  0  0  0  0  0  0  0  0
    8.5497  -16.3655   22.3303 N   0  0  0  0  0  0  0  0  0  0  0  0
    8.7718  -14.6341   24.0179 C   0  0  0  0  0  0  0  0  0  0  0  0
   10.0188  -14.5885   24.1209 O   0  0  0  0  0  0  0  0  0  0  0  0
    7.9838  -14.3127   25.1438 N   0  0  0  0  0  0  0  0  0  0  0  0
    8.5281  -13.8701   26.4114 C   0  0  1  0  0  0  0  0  0  0  0  0
    7.3986  -13.1523   27.1516 C   0  0  0  0  0  0  0  0  0  0  0  0
    6.7647  -11.7697   26.1587 S   0  0  0  0  0  0  0  0  0  0  0  0
    8.9476  -14.9949   27.2679 C   0  0  0  0  0  0  0  0  0  0  0  0
    8.6970  -16.1611   26.9056 O   0  0  0  0  0  0  0  0  0  0  0  0
    9.6086  -14.7814   28.4560 O   0  0  0  0  0  0  0  0  0  0  0  0
  2  1  1  6
  2  8  1  0
  3  2  1  0
  4  3  1  0
  4  5  1  0
  6  5  1  0
  7  6  1  0
  8  9  2  0
 11 10  1  1
 12  8  1  0
 12 11  1  0
 13 11  1  0
 13 15  1  0
 14 13  2  0
 16 19  1  0
 16 15  1  0
 16 17  1  1
 18 17  1  0
 19 21  1  0
 20 19  2  0
M  END
$$$$
