KAC.pdb
     RDKit          3D

 21 20  0  0  1  0  0  0  0  0999 V2000
    7.3017  -16.4461   19.5182 N   0  0  0  0  0  0  0  0  0  0  0  0
    7.8168  -15.4565   20.4224 C   0  0  1  0  0  0  0  0  0  0  0  0
    7.2713  -14.0807   20.0990 C   0  0  0  0  0  0  0  0  0  0  0  0
    8.1692  -13.4979   19.0279 C   0  0  0  0  0  0  0  0  0  0  0  0
    7.6736  -13.8609   17.6396 C   0  0  0  0  0  0  0  0  0  0  0  0
    8.6323  -13.3613   16.5617 C   0  0  0  0  0  0  0  0  0  0  0  0
    8.0783  -13.8074   15.2793 N   0  0  0  0  0  0  0  0  0  0  0  0
    7.5874  -15.8277   21.8438 C   0  0  0  0  0  0  0  0  0  0  0  0
    6.4774  -16.3044   22.1932 O   0  0  0  0  0  0  0  0  0  0  0  0
    8.8815  -17.4161   24.4572 C   0  0  0  0  0  0  0  0  0  0  0  0
    8.2852  -16.0497   24.1967 C   0  0  2  0  0  0  0  0  0  0  0  0
    8.5801  -15.6674   22.8474 N   0  0  0  0  0  0  0  0  0  0  0  0
    8.7570  -15.0492   25.1886 C   0  0  0  0  0  0  0  0  0  0  0  0
    9.9380  -14.6444   25.0933 O   0  0  0  0  0  0  0  0  0  0  0  0
    7.9440  -14.5388   26.2232 N   0  0  0  0  0  0  0  0  0  0  0  0
    8.4123  -13.6188   27.2398 C   0  0  1  0  0  0  0  0  0  0  0  0
    7.1875  -12.8526   27.7413 C   0  0  0  0  0  0  0  0  0  0  0  0
    6.2747  -12.1290   26.3477 S   0  0  0  0  0  0  0  0  0  0  0  0
    8.9845  -14.3136   28.4080 C   0  0  0  0  0  0  0  0  0  0  0  0
    8.9182  -15.5571   28.4681 O   0  0  0  0  0  0  0  0  0  0  0  0
    9.5883  -13.6167   29.4296 O   0  0  0  0  0  0  0  0  0  0  0  0
  2  1  1  6
  2  8  1  0
  3  2  1  0
  4  3  1  0
  4  5  1  0
  6  5  1  0
  7  6  1  0
  8  9  2  0
 11 10  1  1
 12  8  1  0
 12 11  1  0
 13 11  1  0
 13 15  1  0
 14 13  2  0
 16 19  1  0
 16 15  1  0
 16 17  1  1
 18 17  1  0
 19 21  1  0
 20 19  2  0
M  END
$$$$
