KAC.pdb
     RDKit          3D

 21 20  0  0  1  0  0  0  0  0999 V2000
    5.9786  -16.9766   20.6967 N   0  0  0  0  0  0  0  0  0  0  0  0
    7.1850  -16.4248   21.2466 C   0  0  1  0  0  0  0  0  0  0  0  0
    7.4068  -15.0046   20.7681 C   0  0  0  0  0  0  0  0  0  0  0  0
    7.7980  -15.0941   19.3080 C   0  0  0  0  0  0  0  0  0  0  0  0
    8.0121  -13.7143   18.7122 C   0  0  0  0  0  0  0  0  0  0  0  0
    8.4425  -13.8037   17.2502 C   0  0  0  0  0  0  0  0  0  0  0  0
    8.5182  -12.4242   16.7584 N   0  0  0  0  0  0  0  0  0  0  0  0
    7.2177  -16.5254   22.7298 C   0  0  0  0  0  0  0  0  0  0  0  0
    6.2016  -16.2088   23.3995 O   0  0  0  0  0  0  0  0  0  0  0  0
    9.1451  -18.1390   25.3825 C   0  0  0  0  0  0  0  0  0  0  0  0
    8.3511  -16.9545   24.8754 C   0  0  2  0  0  0  0  0  0  0  0  0
    8.3633  -16.9706   23.4424 N   0  0  0  0  0  0  0  0  0  0  0  0
    8.8594  -15.6756   25.4354 C   0  0  0  0  0  0  0  0  0  0  0  0
    9.8443  -15.1432   24.8749 O   0  0  0  0  0  0  0  0  0  0  0  0
    8.2894  -15.0391   26.5586 N   0  0  0  0  0  0  0  0  0  0  0  0
    8.8103  -13.8231   27.1493 C   0  0  1  0  0  0  0  0  0  0  0  0
    7.6141  -13.0613   27.7215 C   0  0  0  0  0  0  0  0  0  0  0  0
    6.3091  -12.8922   26.4696 S   0  0  0  0  0  0  0  0  0  0  0  0
    9.7211  -14.0903   28.2780 C   0  0  0  0  0  0  0  0  0  0  0  0
   10.2468  -13.1305   28.8752 O   0  0  0  0  0  0  0  0  0  0  0  0
   10.0006  -15.3757   28.6827 O   0  0  0  0  0  0  0  0  0  0  0  0
  2  1  1  1
  2  8  1  0
  3  2  1  0
  4  3  1  0
  4  5  1  0
  6  5  1  0
  7  6  1  0
  8  9  2  0
 11 10  1  1
 12  8  1  0
 12 11  1  0
 13 11  1  0
 13 15  1  0
 14 13  2  0
 16 19  1  0
 16 15  1  0
 16 17  1  1
 18 17  1  0
 19 21  1  0
 20 19  2  0
M  END
$$$$
