KAC.pdb
     RDKit          3D

 21 20  0  0  1  0  0  0  0  0999 V2000
    7.3630  -18.5568   22.0357 N   0  0  0  0  0  0  0  0  0  0  0  0
    8.7325  -18.2175   21.7682 C   0  0  1  0  0  0  0  0  0  0  0  0
    9.2734  -19.0046   20.5923 C   0  0  0  0  0  0  0  0  0  0  0  0
    8.0743  -19.5562   19.8500 C   0  0  0  0  0  0  0  0  0  0  0  0
    8.5021  -20.3351   18.6191 C   0  0  0  0  0  0  0  0  0  0  0  0
    7.2933  -20.8654   17.8522 C   0  0  0  0  0  0  0  0  0  0  0  0
    7.8201  -21.4897   16.6343 N   0  0  0  0  0  0  0  0  0  0  0  0
    8.9191  -16.7528   21.5925 C   0  0  0  0  0  0  0  0  0  0  0  0
   10.0749  -16.2863   21.4258 O   0  0  0  0  0  0  0  0  0  0  0  0
    6.9279  -13.7730   20.7886 C   0  0  0  0  0  0  0  0  0  0  0  0
    8.0983  -14.4317   21.4862 C   0  0  2  0  0  0  0  0  0  0  0  0
    7.8344  -15.8354   21.6039 N   0  0  0  0  0  0  0  0  0  0  0  0
    8.3830  -13.7934   22.7973 C   0  0  0  0  0  0  0  0  0  0  0  0
    8.7125  -12.5854   22.7994 O   0  0  0  0  0  0  0  0  0  0  0  0
    8.3000  -14.4783   24.0284 N   0  0  0  0  0  0  0  0  0  0  0  0
    8.5785  -13.8685   25.3128 C   0  0  1  0  0  0  0  0  0  0  0  0
    7.2444  -13.3580   25.8590 C   0  0  0  0  0  0  0  0  0  0  0  0
    7.4804  -12.5632   27.4750 S   0  0  0  0  0  0  0  0  0  0  0  0
    9.0954  -14.8381   26.2965 C   0  0  0  0  0  0  0  0  0  0  0  0
    8.9479  -16.0575   26.0833 O   0  0  0  0  0  0  0  0  0  0  0  0
    9.7355  -14.4227   27.4419 O   0  0  0  0  0  0  0  0  0  0  0  0
  2  1  1  6
  2  8  1  0
  3  2  1  0
  4  3  1  0
  4  5  1  0
  6  5  1  0
  7  6  1  0
  8  9  2  0
 11 10  1  1
 12  8  1  0
 12 11  1  0
 13 11  1  0
 13 15  1  0
 14 13  2  0
 16 19  1  0
 16 15  1  0
 16 17  1  1
 18 17  1  0
 19 21  1  0
 20 19  2  0
M  END
$$$$
