KAC.pdb
     RDKit          3D

 21 20  0  0  1  0  0  0  0  0999 V2000
    6.8232  -18.2201   21.3529 N   0  0  0  0  0  0  0  0  0  0  0  0
    8.2210  -17.9362   21.1857 C   0  0  1  0  0  0  0  0  0  0  0  0
    8.7790  -18.6292   19.9596 C   0  0  0  0  0  0  0  0  0  0  0  0
    8.0149  -19.9279   19.8089 C   0  0  0  0  0  0  0  0  0  0  0  0
    8.5394  -20.7400   18.6385 C   0  0  0  0  0  0  0  0  0  0  0  0
    7.7406  -22.0282   18.4567 C   0  0  0  0  0  0  0  0  0  0  0  0
    8.3001  -22.6966   17.2774 N   0  0  0  0  0  0  0  0  0  0  0  0
    8.4947  -16.4747   21.1737 C   0  0  0  0  0  0  0  0  0  0  0  0
    9.6822  -16.0623   21.1437 O   0  0  0  0  0  0  0  0  0  0  0  0
    6.5924  -13.3293   20.6752 C   0  0  0  0  0  0  0  0  0  0  0  0
    7.8013  -14.1103   21.1435 C   0  0  2  0  0  0  0  0  0  0  0  0
    7.4601  -15.5012   21.1948 N   0  0  0  0  0  0  0  0  0  0  0  0
    8.3119  -13.6003   22.4422 C   0  0  0  0  0  0  0  0  0  0  0  0
    8.7339  -12.4221   22.4818 O   0  0  0  0  0  0  0  0  0  0  0  0
    8.3433  -14.3744   23.6218 N   0  0  0  0  0  0  0  0  0  0  0  0
    8.8715  -13.9012   24.8852 C   0  0  1  0  0  0  0  0  0  0  0  0
    7.7222  -13.2004   25.6108 C   0  0  0  0  0  0  0  0  0  0  0  0
    8.2773  -12.5671   27.2201 S   0  0  0  0  0  0  0  0  0  0  0  0
    9.3143  -15.0036   25.7590 C   0  0  0  0  0  0  0  0  0  0  0  0
    8.7588  -16.1155   25.6635 O   0  0  0  0  0  0  0  0  0  0  0  0
   10.3262  -14.8278   26.6752 O   0  0  0  0  0  0  0  0  0  0  0  0
  2  1  1  6
  2  8  1  0
  3  2  1  0
  4  3  1  0
  4  5  1  0
  6  5  1  0
  7  6  1  0
  8  9  2  0
 11 10  1  1
 12  8  1  0
 12 11  1  0
 13 11  1  0
 13 15  1  0
 14 13  2  0
 16 19  1  0
 16 15  1  0
 16 17  1  1
 18 17  1  0
 19 21  1  0
 20 19  2  0
M  END
$$$$
