KAC.pdb
     RDKit          3D

 21 20  0  0  1  0  0  0  0  0999 V2000
    6.6495  -17.9633   20.3349 N   0  0  0  0  0  0  0  0  0  0  0  0
    8.0645  -17.8528   20.1160 C   0  0  1  0  0  0  0  0  0  0  0  0
    8.4589  -18.4317   18.7728 C   0  0  0  0  0  0  0  0  0  0  0  0
    7.1726  -18.6940   18.0180 C   0  0  0  0  0  0  0  0  0  0  0  0
    7.4538  -19.2044   16.6161 C   0  0  0  0  0  0  0  0  0  0  0  0
    6.1689  -19.3137   15.7990 C   0  0  0  0  0  0  0  0  0  0  0  0
    6.5763  -19.6778   14.4382 N   0  0  0  0  0  0  0  0  0  0  0  0
    8.5467  -16.4565   20.2853 C   0  0  0  0  0  0  0  0  0  0  0  0
    9.7775  -16.2085   20.2159 O   0  0  0  0  0  0  0  0  0  0  0  0
    7.2122  -13.0219   20.3378 C   0  0  0  0  0  0  0  0  0  0  0  0
    8.2136  -14.0661   20.7823 C   0  0  2  0  0  0  0  0  0  0  0  0
    7.6682  -15.3664   20.5264 N   0  0  0  0  0  0  0  0  0  0  0  0
    8.6020  -13.8806   22.2043 C   0  0  0  0  0  0  0  0  0  0  0  0
    9.2157  -12.8329   22.5102 O   0  0  0  0  0  0  0  0  0  0  0  0
    8.3144  -14.8210   23.2165 N   0  0  0  0  0  0  0  0  0  0  0  0
    8.7889  -14.7104   24.5809 C   0  0  1  0  0  0  0  0  0  0  0  0
    7.6294  -14.1553   25.4092 C   0  0  0  0  0  0  0  0  0  0  0  0
    6.2189  -15.2992   25.3768 S   0  0  0  0  0  0  0  0  0  0  0  0
    9.1371  -16.0194   25.1642 C   0  0  0  0  0  0  0  0  0  0  0  0
    8.8598  -17.0587   24.5339 O   0  0  0  0  0  0  0  0  0  0  0  0
    9.7604  -16.1144   26.3875 O   0  0  0  0  0  0  0  0  0  0  0  0
  2  1  1  6
  2  8  1  0
  3  2  1  0
  4  3  1  0
  4  5  1  0
  6  5  1  0
  7  6  1  0
  8  9  2  0
 11 10  1  1
 12  8  1  0
 12 11  1  0
 13 11  1  0
 13 15  1  0
 14 13  2  0
 16 19  1  0
 16 15  1  0
 16 17  1  1
 18 17  1  0
 19 21  1  0
 20 19  2  0
M  END
$$$$
