KAC.pdb
     RDKit          3D

 21 20  0  0  1  0  0  0  0  0999 V2000
    8.7814  -16.7911   19.7951 N   0  0  0  0  0  0  0  0  0  0  0  0
    8.0322  -17.4290   20.8410 C   0  0  1  0  0  0  0  0  0  0  0  0
    7.6163  -18.8301   20.4422 C   0  0  0  0  0  0  0  0  0  0  0  0
    6.4060  -18.6850   19.5438 C   0  0  0  0  0  0  0  0  0  0  0  0
    5.8864  -20.0409   19.1007 C   0  0  0  0  0  0  0  0  0  0  0  0
    4.6963  -19.8954   18.1557 C   0  0  0  0  0  0  0  0  0  0  0  0
    4.2619  -21.2572   17.8282 N   0  0  0  0  0  0  0  0  0  0  0  0
    8.7597  -17.4107   22.1377 C   0  0  0  0  0  0  0  0  0  0  0  0
    8.1632  -17.7451   23.1929 O   0  0  0  0  0  0  0  0  0  0  0  0
   12.2421  -17.0607   23.3634 C   0  0  0  0  0  0  0  0  0  0  0  0
   10.7410  -16.9799   23.5381 C   0  0  2  0  0  0  0  0  0  0  0  0
   10.1232  -17.0263   22.2459 N   0  0  0  0  0  0  0  0  0  0  0  0
   10.3452  -15.7776   24.3163 C   0  0  0  0  0  0  0  0  0  0  0  0
   10.2392  -14.6924   23.7008 O   0  0  0  0  0  0  0  0  0  0  0  0
   10.0857  -15.8015   25.7033 N   0  0  0  0  0  0  0  0  0  0  0  0
    9.8897  -14.6137   26.5094 C   0  0  1  0  0  0  0  0  0  0  0  0
    8.4312  -14.1913   26.3278 C   0  0  0  0  0  0  0  0  0  0  0  0
    8.0615  -12.7284   27.3389 S   0  0  0  0  0  0  0  0  0  0  0  0
   10.0794  -14.8722   27.9489 C   0  0  0  0  0  0  0  0  0  0  0  0
   10.0961  -16.0497   28.3580 O   0  0  0  0  0  0  0  0  0  0  0  0
   10.2379  -13.8406   28.8460 O   0  0  0  0  0  0  0  0  0  0  0  0
  2  1  1  6
  2  8  1  0
  3  2  1  0
  4  3  1  0
  4  5  1  0
  6  5  1  0
  7  6  1  0
  8  9  2  0
 11 10  1  6
 12  8  1  0
 12 11  1  0
 13 11  1  0
 13 15  1  0
 14 13  2  0
 16 19  1  0
 16 15  1  0
 16 17  1  1
 18 17  1  0
 19 21  1  0
 20 19  2  0
M  END
$$$$
