KAC.pdb
     RDKit          3D

 21 20  0  0  1  0  0  0  0  0999 V2000
    6.1338  -19.1290   20.3657 N   0  0  0  0  0  0  0  0  0  0  0  0
    5.6890  -17.9496   21.0538 C   0  0  1  0  0  0  0  0  0  0  0  0
    5.1510  -18.2866   22.4292 C   0  0  0  0  0  0  0  0  0  0  0  0
    4.4204  -19.6065   22.2987 C   0  0  0  0  0  0  0  0  0  0  0  0
    5.3493  -20.7765   22.5689 C   0  0  0  0  0  0  0  0  0  0  0  0
    4.5988  -22.1045   22.5074 C   0  0  0  0  0  0  0  0  0  0  0  0
    5.6191  -23.1566   22.5566 N   0  0  0  0  0  0  0  0  0  0  0  0
    6.7459  -16.9050   21.1085 C   0  0  0  0  0  0  0  0  0  0  0  0
    7.9399  -17.2358   21.3229 O   0  0  0  0  0  0  0  0  0  0  0  0
    7.0043  -13.1997   20.6996 C   0  0  0  0  0  0  0  0  0  0  0  0
    7.5196  -14.5655   21.0992 C   0  0  2  0  0  0  0  0  0  0  0  0
    6.4680  -15.5237   20.9269 N   0  0  0  0  0  0  0  0  0  0  0  0
    8.0658  -14.5609   22.4809 C   0  0  0  0  0  0  0  0  0  0  0  0
    7.5924  -13.7342   23.2933 O   0  0  0  0  0  0  0  0  0  0  0  0
    9.0836  -15.4364   22.9161 N   0  0  0  0  0  0  0  0  0  0  0  0
    9.6217  -15.4449   24.2612 C   0  0  1  0  0  0  0  0  0  0  0  0
    8.5337  -16.0193   25.1695 C   0  0  0  0  0  0  0  0  0  0  0  0
    9.1848  -16.3045   26.8410 S   0  0  0  0  0  0  0  0  0  0  0  0
   10.7941  -16.3297   24.3934 C   0  0  0  0  0  0  0  0  0  0  0  0
   11.4464  -16.3197   25.4558 O   0  0  0  0  0  0  0  0  0  0  0  0
   11.1801  -17.1636   23.3688 O   0  0  0  0  0  0  0  0  0  0  0  0
  2  1  1  1
  2  8  1  0
  3  2  1  0
  4  3  1  0
  4  5  1  0
  6  5  1  0
  7  6  1  0
  8  9  2  0
 11 10  1  1
 12  8  1  0
 12 11  1  0
 13 11  1  0
 13 15  1  0
 14 13  2  0
 16 19  1  0
 16 15  1  0
 16 17  1  1
 18 17  1  0
 19 21  1  0
 20 19  2  0
M  END
$$$$
