AWQ.pdb
     RDKit          3D

 29 30  0  0  1  0  0  0  0  0999 V2000
   11.0381  -16.5010   20.2415 C   0  0  0  0  0  0  0  0  0  0  0  0
   10.7529  -17.3526   21.4634 C   0  0  2  0  0  0  0  0  0  0  0  0
    9.4611  -18.0040   21.3566 N   0  0  0  0  0  0  0  0  0  0  0  0
   10.7426  -16.4895   22.6749 C   0  0  0  0  0  0  0  0  0  0  0  0
   11.8218  -15.9651   23.0408 O   0  0  0  0  0  0  0  0  0  0  0  0
    9.5683  -16.2334   23.4343 N   0  0  0  0  0  0  0  0  0  0  0  0
    9.6072  -15.4180   24.6328 C   0  0  1  0  0  0  0  0  0  0  0  0
    8.3465  -14.5973   24.7793 C   0  0  0  0  0  0  0  0  0  0  0  0
    7.4193  -14.8227   23.6468 C   0  0  0  0  0  0  0  0  0  0  0  0
    6.4238  -15.7632   23.5589 C   0  0  0  0  0  0  0  0  0  0  0  0
    5.8064  -15.6408   22.3581 N   0  0  0  0  0  0  0  0  0  0  0  0
    6.3909  -14.6369   21.6759 C   0  0  0  0  0  0  0  0  0  0  0  0
    6.1221  -14.1320   20.4202 C   0  0  0  0  0  0  0  0  0  0  0  0
    6.8893  -13.0705   19.9418 C   0  0  0  0  0  0  0  0  0  0  0  0
    7.8922  -12.5349   20.6995 C   0  0  0  0  0  0  0  0  0  0  0  0
    8.1412  -13.0571   21.9512 C   0  0  0  0  0  0  0  0  0  0  0  0
    7.3997  -14.1146   22.4649 C   0  0  0  0  0  0  0  0  0  0  0  0
    9.6736  -16.3382   25.8207 C   0  0  0  0  0  0  0  0  0  0  0  0
    9.6323  -15.8628   26.9884 O   0  0  0  0  0  0  0  0  0  0  0  0
    6.9241  -21.4383   25.7083 N   0  0  0  0  0  0  0  0  0  0  0  0
    6.7137  -20.7555   26.9223 C   0  0  0  0  0  0  0  0  0  0  0  0
    5.6059  -20.8407   27.5115 O   0  0  0  0  0  0  0  0  0  0  0  0
    7.7786  -19.9376   27.5305 C   0  0  0  0  0  0  0  0  0  0  0  0
    8.9417  -19.7912   26.6195 C   0  0  0  0  0  0  0  0  0  0  0  0
    9.7895  -18.6067   26.8845 C   0  0  2  0  0  0  0  0  0  0  0  0
    9.7823  -17.7372   25.6714 N   0  0  0  0  0  0  0  0  0  0  0  0
   11.1686  -18.7397   27.2819 C   0  0  0  0  0  0  0  0  0  0  0  0
   12.1079  -18.2527   26.6139 O   0  0  0  0  0  0  0  0  0  0  0  0
   11.5327  -19.4229   28.4408 O   0  0  0  0  0  0  0  0  0  0  0  0
  2  1  1  6
  2  4  1  0
  3  2  1  0
  4  5  2  0
  6  4  1  0
  6  7  1  0
  7  8  1  1
  9  8  1  0
 10  9  2  0
 11 12  1  0
 11 10  1  0
 12 17  2  0
 13 14  2  0
 13 12  1  0
 14 15  1  0
 15 16  2  0
 17 16  1  0
 17  9  1  0
 18  7  1  0
 18 19  2  0
 20 21  1  0
 21 22  2  0
 23 24  1  0
 23 21  1  0
 25 24  1  6
 25 26  1  0
 26 18  1  0
 27 29  1  0
 27 25  1  0
 28 27  2  0
M  END
$$$$
