AWQ.pdb
     RDKit          3D

 29 30  0  0  1  0  0  0  0  0999 V2000
    7.6468  -15.4716   18.7823 C   0  0  0  0  0  0  0  0  0  0  0  0
    8.4528  -16.5492   19.4815 C   0  0  2  0  0  0  0  0  0  0  0  0
    7.6773  -17.7657   19.6342 N   0  0  0  0  0  0  0  0  0  0  0  0
    8.8453  -16.0719   20.8347 C   0  0  0  0  0  0  0  0  0  0  0  0
    9.5905  -15.0663   20.9177 O   0  0  0  0  0  0  0  0  0  0  0  0
    8.4152  -16.7026   22.0340 N   0  0  0  0  0  0  0  0  0  0  0  0
    8.7837  -16.1804   23.3357 C   0  0  1  0  0  0  0  0  0  0  0  0
    7.6178  -16.2279   24.2962 C   0  0  0  0  0  0  0  0  0  0  0  0
    7.1501  -14.8673   24.6474 C   0  0  0  0  0  0  0  0  0  0  0  0
    6.2273  -14.1041   23.9772 C   0  0  0  0  0  0  0  0  0  0  0  0
    6.0823  -12.9204   24.6220 N   0  0  0  0  0  0  0  0  0  0  0  0
    6.8977  -12.9137   25.6945 C   0  0  0  0  0  0  0  0  0  0  0  0
    7.1078  -11.9443   26.6536 C   0  0  0  0  0  0  0  0  0  0  0  0
    8.0225  -12.1943   27.6759 C   0  0  0  0  0  0  0  0  0  0  0  0
    8.7026  -13.3779   27.7321 C   0  0  0  0  0  0  0  0  0  0  0  0
    8.4750  -14.3308   26.7616 C   0  0  0  0  0  0  0  0  0  0  0  0
    7.5719  -14.1210   25.7262 C   0  0  0  0  0  0  0  0  0  0  0  0
    9.8591  -17.0643   23.9052 C   0  0  0  0  0  0  0  0  0  0  0  0
    9.7675  -18.3177   23.7955 O   0  0  0  0  0  0  0  0  0  0  0  0
   16.2350  -15.6838   25.2725 N   0  0  0  0  0  0  0  0  0  0  0  0
   15.8262  -16.8743   24.6399 C   0  0  0  0  0  0  0  0  0  0  0  0
   16.5238  -17.3727   23.7200 O   0  0  0  0  0  0  0  0  0  0  0  0
   14.5862  -17.5629   25.0414 C   0  0  0  0  0  0  0  0  0  0  0  0
   13.3806  -16.8207   24.5942 C   0  0  0  0  0  0  0  0  0  0  0  0
   12.0934  -17.4417   24.9807 C   0  0  2  0  0  0  0  0  0  0  0  0
   10.9847  -16.5314   24.5686 N   0  0  0  0  0  0  0  0  0  0  0  0
   11.8199  -17.8257   26.3428 C   0  0  0  0  0  0  0  0  0  0  0  0
   11.9412  -19.0050   26.7433 O   0  0  0  0  0  0  0  0  0  0  0  0
   11.4030  -16.8969   27.2945 O   0  0  0  0  0  0  0  0  0  0  0  0
  2  1  1  1
  2  4  1  0
  3  2  1  0
  4  5  2  0
  6  4  1  0
  6  7  1  0
  7  8  1  1
  9  8  1  0
 10  9  2  0
 11 12  1  0
 11 10  1  0
 12 17  2  0
 13 14  2  0
 13 12  1  0
 14 15  1  0
 15 16  2  0
 17 16  1  0
 17  9  1  0
 18  7  1  0
 18 19  2  0
 20 21  1  0
 21 22  2  0
 23 24  1  0
 23 21  1  0
 25 24  1  1
 25 26  1  0
 26 18  1  0
 27 29  1  0
 27 25  1  0
 28 27  2  0
M  END
$$$$
