AWQ.pdb
     RDKit          3D

 29 30  0  0  1  0  0  0  0  0999 V2000
    8.6773  -16.4216   19.5131 C   0  0  0  0  0  0  0  0  0  0  0  0
    7.7456  -16.2480   20.6969 C   0  0  2  0  0  0  0  0  0  0  0  0
    6.6973  -15.2900   20.4009 N   0  0  0  0  0  0  0  0  0  0  0  0
    8.5196  -15.7483   21.8648 C   0  0  0  0  0  0  0  0  0  0  0  0
    9.1348  -14.6612   21.7497 O   0  0  0  0  0  0  0  0  0  0  0  0
    8.5932  -16.4456   23.1016 N   0  0  0  0  0  0  0  0  0  0  0  0
    9.3985  -15.9498   24.2010 C   0  0  1  0  0  0  0  0  0  0  0  0
    8.6903  -16.1287   25.5242 C   0  0  0  0  0  0  0  0  0  0  0  0
    7.5117  -15.2385   25.6319 C   0  0  0  0  0  0  0  0  0  0  0  0
    6.1899  -15.5872   25.5120 C   0  0  0  0  0  0  0  0  0  0  0  0
    5.4252  -14.4795   25.6740 N   0  0  0  0  0  0  0  0  0  0  0  0
    6.2365  -13.4271   25.8957 C   0  0  0  0  0  0  0  0  0  0  0  0
    5.9391  -12.0981   26.1176 C   0  0  0  0  0  0  0  0  0  0  0  0
    6.9843  -11.1984   26.3230 C   0  0  0  0  0  0  0  0  0  0  0  0
    8.2838  -11.6200   26.3059 C   0  0  0  0  0  0  0  0  0  0  0  0
    8.5551  -12.9533   26.0821 C   0  0  0  0  0  0  0  0  0  0  0  0
    7.5425  -13.8821   25.8729 C   0  0  0  0  0  0  0  0  0  0  0  0
   10.6585  -16.7688   24.2622 C   0  0  0  0  0  0  0  0  0  0  0  0
   10.6668  -17.9460   23.8090 O   0  0  0  0  0  0  0  0  0  0  0  0
   15.6212  -16.6834   21.1360 N   0  0  0  0  0  0  0  0  0  0  0  0
   15.3746  -15.8343   22.2326 C   0  0  0  0  0  0  0  0  0  0  0  0
   16.2661  -15.0420   22.6313 O   0  0  0  0  0  0  0  0  0  0  0  0
   14.0755  -15.8477   22.9291 C   0  0  0  0  0  0  0  0  0  0  0  0
   14.2143  -16.3075   24.3339 C   0  0  0  0  0  0  0  0  0  0  0  0
   13.0760  -17.1092   24.8376 C   0  0  2  0  0  0  0  0  0  0  0  0
   11.8505  -16.2575   24.8181 N   0  0  0  0  0  0  0  0  0  0  0  0
   13.1126  -17.7405   26.1327 C   0  0  0  0  0  0  0  0  0  0  0  0
   12.3401  -17.4109   27.0604 O   0  0  0  0  0  0  0  0  0  0  0  0
   14.0169  -18.7603   26.4237 O   0  0  0  0  0  0  0  0  0  0  0  0
  2  1  1  6
  2  4  1  0
  3  2  1  0
  4  5  2  0
  6  4  1  0
  6  7  1  0
  7  8  1  1
  9  8  1  0
 10  9  2  0
 11 12  1  0
 11 10  1  0
 12 17  2  0
 13 14  2  0
 13 12  1  0
 14 15  1  0
 15 16  2  0
 17 16  1  0
 17  9  1  0
 18  7  1  0
 18 19  2  0
 20 21  1  0
 21 22  2  0
 23 24  1  0
 23 21  1  0
 25 24  1  1
 25 26  1  0
 26 18  1  0
 27 29  1  0
 27 25  1  0
 28 27  2  0
M  END
$$$$
