AWQ.pdb
     RDKit          3D

 29 30  0  0  1  0  0  0  0  0999 V2000
    6.4478  -16.1039   20.6168 C   0  0  0  0  0  0  0  0  0  0  0  0
    7.5090  -17.0080   21.2137 C   0  0  2  0  0  0  0  0  0  0  0  0
    6.9267  -17.9496   22.1510 N   0  0  0  0  0  0  0  0  0  0  0  0
    8.5090  -16.1814   21.9414 C   0  0  0  0  0  0  0  0  0  0  0  0
    9.1982  -15.3654   21.2836 O   0  0  0  0  0  0  0  0  0  0  0  0
    8.7179  -16.2746   23.3446 N   0  0  0  0  0  0  0  0  0  0  0  0
    9.6820  -15.4295   24.0221 C   0  0  1  0  0  0  0  0  0  0  0  0
    9.3563  -15.2946   25.4918 C   0  0  0  0  0  0  0  0  0  0  0  0
    7.9929  -14.7540   25.6967 C   0  0  0  0  0  0  0  0  0  0  0  0
    6.8118  -15.4527   25.7066 C   0  0  0  0  0  0  0  0  0  0  0  0
    5.7900  -14.5884   25.9234 N   0  0  0  0  0  0  0  0  0  0  0  0
    6.2983  -13.3474   26.0524 C   0  0  0  0  0  0  0  0  0  0  0  0
    5.6687  -12.1412   26.2817 C   0  0  0  0  0  0  0  0  0  0  0  0
    6.4413  -10.9842   26.3747 C   0  0  0  0  0  0  0  0  0  0  0  0
    7.8000  -11.0378   26.2419 C   0  0  0  0  0  0  0  0  0  0  0  0
    8.4056  -12.2554   26.0132 C   0  0  0  0  0  0  0  0  0  0  0  0
    7.6719  -13.4316   25.9138 C   0  0  0  0  0  0  0  0  0  0  0  0
   11.0291  -16.0918   23.9290 C   0  0  0  0  0  0  0  0  0  0  0  0
   12.0770  -15.4180   24.1273 O   0  0  0  0  0  0  0  0  0  0  0  0
    9.2303  -21.0182   26.5717 N   0  0  0  0  0  0  0  0  0  0  0  0
   10.5910  -20.9599   26.9315 C   0  0  0  0  0  0  0  0  0  0  0  0
   10.9790  -21.4575   28.0193 O   0  0  0  0  0  0  0  0  0  0  0  0
   11.5860  -20.3267   26.0472 C   0  0  0  0  0  0  0  0  0  0  0  0
   10.9629  -19.3060   25.1674 C   0  0  0  0  0  0  0  0  0  0  0  0
   11.9160  -18.3531   24.5543 C   0  0  2  0  0  0  0  0  0  0  0  0
   11.1633  -17.4626   23.6225 N   0  0  0  0  0  0  0  0  0  0  0  0
   13.0784  -18.8075   23.8333 C   0  0  0  0  0  0  0  0  0  0  0  0
   13.0705  -18.9865   22.5948 O   0  0  0  0  0  0  0  0  0  0  0  0
   14.2830  -19.0737   24.4817 O   0  0  0  0  0  0  0  0  0  0  0  0
  2  1  1  1
  2  4  1  0
  3  2  1  0
  4  5  2  0
  6  4  1  0
  6  7  1  0
  7  8  1  1
  9  8  1  0
 10  9  2  0
 11 12  1  0
 11 10  1  0
 12 17  2  0
 13 14  2  0
 13 12  1  0
 14 15  1  0
 15 16  2  0
 17 16  1  0
 17  9  1  0
 18  7  1  0
 18 19  2  0
 20 21  1  0
 21 22  2  0
 23 24  1  0
 23 21  1  0
 25 24  1  6
 25 26  1  0
 26 18  1  0
 27 29  1  0
 27 25  1  0
 28 27  2  0
M  END
$$$$
