AWQ.pdb
     RDKit          3D

 29 30  0  0  1  0  0  0  0  0999 V2000
    8.3141  -15.1578   18.1299 C   0  0  0  0  0  0  0  0  0  0  0  0
    8.5889  -16.3549   19.0194 C   0  0  2  0  0  0  0  0  0  0  0  0
    7.4435  -17.2438   19.0682 N   0  0  0  0  0  0  0  0  0  0  0  0
    8.8766  -15.8867   20.4017 C   0  0  0  0  0  0  0  0  0  0  0  0
    9.9515  -15.2746   20.6107 O   0  0  0  0  0  0  0  0  0  0  0  0
    7.9910  -16.1013   21.4930 N   0  0  0  0  0  0  0  0  0  0  0  0
    8.3180  -15.6479   22.8310 C   0  0  1  0  0  0  0  0  0  0  0  0
    7.0720  -15.4514   23.6636 C   0  0  0  0  0  0  0  0  0  0  0  0
    7.4038  -15.0204   25.0410 C   0  0  0  0  0  0  0  0  0  0  0  0
    7.9683  -15.7761   26.0378 C   0  0  0  0  0  0  0  0  0  0  0  0
    8.1055  -15.0100   27.1479 N   0  0  0  0  0  0  0  0  0  0  0  0
    7.6379  -13.7757   26.8775 C   0  0  0  0  0  0  0  0  0  0  0  0
    7.5617  -12.6524   27.6751 C   0  0  0  0  0  0  0  0  0  0  0  0
    7.0255  -11.4813   27.1410 C   0  0  0  0  0  0  0  0  0  0  0  0
    6.5811  -11.4408   25.8496 C   0  0  0  0  0  0  0  0  0  0  0  0
    6.6681  -12.5768   25.0728 C   0  0  0  0  0  0  0  0  0  0  0  0
    7.1958  -13.7639   25.5670 C   0  0  0  0  0  0  0  0  0  0  0  0
    9.1302  -16.7216   23.5015 C   0  0  0  0  0  0  0  0  0  0  0  0
    8.7888  -17.9309   23.3909 O   0  0  0  0  0  0  0  0  0  0  0  0
   14.9340  -18.0405   23.4105 N   0  0  0  0  0  0  0  0  0  0  0  0
   14.4572  -16.7373   23.1682 C   0  0  0  0  0  0  0  0  0  0  0  0
   15.2622  -15.8104   22.8958 O   0  0  0  0  0  0  0  0  0  0  0  0
   13.0161  -16.4318   23.2203 C   0  0  0  0  0  0  0  0  0  0  0  0
   12.2103  -17.6475   23.4979 C   0  0  0  0  0  0  0  0  0  0  0  0
   11.2402  -17.5064   24.6075 C   0  0  2  0  0  0  0  0  0  0  0  0
   10.2793  -16.4178   24.2622 N   0  0  0  0  0  0  0  0  0  0  0  0
   11.6719  -17.2547   25.9594 C   0  0  0  0  0  0  0  0  0  0  0  0
   12.4179  -18.0434   26.5820 O   0  0  0  0  0  0  0  0  0  0  0  0
   11.2792  -16.1104   26.6513 O   0  0  0  0  0  0  0  0  0  0  0  0
  2  1  1  6
  2  4  1  0
  3  2  1  0
  4  5  2  0
  6  4  1  0
  6  7  1  0
  7  8  1  1
  9  8  1  0
 10  9  2  0
 11 12  1  0
 11 10  1  0
 12 17  2  0
 13 14  2  0
 13 12  1  0
 14 15  1  0
 15 16  2  0
 17 16  1  0
 17  9  1  0
 18  7  1  0
 18 19  2  0
 20 21  1  0
 21 22  2  0
 23 24  1  0
 23 21  1  0
 25 24  1  6
 25 26  1  0
 26 18  1  0
 27 29  1  0
 27 25  1  0
 28 27  2  0
M  END
$$$$
