AWQ.pdb
     RDKit          3D

 29 30  0  0  1  0  0  0  0  0999 V2000
    7.7508  -21.9979   24.0322 C   0  0  0  0  0  0  0  0  0  0  0  0
    6.9244  -20.9953   23.2501 C   0  0  2  0  0  0  0  0  0  0  0  0
    6.8613  -21.3523   21.8455 N   0  0  0  0  0  0  0  0  0  0  0  0
    7.5462  -19.6486   23.3629 C   0  0  0  0  0  0  0  0  0  0  0  0
    8.5443  -19.3925   22.6476 O   0  0  0  0  0  0  0  0  0  0  0  0
    7.0616  -18.6423   24.2425 N   0  0  0  0  0  0  0  0  0  0  0  0
    7.6288  -17.3078   24.2484 C   0  0  1  0  0  0  0  0  0  0  0  0
    6.6021  -16.2769   24.6578 C   0  0  0  0  0  0  0  0  0  0  0  0
    7.1322  -14.9009   24.5205 C   0  0  0  0  0  0  0  0  0  0  0  0
    7.8910  -14.3985   23.4935 C   0  0  0  0  0  0  0  0  0  0  0  0
    8.1726  -13.0971   23.7490 N   0  0  0  0  0  0  0  0  0  0  0  0
    7.6059  -12.7585   24.9234 C   0  0  0  0  0  0  0  0  0  0  0  0
    7.6072  -11.5590   25.6055 C   0  0  0  0  0  0  0  0  0  0  0  0
    6.9318  -11.4746   26.8223 C   0  0  0  0  0  0  0  0  0  0  0  0
    6.2776  -12.5585   27.3360 C   0  0  0  0  0  0  0  0  0  0  0  0
    6.2910  -13.7461   26.6353 C   0  0  0  0  0  0  0  0  0  0  0  0
    6.9523  -13.8720   25.4193 C   0  0  0  0  0  0  0  0  0  0  0  0
    8.7238  -17.2712   25.2788 C   0  0  0  0  0  0  0  0  0  0  0  0
    8.5785  -17.8804   26.3738 O   0  0  0  0  0  0  0  0  0  0  0  0
   13.9213  -16.0207   22.5301 N   0  0  0  0  0  0  0  0  0  0  0  0
   14.0860  -15.5918   23.8617 C   0  0  0  0  0  0  0  0  0  0  0  0
   15.2163  -15.2234   24.2718 O   0  0  0  0  0  0  0  0  0  0  0  0
   12.9471  -15.5575   24.7971 C   0  0  0  0  0  0  0  0  0  0  0  0
   12.3154  -16.8937   24.9368 C   0  0  0  0  0  0  0  0  0  0  0  0
   11.1444  -16.9326   25.8421 C   0  0  2  0  0  0  0  0  0  0  0  0
    9.9272  -16.5677   25.0593 N   0  0  0  0  0  0  0  0  0  0  0  0
   11.1001  -16.1507   27.0520 C   0  0  0  0  0  0  0  0  0  0  0  0
   10.3053  -15.1961   27.2037 O   0  0  0  0  0  0  0  0  0  0  0  0
   11.9463  -16.4180   28.1267 O   0  0  0  0  0  0  0  0  0  0  0  0
  2  1  1  1
  2  4  1  0
  3  2  1  0
  4  5  2  0
  6  4  1  0
  6  7  1  0
  7  8  1  1
  9  8  1  0
 10  9  2  0
 11 12  1  0
 11 10  1  0
 12 17  2  0
 13 14  2  0
 13 12  1  0
 14 15  1  0
 15 16  2  0
 17 16  1  0
 17  9  1  0
 18  7  1  0
 18 19  2  0
 20 21  1  0
 21 22  2  0
 23 24  1  0
 23 21  1  0
 25 24  1  6
 25 26  1  0
 26 18  1  0
 27 29  1  0
 27 25  1  0
 28 27  2  0
M  END
$$$$
