RSE.pdb
     RDKit          3D

 27 26  0  0  1  0  0  0  0  0999 V2000
    7.7571  -21.1072   17.1898 N   0  0  0  0  0  0  0  0  0  0  0  0
    8.2349  -21.3934   18.4950 C   0  0  0  0  0  0  0  0  0  0  0  0
    7.5278  -22.1036   19.3301 N   0  0  0  0  0  0  0  0  0  0  0  0
    9.4939  -20.9265   18.9532 N   0  0  0  0  0  0  0  0  0  0  0  0
   10.3781  -20.2301   18.0784 C   0  0  0  0  0  0  0  0  0  0  0  0
   10.3005  -18.7202   18.3264 C   0  0  0  0  0  0  0  0  0  0  0  0
   10.9867  -18.3246   19.6107 C   0  0  0  0  0  0  0  0  0  0  0  0
   10.8988  -16.8894   19.9324 C   0  0  2  0  0  0  0  0  0  0  0  0
   11.7188  -16.0484   19.0861 N   0  0  0  0  0  0  0  0  0  0  0  0
   10.9964  -16.4730   21.3274 C   0  0  0  0  0  0  0  0  0  0  0  0
   12.1474  -16.1601   21.8120 O   0  0  0  0  0  0  0  0  0  0  0  0
    7.9449  -22.3188   20.2622 O   0  0  0  0  0  0  0  0  0  0  0  0
    7.8821  -16.5713   24.1429 C   0  0  0  0  0  0  0  0  0  0  0  0
    8.8475  -15.5783   24.2380 C   0  0  1  0  0  0  0  0  0  0  0  0
   10.1690  -16.0429   23.6684 N   0  0  0  0  0  0  0  0  0  0  0  0
    9.9423  -16.3658   22.2697 C   0  0  0  0  0  0  0  0  0  0  0  0
   10.5944  -17.2491   24.4360 O   0  0  0  0  0  0  0  0  0  0  0  0
   10.8634  -18.3183   23.8311 N   0  0  0  0  0  0  0  0  0  0  0  0
   10.7025  -17.2112   25.8524 C   0  0  1  0  0  0  0  0  0  0  0  0
   11.1536  -18.3598   26.6296 C   0  0  0  0  0  0  0  0  0  0  0  0
   12.5431  -18.6962   26.1701 C   0  0  0  0  0  0  0  0  0  0  0  0
   13.2280  -19.7675   26.9405 C   0  0  0  0  0  0  0  0  0  0  0  0
   14.6274  -20.0158   26.5541 O   0  0  0  0  0  0  0  0  0  0  0  0
   15.5589  -20.1613   27.3839 C   0  0  0  0  0  0  0  0  0  0  0  0
   11.0674  -18.0938   28.0833 O   0  0  0  0  0  0  0  0  0  0  0  0
   10.8525  -16.9264   28.4920 O   0  0  0  0  0  0  0  0  0  0  0  0
   14.9669  -20.0976   25.2186 O   0  0  0  0  0  0  0  0  0  0  0  0
  2  3  2  0
  2  1  1  0
  4  2  1  0
  5  4  1  0
  6  5  1  0
  7  6  1  0
  8  7  1  0
  8 10  1  0
  8  9  1  6
 10 11  2  0
 13 12  1  0
 14 13  1  6
 15 10  1  0
 15 14  1  0
 16 14  1  0
 16 17  2  0
 18 16  1  0
 19 24  1  0
 19 18  1  0
 19 20  1  1
 21 20  1  0
 22 21  1  0
 23 22  2  0
 24 27  1  0
 25 24  2  0
 26 22  1  0
M  END
$$$$
