RSE.pdb
     RDKit          3D

 27 26  0  0  1  0  0  0  0  0999 V2000
    7.6176  -13.1765   17.8358 N   0  0  0  0  0  0  0  0  0  0  0  0
    8.3366  -12.7036   18.9641 C   0  0  0  0  0  0  0  0  0  0  0  0
    8.2638  -11.4546   19.3338 N   0  0  0  0  0  0  0  0  0  0  0  0
    9.1627  -13.5570   19.7401 N   0  0  0  0  0  0  0  0  0  0  0  0
    9.2756  -14.9441   19.4315 C   0  0  0  0  0  0  0  0  0  0  0  0
    8.5575  -15.7899   20.4879 C   0  0  0  0  0  0  0  0  0  0  0  0
    8.6166  -17.2627   20.1655 C   0  0  0  0  0  0  0  0  0  0  0  0
    7.8425  -18.1192   21.0810 C   0  0  2  0  0  0  0  0  0  0  0  0
    6.5012  -17.6390   21.3385 N   0  0  0  0  0  0  0  0  0  0  0  0
    8.4721  -18.5833   22.3127 C   0  0  0  0  0  0  0  0  0  0  0  0
    8.1045  -18.0763   23.4376 O   0  0  0  0  0  0  0  0  0  0  0  0
    8.7429  -11.1792   20.2190 O   0  0  0  0  0  0  0  0  0  0  0  0
   12.1476  -20.2468   22.4832 C   0  0  0  0  0  0  0  0  0  0  0  0
   11.2825  -20.7979   23.4186 C   0  0  1  0  0  0  0  0  0  0  0  0
   10.1284  -19.8662   23.7130 N   0  0  0  0  0  0  0  0  0  0  0  0
    9.4887  -19.5631   22.4438 C   0  0  0  0  0  0  0  0  0  0  0  0
   10.6891  -18.6341   24.3397 O   0  0  0  0  0  0  0  0  0  0  0  0
   11.0477  -17.6680   23.6190 N   0  0  0  0  0  0  0  0  0  0  0  0
   10.8264  -18.5313   25.7503 C   0  0  1  0  0  0  0  0  0  0  0  0
   11.3227  -17.3227   26.3981 C   0  0  0  0  0  0  0  0  0  0  0  0
   10.1294  -16.4982   26.7869 C   0  0  0  0  0  0  0  0  0  0  0  0
   10.4319  -15.2575   27.5482 C   0  0  0  0  0  0  0  0  0  0  0  0
    9.2526  -14.4894   27.9823 O   0  0  0  0  0  0  0  0  0  0  0  0
    8.0711  -14.8785   27.8084 C   0  0  0  0  0  0  0  0  0  0  0  0
   12.2055  -17.6480   27.5410 O   0  0  0  0  0  0  0  0  0  0  0  0
   12.0998  -18.7601   28.1139 O   0  0  0  0  0  0  0  0  0  0  0  0
    9.4194  -13.2742   28.6154 O   0  0  0  0  0  0  0  0  0  0  0  0
  2  3  2  0
  2  1  1  0
  4  2  1  0
  5  4  1  0
  6  5  1  0
  7  6  1  0
  8  7  1  0
  8 10  1  0
  8  9  1  1
 10 11  2  0
 13 12  1  0
 14 13  1  1
 15 10  1  0
 15 14  1  0
 16 14  1  0
 16 17  2  0
 18 16  1  0
 19 24  1  0
 19 18  1  0
 19 20  1  1
 21 20  1  0
 22 21  1  0
 23 22  2  0
 24 27  1  0
 25 24  2  0
 26 22  1  0
M  END
$$$$
