RSE.pdb
     RDKit          3D

 27 26  0  0  1  0  0  0  0  0999 V2000
    6.9673  -13.5970   15.1248 N   0  0  0  0  0  0  0  0  0  0  0  0
    7.8611  -13.6868   16.2233 C   0  0  0  0  0  0  0  0  0  0  0  0
    9.0693  -14.1551   16.0717 N   0  0  0  0  0  0  0  0  0  0  0  0
    7.4899  -13.2754   17.5294 N   0  0  0  0  0  0  0  0  0  0  0  0
    8.4278  -13.3132   18.6022 C   0  0  0  0  0  0  0  0  0  0  0  0
    8.3465  -14.6534   19.3401 C   0  0  0  0  0  0  0  0  0  0  0  0
    9.3611  -14.7458   20.4531 C   0  0  0  0  0  0  0  0  0  0  0  0
    9.2631  -15.9695   21.2679 C   0  0  2  0  0  0  0  0  0  0  0  0
    8.3573  -16.9614   20.7279 N   0  0  0  0  0  0  0  0  0  0  0  0
    9.0920  -15.8427   22.7113 C   0  0  0  0  0  0  0  0  0  0  0  0
    9.8948  -15.0875   23.3767 O   0  0  0  0  0  0  0  0  0  0  0  0
    9.6889  -14.1869   16.9107 O   0  0  0  0  0  0  0  0  0  0  0  0
    6.2081  -17.8374   24.8987 C   0  0  0  0  0  0  0  0  0  0  0  0
    6.8001  -16.7327   25.4957 C   0  0  1  0  0  0  0  0  0  0  0  0
    8.2012  -16.5121   24.9716 N   0  0  0  0  0  0  0  0  0  0  0  0
    8.1146  -16.4746   23.5213 C   0  0  0  0  0  0  0  0  0  0  0  0
    9.0420  -17.6557   25.4300 O   0  0  0  0  0  0  0  0  0  0  0  0
    9.2224  -18.6466   24.6770 N   0  0  0  0  0  0  0  0  0  0  0  0
    9.6488  -17.6455   26.7149 C   0  0  1  0  0  0  0  0  0  0  0  0
   10.5965  -18.6707   27.1364 C   0  0  0  0  0  0  0  0  0  0  0  0
   11.8585  -18.4682   26.3481 C   0  0  0  0  0  0  0  0  0  0  0  0
   12.9991  -19.3397   26.7350 C   0  0  0  0  0  0  0  0  0  0  0  0
   14.2439  -19.1079   25.9824 O   0  0  0  0  0  0  0  0  0  0  0  0
   14.4070  -18.1429   25.1953 C   0  0  0  0  0  0  0  0  0  0  0  0
   10.8107  -18.6368   28.6007 O   0  0  0  0  0  0  0  0  0  0  0  0
   10.4177  -17.6472   29.2657 O   0  0  0  0  0  0  0  0  0  0  0  0
   15.3055  -19.9784   26.1262 O   0  0  0  0  0  0  0  0  0  0  0  0
  2  3  2  0
  2  1  1  0
  4  2  1  0
  5  4  1  0
  6  5  1  0
  7  6  1  0
  8  7  1  0
  8 10  1  0
  8  9  1  6
 10 11  2  0
 13 12  1  0
 14 13  1  1
 15 10  1  0
 15 14  1  0
 16 14  1  0
 16 17  2  0
 18 16  1  0
 19 24  1  0
 19 18  1  0
 19 20  1  1
 21 20  1  0
 22 21  1  0
 23 22  2  0
 24 27  1  0
 25 24  2  0
 26 22  1  0
M  END
$$$$
