RSE.pdb
     RDKit          3D

 27 26  0  0  1  0  0  0  0  0999 V2000
    6.7848  -13.3713   19.5774 N   0  0  0  0  0  0  0  0  0  0  0  0
    7.5091  -13.4873   18.3626 C   0  0  0  0  0  0  0  0  0  0  0  0
    7.5801  -12.4911   17.5233 N   0  0  0  0  0  0  0  0  0  0  0  0
    8.1868  -14.6808   18.0031 N   0  0  0  0  0  0  0  0  0  0  0  0
    8.9793  -15.3868   18.9546 C   0  0  0  0  0  0  0  0  0  0  0  0
    8.2322  -16.6236   19.4641 C   0  0  0  0  0  0  0  0  0  0  0  0
    9.0223  -17.3660   20.5136 C   0  0  0  0  0  0  0  0  0  0  0  0
   10.2246  -16.6577   20.9866 C   0  0  2  0  0  0  0  0  0  0  0  0
   11.4599  -17.1604   20.4234 N   0  0  0  0  0  0  0  0  0  0  0  0
   10.3736  -16.3994   22.4149 C   0  0  0  0  0  0  0  0  0  0  0  0
   11.4159  -16.8395   23.0290 O   0  0  0  0  0  0  0  0  0  0  0  0
    8.1141  -12.6358   16.6385 O   0  0  0  0  0  0  0  0  0  0  0  0
    7.3128  -15.5165   25.0729 C   0  0  0  0  0  0  0  0  0  0  0  0
    8.4991  -14.8181   25.2512 C   0  0  1  0  0  0  0  0  0  0  0  0
    9.6766  -15.5877   24.6964 N   0  0  0  0  0  0  0  0  0  0  0  0
    9.4777  -15.6979   23.2610 C   0  0  0  0  0  0  0  0  0  0  0  0
    9.6841  -16.9322   25.3424 O   0  0  0  0  0  0  0  0  0  0  0  0
    9.1548  -17.9136   24.7608 N   0  0  0  0  0  0  0  0  0  0  0  0
   10.2848  -17.1261   26.6155 C   0  0  1  0  0  0  0  0  0  0  0  0
   10.3702  -18.4393   27.2441 C   0  0  0  0  0  0  0  0  0  0  0  0
   11.2064  -19.3114   26.3525 C   0  0  0  0  0  0  0  0  0  0  0  0
   12.6598  -18.9991   26.3358 C   0  0  0  0  0  0  0  0  0  0  0  0
   13.4618  -19.8138   25.4070 O   0  0  0  0  0  0  0  0  0  0  0  0
   13.7816  -21.0072   25.6327 C   0  0  0  0  0  0  0  0  0  0  0  0
   10.8946  -18.3422   28.6250 O   0  0  0  0  0  0  0  0  0  0  0  0
   11.2479  -17.2272   29.0810 O   0  0  0  0  0  0  0  0  0  0  0  0
   13.9016  -19.2671   24.2182 O   0  0  0  0  0  0  0  0  0  0  0  0
  2  3  2  0
  2  1  1  0
  4  2  1  0
  5  4  1  0
  6  5  1  0
  7  6  1  0
  8  7  1  0
  8 10  1  0
  8  9  1  1
 10 11  2  0
 13 12  1  0
 14 13  1  6
 15 10  1  0
 15 14  1  0
 16 14  1  0
 16 17  2  0
 18 16  1  0
 19 24  1  0
 19 18  1  0
 19 20  1  1
 21 20  1  0
 22 21  1  0
 23 22  2  0
 24 27  1  0
 25 24  2  0
 26 22  1  0
M  END
$$$$
