RSE.pdb
     RDKit          3D

 27 26  0  0  1  0  0  0  0  0999 V2000
    9.1862  -18.5182   12.3295 N   0  0  0  0  0  0  0  0  0  0  0  0
    8.8928  -17.5092   11.3759 C   0  0  0  0  0  0  0  0  0  0  0  0
    8.6148  -17.8130   10.1380 N   0  0  0  0  0  0  0  0  0  0  0  0
    8.8866  -16.1320   11.7171 N   0  0  0  0  0  0  0  0  0  0  0  0
    9.1690  -15.7072   13.0482 C   0  0  0  0  0  0  0  0  0  0  0  0
    7.9665  -15.9663   13.9615 C   0  0  0  0  0  0  0  0  0  0  0  0
    8.3010  -15.7296   15.4136 C   0  0  0  0  0  0  0  0  0  0  0  0
    7.6972  -14.5148   15.9886 C   0  0  2  0  0  0  0  0  0  0  0  0
    7.3251  -13.5227   15.0021 N   0  0  0  0  0  0  0  0  0  0  0  0
    8.3380  -13.8866   17.1391 C   0  0  0  0  0  0  0  0  0  0  0  0
    9.4036  -13.1862   16.9617 O   0  0  0  0  0  0  0  0  0  0  0  0
    8.3899  -17.0325    9.4829 O   0  0  0  0  0  0  0  0  0  0  0  0
    7.3154  -14.7308   21.0549 C   0  0  0  0  0  0  0  0  0  0  0  0
    7.9156  -13.4982   20.8374 C   0  0  1  0  0  0  0  0  0  0  0  0
    8.7752  -13.5195   19.5935 N   0  0  0  0  0  0  0  0  0  0  0  0
    7.9274  -13.9508   18.4948 C   0  0  0  0  0  0  0  0  0  0  0  0
    9.8860  -14.4874   19.8268 O   0  0  0  0  0  0  0  0  0  0  0  0
    9.8632  -15.6173   19.2752 N   0  0  0  0  0  0  0  0  0  0  0  0
   10.9803  -14.1522   20.6691 C   0  0  1  0  0  0  0  0  0  0  0  0
   12.1084  -15.0531   20.8751 C   0  0  0  0  0  0  0  0  0  0  0  0
   13.3574  -14.2985   20.5209 C   0  0  0  0  0  0  0  0  0  0  0  0
   14.6291  -15.0451   20.7095 C   0  0  0  0  0  0  0  0  0  0  0  0
   15.8474  -14.3050   20.3390 O   0  0  0  0  0  0  0  0  0  0  0  0
   16.0929  -13.9177   19.1697 C   0  0  0  0  0  0  0  0  0  0  0  0
   12.1225  -15.5918   22.2539 O   0  0  0  0  0  0  0  0  0  0  0  0
   11.4228  -15.0481   23.1431 O   0  0  0  0  0  0  0  0  0  0  0  0
   16.7892  -14.0060   21.3029 O   0  0  0  0  0  0  0  0  0  0  0  0
  2  3  2  0
  2  1  1  0
  4  2  1  0
  5  4  1  0
  6  5  1  0
  7  6  1  0
  8  7  1  0
  8 10  1  0
  8  9  1  6
 10 11  2  0
 13 12  1  0
 14 13  1  6
 15 10  1  0
 15 14  1  0
 16 14  1  0
 16 17  2  0
 18 16  1  0
 19 24  1  0
 19 18  1  0
 19 20  1  1
 21 20  1  0
 22 21  1  0
 23 22  2  0
 24 27  1  0
 25 24  2  0
 26 22  1  0
M  END
$$$$
