RSE.pdb
     RDKit          3D

 27 26  0  0  1  0  0  0  0  0999 V2000
    8.8421  -14.3152   16.4694 N   0  0  0  0  0  0  0  0  0  0  0  0
    8.0681  -13.3637   17.1830 C   0  0  0  0  0  0  0  0  0  0  0  0
    7.3651  -12.4611   16.5560 N   0  0  0  0  0  0  0  0  0  0  0  0
    8.0198  -13.3460   18.6009 N   0  0  0  0  0  0  0  0  0  0  0  0
    8.8907  -14.1694   19.3726 C   0  0  0  0  0  0  0  0  0  0  0  0
    8.6658  -15.6482   19.0413 C   0  0  0  0  0  0  0  0  0  0  0  0
    9.6195  -16.5447   19.7919 C   0  0  0  0  0  0  0  0  0  0  0  0
    9.0903  -17.0709   21.0623 C   0  0  2  0  0  0  0  0  0  0  0  0
    7.6556  -17.2644   21.0635 N   0  0  0  0  0  0  0  0  0  0  0  0
    9.5326  -16.4656   22.3141 C   0  0  0  0  0  0  0  0  0  0  0  0
   10.7676  -16.1277   22.4482 O   0  0  0  0  0  0  0  0  0  0  0  0
    6.7833  -11.8113   17.1288 O   0  0  0  0  0  0  0  0  0  0  0  0
    7.0902  -15.9715   25.6061 C   0  0  0  0  0  0  0  0  0  0  0  0
    8.2599  -15.2240   25.5885 C   0  0  1  0  0  0  0  0  0  0  0  0
    9.3299  -15.9006   24.7615 N   0  0  0  0  0  0  0  0  0  0  0  0
    8.7471  -16.1900   23.4620 C   0  0  0  0  0  0  0  0  0  0  0  0
    9.7213  -17.1557   25.4661 O   0  0  0  0  0  0  0  0  0  0  0  0
    9.1094  -18.2285   25.2289 N   0  0  0  0  0  0  0  0  0  0  0  0
   10.7840  -17.1612   26.4095 C   0  0  1  0  0  0  0  0  0  0  0  0
   11.2325  -18.3817   27.0697 C   0  0  0  0  0  0  0  0  0  0  0  0
   12.6241  -18.6702   26.5847 C   0  0  0  0  0  0  0  0  0  0  0  0
   13.2751  -19.8633   27.1871 C   0  0  0  0  0  0  0  0  0  0  0  0
   14.6499  -20.1225   26.7264 O   0  0  0  0  0  0  0  0  0  0  0  0
   15.6611  -19.5614   27.2164 C   0  0  0  0  0  0  0  0  0  0  0  0
   11.1401  -18.2626   28.5423 O   0  0  0  0  0  0  0  0  0  0  0  0
   10.9282  -17.1412   29.0652 O   0  0  0  0  0  0  0  0  0  0  0  0
   14.8734  -21.0226   25.7039 O   0  0  0  0  0  0  0  0  0  0  0  0
  2  3  2  0
  2  1  1  0
  4  2  1  0
  5  4  1  0
  6  5  1  0
  7  6  1  0
  8  7  1  0
  8 10  1  0
  8  9  1  6
 10 11  2  0
 13 12  1  0
 14 13  1  6
 15 10  1  0
 15 14  1  0
 16 14  1  0
 16 17  2  0
 18 16  1  0
 19 24  1  0
 19 18  1  0
 19 20  1  1
 21 20  1  0
 22 21  1  0
 23 22  2  0
 24 27  1  0
 25 24  2  0
 26 22  1  0
M  END
$$$$
