RSE.pdb
     RDKit          3D

 27 26  0  0  1  0  0  0  0  0999 V2000
    7.3746  -15.6158   13.4739 N   0  0  0  0  0  0  0  0  0  0  0  0
    8.3529  -15.9832   14.4340 C   0  0  0  0  0  0  0  0  0  0  0  0
    8.6775  -17.2329   14.6201 N   0  0  0  0  0  0  0  0  0  0  0  0
    9.0214  -15.0192   15.2320 N   0  0  0  0  0  0  0  0  0  0  0  0
    8.3364  -14.3327   16.2768 C   0  0  0  0  0  0  0  0  0  0  0  0
    7.9294  -15.3094   17.3848 C   0  0  0  0  0  0  0  0  0  0  0  0
    8.6145  -14.9951   18.6919 C   0  0  0  0  0  0  0  0  0  0  0  0
    7.9524  -13.9497   19.4917 C   0  0  2  0  0  0  0  0  0  0  0  0
    7.8826  -12.6634   18.8311 N   0  0  0  0  0  0  0  0  0  0  0  0
    8.3259  -13.7929   20.8934 C   0  0  0  0  0  0  0  0  0  0  0  0
    9.1568  -12.8667   21.2238 O   0  0  0  0  0  0  0  0  0  0  0  0
    9.5337  -17.4361   15.1811 O   0  0  0  0  0  0  0  0  0  0  0  0
    6.4305  -15.1336   24.1916 C   0  0  0  0  0  0  0  0  0  0  0  0
    7.5429  -14.3175   24.3446 C   0  0  1  0  0  0  0  0  0  0  0  0
    8.5732  -14.5890   23.2715 N   0  0  0  0  0  0  0  0  0  0  0  0
    7.8783  -14.5650   21.9953 C   0  0  0  0  0  0  0  0  0  0  0  0
    9.1612  -15.9338   23.5376 O   0  0  0  0  0  0  0  0  0  0  0  0
    8.7329  -16.9421   22.9201 N   0  0  0  0  0  0  0  0  0  0  0  0
   10.2070  -16.0976   24.4856 C   0  0  1  0  0  0  0  0  0  0  0  0
   10.7958  -17.3994   24.7779 C   0  0  0  0  0  0  0  0  0  0  0  0
   12.0586  -17.5130   23.9733 C   0  0  0  0  0  0  0  0  0  0  0  0
   13.0582  -16.4360   24.1995 C   0  0  0  0  0  0  0  0  0  0  0  0
   14.2913  -16.5527   23.4024 O   0  0  0  0  0  0  0  0  0  0  0  0
   14.4943  -17.4736   22.5729 C   0  0  0  0  0  0  0  0  0  0  0  0
   11.0111  -17.5789   26.2315 O   0  0  0  0  0  0  0  0  0  0  0  0
   10.7127  -16.6531   27.0251 O   0  0  0  0  0  0  0  0  0  0  0  0
   15.2962  -15.6181   23.5513 O   0  0  0  0  0  0  0  0  0  0  0  0
  2  3  2  0
  2  1  1  0
  4  2  1  0
  5  4  1  0
  6  5  1  0
  7  6  1  0
  8  7  1  0
  8 10  1  0
  8  9  1  6
 10 11  2  0
 13 12  1  0
 14 13  1  6
 15 10  1  0
 15 14  1  0
 16 14  1  0
 16 17  2  0
 18 16  1  0
 19 24  1  0
 19 18  1  0
 19 20  1  1
 21 20  1  0
 22 21  1  0
 23 22  2  0
 24 27  1  0
 25 24  2  0
 26 22  1  0
M  END
$$$$
