RSE.pdb
     RDKit          3D

 27 26  0  0  1  0  0  0  0  0999 V2000
   10.4666  -16.4078   14.6312 N   0  0  0  0  0  0  0  0  0  0  0  0
    9.0938  -16.6794   14.3961 C   0  0  0  0  0  0  0  0  0  0  0  0
    8.6388  -16.8489   13.1852 N   0  0  0  0  0  0  0  0  0  0  0  0
    8.1556  -16.7799   15.4557 N   0  0  0  0  0  0  0  0  0  0  0  0
    7.5443  -15.6148   16.0042 C   0  0  0  0  0  0  0  0  0  0  0  0
    8.5375  -14.8516   16.8864 C   0  0  0  0  0  0  0  0  0  0  0  0
    8.3673  -15.1885   18.3473 C   0  0  0  0  0  0  0  0  0  0  0  0
    7.9886  -14.0457   19.1968 C   0  0  2  0  0  0  0  0  0  0  0  0
    8.1583  -12.7585   18.5563 N   0  0  0  0  0  0  0  0  0  0  0  0
    8.4639  -14.0052   20.5757 C   0  0  0  0  0  0  0  0  0  0  0  0
    9.6033  -13.4641   20.8333 O   0  0  0  0  0  0  0  0  0  0  0  0
    7.6146  -17.0106   13.0672 O   0  0  0  0  0  0  0  0  0  0  0  0
    6.3817  -15.4198   23.8973 C   0  0  0  0  0  0  0  0  0  0  0  0
    7.3330  -14.4226   24.0635 C   0  0  1  0  0  0  0  0  0  0  0  0
    8.4373  -14.5427   23.0375 N   0  0  0  0  0  0  0  0  0  0  0  0
    7.8093  -14.5112   21.7273 C   0  0  0  0  0  0  0  0  0  0  0  0
    9.1318  -15.8424   23.2691 O   0  0  0  0  0  0  0  0  0  0  0  0
    9.3058  -16.6425   22.3147 N   0  0  0  0  0  0  0  0  0  0  0  0
    9.6052  -16.1959   24.5615 C   0  0  1  0  0  0  0  0  0  0  0  0
   10.7003  -17.1386   24.7583 C   0  0  0  0  0  0  0  0  0  0  0  0
   11.8872  -16.6135   24.0029 C   0  0  0  0  0  0  0  0  0  0  0  0
   13.1671  -17.3290   24.2482 C   0  0  0  0  0  0  0  0  0  0  0  0
   14.3320  -16.7872   23.5280 O   0  0  0  0  0  0  0  0  0  0  0  0
   15.5145  -17.1421   23.7588 C   0  0  0  0  0  0  0  0  0  0  0  0
   10.9727  -17.3547   26.1972 O   0  0  0  0  0  0  0  0  0  0  0  0
   10.6690  -16.4657   27.0299 O   0  0  0  0  0  0  0  0  0  0  0  0
   14.1496  -15.8378   22.5427 O   0  0  0  0  0  0  0  0  0  0  0  0
  2  3  2  0
  2  1  1  0
  4  2  1  0
  5  4  1  0
  6  5  1  0
  7  6  1  0
  8  7  1  0
  8 10  1  0
  8  9  1  6
 10 11  2  0
 13 12  1  0
 14 13  1  6
 15 10  1  0
 15 14  1  0
 16 14  1  0
 16 17  2  0
 18 16  1  0
 19 24  1  0
 19 18  1  0
 19 20  1  1
 21 20  1  0
 22 21  1  0
 23 22  2  0
 24 27  1  0
 25 24  2  0
 26 22  1  0
M  END
$$$$
