RSE.pdb
     RDKit          3D

 27 26  0  0  1  0  0  0  0  0999 V2000
    7.3836  -12.8327   19.4334 N   0  0  0  0  0  0  0  0  0  0  0  0
    8.4245  -12.5554   18.5097 C   0  0  0  0  0  0  0  0  0  0  0  0
    9.1033  -11.4432   18.5741 N   0  0  0  0  0  0  0  0  0  0  0  0
    8.7768  -13.4652   17.4795 N   0  0  0  0  0  0  0  0  0  0  0  0
    8.0922  -14.7071   17.3350 C   0  0  0  0  0  0  0  0  0  0  0  0
    8.3324  -15.5985   18.5576 C   0  0  0  0  0  0  0  0  0  0  0  0
    9.7779  -16.0153   18.6753 C   0  0  0  0  0  0  0  0  0  0  0  0
   10.0781  -16.8511   19.8510 C   0  0  2  0  0  0  0  0  0  0  0  0
    9.5430  -18.1937   19.7669 N   0  0  0  0  0  0  0  0  0  0  0  0
    9.8709  -16.2931   21.1831 C   0  0  0  0  0  0  0  0  0  0  0  0
   10.5628  -15.2723   21.5528 O   0  0  0  0  0  0  0  0  0  0  0  0
    9.7801  -11.2396   17.8063 O   0  0  0  0  0  0  0  0  0  0  0  0
    7.0446  -17.6431   23.9152 C   0  0  0  0  0  0  0  0  0  0  0  0
    7.3381  -16.2875   23.8567 C   0  0  1  0  0  0  0  0  0  0  0  0
    8.7727  -16.0554   23.4387 N   0  0  0  0  0  0  0  0  0  0  0  0
    8.9684  -16.7496   22.1770 C   0  0  0  0  0  0  0  0  0  0  0  0
    9.6520  -16.6188   24.5038 O   0  0  0  0  0  0  0  0  0  0  0  0
   10.5028  -17.4996   24.2178 N   0  0  0  0  0  0  0  0  0  0  0  0
    9.5446  -16.1737   25.8490 C   0  0  1  0  0  0  0  0  0  0  0  0
   10.3722  -16.7202   26.9182 C   0  0  0  0  0  0  0  0  0  0  0  0
   10.2209  -15.8189   28.1098 C   0  0  0  0  0  0  0  0  0  0  0  0
   10.9667  -16.2381   29.3256 C   0  0  0  0  0  0  0  0  0  0  0  0
   10.7596  -15.3856   30.5087 O   0  0  0  0  0  0  0  0  0  0  0  0
   10.0104  -14.3776   30.5126 C   0  0  0  0  0  0  0  0  0  0  0  0
   10.0216  -18.1297   27.2036 O   0  0  0  0  0  0  0  0  0  0  0  0
    8.8274  -18.5060   27.1131 O   0  0  0  0  0  0  0  0  0  0  0  0
   11.4086  -15.6817   31.6905 O   0  0  0  0  0  0  0  0  0  0  0  0
  2  3  2  0
  2  1  1  0
  4  2  1  0
  5  4  1  0
  6  5  1  0
  7  6  1  0
  8  7  1  0
  8 10  1  0
  8  9  1  6
 10 11  2  0
 13 12  1  0
 14 13  1  6
 15 10  1  0
 15 14  1  0
 16 14  1  0
 16 17  2  0
 18 16  1  0
 19 24  1  0
 19 18  1  0
 19 20  1  1
 21 20  1  0
 22 21  1  0
 23 22  2  0
 24 27  1  0
 25 24  2  0
 26 22  1  0
M  END
$$$$
