HPS.pdb
     RDKit          3D

 24 25  0  0  1  0  0  0  0  0999 V2000
    9.3397  -16.5938   18.9904 N   0  0  0  0  0  0  0  0  0  0  0  0
    8.7962  -15.7593   19.9854 C   0  0  1  0  0  0  0  0  0  0  0  0
    7.3998  -15.3556   19.5066 C   0  0  0  0  0  0  0  0  0  0  0  0
    7.4795  -14.7378   18.1558 C   0  0  0  0  0  0  0  0  0  0  0  0
    7.7382  -13.4176   17.8409 C   0  0  0  0  0  0  0  0  0  0  0  0
    7.7241  -13.2602   16.4981 N   0  0  0  0  0  0  0  0  0  0  0  0
    7.4622  -14.4537   15.9668 C   0  0  0  0  0  0  0  0  0  0  0  0
    7.3139  -15.3469   16.9576 N   0  0  0  0  0  0  0  0  0  0  0  0
    8.6942  -16.3182   21.3513 C   0  0  0  0  0  0  0  0  0  0  0  0
    8.9520  -17.5930   21.4344 O   0  0  0  0  0  0  0  0  0  0  0  0
    8.3556  -15.6125   22.5136 N   0  0  0  0  0  0  0  0  0  0  0  0
    7.4644  -14.5232   22.7150 C   0  0  0  0  0  0  0  0  0  0  0  0
    8.3549  -13.5772   23.5361 C   0  0  0  0  0  0  0  0  0  0  0  0
    9.1528  -14.5064   24.3802 C   0  0  0  0  0  0  0  0  0  0  0  0
    8.9004  -15.8889   23.8292 C   0  0  1  0  0  0  0  0  0  0  0  0
    7.9426  -16.6461   24.6744 C   0  0  0  0  0  0  0  0  0  0  0  0
    6.7573  -16.2356   24.7466 O   0  0  0  0  0  0  0  0  0  0  0  0
    7.7477  -20.4256   25.1052 O   0  0  0  0  0  0  0  0  0  0  0  0
    6.7443  -19.5996   25.6139 C   0  0  0  0  0  0  0  0  0  0  0  0
    7.4218  -18.4481   26.3668 C   0  0  2  0  0  0  0  0  0  0  0  0
    8.2861  -17.7984   25.4004 N   0  0  0  0  0  0  0  0  0  0  0  0
    8.2505  -18.9752   27.4810 C   0  0  0  0  0  0  0  0  0  0  0  0
    9.4974  -18.8461   27.5130 O   0  0  0  0  0  0  0  0  0  0  0  0
    7.6576  -19.6403   28.5425 O   0  0  0  0  0  0  0  0  0  0  0  0
  2  1  1  6
  3  2  1  0
  4  3  1  0
  4  5  2  0
  6  5  1  0
  7  6  1  0
  8  7  2  0
  8  4  1  0
  9  2  1  0
 10  9  2  0
 11 15  1  0
 11  9  1  0
 12 11  1  0
 13 12  1  0
 13 14  1  0
 14 15  1  0
 16 17  2  0
 15 16  1  1
 18 19  1  0
 20 19  1  6
 20 22  1  0
 20 21  1  0
 21 16  1  0
 22 24  1  0
 23 22  2  0
M  END
$$$$
