HPS.pdb
     RDKit          3D

 24 25  0  0  1  0  0  0  0  0999 V2000
   10.9827  -14.0238   17.7478 N   0  0  0  0  0  0  0  0  0  0  0  0
    9.8720  -14.1952   18.5956 C   0  0  1  0  0  0  0  0  0  0  0  0
    9.0522  -15.3515   18.0183 C   0  0  0  0  0  0  0  0  0  0  0  0
    8.5976  -15.0204   16.6411 C   0  0  0  0  0  0  0  0  0  0  0  0
    8.5029  -13.7722   16.0562 C   0  0  0  0  0  0  0  0  0  0  0  0
    8.0468  -13.8979   14.7896 N   0  0  0  0  0  0  0  0  0  0  0  0
    7.8542  -15.1980   14.5702 C   0  0  0  0  0  0  0  0  0  0  0  0
    8.1834  -15.8789   15.6790 N   0  0  0  0  0  0  0  0  0  0  0  0
   10.1498  -14.4674   20.0228 C   0  0  0  0  0  0  0  0  0  0  0  0
   11.4074  -14.6678   20.3001 O   0  0  0  0  0  0  0  0  0  0  0  0
    9.2049  -14.5244   21.0560 N   0  0  0  0  0  0  0  0  0  0  0  0
    7.7856  -14.4473   21.0249 C   0  0  0  0  0  0  0  0  0  0  0  0
    7.5343  -13.4095   22.1304 C   0  0  0  0  0  0  0  0  0  0  0  0
    8.5901  -13.7159   23.1324 C   0  0  0  0  0  0  0  0  0  0  0  0
    9.5330  -14.6840   22.4600 C   0  0  1  0  0  0  0  0  0  0  0  0
    9.3070  -16.0763   22.9240 C   0  0  0  0  0  0  0  0  0  0  0  0
    8.3545  -16.7247   22.4228 O   0  0  0  0  0  0  0  0  0  0  0  0
   12.1398  -19.5882   23.1664 O   0  0  0  0  0  0  0  0  0  0  0  0
   11.8155  -18.2337   23.2562 C   0  0  0  0  0  0  0  0  0  0  0  0
   10.4235  -18.1261   23.8907 C   0  0  2  0  0  0  0  0  0  0  0  0
   10.0988  -16.7127   23.8940 N   0  0  0  0  0  0  0  0  0  0  0  0
   10.4537  -18.6197   25.2912 C   0  0  0  0  0  0  0  0  0  0  0  0
   10.3726  -17.8509   26.2786 O   0  0  0  0  0  0  0  0  0  0  0  0
   10.5752  -19.9748   25.5549 O   0  0  0  0  0  0  0  0  0  0  0  0
  2  1  1  6
  3  2  1  0
  4  3  1  0
  4  5  2  0
  6  5  1  0
  7  6  1  0
  8  7  2  0
  8  4  1  0
  9  2  1  0
 10  9  2  0
 11 15  1  0
 11  9  1  0
 12 11  1  0
 13 12  1  0
 13 14  1  0
 14 15  1  0
 16 17  2  0
 15 16  1  1
 18 19  1  0
 20 19  1  1
 20 22  1  0
 20 21  1  0
 21 16  1  0
 22 24  1  0
 23 22  2  0
M  END
$$$$
