HPS.pdb
     RDKit          3D

 24 25  0  0  1  0  0  0  0  0999 V2000
    9.9413  -14.0373   21.6976 N   0  0  0  0  0  0  0  0  0  0  0  0
    8.9091  -13.7540   22.6122 C   0  0  1  0  0  0  0  0  0  0  0  0
    7.6476  -14.4354   22.0768 C   0  0  0  0  0  0  0  0  0  0  0  0
    7.3636  -13.9733   20.6917 C   0  0  0  0  0  0  0  0  0  0  0  0
    8.0879  -13.0747   19.9321 C   0  0  0  0  0  0  0  0  0  0  0  0
    7.4986  -12.9225   18.7248 N   0  0  0  0  0  0  0  0  0  0  0  0
    6.4214  -13.7067   18.7133 C   0  0  0  0  0  0  0  0  0  0  0  0
    6.3340  -14.3415   19.8927 N   0  0  0  0  0  0  0  0  0  0  0  0
    9.1212  -14.1682   24.0164 C   0  0  0  0  0  0  0  0  0  0  0  0
   10.2915  -14.6893   24.2555 O   0  0  0  0  0  0  0  0  0  0  0  0
    8.1994  -14.0487   25.0650 N   0  0  0  0  0  0  0  0  0  0  0  0
    6.8183  -13.7116   25.0566 C   0  0  0  0  0  0  0  0  0  0  0  0
    6.7809  -12.6438   26.1614 C   0  0  0  0  0  0  0  0  0  0  0  0
    7.7788  -13.1380   27.1475 C   0  0  0  0  0  0  0  0  0  0  0  0
    8.5160  -14.2642   26.4642 C   0  0  1  0  0  0  0  0  0  0  0  0
    8.0452  -15.5904   26.9379 C   0  0  0  0  0  0  0  0  0  0  0  0
    7.0472  -15.6315   27.7002 O   0  0  0  0  0  0  0  0  0  0  0  0
   11.3563  -18.9037   27.7035 O   0  0  0  0  0  0  0  0  0  0  0  0
   10.6453  -18.0859   26.8239 C   0  0  0  0  0  0  0  0  0  0  0  0
    9.3342  -17.6862   27.5115 C   0  0  2  0  0  0  0  0  0  0  0  0
    8.6529  -16.8057   26.5821 N   0  0  0  0  0  0  0  0  0  0  0  0
    9.6139  -16.9431   28.7668 C   0  0  0  0  0  0  0  0  0  0  0  0
    9.9328  -15.7303   28.7752 O   0  0  0  0  0  0  0  0  0  0  0  0
    9.5291  -17.5818   29.9938 O   0  0  0  0  0  0  0  0  0  0  0  0
  2  1  1  6
  3  2  1  0
  4  3  1  0
  4  5  2  0
  6  5  1  0
  7  6  1  0
  8  7  2  0
  8  4  1  0
  9  2  1  0
 10  9  2  0
 11 15  1  0
 11  9  1  0
 12 11  1  0
 13 12  1  0
 13 14  1  0
 14 15  1  0
 16 17  2  0
 15 16  1  1
 18 19  1  0
 20 19  1  6
 20 22  1  0
 20 21  1  0
 21 16  1  0
 22 24  1  0
 23 22  2  0
M  END
$$$$
