HPS.pdb
     RDKit          3D

 24 25  0  0  1  0  0  0  0  0999 V2000
    8.8120  -13.0620   16.8369 N   0  0  0  0  0  0  0  0  0  0  0  0
    8.6173  -14.2844   17.5075 C   0  0  1  0  0  0  0  0  0  0  0  0
    9.5912  -15.2877   16.8851 C   0  0  0  0  0  0  0  0  0  0  0  0
    8.8480  -16.4613   16.3530 C   0  0  0  0  0  0  0  0  0  0  0  0
    8.6930  -16.8399   15.0333 C   0  0  0  0  0  0  0  0  0  0  0  0
    7.9471  -17.9658   14.9688 N   0  0  0  0  0  0  0  0  0  0  0  0
    7.6326  -18.2992   16.2199 C   0  0  0  0  0  0  0  0  0  0  0  0
    8.1709  -17.3990   17.0575 N   0  0  0  0  0  0  0  0  0  0  0  0
    8.7995  -14.2837   18.9756 C   0  0  0  0  0  0  0  0  0  0  0  0
    9.7377  -13.4866   19.4035 O   0  0  0  0  0  0  0  0  0  0  0  0
    8.0721  -15.0422   19.9025 N   0  0  0  0  0  0  0  0  0  0  0  0
    7.1220  -16.0827   19.7128 C   0  0  0  0  0  0  0  0  0  0  0  0
    5.9926  -15.6071   20.6403 C   0  0  0  0  0  0  0  0  0  0  0  0
    6.7234  -14.9892   21.7790 C   0  0  0  0  0  0  0  0  0  0  0  0
    8.1647  -14.8877   21.3418 C   0  0  1  0  0  0  0  0  0  0  0  0
    8.9974  -15.9517   21.9579 C   0  0  0  0  0  0  0  0  0  0  0  0
    9.2121  -16.9986   21.2971 O   0  0  0  0  0  0  0  0  0  0  0  0
   10.1813  -15.6837   25.7611 O   0  0  0  0  0  0  0  0  0  0  0  0
   11.2633  -15.5935   24.8842 C   0  0  0  0  0  0  0  0  0  0  0  0
   10.8843  -16.3314   23.5945 C   0  0  2  0  0  0  0  0  0  0  0  0
    9.5609  -15.8553   23.2409 N   0  0  0  0  0  0  0  0  0  0  0  0
   10.8244  -17.7959   23.8348 C   0  0  0  0  0  0  0  0  0  0  0  0
    9.7425  -18.4287   23.8736 O   0  0  0  0  0  0  0  0  0  0  0  0
   11.9881  -18.5233   24.0276 O   0  0  0  0  0  0  0  0  0  0  0  0
  2  1  1  6
  3  2  1  0
  4  3  1  0
  4  5  2  0
  6  5  1  0
  7  6  1  0
  8  7  2  0
  8  4  1  0
  9  2  1  0
 10  9  2  0
 11 15  1  0
 11  9  1  0
 12 11  1  0
 13 12  1  0
 13 14  1  0
 14 15  1  0
 16 17  2  0
 15 16  1  1
 18 19  1  0
 20 19  1  1
 20 22  1  0
 20 21  1  0
 21 16  1  0
 22 24  1  0
 23 22  2  0
M  END
$$$$
