HPS.pdb
     RDKit          3D

 24 25  0  0  1  0  0  0  0  0999 V2000
    7.0427  -15.5077   24.0395 N   0  0  0  0  0  0  0  0  0  0  0  0
    7.5741  -14.4694   23.2512 C   0  0  1  0  0  0  0  0  0  0  0  0
    8.7063  -13.8359   24.0630 C   0  0  0  0  0  0  0  0  0  0  0  0
    8.1842  -13.3242   25.3586 C   0  0  0  0  0  0  0  0  0  0  0  0
    7.2184  -12.3571   25.5614 C   0  0  0  0  0  0  0  0  0  0  0  0
    7.0272  -12.1778   26.8877 N   0  0  0  0  0  0  0  0  0  0  0  0
    7.8528  -13.0120   27.5186 C   0  0  0  0  0  0  0  0  0  0  0  0
    8.5516  -13.7044   26.6054 N   0  0  0  0  0  0  0  0  0  0  0  0
    8.0874  -14.8351   21.9129 C   0  0  0  0  0  0  0  0  0  0  0  0
    7.9922  -16.1027   21.6252 O   0  0  0  0  0  0  0  0  0  0  0  0
    8.6451  -13.9607   20.9705 N   0  0  0  0  0  0  0  0  0  0  0  0
    8.9352  -12.5711   21.0473 C   0  0  0  0  0  0  0  0  0  0  0  0
    8.3094  -12.0783   19.7329 C   0  0  0  0  0  0  0  0  0  0  0  0
    8.5705  -13.1983   18.7896 C   0  0  0  0  0  0  0  0  0  0  0  0
    9.0596  -14.3489   19.6357 C   0  0  1  0  0  0  0  0  0  0  0  0
   10.5329  -14.5079   19.5404 C   0  0  0  0  0  0  0  0  0  0  0  0
   11.2621  -13.6835   20.1465 O   0  0  0  0  0  0  0  0  0  0  0  0
   11.9336  -17.6976   17.5734 O   0  0  0  0  0  0  0  0  0  0  0  0
   12.7222  -17.3207   18.6616 C   0  0  0  0  0  0  0  0  0  0  0  0
   12.5846  -15.8036   18.8371 C   0  0  2  0  0  0  0  0  0  0  0  0
   11.1607  -15.5300   18.8096 N   0  0  0  0  0  0  0  0  0  0  0  0
   13.2370  -15.0909   17.7091 C   0  0  0  0  0  0  0  0  0  0  0  0
   12.5836  -14.4876   16.8250 O   0  0  0  0  0  0  0  0  0  0  0  0
   14.6182  -15.0706   17.5971 O   0  0  0  0  0  0  0  0  0  0  0  0
  2  1  1  1
  3  2  1  0
  4  3  1  0
  4  5  2  0
  6  5  1  0
  7  6  1  0
  8  7  2  0
  8  4  1  0
  9  2  1  0
 10  9  2  0
 11 15  1  0
 11  9  1  0
 12 11  1  0
 13 12  1  0
 13 14  1  0
 14 15  1  0
 16 17  2  0
 15 16  1  1
 18 19  1  0
 20 19  1  6
 20 22  1  0
 20 21  1  0
 21 16  1  0
 22 24  1  0
 23 22  2  0
M  END
$$$$
