HPS.pdb
     RDKit          3D

 24 25  0  0  1  0  0  0  0  0999 V2000
   10.2463  -14.7662   21.7983 N   0  0  0  0  0  0  0  0  0  0  0  0
    9.4689  -14.3775   22.9058 C   0  0  1  0  0  0  0  0  0  0  0  0
    8.0232  -14.7647   22.5861 C   0  0  0  0  0  0  0  0  0  0  0  0
    7.6598  -14.3060   21.2185 C   0  0  0  0  0  0  0  0  0  0  0  0
    7.3945  -13.0165   20.7989 C   0  0  0  0  0  0  0  0  0  0  0  0
    7.1034  -13.0198   19.4786 N   0  0  0  0  0  0  0  0  0  0  0  0
    7.1811  -14.2836   19.0638 C   0  0  0  0  0  0  0  0  0  0  0  0
    7.5152  -15.0625   20.1046 N   0  0  0  0  0  0  0  0  0  0  0  0
    9.8397  -14.9442   24.2210 C   0  0  0  0  0  0  0  0  0  0  0  0
   10.8219  -15.8000   24.1834 O   0  0  0  0  0  0  0  0  0  0  0  0
    9.2413  -14.6447   25.4521 N   0  0  0  0  0  0  0  0  0  0  0  0
    7.9501  -14.1355   25.7603 C   0  0  0  0  0  0  0  0  0  0  0  0
    8.3168  -13.0064   26.7364 C   0  0  0  0  0  0  0  0  0  0  0  0
    9.4780  -13.5628   27.4810 C   0  0  0  0  0  0  0  0  0  0  0  0
    9.8863  -14.8132   26.7404 C   0  0  1  0  0  0  0  0  0  0  0  0
    9.4155  -16.0374   27.4367 C   0  0  0  0  0  0  0  0  0  0  0  0
    8.1801  -16.2632   27.4760 O   0  0  0  0  0  0  0  0  0  0  0  0
   11.7470  -19.0751   27.5594 O   0  0  0  0  0  0  0  0  0  0  0  0
   10.3887  -19.3205   27.7658 C   0  0  0  0  0  0  0  0  0  0  0  0
    9.8418  -18.2043   28.6637 C   0  0  2  0  0  0  0  0  0  0  0  0
   10.2741  -16.9605   28.0560 N   0  0  0  0  0  0  0  0  0  0  0  0
   10.4229  -18.3053   30.0269 C   0  0  0  0  0  0  0  0  0  0  0  0
   11.1858  -17.4302   30.5008 O   0  0  0  0  0  0  0  0  0  0  0  0
   10.1330  -19.3939   30.8341 O   0  0  0  0  0  0  0  0  0  0  0  0
  2  1  1  6
  3  2  1  0
  4  3  1  0
  4  5  2  0
  6  5  1  0
  7  6  1  0
  8  7  2  0
  8  4  1  0
  9  2  1  0
 10  9  2  0
 11 15  1  0
 11  9  1  0
 12 11  1  0
 13 12  1  0
 13 14  1  0
 14 15  1  0
 16 17  2  0
 15 16  1  1
 18 19  1  0
 20 19  1  6
 20 22  1  0
 20 21  1  0
 21 16  1  0
 22 24  1  0
 23 22  2  0
M  END
$$$$
