HPS.pdb
     RDKit          3D

 24 25  0  0  1  0  0  0  0  0999 V2000
    9.7981  -13.8056   20.7707 N   0  0  0  0  0  0  0  0  0  0  0  0
    8.7042  -13.8445   21.6560 C   0  0  1  0  0  0  0  0  0  0  0  0
    7.6344  -14.7174   20.9956 C   0  0  0  0  0  0  0  0  0  0  0  0
    7.4589  -14.3242   19.5718 C   0  0  0  0  0  0  0  0  0  0  0  0
    7.2761  -13.0543   19.0588 C   0  0  0  0  0  0  0  0  0  0  0  0
    7.1567  -13.1210   17.7137 N   0  0  0  0  0  0  0  0  0  0  0  0
    7.2609  -14.4054   17.3747 C   0  0  0  0  0  0  0  0  0  0  0  0
    7.4427  -15.1346   18.4868 N   0  0  0  0  0  0  0  0  0  0  0  0
    8.9613  -14.3492   23.0226 C   0  0  0  0  0  0  0  0  0  0  0  0
   10.1668  -14.8070   23.2119 O   0  0  0  0  0  0  0  0  0  0  0  0
    8.0472  -14.3723   24.0844 N   0  0  0  0  0  0  0  0  0  0  0  0
    6.6320  -14.2371   24.0976 C   0  0  0  0  0  0  0  0  0  0  0  0
    6.4578  -13.1951   25.2140 C   0  0  0  0  0  0  0  0  0  0  0  0
    7.5304  -13.5492   26.1817 C   0  0  0  0  0  0  0  0  0  0  0  0
    8.4117  -14.5519   25.4769 C   0  0  1  0  0  0  0  0  0  0  0  0
    8.1430  -15.9360   25.9429 C   0  0  0  0  0  0  0  0  0  0  0  0
    7.0261  -16.4478   25.6793 O   0  0  0  0  0  0  0  0  0  0  0  0
   10.2121  -18.2087   24.9242 O   0  0  0  0  0  0  0  0  0  0  0  0
   10.1029  -18.7986   26.1843 C   0  0  0  0  0  0  0  0  0  0  0  0
    8.9316  -18.1307   26.9146 C   0  0  2  0  0  0  0  0  0  0  0  0
    9.0682  -16.7090   26.6636 N   0  0  0  0  0  0  0  0  0  0  0  0
    9.0257  -18.3761   28.3765 C   0  0  0  0  0  0  0  0  0  0  0  0
    9.2226  -17.4540   29.2033 O   0  0  0  0  0  0  0  0  0  0  0  0
    8.8960  -19.6599   28.8821 O   0  0  0  0  0  0  0  0  0  0  0  0
  2  1  1  6
  3  2  1  0
  4  3  1  0
  4  5  2  0
  6  5  1  0
  7  6  1  0
  8  7  2  0
  8  4  1  0
  9  2  1  0
 10  9  2  0
 11 15  1  0
 11  9  1  0
 12 11  1  0
 13 12  1  0
 13 14  1  0
 14 15  1  0
 16 17  2  0
 15 16  1  1
 18 19  1  0
 20 19  1  6
 20 22  1  0
 20 21  1  0
 21 16  1  0
 22 24  1  0
 23 22  2  0
M  END
$$$$
