NGQ.pdb
     RDKit          3D

 22 21  0  0  1  0  0  0  0  0999 V2000
   27.0940  -20.4958  -16.3692 N   0  0  0  0  0  0  0  0  0  0  0  0
   26.0532  -21.3763  -15.9130 C   0  0  0  0  0  0  0  0  0  0  0  0
   25.9317  -22.4433  -16.5414 O   0  0  0  0  0  0  0  0  0  0  0  0
   25.2057  -21.0229  -14.7843 C   0  0  0  0  0  0  0  0  0  0  0  0
   23.7556  -21.4221  -14.9086 C   0  0  2  0  0  0  0  0  0  0  0  0
   23.1202  -20.4295  -15.8243 N   0  0  0  0  0  0  0  0  0  0  0  0
   23.0328  -21.3104  -13.6246 C   0  0  0  0  0  0  0  0  0  0  0  0
   23.4757  -21.9848  -12.6455 O   0  0  0  0  0  0  0  0  0  0  0  0
   21.8885  -20.4985  -13.4257 N   0  0  0  0  0  0  0  0  0  0  0  0
   21.2212  -20.5633  -12.1517 C   0  0  0  0  0  0  0  0  0  0  0  0
   20.2922  -21.6711  -11.9714 C   0  0  0  0  0  0  0  0  0  0  0  0
   20.0057  -22.3412  -13.0239 O   0  0  0  0  0  0  0  0  0  0  0  0
   19.1529  -24.8692   -6.8950 N   0  0  0  0  0  0  0  0  0  0  0  0
   18.2022  -25.4942   -7.7293 C   0  0  0  0  0  0  0  0  0  0  0  0
   17.5209  -26.4654   -7.3847 O   0  0  0  0  0  0  0  0  0  0  0  0
   18.0175  -24.9333   -9.1204 C   0  0  0  0  0  0  0  0  0  0  0  0
   18.8964  -23.7505   -9.3042 C   0  0  0  0  0  0  0  0  0  0  0  0
   18.8096  -23.2295  -10.7126 C   0  0  2  0  0  0  0  0  0  0  0  0
   19.6960  -22.0561  -10.7565 N   0  0  0  0  0  0  0  0  0  0  0  0
   17.4561  -22.7813  -11.0641 C   0  0  0  0  0  0  0  0  0  0  0  0
   17.0430  -21.6327  -10.7897 O   0  0  0  0  0  0  0  0  0  0  0  0
   16.5503  -23.6333  -11.7339 O   0  0  0  0  0  0  0  0  0  0  0  0
  2  1  1  0
  3  2  2  0
  4  2  1  0
  5  4  1  0
  5  6  1  6
  7  5  1  0
  7  8  2  0
  9  7  1  0
 10  9  1  0
 10 11  1  0
 11 12  2  0
 11 19  1  0
 14 15  2  0
 14 13  1  0
 16 14  1  0
 17 16  1  0
 18 17  1  1
 19 18  1  0
 20 18  1  0
 20 22  1  0
 21 20  2  0
M  END
$$$$
