NGQ.pdb
     RDKit          3D

 22 21  0  0  1  0  0  0  0  0999 V2000
    9.8925  -10.7214  -10.6956 N   0  0  0  0  0  0  0  0  0  0  0  0
   10.4898  -11.1127   -9.4480 C   0  0  0  0  0  0  0  0  0  0  0  0
    9.8757  -11.9806   -8.8016 O   0  0  0  0  0  0  0  0  0  0  0  0
   11.7358  -10.5186   -8.9879 C   0  0  0  0  0  0  0  0  0  0  0  0
   12.3709   -9.5256   -9.9302 C   0  0  2  0  0  0  0  0  0  0  0  0
   13.0641  -10.3246  -10.9831 N   0  0  0  0  0  0  0  0  0  0  0  0
   13.4226   -8.7233   -9.2715 C   0  0  0  0  0  0  0  0  0  0  0  0
   13.0502   -7.8638   -8.4158 O   0  0  0  0  0  0  0  0  0  0  0  0
   14.8080   -8.8608   -9.5352 N   0  0  0  0  0  0  0  0  0  0  0  0
   15.7238   -8.0051   -8.8268 C   0  0  0  0  0  0  0  0  0  0  0  0
   16.6731   -7.2648   -9.6474 C   0  0  0  0  0  0  0  0  0  0  0  0
   16.5079   -7.3509  -10.9140 O   0  0  0  0  0  0  0  0  0  0  0  0
   20.0907   -8.9022  -12.5875 N   0  0  0  0  0  0  0  0  0  0  0  0
   20.7158   -7.6504  -12.7683 C   0  0  0  0  0  0  0  0  0  0  0  0
   21.6118   -7.4443  -13.5934 O   0  0  0  0  0  0  0  0  0  0  0  0
   20.2530   -6.5060  -11.8964 C   0  0  0  0  0  0  0  0  0  0  0  0
   19.2628   -6.9998  -10.9059 C   0  0  0  0  0  0  0  0  0  0  0  0
   18.6785   -5.8610  -10.1159 C   0  0  2  0  0  0  0  0  0  0  0  0
   17.7367   -6.4779   -9.1686 N   0  0  0  0  0  0  0  0  0  0  0  0
   17.9200   -4.9249  -10.9553 C   0  0  0  0  0  0  0  0  0  0  0  0
   18.4141   -3.8533  -11.3712 O   0  0  0  0  0  0  0  0  0  0  0  0
   16.5862   -5.1929  -11.3351 O   0  0  0  0  0  0  0  0  0  0  0  0
  2  1  1  0
  3  2  2  0
  4  2  1  0
  5  4  1  0
  5  6  1  6
  7  5  1  0
  7  8  2  0
  9  7  1  0
 10  9  1  0
 10 11  1  0
 11 12  2  0
 11 19  1  0
 14 15  2  0
 14 13  1  0
 16 14  1  0
 17 16  1  0
 18 17  1  6
 19 18  1  0
 20 18  1  0
 20 22  1  0
 21 20  2  0
M  END
$$$$
