NGQ.pdb
     RDKit          3D

 22 21  0  0  1  0  0  0  0  0999 V2000
   31.8205  -23.3735  -18.4242 N   0  0  0  0  0  0  0  0  0  0  0  0
   30.8981  -22.6437  -19.2506 C   0  0  0  0  0  0  0  0  0  0  0  0
   31.2313  -22.5029  -20.4412 O   0  0  0  0  0  0  0  0  0  0  0  0
   29.6570  -22.1112  -18.7090 C   0  0  0  0  0  0  0  0  0  0  0  0
   29.3878  -22.4333  -17.2595 C   0  0  2  0  0  0  0  0  0  0  0  0
   28.8328  -23.8184  -17.2295 N   0  0  0  0  0  0  0  0  0  0  0  0
   28.3429  -21.5648  -16.6784 C   0  0  0  0  0  0  0  0  0  0  0  0
   28.6646  -20.3683  -16.4054 O   0  0  0  0  0  0  0  0  0  0  0  0
   27.0158  -21.9865  -16.4157 N   0  0  0  0  0  0  0  0  0  0  0  0
   26.1079  -21.0430  -15.8172 C   0  0  0  0  0  0  0  0  0  0  0  0
   25.3411  -21.5275  -14.6771 C   0  0  0  0  0  0  0  0  0  0  0  0
   25.2114  -22.7978  -14.5860 O   0  0  0  0  0  0  0  0  0  0  0  0
   25.6556  -19.9084   -9.0453 N   0  0  0  0  0  0  0  0  0  0  0  0
   26.4877  -20.7741   -9.7859 C   0  0  0  0  0  0  0  0  0  0  0  0
   27.6278  -21.0954   -9.4353 O   0  0  0  0  0  0  0  0  0  0  0  0
   25.9403  -21.3324  -11.0792 C   0  0  0  0  0  0  0  0  0  0  0  0
   24.5798  -20.7892  -11.3230 C   0  0  0  0  0  0  0  0  0  0  0  0
   23.9936  -21.3544  -12.5876 C   0  0  2  0  0  0  0  0  0  0  0  0
   24.7430  -20.7263  -13.6870 N   0  0  0  0  0  0  0  0  0  0  0  0
   22.5770  -21.0062  -12.7556 C   0  0  0  0  0  0  0  0  0  0  0  0
   22.2090  -20.0261  -13.4406 O   0  0  0  0  0  0  0  0  0  0  0  0
   21.5555  -21.7682  -12.1464 O   0  0  0  0  0  0  0  0  0  0  0  0
  2  1  1  0
  3  2  2  0
  4  2  1  0
  5  4  1  0
  5  6  1  6
  7  5  1  0
  7  8  2  0
  9  7  1  0
 10  9  1  0
 10 11  1  0
 11 12  2  0
 11 19  1  0
 14 15  2  0
 14 13  1  0
 16 14  1  0
 17 16  1  0
 18 17  1  1
 19 18  1  0
 20 18  1  0
 20 22  1  0
 21 20  2  0
M  END
$$$$
