NGQ.pdb
     RDKit          3D

 22 21  0  0  1  0  0  0  0  0999 V2000
   17.4051  -14.9350  -15.4760 N   0  0  0  0  0  0  0  0  0  0  0  0
   16.5881  -13.8766  -16.0037 C   0  0  0  0  0  0  0  0  0  0  0  0
   15.3870  -14.1529  -16.1750 O   0  0  0  0  0  0  0  0  0  0  0  0
   17.1501  -12.5702  -16.3115 C   0  0  0  0  0  0  0  0  0  0  0  0
   18.6081  -12.3907  -15.9660 C   0  0  2  0  0  0  0  0  0  0  0  0
   18.6664  -12.1304  -14.4975 N   0  0  0  0  0  0  0  0  0  0  0  0
   19.1935  -11.1981  -16.6131 C   0  0  0  0  0  0  0  0  0  0  0  0
   19.3236  -11.2241  -17.8748 O   0  0  0  0  0  0  0  0  0  0  0  0
   19.6090  -10.0385  -15.9128 N   0  0  0  0  0  0  0  0  0  0  0  0
   20.1660   -8.9487  -16.6709 C   0  0  0  0  0  0  0  0  0  0  0  0
   20.5711   -7.7774  -15.9050 C   0  0  0  0  0  0  0  0  0  0  0  0
   20.4416   -7.8644  -14.6344 O   0  0  0  0  0  0  0  0  0  0  0  0
   23.4419   -2.6533  -17.8933 N   0  0  0  0  0  0  0  0  0  0  0  0
   23.3595   -2.3366  -16.5209 C   0  0  0  0  0  0  0  0  0  0  0  0
   23.8174   -1.3006  -16.0278 O   0  0  0  0  0  0  0  0  0  0  0  0
   22.6695   -3.3300  -15.6149 C   0  0  0  0  0  0  0  0  0  0  0  0
   22.1368   -4.4574  -16.4215 C   0  0  0  0  0  0  0  0  0  0  0  0
   21.4810   -5.4858  -15.5413 C   0  0  2  0  0  0  0  0  0  0  0  0
   21.0835   -6.5810  -16.4397 N   0  0  0  0  0  0  0  0  0  0  0  0
   20.2666   -4.9775  -14.8908 C   0  0  0  0  0  0  0  0  0  0  0  0
   20.2868   -4.4684  -13.7481 O   0  0  0  0  0  0  0  0  0  0  0  0
   19.0088   -5.0403  -15.5305 O   0  0  0  0  0  0  0  0  0  0  0  0
  2  1  1  0
  3  2  2  0
  4  2  1  0
  5  4  1  0
  5  6  1  1
  7  5  1  0
  7  8  2  0
  9  7  1  0
 10  9  1  0
 10 11  1  0
 11 12  2  0
 11 19  1  0
 14 15  2  0
 14 13  1  0
 16 14  1  0
 17 16  1  0
 18 17  1  6
 19 18  1  0
 20 18  1  0
 20 22  1  0
 21 20  2  0
M  END
$$$$
