NGQ.pdb
     RDKit          3D

 22 21  0  0  1  0  0  0  0  0999 V2000
   26.8981  -25.0758  -17.6372 N   0  0  0  0  0  0  0  0  0  0  0  0
   25.4954  -25.1607  -17.9401 C   0  0  0  0  0  0  0  0  0  0  0  0
   25.2085  -25.6554  -19.0453 O   0  0  0  0  0  0  0  0  0  0  0  0
   24.4896  -24.6919  -16.9991 C   0  0  0  0  0  0  0  0  0  0  0  0
   25.0155  -24.2164  -15.6669 C   0  0  2  0  0  0  0  0  0  0  0  0
   25.3760  -25.4404  -14.8927 N   0  0  0  0  0  0  0  0  0  0  0  0
   23.9802  -23.5237  -14.8719 C   0  0  0  0  0  0  0  0  0  0  0  0
   23.3856  -22.5440  -15.4162 O   0  0  0  0  0  0  0  0  0  0  0  0
   23.6149  -23.8901  -13.5527 N   0  0  0  0  0  0  0  0  0  0  0  0
   22.5677  -23.1444  -12.9046 C   0  0  0  0  0  0  0  0  0  0  0  0
   21.3412  -23.8778  -12.6209 C   0  0  0  0  0  0  0  0  0  0  0  0
   21.2142  -25.0087  -13.2072 O   0  0  0  0  0  0  0  0  0  0  0  0
   19.0984  -24.4393   -7.2202 N   0  0  0  0  0  0  0  0  0  0  0  0
   18.1648  -25.2814   -7.8604 C   0  0  0  0  0  0  0  0  0  0  0  0
   17.3365  -25.9707   -7.2565 O   0  0  0  0  0  0  0  0  0  0  0  0
   18.1912  -25.3330   -9.3705 C   0  0  0  0  0  0  0  0  0  0  0  0
   19.2019  -24.3752   -9.8867 C   0  0  0  0  0  0  0  0  0  0  0  0
   19.2342  -24.3857  -11.3904 C   0  0  2  0  0  0  0  0  0  0  0  0
   20.3048  -23.4508  -11.7704 N   0  0  0  0  0  0  0  0  0  0  0  0
   17.9826  -23.8976  -11.9834 C   0  0  0  0  0  0  0  0  0  0  0  0
   17.7861  -22.6846  -12.2187 O   0  0  0  0  0  0  0  0  0  0  0  0
   16.9337  -24.7824  -12.3183 O   0  0  0  0  0  0  0  0  0  0  0  0
  2  1  1  0
  3  2  2  0
  4  2  1  0
  5  4  1  0
  5  6  1  1
  7  5  1  0
  7  8  2  0
  9  7  1  0
 10  9  1  0
 10 11  1  0
 11 12  2  0
 11 19  1  0
 14 15  2  0
 14 13  1  0
 16 14  1  0
 17 16  1  0
 18 17  1  1
 19 18  1  0
 20 18  1  0
 20 22  1  0
 21 20  2  0
M  END
$$$$
