DLE.pdb
     RDKit          3D

 26 25  0  0  1  0  0  0  0  0999 V2000
   11.5324  -17.1537   16.2908 N   0  0  0  0  0  0  0  0  0  0  0  0
   10.4529  -17.3786   17.2153 C   0  0  1  0  0  0  0  0  0  0  0  0
   10.4942  -18.8332   17.6417 C   0  0  0  0  0  0  0  0  0  0  0  0
   10.0891  -19.7341   16.5443 C   0  0  0  0  0  0  0  0  0  0  0  0
    9.8460  -19.3398   15.3788 O   0  0  0  0  0  0  0  0  0  0  0  0
   10.5820  -16.5621   18.4500 C   0  0  0  0  0  0  0  0  0  0  0  0
   11.7677  -16.3046   18.8641 O   0  0  0  0  0  0  0  0  0  0  0  0
    9.9773  -21.1061   16.8492 O   0  0  0  0  0  0  0  0  0  0  0  0
    8.6533  -12.4677   19.3272 C   0  0  0  0  0  0  0  0  0  0  0  0
    7.7311  -13.6560   19.6488 C   0  0  2  0  0  0  0  0  0  0  0  0
    6.4252  -13.0440   20.0866 C   0  0  0  0  0  0  0  0  0  0  0  0
    8.4023  -14.4608   20.6778 C   0  0  0  0  0  0  0  0  0  0  0  0
    9.6038  -15.2323   20.2993 C   0  0  2  0  0  0  0  0  0  0  0  0
    9.4420  -16.0817   19.1496 N   0  0  0  0  0  0  0  0  0  0  0  0
   10.2015  -16.0295   21.4268 C   0  0  0  0  0  0  0  0  0  0  0  0
    9.7291  -17.1665   21.6918 O   0  0  0  0  0  0  0  0  0  0  0  0
   11.2727  -15.5584   22.2020 N   0  0  0  0  0  0  0  0  0  0  0  0
   11.8426  -16.3309   23.3416 C   0  0  1  0  0  0  0  0  0  0  0  0
   13.2862  -16.0625   23.4748 C   0  0  0  0  0  0  0  0  0  0  0  0
   14.0367  -16.3731   22.2196 C   0  0  0  0  0  0  0  0  0  0  0  0
   15.5010  -16.0765   22.3754 C   0  0  0  0  0  0  0  0  0  0  0  0
   16.3253  -16.2296   21.4346 O   0  0  0  0  0  0  0  0  0  0  0  0
   11.0988  -15.9837   24.5724 C   0  0  0  0  0  0  0  0  0  0  0  0
   11.3553  -16.7386   25.7453 O   0  0  0  0  0  0  0  0  0  0  0  0
   15.9873  -15.6106   23.5975 O   0  0  0  0  0  0  0  0  0  0  0  0
   10.2552  -15.0868   24.7075 O   0  0  0  0  0  0  0  0  0  0  0  0
  2  1  1  6
  2  3  1  0
  4  8  1  0
  4  3  1  0
  5  4  2  0
  6  7  2  0
  6  2  1  0
 10  9  1  1
 10 11  1  0
 10 12  1  0
 13 12  1  1
 13 14  1  0
 14  6  1  0
 15 16  2  0
 15 13  1  0
 17 15  1  0
 18 19  1  1
 18 17  1  0
 20 19  1  0
 20 21  1  0
 21 22  2  0
 23 18  1  0
 24 23  1  0
 25 21  1  0
 26 23  2  0
M  END
$$$$
