DLE.pdb
     RDKit          3D

 26 25  0  0  1  0  0  0  0  0999 V2000
   10.2496  -16.6618   16.5575 N   0  0  0  0  0  0  0  0  0  0  0  0
   10.2950  -17.3889   17.7984 C   0  0  1  0  0  0  0  0  0  0  0  0
   11.5259  -18.2743   17.7799 C   0  0  0  0  0  0  0  0  0  0  0  0
   11.4244  -19.3266   16.7492 C   0  0  0  0  0  0  0  0  0  0  0  0
   10.4967  -19.3837   15.9071 O   0  0  0  0  0  0  0  0  0  0  0  0
   10.4237  -16.4940   18.9777 C   0  0  0  0  0  0  0  0  0  0  0  0
   11.5926  -16.0429   19.2494 O   0  0  0  0  0  0  0  0  0  0  0  0
   12.4373  -20.3072   16.7320 O   0  0  0  0  0  0  0  0  0  0  0  0
    8.8027  -12.2299   19.4404 C   0  0  0  0  0  0  0  0  0  0  0  0
    7.7994  -13.3928   19.5235 C   0  0  2  0  0  0  0  0  0  0  0  0
    6.4392  -12.7464   19.5828 C   0  0  0  0  0  0  0  0  0  0  0  0
    8.1498  -14.1851   20.7096 C   0  0  0  0  0  0  0  0  0  0  0  0
    9.3684  -15.0190   20.6675 C   0  0  2  0  0  0  0  0  0  0  0  0
    9.3011  -16.1469   19.7770 N   0  0  0  0  0  0  0  0  0  0  0  0
    9.8437  -15.4795   22.0189 C   0  0  0  0  0  0  0  0  0  0  0  0
    9.9570  -14.6377   22.9487 O   0  0  0  0  0  0  0  0  0  0  0  0
   10.1676  -16.8178   22.2916 N   0  0  0  0  0  0  0  0  0  0  0  0
   11.2581  -17.2071   23.2294 C   0  0  1  0  0  0  0  0  0  0  0  0
   12.5243  -16.5570   22.8450 C   0  0  0  0  0  0  0  0  0  0  0  0
   13.6449  -16.9123   23.7686 C   0  0  0  0  0  0  0  0  0  0  0  0
   14.9128  -16.2064   23.3804 C   0  0  0  0  0  0  0  0  0  0  0  0
   15.0086  -15.5188   22.3287 O   0  0  0  0  0  0  0  0  0  0  0  0
   10.8505  -16.8547   24.6072 C   0  0  0  0  0  0  0  0  0  0  0  0
   10.3257  -15.5578   24.8395 O   0  0  0  0  0  0  0  0  0  0  0  0
   16.0370  -16.2999   24.2016 O   0  0  0  0  0  0  0  0  0  0  0  0
   10.9126  -17.5763   25.6121 O   0  0  0  0  0  0  0  0  0  0  0  0
  2  1  1  6
  2  3  1  0
  4  8  1  0
  4  3  1  0
  5  4  2  0
  6  7  2  0
  6  2  1  0
 10  9  1  1
 10 11  1  0
 10 12  1  0
 13 12  1  1
 13 14  1  0
 14  6  1  0
 15 16  2  0
 15 13  1  0
 17 15  1  0
 18 19  1  6
 18 17  1  0
 20 19  1  0
 20 21  1  0
 21 22  2  0
 23 18  1  0
 24 23  1  0
 25 21  1  0
 26 23  2  0
M  END
$$$$
