DLE.pdb
     RDKit          3D

 26 25  0  0  1  0  0  0  0  0999 V2000
    9.1027  -16.0140   20.3207 N   0  0  0  0  0  0  0  0  0  0  0  0
    8.5009  -16.4587   21.5499 C   0  0  1  0  0  0  0  0  0  0  0  0
    9.1167  -17.7944   21.9187 C   0  0  0  0  0  0  0  0  0  0  0  0
    8.7819  -18.8396   20.9310 C   0  0  0  0  0  0  0  0  0  0  0  0
    7.6110  -19.0901   20.5579 O   0  0  0  0  0  0  0  0  0  0  0  0
    8.7671  -15.5327   22.6811 C   0  0  0  0  0  0  0  0  0  0  0  0
    9.9825  -15.1736   22.8744 O   0  0  0  0  0  0  0  0  0  0  0  0
    9.8540  -19.5811   20.3937 O   0  0  0  0  0  0  0  0  0  0  0  0
    5.6693  -12.0610   26.7342 C   0  0  0  0  0  0  0  0  0  0  0  0
    7.0643  -12.4694   26.2309 C   0  0  2  0  0  0  0  0  0  0  0  0
    7.7654  -11.1775   25.8980 C   0  0  0  0  0  0  0  0  0  0  0  0
    6.8672  -13.3684   25.0863 C   0  0  0  0  0  0  0  0  0  0  0  0
    8.0160  -14.1632   24.6060 C   0  0  2  0  0  0  0  0  0  0  0  0
    7.7218  -15.0592   23.5196 N   0  0  0  0  0  0  0  0  0  0  0  0
    8.7374  -14.9162   25.6907 C   0  0  0  0  0  0  0  0  0  0  0  0
    9.4703  -14.2815   26.4946 O   0  0  0  0  0  0  0  0  0  0  0  0
    8.6275  -16.3066   25.8485 N   0  0  0  0  0  0  0  0  0  0  0  0
    9.2164  -17.0343   27.0076 C   0  0  1  0  0  0  0  0  0  0  0  0
    8.2969  -18.0875   27.4754 C   0  0  0  0  0  0  0  0  0  0  0  0
    8.4061  -19.3359   26.6600 C   0  0  0  0  0  0  0  0  0  0  0  0
    7.6360  -20.4629   27.2872 C   0  0  0  0  0  0  0  0  0  0  0  0
    6.9856  -20.3236   28.3575 O   0  0  0  0  0  0  0  0  0  0  0  0
   10.5306  -17.5839   26.6080 C   0  0  0  0  0  0  0  0  0  0  0  0
   10.8715  -17.5703   25.2314 O   0  0  0  0  0  0  0  0  0  0  0  0
    7.6246  -21.7178   26.6773 O   0  0  0  0  0  0  0  0  0  0  0  0
   11.3953  -18.0676   27.3513 O   0  0  0  0  0  0  0  0  0  0  0  0
  2  1  1  6
  2  3  1  0
  4  8  1  0
  4  3  1  0
  5  4  2  0
  6  7  2  0
  6  2  1  0
 10  9  1  6
 10 11  1  0
 10 12  1  0
 13 12  1  1
 13 14  1  0
 14  6  1  0
 15 16  2  0
 15 13  1  0
 17 15  1  0
 18 19  1  6
 18 17  1  0
 20 19  1  0
 20 21  1  0
 21 22  2  0
 23 18  1  0
 24 23  1  0
 25 21  1  0
 26 23  2  0
M  END
$$$$
