DLE.pdb
     RDKit          3D

 26 25  0  0  1  0  0  0  0  0999 V2000
    7.2809  -16.7561   22.3393 N   0  0  0  0  0  0  0  0  0  0  0  0
    8.6311  -16.3006   22.1393 C   0  0  1  0  0  0  0  0  0  0  0  0
    8.6655  -15.4746   20.8682 C   0  0  0  0  0  0  0  0  0  0  0  0
    8.2288  -16.2597   19.6965 C   0  0  0  0  0  0  0  0  0  0  0  0
    7.8171  -17.4421   19.7698 O   0  0  0  0  0  0  0  0  0  0  0  0
    9.1036  -15.4209   23.2396 C   0  0  0  0  0  0  0  0  0  0  0  0
   10.3172  -15.0110   23.1857 O   0  0  0  0  0  0  0  0  0  0  0  0
    8.2873  -15.6230   18.4399 O   0  0  0  0  0  0  0  0  0  0  0  0
    7.8199  -11.3635   24.9629 C   0  0  0  0  0  0  0  0  0  0  0  0
    6.9686  -12.5831   25.3552 C   0  0  2  0  0  0  0  0  0  0  0  0
    5.7830  -12.0231   26.0984 C   0  0  0  0  0  0  0  0  0  0  0  0
    7.8239  -13.4714   26.1531 C   0  0  0  0  0  0  0  0  0  0  0  0
    8.7856  -14.3450   25.4502 C   0  0  2  0  0  0  0  0  0  0  0  0
    8.2507  -15.0437   24.3120 N   0  0  0  0  0  0  0  0  0  0  0  0
    9.4944  -15.3237   26.3468 C   0  0  0  0  0  0  0  0  0  0  0  0
   10.0522  -14.9026   27.3945 O   0  0  0  0  0  0  0  0  0  0  0  0
    9.5604  -16.6973   26.0655 N   0  0  0  0  0  0  0  0  0  0  0  0
   10.2564  -17.6687   26.9554 C   0  0  1  0  0  0  0  0  0  0  0  0
    9.5109  -18.9393   27.0135 C   0  0  0  0  0  0  0  0  0  0  0  0
   10.2048  -19.9636   27.8529 C   0  0  0  0  0  0  0  0  0  0  0  0
    9.3340  -21.1684   28.0692 C   0  0  0  0  0  0  0  0  0  0  0  0
    8.0965  -21.1592   27.8317 O   0  0  0  0  0  0  0  0  0  0  0  0
   11.6388  -17.8596   26.4643 C   0  0  0  0  0  0  0  0  0  0  0  0
   11.8739  -17.7593   25.0693 O   0  0  0  0  0  0  0  0  0  0  0  0
    9.8962  -22.3526   28.5474 O   0  0  0  0  0  0  0  0  0  0  0  0
   12.6459  -18.1023   27.1434 O   0  0  0  0  0  0  0  0  0  0  0  0
  2  1  1  1
  2  3  1  0
  4  8  1  0
  4  3  1  0
  5  4  2  0
  6  7  2  0
  6  2  1  0
 10  9  1  1
 10 11  1  0
 10 12  1  0
 13 12  1  1
 13 14  1  0
 14  6  1  0
 15 16  2  0
 15 13  1  0
 17 15  1  0
 18 19  1  6
 18 17  1  0
 20 19  1  0
 20 21  1  0
 21 22  2  0
 23 18  1  0
 24 23  1  0
 25 21  1  0
 26 23  2  0
M  END
$$$$
