MVA.pdb
     RDKit          3D

 21 20  0  0  1  0  0  0  0  0999 V2000
   20.6049  -20.8022   -8.3747 C   0  0  0  0  0  0  0  0  0  0  0  0
   21.7879  -21.2408   -7.1130 S   0  0  0  0  0  0  0  0  0  0  0  0
   23.4910  -21.3109   -7.6455 C   0  0  0  0  0  0  0  0  0  0  0  0
   23.7679  -20.6437   -8.9525 C   0  0  0  0  0  0  0  0  0  0  0  0
   25.1922  -20.7912   -9.3540 C   0  0  2  0  0  0  0  0  0  0  0  0
   26.0450  -20.1059   -8.4067 N   0  0  0  0  0  0  0  0  0  0  0  0
   25.4438  -20.1461  -10.6971 C   0  0  0  0  0  0  0  0  0  0  0  0
   25.6781  -18.9251  -10.7565 O   0  0  0  0  0  0  0  0  0  0  0  0
   26.8760  -20.7682  -15.2863 C   0  0  0  0  0  0  0  0  0  0  0  0
   26.7371  -21.1530  -13.8368 C   0  0  1  0  0  0  0  0  0  0  0  0
   28.0106  -21.0242  -13.0686 C   0  0  0  0  0  0  0  0  0  0  0  0
   25.5910  -20.3818  -13.2004 C   0  0  2  0  0  0  0  0  0  0  0  0
   25.4081  -20.9451  -11.8660 N   0  0  0  0  0  0  0  0  0  0  0  0
   24.3494  -20.5071  -13.9801 C   0  0  0  0  0  0  0  0  0  0  0  0
   23.7799  -21.6247  -14.0506 O   0  0  0  0  0  0  0  0  0  0  0  0
   22.1998  -18.1182  -15.9287 C   0  0  0  0  0  0  0  0  0  0  0  0
   22.5424  -19.5324  -15.4636 C   0  0  2  0  0  0  0  0  0  0  0  0
   23.7476  -19.4163  -14.6698 N   0  0  0  0  0  0  0  0  0  0  0  0
   22.6984  -20.4623  -16.5843 C   0  0  0  0  0  0  0  0  0  0  0  0
   21.6978  -21.3091  -16.9945 O   0  0  0  0  0  0  0  0  0  0  0  0
   23.7956  -20.4947  -17.2067 O   0  0  0  0  0  0  0  0  0  0  0  0
  2  1  1  0
  3  4  1  0
  3  2  1  0
  5  7  1  0
  5  4  1  0
  5  6  1  1
  7  8  2  0
 10  9  1  6
 10 11  1  0
 12 10  1  0
 12 13  1  1
 13  7  1  0
 14 12  1  0
 15 14  2  0
 17 16  1  6
 17 18  1  0
 18 14  1  0
 19 17  1  0
 19 20  1  0
 21 19  2  0
M  END
$$$$
