MVA.pdb
     RDKit          3D

 21 20  0  0  1  0  0  0  0  0999 V2000
   27.6004  -13.2061  -17.0741 C   0  0  0  0  0  0  0  0  0  0  0  0
   26.8023  -13.4587  -15.4983 S   0  0  0  0  0  0  0  0  0  0  0  0
   25.0169  -13.4692  -15.5325 C   0  0  0  0  0  0  0  0  0  0  0  0
   24.3924  -12.2285  -16.0811 C   0  0  0  0  0  0  0  0  0  0  0  0
   22.9157  -12.3614  -16.1967 C   0  0  2  0  0  0  0  0  0  0  0  0
   22.5865  -13.3293  -17.2209 N   0  0  0  0  0  0  0  0  0  0  0  0
   22.2886  -11.0559  -16.6279 C   0  0  0  0  0  0  0  0  0  0  0  0
   22.1799  -10.7991  -17.8409 O   0  0  0  0  0  0  0  0  0  0  0  0
   19.5558   -9.5889  -14.2518 C   0  0  0  0  0  0  0  0  0  0  0  0
   19.7115   -9.0593  -15.6531 C   0  0  1  0  0  0  0  0  0  0  0  0
   18.9174   -7.8209  -15.9064 C   0  0  0  0  0  0  0  0  0  0  0  0
   21.1859   -8.8851  -15.9836 C   0  0  2  0  0  0  0  0  0  0  0  0
   21.8353  -10.1469  -15.6409 N   0  0  0  0  0  0  0  0  0  0  0  0
   21.7888   -7.7793  -15.2228 C   0  0  0  0  0  0  0  0  0  0  0  0
   22.1024   -7.9621  -14.0200 O   0  0  0  0  0  0  0  0  0  0  0  0
   22.9192   -4.3017  -16.0780 C   0  0  0  0  0  0  0  0  0  0  0  0
   22.6760   -5.4125  -15.0579 C   0  0  2  0  0  0  0  0  0  0  0  0
   22.0410   -6.4940  -15.7813 N   0  0  0  0  0  0  0  0  0  0  0  0
   21.8752   -4.9550  -13.9200 C   0  0  0  0  0  0  0  0  0  0  0  0
   22.4343   -4.4876  -12.7558 O   0  0  0  0  0  0  0  0  0  0  0  0
   20.6166   -4.9875  -14.0028 O   0  0  0  0  0  0  0  0  0  0  0  0
  2  1  1  0
  3  4  1  0
  3  2  1  0
  5  7  1  0
  5  4  1  0
  5  6  1  6
  7  8  2  0
 10  9  1  1
 10 11  1  0
 12 10  1  0
 12 13  1  1
 13  7  1  0
 14 12  1  0
 15 14  2  0
 17 16  1  6
 17 18  1  0
 18 14  1  0
 19 17  1  0
 19 20  1  0
 21 19  2  0
M  END
$$$$
