MVA.pdb
     RDKit          3D

 21 20  0  0  1  0  0  0  0  0999 V2000
   27.9518  -12.2529  -15.3130 C   0  0  0  0  0  0  0  0  0  0  0  0
   27.7400  -14.0124  -15.1053 S   0  0  0  0  0  0  0  0  0  0  0  0
   26.0692  -14.6141  -15.2934 C   0  0  0  0  0  0  0  0  0  0  0  0
   25.1047  -13.6226  -15.8562 C   0  0  0  0  0  0  0  0  0  0  0  0
   23.7392  -14.1972  -15.9865 C   0  0  2  0  0  0  0  0  0  0  0  0
   23.7719  -15.3538  -16.8557 N   0  0  0  0  0  0  0  0  0  0  0  0
   22.7965  -13.2074  -16.6308 C   0  0  0  0  0  0  0  0  0  0  0  0
   22.7692  -13.1047  -17.8709 O   0  0  0  0  0  0  0  0  0  0  0  0
   18.6803  -10.7412  -16.3323 C   0  0  0  0  0  0  0  0  0  0  0  0
   19.6544  -11.8627  -16.0836 C   0  0  1  0  0  0  0  0  0  0  0  0
   19.3141  -13.1135  -16.8239 C   0  0  0  0  0  0  0  0  0  0  0  0
   21.0740  -11.3903  -16.3573 C   0  0  2  0  0  0  0  0  0  0  0  0
   21.9599  -12.4131  -15.8091 N   0  0  0  0  0  0  0  0  0  0  0  0
   21.3474  -10.0893  -15.7268 C   0  0  0  0  0  0  0  0  0  0  0  0
   21.2641   -9.9837  -14.4777 O   0  0  0  0  0  0  0  0  0  0  0  0
   22.4999   -6.7456  -16.9991 C   0  0  0  0  0  0  0  0  0  0  0  0
   22.1318   -7.6840  -15.8512 C   0  0  2  0  0  0  0  0  0  0  0  0
   21.7068   -8.9250  -16.4638 N   0  0  0  0  0  0  0  0  0  0  0  0
   21.1062   -7.1130  -14.9752 C   0  0  0  0  0  0  0  0  0  0  0  0
   21.4033   -6.4934  -13.7859 O   0  0  0  0  0  0  0  0  0  0  0  0
   19.8944   -7.1881  -15.3188 O   0  0  0  0  0  0  0  0  0  0  0  0
  2  1  1  0
  3  4  1  0
  3  2  1  0
  5  7  1  0
  5  4  1  0
  5  6  1  6
  7  8  2  0
 10  9  1  6
 10 11  1  0
 12 10  1  0
 12 13  1  1
 13  7  1  0
 14 12  1  0
 15 14  2  0
 17 16  1  6
 17 18  1  0
 18 14  1  0
 19 17  1  0
 19 20  1  0
 21 19  2  0
M  END
$$$$
