MVA.pdb
     RDKit          3D

 21 20  0  0  1  0  0  0  0  0999 V2000
   27.2796  -18.9847   -7.2438 C   0  0  0  0  0  0  0  0  0  0  0  0
   27.8076  -20.6673   -7.5160 S   0  0  0  0  0  0  0  0  0  0  0  0
   27.5329  -21.3036   -9.1618 C   0  0  0  0  0  0  0  0  0  0  0  0
   26.3942  -20.6752   -9.8957 C   0  0  0  0  0  0  0  0  0  0  0  0
   26.2777  -21.1997  -11.2824 C   0  0  2  0  0  0  0  0  0  0  0  0
   27.4991  -20.9379  -12.0128 N   0  0  0  0  0  0  0  0  0  0  0  0
   25.1727  -20.4951  -12.0348 C   0  0  0  0  0  0  0  0  0  0  0  0
   25.2400  -19.2651  -12.2130 O   0  0  0  0  0  0  0  0  0  0  0  0
   22.2127  -20.5903  -15.6779 C   0  0  0  0  0  0  0  0  0  0  0  0
   23.3670  -20.9578  -14.7829 C   0  0  1  0  0  0  0  0  0  0  0  0
   24.6593  -20.3413  -15.2051 C   0  0  0  0  0  0  0  0  0  0  0  0
   23.0205  -20.6524  -13.3336 C   0  0  2  0  0  0  0  0  0  0  0  0
   24.0785  -21.2497  -12.5241 N   0  0  0  0  0  0  0  0  0  0  0  0
   21.7132  -21.2118  -12.9555 C   0  0  0  0  0  0  0  0  0  0  0  0
   21.5628  -22.4589  -12.9348 O   0  0  0  0  0  0  0  0  0  0  0  0
   18.4882  -19.7662  -11.6948 C   0  0  0  0  0  0  0  0  0  0  0  0
   19.3025  -20.9449  -12.2252 C   0  0  2  0  0  0  0  0  0  0  0  0
   20.5916  -20.4071  -12.6060 N   0  0  0  0  0  0  0  0  0  0  0  0
   18.6320  -21.6280  -13.3339 C   0  0  0  0  0  0  0  0  0  0  0  0
   17.8600  -22.7505  -13.1594 O   0  0  0  0  0  0  0  0  0  0  0  0
   18.7629  -21.1737  -14.5037 O   0  0  0  0  0  0  0  0  0  0  0  0
  2  1  1  0
  3  4  1  0
  3  2  1  0
  5  7  1  0
  5  4  1  0
  5  6  1  6
  7  8  2  0
 10  9  1  6
 10 11  1  0
 12 10  1  0
 12 13  1  1
 13  7  1  0
 14 12  1  0
 15 14  2  0
 17 16  1  6
 17 18  1  0
 18 14  1  0
 19 17  1  0
 19 20  1  0
 21 19  2  0
M  END
$$$$
