MVA.pdb
     RDKit          3D

 21 20  0  0  1  0  0  0  0  0999 V2000
   24.5466  -20.3368   -7.7114 C   0  0  0  0  0  0  0  0  0  0  0  0
   26.1955  -19.9002   -8.2351 S   0  0  0  0  0  0  0  0  0  0  0  0
   26.8063  -20.7768   -9.6660 C   0  0  0  0  0  0  0  0  0  0  0  0
   25.9257  -20.7038  -10.8699 C   0  0  0  0  0  0  0  0  0  0  0  0
   26.4992  -21.4570  -12.0167 C   0  0  2  0  0  0  0  0  0  0  0  0
   27.7548  -20.8610  -12.4196 N   0  0  0  0  0  0  0  0  0  0  0  0
   25.5881  -21.3838  -13.2201 C   0  0  0  0  0  0  0  0  0  0  0  0
   25.7408  -20.4689  -14.0499 O   0  0  0  0  0  0  0  0  0  0  0  0
   22.8651  -24.1613  -16.1599 C   0  0  0  0  0  0  0  0  0  0  0  0
   23.8082  -23.9273  -15.0091 C   0  0  1  0  0  0  0  0  0  0  0  0
   25.1923  -24.4206  -15.2724 C   0  0  0  0  0  0  0  0  0  0  0  0
   23.7785  -22.4626  -14.6004 C   0  0  2  0  0  0  0  0  0  0  0  0
   24.5749  -22.3604  -13.3812 N   0  0  0  0  0  0  0  0  0  0  0  0
   22.4063  -21.9928  -14.3528 C   0  0  0  0  0  0  0  0  0  0  0  0
   21.7432  -22.5034  -13.4158 O   0  0  0  0  0  0  0  0  0  0  0  0
   20.2235  -19.3115  -15.8187 C   0  0  0  0  0  0  0  0  0  0  0  0
   20.4186  -20.5259  -14.9126 C   0  0  2  0  0  0  0  0  0  0  0  0
   21.7777  -20.9763  -15.1269 N   0  0  0  0  0  0  0  0  0  0  0  0
   19.4332  -21.5774  -15.1747 C   0  0  0  0  0  0  0  0  0  0  0  0
   18.2673  -21.7007  -14.4593 O   0  0  0  0  0  0  0  0  0  0  0  0
   19.6556  -22.4111  -16.0954 O   0  0  0  0  0  0  0  0  0  0  0  0
  2  1  1  0
  3  4  1  0
  3  2  1  0
  5  7  1  0
  5  4  1  0
  5  6  1  6
  7  8  2  0
 10  9  1  6
 10 11  1  0
 12 10  1  0
 12 13  1  1
 13  7  1  0
 14 12  1  0
 15 14  2  0
 17 16  1  6
 17 18  1  0
 18 14  1  0
 19 17  1  0
 19 20  1  0
 21 19  2  0
M  END
$$$$
