MVA.pdb
     RDKit          3D

 21 20  0  0  1  0  0  0  0  0999 V2000
   29.3941  -20.1294   -5.6690 C   0  0  0  0  0  0  0  0  0  0  0  0
   28.4205  -18.6628   -5.9601 S   0  0  0  0  0  0  0  0  0  0  0  0
   26.7891  -18.9422   -6.6305 C   0  0  0  0  0  0  0  0  0  0  0  0
   26.7487  -19.8197   -7.8382 C   0  0  0  0  0  0  0  0  0  0  0  0
   25.3583  -20.0179   -8.3273 C   0  0  2  0  0  0  0  0  0  0  0  0
   24.6232  -20.8501   -7.3992 N   0  0  0  0  0  0  0  0  0  0  0  0
   25.3507  -20.7473   -9.6507 C   0  0  0  0  0  0  0  0  0  0  0  0
   25.4504  -21.9878   -9.6676 O   0  0  0  0  0  0  0  0  0  0  0  0
   23.6199  -20.5646  -14.1496 C   0  0  0  0  0  0  0  0  0  0  0  0
   23.7189  -20.2503  -12.6800 C   0  0  1  0  0  0  0  0  0  0  0  0
   22.6062  -20.8367  -11.8760 C   0  0  0  0  0  0  0  0  0  0  0  0
   25.0902  -20.6452  -12.1538 C   0  0  2  0  0  0  0  0  0  0  0  0
   25.2300  -20.0034  -10.8499 N   0  0  0  0  0  0  0  0  0  0  0  0
   26.1676  -20.2066  -13.0549 C   0  0  0  0  0  0  0  0  0  0  0  0
   26.4164  -18.9798  -13.1614 O   0  0  0  0  0  0  0  0  0  0  0  0
   28.8201  -21.9231  -15.0610 C   0  0  0  0  0  0  0  0  0  0  0  0
   27.9731  -20.6865  -14.7653 C   0  0  2  0  0  0  0  0  0  0  0  0
   26.9565  -21.1081  -13.8248 N   0  0  0  0  0  0  0  0  0  0  0  0
   27.4023  -20.1017  -15.9809 C   0  0  0  0  0  0  0  0  0  0  0  0
   28.0344  -19.1187  -16.7023 O   0  0  0  0  0  0  0  0  0  0  0  0
   26.2819  -20.5119  -16.3914 O   0  0  0  0  0  0  0  0  0  0  0  0
  2  1  1  0
  3  4  1  0
  3  2  1  0
  5  7  1  0
  5  4  1  0
  5  6  1  1
  7  8  2  0
 10  9  1  6
 10 11  1  0
 12 10  1  0
 12 13  1  1
 13  7  1  0
 14 12  1  0
 15 14  2  0
 17 16  1  6
 17 18  1  0
 18 14  1  0
 19 17  1  0
 19 20  1  0
 21 19  2  0
M  END
$$$$
