MVA.pdb
     RDKit          3D

 21 20  0  0  1  0  0  0  0  0999 V2000
   28.5554  -11.0334  -17.2396 C   0  0  0  0  0  0  0  0  0  0  0  0
   28.1161  -12.4291  -16.2185 S   0  0  0  0  0  0  0  0  0  0  0  0
   26.3864  -12.8731  -16.2241 C   0  0  0  0  0  0  0  0  0  0  0  0
   25.4532  -11.7573  -16.5626 C   0  0  0  0  0  0  0  0  0  0  0  0
   24.0437  -12.2248  -16.6423 C   0  0  2  0  0  0  0  0  0  0  0  0
   23.8892  -13.1380  -17.7542 N   0  0  0  0  0  0  0  0  0  0  0  0
   23.1062  -11.0696  -16.9072 C   0  0  0  0  0  0  0  0  0  0  0  0
   22.7653  -10.8124  -18.0762 O   0  0  0  0  0  0  0  0  0  0  0  0
   20.5016  -10.1703  -14.1216 C   0  0  0  0  0  0  0  0  0  0  0  0
   20.3835   -9.5680  -15.4970 C   0  0  1  0  0  0  0  0  0  0  0  0
   19.3816   -8.4640  -15.5725 C   0  0  0  0  0  0  0  0  0  0  0  0
   21.7553   -9.1467  -16.0010 C   0  0  2  0  0  0  0  0  0  0  0  0
   22.6320  -10.2995  -15.8171 N   0  0  0  0  0  0  0  0  0  0  0  0
   22.2768   -7.9875  -15.2598 C   0  0  0  0  0  0  0  0  0  0  0  0
   22.6767   -8.1441  -14.0792 O   0  0  0  0  0  0  0  0  0  0  0  0
   23.0801   -4.4376  -16.1607 C   0  0  0  0  0  0  0  0  0  0  0  0
   22.9216   -5.5421  -15.1173 C   0  0  2  0  0  0  0  0  0  0  0  0
   22.3551   -6.6780  -15.8136 N   0  0  0  0  0  0  0  0  0  0  0  0
   22.1016   -5.1175  -13.9803 C   0  0  0  0  0  0  0  0  0  0  0  0
   22.6314   -4.5271  -12.8592 O   0  0  0  0  0  0  0  0  0  0  0  0
   20.8534   -5.2973  -14.0229 O   0  0  0  0  0  0  0  0  0  0  0  0
  2  1  1  0
  3  4  1  0
  3  2  1  0
  5  7  1  0
  5  4  1  0
  5  6  1  6
  7  8  2  0
 10  9  1  1
 10 11  1  0
 12 10  1  0
 12 13  1  1
 13  7  1  0
 14 12  1  0
 15 14  2  0
 17 16  1  6
 17 18  1  0
 18 14  1  0
 19 17  1  0
 19 20  1  0
 21 19  2  0
M  END
$$$$
