MVA.pdb
     RDKit          3D

 21 20  0  0  1  0  0  0  0  0999 V2000
   22.7227   -8.6963  -23.1565 C   0  0  0  0  0  0  0  0  0  0  0  0
   23.1992  -10.4063  -23.3375 S   0  0  0  0  0  0  0  0  0  0  0  0
   23.5139  -11.2832  -21.8139 C   0  0  0  0  0  0  0  0  0  0  0  0
   22.6702  -10.8559  -20.6582 C   0  0  0  0  0  0  0  0  0  0  0  0
   23.0766  -11.5365  -19.3998 C   0  0  2  0  0  0  0  0  0  0  0  0
   22.7764  -12.9496  -19.4845 N   0  0  0  0  0  0  0  0  0  0  0  0
   22.2934  -11.0051  -18.2218 C   0  0  0  0  0  0  0  0  0  0  0  0
   21.1276  -11.3981  -18.0331 O   0  0  0  0  0  0  0  0  0  0  0  0
   24.2747  -10.0260  -14.9088 C   0  0  0  0  0  0  0  0  0  0  0  0
   22.7849  -10.2366  -14.9753 C   0  0  1  0  0  0  0  0  0  0  0  0
   22.0815   -9.8729  -13.7099 C   0  0  0  0  0  0  0  0  0  0  0  0
   22.2110   -9.5209  -16.1885 C   0  0  2  0  0  0  0  0  0  0  0  0
   22.9024  -10.0673  -17.3525 N   0  0  0  0  0  0  0  0  0  0  0  0
   22.4160   -8.0659  -16.1114 C   0  0  0  0  0  0  0  0  0  0  0  0
   23.5851   -7.6082  -16.1574 O   0  0  0  0  0  0  0  0  0  0  0  0
   20.1419   -5.0819  -16.0598 C   0  0  0  0  0  0  0  0  0  0  0  0
   21.5342   -5.6980  -15.9339 C   0  0  2  0  0  0  0  0  0  0  0  0
   21.3477   -7.1328  -15.9859 N   0  0  0  0  0  0  0  0  0  0  0  0
   22.2230   -5.2675  -14.7151 C   0  0  0  0  0  0  0  0  0  0  0  0
   23.1425   -4.2474  -14.7001 O   0  0  0  0  0  0  0  0  0  0  0  0
   21.9677   -5.8526  -13.6267 O   0  0  0  0  0  0  0  0  0  0  0  0
  2  1  1  0
  3  4  1  0
  3  2  1  0
  5  7  1  0
  5  4  1  0
  5  6  1  6
  7  8  2  0
 10  9  1  1
 10 11  1  0
 12 10  1  0
 12 13  1  6
 13  7  1  0
 14 12  1  0
 15 14  2  0
 17 16  1  1
 17 18  1  0
 18 14  1  0
 19 17  1  0
 19 20  1  0
 21 19  2  0
M  END
$$$$
