MVA.pdb
     RDKit          3D

 21 20  0  0  1  0  0  0  0  0999 V2000
   29.2769  -18.4287   -6.1098 C   0  0  0  0  0  0  0  0  0  0  0  0
   28.0401  -19.4916   -5.3857 S   0  0  0  0  0  0  0  0  0  0  0  0
   27.1461  -20.5262   -6.5344 C   0  0  0  0  0  0  0  0  0  0  0  0
   26.9766  -19.9466   -7.9002 C   0  0  0  0  0  0  0  0  0  0  0  0
   26.2124  -20.8580   -8.7930 C   0  0  2  0  0  0  0  0  0  0  0  0
   26.9713  -22.0673   -9.0293 N   0  0  0  0  0  0  0  0  0  0  0  0
   25.9888  -20.2248  -10.1468 C   0  0  0  0  0  0  0  0  0  0  0  0
   26.8131  -19.3996  -10.5813 O   0  0  0  0  0  0  0  0  0  0  0  0
   25.0780  -22.7213  -12.6947 C   0  0  0  0  0  0  0  0  0  0  0  0
   25.5641  -21.3389  -13.0425 C   0  0  1  0  0  0  0  0  0  0  0  0
   25.6450  -21.0955  -14.5131 C   0  0  0  0  0  0  0  0  0  0  0  0
   24.7237  -20.2947  -12.3235 C   0  0  2  0  0  0  0  0  0  0  0  0
   24.8424  -20.5833  -10.8973 N   0  0  0  0  0  0  0  0  0  0  0  0
   23.3130  -20.3496  -12.7381 C   0  0  0  0  0  0  0  0  0  0  0  0
   22.5773  -21.2638  -12.2894 O   0  0  0  0  0  0  0  0  0  0  0  0
   21.1178  -18.2167  -14.9196 C   0  0  0  0  0  0  0  0  0  0  0  0
   21.3344  -19.4418  -14.0331 C   0  0  2  0  0  0  0  0  0  0  0  0
   22.7253  -19.4105  -13.6328 N   0  0  0  0  0  0  0  0  0  0  0  0
   20.9761  -20.6887  -14.7130 C   0  0  0  0  0  0  0  0  0  0  0  0
   19.7565  -21.2998  -14.5542 O   0  0  0  0  0  0  0  0  0  0  0  0
   21.8173  -21.2329  -15.4801 O   0  0  0  0  0  0  0  0  0  0  0  0
  2  1  1  0
  3  4  1  0
  3  2  1  0
  5  7  1  0
  5  4  1  0
  5  6  1  6
  7  8  2  0
 10  9  1  6
 10 11  1  0
 12 10  1  0
 12 13  1  1
 13  7  1  0
 14 12  1  0
 15 14  2  0
 17 16  1  6
 17 18  1  0
 18 14  1  0
 19 17  1  0
 19 20  1  0
 21 19  2  0
M  END
$$$$
