WQR.pdb
     RDKit          3D

 35 36  0  0  1  0  0  0  0  0999 V2000
   26.8279  -19.2913   -9.8907 N   0  0  0  0  0  0  0  0  0  0  0  0
   26.8068  -20.6275   -9.3495 C   0  0  1  0  0  0  0  0  0  0  0  0
   26.3257  -20.6579   -7.9341 C   0  0  0  0  0  0  0  0  0  0  0  0
   27.1012  -19.7530   -7.0763 C   0  0  0  0  0  0  0  0  0  0  0  0
   27.1442  -18.3839   -7.1734 C   0  0  0  0  0  0  0  0  0  0  0  0
   27.9259  -17.8710   -6.2084 N   0  0  0  0  0  0  0  0  0  0  0  0
   28.3854  -18.9149   -5.4912 C   0  0  0  0  0  0  0  0  0  0  0  0
   29.2222  -19.0185   -4.3960 C   0  0  0  0  0  0  0  0  0  0  0  0
   29.5639  -20.2143   -3.8282 C   0  0  0  0  0  0  0  0  0  0  0  0
   29.0714  -21.3743   -4.3455 C   0  0  0  0  0  0  0  0  0  0  0  0
   28.2377  -21.3298   -5.4303 C   0  0  0  0  0  0  0  0  0  0  0  0
   27.8860  -20.1074   -6.0121 C   0  0  0  0  0  0  0  0  0  0  0  0
   25.9727  -21.4753  -10.2483 C   0  0  0  0  0  0  0  0  0  0  0  0
   25.6995  -22.6708   -9.9494 O   0  0  0  0  0  0  0  0  0  0  0  0
   20.5697  -21.1238  -12.1663 N   0  0  0  0  0  0  0  0  0  0  0  0
   21.4547  -20.0472  -12.3927 C   0  0  0  0  0  0  0  0  0  0  0  0
   21.0410  -18.8846  -12.5758 O   0  0  0  0  0  0  0  0  0  0  0  0
   22.9097  -20.3044  -12.4132 C   0  0  0  0  0  0  0  0  0  0  0  0
   23.2433  -21.7557  -12.2060 C   0  0  0  0  0  0  0  0  0  0  0  0
   24.7640  -21.8935  -12.3803 C   0  0  2  0  0  0  0  0  0  0  0  0
   25.4336  -20.9955  -11.4925 N   0  0  0  0  0  0  0  0  0  0  0  0
   25.1365  -21.6749  -13.8049 C   0  0  0  0  0  0  0  0  0  0  0  0
   25.9139  -20.7435  -14.1339 O   0  0  0  0  0  0  0  0  0  0  0  0
   29.4431  -25.2063  -18.1338 N   0  0  0  0  0  0  0  0  0  0  0  0
   29.2848  -25.9474  -16.9392 C   0  0  0  0  0  0  0  0  0  0  0  0
   30.3378  -26.2319  -16.2582 N   0  0  0  0  0  0  0  0  0  0  0  0
   28.0160  -26.3753  -16.4844 N   0  0  0  0  0  0  0  0  0  0  0  0
   26.8193  -26.0481  -17.2049 C   0  0  0  0  0  0  0  0  0  0  0  0
   26.5880  -24.5460  -17.2801 C   0  0  0  0  0  0  0  0  0  0  0  0
   25.6592  -24.1795  -16.1486 C   0  0  0  0  0  0  0  0  0  0  0  0
   25.2886  -22.7124  -16.1163 C   0  0  2  0  0  0  0  0  0  0  0  0
   24.6306  -22.5054  -14.8348 N   0  0  0  0  0  0  0  0  0  0  0  0
   24.4470  -22.2799  -17.2427 C   0  0  0  0  0  0  0  0  0  0  0  0
   24.9388  -21.4368  -18.2264 O   0  0  0  0  0  0  0  0  0  0  0  0
   23.2612  -22.6552  -17.3541 O   0  0  0  0  0  0  0  0  0  0  0  0
  2 13  1  0
  2  1  1  6
  3  2  1  0
  4 12  1  0
  4  3  1  0
  5  4  2  0
  6  5  1  0
  6  7  1  0
  7 12  2  0
  8  7  1  0
  8  9  2  0
  9 10  1  0
 10 11  2  0
 12 11  1  0
 13 14  2  0
 15 16  1  0
 16 17  2  0
 18 19  1  0
 18 16  1  0
 20 19  1  6
 20 21  1  0
 20 22  1  0
 21 13  1  0
 22 32  1  0
 23 22  2  0
 25 24  1  0
 25 26  2  0
 27 25  1  0
 28 27  1  0
 29 28  1  0
 30 29  1  0
 31 30  1  6
 31 33  1  0
 32 31  1  0
 33 34  1  0
 35 33  2  0
M  END
$$$$
