WQR.pdb
     RDKit          3D

 35 36  0  0  1  0  0  0  0  0999 V2000
   25.7573  -19.2846  -11.6624 N   0  0  0  0  0  0  0  0  0  0  0  0
   25.8873  -20.7191  -11.5976 C   0  0  1  0  0  0  0  0  0  0  0  0
   25.3348  -21.2812  -10.3271 C   0  0  0  0  0  0  0  0  0  0  0  0
   26.0147  -20.7310   -9.1477 C   0  0  0  0  0  0  0  0  0  0  0  0
   25.4574  -19.9034   -8.2042 C   0  0  0  0  0  0  0  0  0  0  0  0
   26.3528  -19.6199   -7.2434 N   0  0  0  0  0  0  0  0  0  0  0  0
   27.4873  -20.2674   -7.5727 C   0  0  0  0  0  0  0  0  0  0  0  0
   28.7355  -20.3532   -6.9850 C   0  0  0  0  0  0  0  0  0  0  0  0
   29.7624  -21.0822   -7.5169 C   0  0  0  0  0  0  0  0  0  0  0  0
   29.5754  -21.7660   -8.6802 C   0  0  0  0  0  0  0  0  0  0  0  0
   28.3584  -21.7159   -9.3048 C   0  0  0  0  0  0  0  0  0  0  0  0
   27.3060  -20.9716   -8.7618 C   0  0  0  0  0  0  0  0  0  0  0  0
   25.2291  -21.2961  -12.8043 C   0  0  0  0  0  0  0  0  0  0  0  0
   24.1793  -20.7838  -13.2827 O   0  0  0  0  0  0  0  0  0  0  0  0
   27.9900  -24.8414  -17.1534 N   0  0  0  0  0  0  0  0  0  0  0  0
   28.1378  -23.4699  -16.8528 C   0  0  0  0  0  0  0  0  0  0  0  0
   29.0878  -22.7978  -17.3024 O   0  0  0  0  0  0  0  0  0  0  0  0
   27.1407  -22.8129  -15.9823 C   0  0  0  0  0  0  0  0  0  0  0  0
   26.0751  -23.7607  -15.5060 C   0  0  0  0  0  0  0  0  0  0  0  0
   25.0860  -22.9356  -14.6679 C   0  0  2  0  0  0  0  0  0  0  0  0
   25.7377  -22.4532  -13.4908 N   0  0  0  0  0  0  0  0  0  0  0  0
   23.8759  -23.7466  -14.3613 C   0  0  0  0  0  0  0  0  0  0  0  0
   23.9563  -24.7884  -13.6625 O   0  0  0  0  0  0  0  0  0  0  0  0
   19.7765  -22.3059  -10.8829 N   0  0  0  0  0  0  0  0  0  0  0  0
   18.4504  -22.7871  -10.7756 C   0  0  0  0  0  0  0  0  0  0  0  0
   17.9757  -22.9992   -9.5995 N   0  0  0  0  0  0  0  0  0  0  0  0
   17.6483  -23.0359  -11.9134 N   0  0  0  0  0  0  0  0  0  0  0  0
   18.1258  -22.7507  -13.2359 C   0  0  0  0  0  0  0  0  0  0  0  0
   19.0396  -23.8467  -13.7642 C   0  0  0  0  0  0  0  0  0  0  0  0
   20.3919  -23.2227  -14.0071 C   0  0  0  0  0  0  0  0  0  0  0  0
   21.3889  -24.1620  -14.6512 C   0  0  2  0  0  0  0  0  0  0  0  0
   22.5974  -23.3743  -14.8439 N   0  0  0  0  0  0  0  0  0  0  0  0
   20.9203  -24.7665  -15.9078 C   0  0  0  0  0  0  0  0  0  0  0  0
   20.2753  -25.9930  -15.9198 O   0  0  0  0  0  0  0  0  0  0  0  0
   21.0861  -24.1987  -17.0075 O   0  0  0  0  0  0  0  0  0  0  0  0
  2 13  1  0
  2  1  1  1
  3  2  1  0
  4 12  1  0
  4  3  1  0
  5  4  2  0
  6  5  1  0
  6  7  1  0
  7 12  2  0
  8  7  1  0
  8  9  2  0
  9 10  1  0
 10 11  2  0
 12 11  1  0
 13 14  2  0
 15 16  1  0
 16 17  2  0
 18 19  1  0
 18 16  1  0
 20 19  1  1
 20 21  1  0
 20 22  1  0
 21 13  1  0
 22 32  1  0
 23 22  2  0
 25 24  1  0
 25 26  2  0
 27 25  1  0
 28 27  1  0
 29 28  1  0
 30 29  1  0
 31 30  1  6
 31 33  1  0
 32 31  1  0
 33 34  1  0
 35 33  2  0
M  END
$$$$
