WQR.pdb
     RDKit          3D

 35 36  0  0  1  0  0  0  0  0999 V2000
   29.4802  -21.7029  -10.6531 N   0  0  0  0  0  0  0  0  0  0  0  0
   28.1694  -21.4409  -10.1129 C   0  0  1  0  0  0  0  0  0  0  0  0
   28.1678  -20.2834   -9.1664 C   0  0  0  0  0  0  0  0  0  0  0  0
   28.9027  -20.5887   -7.9324 C   0  0  0  0  0  0  0  0  0  0  0  0
   30.0619  -21.3190   -7.8399 C   0  0  0  0  0  0  0  0  0  0  0  0
   30.4799  -21.3732   -6.5641 N   0  0  0  0  0  0  0  0  0  0  0  0
   29.5854  -20.6757   -5.8371 C   0  0  0  0  0  0  0  0  0  0  0  0
   29.4768  -20.3869   -4.4897 C   0  0  0  0  0  0  0  0  0  0  0  0
   28.4527  -19.6490   -3.9647 C   0  0  0  0  0  0  0  0  0  0  0  0
   27.4793  -19.1629   -4.7845 C   0  0  0  0  0  0  0  0  0  0  0  0
   27.5377  -19.4189   -6.1280 C   0  0  0  0  0  0  0  0  0  0  0  0
   28.5852  -20.1728   -6.6673 C   0  0  0  0  0  0  0  0  0  0  0  0
   27.2326  -21.2385  -11.2548 C   0  0  0  0  0  0  0  0  0  0  0  0
   27.5766  -20.5734  -12.2709 O   0  0  0  0  0  0  0  0  0  0  0  0
   24.2240  -25.2622  -14.5229 N   0  0  0  0  0  0  0  0  0  0  0  0
   23.7503  -24.0401  -15.0477 C   0  0  0  0  0  0  0  0  0  0  0  0
   23.0932  -23.9913  -16.1071 O   0  0  0  0  0  0  0  0  0  0  0  0
   24.0404  -22.7855  -14.3230 C   0  0  0  0  0  0  0  0  0  0  0  0
   24.8066  -23.0170  -13.0502 C   0  0  0  0  0  0  0  0  0  0  0  0
   25.0819  -21.6349  -12.4373 C   0  0  2  0  0  0  0  0  0  0  0  0
   25.8995  -21.7783  -11.2738 N   0  0  0  0  0  0  0  0  0  0  0  0
   23.7977  -20.9376  -12.1528 C   0  0  0  0  0  0  0  0  0  0  0  0
   23.2028  -21.1006  -11.0575 O   0  0  0  0  0  0  0  0  0  0  0  0
   19.2513  -16.2436  -18.1063 N   0  0  0  0  0  0  0  0  0  0  0  0
   18.4374  -16.1890  -16.9505 C   0  0  0  0  0  0  0  0  0  0  0  0
   17.2856  -15.6253  -17.0460 N   0  0  0  0  0  0  0  0  0  0  0  0
   18.8548  -16.7312  -15.7129 N   0  0  0  0  0  0  0  0  0  0  0  0
   20.0862  -17.4581  -15.5976 C   0  0  0  0  0  0  0  0  0  0  0  0
   20.4298  -17.7780  -14.1502 C   0  0  0  0  0  0  0  0  0  0  0  0
   21.7129  -18.5720  -14.1602 C   0  0  0  0  0  0  0  0  0  0  0  0
   21.9258  -19.4007  -12.9117 C   0  0  2  0  0  0  0  0  0  0  0  0
   23.2042  -20.0698  -13.1019 N   0  0  0  0  0  0  0  0  0  0  0  0
   20.8420  -20.3551  -12.6315 C   0  0  0  0  0  0  0  0  0  0  0  0
   19.8716  -20.0833  -11.6803 O   0  0  0  0  0  0  0  0  0  0  0  0
   20.7563  -21.4430  -13.2386 O   0  0  0  0  0  0  0  0  0  0  0  0
  2 13  1  0
  2  1  1  6
  3  2  1  0
  4 12  1  0
  4  3  1  0
  5  4  2  0
  6  5  1  0
  6  7  1  0
  7 12  2  0
  8  7  1  0
  8  9  2  0
  9 10  1  0
 10 11  2  0
 12 11  1  0
 13 14  2  0
 15 16  1  0
 16 17  2  0
 18 19  1  0
 18 16  1  0
 20 19  1  1
 20 21  1  0
 20 22  1  0
 21 13  1  0
 22 32  1  0
 23 22  2  0
 25 24  1  0
 25 26  2  0
 27 25  1  0
 28 27  1  0
 29 28  1  0
 30 29  1  0
 31 30  1  6
 31 33  1  0
 32 31  1  0
 33 34  1  0
 35 33  2  0
M  END
$$$$
