WQR.pdb
     RDKit          3D

 35 36  0  0  1  0  0  0  0  0999 V2000
   27.1733  -22.3477   -9.5903 N   0  0  0  0  0  0  0  0  0  0  0  0
   26.4965  -21.1869   -9.0678 C   0  0  1  0  0  0  0  0  0  0  0  0
   27.2780  -19.9305   -9.2836 C   0  0  0  0  0  0  0  0  0  0  0  0
   28.4574  -19.8669   -8.4113 C   0  0  0  0  0  0  0  0  0  0  0  0
   29.7622  -20.0477   -8.7992 C   0  0  0  0  0  0  0  0  0  0  0  0
   30.5881  -19.8858   -7.7519 N   0  0  0  0  0  0  0  0  0  0  0  0
   29.8099  -19.6008   -6.6897 C   0  0  0  0  0  0  0  0  0  0  0  0
   30.0788  -19.3432   -5.3585 C   0  0  0  0  0  0  0  0  0  0  0  0
   29.1034  -19.0812   -4.4372 C   0  0  0  0  0  0  0  0  0  0  0  0
   27.7963  -19.0671   -4.8209 C   0  0  0  0  0  0  0  0  0  0  0  0
   27.4733  -19.3155   -6.1277 C   0  0  0  0  0  0  0  0  0  0  0  0
   28.4698  -19.5828   -7.0721 C   0  0  0  0  0  0  0  0  0  0  0  0
   25.1429  -21.1243   -9.6893 C   0  0  0  0  0  0  0  0  0  0  0  0
   24.9649  -21.4392  -10.8986 O   0  0  0  0  0  0  0  0  0  0  0  0
   20.4614  -23.1807   -7.3426 N   0  0  0  0  0  0  0  0  0  0  0  0
   19.7293  -22.4825   -8.3275 C   0  0  0  0  0  0  0  0  0  0  0  0
   18.6139  -22.8793   -8.7208 O   0  0  0  0  0  0  0  0  0  0  0  0
   20.2994  -21.2489   -8.9079 C   0  0  0  0  0  0  0  0  0  0  0  0
   21.6402  -20.9009   -8.3232 C   0  0  0  0  0  0  0  0  0  0  0  0
   22.6693  -21.0325   -9.4570 C   0  0  2  0  0  0  0  0  0  0  0  0
   23.9716  -20.7089   -8.9650 N   0  0  0  0  0  0  0  0  0  0  0  0
   22.2665  -20.1852  -10.6128 C   0  0  0  0  0  0  0  0  0  0  0  0
   21.9321  -18.9847  -10.4486 O   0  0  0  0  0  0  0  0  0  0  0  0
   25.3726  -23.2857  -15.7752 N   0  0  0  0  0  0  0  0  0  0  0  0
   24.2129  -24.0946  -15.7294 C   0  0  0  0  0  0  0  0  0  0  0  0
   24.3616  -25.3573  -15.5372 N   0  0  0  0  0  0  0  0  0  0  0  0
   22.9153  -23.5550  -15.8873 N   0  0  0  0  0  0  0  0  0  0  0  0
   22.6541  -22.1650  -15.6462 C   0  0  0  0  0  0  0  0  0  0  0  0
   23.1930  -21.7057  -14.2994 C   0  0  0  0  0  0  0  0  0  0  0  0
   22.8691  -20.2380  -14.1654 C   0  0  0  0  0  0  0  0  0  0  0  0
   21.8350  -19.9375  -13.1017 C   0  0  2  0  0  0  0  0  0  0  0  0
   22.2465  -20.6999  -11.9324 N   0  0  0  0  0  0  0  0  0  0  0  0
   20.4536  -20.2470  -13.5017 C   0  0  0  0  0  0  0  0  0  0  0  0
   19.7720  -19.4526  -14.4098 O   0  0  0  0  0  0  0  0  0  0  0  0
   19.8452  -21.2344  -13.0389 O   0  0  0  0  0  0  0  0  0  0  0  0
  2 13  1  0
  2  1  1  6
  3  2  1  0
  4 12  1  0
  4  3  1  0
  5  4  2  0
  6  5  1  0
  6  7  1  0
  7 12  2  0
  8  7  1  0
  8  9  2  0
  9 10  1  0
 10 11  2  0
 12 11  1  0
 13 14  2  0
 15 16  1  0
 16 17  2  0
 18 19  1  0
 18 16  1  0
 20 19  1  1
 20 21  1  0
 20 22  1  0
 21 13  1  0
 22 32  1  0
 23 22  2  0
 25 24  1  0
 25 26  2  0
 27 25  1  0
 28 27  1  0
 29 28  1  0
 30 29  1  0
 31 30  1  6
 31 33  1  0
 32 31  1  0
 33 34  1  0
 35 33  2  0
M  END
$$$$
