WQR.pdb
     RDKit          3D

 35 36  0  0  1  0  0  0  0  0999 V2000
   25.2588  -21.4160  -13.7945 N   0  0  0  0  0  0  0  0  0  0  0  0
   24.2222  -21.0082  -14.7099 C   0  0  1  0  0  0  0  0  0  0  0  0
   24.5941  -21.2611  -16.1358 C   0  0  0  0  0  0  0  0  0  0  0  0
   25.8117  -20.5347  -16.5176 C   0  0  0  0  0  0  0  0  0  0  0  0
   26.9941  -21.0972  -16.9315 C   0  0  0  0  0  0  0  0  0  0  0  0
   27.8866  -20.1396  -17.2343 N   0  0  0  0  0  0  0  0  0  0  0  0
   27.2743  -18.9602  -17.0134 C   0  0  0  0  0  0  0  0  0  0  0  0
   27.6777  -17.6438  -17.1371 C   0  0  0  0  0  0  0  0  0  0  0  0
   26.8671  -16.5838  -16.8404 C   0  0  0  0  0  0  0  0  0  0  0  0
   25.5973  -16.8053  -16.3996 C   0  0  0  0  0  0  0  0  0  0  0  0
   25.1458  -18.0899  -16.2588 C   0  0  0  0  0  0  0  0  0  0  0  0
   25.9730  -19.1760  -16.5629 C   0  0  0  0  0  0  0  0  0  0  0  0
   22.9638  -21.7069  -14.3215 C   0  0  0  0  0  0  0  0  0  0  0  0
   22.9924  -22.8133  -13.7147 O   0  0  0  0  0  0  0  0  0  0  0  0
   18.8911  -18.2268  -13.5918 N   0  0  0  0  0  0  0  0  0  0  0  0
   19.6573  -18.7534  -12.5292 C   0  0  0  0  0  0  0  0  0  0  0  0
   20.0328  -18.0425  -11.5753 O   0  0  0  0  0  0  0  0  0  0  0  0
   20.0241  -20.1847  -12.5474 C   0  0  0  0  0  0  0  0  0  0  0  0
   19.4187  -20.9220  -13.7095 C   0  0  0  0  0  0  0  0  0  0  0  0
   20.4871  -21.8999  -14.2232 C   0  0  2  0  0  0  0  0  0  0  0  0
   21.6580  -21.1757  -14.6070 N   0  0  0  0  0  0  0  0  0  0  0  0
   19.9338  -22.7241  -15.3326 C   0  0  0  0  0  0  0  0  0  0  0  0
   19.9802  -22.3209  -16.5223 O   0  0  0  0  0  0  0  0  0  0  0  0
   20.7467  -26.6893  -13.9239 N   0  0  0  0  0  0  0  0  0  0  0  0
   20.4548  -27.9669  -13.3911 C   0  0  0  0  0  0  0  0  0  0  0  0
   20.9800  -28.2875  -12.2620 N   0  0  0  0  0  0  0  0  0  0  0  0
   19.6124  -28.8843  -14.0608 N   0  0  0  0  0  0  0  0  0  0  0  0
   18.6025  -28.4348  -14.9753 C   0  0  0  0  0  0  0  0  0  0  0  0
   19.0721  -27.2546  -15.8132 C   0  0  0  0  0  0  0  0  0  0  0  0
   18.2480  -26.0590  -15.4030 C   0  0  0  0  0  0  0  0  0  0  0  0
   18.6498  -24.7755  -16.0974 C   0  0  2  0  0  0  0  0  0  0  0  0
   19.3387  -23.9859  -15.0875 N   0  0  0  0  0  0  0  0  0  0  0  0
   17.5265  -24.0401  -16.6986 C   0  0  0  0  0  0  0  0  0  0  0  0
   17.2384  -24.1453  -18.0499 O   0  0  0  0  0  0  0  0  0  0  0  0
   16.7928  -23.2955  -16.0155 O   0  0  0  0  0  0  0  0  0  0  0  0
  2 13  1  0
  2  1  1  1
  3  2  1  0
  4 12  1  0
  4  3  1  0
  5  4  2  0
  6  5  1  0
  6  7  1  0
  7 12  2  0
  8  7  1  0
  8  9  2  0
  9 10  1  0
 10 11  2  0
 12 11  1  0
 13 14  2  0
 15 16  1  0
 16 17  2  0
 18 19  1  0
 18 16  1  0
 20 19  1  6
 20 21  1  0
 20 22  1  0
 21 13  1  0
 22 32  1  0
 23 22  2  0
 25 24  1  0
 25 26  2  0
 27 25  1  0
 28 27  1  0
 29 28  1  0
 30 29  1  0
 31 30  1  1
 31 33  1  0
 32 31  1  0
 33 34  1  0
 35 33  2  0
M  END
$$$$
