WQR.pdb
     RDKit          3D

 35 36  0  0  1  0  0  0  0  0999 V2000
   26.1149  -22.6997  -11.8711 N   0  0  0  0  0  0  0  0  0  0  0  0
   25.5720  -21.4111  -11.5196 C   0  0  1  0  0  0  0  0  0  0  0  0
   26.5660  -20.3090  -11.7011 C   0  0  0  0  0  0  0  0  0  0  0  0
   27.6984  -20.4399  -10.7757 C   0  0  0  0  0  0  0  0  0  0  0  0
   28.9862  -20.7758  -11.1142 C   0  0  0  0  0  0  0  0  0  0  0  0
   29.7728  -20.7698  -10.0249 N   0  0  0  0  0  0  0  0  0  0  0  0
   28.9863  -20.4295   -8.9854 C   0  0  0  0  0  0  0  0  0  0  0  0
   29.2196  -20.2669   -7.6326 C   0  0  0  0  0  0  0  0  0  0  0  0
   28.2419  -19.9171   -6.7434 C   0  0  0  0  0  0  0  0  0  0  0  0
   26.9687  -19.7131   -7.1830 C   0  0  0  0  0  0  0  0  0  0  0  0
   26.6818  -19.8605   -8.5134 C   0  0  0  0  0  0  0  0  0  0  0  0
   27.6808  -20.2173   -9.4250 C   0  0  0  0  0  0  0  0  0  0  0  0
   24.3365  -21.1964  -12.3258 C   0  0  0  0  0  0  0  0  0  0  0  0
   24.2023  -21.7204  -13.4662 O   0  0  0  0  0  0  0  0  0  0  0  0
   20.0489  -23.5178  -11.5055 N   0  0  0  0  0  0  0  0  0  0  0  0
   19.7315  -22.1458  -11.6070 C   0  0  0  0  0  0  0  0  0  0  0  0
   18.7536  -21.7454  -12.2702 O   0  0  0  0  0  0  0  0  0  0  0  0
   20.5801  -21.1577  -10.9090 C   0  0  0  0  0  0  0  0  0  0  0  0
   20.8559  -19.9391  -11.7455 C   0  0  0  0  0  0  0  0  0  0  0  0
   22.0482  -20.2811  -12.6527 C   0  0  2  0  0  0  0  0  0  0  0  0
   23.2358  -20.3931  -11.8654 N   0  0  0  0  0  0  0  0  0  0  0  0
   22.1725  -19.2677  -13.7361 C   0  0  0  0  0  0  0  0  0  0  0  0
   22.0746  -18.0396  -13.4865 O   0  0  0  0  0  0  0  0  0  0  0  0
   27.2624  -16.2607  -16.8622 N   0  0  0  0  0  0  0  0  0  0  0  0
   27.6622  -17.5528  -17.2769 C   0  0  0  0  0  0  0  0  0  0  0  0
   28.8968  -17.7352  -17.5866 N   0  0  0  0  0  0  0  0  0  0  0  0
   26.7501  -18.6305  -17.3573 N   0  0  0  0  0  0  0  0  0  0  0  0
   25.4863  -18.5864  -16.6798 C   0  0  0  0  0  0  0  0  0  0  0  0
   24.6886  -19.8681  -16.8705 C   0  0  0  0  0  0  0  0  0  0  0  0
   23.2880  -19.4684  -17.2650 C   0  0  0  0  0  0  0  0  0  0  0  0
   22.5435  -18.7132  -16.1850 C   0  0  2  0  0  0  0  0  0  0  0  0
   22.4048  -19.6502  -15.0800 N   0  0  0  0  0  0  0  0  0  0  0  0
   21.2441  -18.1740  -16.6152 C   0  0  0  0  0  0  0  0  0  0  0  0
   21.1411  -16.9173  -17.1899 O   0  0  0  0  0  0  0  0  0  0  0  0
   20.1884  -18.8268  -16.4786 O   0  0  0  0  0  0  0  0  0  0  0  0
  2 13  1  0
  2  1  1  6
  3  2  1  0
  4 12  1  0
  4  3  1  0
  5  4  2  0
  6  5  1  0
  6  7  1  0
  7 12  2  0
  8  7  1  0
  8  9  2  0
  9 10  1  0
 10 11  2  0
 12 11  1  0
 13 14  2  0
 15 16  1  0
 16 17  2  0
 18 19  1  0
 18 16  1  0
 20 19  1  1
 20 21  1  0
 20 22  1  0
 21 13  1  0
 22 32  1  0
 23 22  2  0
 25 24  1  0
 25 26  2  0
 27 25  1  0
 28 27  1  0
 29 28  1  0
 30 29  1  0
 31 30  1  6
 31 33  1  0
 32 31  1  0
 33 34  1  0
 35 33  2  0
M  END
$$$$
