WQR.pdb
     RDKit          3D

 35 36  0  0  1  0  0  0  0  0999 V2000
   27.1745  -22.3084  -10.8043 N   0  0  0  0  0  0  0  0  0  0  0  0
   26.4490  -21.4223   -9.9285 C   0  0  1  0  0  0  0  0  0  0  0  0
   27.0975  -20.0796   -9.8172 C   0  0  0  0  0  0  0  0  0  0  0  0
   28.2801  -20.1171   -8.9478 C   0  0  0  0  0  0  0  0  0  0  0  0
   29.5466  -20.4962   -9.3192 C   0  0  0  0  0  0  0  0  0  0  0  0
   30.3932  -20.3776   -8.2826 N   0  0  0  0  0  0  0  0  0  0  0  0
   29.6666  -19.9216   -7.2438 C   0  0  0  0  0  0  0  0  0  0  0  0
   29.9756  -19.6151   -5.9318 C   0  0  0  0  0  0  0  0  0  0  0  0
   29.0497  -19.1646   -5.0326 C   0  0  0  0  0  0  0  0  0  0  0  0
   27.7539  -19.0009   -5.4200 C   0  0  0  0  0  0  0  0  0  0  0  0
   27.3926  -19.2895   -6.7084 C   0  0  0  0  0  0  0  0  0  0  0  0
   28.3386  -19.7495   -7.6303 C   0  0  0  0  0  0  0  0  0  0  0  0
   25.0456  -21.3329  -10.4234 C   0  0  0  0  0  0  0  0  0  0  0  0
   24.7920  -21.2698  -11.6583 O   0  0  0  0  0  0  0  0  0  0  0  0
   19.7220  -22.9580   -7.2438 N   0  0  0  0  0  0  0  0  0  0  0  0
   19.3623  -22.8681   -8.6061 C   0  0  0  0  0  0  0  0  0  0  0  0
   18.2349  -23.2155   -9.0118 O   0  0  0  0  0  0  0  0  0  0  0  0
   20.3474  -22.3486   -9.5773 C   0  0  0  0  0  0  0  0  0  0  0  0
   21.6626  -22.0008   -8.9370 C   0  0  0  0  0  0  0  0  0  0  0  0
   22.5930  -21.5194  -10.0614 C   0  0  2  0  0  0  0  0  0  0  0  0
   23.9087  -21.3133   -9.5425 N   0  0  0  0  0  0  0  0  0  0  0  0
   22.0314  -20.2979  -10.7008 C   0  0  0  0  0  0  0  0  0  0  0  0
   21.9928  -19.2043  -10.0823 O   0  0  0  0  0  0  0  0  0  0  0  0
   20.1800  -17.9742  -17.8158 N   0  0  0  0  0  0  0  0  0  0  0  0
   21.2425  -18.9079  -17.8400 C   0  0  0  0  0  0  0  0  0  0  0  0
   21.2494  -19.7947  -18.7712 N   0  0  0  0  0  0  0  0  0  0  0  0
   22.2801  -18.8885  -16.8794 N   0  0  0  0  0  0  0  0  0  0  0  0
   22.4407  -17.7813  -15.9813 C   0  0  0  0  0  0  0  0  0  0  0  0
   21.4554  -17.8350  -14.8231 C   0  0  0  0  0  0  0  0  0  0  0  0
   21.8328  -19.0208  -13.9697 C   0  0  0  0  0  0  0  0  0  0  0  0
   20.9920  -19.1631  -12.7192 C   0  0  2  0  0  0  0  0  0  0  0  0
   21.5236  -20.3252  -12.0229 N   0  0  0  0  0  0  0  0  0  0  0  0
   19.5489  -19.2885  -12.9760 C   0  0  0  0  0  0  0  0  0  0  0  0
   18.7313  -18.1721  -13.0498 O   0  0  0  0  0  0  0  0  0  0  0  0
   19.0083  -20.4026  -13.1365 O   0  0  0  0  0  0  0  0  0  0  0  0
  2 13  1  0
  2  1  1  6
  3  2  1  0
  4 12  1  0
  4  3  1  0
  5  4  2  0
  6  5  1  0
  6  7  1  0
  7 12  2  0
  8  7  1  0
  8  9  2  0
  9 10  1  0
 10 11  2  0
 12 11  1  0
 13 14  2  0
 15 16  1  0
 16 17  2  0
 18 19  1  0
 18 16  1  0
 20 19  1  1
 20 21  1  0
 20 22  1  0
 21 13  1  0
 22 32  1  0
 23 22  2  0
 25 24  1  0
 25 26  2  0
 27 25  1  0
 28 27  1  0
 29 28  1  0
 30 29  1  0
 31 30  1  6
 31 33  1  0
 32 31  1  0
 33 34  1  0
 35 33  2  0
M  END
$$$$
