WQR.pdb
     RDKit          3D

 35 36  0  0  1  0  0  0  0  0999 V2000
   25.0497  -19.7978  -11.4400 N   0  0  0  0  0  0  0  0  0  0  0  0
   26.1750  -20.6688  -11.6719 C   0  0  1  0  0  0  0  0  0  0  0  0
   26.3989  -21.6188  -10.5392 C   0  0  0  0  0  0  0  0  0  0  0  0
   26.5631  -20.9135   -9.2619 C   0  0  0  0  0  0  0  0  0  0  0  0
   25.5547  -20.5380   -8.4087 C   0  0  0  0  0  0  0  0  0  0  0  0
   26.0634  -19.9438   -7.3163 N   0  0  0  0  0  0  0  0  0  0  0  0
   27.4018  -19.9382   -7.4704 C   0  0  0  0  0  0  0  0  0  0  0  0
   28.4441  -19.4659   -6.6949 C   0  0  0  0  0  0  0  0  0  0  0  0
   29.7558  -19.5657   -7.0668 C   0  0  0  0  0  0  0  0  0  0  0  0
   30.0803  -20.1532   -8.2524 C   0  0  0  0  0  0  0  0  0  0  0  0
   29.0872  -20.6386   -9.0597 C   0  0  0  0  0  0  0  0  0  0  0  0
   27.7446  -20.5386   -8.6806 C   0  0  0  0  0  0  0  0  0  0  0  0
   25.9522  -21.3746  -12.9659 C   0  0  0  0  0  0  0  0  0  0  0  0
   24.8334  -21.3309  -13.5487 O   0  0  0  0  0  0  0  0  0  0  0  0
   30.8356  -23.3567  -16.2397 N   0  0  0  0  0  0  0  0  0  0  0  0
   30.2811  -22.3429  -17.0510 C   0  0  0  0  0  0  0  0  0  0  0  0
   30.6442  -22.1758  -18.2328 O   0  0  0  0  0  0  0  0  0  0  0  0
   29.2432  -21.4562  -16.4854 C   0  0  0  0  0  0  0  0  0  0  0  0
   28.9030  -21.7992  -15.0616 C   0  0  0  0  0  0  0  0  0  0  0  0
   27.3697  -21.8151  -14.9603 C   0  0  2  0  0  0  0  0  0  0  0  0
   26.9787  -22.1376  -13.6239 N   0  0  0  0  0  0  0  0  0  0  0  0
   26.8013  -22.7542  -15.9660 C   0  0  0  0  0  0  0  0  0  0  0  0
   27.1402  -22.6892  -17.1747 O   0  0  0  0  0  0  0  0  0  0  0  0
   20.3029  -25.9246  -13.0202 N   0  0  0  0  0  0  0  0  0  0  0  0
   20.8621  -26.9583  -13.8077 C   0  0  0  0  0  0  0  0  0  0  0  0
   20.0603  -27.7637  -14.4092 N   0  0  0  0  0  0  0  0  0  0  0  0
   22.2598  -27.1233  -13.9461 N   0  0  0  0  0  0  0  0  0  0  0  0
   23.1431  -25.9929  -13.9653 C   0  0  0  0  0  0  0  0  0  0  0  0
   22.5768  -24.8364  -14.7759 C   0  0  0  0  0  0  0  0  0  0  0  0
   23.6326  -23.7591  -14.8157 C   0  0  0  0  0  0  0  0  0  0  0  0
   24.4858  -23.7889  -16.0656 C   0  0  2  0  0  0  0  0  0  0  0  0
   25.8633  -23.7495  -15.5976 N   0  0  0  0  0  0  0  0  0  0  0  0
   24.1970  -22.7043  -17.0166 C   0  0  0  0  0  0  0  0  0  0  0  0
   24.3383  -21.3739  -16.6556 O   0  0  0  0  0  0  0  0  0  0  0  0
   23.8146  -22.9414  -18.1815 O   0  0  0  0  0  0  0  0  0  0  0  0
  2 13  1  0
  2  1  1  1
  3  2  1  0
  4 12  1  0
  4  3  1  0
  5  4  2  0
  6  5  1  0
  6  7  1  0
  7 12  2  0
  8  7  1  0
  8  9  2  0
  9 10  1  0
 10 11  2  0
 12 11  1  0
 13 14  2  0
 15 16  1  0
 16 17  2  0
 18 19  1  0
 18 16  1  0
 20 19  1  1
 20 21  1  0
 20 22  1  0
 21 13  1  0
 22 32  1  0
 23 22  2  0
 25 24  1  0
 25 26  2  0
 27 25  1  0
 28 27  1  0
 29 28  1  0
 30 29  1  0
 31 30  1  1
 31 33  1  0
 32 31  1  0
 33 34  1  0
 35 33  2  0
M  END
$$$$
