WQR.pdb
     RDKit          3D

 35 36  0  0  1  0  0  0  0  0999 V2000
   24.5933  -19.5696  -15.4073 N   0  0  0  0  0  0  0  0  0  0  0  0
   23.5049  -20.2622  -16.0509 C   0  0  1  0  0  0  0  0  0  0  0  0
   23.9682  -21.1069  -17.1944 C   0  0  0  0  0  0  0  0  0  0  0  0
   23.4417  -20.6228  -18.4767 C   0  0  0  0  0  0  0  0  0  0  0  0
   23.8783  -19.5185  -19.1664 C   0  0  0  0  0  0  0  0  0  0  0  0
   23.1992  -19.3880  -20.3184 N   0  0  0  0  0  0  0  0  0  0  0  0
   22.3246  -20.4116  -20.3666 C   0  0  0  0  0  0  0  0  0  0  0  0
   21.3683  -20.7999  -21.2861 C   0  0  0  0  0  0  0  0  0  0  0  0
   20.5713  -21.8974  -21.1158 C   0  0  0  0  0  0  0  0  0  0  0  0
   20.7037  -22.6628  -19.9966 C   0  0  0  0  0  0  0  0  0  0  0  0
   21.6357  -22.3239  -19.0530 C   0  0  0  0  0  0  0  0  0  0  0  0
   22.4529  -21.2020  -19.2258 C   0  0  0  0  0  0  0  0  0  0  0  0
   22.7883  -21.0584  -15.0141 C   0  0  0  0  0  0  0  0  0  0  0  0
   23.4212  -21.7608  -14.1779 O   0  0  0  0  0  0  0  0  0  0  0  0
   18.4348  -19.4461  -11.3970 N   0  0  0  0  0  0  0  0  0  0  0  0
   19.7067  -19.0208  -11.8383 C   0  0  0  0  0  0  0  0  0  0  0  0
   20.1483  -17.8850  -11.5713 O   0  0  0  0  0  0  0  0  0  0  0  0
   20.5371  -19.9456  -12.6375 C   0  0  0  0  0  0  0  0  0  0  0  0
   19.7906  -21.1843  -13.0487 C   0  0  0  0  0  0  0  0  0  0  0  0
   20.7178  -21.9737  -13.9861 C   0  0  2  0  0  0  0  0  0  0  0  0
   21.3546  -21.0779  -14.8999 N   0  0  0  0  0  0  0  0  0  0  0  0
   19.9520  -23.0476  -14.6762 C   0  0  0  0  0  0  0  0  0  0  0  0
   19.1583  -22.7758  -15.6122 O   0  0  0  0  0  0  0  0  0  0  0  0
   20.3987  -29.5364  -10.2729 N   0  0  0  0  0  0  0  0  0  0  0  0
   21.4248  -29.6129  -11.2438 C   0  0  0  0  0  0  0  0  0  0  0  0
   21.9956  -30.7492  -11.4346 N   0  0  0  0  0  0  0  0  0  0  0  0
   21.8303  -28.4867  -11.9968 N   0  0  0  0  0  0  0  0  0  0  0  0
   21.1465  -27.2307  -11.8821 C   0  0  0  0  0  0  0  0  0  0  0  0
   19.8049  -27.2407  -12.6000 C   0  0  0  0  0  0  0  0  0  0  0  0
   19.2837  -25.8246  -12.5932 C   0  0  0  0  0  0  0  0  0  0  0  0
   18.9762  -25.2825  -13.9726 C   0  0  2  0  0  0  0  0  0  0  0  0
   20.0907  -24.4073  -14.3042 N   0  0  0  0  0  0  0  0  0  0  0  0
   17.6833  -24.5878  -14.0711 C   0  0  0  0  0  0  0  0  0  0  0  0
   17.3972  -23.4846  -13.2827 O   0  0  0  0  0  0  0  0  0  0  0  0
   16.7977  -24.9653  -14.8663 O   0  0  0  0  0  0  0  0  0  0  0  0
  2 13  1  0
  2  1  1  1
  3  2  1  0
  4 12  1  0
  4  3  1  0
  5  4  2  0
  6  5  1  0
  6  7  1  0
  7 12  2  0
  8  7  1  0
  8  9  2  0
  9 10  1  0
 10 11  2  0
 12 11  1  0
 13 14  2  0
 15 16  1  0
 16 17  2  0
 18 19  1  0
 18 16  1  0
 20 19  1  1
 20 21  1  0
 20 22  1  0
 21 13  1  0
 22 32  1  0
 23 22  2  0
 25 24  1  0
 25 26  2  0
 27 25  1  0
 28 27  1  0
 29 28  1  0
 30 29  1  0
 31 30  1  1
 31 33  1  0
 32 31  1  0
 33 34  1  0
 35 33  2  0
M  END
$$$$
