WQR.pdb
     RDKit          3D

 35 36  0  0  1  0  0  0  0  0999 V2000
   24.7387  -19.3948  -18.2216 N   0  0  0  0  0  0  0  0  0  0  0  0
   24.4058  -19.1258  -16.8449 C   0  0  1  0  0  0  0  0  0  0  0  0
   23.5260  -17.9257  -16.6989 C   0  0  0  0  0  0  0  0  0  0  0  0
   24.1051  -16.7441  -17.3504 C   0  0  0  0  0  0  0  0  0  0  0  0
   23.4113  -15.7690  -18.0238 C   0  0  0  0  0  0  0  0  0  0  0  0
   24.2510  -14.8169  -18.4638 N   0  0  0  0  0  0  0  0  0  0  0  0
   25.4866  -15.1834  -18.0714 C   0  0  0  0  0  0  0  0  0  0  0  0
   26.7388  -14.6202  -18.2311 C   0  0  0  0  0  0  0  0  0  0  0  0
   27.8811  -15.1895  -17.7414 C   0  0  0  0  0  0  0  0  0  0  0  0
   27.8121  -16.3672  -17.0602 C   0  0  0  0  0  0  0  0  0  0  0  0
   26.5969  -16.9688  -16.8728 C   0  0  0  0  0  0  0  0  0  0  0  0
   25.4267  -16.3875  -17.3721 C   0  0  0  0  0  0  0  0  0  0  0  0
   23.7852  -20.3545  -16.2726 C   0  0  0  0  0  0  0  0  0  0  0  0
   23.3366  -21.2676  -17.0197 O   0  0  0  0  0  0  0  0  0  0  0  0
   25.5229  -22.8959  -10.9934 N   0  0  0  0  0  0  0  0  0  0  0  0
   24.9878  -21.5917  -11.0724 C   0  0  0  0  0  0  0  0  0  0  0  0
   25.1220  -20.7696  -10.1437 O   0  0  0  0  0  0  0  0  0  0  0  0
   24.2492  -21.1898  -12.2875 C   0  0  0  0  0  0  0  0  0  0  0  0
   24.0149  -22.3389  -13.2283 C   0  0  0  0  0  0  0  0  0  0  0  0
   23.1285  -21.8100  -14.3669 C   0  0  2  0  0  0  0  0  0  0  0  0
   23.6593  -20.5768  -14.8571 N   0  0  0  0  0  0  0  0  0  0  0  0
   21.7204  -21.6829  -13.9008 C   0  0  0  0  0  0  0  0  0  0  0  0
   21.2902  -20.5985  -13.4327 O   0  0  0  0  0  0  0  0  0  0  0  0
   18.4239  -24.5821   -7.5093 N   0  0  0  0  0  0  0  0  0  0  0  0
   18.7697  -25.1069   -8.7768 C   0  0  0  0  0  0  0  0  0  0  0  0
   19.0907  -26.3498   -8.8515 N   0  0  0  0  0  0  0  0  0  0  0  0
   18.7704  -24.3088   -9.9443 N   0  0  0  0  0  0  0  0  0  0  0  0
   18.3545  -22.9362   -9.9063 C   0  0  0  0  0  0  0  0  0  0  0  0
   18.2283  -22.3367  -11.2991 C   0  0  0  0  0  0  0  0  0  0  0  0
   19.5600  -22.5166  -11.9855 C   0  0  0  0  0  0  0  0  0  0  0  0
   19.4502  -22.7364  -13.4791 C   0  0  2  0  0  0  0  0  0  0  0  0
   20.8202  -22.7743  -13.9687 N   0  0  0  0  0  0  0  0  0  0  0  0
   18.6442  -21.7236  -14.1782 C   0  0  0  0  0  0  0  0  0  0  0  0
   19.2133  -20.8654  -15.1055 O   0  0  0  0  0  0  0  0  0  0  0  0
   17.4205  -21.5996  -13.9625 O   0  0  0  0  0  0  0  0  0  0  0  0
  2 13  1  0
  2  1  1  6
  3  2  1  0
  4 12  1  0
  4  3  1  0
  5  4  2  0
  6  5  1  0
  6  7  1  0
  7 12  2  0
  8  7  1  0
  8  9  2  0
  9 10  1  0
 10 11  2  0
 12 11  1  0
 13 14  2  0
 15 16  1  0
 16 17  2  0
 18 19  1  0
 18 16  1  0
 20 19  1  1
 20 21  1  0
 20 22  1  0
 21 13  1  0
 22 32  1  0
 23 22  2  0
 25 24  1  0
 25 26  2  0
 27 25  1  0
 28 27  1  0
 29 28  1  0
 30 29  1  0
 31 30  1  1
 31 33  1  0
 32 31  1  0
 33 34  1  0
 35 33  2  0
M  END
$$$$
