QGR.pdb
     RDKit          3D

 25 24  0  0  1  0  0  0  0  0999 V2000
    7.3283  -12.7886   15.9349 N   0  0  0  0  0  0  0  0  0  0  0  0
    7.5989  -13.9297   15.1639 C   0  0  0  0  0  0  0  0  0  0  0  0
    6.7667  -14.2096   14.2405 O   0  0  0  0  0  0  0  0  0  0  0  0
    8.7580  -14.8058   15.3406 C   0  0  0  0  0  0  0  0  0  0  0  0
    8.6844  -15.7888   16.4364 C   0  0  0  0  0  0  0  0  0  0  0  0
    9.6431  -15.5824   17.5725 C   0  0  2  0  0  0  0  0  0  0  0  0
   11.0061  -15.8886   17.0613 N   0  0  0  0  0  0  0  0  0  0  0  0
    9.4207  -16.3816   18.7589 C   0  0  0  0  0  0  0  0  0  0  0  0
    8.3795  -16.2994   19.4272 O   0  0  0  0  0  0  0  0  0  0  0  0
   10.4376  -17.3043   19.1696 N   0  0  0  0  0  0  0  0  0  0  0  0
   10.2506  -17.9809   20.4089 C   0  0  0  0  0  0  0  0  0  0  0  0
   10.2885  -17.1275   21.6151 C   0  0  0  0  0  0  0  0  0  0  0  0
   11.2989  -16.3647   21.7179 O   0  0  0  0  0  0  0  0  0  0  0  0
    5.7567  -11.2014   27.7696 N   0  0  0  0  0  0  0  0  0  0  0  0
    6.2937  -11.5193   26.4914 C   0  0  0  0  0  0  0  0  0  0  0  0
    5.9734  -10.7196   25.5207 N   0  0  0  0  0  0  0  0  0  0  0  0
    7.1215  -12.6364   26.3020 N   0  0  0  0  0  0  0  0  0  0  0  0
    7.0744  -13.3311   24.9780 C   0  0  0  0  0  0  0  0  0  0  0  0
    7.9417  -14.5129   25.0412 C   0  0  0  0  0  0  0  0  0  0  0  0
    8.1573  -15.4324   23.9286 C   0  0  0  0  0  0  0  0  0  0  0  0
    9.4869  -16.0268   23.7240 C   0  0  2  0  0  0  0  0  0  0  0  0
    9.3372  -17.0757   22.6385 N   0  0  0  0  0  0  0  0  0  0  0  0
    9.9253  -16.8398   24.8939 C   0  0  0  0  0  0  0  0  0  0  0  0
    9.6547  -18.1042   24.8252 O   0  0  0  0  0  0  0  0  0  0  0  0
   10.5664  -16.3947   25.9904 O   0  0  0  0  0  0  0  0  0  0  0  0
  2  3  2  0
  2  1  1  0
  4  2  1  0
  5  4  1  0
  6  5  1  0
  6  7  1  6
  8  9  2  0
  8  6  1  0
 10  8  1  0
 11 12  1  0
 11 10  1  0
 12 22  1  0
 13 12  2  0
 15 14  1  0
 16 15  2  0
 17 15  1  0
 18 17  1  0
 19 18  1  0
 20 19  1  0
 21 22  1  0
 21 20  1  1
 23 21  1  0
 24 23  2  0
 25 23  1  0
M  END
$$$$
