QGR.pdb
     RDKit          3D

 25 24  0  0  1  0  0  0  0  0999 V2000
    8.4318  -23.3294   16.7013 N   0  0  0  0  0  0  0  0  0  0  0  0
    9.3121  -22.7223   17.6102 C   0  0  0  0  0  0  0  0  0  0  0  0
    9.7807  -23.4609   18.5368 O   0  0  0  0  0  0  0  0  0  0  0  0
    9.7285  -21.3198   17.5653 C   0  0  0  0  0  0  0  0  0  0  0  0
   10.7150  -20.8892   18.5722 C   0  0  0  0  0  0  0  0  0  0  0  0
   10.4604  -19.5584   19.2174 C   0  0  2  0  0  0  0  0  0  0  0  0
   10.5564  -18.5252   18.1515 N   0  0  0  0  0  0  0  0  0  0  0  0
   11.3555  -19.1785   20.2900 C   0  0  0  0  0  0  0  0  0  0  0  0
   11.5146  -19.8804   21.2997 O   0  0  0  0  0  0  0  0  0  0  0  0
   12.0872  -17.9515   20.1757 N   0  0  0  0  0  0  0  0  0  0  0  0
   12.9356  -17.5877   21.2604 C   0  0  0  0  0  0  0  0  0  0  0  0
   12.2582  -16.9820   22.4262 C   0  0  0  0  0  0  0  0  0  0  0  0
   12.9925  -16.2726   23.1819 O   0  0  0  0  0  0  0  0  0  0  0  0
    7.2720  -14.5543   19.5106 N   0  0  0  0  0  0  0  0  0  0  0  0
    7.8480  -13.2939   19.8308 C   0  0  0  0  0  0  0  0  0  0  0  0
    8.0855  -12.5021   18.8303 N   0  0  0  0  0  0  0  0  0  0  0  0
    8.1390  -12.9372   21.1563 N   0  0  0  0  0  0  0  0  0  0  0  0
    7.7676  -13.8976   22.2415 C   0  0  0  0  0  0  0  0  0  0  0  0
    8.7844  -14.9540   22.2965 C   0  0  0  0  0  0  0  0  0  0  0  0
    8.9804  -15.8452   23.4353 C   0  0  0  0  0  0  0  0  0  0  0  0
   10.3447  -16.2030   23.8521 C   0  0  2  0  0  0  0  0  0  0  0  0
   10.9101  -17.1089   22.7748 N   0  0  0  0  0  0  0  0  0  0  0  0
   10.3522  -17.0899   25.0500 C   0  0  0  0  0  0  0  0  0  0  0  0
   10.0914  -16.5061   26.1760 O   0  0  0  0  0  0  0  0  0  0  0  0
   10.5952  -18.4136   25.0717 O   0  0  0  0  0  0  0  0  0  0  0  0
  2  3  2  0
  2  1  1  0
  4  2  1  0
  5  4  1  0
  6  5  1  0
  6  7  1  6
  8  9  2  0
  8  6  1  0
 10  8  1  0
 11 12  1  0
 11 10  1  0
 12 22  1  0
 13 12  2  0
 15 14  1  0
 16 15  2  0
 17 15  1  0
 18 17  1  0
 19 18  1  0
 20 19  1  0
 21 22  1  0
 21 20  1  6
 23 21  1  0
 24 23  2  0
 25 23  1  0
M  END
$$$$
