QGR.pdb
     RDKit          3D

 25 24  0  0  1  0  0  0  0  0999 V2000
    8.9053  -13.8469   14.9529 N   0  0  0  0  0  0  0  0  0  0  0  0
    7.8186  -14.6067   15.4127 C   0  0  0  0  0  0  0  0  0  0  0  0
    7.3098  -15.4372   14.5911 O   0  0  0  0  0  0  0  0  0  0  0  0
    7.2401  -14.5169   16.7542 C   0  0  0  0  0  0  0  0  0  0  0  0
    7.6427  -13.3593   17.5730 C   0  0  0  0  0  0  0  0  0  0  0  0
    8.9479  -13.4898   18.3021 C   0  0  2  0  0  0  0  0  0  0  0  0
   10.0225  -13.5566   17.2756 N   0  0  0  0  0  0  0  0  0  0  0  0
    9.0897  -14.6377   19.1728 C   0  0  0  0  0  0  0  0  0  0  0  0
    8.1784  -15.0158   19.9239 O   0  0  0  0  0  0  0  0  0  0  0  0
   10.3245  -15.3651   19.1597 N   0  0  0  0  0  0  0  0  0  0  0  0
   10.4557  -16.4554   20.0667 C   0  0  0  0  0  0  0  0  0  0  0  0
   10.4313  -16.0999   21.5011 C   0  0  0  0  0  0  0  0  0  0  0  0
   11.3439  -15.3050   21.8867 O   0  0  0  0  0  0  0  0  0  0  0  0
    5.0494  -12.0900   27.1221 N   0  0  0  0  0  0  0  0  0  0  0  0
    6.1108  -11.7587   26.2351 C   0  0  0  0  0  0  0  0  0  0  0  0
    6.8034  -10.7041   26.5395 N   0  0  0  0  0  0  0  0  0  0  0  0
    6.3846  -12.5348   25.0986 N   0  0  0  0  0  0  0  0  0  0  0  0
    6.6165  -14.0007   25.2863 C   0  0  0  0  0  0  0  0  0  0  0  0
    7.8048  -14.3864   24.5169 C   0  0  0  0  0  0  0  0  0  0  0  0
    8.2654  -15.7615   24.3535 C   0  0  0  0  0  0  0  0  0  0  0  0
    9.6339  -16.0183   23.8801 C   0  0  2  0  0  0  0  0  0  0  0  0
    9.5172  -16.5434   22.4618 N   0  0  0  0  0  0  0  0  0  0  0  0
   10.2695  -17.1633   24.5920 C   0  0  0  0  0  0  0  0  0  0  0  0
   10.6478  -16.9221   25.8067 O   0  0  0  0  0  0  0  0  0  0  0  0
   10.4794  -18.3999   24.1040 O   0  0  0  0  0  0  0  0  0  0  0  0
  2  3  2  0
  2  1  1  0
  4  2  1  0
  5  4  1  0
  6  5  1  0
  6  7  1  6
  8  9  2  0
  8  6  1  0
 10  8  1  0
 11 12  1  0
 11 10  1  0
 12 22  1  0
 13 12  2  0
 15 14  1  0
 16 15  2  0
 17 15  1  0
 18 17  1  0
 19 18  1  0
 20 19  1  0
 21 22  1  0
 21 20  1  1
 23 21  1  0
 24 23  2  0
 25 23  1  0
M  END
$$$$
