QGR.pdb
     RDKit          3D

 25 24  0  0  1  0  0  0  0  0999 V2000
    8.1542  -12.8182   14.8852 N   0  0  0  0  0  0  0  0  0  0  0  0
    8.2646  -14.1064   15.4309 C   0  0  0  0  0  0  0  0  0  0  0  0
    8.7433  -15.0122   14.6731 O   0  0  0  0  0  0  0  0  0  0  0  0
    7.8787  -14.4761   16.7935 C   0  0  0  0  0  0  0  0  0  0  0  0
    7.2740  -13.4168   17.6211 C   0  0  0  0  0  0  0  0  0  0  0  0
    7.6885  -13.3898   19.0632 C   0  0  2  0  0  0  0  0  0  0  0  0
    9.1755  -13.3607   19.0949 N   0  0  0  0  0  0  0  0  0  0  0  0
    7.2455  -14.4973   19.8836 C   0  0  0  0  0  0  0  0  0  0  0  0
    6.0531  -14.8284   19.9615 O   0  0  0  0  0  0  0  0  0  0  0  0
    8.2215  -15.2397   20.6255 N   0  0  0  0  0  0  0  0  0  0  0  0
    7.7510  -16.2894   21.4654 C   0  0  0  0  0  0  0  0  0  0  0  0
    8.7848  -16.9814   22.2634 C   0  0  0  0  0  0  0  0  0  0  0  0
    8.3544  -17.8350   23.0999 O   0  0  0  0  0  0  0  0  0  0  0  0
   15.5988  -19.4476   22.2972 N   0  0  0  0  0  0  0  0  0  0  0  0
   15.2053  -20.0890   21.0901 C   0  0  0  0  0  0  0  0  0  0  0  0
   15.7666  -21.2322   20.8400 N   0  0  0  0  0  0  0  0  0  0  0  0
   14.2633  -19.5098   20.2264 N   0  0  0  0  0  0  0  0  0  0  0  0
   13.8811  -18.0820   20.4571 C   0  0  0  0  0  0  0  0  0  0  0  0
   12.5902  -18.0522   21.1538 C   0  0  0  0  0  0  0  0  0  0  0  0
   12.4087  -17.5862   22.5248 C   0  0  0  0  0  0  0  0  0  0  0  0
   11.0645  -17.5888   23.1215 C   0  0  2  0  0  0  0  0  0  0  0  0
   10.1686  -16.7943   22.1903 N   0  0  0  0  0  0  0  0  0  0  0  0
   11.0057  -16.7895   24.3783 C   0  0  0  0  0  0  0  0  0  0  0  0
   10.7190  -15.5358   24.2272 O   0  0  0  0  0  0  0  0  0  0  0  0
   11.2136  -17.2386   25.6299 O   0  0  0  0  0  0  0  0  0  0  0  0
  2  3  2  0
  2  1  1  0
  4  2  1  0
  5  4  1  0
  6  5  1  0
  6  7  1  6
  8  9  2  0
  8  6  1  0
 10  8  1  0
 11 12  1  0
 11 10  1  0
 12 22  1  0
 13 12  2  0
 15 14  1  0
 16 15  2  0
 17 15  1  0
 18 17  1  0
 19 18  1  0
 20 19  1  0
 21 22  1  0
 21 20  1  6
 23 21  1  0
 24 23  2  0
 25 23  1  0
M  END
$$$$
