QGR.pdb
     RDKit          3D

 25 24  0  0  1  0  0  0  0  0999 V2000
    8.8613  -16.2096   14.0033 N   0  0  0  0  0  0  0  0  0  0  0  0
    7.6815  -15.5013   14.2792 C   0  0  0  0  0  0  0  0  0  0  0  0
    6.6148  -16.1875   14.4011 O   0  0  0  0  0  0  0  0  0  0  0  0
    7.5931  -14.0493   14.4402 C   0  0  0  0  0  0  0  0  0  0  0  0
    8.4487  -13.4445   15.4770 C   0  0  0  0  0  0  0  0  0  0  0  0
    8.2447  -13.9477   16.8760 C   0  0  2  0  0  0  0  0  0  0  0  0
    7.0152  -13.2978   17.4043 N   0  0  0  0  0  0  0  0  0  0  0  0
    9.3191  -13.7010   17.8145 C   0  0  0  0  0  0  0  0  0  0  0  0
    9.9556  -12.6370   17.8278 O   0  0  0  0  0  0  0  0  0  0  0  0
    9.6525  -14.7207   18.7648 N   0  0  0  0  0  0  0  0  0  0  0  0
   10.7819  -14.4954   19.6028 C   0  0  0  0  0  0  0  0  0  0  0  0
   11.0352  -15.5313   20.6263 C   0  0  0  0  0  0  0  0  0  0  0  0
   10.0029  -16.0966   21.1041 O   0  0  0  0  0  0  0  0  0  0  0  0
   14.5249  -23.0334   20.1711 N   0  0  0  0  0  0  0  0  0  0  0  0
   13.3913  -22.5316   19.4738 C   0  0  0  0  0  0  0  0  0  0  0  0
   12.8377  -23.3410   18.6235 N   0  0  0  0  0  0  0  0  0  0  0  0
   12.9076  -21.2340   19.6999 N   0  0  0  0  0  0  0  0  0  0  0  0
   13.5056  -20.4454   20.8218 C   0  0  0  0  0  0  0  0  0  0  0  0
   12.9999  -19.0702   20.7454 C   0  0  0  0  0  0  0  0  0  0  0  0
   13.3569  -18.0117   21.6845 C   0  0  0  0  0  0  0  0  0  0  0  0
   12.3275  -17.0639   22.1372 C   0  0  2  0  0  0  0  0  0  0  0  0
   12.2787  -15.9459   21.1132 N   0  0  0  0  0  0  0  0  0  0  0  0
   12.7335  -16.3426   23.3768 C   0  0  0  0  0  0  0  0  0  0  0  0
   13.3870  -15.2404   23.1902 O   0  0  0  0  0  0  0  0  0  0  0  0
   12.4868  -16.7179   24.6456 O   0  0  0  0  0  0  0  0  0  0  0  0
  2  3  2  0
  2  1  1  0
  4  2  1  0
  5  4  1  0
  6  5  1  0
  6  7  1  1
  8  9  2  0
  8  6  1  0
 10  8  1  0
 11 12  1  0
 11 10  1  0
 12 22  1  0
 13 12  2  0
 15 14  1  0
 16 15  2  0
 17 15  1  0
 18 17  1  0
 19 18  1  0
 20 19  1  0
 21 22  1  0
 21 20  1  6
 23 21  1  0
 24 23  2  0
 25 23  1  0
M  END
$$$$
