QGR.pdb
     RDKit          3D

 25 24  0  0  1  0  0  0  0  0999 V2000
    7.6187  -12.9966   15.3599 N   0  0  0  0  0  0  0  0  0  0  0  0
    8.1439  -14.2754   15.6015 C   0  0  0  0  0  0  0  0  0  0  0  0
    8.3371  -15.0186   14.5846 O   0  0  0  0  0  0  0  0  0  0  0  0
    8.4861  -14.8059   16.9220 C   0  0  0  0  0  0  0  0  0  0  0  0
    8.1976  -13.9395   18.0790 C   0  0  0  0  0  0  0  0  0  0  0  0
    8.9254  -14.2716   19.3488 C   0  0  2  0  0  0  0  0  0  0  0  0
    8.8308  -15.7438   19.5400 N   0  0  0  0  0  0  0  0  0  0  0  0
    8.4443  -13.6323   20.5554 C   0  0  0  0  0  0  0  0  0  0  0  0
    8.3051  -12.4034   20.6434 O   0  0  0  0  0  0  0  0  0  0  0  0
    8.1115  -14.4507   21.6839 N   0  0  0  0  0  0  0  0  0  0  0  0
    7.6326  -13.7950   22.8540 C   0  0  0  0  0  0  0  0  0  0  0  0
    7.1130  -14.6818   23.9162 C   0  0  0  0  0  0  0  0  0  0  0  0
    6.6662  -14.0969   24.9515 O   0  0  0  0  0  0  0  0  0  0  0  0
    6.0434  -22.4043   27.8357 N   0  0  0  0  0  0  0  0  0  0  0  0
    7.3255  -21.9030   28.1938 C   0  0  0  0  0  0  0  0  0  0  0  0
    7.8218  -22.3444   29.3089 N   0  0  0  0  0  0  0  0  0  0  0  0
    8.0059  -20.9841   27.3805 N   0  0  0  0  0  0  0  0  0  0  0  0
    7.1984  -20.1323   26.4530 C   0  0  0  0  0  0  0  0  0  0  0  0
    8.1016  -19.1931   25.7783 C   0  0  0  0  0  0  0  0  0  0  0  0
    7.6768  -18.2278   24.7697 C   0  0  0  0  0  0  0  0  0  0  0  0
    7.3884  -16.8413   25.1663 C   0  0  2  0  0  0  0  0  0  0  0  0
    7.0638  -16.0790   23.8956 N   0  0  0  0  0  0  0  0  0  0  0  0
    8.6037  -16.1335   25.6602 C   0  0  0  0  0  0  0  0  0  0  0  0
    9.4253  -15.7328   24.7431 O   0  0  0  0  0  0  0  0  0  0  0  0
    8.9197  -15.8727   26.9423 O   0  0  0  0  0  0  0  0  0  0  0  0
  2  3  2  0
  2  1  1  0
  4  2  1  0
  5  4  1  0
  6  5  1  0
  6  7  1  1
  8  9  2  0
  8  6  1  0
 10  8  1  0
 11 12  1  0
 11 10  1  0
 12 22  1  0
 13 12  2  0
 15 14  1  0
 16 15  2  0
 17 15  1  0
 18 17  1  0
 19 18  1  0
 20 19  1  0
 21 22  1  0
 21 20  1  6
 23 21  1  0
 24 23  2  0
 25 23  1  0
M  END
$$$$
