QGR.pdb
     RDKit          3D

 25 24  0  0  1  0  0  0  0  0999 V2000
    8.1185  -16.1195   18.7733 N   0  0  0  0  0  0  0  0  0  0  0  0
    8.2730  -17.5088   18.8984 C   0  0  0  0  0  0  0  0  0  0  0  0
    7.3698  -18.2370   18.3713 O   0  0  0  0  0  0  0  0  0  0  0  0
    9.3872  -18.1710   19.5783 C   0  0  0  0  0  0  0  0  0  0  0  0
   10.4477  -17.2994   20.1153 C   0  0  0  0  0  0  0  0  0  0  0  0
   11.5659  -17.9910   20.8387 C   0  0  2  0  0  0  0  0  0  0  0  0
   11.2853  -19.4512   20.7927 N   0  0  0  0  0  0  0  0  0  0  0  0
   11.7681  -17.6181   22.2229 C   0  0  0  0  0  0  0  0  0  0  0  0
   11.9915  -16.4483   22.5678 O   0  0  0  0  0  0  0  0  0  0  0  0
   11.7004  -18.6370   23.2286 N   0  0  0  0  0  0  0  0  0  0  0  0
   11.8265  -18.2297   24.5876 C   0  0  0  0  0  0  0  0  0  0  0  0
   11.8536  -19.3225   25.5824 C   0  0  0  0  0  0  0  0  0  0  0  0
   11.3786  -20.4339   25.1919 O   0  0  0  0  0  0  0  0  0  0  0  0
   15.8946  -21.5298   33.3652 N   0  0  0  0  0  0  0  0  0  0  0  0
   15.0133  -22.5750   32.9727 C   0  0  0  0  0  0  0  0  0  0  0  0
   15.0308  -23.6448   33.7074 N   0  0  0  0  0  0  0  0  0  0  0  0
   14.1771  -22.4463   31.8533 N   0  0  0  0  0  0  0  0  0  0  0  0
   14.2279  -21.1666   31.0801 C   0  0  0  0  0  0  0  0  0  0  0  0
   13.3968  -21.3144   29.8800 C   0  0  0  0  0  0  0  0  0  0  0  0
   13.1033  -20.2313   28.9470 C   0  0  0  0  0  0  0  0  0  0  0  0
   12.2784  -20.4985   27.7592 C   0  0  2  0  0  0  0  0  0  0  0  0
   12.3433  -19.2567   26.8905 N   0  0  0  0  0  0  0  0  0  0  0  0
   10.8271  -20.5803   28.0894 C   0  0  0  0  0  0  0  0  0  0  0  0
   10.1765  -19.4631   28.0172 O   0  0  0  0  0  0  0  0  0  0  0  0
   10.1418  -21.6831   28.4440 O   0  0  0  0  0  0  0  0  0  0  0  0
  2  3  2  0
  2  1  1  0
  4  2  1  0
  5  4  1  0
  6  5  1  0
  6  7  1  1
  8  9  2  0
  8  6  1  0
 10  8  1  0
 11 12  1  0
 11 10  1  0
 12 22  1  0
 13 12  2  0
 15 14  1  0
 16 15  2  0
 17 15  1  0
 18 17  1  0
 19 18  1  0
 20 19  1  0
 21 22  1  0
 21 20  1  1
 23 21  1  0
 24 23  2  0
 25 23  1  0
M  END
$$$$
