QGR.pdb
     RDKit          3D

 25 24  0  0  1  0  0  0  0  0999 V2000
    4.8096  -22.0924   17.2239 N   0  0  0  0  0  0  0  0  0  0  0  0
    5.1448  -20.7332   17.3222 C   0  0  0  0  0  0  0  0  0  0  0  0
    5.1106  -20.0537   16.2447 O   0  0  0  0  0  0  0  0  0  0  0  0
    5.5203  -20.0493   18.5605 C   0  0  0  0  0  0  0  0  0  0  0  0
    6.5809  -19.0307   18.4592 C   0  0  0  0  0  0  0  0  0  0  0  0
    7.9537  -19.4641   18.8834 C   0  0  2  0  0  0  0  0  0  0  0  0
    7.8298  -20.0553   20.2429 N   0  0  0  0  0  0  0  0  0  0  0  0
    8.9694  -18.4338   18.9350 C   0  0  0  0  0  0  0  0  0  0  0  0
    8.7638  -17.2803   18.5294 O   0  0  0  0  0  0  0  0  0  0  0  0
   10.2543  -18.7586   19.4804 N   0  0  0  0  0  0  0  0  0  0  0  0
   11.2112  -17.7084   19.5809 C   0  0  0  0  0  0  0  0  0  0  0  0
   11.1386  -16.8933   20.8117 C   0  0  0  0  0  0  0  0  0  0  0  0
   12.0221  -15.9877   20.9248 O   0  0  0  0  0  0  0  0  0  0  0  0
    8.5801  -11.5759   20.3552 N   0  0  0  0  0  0  0  0  0  0  0  0
    7.7976  -12.6609   19.8718 C   0  0  0  0  0  0  0  0  0  0  0  0
    7.9207  -12.9380   18.6099 N   0  0  0  0  0  0  0  0  0  0  0  0
    6.9446  -13.3835   20.7197 N   0  0  0  0  0  0  0  0  0  0  0  0
    7.3634  -13.5749   22.1430 C   0  0  0  0  0  0  0  0  0  0  0  0
    8.6406  -14.2970   22.1594 C   0  0  0  0  0  0  0  0  0  0  0  0
    8.9572  -15.3826   23.0818 C   0  0  0  0  0  0  0  0  0  0  0  0
   10.2706  -16.0401   23.0073 C   0  0  2  0  0  0  0  0  0  0  0  0
   10.2082  -17.0166   21.8482 N   0  0  0  0  0  0  0  0  0  0  0  0
   10.5152  -16.9409   24.1695 C   0  0  0  0  0  0  0  0  0  0  0  0
   10.6889  -16.3468   25.3068 O   0  0  0  0  0  0  0  0  0  0  0  0
   10.5673  -18.2857   24.1503 O   0  0  0  0  0  0  0  0  0  0  0  0
  2  3  2  0
  2  1  1  0
  4  2  1  0
  5  4  1  0
  6  5  1  0
  6  7  1  1
  8  9  2  0
  8  6  1  0
 10  8  1  0
 11 12  1  0
 11 10  1  0
 12 22  1  0
 13 12  2  0
 15 14  1  0
 16 15  2  0
 17 15  1  0
 18 17  1  0
 19 18  1  0
 20 19  1  0
 21 22  1  0
 21 20  1  1
 23 21  1  0
 24 23  2  0
 25 23  1  0
M  END
$$$$
