QGR.pdb
     RDKit          3D

 25 24  0  0  1  0  0  0  0  0999 V2000
    7.5001  -12.4046   15.3681 N   0  0  0  0  0  0  0  0  0  0  0  0
    7.9217  -13.4805   16.1645 C   0  0  0  0  0  0  0  0  0  0  0  0
    8.6109  -14.3851   15.5897 O   0  0  0  0  0  0  0  0  0  0  0  0
    7.6335  -13.6312   17.5915 C   0  0  0  0  0  0  0  0  0  0  0  0
    8.7603  -14.0234   18.4570 C   0  0  0  0  0  0  0  0  0  0  0  0
    9.0450  -15.4944   18.5424 C   0  0  2  0  0  0  0  0  0  0  0  0
    7.8599  -16.2062   17.9928 N   0  0  0  0  0  0  0  0  0  0  0  0
    9.3127  -16.0251   19.8624 C   0  0  0  0  0  0  0  0  0  0  0  0
   10.2694  -15.6387   20.5501 O   0  0  0  0  0  0  0  0  0  0  0  0
    8.4363  -17.0270   20.3938 N   0  0  0  0  0  0  0  0  0  0  0  0
    8.7758  -17.5970   21.6541 C   0  0  0  0  0  0  0  0  0  0  0  0
    8.1116  -16.9933   22.8283 C   0  0  0  0  0  0  0  0  0  0  0  0
    7.3167  -16.0346   22.5783 O   0  0  0  0  0  0  0  0  0  0  0  0
    7.7897  -21.2065   29.2807 N   0  0  0  0  0  0  0  0  0  0  0  0
    6.8073  -21.4539   28.2823 C   0  0  0  0  0  0  0  0  0  0  0  0
    5.6919  -21.9750   28.6932 N   0  0  0  0  0  0  0  0  0  0  0  0
    7.0412  -21.1481   26.9330 N   0  0  0  0  0  0  0  0  0  0  0  0
    7.9210  -19.9799   26.6182 C   0  0  0  0  0  0  0  0  0  0  0  0
    7.1080  -18.7593   26.6631 C   0  0  0  0  0  0  0  0  0  0  0  0
    7.6399  -17.4124   26.4821 C   0  0  0  0  0  0  0  0  0  0  0  0
    7.4005  -16.7001   25.2179 C   0  0  2  0  0  0  0  0  0  0  0  0
    8.2675  -17.3666   24.1668 N   0  0  0  0  0  0  0  0  0  0  0  0
    7.9422  -15.3117   25.2436 C   0  0  0  0  0  0  0  0  0  0  0  0
    9.1756  -15.1889   24.8689 O   0  0  0  0  0  0  0  0  0  0  0  0
    7.2836  -14.1958   25.6075 O   0  0  0  0  0  0  0  0  0  0  0  0
  2  3  2  0
  2  1  1  0
  4  2  1  0
  5  4  1  0
  6  5  1  0
  6  7  1  1
  8  9  2  0
  8  6  1  0
 10  8  1  0
 11 12  1  0
 11 10  1  0
 12 22  1  0
 13 12  2  0
 15 14  1  0
 16 15  2  0
 17 15  1  0
 18 17  1  0
 19 18  1  0
 20 19  1  0
 21 22  1  0
 21 20  1  1
 23 21  1  0
 24 23  2  0
 25 23  1  0
M  END
$$$$
