WNQ.pdb
     RDKit          3D

 32 33  0  0  1  0  0  0  0  0999 V2000
    6.1779  -17.2609   23.7846 N   0  0  0  0  0  0  0  0  0  0  0  0
    7.0062  -16.1008   23.5298 C   0  0  1  0  0  0  0  0  0  0  0  0
    7.7796  -15.7915   24.7672 C   0  0  0  0  0  0  0  0  0  0  0  0
    6.9664  -14.9470   25.6965 C   0  0  0  0  0  0  0  0  0  0  0  0
    6.1217  -15.3256   26.7180 C   0  0  0  0  0  0  0  0  0  0  0  0
    5.5794  -14.2363   27.3127 N   0  0  0  0  0  0  0  0  0  0  0  0
    6.0503  -13.1409   26.7024 C   0  0  0  0  0  0  0  0  0  0  0  0
    5.8258  -11.8010   26.9087 C   0  0  0  0  0  0  0  0  0  0  0  0
    6.4436  -10.8353   26.1310 C   0  0  0  0  0  0  0  0  0  0  0  0
    7.2930  -11.2581   25.1409 C   0  0  0  0  0  0  0  0  0  0  0  0
    7.5190  -12.5992   24.9328 C   0  0  0  0  0  0  0  0  0  0  0  0
    6.9073  -13.5475   25.7026 C   0  0  0  0  0  0  0  0  0  0  0  0
    7.7722  -16.2748   22.3161 C   0  0  0  0  0  0  0  0  0  0  0  0
    8.3426  -17.3788   22.1042 O   0  0  0  0  0  0  0  0  0  0  0  0
    6.7657  -13.0144   18.7665 N   0  0  0  0  0  0  0  0  0  0  0  0
    7.7592  -13.9881   18.6588 C   0  0  0  0  0  0  0  0  0  0  0  0
    7.5773  -14.9102   17.7980 O   0  0  0  0  0  0  0  0  0  0  0  0
    9.0059  -14.0712   19.4348 C   0  0  0  0  0  0  0  0  0  0  0  0
    9.0510  -15.2212   20.3951 C   0  0  2  0  0  0  0  0  0  0  0  0
    7.9577  -15.3010   21.2989 N   0  0  0  0  0  0  0  0  0  0  0  0
   10.3801  -15.2931   21.0679 C   0  0  0  0  0  0  0  0  0  0  0  0
   10.6576  -14.5902   22.0734 O   0  0  0  0  0  0  0  0  0  0  0  0
   11.2724  -19.2716   24.6215 N   0  0  0  0  0  0  0  0  0  0  0  0
   12.6326  -18.9105   24.5205 C   0  0  0  0  0  0  0  0  0  0  0  0
   13.4328  -19.3249   25.3882 O   0  0  0  0  0  0  0  0  0  0  0  0
   13.0783  -18.0595   23.4068 C   0  0  0  0  0  0  0  0  0  0  0  0
   11.9764  -17.4276   22.6092 C   0  0  0  0  0  0  0  0  0  0  0  0
   12.5050  -16.6043   21.4976 C   0  0  2  0  0  0  0  0  0  0  0  0
   11.4098  -16.1615   20.6105 N   0  0  0  0  0  0  0  0  0  0  0  0
   13.3769  -17.4192   20.6194 C   0  0  0  0  0  0  0  0  0  0  0  0
   13.0281  -17.8349   19.4751 O   0  0  0  0  0  0  0  0  0  0  0  0
   14.6487  -17.7480   21.0627 O   0  0  0  0  0  0  0  0  0  0  0  0
  2  1  1  1
  2 13  1  0
  2  3  1  0
  3  4  1  0
  4 12  1  0
  4  5  2  0
  5  6  1  0
  7  8  2  0
  7  6  1  0
  9  8  1  0
 10  9  2  0
 11 10  1  0
 11 12  2  0
 12  7  1  0
 13 20  1  0
 13 14  2  0
 15 16  1  0
 16 18  1  0
 17 16  2  0
 19 18  1  1
 20 19  1  0
 21 22  2  0
 21 19  1  0
 23 24  1  0
 24 26  1  0
 25 24  2  0
 27 26  1  0
 28 27  1  1
 28 29  1  0
 29 21  1  0
 30 28  1  0
 30 32  1  0
 31 30  2  0
M  END
$$$$
