WNQ.pdb
     RDKit          3D

 32 33  0  0  1  0  0  0  0  0999 V2000
    6.5621  -16.8308   23.4590 N   0  0  0  0  0  0  0  0  0  0  0  0
    7.8740  -16.2264   23.5625 C   0  0  1  0  0  0  0  0  0  0  0  0
    8.2001  -16.0498   25.0073 C   0  0  0  0  0  0  0  0  0  0  0  0
    7.2690  -15.0635   25.6383 C   0  0  0  0  0  0  0  0  0  0  0  0
    6.1780  -15.2797   26.4528 C   0  0  0  0  0  0  0  0  0  0  0  0
    5.6093  -14.1022   26.8056 N   0  0  0  0  0  0  0  0  0  0  0  0
    6.3050  -13.1080   26.2384 C   0  0  0  0  0  0  0  0  0  0  0  0
    6.1572  -11.7422   26.2718 C   0  0  0  0  0  0  0  0  0  0  0  0
    7.0229  -10.9035   25.5891 C   0  0  0  0  0  0  0  0  0  0  0  0
    8.0405  -11.4799   24.8729 C   0  0  0  0  0  0  0  0  0  0  0  0
    8.1901  -12.8472   24.8382 C   0  0  0  0  0  0  0  0  0  0  0  0
    7.3336  -13.6697   25.5133 C   0  0  0  0  0  0  0  0  0  0  0  0
    8.8374  -16.9539   22.7672 C   0  0  0  0  0  0  0  0  0  0  0  0
    9.0143  -18.1819   22.9905 O   0  0  0  0  0  0  0  0  0  0  0  0
   13.8595  -16.1929   19.1840 N   0  0  0  0  0  0  0  0  0  0  0  0
   12.6901  -16.8546   19.5602 C   0  0  0  0  0  0  0  0  0  0  0  0
   12.6865  -18.1256   19.4660 O   0  0  0  0  0  0  0  0  0  0  0  0
   11.4481  -16.2443   20.0586 C   0  0  0  0  0  0  0  0  0  0  0  0
   10.9006  -16.8961   21.2923 C   0  0  2  0  0  0  0  0  0  0  0  0
    9.6349  -16.4152   21.7226 N   0  0  0  0  0  0  0  0  0  0  0  0
   11.9249  -16.9151   22.3762 C   0  0  0  0  0  0  0  0  0  0  0  0
   12.4533  -15.8605   22.8130 O   0  0  0  0  0  0  0  0  0  0  0  0
   13.1131  -20.8076   28.2575 N   0  0  0  0  0  0  0  0  0  0  0  0
   12.4883  -19.6924   27.6600 C   0  0  0  0  0  0  0  0  0  0  0  0
   11.3649  -19.3347   28.0780 O   0  0  0  0  0  0  0  0  0  0  0  0
   13.1645  -18.9801   26.5654 C   0  0  0  0  0  0  0  0  0  0  0  0
   12.3783  -18.8775   25.2922 C   0  0  0  0  0  0  0  0  0  0  0  0
   13.1203  -18.1374   24.2460 C   0  0  2  0  0  0  0  0  0  0  0  0
   12.3625  -18.1275   22.9779 N   0  0  0  0  0  0  0  0  0  0  0  0
   14.3808  -18.8402   23.9105 C   0  0  0  0  0  0  0  0  0  0  0  0
   14.5226  -19.5787   22.8915 O   0  0  0  0  0  0  0  0  0  0  0  0
   15.4738  -18.6854   24.7492 O   0  0  0  0  0  0  0  0  0  0  0  0
  2  1  1  1
  2 13  1  0
  2  3  1  0
  3  4  1  0
  4 12  1  0
  4  5  2  0
  5  6  1  0
  7  8  2  0
  7  6  1  0
  9  8  1  0
 10  9  2  0
 11 10  1  0
 11 12  2  0
 12  7  1  0
 13 20  1  0
 13 14  2  0
 15 16  1  0
 16 18  1  0
 17 16  2  0
 19 18  1  6
 20 19  1  0
 21 22  2  0
 21 19  1  0
 23 24  1  0
 24 26  1  0
 25 24  2  0
 27 26  1  0
 28 27  1  1
 28 29  1  0
 29 21  1  0
 30 28  1  0
 30 32  1  0
 31 30  2  0
M  END
$$$$
