WNQ.pdb
     RDKit          3D

 32 33  0  0  1  0  0  0  0  0999 V2000
    9.0141  -15.7534   23.1328 N   0  0  0  0  0  0  0  0  0  0  0  0
    9.6387  -15.8038   24.4383 C   0  0  1  0  0  0  0  0  0  0  0  0
    8.5703  -15.7297   25.4764 C   0  0  0  0  0  0  0  0  0  0  0  0
    7.5917  -14.6477   25.1455 C   0  0  0  0  0  0  0  0  0  0  0  0
    6.7888  -14.4967   24.0350 C   0  0  0  0  0  0  0  0  0  0  0  0
    6.0481  -13.3674   24.1359 N   0  0  0  0  0  0  0  0  0  0  0  0
    6.3463  -12.7662   25.2951 C   0  0  0  0  0  0  0  0  0  0  0  0
    5.8885  -11.6098   25.8796 C   0  0  0  0  0  0  0  0  0  0  0  0
    6.3582  -11.1866   27.1122 C   0  0  0  0  0  0  0  0  0  0  0  0
    7.3011  -11.9611   27.7379 C   0  0  0  0  0  0  0  0  0  0  0  0
    7.7608  -13.1192   27.1544 C   0  0  0  0  0  0  0  0  0  0  0  0
    7.2943  -13.5321   25.9387 C   0  0  0  0  0  0  0  0  0  0  0  0
   10.5495  -16.9230   24.5275 C   0  0  0  0  0  0  0  0  0  0  0  0
   11.1920  -17.1067   25.5964 O   0  0  0  0  0  0  0  0  0  0  0  0
   12.6569  -22.3500   22.4108 N   0  0  0  0  0  0  0  0  0  0  0  0
   12.3327  -21.3088   23.2812 C   0  0  0  0  0  0  0  0  0  0  0  0
   12.9471  -21.2725   24.3972 O   0  0  0  0  0  0  0  0  0  0  0  0
   11.3514  -20.2370   23.0536 C   0  0  0  0  0  0  0  0  0  0  0  0
   11.8026  -18.8871   23.5238 C   0  0  2  0  0  0  0  0  0  0  0  0
   10.8076  -17.8732   23.5038 N   0  0  0  0  0  0  0  0  0  0  0  0
   13.0670  -18.4876   22.8411 C   0  0  0  0  0  0  0  0  0  0  0  0
   14.0488  -19.2680   22.7459 O   0  0  0  0  0  0  0  0  0  0  0  0
   13.9266  -13.8071   18.5473 N   0  0  0  0  0  0  0  0  0  0  0  0
   15.2207  -14.3228   18.7718 C   0  0  0  0  0  0  0  0  0  0  0  0
   16.1686  -13.8981   18.0748 O   0  0  0  0  0  0  0  0  0  0  0  0
   15.4267  -15.3425   19.8114 C   0  0  0  0  0  0  0  0  0  0  0  0
   14.1930  -15.7384   20.5671 C   0  0  0  0  0  0  0  0  0  0  0  0
   14.4645  -16.8311   21.5289 C   0  0  2  0  0  0  0  0  0  0  0  0
   13.2342  -17.2008   22.2585 N   0  0  0  0  0  0  0  0  0  0  0  0
   15.3906  -16.3688   22.5892 C   0  0  0  0  0  0  0  0  0  0  0  0
   15.0061  -15.8819   23.6932 O   0  0  0  0  0  0  0  0  0  0  0  0
   16.7561  -16.4737   22.3736 O   0  0  0  0  0  0  0  0  0  0  0  0
  2  1  1  6
  2 13  1  0
  2  3  1  0
  3  4  1  0
  4 12  1  0
  4  5  2  0
  5  6  1  0
  7  8  2  0
  7  6  1  0
  9  8  1  0
 10  9  2  0
 11 10  1  0
 11 12  2  0
 12  7  1  0
 13 20  1  0
 13 14  2  0
 15 16  1  0
 16 18  1  0
 17 16  2  0
 19 18  1  6
 20 19  1  0
 21 22  2  0
 21 19  1  0
 23 24  1  0
 24 26  1  0
 25 24  2  0
 27 26  1  0
 28 27  1  6
 28 29  1  0
 29 21  1  0
 30 28  1  0
 30 32  1  0
 31 30  2  0
M  END
$$$$
