WNQ.pdb
     RDKit          3D

 32 33  0  0  1  0  0  0  0  0999 V2000
    6.1648  -17.8287   23.3825 N   0  0  0  0  0  0  0  0  0  0  0  0
    6.9776  -16.6323   23.3129 C   0  0  1  0  0  0  0  0  0  0  0  0
    7.5993  -16.4051   24.6496 C   0  0  0  0  0  0  0  0  0  0  0  0
    6.8050  -15.4102   25.4351 C   0  0  0  0  0  0  0  0  0  0  0  0
    5.6588  -15.5900   26.1797 C   0  0  0  0  0  0  0  0  0  0  0  0
    5.2640  -14.4181   26.7321 N   0  0  0  0  0  0  0  0  0  0  0  0
    6.1293  -13.4634   26.3662 C   0  0  0  0  0  0  0  0  0  0  0  0
    6.1932  -12.1194   26.6454 C   0  0  0  0  0  0  0  0  0  0  0  0
    7.2075  -11.3225   26.1403 C   0  0  0  0  0  0  0  0  0  0  0  0
    8.1543  -11.9181   25.3470 C   0  0  0  0  0  0  0  0  0  0  0  0
    8.0921  -13.2636   25.0663 C   0  0  0  0  0  0  0  0  0  0  0  0
    7.0898  -14.0450   25.5669 C   0  0  0  0  0  0  0  0  0  0  0  0
    7.8779  -16.6895   22.1832 C   0  0  0  0  0  0  0  0  0  0  0  0
    8.3654  -17.8014   21.8436 O   0  0  0  0  0  0  0  0  0  0  0  0
    7.1778  -15.4367   18.3708 N   0  0  0  0  0  0  0  0  0  0  0  0
    8.1292  -14.4286   18.5304 C   0  0  0  0  0  0  0  0  0  0  0  0
    7.9947  -13.3848   17.8117 O   0  0  0  0  0  0  0  0  0  0  0  0
    9.2817  -14.4349   19.4441 C   0  0  0  0  0  0  0  0  0  0  0  0
    9.3027  -15.5964   20.3914 C   0  0  2  0  0  0  0  0  0  0  0  0
    8.2871  -15.5884   21.3848 N   0  0  0  0  0  0  0  0  0  0  0  0
   10.6718  -15.7969   20.9478 C   0  0  0  0  0  0  0  0  0  0  0  0
   11.6873  -15.8727   20.2096 O   0  0  0  0  0  0  0  0  0  0  0  0
   10.3491  -18.0423   27.0672 N   0  0  0  0  0  0  0  0  0  0  0  0
   11.2153  -17.1359   26.4197 C   0  0  0  0  0  0  0  0  0  0  0  0
   11.9535  -16.4048   27.1163 O   0  0  0  0  0  0  0  0  0  0  0  0
   11.2311  -17.0686   24.9507 C   0  0  0  0  0  0  0  0  0  0  0  0
   12.2424  -16.1264   24.3683 C   0  0  0  0  0  0  0  0  0  0  0  0
   12.2551  -16.1796   22.8885 C   0  0  2  0  0  0  0  0  0  0  0  0
   10.9070  -15.9136   22.3459 N   0  0  0  0  0  0  0  0  0  0  0  0
   12.5701  -17.5505   22.4227 C   0  0  0  0  0  0  0  0  0  0  0  0
   11.7242  -18.3169   21.8743 O   0  0  0  0  0  0  0  0  0  0  0  0
   13.8603  -18.0304   22.5877 O   0  0  0  0  0  0  0  0  0  0  0  0
  2  1  1  1
  2 13  1  0
  2  3  1  0
  3  4  1  0
  4 12  1  0
  4  5  2  0
  5  6  1  0
  7  8  2  0
  7  6  1  0
  9  8  1  0
 10  9  2  0
 11 10  1  0
 11 12  2  0
 12  7  1  0
 13 20  1  0
 13 14  2  0
 15 16  1  0
 16 18  1  0
 17 16  2  0
 19 18  1  1
 20 19  1  0
 21 22  2  0
 21 19  1  0
 23 24  1  0
 24 26  1  0
 25 24  2  0
 27 26  1  0
 28 27  1  1
 28 29  1  0
 29 21  1  0
 30 28  1  0
 30 32  1  0
 31 30  2  0
M  END
$$$$
