WNQ.pdb
     RDKit          3D

 32 33  0  0  1  0  0  0  0  0999 V2000
    6.9890  -17.7802   23.9515 N   0  0  0  0  0  0  0  0  0  0  0  0
    7.9357  -16.7911   23.4798 C   0  0  1  0  0  0  0  0  0  0  0  0
    8.4705  -16.0494   24.6582 C   0  0  0  0  0  0  0  0  0  0  0  0
    7.3801  -15.2769   25.3307 C   0  0  0  0  0  0  0  0  0  0  0  0
    6.2910  -15.7308   26.0437 C   0  0  0  0  0  0  0  0  0  0  0  0
    5.5460  -14.6893   26.4848 N   0  0  0  0  0  0  0  0  0  0  0  0
    6.1227  -13.5516   26.0761 C   0  0  0  0  0  0  0  0  0  0  0  0
    5.7835  -12.2311   26.2484 C   0  0  0  0  0  0  0  0  0  0  0  0
    6.5560  -11.2102   25.7194 C   0  0  0  0  0  0  0  0  0  0  0  0
    7.6787  -11.5577   25.0128 C   0  0  0  0  0  0  0  0  0  0  0  0
    8.0201  -12.8792   24.8390 C   0  0  0  0  0  0  0  0  0  0  0  0
    7.2548  -13.8821   25.3629 C   0  0  0  0  0  0  0  0  0  0  0  0
    8.9108  -17.3943   22.5993 C   0  0  0  0  0  0  0  0  0  0  0  0
    9.4095  -18.5098   22.9094 O   0  0  0  0  0  0  0  0  0  0  0  0
   10.5044  -17.8103   17.9973 N   0  0  0  0  0  0  0  0  0  0  0  0
   10.3026  -16.5383   18.5338 C   0  0  0  0  0  0  0  0  0  0  0  0
    9.4508  -15.7908   17.9507 O   0  0  0  0  0  0  0  0  0  0  0  0
   10.9690  -15.9565   19.7089 C   0  0  0  0  0  0  0  0  0  0  0  0
   10.7425  -16.7201   20.9787 C   0  0  2  0  0  0  0  0  0  0  0  0
    9.3847  -16.8463   21.3776 N   0  0  0  0  0  0  0  0  0  0  0  0
   11.6322  -16.2136   22.0632 C   0  0  0  0  0  0  0  0  0  0  0  0
   11.1838  -15.5767   23.0508 O   0  0  0  0  0  0  0  0  0  0  0  0
   12.5582  -19.3227   26.1764 N   0  0  0  0  0  0  0  0  0  0  0  0
   13.7393  -18.5899   26.4187 C   0  0  0  0  0  0  0  0  0  0  0  0
   14.3843  -18.8145   27.4668 O   0  0  0  0  0  0  0  0  0  0  0  0
   14.1838  -17.5835   25.4426 C   0  0  0  0  0  0  0  0  0  0  0  0
   13.2957  -17.4244   24.2444 C   0  0  0  0  0  0  0  0  0  0  0  0
   13.8415  -16.4395   23.2826 C   0  0  2  0  0  0  0  0  0  0  0  0
   13.0391  -16.4225   22.0423 N   0  0  0  0  0  0  0  0  0  0  0  0
   15.1936  -16.8480   22.8350 C   0  0  0  0  0  0  0  0  0  0  0  0
   15.4035  -17.6405   21.8698 O   0  0  0  0  0  0  0  0  0  0  0  0
   16.2982  -16.3379   23.4997 O   0  0  0  0  0  0  0  0  0  0  0  0
  2  1  1  1
  2 13  1  0
  2  3  1  0
  3  4  1  0
  4 12  1  0
  4  5  2  0
  5  6  1  0
  7  8  2  0
  7  6  1  0
  9  8  1  0
 10  9  2  0
 11 10  1  0
 11 12  2  0
 12  7  1  0
 13 20  1  0
 13 14  2  0
 15 16  1  0
 16 18  1  0
 17 16  2  0
 19 18  1  6
 20 19  1  0
 21 22  2  0
 21 19  1  0
 23 24  1  0
 24 26  1  0
 25 24  2  0
 27 26  1  0
 28 27  1  1
 28 29  1  0
 29 21  1  0
 30 28  1  0
 30 32  1  0
 31 30  2  0
M  END
$$$$
