WNQ.pdb
     RDKit          3D

 32 33  0  0  1  0  0  0  0  0999 V2000
    7.0172  -16.9841   23.5225 N   0  0  0  0  0  0  0  0  0  0  0  0
    7.8590  -15.9176   23.0212 C   0  0  1  0  0  0  0  0  0  0  0  0
    8.6039  -15.3245   24.1693 C   0  0  0  0  0  0  0  0  0  0  0  0
    7.6553  -14.8883   25.2407 C   0  0  0  0  0  0  0  0  0  0  0  0
    6.8022  -15.6400   26.0202 C   0  0  0  0  0  0  0  0  0  0  0  0
    6.1143  -14.8439   26.8730 N   0  0  0  0  0  0  0  0  0  0  0  0
    6.4966  -13.5760   26.6721 C   0  0  0  0  0  0  0  0  0  0  0  0
    6.1181  -12.3935   27.2610 C   0  0  0  0  0  0  0  0  0  0  0  0
    6.6694  -11.1830   26.8740 C   0  0  0  0  0  0  0  0  0  0  0  0
    7.6118  -11.1984   25.8779 C   0  0  0  0  0  0  0  0  0  0  0  0
    7.9921  -12.3813   25.2870 C   0  0  0  0  0  0  0  0  0  0  0  0
    7.4453  -13.5723   25.6724 C   0  0  0  0  0  0  0  0  0  0  0  0
    8.6531  -16.3745   21.9029 C   0  0  0  0  0  0  0  0  0  0  0  0
    8.4902  -17.5489   21.4746 O   0  0  0  0  0  0  0  0  0  0  0  0
    8.2065  -12.4738   17.8920 N   0  0  0  0  0  0  0  0  0  0  0  0
    8.0890  -13.8086   18.2807 C   0  0  0  0  0  0  0  0  0  0  0  0
    7.8536  -14.6616   17.3634 O   0  0  0  0  0  0  0  0  0  0  0  0
    8.2073  -14.3481   19.6439 C   0  0  0  0  0  0  0  0  0  0  0  0
    9.5023  -15.0545   19.9099 C   0  0  2  0  0  0  0  0  0  0  0  0
    9.6325  -15.6154   21.2088 N   0  0  0  0  0  0  0  0  0  0  0  0
   10.6589  -14.1987   19.5173 C   0  0  0  0  0  0  0  0  0  0  0  0
   10.7610  -13.7025   18.3661 O   0  0  0  0  0  0  0  0  0  0  0  0
   11.9502  -19.1363   22.7731 N   0  0  0  0  0  0  0  0  0  0  0  0
   12.7676  -17.9862   22.7665 C   0  0  0  0  0  0  0  0  0  0  0  0
   13.2734  -17.5995   23.8433 O   0  0  0  0  0  0  0  0  0  0  0  0
   13.0051  -17.2702   21.5040 C   0  0  0  0  0  0  0  0  0  0  0  0
   12.0212  -16.1807   21.1962 C   0  0  0  0  0  0  0  0  0  0  0  0
   12.6985  -14.9130   20.8398 C   0  0  2  0  0  0  0  0  0  0  0  0
   11.7126  -13.8946   20.4232 N   0  0  0  0  0  0  0  0  0  0  0  0
   13.5534  -15.1015   19.6443 C   0  0  0  0  0  0  0  0  0  0  0  0
   14.8189  -15.0645   19.6739 O   0  0  0  0  0  0  0  0  0  0  0  0
   12.9455  -15.3359   18.4205 O   0  0  0  0  0  0  0  0  0  0  0  0
  2  1  1  1
  2 13  1  0
  2  3  1  0
  3  4  1  0
  4 12  1  0
  4  5  2  0
  5  6  1  0
  7  8  2  0
  7  6  1  0
  9  8  1  0
 10  9  2  0
 11 10  1  0
 11 12  2  0
 12  7  1  0
 13 20  1  0
 13 14  2  0
 15 16  1  0
 16 18  1  0
 17 16  2  0
 19 18  1  1
 20 19  1  0
 21 22  2  0
 21 19  1  0
 23 24  1  0
 24 26  1  0
 25 24  2  0
 27 26  1  0
 28 27  1  6
 28 29  1  0
 29 21  1  0
 30 28  1  0
 30 32  1  0
 31 30  2  0
M  END
$$$$
