WNQ.pdb
     RDKit          3D

 32 33  0  0  1  0  0  0  0  0999 V2000
    5.9772  -17.3833   23.2865 N   0  0  0  0  0  0  0  0  0  0  0  0
    6.8858  -16.2604   23.1837 C   0  0  1  0  0  0  0  0  0  0  0  0
    7.6153  -16.1229   24.4774 C   0  0  0  0  0  0  0  0  0  0  0  0
    6.8366  -15.2728   25.4308 C   0  0  0  0  0  0  0  0  0  0  0  0
    5.8511  -15.6308   26.3260 C   0  0  0  0  0  0  0  0  0  0  0  0
    5.4059  -14.5437   27.0001 N   0  0  0  0  0  0  0  0  0  0  0  0
    6.0796  -13.4702   26.5669 C   0  0  0  0  0  0  0  0  0  0  0  0
    6.0202  -12.1417   26.9132 C   0  0  0  0  0  0  0  0  0  0  0  0
    6.8376  -11.1993   26.3110 C   0  0  0  0  0  0  0  0  0  0  0  0
    7.7154  -11.6335   25.3511 C   0  0  0  0  0  0  0  0  0  0  0  0
    7.7764  -12.9632   25.0029 C   0  0  0  0  0  0  0  0  0  0  0  0
    6.9681  -13.8885   25.6000 C   0  0  0  0  0  0  0  0  0  0  0  0
    7.6979  -16.3660   21.9924 C   0  0  0  0  0  0  0  0  0  0  0  0
    7.9235  -17.5058   21.5033 O   0  0  0  0  0  0  0  0  0  0  0  0
    7.5816  -12.4109   19.0197 N   0  0  0  0  0  0  0  0  0  0  0  0
    8.1542  -13.6697   18.8342 C   0  0  0  0  0  0  0  0  0  0  0  0
    7.5217  -14.4915   18.0933 O   0  0  0  0  0  0  0  0  0  0  0  0
    9.4186  -14.1604   19.4032 C   0  0  0  0  0  0  0  0  0  0  0  0
    9.2686  -15.3803   20.2611 C   0  0  2  0  0  0  0  0  0  0  0  0
    8.2904  -15.2848   21.2871 N   0  0  0  0  0  0  0  0  0  0  0  0
   10.5978  -15.8442   20.7534 C   0  0  0  0  0  0  0  0  0  0  0  0
   11.6338  -15.7729   20.0439 O   0  0  0  0  0  0  0  0  0  0  0  0
   11.6272  -17.8485   26.6893 N   0  0  0  0  0  0  0  0  0  0  0  0
   11.4767  -16.4958   26.3174 C   0  0  0  0  0  0  0  0  0  0  0  0
   11.2257  -15.6505   27.2048 O   0  0  0  0  0  0  0  0  0  0  0  0
   11.6153  -16.1104   24.9048 C   0  0  0  0  0  0  0  0  0  0  0  0
   12.0068  -17.2226   23.9778 C   0  0  0  0  0  0  0  0  0  0  0  0
   12.1026  -16.7603   22.5743 C   0  0  2  0  0  0  0  0  0  0  0  0
   10.7693  -16.3936   22.0543 N   0  0  0  0  0  0  0  0  0  0  0  0
   12.5440  -17.8673   21.6939 C   0  0  0  0  0  0  0  0  0  0  0  0
   11.8073  -18.8469   21.3754 O   0  0  0  0  0  0  0  0  0  0  0  0
   13.8318  -17.8381   21.1811 O   0  0  0  0  0  0  0  0  0  0  0  0
  2  1  1  1
  2 13  1  0
  2  3  1  0
  3  4  1  0
  4 12  1  0
  4  5  2  0
  5  6  1  0
  7  8  2  0
  7  6  1  0
  9  8  1  0
 10  9  2  0
 11 10  1  0
 11 12  2  0
 12  7  1  0
 13 20  1  0
 13 14  2  0
 15 16  1  0
 16 18  1  0
 17 16  2  0
 19 18  1  1
 20 19  1  0
 21 22  2  0
 21 19  1  0
 23 24  1  0
 24 26  1  0
 25 24  2  0
 27 26  1  0
 28 27  1  1
 28 29  1  0
 29 21  1  0
 30 28  1  0
 30 32  1  0
 31 30  2  0
M  END
$$$$
