WNQ.pdb
     RDKit          3D

 32 33  0  0  1  0  0  0  0  0999 V2000
    6.2300  -17.3811   23.9091 N   0  0  0  0  0  0  0  0  0  0  0  0
    7.0133  -16.1931   23.6405 C   0  0  1  0  0  0  0  0  0  0  0  0
    7.7227  -15.8019   24.8930 C   0  0  0  0  0  0  0  0  0  0  0  0
    6.8812  -14.8663   25.7020 C   0  0  0  0  0  0  0  0  0  0  0  0
    5.7786  -15.1294   26.4865 C   0  0  0  0  0  0  0  0  0  0  0  0
    5.3135  -13.9881   27.0480 N   0  0  0  0  0  0  0  0  0  0  0  0
    6.0892  -12.9717   26.6488 C   0  0  0  0  0  0  0  0  0  0  0  0
    6.0584  -11.6251   26.9206 C   0  0  0  0  0  0  0  0  0  0  0  0
    6.9899  -10.7554   26.3777 C   0  0  0  0  0  0  0  0  0  0  0  0
    7.9522  -11.2811   25.5542 C   0  0  0  0  0  0  0  0  0  0  0  0
    7.9848  -12.6291   25.2807 C   0  0  0  0  0  0  0  0  0  0  0  0
    7.0638  -13.4824   25.8188 C   0  0  0  0  0  0  0  0  0  0  0  0
    7.8332  -16.3752   22.4638 C   0  0  0  0  0  0  0  0  0  0  0  0
    8.3796  -17.4936   22.2646 O   0  0  0  0  0  0  0  0  0  0  0  0
    7.1279  -12.9778   18.8283 N   0  0  0  0  0  0  0  0  0  0  0  0
    7.9675  -14.0916   18.8607 C   0  0  0  0  0  0  0  0  0  0  0  0
    7.6165  -15.1033   18.1696 O   0  0  0  0  0  0  0  0  0  0  0  0
    9.2254  -14.2314   19.6101 C   0  0  0  0  0  0  0  0  0  0  0  0
    9.2224  -15.3546   20.6026 C   0  0  2  0  0  0  0  0  0  0  0  0
    8.0988  -15.3946   21.4712 N   0  0  0  0  0  0  0  0  0  0  0  0
   10.5273  -15.4253   21.3212 C   0  0  0  0  0  0  0  0  0  0  0  0
   10.9567  -14.4715   22.0196 O   0  0  0  0  0  0  0  0  0  0  0  0
   12.1664  -19.3518   25.7359 N   0  0  0  0  0  0  0  0  0  0  0  0
   11.4594  -18.2215   25.2737 C   0  0  0  0  0  0  0  0  0  0  0  0
   10.8246  -17.5281   26.0990 O   0  0  0  0  0  0  0  0  0  0  0  0
   11.4818  -17.8852   23.8422 C   0  0  0  0  0  0  0  0  0  0  0  0
   12.3470  -16.7157   23.4772 C   0  0  0  0  0  0  0  0  0  0  0  0
   12.6212  -16.6674   22.0228 C   0  0  2  0  0  0  0  0  0  0  0  0
   11.3607  -16.5764   21.2576 N   0  0  0  0  0  0  0  0  0  0  0  0
   13.2308  -17.9393   21.5687 C   0  0  0  0  0  0  0  0  0  0  0  0
   14.3839  -18.3288   21.9186 O   0  0  0  0  0  0  0  0  0  0  0  0
   12.5067  -18.7586   20.7164 O   0  0  0  0  0  0  0  0  0  0  0  0
  2  1  1  1
  2 13  1  0
  2  3  1  0
  3  4  1  0
  4 12  1  0
  4  5  2  0
  5  6  1  0
  7  8  2  0
  7  6  1  0
  9  8  1  0
 10  9  2  0
 11 10  1  0
 11 12  2  0
 12  7  1  0
 13 20  1  0
 13 14  2  0
 15 16  1  0
 16 18  1  0
 17 16  2  0
 19 18  1  1
 20 19  1  0
 21 22  2  0
 21 19  1  0
 23 24  1  0
 24 26  1  0
 25 24  2  0
 27 26  1  0
 28 27  1  1
 28 29  1  0
 29 21  1  0
 30 28  1  0
 30 32  1  0
 31 30  2  0
M  END
$$$$
