WNQ.pdb
     RDKit          3D

 32 33  0  0  1  0  0  0  0  0999 V2000
    6.9654  -17.3034   23.5400 N   0  0  0  0  0  0  0  0  0  0  0  0
    8.0891  -16.3901   23.5639 C   0  0  1  0  0  0  0  0  0  0  0  0
    8.4139  -16.0780   24.9858 C   0  0  0  0  0  0  0  0  0  0  0  0
    7.3223  -15.2653   25.6070 C   0  0  0  0  0  0  0  0  0  0  0  0
    6.1569  -15.6773   26.2173 C   0  0  0  0  0  0  0  0  0  0  0  0
    5.4426  -14.6090   26.6448 N   0  0  0  0  0  0  0  0  0  0  0  0
    6.1148  -13.4946   26.3279 C   0  0  0  0  0  0  0  0  0  0  0  0
    5.8414  -12.1630   26.5294 C   0  0  0  0  0  0  0  0  0  0  0  0
    6.7108  -11.1727   26.1024 C   0  0  0  0  0  0  0  0  0  0  0  0
    7.8621  -11.5623   25.4674 C   0  0  0  0  0  0  0  0  0  0  0  0
    8.1377  -12.8950   25.2646 C   0  0  0  0  0  0  0  0  0  0  0  0
    7.2769  -13.8676   25.6878 C   0  0  0  0  0  0  0  0  0  0  0  0
    9.1731  -16.8902   22.7485 C   0  0  0  0  0  0  0  0  0  0  0  0
    9.3623  -18.1344   22.6763 O   0  0  0  0  0  0  0  0  0  0  0  0
   14.0335  -15.6420   19.1177 N   0  0  0  0  0  0  0  0  0  0  0  0
   12.9519  -16.4014   19.5654 C   0  0  0  0  0  0  0  0  0  0  0  0
   13.0560  -17.6684   19.4763 O   0  0  0  0  0  0  0  0  0  0  0  0
   11.6921  -15.8992   20.1346 C   0  0  0  0  0  0  0  0  0  0  0  0
   11.3169  -16.5337   21.4398 C   0  0  2  0  0  0  0  0  0  0  0  0
   10.0808  -16.1024   21.9916 N   0  0  0  0  0  0  0  0  0  0  0  0
   12.4516  -16.4627   22.4049 C   0  0  0  0  0  0  0  0  0  0  0  0
   12.6984  -15.4234   23.0689 O   0  0  0  0  0  0  0  0  0  0  0  0
   10.4102  -18.1688   26.7537 N   0  0  0  0  0  0  0  0  0  0  0  0
   11.6830  -18.7395   26.9660 C   0  0  0  0  0  0  0  0  0  0  0  0
   12.1669  -18.7226   28.1195 O   0  0  0  0  0  0  0  0  0  0  0  0
   12.4100  -19.3364   25.8355 C   0  0  0  0  0  0  0  0  0  0  0  0
   12.2259  -18.6377   24.5211 C   0  0  0  0  0  0  0  0  0  0  0  0
   13.5114  -18.1442   23.9761 C   0  0  2  0  0  0  0  0  0  0  0  0
   13.3194  -17.5672   22.6298 N   0  0  0  0  0  0  0  0  0  0  0  0
   14.4477  -19.2717   23.7581 C   0  0  0  0  0  0  0  0  0  0  0  0
   14.4506  -19.9896   22.7149 O   0  0  0  0  0  0  0  0  0  0  0  0
   15.3796  -19.5639   24.7421 O   0  0  0  0  0  0  0  0  0  0  0  0
  2  1  1  1
  2 13  1  0
  2  3  1  0
  3  4  1  0
  4 12  1  0
  4  5  2  0
  5  6  1  0
  7  8  2  0
  7  6  1  0
  9  8  1  0
 10  9  2  0
 11 10  1  0
 11 12  2  0
 12  7  1  0
 13 20  1  0
 13 14  2  0
 15 16  1  0
 16 18  1  0
 17 16  2  0
 19 18  1  6
 20 19  1  0
 21 22  2  0
 21 19  1  0
 23 24  1  0
 24 26  1  0
 25 24  2  0
 27 26  1  0
 28 27  1  6
 28 29  1  0
 29 21  1  0
 30 28  1  0
 30 32  1  0
 31 30  2  0
M  END
$$$$
