CNR.pdb
     RDKit          3D

 26 25  0  0  1  0  0  0  0  0999 V2000
    9.0778  -17.5218   15.8070 N   0  0  0  0  0  0  0  0  0  0  0  0
    8.2343  -17.6410   16.9756 C   0  0  1  0  0  0  0  0  0  0  0  0
    8.1082  -19.1033   17.3485 C   0  0  0  0  0  0  0  0  0  0  0  0
    7.2279  -19.3449   18.8900 S   0  0  0  0  0  0  0  0  0  0  0  0
    8.9042  -16.8839   18.1128 C   0  0  0  0  0  0  0  0  0  0  0  0
   10.1307  -17.0325   18.3108 O   0  0  0  0  0  0  0  0  0  0  0  0
    6.5172  -12.2348   19.6308 N   0  0  0  0  0  0  0  0  0  0  0  0
    7.6813  -13.0778   19.5218 C   0  0  0  0  0  0  0  0  0  0  0  0
    8.5204  -12.8689   18.6101 O   0  0  0  0  0  0  0  0  0  0  0  0
    7.7681  -14.1487   20.5432 C   0  0  0  0  0  0  0  0  0  0  0  0
    8.5753  -15.3520   20.0905 C   0  0  2  0  0  0  0  0  0  0  0  0
    8.1541  -16.0251   18.9351 N   0  0  0  0  0  0  0  0  0  0  0  0
    8.9862  -16.1192   21.2464 C   0  0  0  0  0  0  0  0  0  0  0  0
    8.1540  -16.9909   21.6737 O   0  0  0  0  0  0  0  0  0  0  0  0
   14.2833  -19.6725   19.1924 N   0  0  0  0  0  0  0  0  0  0  0  0
   14.9528  -19.4049   20.4131 C   0  0  0  0  0  0  0  0  0  0  0  0
   16.1571  -18.8893   20.4251 N   0  0  0  0  0  0  0  0  0  0  0  0
   14.4482  -19.6625   21.6936 N   0  0  0  0  0  0  0  0  0  0  0  0
   13.1905  -19.5032   22.2789 C   0  0  0  0  0  0  0  0  0  0  0  0
   12.2485  -18.4329   21.9973 C   0  0  0  0  0  0  0  0  0  0  0  0
   11.9834  -17.3462   22.9484 C   0  0  0  0  0  0  0  0  0  0  0  0
   10.5591  -16.8919   23.0842 C   0  0  2  0  0  0  0  0  0  0  0  0
   10.1897  -16.0197   21.9522 N   0  0  0  0  0  0  0  0  0  0  0  0
   10.1355  -16.3316   24.3517 C   0  0  0  0  0  0  0  0  0  0  0  0
    9.7253  -15.1073   24.4188 O   0  0  0  0  0  0  0  0  0  0  0  0
   10.1045  -16.9698   25.5819 O   0  0  0  0  0  0  0  0  0  0  0  0
  2  5  1  0
  2  1  1  6
  3  2  1  0
  4  3  1  0
  5  6  2  0
  7  8  1  0
  8 10  1  0
  9  8  2  0
 11 10  1  1
 12  5  1  0
 12 11  1  0
 13 23  1  0
 13 11  1  0
 14 13  2  0
 15 16  1  0
 16 18  1  0
 16 17  2  0
 18 19  1  0
 20 19  1  0
 21 20  1  0
 22 23  1  0
 22 21  1  1
 24 22  1  0
 25 24  2  0
 26 24  1  0
M  END
$$$$
