CNR.pdb
     RDKit          3D

 26 25  0  0  1  0  0  0  0  0999 V2000
    8.7616  -14.9765   17.6309 N   0  0  0  0  0  0  0  0  0  0  0  0
    9.6574  -14.0295   18.2569 C   0  0  1  0  0  0  0  0  0  0  0  0
    8.9989  -13.4732   19.5019 C   0  0  0  0  0  0  0  0  0  0  0  0
    7.4841  -12.5879   19.1399 S   0  0  0  0  0  0  0  0  0  0  0  0
   10.9262  -14.7745   18.6444 C   0  0  0  0  0  0  0  0  0  0  0  0
   10.8533  -15.9771   18.9819 O   0  0  0  0  0  0  0  0  0  0  0  0
   15.2213  -12.9464   16.5078 N   0  0  0  0  0  0  0  0  0  0  0  0
   14.7677  -14.1290   17.1960 C   0  0  0  0  0  0  0  0  0  0  0  0
   14.4952  -15.1664   16.5415 O   0  0  0  0  0  0  0  0  0  0  0  0
   14.6674  -13.9885   18.6683 C   0  0  0  0  0  0  0  0  0  0  0  0
   13.3650  -14.5198   19.2391 C   0  0  2  0  0  0  0  0  0  0  0  0
   12.1702  -14.1197   18.6246 N   0  0  0  0  0  0  0  0  0  0  0  0
   13.4452  -14.5417   20.6836 C   0  0  0  0  0  0  0  0  0  0  0  0
   12.3481  -14.3630   21.3155 O   0  0  0  0  0  0  0  0  0  0  0  0
   13.9763  -20.1267   26.6718 N   0  0  0  0  0  0  0  0  0  0  0  0
   13.5389  -20.4132   25.3540 C   0  0  0  0  0  0  0  0  0  0  0  0
   12.3346  -20.8763   25.1268 N   0  0  0  0  0  0  0  0  0  0  0  0
   14.3038  -20.2655   24.1905 N   0  0  0  0  0  0  0  0  0  0  0  0
   14.5296  -19.1970   23.3202 C   0  0  0  0  0  0  0  0  0  0  0  0
   13.7358  -17.9824   23.2377 C   0  0  0  0  0  0  0  0  0  0  0  0
   13.9337  -16.9822   22.1811 C   0  0  0  0  0  0  0  0  0  0  0  0
   14.6794  -15.7342   22.5553 C   0  0  2  0  0  0  0  0  0  0  0  0
   14.5844  -14.7367   21.4716 N   0  0  0  0  0  0  0  0  0  0  0  0
   16.0375  -15.8667   23.0430 C   0  0  0  0  0  0  0  0  0  0  0  0
   17.0314  -15.8530   22.2163 O   0  0  0  0  0  0  0  0  0  0  0  0
   16.4448  -16.0124   24.3600 O   0  0  0  0  0  0  0  0  0  0  0  0
  2  5  1  0
  2  1  1  1
  3  2  1  0
  4  3  1  0
  5  6  2  0
  7  8  1  0
  8 10  1  0
  9  8  2  0
 11 10  1  6
 12  5  1  0
 12 11  1  0
 13 23  1  0
 13 11  1  0
 14 13  2  0
 15 16  1  0
 16 18  1  0
 16 17  2  0
 18 19  1  0
 20 19  1  0
 21 20  1  0
 22 23  1  0
 22 21  1  6
 24 22  1  0
 25 24  2  0
 26 24  1  0
M  END
$$$$
