CNR.pdb
     RDKit          3D

 26 25  0  0  1  0  0  0  0  0999 V2000
    6.1036  -14.4887   19.3173 N   0  0  0  0  0  0  0  0  0  0  0  0
    7.5356  -14.3821   19.1463 C   0  0  1  0  0  0  0  0  0  0  0  0
    8.0026  -13.0511   19.6973 C   0  0  0  0  0  0  0  0  0  0  0  0
    7.6471  -12.8685   21.4437 S   0  0  0  0  0  0  0  0  0  0  0  0
    8.1841  -15.5117   19.9328 C   0  0  0  0  0  0  0  0  0  0  0  0
    7.5422  -16.0673   20.8519 O   0  0  0  0  0  0  0  0  0  0  0  0
   10.5782  -19.5425   18.3763 N   0  0  0  0  0  0  0  0  0  0  0  0
   10.9459  -18.1514   18.2902 C   0  0  0  0  0  0  0  0  0  0  0  0
   10.8680  -17.5520   17.1886 O   0  0  0  0  0  0  0  0  0  0  0  0
   11.3962  -17.5498   19.5680 C   0  0  0  0  0  0  0  0  0  0  0  0
   10.2864  -16.8489   20.3306 C   0  0  2  0  0  0  0  0  0  0  0  0
    9.4924  -15.9290   19.6317 N   0  0  0  0  0  0  0  0  0  0  0  0
   10.7506  -16.5168   21.6602 C   0  0  0  0  0  0  0  0  0  0  0  0
   10.4343  -15.3579   22.0984 O   0  0  0  0  0  0  0  0  0  0  0  0
    9.5798  -13.0238   28.2715 N   0  0  0  0  0  0  0  0  0  0  0  0
    9.9778  -14.3267   28.6637 C   0  0  0  0  0  0  0  0  0  0  0  0
   10.2415  -14.6049   29.9165 N   0  0  0  0  0  0  0  0  0  0  0  0
   10.1509  -15.4196   27.8057 N   0  0  0  0  0  0  0  0  0  0  0  0
    9.5249  -15.8193   26.6231 C   0  0  0  0  0  0  0  0  0  0  0  0
    9.7804  -17.0526   25.8980 C   0  0  0  0  0  0  0  0  0  0  0  0
   10.0196  -17.0798   24.4495 C   0  0  0  0  0  0  0  0  0  0  0  0
   11.4428  -17.2308   23.9967 C   0  0  2  0  0  0  0  0  0  0  0  0
   11.5054  -17.3166   22.5246 N   0  0  0  0  0  0  0  0  0  0  0  0
   12.2591  -18.2488   24.6271 C   0  0  0  0  0  0  0  0  0  0  0  0
   12.7200  -18.0677   25.8214 O   0  0  0  0  0  0  0  0  0  0  0  0
   12.6359  -19.4710   24.0926 O   0  0  0  0  0  0  0  0  0  0  0  0
  2  5  1  0
  2  1  1  1
  3  2  1  0
  4  3  1  0
  5  6  2  0
  7  8  1  0
  8 10  1  0
  9  8  2  0
 11 10  1  6
 12  5  1  0
 12 11  1  0
 13 23  1  0
 13 11  1  0
 14 13  2  0
 15 16  1  0
 16 18  1  0
 16 17  2  0
 18 19  1  0
 20 19  1  0
 21 20  1  0
 22 23  1  0
 22 21  1  1
 24 22  1  0
 25 24  2  0
 26 24  1  0
M  END
$$$$
