CNR.pdb
     RDKit          3D

 26 25  0  0  1  0  0  0  0  0999 V2000
    7.7335  -18.1732   15.9502 N   0  0  0  0  0  0  0  0  0  0  0  0
    7.0386  -17.9134   17.1915 C   0  0  1  0  0  0  0  0  0  0  0  0
    6.5782  -19.2278   17.7861 C   0  0  0  0  0  0  0  0  0  0  0  0
    5.0235  -19.7871   17.0935 S   0  0  0  0  0  0  0  0  0  0  0  0
    8.0188  -17.2426   18.1426 C   0  0  0  0  0  0  0  0  0  0  0  0
    9.2060  -17.6361   18.1788 O   0  0  0  0  0  0  0  0  0  0  0  0
    6.5469  -12.2427   19.6575 N   0  0  0  0  0  0  0  0  0  0  0  0
    7.6007  -13.1926   19.4028 C   0  0  0  0  0  0  0  0  0  0  0  0
    8.2631  -13.1196   18.3374 O   0  0  0  0  0  0  0  0  0  0  0  0
    7.7995  -14.1987   20.4731 C   0  0  0  0  0  0  0  0  0  0  0  0
    8.3334  -15.5255   19.9643 C   0  0  2  0  0  0  0  0  0  0  0  0
    7.5968  -16.1906   18.9742 N   0  0  0  0  0  0  0  0  0  0  0  0
    8.8765  -16.2829   21.0711 C   0  0  0  0  0  0  0  0  0  0  0  0
    8.0299  -16.8879   21.8141 O   0  0  0  0  0  0  0  0  0  0  0  0
   14.3383  -20.8963   23.8659 N   0  0  0  0  0  0  0  0  0  0  0  0
   13.3105  -21.3915   23.0243 C   0  0  0  0  0  0  0  0  0  0  0  0
   12.3730  -22.1778   23.4925 N   0  0  0  0  0  0  0  0  0  0  0  0
   13.1839  -21.1344   21.6537 N   0  0  0  0  0  0  0  0  0  0  0  0
   12.7012  -20.0472   20.9223 C   0  0  0  0  0  0  0  0  0  0  0  0
   11.6404  -19.1443   21.3369 C   0  0  0  0  0  0  0  0  0  0  0  0
   11.8732  -18.0266   22.2601 C   0  0  0  0  0  0  0  0  0  0  0  0
   10.6880  -17.1747   22.6111 C   0  0  2  0  0  0  0  0  0  0  0  0
   10.2219  -16.4319   21.4239 N   0  0  0  0  0  0  0  0  0  0  0  0
   10.7798  -16.3180   23.7762 C   0  0  0  0  0  0  0  0  0  0  0  0
   10.8562  -15.0349   23.6377 O   0  0  0  0  0  0  0  0  0  0  0  0
   10.7949  -16.7099   25.1058 O   0  0  0  0  0  0  0  0  0  0  0  0
  2  5  1  0
  2  1  1  6
  3  2  1  0
  4  3  1  0
  5  6  2  0
  7  8  1  0
  8 10  1  0
  9  8  2  0
 11 10  1  1
 12  5  1  0
 12 11  1  0
 13 23  1  0
 13 11  1  0
 14 13  2  0
 15 16  1  0
 16 18  1  0
 16 17  2  0
 18 19  1  0
 20 19  1  0
 21 20  1  0
 22 23  1  0
 22 21  1  6
 24 22  1  0
 25 24  2  0
 26 24  1  0
M  END
$$$$
