CNR.pdb
     RDKit          3D

 26 25  0  0  1  0  0  0  0  0999 V2000
    5.5973  -14.0600   26.4481 N   0  0  0  0  0  0  0  0  0  0  0  0
    6.6677  -13.1936   26.0070 C   0  0  1  0  0  0  0  0  0  0  0  0
    7.0809  -12.2938   27.1528 C   0  0  0  0  0  0  0  0  0  0  0  0
    5.6761  -11.5911   28.0145 S   0  0  0  0  0  0  0  0  0  0  0  0
    7.8425  -14.0725   25.6038 C   0  0  0  0  0  0  0  0  0  0  0  0
    8.9558  -13.5461   25.3829 O   0  0  0  0  0  0  0  0  0  0  0  0
    8.9272  -16.5225   27.7858 N   0  0  0  0  0  0  0  0  0  0  0  0
    8.6666  -17.8114   27.1954 C   0  0  0  0  0  0  0  0  0  0  0  0
    8.5676  -18.8261   27.9300 O   0  0  0  0  0  0  0  0  0  0  0  0
    8.5370  -17.8013   25.7187 C   0  0  0  0  0  0  0  0  0  0  0  0
    8.6435  -16.4140   25.1119 C   0  0  2  0  0  0  0  0  0  0  0  0
    7.6809  -15.4636   25.4796 N   0  0  0  0  0  0  0  0  0  0  0  0
    9.0352  -16.5241   23.7233 C   0  0  0  0  0  0  0  0  0  0  0  0
    8.3285  -17.3016   22.9946 O   0  0  0  0  0  0  0  0  0  0  0  0
    7.7905  -12.9542   15.7104 N   0  0  0  0  0  0  0  0  0  0  0  0
    7.7569  -14.0395   16.6219 C   0  0  0  0  0  0  0  0  0  0  0  0
    7.8156  -15.2787   16.2007 N   0  0  0  0  0  0  0  0  0  0  0  0
    7.6420  -13.9328   18.0134 N   0  0  0  0  0  0  0  0  0  0  0  0
    8.5748  -13.8631   19.0503 C   0  0  0  0  0  0  0  0  0  0  0  0
    9.1333  -14.9943   19.7720 C   0  0  0  0  0  0  0  0  0  0  0  0
   10.0880  -14.8311   20.8755 C   0  0  0  0  0  0  0  0  0  0  0  0
   10.4403  -16.0620   21.6592 C   0  0  2  0  0  0  0  0  0  0  0  0
   10.0977  -15.8779   23.0831 N   0  0  0  0  0  0  0  0  0  0  0  0
   11.7665  -16.6229   21.4962 C   0  0  0  0  0  0  0  0  0  0  0  0
   12.6015  -16.6199   22.4833 O   0  0  0  0  0  0  0  0  0  0  0  0
   12.2968  -17.2029   20.3543 O   0  0  0  0  0  0  0  0  0  0  0  0
  2  5  1  0
  2  1  1  1
  3  2  1  0
  4  3  1  0
  5  6  2  0
  7  8  1  0
  8 10  1  0
  9  8  2  0
 11 10  1  6
 12  5  1  0
 12 11  1  0
 13 23  1  0
 13 11  1  0
 14 13  2  0
 15 16  1  0
 16 18  1  0
 16 17  2  0
 18 19  1  0
 20 19  1  0
 21 20  1  0
 22 23  1  0
 22 21  1  6
 24 22  1  0
 25 24  2  0
 26 24  1  0
M  END
$$$$
