CNR.pdb
     RDKit          3D

 26 25  0  0  1  0  0  0  0  0999 V2000
    7.7371  -16.0047   19.1292 N   0  0  0  0  0  0  0  0  0  0  0  0
    8.4400  -14.7412   19.0992 C   0  0  1  0  0  0  0  0  0  0  0  0
    7.5336  -13.6841   18.5039 C   0  0  0  0  0  0  0  0  0  0  0  0
    8.3381  -12.0894   18.3653 S   0  0  0  0  0  0  0  0  0  0  0  0
    8.7838  -14.3652   20.5329 C   0  0  0  0  0  0  0  0  0  0  0  0
    9.9105  -13.8849   20.7883 O   0  0  0  0  0  0  0  0  0  0  0  0
    8.5506  -14.2212   25.5864 N   0  0  0  0  0  0  0  0  0  0  0  0
    7.3032  -13.6139   25.1953 C   0  0  0  0  0  0  0  0  0  0  0  0
    6.6226  -12.9838   26.0432 O   0  0  0  0  0  0  0  0  0  0  0  0
    6.9408  -13.8059   23.7708 C   0  0  0  0  0  0  0  0  0  0  0  0
    8.0475  -14.4367   22.9451 C   0  0  2  0  0  0  0  0  0  0  0  0
    7.8459  -14.5551   21.5629 N   0  0  0  0  0  0  0  0  0  0  0  0
    8.6198  -15.5474   23.6746 C   0  0  0  0  0  0  0  0  0  0  0  0
    7.7918  -16.3706   24.1960 O   0  0  0  0  0  0  0  0  0  0  0  0
   15.4251  -20.9782   21.5020 N   0  0  0  0  0  0  0  0  0  0  0  0
   14.6955  -19.8417   21.0708 C   0  0  0  0  0  0  0  0  0  0  0  0
   15.0965  -19.1289   20.0474 N   0  0  0  0  0  0  0  0  0  0  0  0
   13.5266  -19.3495   21.6642 N   0  0  0  0  0  0  0  0  0  0  0  0
   12.8230  -19.6876   22.8221 C   0  0  0  0  0  0  0  0  0  0  0  0
   12.3864  -18.7631   23.8550 C   0  0  0  0  0  0  0  0  0  0  0  0
   11.7440  -17.4801   23.5436 C   0  0  0  0  0  0  0  0  0  0  0  0
   10.4935  -17.1423   24.3024 C   0  0  2  0  0  0  0  0  0  0  0  0
    9.9753  -15.8277   23.8762 N   0  0  0  0  0  0  0  0  0  0  0  0
   10.5120  -17.2677   25.7459 C   0  0  0  0  0  0  0  0  0  0  0  0
   10.2290  -16.2507   26.4924 O   0  0  0  0  0  0  0  0  0  0  0  0
   10.8076  -18.4025   26.4851 O   0  0  0  0  0  0  0  0  0  0  0  0
  2  5  1  0
  2  1  1  1
  3  2  1  0
  4  3  1  0
  5  6  2  0
  7  8  1  0
  8 10  1  0
  9  8  2  0
 11 10  1  1
 12  5  1  0
 12 11  1  0
 13 23  1  0
 13 11  1  0
 14 13  2  0
 15 16  1  0
 16 18  1  0
 16 17  2  0
 18 19  1  0
 20 19  1  0
 21 20  1  0
 22 23  1  0
 22 21  1  1
 24 22  1  0
 25 24  2  0
 26 24  1  0
M  END
$$$$
