CNR.pdb
     RDKit          3D

 26 25  0  0  1  0  0  0  0  0999 V2000
    3.9448  -20.2689   22.4338 N   0  0  0  0  0  0  0  0  0  0  0  0
    5.2621  -20.0326   21.8861 C   0  0  1  0  0  0  0  0  0  0  0  0
    5.1321  -19.6710   20.4213 C   0  0  0  0  0  0  0  0  0  0  0  0
    6.7008  -19.2174   19.6845 S   0  0  0  0  0  0  0  0  0  0  0  0
    5.8791  -18.8660   22.6433 C   0  0  0  0  0  0  0  0  0  0  0  0
    5.2351  -17.7995   22.7586 O   0  0  0  0  0  0  0  0  0  0  0  0
    8.2721  -15.8228   26.2622 N   0  0  0  0  0  0  0  0  0  0  0  0
    8.9046  -17.0899   25.9936 C   0  0  0  0  0  0  0  0  0  0  0  0
   10.1192  -17.2528   26.2711 O   0  0  0  0  0  0  0  0  0  0  0  0
    8.0141  -18.1113   25.3923 C   0  0  0  0  0  0  0  0  0  0  0  0
    7.8988  -17.9996   23.8828 C   0  0  2  0  0  0  0  0  0  0  0  0
    7.1610  -18.9827   23.2087 N   0  0  0  0  0  0  0  0  0  0  0  0
    9.1645  -17.5636   23.3337 C   0  0  0  0  0  0  0  0  0  0  0  0
   10.0647  -18.4618   23.2008 O   0  0  0  0  0  0  0  0  0  0  0  0
    7.7427  -13.6566   20.7319 N   0  0  0  0  0  0  0  0  0  0  0  0
    8.0943  -13.1574   19.4524 C   0  0  0  0  0  0  0  0  0  0  0  0
    7.1762  -12.7698   18.6019 N   0  0  0  0  0  0  0  0  0  0  0  0
    9.3969  -13.0401   18.9524 N   0  0  0  0  0  0  0  0  0  0  0  0
   10.6454  -13.4531   19.4221 C   0  0  0  0  0  0  0  0  0  0  0  0
   10.9015  -14.6195   20.2504 C   0  0  0  0  0  0  0  0  0  0  0  0
   10.8005  -14.5834   21.7148 C   0  0  0  0  0  0  0  0  0  0  0  0
   10.8589  -15.8996   22.4344 C   0  0  2  0  0  0  0  0  0  0  0  0
    9.5193  -16.2723   22.9294 N   0  0  0  0  0  0  0  0  0  0  0  0
   11.8747  -16.0809   23.4517 C   0  0  0  0  0  0  0  0  0  0  0  0
   13.1148  -16.2265   23.1162 O   0  0  0  0  0  0  0  0  0  0  0  0
   11.6886  -16.1190   24.8249 O   0  0  0  0  0  0  0  0  0  0  0  0
  2  5  1  0
  2  1  1  1
  3  2  1  0
  4  3  1  0
  5  6  2  0
  7  8  1  0
  8 10  1  0
  9  8  2  0
 11 10  1  1
 12  5  1  0
 12 11  1  0
 13 23  1  0
 13 11  1  0
 14 13  2  0
 15 16  1  0
 16 18  1  0
 16 17  2  0
 18 19  1  0
 20 19  1  0
 21 20  1  0
 22 23  1  0
 22 21  1  1
 24 22  1  0
 25 24  2  0
 26 24  1  0
M  END
$$$$
