CNR.pdb
     RDKit          3D

 26 25  0  0  1  0  0  0  0  0999 V2000
    7.6123  -12.7974   16.6819 N   0  0  0  0  0  0  0  0  0  0  0  0
    7.5915  -14.2382   16.8033 C   0  0  1  0  0  0  0  0  0  0  0  0
    8.4910  -14.8378   15.7429 C   0  0  0  0  0  0  0  0  0  0  0  0
    8.5816  -16.6238   15.8496 S   0  0  0  0  0  0  0  0  0  0  0  0
    8.1248  -14.5973   18.1824 C   0  0  0  0  0  0  0  0  0  0  0  0
    9.1416  -14.0130   18.6187 O   0  0  0  0  0  0  0  0  0  0  0  0
    6.8786  -18.3740   18.6758 N   0  0  0  0  0  0  0  0  0  0  0  0
    7.0716  -18.4753   20.1007 C   0  0  0  0  0  0  0  0  0  0  0  0
    7.2552  -19.6013   20.6274 O   0  0  0  0  0  0  0  0  0  0  0  0
    7.0318  -17.1823   20.8244 C   0  0  0  0  0  0  0  0  0  0  0  0
    7.8965  -16.1076   20.1905 C   0  0  2  0  0  0  0  0  0  0  0  0
    7.4831  -15.5764   18.9609 N   0  0  0  0  0  0  0  0  0  0  0  0
    9.2923  -16.4341   20.3871 C   0  0  0  0  0  0  0  0  0  0  0  0
    9.8350  -17.1677   19.4914 O   0  0  0  0  0  0  0  0  0  0  0  0
   18.3098  -14.4047   18.8119 N   0  0  0  0  0  0  0  0  0  0  0  0
   16.9073  -14.1972   18.8060 C   0  0  0  0  0  0  0  0  0  0  0  0
   16.3468  -13.3891   17.9404 N   0  0  0  0  0  0  0  0  0  0  0  0
   15.9925  -14.7820   19.6902 N   0  0  0  0  0  0  0  0  0  0  0  0
   14.6189  -14.6289   19.8892 C   0  0  0  0  0  0  0  0  0  0  0  0
   13.8081  -15.3672   20.8430 C   0  0  0  0  0  0  0  0  0  0  0  0
   12.3547  -15.1865   20.9479 C   0  0  0  0  0  0  0  0  0  0  0  0
   11.5651  -16.3304   21.5150 C   0  0  2  0  0  0  0  0  0  0  0  0
   10.1198  -16.0399   21.4438 N   0  0  0  0  0  0  0  0  0  0  0  0
   11.9435  -16.8476   22.8148 C   0  0  0  0  0  0  0  0  0  0  0  0
   11.1147  -16.7912   23.8054 O   0  0  0  0  0  0  0  0  0  0  0  0
   13.1492  -17.4356   23.1644 O   0  0  0  0  0  0  0  0  0  0  0  0
  2  5  1  0
  2  1  1  1
  3  2  1  0
  4  3  1  0
  5  6  2  0
  7  8  1  0
  8 10  1  0
  9  8  2  0
 11 10  1  6
 12  5  1  0
 12 11  1  0
 13 23  1  0
 13 11  1  0
 14 13  2  0
 15 16  1  0
 16 18  1  0
 16 17  2  0
 18 19  1  0
 20 19  1  0
 21 20  1  0
 22 23  1  0
 22 21  1  1
 24 22  1  0
 25 24  2  0
 26 24  1  0
M  END
$$$$
