CNR.pdb
     RDKit          3D

 26 25  0  0  1  0  0  0  0  0999 V2000
    6.0725  -18.2825   22.8295 N   0  0  0  0  0  0  0  0  0  0  0  0
    6.8916  -17.2427   22.2474 C   0  0  1  0  0  0  0  0  0  0  0  0
    6.1188  -15.9404   22.2552 C   0  0  0  0  0  0  0  0  0  0  0  0
    6.2695  -15.0437   20.7116 S   0  0  0  0  0  0  0  0  0  0  0  0
    8.1392  -17.0968   23.1061 C   0  0  0  0  0  0  0  0  0  0  0  0
    8.0388  -17.1648   24.3514 O   0  0  0  0  0  0  0  0  0  0  0  0
   12.6099  -16.6663   25.3496 N   0  0  0  0  0  0  0  0  0  0  0  0
   12.2927  -17.9257   24.7241 C   0  0  0  0  0  0  0  0  0  0  0  0
   13.1443  -18.8496   24.7133 O   0  0  0  0  0  0  0  0  0  0  0  0
   10.9345  -17.9995   24.1347 C   0  0  0  0  0  0  0  0  0  0  0  0
   10.6549  -16.9047   23.1211 C   0  0  2  0  0  0  0  0  0  0  0  0
    9.3942  -16.8871   22.5083 N   0  0  0  0  0  0  0  0  0  0  0  0
   11.8362  -16.6798   22.3164 C   0  0  0  0  0  0  0  0  0  0  0  0
   12.4719  -17.7228   21.9381 O   0  0  0  0  0  0  0  0  0  0  0  0
    7.2013  -12.2134   19.3112 N   0  0  0  0  0  0  0  0  0  0  0  0
    8.4922  -12.6390   18.9082 C   0  0  0  0  0  0  0  0  0  0  0  0
    9.4872  -11.7913   18.8205 N   0  0  0  0  0  0  0  0  0  0  0  0
    8.8456  -13.9461   18.5513 N   0  0  0  0  0  0  0  0  0  0  0  0
   10.0574  -14.5552   18.2190 C   0  0  0  0  0  0  0  0  0  0  0  0
   10.9835  -15.1758   19.1515 C   0  0  0  0  0  0  0  0  0  0  0  0
   12.1650  -14.4764   19.6715 C   0  0  0  0  0  0  0  0  0  0  0  0
   13.0504  -15.2411   20.6122 C   0  0  2  0  0  0  0  0  0  0  0  0
   12.3651  -15.4529   21.9021 N   0  0  0  0  0  0  0  0  0  0  0  0
   14.4121  -14.7819   20.7988 C   0  0  0  0  0  0  0  0  0  0  0  0
   15.1608  -14.5287   19.7756 O   0  0  0  0  0  0  0  0  0  0  0  0
   15.0643  -14.5592   22.0015 O   0  0  0  0  0  0  0  0  0  0  0  0
  2  5  1  0
  2  1  1  1
  3  2  1  0
  4  3  1  0
  5  6  2  0
  7  8  1  0
  8 10  1  0
  9  8  2  0
 11 10  1  6
 12  5  1  0
 12 11  1  0
 13 23  1  0
 13 11  1  0
 14 13  2  0
 15 16  1  0
 16 18  1  0
 16 17  2  0
 18 19  1  0
 20 19  1  0
 21 20  1  0
 22 23  1  0
 22 21  1  6
 24 22  1  0
 25 24  2  0
 26 24  1  0
M  END
$$$$
