HVV.pdb
     RDKit          3D

 25 25  0  0  1  0  0  0  0  0999 V2000
   25.4193  -18.3191  -15.8064 N   0  0  0  0  0  0  0  0  0  0  0  0
   26.4483  -18.3240  -14.7908 C   0  0  1  0  0  0  0  0  0  0  0  0
   27.2335  -17.0584  -14.7953 C   0  0  0  0  0  0  0  0  0  0  0  0
   27.9656  -16.9712  -16.0835 C   0  0  0  0  0  0  0  0  0  0  0  0
   27.7092  -16.2195  -17.1998 C   0  0  0  0  0  0  0  0  0  0  0  0
   28.6543  -16.4676  -18.1401 N   0  0  0  0  0  0  0  0  0  0  0  0
   29.4992  -17.3701  -17.6167 C   0  0  0  0  0  0  0  0  0  0  0  0
   29.0754  -17.6737  -16.3639 N   0  0  0  0  0  0  0  0  0  0  0  0
   25.8634  -18.6946  -13.4988 C   0  0  0  0  0  0  0  0  0  0  0  0
   25.0042  -17.9199  -13.0031 O   0  0  0  0  0  0  0  0  0  0  0  0
   23.5755  -20.9928  -12.9129 C   0  0  0  0  0  0  0  0  0  0  0  0
   24.5950  -21.3374  -11.8582 C   0  0  1  0  0  0  0  0  0  0  0  0
   25.3274  -22.6097  -12.0843 C   0  0  0  0  0  0  0  0  0  0  0  0
   25.4732  -20.1428  -11.5370 C   0  0  2  0  0  0  0  0  0  0  0  0
   26.1914  -19.8545  -12.7697 N   0  0  0  0  0  0  0  0  0  0  0  0
   26.3820  -20.3649  -10.4103 C   0  0  0  0  0  0  0  0  0  0  0  0
   27.4681  -21.0196  -10.5903 O   0  0  0  0  0  0  0  0  0  0  0  0
   27.6897  -17.8702   -7.6460 C   0  0  0  0  0  0  0  0  0  0  0  0
   27.1185  -19.1185   -7.0105 C   0  0  1  0  0  0  0  0  0  0  0  0
   25.7357  -18.7928   -6.5039 C   0  0  0  0  0  0  0  0  0  0  0  0
   27.0529  -20.2673   -7.9880 C   0  0  2  0  0  0  0  0  0  0  0  0
   26.1515  -19.8989   -9.0951 N   0  0  0  0  0  0  0  0  0  0  0  0
   26.5049  -21.4437   -7.2775 C   0  0  0  0  0  0  0  0  0  0  0  0
   27.2232  -22.1121   -6.3085 O   0  0  0  0  0  0  0  0  0  0  0  0
   25.3549  -21.8530   -7.5568 O   0  0  0  0  0  0  0  0  0  0  0  0
  2  1  1  6
  3  2  1  0
  3  4  1  0
  4  8  1  0
  5  4  2  0
  5  6  1  0
  6  7  1  0
  8  7  2  0
  9 10  2  0
  9  2  1  0
 12 11  1  6
 12 14  1  0
 13 12  1  0
 14 16  1  0
 14 15  1  6
 15  9  1  0
 16 22  1  0
 17 16  2  0
 19 18  1  6
 19 21  1  0
 20 19  1  0
 21 23  1  0
 21 22  1  6
 23 25  2  0
 23 24  1  0
M  END
$$$$
