HVV.pdb
     RDKit          3D

 25 25  0  0  1  0  0  0  0  0999 V2000
   22.9530  -20.8960  -16.8390 N   0  0  0  0  0  0  0  0  0  0  0  0
   23.1414  -19.9676  -15.7468 C   0  0  1  0  0  0  0  0  0  0  0  0
   21.8415  -19.4973  -15.1923 C   0  0  0  0  0  0  0  0  0  0  0  0
   21.2742  -18.4938  -16.1272 C   0  0  0  0  0  0  0  0  0  0  0  0
   21.4809  -17.1418  -16.2091 C   0  0  0  0  0  0  0  0  0  0  0  0
   20.7448  -16.6317  -17.2272 N   0  0  0  0  0  0  0  0  0  0  0  0
   20.0798  -17.6579  -17.7814 C   0  0  0  0  0  0  0  0  0  0  0  0
   20.4056  -18.7899  -17.1078 N   0  0  0  0  0  0  0  0  0  0  0  0
   24.0704  -20.5403  -14.7682 C   0  0  0  0  0  0  0  0  0  0  0  0
   23.7200  -21.5958  -14.1789 O   0  0  0  0  0  0  0  0  0  0  0  0
   27.6990  -21.4045  -15.1893 C   0  0  0  0  0  0  0  0  0  0  0  0
   27.5543  -20.5952  -13.9265 C   0  0  1  0  0  0  0  0  0  0  0  0
   28.1572  -19.2387  -13.9773 C   0  0  0  0  0  0  0  0  0  0  0  0
   26.1292  -20.6422  -13.4085 C   0  0  2  0  0  0  0  0  0  0  0  0
   25.3274  -19.9970  -14.4376 N   0  0  0  0  0  0  0  0  0  0  0  0
   25.9565  -20.0090  -12.0994 C   0  0  0  0  0  0  0  0  0  0  0  0
   25.7526  -18.7465  -12.0267 O   0  0  0  0  0  0  0  0  0  0  0  0
   23.4292  -20.4269   -9.5186 C   0  0  0  0  0  0  0  0  0  0  0  0
   24.7480  -20.5623   -8.7901 C   0  0  1  0  0  0  0  0  0  0  0  0
   24.9916  -22.0288   -8.5355 C   0  0  0  0  0  0  0  0  0  0  0  0
   25.8917  -19.9795   -9.5850 C   0  0  2  0  0  0  0  0  0  0  0  0
   25.9966  -20.7008  -10.8666 N   0  0  0  0  0  0  0  0  0  0  0  0
   27.1360  -20.1726   -8.8079 C   0  0  0  0  0  0  0  0  0  0  0  0
   27.4120  -19.4360   -7.6753 O   0  0  0  0  0  0  0  0  0  0  0  0
   27.9703  -21.0283   -9.1815 O   0  0  0  0  0  0  0  0  0  0  0  0
  2  1  1  6
  3  2  1  0
  3  4  1  0
  4  8  1  0
  5  4  2  0
  5  6  1  0
  6  7  1  0
  8  7  2  0
  9 10  2  0
  9  2  1  0
 12 11  1  6
 12 14  1  0
 13 12  1  0
 14 16  1  0
 14 15  1  6
 15  9  1  0
 16 22  1  0
 17 16  2  0
 19 18  1  6
 19 21  1  0
 20 19  1  0
 21 23  1  0
 21 22  1  6
 23 25  2  0
 23 24  1  0
M  END
$$$$
