HVV.pdb
     RDKit          3D

 25 25  0  0  1  0  0  0  0  0999 V2000
   22.4184  -20.7966  -16.0311 N   0  0  0  0  0  0  0  0  0  0  0  0
   23.0331  -19.7716  -15.2175 C   0  0  1  0  0  0  0  0  0  0  0  0
   22.0158  -18.9431  -14.5126 C   0  0  0  0  0  0  0  0  0  0  0  0
   21.3229  -18.1023  -15.5205 C   0  0  0  0  0  0  0  0  0  0  0  0
   20.0576  -18.1989  -16.0369 C   0  0  0  0  0  0  0  0  0  0  0  0
   19.8583  -17.2047  -16.9372 N   0  0  0  0  0  0  0  0  0  0  0  0
   20.9925  -16.4880  -16.9856 C   0  0  0  0  0  0  0  0  0  0  0  0
   21.8815  -17.0387  -16.1209 N   0  0  0  0  0  0  0  0  0  0  0  0
   24.0571  -20.3731  -14.3581 C   0  0  0  0  0  0  0  0  0  0  0  0
   23.7392  -21.3987  -13.7014 O   0  0  0  0  0  0  0  0  0  0  0  0
   27.4947  -21.3795  -15.3818 C   0  0  0  0  0  0  0  0  0  0  0  0
   27.6151  -20.6165  -14.0880 C   0  0  1  0  0  0  0  0  0  0  0  0
   28.2904  -19.2980  -14.1969 C   0  0  0  0  0  0  0  0  0  0  0  0
   26.2954  -20.5988  -13.3400 C   0  0  2  0  0  0  0  0  0  0  0  0
   25.3717  -19.8885  -14.2122 N   0  0  0  0  0  0  0  0  0  0  0  0
   26.3784  -19.9869  -12.0121 C   0  0  0  0  0  0  0  0  0  0  0  0
   26.6193  -18.7334  -11.9046 O   0  0  0  0  0  0  0  0  0  0  0  0
   24.6881  -21.7166   -8.8765 C   0  0  0  0  0  0  0  0  0  0  0  0
   25.2763  -20.3545   -8.5813 C   0  0  1  0  0  0  0  0  0  0  0  0
   25.7391  -20.3477   -7.1458 C   0  0  0  0  0  0  0  0  0  0  0  0
   26.4316  -20.0305   -9.4976 C   0  0  2  0  0  0  0  0  0  0  0  0
   26.2076  -20.6902  -10.7971 N   0  0  0  0  0  0  0  0  0  0  0  0
   27.6681  -20.5614   -8.8825 C   0  0  0  0  0  0  0  0  0  0  0  0
   28.2832  -19.9341   -7.8196 O   0  0  0  0  0  0  0  0  0  0  0  0
   28.1798  -21.6117   -9.3332 O   0  0  0  0  0  0  0  0  0  0  0  0
  2  1  1  1
  3  2  1  0
  3  4  1  0
  4  8  1  0
  5  4  2  0
  5  6  1  0
  6  7  1  0
  8  7  2  0
  9 10  2  0
  9  2  1  0
 12 11  1  6
 12 14  1  0
 13 12  1  0
 14 16  1  0
 14 15  1  6
 15  9  1  0
 16 22  1  0
 17 16  2  0
 19 18  1  6
 19 21  1  0
 20 19  1  0
 21 23  1  0
 21 22  1  6
 23 25  2  0
 23 24  1  0
M  END
$$$$
