HVV.pdb
     RDKit          3D

 25 25  0  0  1  0  0  0  0  0999 V2000
   28.3291  -21.8151  -15.8327 N   0  0  0  0  0  0  0  0  0  0  0  0
   27.4710  -20.7479  -15.3692 C   0  0  1  0  0  0  0  0  0  0  0  0
   26.9406  -19.9362  -16.4998 C   0  0  0  0  0  0  0  0  0  0  0  0
   28.0692  -19.1798  -17.0974 C   0  0  0  0  0  0  0  0  0  0  0  0
   29.1292  -18.5499  -16.5002 C   0  0  0  0  0  0  0  0  0  0  0  0
   29.9152  -17.9860  -17.4504 N   0  0  0  0  0  0  0  0  0  0  0  0
   29.3515  -18.2606  -18.6376 C   0  0  0  0  0  0  0  0  0  0  0  0
   28.2274  -18.9879  -18.4172 N   0  0  0  0  0  0  0  0  0  0  0  0
   26.4592  -21.2901  -14.4575 C   0  0  0  0  0  0  0  0  0  0  0  0
   25.7410  -22.2345  -14.8776 O   0  0  0  0  0  0  0  0  0  0  0  0
   26.9658  -21.3861  -10.7293 C   0  0  0  0  0  0  0  0  0  0  0  0
   25.4850  -21.1959  -10.9334 C   0  0  1  0  0  0  0  0  0  0  0  0
   24.9104  -19.9919  -10.2804 C   0  0  0  0  0  0  0  0  0  0  0  0
   25.1081  -21.3731  -12.3922 C   0  0  2  0  0  0  0  0  0  0  0  0
   26.2305  -20.8326  -13.1449 N   0  0  0  0  0  0  0  0  0  0  0  0
   23.8425  -20.7324  -12.7563 C   0  0  0  0  0  0  0  0  0  0  0  0
   23.7399  -19.4565  -12.7079 O   0  0  0  0  0  0  0  0  0  0  0  0
   22.1297  -20.6367  -15.9321 C   0  0  0  0  0  0  0  0  0  0  0  0
   21.0670  -21.0612  -14.9428 C   0  0  1  0  0  0  0  0  0  0  0  0
   20.8779  -22.5520  -15.0727 C   0  0  0  0  0  0  0  0  0  0  0  0
   21.4473  -20.7109  -13.5243 C   0  0  2  0  0  0  0  0  0  0  0  0
   22.6851  -21.4305  -13.1722 N   0  0  0  0  0  0  0  0  0  0  0  0
   20.3513  -21.1511  -12.6332 C   0  0  0  0  0  0  0  0  0  0  0  0
   19.1485  -20.4797  -12.5676 O   0  0  0  0  0  0  0  0  0  0  0  0
   20.5103  -22.1628  -11.9126 O   0  0  0  0  0  0  0  0  0  0  0  0
  2  1  1  6
  3  2  1  0
  3  4  1  0
  4  8  1  0
  5  4  2  0
  5  6  1  0
  6  7  1  0
  8  7  2  0
  9 10  2  0
  9  2  1  0
 12 11  1  6
 12 14  1  0
 13 12  1  0
 14 16  1  0
 14 15  1  6
 15  9  1  0
 16 22  1  0
 17 16  2  0
 19 18  1  6
 19 21  1  0
 20 19  1  0
 21 23  1  0
 21 22  1  1
 23 25  2  0
 23 24  1  0
M  END
$$$$
