HVV.pdb
     RDKit          3D

 25 25  0  0  1  0  0  0  0  0999 V2000
   26.6156  -21.4266  -12.8027 N   0  0  0  0  0  0  0  0  0  0  0  0
   25.6723  -20.6227  -12.0583 C   0  0  1  0  0  0  0  0  0  0  0  0
   24.3564  -20.5341  -12.7503 C   0  0  0  0  0  0  0  0  0  0  0  0
   24.5542  -19.8136  -14.0327 C   0  0  0  0  0  0  0  0  0  0  0  0
   24.9881  -20.2712  -15.2490 C   0  0  0  0  0  0  0  0  0  0  0  0
   25.0115  -19.2465  -16.1368 N   0  0  0  0  0  0  0  0  0  0  0  0
   24.5944  -18.1516  -15.4812 C   0  0  0  0  0  0  0  0  0  0  0  0
   24.3171  -18.5023  -14.2000 N   0  0  0  0  0  0  0  0  0  0  0  0
   25.6201  -21.0852  -10.6682 C   0  0  0  0  0  0  0  0  0  0  0  0
   25.3568  -22.2993  -10.4665 O   0  0  0  0  0  0  0  0  0  0  0  0
   28.0908  -20.5902   -7.8775 C   0  0  0  0  0  0  0  0  0  0  0  0
   26.7263  -20.2288   -7.3501 C   0  0  1  0  0  0  0  0  0  0  0  0
   26.5426  -18.7936   -7.0142 C   0  0  0  0  0  0  0  0  0  0  0  0
   25.6316  -20.8286   -8.2122 C   0  0  2  0  0  0  0  0  0  0  0  0
   25.8430  -20.2714   -9.5401 N   0  0  0  0  0  0  0  0  0  0  0  0
   24.2793  -20.5667   -7.7150 C   0  0  0  0  0  0  0  0  0  0  0  0
   23.7455  -19.4175   -7.9024 O   0  0  0  0  0  0  0  0  0  0  0  0
   21.1304  -21.7551   -8.7316 C   0  0  0  0  0  0  0  0  0  0  0  0
   21.1203  -22.0034   -7.2394 C   0  0  1  0  0  0  0  0  0  0  0  0
   21.4050  -23.4664   -7.0083 C   0  0  0  0  0  0  0  0  0  0  0  0
   22.1454  -21.1584   -6.5219 C   0  0  2  0  0  0  0  0  0  0  0  0
   23.4868  -21.5111   -7.0222 N   0  0  0  0  0  0  0  0  0  0  0  0
   22.0625  -21.4649   -5.0768 C   0  0  0  0  0  0  0  0  0  0  0  0
   20.9695  -21.1077   -4.3156 O   0  0  0  0  0  0  0  0  0  0  0  0
   23.0080  -22.0667   -4.5183 O   0  0  0  0  0  0  0  0  0  0  0  0
  2  1  1  6
  3  2  1  0
  3  4  1  0
  4  8  1  0
  5  4  2  0
  5  6  1  0
  6  7  1  0
  8  7  2  0
  9 10  2  0
  9  2  1  0
 12 11  1  6
 12 14  1  0
 13 12  1  0
 14 16  1  0
 14 15  1  6
 15  9  1  0
 16 22  1  0
 17 16  2  0
 19 18  1  6
 19 21  1  0
 20 19  1  0
 21 23  1  0
 21 22  1  6
 23 25  2  0
 23 24  1  0
M  END
$$$$
