HVV.pdb
     RDKit          3D

 25 25  0  0  1  0  0  0  0  0999 V2000
   23.3391  -18.6883  -18.3627 N   0  0  0  0  0  0  0  0  0  0  0  0
   23.5836  -18.0517  -17.0878 C   0  0  1  0  0  0  0  0  0  0  0  0
   22.3281  -17.5229  -16.4857 C   0  0  0  0  0  0  0  0  0  0  0  0
   21.9180  -16.3189  -17.2508 C   0  0  0  0  0  0  0  0  0  0  0  0
   22.5148  -15.0903  -17.3572 C   0  0  0  0  0  0  0  0  0  0  0  0
   21.7765  -14.2969  -18.1722 N   0  0  0  0  0  0  0  0  0  0  0  0
   20.7220  -15.0237  -18.5750 C   0  0  0  0  0  0  0  0  0  0  0  0
   20.8128  -16.2546  -18.0111 N   0  0  0  0  0  0  0  0  0  0  0  0
   24.3607  -18.9507  -16.2295 C   0  0  0  0  0  0  0  0  0  0  0  0
   23.8543  -20.0666  -15.9427 O   0  0  0  0  0  0  0  0  0  0  0  0
   28.1966  -18.0562  -15.1078 C   0  0  0  0  0  0  0  0  0  0  0  0
   27.7688  -19.5006  -15.1447 C   0  0  1  0  0  0  0  0  0  0  0  0
   28.6475  -20.4353  -14.3961 C   0  0  0  0  0  0  0  0  0  0  0  0
   26.2877  -19.6388  -14.8470 C   0  0  2  0  0  0  0  0  0  0  0  0
   25.6335  -18.6585  -15.7011 N   0  0  0  0  0  0  0  0  0  0  0  0
   25.9500  -19.4499  -13.4346 C   0  0  0  0  0  0  0  0  0  0  0  0
   25.9068  -18.2671  -12.9449 O   0  0  0  0  0  0  0  0  0  0  0  0
   22.9555  -20.5520  -11.5520 C   0  0  0  0  0  0  0  0  0  0  0  0
   24.1376  -20.9558  -10.6988 C   0  0  1  0  0  0  0  0  0  0  0  0
   24.3258  -22.4458  -10.8381 C   0  0  0  0  0  0  0  0  0  0  0  0
   25.3994  -20.2355  -11.1093 C   0  0  2  0  0  0  0  0  0  0  0  0
   25.6564  -20.5021  -12.5365 N   0  0  0  0  0  0  0  0  0  0  0  0
   26.5167  -20.7694  -10.2996 C   0  0  0  0  0  0  0  0  0  0  0  0
   27.4383  -21.6538  -10.8192 O   0  0  0  0  0  0  0  0  0  0  0  0
   26.6382  -20.4139   -9.1051 O   0  0  0  0  0  0  0  0  0  0  0  0
  2  1  1  6
  3  2  1  0
  3  4  1  0
  4  8  1  0
  5  4  2  0
  5  6  1  0
  6  7  1  0
  8  7  2  0
  9 10  2  0
  9  2  1  0
 12 11  1  1
 12 14  1  0
 13 12  1  0
 14 16  1  0
 14 15  1  6
 15  9  1  0
 16 22  1  0
 17 16  2  0
 19 18  1  6
 19 21  1  0
 20 19  1  0
 21 23  1  0
 21 22  1  6
 23 25  2  0
 23 24  1  0
M  END
$$$$
