HVV.pdb
     RDKit          3D

 25 25  0  0  1  0  0  0  0  0999 V2000
   22.9542  -19.8072  -17.8109 N   0  0  0  0  0  0  0  0  0  0  0  0
   23.2120  -19.0576  -16.6019 C   0  0  1  0  0  0  0  0  0  0  0  0
   21.9490  -18.6419  -15.9307 C   0  0  0  0  0  0  0  0  0  0  0  0
   21.3552  -17.5267  -16.7094 C   0  0  0  0  0  0  0  0  0  0  0  0
   21.9028  -16.3378  -17.1142 C   0  0  0  0  0  0  0  0  0  0  0  0
   20.9795  -15.6262  -17.8071 N   0  0  0  0  0  0  0  0  0  0  0  0
   19.8586  -16.3645  -17.8369 C   0  0  0  0  0  0  0  0  0  0  0  0
   20.0925  -17.5211  -17.1670 N   0  0  0  0  0  0  0  0  0  0  0  0
   24.1578  -19.7939  -15.7581 C   0  0  0  0  0  0  0  0  0  0  0  0
   23.7883  -20.9069  -15.3011 O   0  0  0  0  0  0  0  0  0  0  0  0
   27.8818  -20.4747  -16.3897 C   0  0  0  0  0  0  0  0  0  0  0  0
   27.6930  -19.9527  -14.9888 C   0  0  1  0  0  0  0  0  0  0  0  0
   28.2481  -18.5971  -14.7434 C   0  0  0  0  0  0  0  0  0  0  0  0
   26.2641  -20.1527  -14.5199 C   0  0  2  0  0  0  0  0  0  0  0  0
   25.4508  -19.3485  -15.4201 N   0  0  0  0  0  0  0  0  0  0  0  0
   26.0484  -19.7947  -13.1164 C   0  0  0  0  0  0  0  0  0  0  0  0
   25.9257  -18.5630  -12.7871 O   0  0  0  0  0  0  0  0  0  0  0  0
   23.3277  -20.3859  -10.9317 C   0  0  0  0  0  0  0  0  0  0  0  0
   24.5180  -20.8283  -10.1096 C   0  0  1  0  0  0  0  0  0  0  0  0
   24.5495  -22.3362  -10.1087 C   0  0  0  0  0  0  0  0  0  0  0  0
   25.8146  -20.2852  -10.6604 C   0  0  2  0  0  0  0  0  0  0  0  0
   25.9605  -20.7294  -12.0587 N   0  0  0  0  0  0  0  0  0  0  0  0
   26.9237  -20.8359   -9.8505 C   0  0  0  0  0  0  0  0  0  0  0  0
   27.1427  -20.4417   -8.5474 O   0  0  0  0  0  0  0  0  0  0  0  0
   27.6925  -21.6864  -10.3542 O   0  0  0  0  0  0  0  0  0  0  0  0
  2  1  1  6
  3  2  1  0
  3  4  1  0
  4  8  1  0
  5  4  2  0
  5  6  1  0
  6  7  1  0
  8  7  2  0
  9 10  2  0
  9  2  1  0
 12 11  1  6
 12 14  1  0
 13 12  1  0
 14 16  1  0
 14 15  1  6
 15  9  1  0
 16 22  1  0
 17 16  2  0
 19 18  1  6
 19 21  1  0
 20 19  1  0
 21 23  1  0
 21 22  1  6
 23 25  2  0
 23 24  1  0
M  END
$$$$
