HVV.pdb
     RDKit          3D

 25 25  0  0  1  0  0  0  0  0999 V2000
   19.5634  -15.0812  -16.7056 N   0  0  0  0  0  0  0  0  0  0  0  0
   19.1931  -13.7220  -17.0309 C   0  0  1  0  0  0  0  0  0  0  0  0
   17.7165  -13.5657  -17.1481 C   0  0  0  0  0  0  0  0  0  0  0  0
   17.2655  -14.3078  -18.3517 C   0  0  0  0  0  0  0  0  0  0  0  0
   16.7311  -15.5638  -18.4703 C   0  0  0  0  0  0  0  0  0  0  0  0
   16.4680  -15.8229  -19.7751 N   0  0  0  0  0  0  0  0  0  0  0  0
   16.8352  -14.7354  -20.4715 C   0  0  0  0  0  0  0  0  0  0  0  0
   17.3203  -13.8154  -19.6000 N   0  0  0  0  0  0  0  0  0  0  0  0
   19.8502  -12.7969  -16.1029 C   0  0  0  0  0  0  0  0  0  0  0  0
   19.6037  -12.9280  -14.8756 O   0  0  0  0  0  0  0  0  0  0  0  0
   23.3799  -12.3543  -15.4162 C   0  0  0  0  0  0  0  0  0  0  0  0
   22.8264  -10.9839  -15.7101 C   0  0  1  0  0  0  0  0  0  0  0  0
   23.2591  -10.3958  -17.0035 C   0  0  0  0  0  0  0  0  0  0  0  0
   21.3323  -10.9320  -15.4523 C   0  0  2  0  0  0  0  0  0  0  0  0
   20.7378  -11.7710  -16.4824 N   0  0  0  0  0  0  0  0  0  0  0  0
   20.7792   -9.5761  -15.4608 C   0  0  0  0  0  0  0  0  0  0  0  0
   20.7274   -8.9184  -16.5587 O   0  0  0  0  0  0  0  0  0  0  0  0
   17.3820   -8.4373  -14.4243 C   0  0  0  0  0  0  0  0  0  0  0  0
   18.3733   -7.5263  -13.7346 C   0  0  1  0  0  0  0  0  0  0  0  0
   18.5069   -7.9814  -12.3028 C   0  0  0  0  0  0  0  0  0  0  0  0
   19.7227   -7.5488  -14.4114 C   0  0  2  0  0  0  0  0  0  0  0  0
   20.2795   -8.9108  -14.3172 N   0  0  0  0  0  0  0  0  0  0  0  0
   20.6098   -6.6037  -13.6979 C   0  0  0  0  0  0  0  0  0  0  0  0
   21.6312   -7.0368  -12.8788 O   0  0  0  0  0  0  0  0  0  0  0  0
   20.4365   -5.3712  -13.8350 O   0  0  0  0  0  0  0  0  0  0  0  0
  2  1  1  1
  3  2  1  0
  3  4  1  0
  4  8  1  0
  5  4  2  0
  5  6  1  0
  6  7  1  0
  8  7  2  0
  9 10  2  0
  9  2  1  0
 12 11  1  6
 12 14  1  0
 13 12  1  0
 14 16  1  0
 14 15  1  6
 15  9  1  0
 16 22  1  0
 17 16  2  0
 19 18  1  6
 19 21  1  0
 20 19  1  0
 21 23  1  0
 21 22  1  1
 23 25  2  0
 23 24  1  0
M  END
$$$$
