HVV.pdb
     RDKit          3D

 25 25  0  0  1  0  0  0  0  0999 V2000
   25.1235  -20.8985  -13.7418 N   0  0  0  0  0  0  0  0  0  0  0  0
   24.1947  -20.2329  -12.8560 C   0  0  1  0  0  0  0  0  0  0  0  0
   22.8368  -20.1276  -13.4589 C   0  0  0  0  0  0  0  0  0  0  0  0
   22.9292  -19.2639  -14.6623 C   0  0  0  0  0  0  0  0  0  0  0  0
   23.2640  -17.9406  -14.7804 C   0  0  0  0  0  0  0  0  0  0  0  0
   23.2141  -17.5751  -16.0852 N   0  0  0  0  0  0  0  0  0  0  0  0
   22.8499  -18.6632  -16.7824 C   0  0  0  0  0  0  0  0  0  0  0  0
   22.6776  -19.6891  -15.9112 N   0  0  0  0  0  0  0  0  0  0  0  0
   24.2459  -20.8561  -11.5302 C   0  0  0  0  0  0  0  0  0  0  0  0
   23.8536  -22.0478  -11.4298 O   0  0  0  0  0  0  0  0  0  0  0  0
   25.7469  -18.8820   -8.2259 C   0  0  0  0  0  0  0  0  0  0  0  0
   25.7359  -20.3888   -8.2421 C   0  0  1  0  0  0  0  0  0  0  0  0
   25.8814  -21.0323   -6.9114 C   0  0  0  0  0  0  0  0  0  0  0  0
   24.5911  -20.9171   -9.0858 C   0  0  2  0  0  0  0  0  0  0  0  0
   24.7017  -20.2201  -10.3588 N   0  0  0  0  0  0  0  0  0  0  0  0
   23.2738  -20.7356   -8.4724 C   0  0  0  0  0  0  0  0  0  0  0  0
   22.7034  -19.5897   -8.5207 O   0  0  0  0  0  0  0  0  0  0  0  0
   20.0481  -21.9024   -9.3072 C   0  0  0  0  0  0  0  0  0  0  0  0
   20.1853  -22.2811   -7.8491 C   0  0  1  0  0  0  0  0  0  0  0  0
   20.5138  -23.7514   -7.7781 C   0  0  0  0  0  0  0  0  0  0  0  0
   21.2613  -21.4779   -7.1586 C   0  0  2  0  0  0  0  0  0  0  0  0
   22.5546  -21.7569   -7.8092 N   0  0  0  0  0  0  0  0  0  0  0  0
   21.3186  -21.9082   -5.7441 C   0  0  0  0  0  0  0  0  0  0  0  0
   20.3174  -21.6032   -4.8463 O   0  0  0  0  0  0  0  0  0  0  0  0
   22.3018  -22.5699   -5.3397 O   0  0  0  0  0  0  0  0  0  0  0  0
  2  1  1  6
  3  2  1  0
  3  4  1  0
  4  8  1  0
  5  4  2  0
  5  6  1  0
  6  7  1  0
  8  7  2  0
  9 10  2  0
  9  2  1  0
 12 11  1  1
 12 14  1  0
 13 12  1  0
 14 16  1  0
 14 15  1  6
 15  9  1  0
 16 22  1  0
 17 16  2  0
 19 18  1  6
 19 21  1  0
 20 19  1  0
 21 23  1  0
 21 22  1  6
 23 25  2  0
 23 24  1  0
M  END
$$$$
