HVV.pdb
     RDKit          3D

 25 25  0  0  1  0  0  0  0  0999 V2000
   19.2065  -12.6404  -17.8668 N   0  0  0  0  0  0  0  0  0  0  0  0
   19.7534  -11.3267  -18.1224 C   0  0  1  0  0  0  0  0  0  0  0  0
   18.8407  -10.5034  -18.9635 C   0  0  0  0  0  0  0  0  0  0  0  0
   18.7622  -11.1254  -20.3088 C   0  0  0  0  0  0  0  0  0  0  0  0
   19.6907  -11.1829  -21.3146 C   0  0  0  0  0  0  0  0  0  0  0  0
   19.1740  -11.8590  -22.3703 N   0  0  0  0  0  0  0  0  0  0  0  0
   17.9279  -12.2240  -22.0289 C   0  0  0  0  0  0  0  0  0  0  0  0
   17.6818  -11.7748  -20.7723 N   0  0  0  0  0  0  0  0  0  0  0  0
   20.1673  -10.7110  -16.8580 C   0  0  0  0  0  0  0  0  0  0  0  0
   19.3302  -10.6880  -15.9184 O   0  0  0  0  0  0  0  0  0  0  0  0
   22.6510  -11.7742  -14.5835 C   0  0  0  0  0  0  0  0  0  0  0  0
   22.9480  -10.3147  -14.8118 C   0  0  1  0  0  0  0  0  0  0  0  0
   24.1906  -10.0388  -15.5772 C   0  0  0  0  0  0  0  0  0  0  0  0
   21.7168   -9.5779  -15.3047 C   0  0  2  0  0  0  0  0  0  0  0  0
   21.4333  -10.1427  -16.6159 N   0  0  0  0  0  0  0  0  0  0  0  0
   21.8812   -8.1236  -15.3565 C   0  0  0  0  0  0  0  0  0  0  0  0
   22.5586   -7.5947  -16.3063 O   0  0  0  0  0  0  0  0  0  0  0  0
   20.2287   -3.6128  -14.6601 C   0  0  0  0  0  0  0  0  0  0  0  0
   20.1363   -5.1211  -14.5899 C   0  0  1  0  0  0  0  0  0  0  0  0
   19.3639   -5.5975  -15.7945 C   0  0  0  0  0  0  0  0  0  0  0  0
   21.5006   -5.7672  -14.5628 C   0  0  2  0  0  0  0  0  0  0  0  0
   21.3339   -7.2244  -14.4121 N   0  0  0  0  0  0  0  0  0  0  0  0
   22.2385   -5.2328  -13.3970 C   0  0  0  0  0  0  0  0  0  0  0  0
   22.9417   -4.0481  -13.4578 O   0  0  0  0  0  0  0  0  0  0  0  0
   22.2307   -5.8676  -12.3177 O   0  0  0  0  0  0  0  0  0  0  0  0
  2  1  1  1
  3  2  1  0
  3  4  1  0
  4  8  1  0
  5  4  2  0
  5  6  1  0
  6  7  1  0
  8  7  2  0
  9 10  2  0
  9  2  1  0
 12 11  1  6
 12 14  1  0
 13 12  1  0
 14 16  1  0
 14 15  1  6
 15  9  1  0
 16 22  1  0
 17 16  2  0
 19 18  1  6
 19 21  1  0
 20 19  1  0
 21 23  1  0
 21 22  1  1
 23 25  2  0
 23 24  1  0
M  END
$$$$
