HVV.pdb
     RDKit          3D

 25 25  0  0  1  0  0  0  0  0999 V2000
   25.8958  -18.8515  -15.9868 N   0  0  0  0  0  0  0  0  0  0  0  0
   26.6560  -18.4337  -14.8301 C   0  0  1  0  0  0  0  0  0  0  0  0
   27.0629  -17.0041  -14.9245 C   0  0  0  0  0  0  0  0  0  0  0  0
   28.0045  -16.8640  -16.0633 C   0  0  0  0  0  0  0  0  0  0  0  0
   29.1290  -17.5809  -16.3773 C   0  0  0  0  0  0  0  0  0  0  0  0
   29.6740  -17.0922  -17.5187 N   0  0  0  0  0  0  0  0  0  0  0  0
   28.8956  -16.0741  -17.9189 C   0  0  0  0  0  0  0  0  0  0  0  0
   27.8801  -15.9391  -17.0291 N   0  0  0  0  0  0  0  0  0  0  0  0
   25.9349  -18.8012  -13.6078 C   0  0  0  0  0  0  0  0  0  0  0  0
   24.9996  -18.0472  -13.2328 O   0  0  0  0  0  0  0  0  0  0  0  0
   23.4827  -20.6252  -13.3094 C   0  0  0  0  0  0  0  0  0  0  0  0
   24.3337  -21.2423  -12.2298 C   0  0  1  0  0  0  0  0  0  0  0  0
   24.8890  -22.5808  -12.5560 C   0  0  0  0  0  0  0  0  0  0  0  0
   25.3432  -20.2448  -11.6937 C   0  0  2  0  0  0  0  0  0  0  0  0
   26.2109  -19.9366  -12.8209 N   0  0  0  0  0  0  0  0  0  0  0  0
   26.0971  -20.7327  -10.5369 C   0  0  0  0  0  0  0  0  0  0  0  0
   26.9304  -21.6946  -10.6820 O   0  0  0  0  0  0  0  0  0  0  0  0
   28.5175  -19.4767   -7.9662 C   0  0  0  0  0  0  0  0  0  0  0  0
   27.3175  -20.0094   -7.2149 C   0  0  1  0  0  0  0  0  0  0  0  0
   26.4762  -18.8333   -6.7861 C   0  0  0  0  0  0  0  0  0  0  0  0
   26.4956  -20.9502   -8.0628 C   0  0  2  0  0  0  0  0  0  0  0  0
   25.9773  -20.2104   -9.2281 N   0  0  0  0  0  0  0  0  0  0  0  0
   25.3628  -21.4352   -7.2438 C   0  0  0  0  0  0  0  0  0  0  0  0
   25.5433  -22.3049   -6.1890 O   0  0  0  0  0  0  0  0  0  0  0  0
   24.2008  -21.0503   -7.5080 O   0  0  0  0  0  0  0  0  0  0  0  0
  2  1  1  6
  3  2  1  0
  3  4  1  0
  4  8  1  0
  5  4  2  0
  5  6  1  0
  6  7  1  0
  8  7  2  0
  9 10  2  0
  9  2  1  0
 12 11  1  6
 12 14  1  0
 13 12  1  0
 14 16  1  0
 14 15  1  6
 15  9  1  0
 16 22  1  0
 17 16  2  0
 19 18  1  6
 19 21  1  0
 20 19  1  0
 21 23  1  0
 21 22  1  6
 23 25  2  0
 23 24  1  0
M  END
$$$$
