ACH.pdb
     RDKit          3D

 22 22  0  0  1  0  0  0  0  0999 V2000
    8.2448  -12.8635   17.9376 C   0  0  0  0  0  0  0  0  0  0  0  0
    8.7499  -14.2550   17.6205 C   0  0  2  0  0  0  0  0  0  0  0  0
    8.0137  -14.7886   16.4881 N   0  0  0  0  0  0  0  0  0  0  0  0
    8.5220  -15.1780   18.7618 C   0  0  0  0  0  0  0  0  0  0  0  0
    7.4363  -15.8045   18.7984 O   0  0  0  0  0  0  0  0  0  0  0  0
    9.4679  -15.3796   19.8004 N   0  0  0  0  0  0  0  0  0  0  0  0
    9.2308  -16.2303   20.9478 C   0  0  1  0  0  0  0  0  0  0  0  0
   10.3410  -17.2899   20.9306 C   0  0  0  0  0  0  0  0  0  0  0  0
   11.9611  -16.5253   20.8218 S   0  0  0  0  0  0  0  0  0  0  0  0
    9.4058  -15.4816   22.2206 C   0  0  0  0  0  0  0  0  0  0  0  0
   10.2912  -14.5881   22.2354 O   0  0  0  0  0  0  0  0  0  0  0  0
    8.6615  -15.7046   23.3802 N   0  0  0  0  0  0  0  0  0  0  0  0
    8.7929  -14.8742   24.6097 C   0  0  1  0  0  0  0  0  0  0  0  0
    7.4267  -14.3186   24.8047 C   0  0  0  0  0  0  0  0  0  0  0  0
    7.2089  -13.4072   25.9147 C   0  0  0  0  0  0  0  0  0  0  0  0
    7.9636  -12.8461   26.8906 C   0  0  0  0  0  0  0  0  0  0  0  0
    7.2195  -12.0127   27.6552 N   0  0  0  0  0  0  0  0  0  0  0  0
    5.9959  -12.0601   27.1452 C   0  0  0  0  0  0  0  0  0  0  0  0
    5.9552  -12.8776   26.1118 N   0  0  0  0  0  0  0  0  0  0  0  0
    9.1775  -15.8457   25.6535 C   0  0  0  0  0  0  0  0  0  0  0  0
    8.9058  -17.0460   25.5388 O   0  0  0  0  0  0  0  0  0  0  0  0
    9.8499  -15.4370   26.7830 O   0  0  0  0  0  0  0  0  0  0  0  0
  2  1  1  1
  3  2  1  0
  4  6  1  0
  4  2  1  0
  5  4  2  0
  7  6  1  0
  7 10  1  0
  7  8  1  1
  9  8  1  0
 10 12  1  0
 11 10  2  0
 12 13  1  0
 13 14  1  1
 13 20  1  0
 15 14  1  0
 16 15  2  0
 17 16  1  0
 18 17  1  0
 18 19  2  0
 19 15  1  0
 20 22  1  0
 21 20  2  0
M  END
$$$$
