ACH.pdb
     RDKit          3D

 22 22  0  0  1  0  0  0  0  0999 V2000
    6.1590  -16.4012   20.2516 C   0  0  0  0  0  0  0  0  0  0  0  0
    6.9555  -16.7396   21.4938 C   0  0  2  0  0  0  0  0  0  0  0  0
    6.0619  -17.2642   22.5113 N   0  0  0  0  0  0  0  0  0  0  0  0
    7.5981  -15.5269   22.0621 C   0  0  0  0  0  0  0  0  0  0  0  0
    8.5369  -15.0056   21.4145 O   0  0  0  0  0  0  0  0  0  0  0  0
    7.2008  -14.9393   23.2913 N   0  0  0  0  0  0  0  0  0  0  0  0
    7.8839  -13.8187   23.9029 C   0  0  1  0  0  0  0  0  0  0  0  0
    6.8902  -13.2042   24.8981 C   0  0  0  0  0  0  0  0  0  0  0  0
    6.4221  -14.3922   26.1594 S   0  0  0  0  0  0  0  0  0  0  0  0
    9.0434  -14.2717   24.7164 C   0  0  0  0  0  0  0  0  0  0  0  0
    9.4983  -13.4553   25.5585 O   0  0  0  0  0  0  0  0  0  0  0  0
    9.6481  -15.5249   24.6057 N   0  0  0  0  0  0  0  0  0  0  0  0
   10.6664  -16.0303   25.5679 C   0  0  1  0  0  0  0  0  0  0  0  0
    9.8674  -16.3743   26.7748 C   0  0  0  0  0  0  0  0  0  0  0  0
    9.8671  -15.4394   27.8866 C   0  0  0  0  0  0  0  0  0  0  0  0
    9.6190  -14.1187   28.0623 C   0  0  0  0  0  0  0  0  0  0  0  0
    9.7342  -13.7768   29.3672 N   0  0  0  0  0  0  0  0  0  0  0  0
   10.0551  -14.8969   30.0010 C   0  0  0  0  0  0  0  0  0  0  0  0
   10.1417  -15.9019   29.1522 N   0  0  0  0  0  0  0  0  0  0  0  0
   11.2345  -17.2145   24.8925 C   0  0  0  0  0  0  0  0  0  0  0  0
   10.6673  -17.7284   23.9221 O   0  0  0  0  0  0  0  0  0  0  0  0
   12.4131  -17.7765   25.3286 O   0  0  0  0  0  0  0  0  0  0  0  0
  2  1  1  6
  3  2  1  0
  4  6  1  0
  4  2  1  0
  5  4  2  0
  7  6  1  0
  7 10  1  0
  7  8  1  1
  9  8  1  0
 10 12  1  0
 11 10  2  0
 12 13  1  0
 13 14  1  1
 13 20  1  0
 15 14  1  0
 16 15  2  0
 17 16  1  0
 18 17  1  0
 18 19  2  0
 19 15  1  0
 20 22  1  0
 21 20  2  0
M  END
$$$$
