ACH.pdb
     RDKit          3D

 22 22  0  0  1  0  0  0  0  0999 V2000
    6.8845  -14.6497   20.0335 C   0  0  0  0  0  0  0  0  0  0  0  0
    7.1949  -13.2375   20.4817 C   0  0  2  0  0  0  0  0  0  0  0  0
    8.1621  -12.6454   19.5746 N   0  0  0  0  0  0  0  0  0  0  0  0
    7.8065  -13.2300   21.8355 C   0  0  0  0  0  0  0  0  0  0  0  0
    9.0472  -13.3931   21.9166 O   0  0  0  0  0  0  0  0  0  0  0  0
    7.0571  -13.0484   23.0269 N   0  0  0  0  0  0  0  0  0  0  0  0
    7.6197  -13.1714   24.3554 C   0  0  1  0  0  0  0  0  0  0  0  0
    6.5061  -12.7645   25.3301 C   0  0  0  0  0  0  0  0  0  0  0  0
    7.0303  -12.9764   27.0335 S   0  0  0  0  0  0  0  0  0  0  0  0
    7.9413  -14.5873   24.6767 C   0  0  0  0  0  0  0  0  0  0  0  0
    7.0543  -15.4420   24.4214 O   0  0  0  0  0  0  0  0  0  0  0  0
    9.1456  -15.0196   25.2346 N   0  0  0  0  0  0  0  0  0  0  0  0
    9.4338  -16.4451   25.5559 C   0  0  1  0  0  0  0  0  0  0  0  0
   10.5616  -16.7876   24.6481 C   0  0  0  0  0  0  0  0  0  0  0  0
   11.3281  -17.9890   24.9297 C   0  0  0  0  0  0  0  0  0  0  0  0
   11.3031  -18.9785   25.8554 C   0  0  0  0  0  0  0  0  0  0  0  0
   12.2638  -19.8983   25.6027 N   0  0  0  0  0  0  0  0  0  0  0  0
   12.8856  -19.4721   24.5113 C   0  0  0  0  0  0  0  0  0  0  0  0
   12.3552  -18.3425   24.0863 N   0  0  0  0  0  0  0  0  0  0  0  0
    9.8251  -16.4148   26.9797 C   0  0  0  0  0  0  0  0  0  0  0  0
    9.9882  -15.3432   27.5736 O   0  0  0  0  0  0  0  0  0  0  0  0
   10.0182  -17.5827   27.6823 O   0  0  0  0  0  0  0  0  0  0  0  0
  2  1  1  6
  3  2  1  0
  4  6  1  0
  4  2  1  0
  5  4  2  0
  7  6  1  0
  7 10  1  0
  7  8  1  1
  9  8  1  0
 10 12  1  0
 11 10  2  0
 12 13  1  0
 13 14  1  6
 13 20  1  0
 15 14  1  0
 16 15  2  0
 17 16  1  0
 18 17  1  0
 18 19  2  0
 19 15  1  0
 20 22  1  0
 21 20  2  0
M  END
$$$$
