ACH.pdb
     RDKit          3D

 22 22  0  0  1  0  0  0  0  0999 V2000
    6.8404  -16.4202   21.5493 C   0  0  0  0  0  0  0  0  0  0  0  0
    7.0990  -14.9297   21.4903 C   0  0  2  0  0  0  0  0  0  0  0  0
    7.9549  -14.6335   20.3550 N   0  0  0  0  0  0  0  0  0  0  0  0
    7.8128  -14.4638   22.7068 C   0  0  0  0  0  0  0  0  0  0  0  0
    9.0521  -14.6469   22.7629 O   0  0  0  0  0  0  0  0  0  0  0  0
    7.1614  -13.8279   23.7956 N   0  0  0  0  0  0  0  0  0  0  0  0
    7.8377  -13.4249   25.0108 C   0  0  1  0  0  0  0  0  0  0  0  0
    6.7806  -12.7251   25.8759 C   0  0  0  0  0  0  0  0  0  0  0  0
    7.4629  -12.2429   27.4644 S   0  0  0  0  0  0  0  0  0  0  0  0
    8.2864  -14.6053   25.7961 C   0  0  0  0  0  0  0  0  0  0  0  0
    7.4344  -15.5085   25.9985 O   0  0  0  0  0  0  0  0  0  0  0  0
    9.5721  -14.7707   26.3139 N   0  0  0  0  0  0  0  0  0  0  0  0
    9.9993  -15.9780   27.0743 C   0  0  1  0  0  0  0  0  0  0  0  0
   11.3029  -16.3389   26.4549 C   0  0  0  0  0  0  0  0  0  0  0  0
   11.2880  -17.0015   25.1622 C   0  0  0  0  0  0  0  0  0  0  0  0
   10.3468  -17.4347   24.2887 C   0  0  0  0  0  0  0  0  0  0  0  0
   10.9229  -17.9627   23.1832 N   0  0  0  0  0  0  0  0  0  0  0  0
   12.2305  -17.8529   23.3770 C   0  0  0  0  0  0  0  0  0  0  0  0
   12.4812  -17.2869   24.5410 N   0  0  0  0  0  0  0  0  0  0  0  0
   10.1324  -15.4929   28.4629 C   0  0  0  0  0  0  0  0  0  0  0  0
   10.0776  -14.2863   28.7249 O   0  0  0  0  0  0  0  0  0  0  0  0
   10.3215  -16.3753   29.5024 O   0  0  0  0  0  0  0  0  0  0  0  0
  2  1  1  1
  3  2  1  0
  4  6  1  0
  4  2  1  0
  5  4  2  0
  7  6  1  0
  7 10  1  0
  7  8  1  1
  9  8  1  0
 10 12  1  0
 11 10  2  0
 12 13  1  0
 13 14  1  6
 13 20  1  0
 15 14  1  0
 16 15  2  0
 17 16  1  0
 18 17  1  0
 18 19  2  0
 19 15  1  0
 20 22  1  0
 21 20  2  0
M  END
$$$$
