ACH.pdb
     RDKit          3D

 22 22  0  0  1  0  0  0  0  0999 V2000
    7.9843  -12.5024   19.2742 C   0  0  0  0  0  0  0  0  0  0  0  0
    8.0834  -13.8686   19.9188 C   0  0  2  0  0  0  0  0  0  0  0  0
    6.7791  -14.5068   19.8990 N   0  0  0  0  0  0  0  0  0  0  0  0
    8.4923  -13.7580   21.3426 C   0  0  0  0  0  0  0  0  0  0  0  0
    9.6880  -13.4690   21.5861 O   0  0  0  0  0  0  0  0  0  0  0  0
    7.5996  -13.9628   22.4267 N   0  0  0  0  0  0  0  0  0  0  0  0
    8.0078  -13.9502   23.8158 C   0  0  1  0  0  0  0  0  0  0  0  0
    6.7831  -13.4875   24.6168 C   0  0  0  0  0  0  0  0  0  0  0  0
    7.0920  -13.5853   26.3821 S   0  0  0  0  0  0  0  0  0  0  0  0
    8.3140  -15.3221   24.3012 C   0  0  0  0  0  0  0  0  0  0  0  0
    7.4459  -16.2066   24.0850 O   0  0  0  0  0  0  0  0  0  0  0  0
    9.4845  -15.6834   24.9703 N   0  0  0  0  0  0  0  0  0  0  0  0
    9.8452  -17.0937   25.2854 C   0  0  1  0  0  0  0  0  0  0  0  0
   10.8851  -17.4236   24.2738 C   0  0  0  0  0  0  0  0  0  0  0  0
   11.5805  -18.6933   24.3940 C   0  0  0  0  0  0  0  0  0  0  0  0
   11.2424  -19.9808   24.6487 C   0  0  0  0  0  0  0  0  0  0  0  0
   12.3316  -20.7833   24.5984 N   0  0  0  0  0  0  0  0  0  0  0  0
   13.3494  -19.9833   24.3093 C   0  0  0  0  0  0  0  0  0  0  0  0
   12.9384  -18.7373   24.1813 N   0  0  0  0  0  0  0  0  0  0  0  0
   10.3774  -17.0239   26.6613 C   0  0  0  0  0  0  0  0  0  0  0  0
   10.7020  -15.9432   27.1655 O   0  0  0  0  0  0  0  0  0  0  0  0
   10.5253  -18.1642   27.4182 O   0  0  0  0  0  0  0  0  0  0  0  0
  2  1  1  1
  3  2  1  0
  4  6  1  0
  4  2  1  0
  5  4  2  0
  7  6  1  0
  7 10  1  0
  7  8  1  1
  9  8  1  0
 10 12  1  0
 11 10  2  0
 12 13  1  0
 13 14  1  6
 13 20  1  0
 15 14  1  0
 16 15  2  0
 17 16  1  0
 18 17  1  0
 18 19  2  0
 19 15  1  0
 20 22  1  0
 21 20  2  0
M  END
$$$$
