ACH.pdb
     RDKit          3D

 22 22  0  0  1  0  0  0  0  0999 V2000
    8.3740  -14.9690   16.7097 C   0  0  0  0  0  0  0  0  0  0  0  0
    7.9734  -13.8605   17.6599 C   0  0  2  0  0  0  0  0  0  0  0  0
    8.1864  -12.5752   17.0183 N   0  0  0  0  0  0  0  0  0  0  0  0
    8.8126  -13.8796   18.8855 C   0  0  0  0  0  0  0  0  0  0  0  0
    9.9036  -13.2622   18.8558 O   0  0  0  0  0  0  0  0  0  0  0  0
    8.4381  -14.5579   20.0745 N   0  0  0  0  0  0  0  0  0  0  0  0
    9.2321  -14.5531   21.2852 C   0  0  1  0  0  0  0  0  0  0  0  0
    8.3711  -15.2252   22.3634 C   0  0  0  0  0  0  0  0  0  0  0  0
    7.2846  -14.0362   23.1554 S   0  0  0  0  0  0  0  0  0  0  0  0
   10.4408  -15.4076   21.1418 C   0  0  0  0  0  0  0  0  0  0  0  0
   10.2955  -16.4964   20.5286 O   0  0  0  0  0  0  0  0  0  0  0  0
   11.7047  -15.0823   21.6368 N   0  0  0  0  0  0  0  0  0  0  0  0
   12.8636  -16.0172   21.6002 C   0  0  1  0  0  0  0  0  0  0  0  0
   13.9795  -15.1721   21.0963 C   0  0  0  0  0  0  0  0  0  0  0  0
   14.1654  -15.0668   19.6594 C   0  0  0  0  0  0  0  0  0  0  0  0
   13.5478  -15.5394   18.5495 C   0  0  0  0  0  0  0  0  0  0  0  0
   14.1483  -15.0732   17.4292 N   0  0  0  0  0  0  0  0  0  0  0  0
   15.1439  -14.3060   17.8528 C   0  0  0  0  0  0  0  0  0  0  0  0
   15.1819  -14.2804   19.1704 N   0  0  0  0  0  0  0  0  0  0  0  0
   13.0355  -16.4232   23.0097 C   0  0  0  0  0  0  0  0  0  0  0  0
   13.9406  -17.1950   23.3453 O   0  0  0  0  0  0  0  0  0  0  0  0
   12.1892  -15.9506   23.9873 O   0  0  0  0  0  0  0  0  0  0  0  0
  2  1  1  6
  3  2  1  0
  4  6  1  0
  4  2  1  0
  5  4  2  0
  7  6  1  0
  7 10  1  0
  7  8  1  1
  9  8  1  0
 10 12  1  0
 11 10  2  0
 12 13  1  0
 13 14  1  1
 13 20  1  0
 15 14  1  0
 16 15  2  0
 17 16  1  0
 18 17  1  0
 18 19  2  0
 19 15  1  0
 20 22  1  0
 21 20  2  0
M  END
$$$$
