IWW.pdb
     RDKit          3D

 37 40  0  0  1  0  0  0  0  0999 V2000
    7.5683  -11.6298   20.6146 C   0  0  0  0  0  0  0  0  0  0  0  0
    7.6852  -13.0591   21.0205 C   0  0  0  0  0  0  0  0  0  0  0  0
    8.7410  -13.8385   20.2064 C   0  0  2  0  0  0  0  0  0  0  0  0
    8.5505  -13.5396   18.7532 C   0  0  0  0  0  0  0  0  0  0  0  0
    8.8179  -15.2835   20.5562 C   0  0  2  0  0  0  0  0  0  0  0  0
    7.6874  -16.0730   20.2395 N   0  0  0  0  0  0  0  0  0  0  0  0
    9.2261  -15.3820   22.0064 C   0  0  0  0  0  0  0  0  0  0  0  0
    9.7849  -14.3865   22.5326 O   0  0  0  0  0  0  0  0  0  0  0  0
    9.0005  -16.5285   22.7649 N   0  0  0  0  0  0  0  0  0  0  0  0
    9.4822  -16.7978   24.0778 C   0  0  1  0  0  0  0  0  0  0  0  0
    8.2539  -17.1301   24.9273 C   0  0  0  0  0  0  0  0  0  0  0  0
    7.1250  -16.2229   24.7759 C   0  0  0  0  0  0  0  0  0  0  0  0
    5.9729  -16.3139   24.0434 C   0  0  0  0  0  0  0  0  0  0  0  0
    5.2954  -15.1576   24.2702 N   0  0  0  0  0  0  0  0  0  0  0  0
    5.9423  -14.3556   25.0914 C   0  0  0  0  0  0  0  0  0  0  0  0
    5.6873  -13.0887   25.6313 C   0  0  0  0  0  0  0  0  0  0  0  0
    6.5733  -12.5061   26.4832 C   0  0  0  0  0  0  0  0  0  0  0  0
    7.7387  -13.1100   26.8462 C   0  0  0  0  0  0  0  0  0  0  0  0
    8.0033  -14.3621   26.3183 C   0  0  0  0  0  0  0  0  0  0  0  0
    7.1144  -14.9835   25.4422 C   0  0  0  0  0  0  0  0  0  0  0  0
   10.5412  -17.8263   24.1835 C   0  0  0  0  0  0  0  0  0  0  0  0
   11.4505  -17.9706   23.3161 O   0  0  0  0  0  0  0  0  0  0  0  0
   10.5732  -18.6979   25.3071 N   0  0  0  0  0  0  0  0  0  0  0  0
   11.6915  -19.0743   26.1003 C   0  0  1  0  0  0  0  0  0  0  0  0
   12.5405  -17.8755   26.5636 C   0  0  0  0  0  0  0  0  0  0  0  0
   11.8495  -17.1972   27.6844 C   0  0  0  0  0  0  0  0  0  0  0  0
   11.4274  -17.8150   28.8548 C   0  0  0  0  0  0  0  0  0  0  0  0
   10.8516  -16.9072   29.6156 N   0  0  0  0  0  0  0  0  0  0  0  0
   10.8675  -15.7092   29.0186 C   0  0  0  0  0  0  0  0  0  0  0  0
   10.3905  -14.4837   29.4421 C   0  0  0  0  0  0  0  0  0  0  0  0
   10.5432  -13.3774   28.6239 C   0  0  0  0  0  0  0  0  0  0  0  0
   11.1642  -13.5384   27.4099 C   0  0  0  0  0  0  0  0  0  0  0  0
   11.6410  -14.7670   26.9889 C   0  0  0  0  0  0  0  0  0  0  0  0
   11.4917  -15.8686   27.8025 C   0  0  0  0  0  0  0  0  0  0  0  0
   11.4171  -19.9912   27.2067 C   0  0  0  0  0  0  0  0  0  0  0  0
   12.4030  -20.6450   27.9287 O   0  0  0  0  0  0  0  0  0  0  0  0
   10.2325  -20.2405   27.5575 O   0  0  0  0  0  0  0  0  0  0  0  0
  2  1  1  0
  3  2  1  0
  3  4  1  6
  5  6  1  1
  5  3  1  0
  7  5  1  0
  7  8  2  0
  9  7  1  0
 10  9  1  0
 10 21  1  0
 11 12  1  0
 10 11  1  1
 12 20  1  0
 13 14  1  0
 13 12  2  0
 14 15  1  0
 15 20  2  0
 15 16  1  0
 16 17  2  0
 17 18  1  0
 19 18  2  0
 20 19  1  0
 21 22  2  0
 21 23  1  0
 23 24  1  0
 24 35  1  0
 24 25  1  1
 26 25  1  0
 27 26  2  0
 28 27  1  0
 29 28  1  0
 29 34  2  0
 30 29  1  0
 31 30  2  0
 31 32  1  0
 32 33  2  0
 33 34  1  0
 34 26  1  0
 35 37  2  0
 35 36  1  0
M  END
$$$$
