IWW.pdb
     RDKit          3D

 37 40  0  0  1  0  0  0  0  0999 V2000
    6.8432  -12.0239   18.0261 C   0  0  0  0  0  0  0  0  0  0  0  0
    7.3318  -13.4191   18.2158 C   0  0  0  0  0  0  0  0  0  0  0  0
    8.0631  -13.6306   19.5594 C   0  0  2  0  0  0  0  0  0  0  0  0
    9.1683  -12.6290   19.6728 C   0  0  0  0  0  0  0  0  0  0  0  0
    8.4549  -15.0447   19.8104 C   0  0  2  0  0  0  0  0  0  0  0  0
    7.4525  -16.0239   19.6159 N   0  0  0  0  0  0  0  0  0  0  0  0
    9.0915  -15.1071   21.1781 C   0  0  0  0  0  0  0  0  0  0  0  0
   10.1004  -14.3892   21.3943 O   0  0  0  0  0  0  0  0  0  0  0  0
    8.5955  -15.9247   22.1911 N   0  0  0  0  0  0  0  0  0  0  0  0
    9.1023  -16.0534   23.5158 C   0  0  1  0  0  0  0  0  0  0  0  0
    8.0149  -16.7623   24.3257 C   0  0  0  0  0  0  0  0  0  0  0  0
    6.9663  -15.9007   24.8530 C   0  0  0  0  0  0  0  0  0  0  0  0
    5.6888  -16.1656   25.2656 C   0  0  0  0  0  0  0  0  0  0  0  0
    5.1626  -14.9690   25.6386 N   0  0  0  0  0  0  0  0  0  0  0  0
    6.0208  -13.9805   25.4889 C   0  0  0  0  0  0  0  0  0  0  0  0
    5.9791  -12.5999   25.7206 C   0  0  0  0  0  0  0  0  0  0  0  0
    7.0639  -11.8202   25.4648 C   0  0  0  0  0  0  0  0  0  0  0  0
    8.2269  -12.3300   24.9726 C   0  0  0  0  0  0  0  0  0  0  0  0
    8.2805  -13.6933   24.7380 C   0  0  0  0  0  0  0  0  0  0  0  0
    7.1843  -14.5172   24.9898 C   0  0  0  0  0  0  0  0  0  0  0  0
   10.4241  -16.7066   23.6456 C   0  0  0  0  0  0  0  0  0  0  0  0
   10.7307  -17.7693   23.0320 O   0  0  0  0  0  0  0  0  0  0  0  0
   11.4211  -16.1291   24.4797 N   0  0  0  0  0  0  0  0  0  0  0  0
   12.7159  -16.6314   24.7844 C   0  0  1  0  0  0  0  0  0  0  0  0
   13.2312  -16.1880   26.1666 C   0  0  0  0  0  0  0  0  0  0  0  0
   12.1993  -16.4861   27.1864 C   0  0  0  0  0  0  0  0  0  0  0  0
   11.8218  -17.7594   27.5936 C   0  0  0  0  0  0  0  0  0  0  0  0
   10.8799  -17.6380   28.5061 N   0  0  0  0  0  0  0  0  0  0  0  0
   10.6063  -16.3480   28.7362 C   0  0  0  0  0  0  0  0  0  0  0  0
    9.7077  -15.7570   29.6033 C   0  0  0  0  0  0  0  0  0  0  0  0
    9.6250  -14.3761   29.6563 C   0  0  0  0  0  0  0  0  0  0  0  0
   10.4418  -13.6367   28.8368 C   0  0  0  0  0  0  0  0  0  0  0  0
   11.3409  -14.2317   27.9699 C   0  0  0  0  0  0  0  0  0  0  0  0
   11.4260  -15.6057   27.9171 C   0  0  0  0  0  0  0  0  0  0  0  0
   12.9156  -18.0656   24.5771 C   0  0  0  0  0  0  0  0  0  0  0  0
   12.2742  -19.0479   25.3149 O   0  0  0  0  0  0  0  0  0  0  0  0
   13.7124  -18.4837   23.6944 O   0  0  0  0  0  0  0  0  0  0  0  0
  2  1  1  0
  3  2  1  0
  3  4  1  6
  5  6  1  1
  5  3  1  0
  7  5  1  0
  7  8  2  0
  9  7  1  0
 10  9  1  0
 10 21  1  0
 11 12  1  0
 10 11  1  1
 12 20  1  0
 13 14  1  0
 13 12  2  0
 14 15  1  0
 15 20  2  0
 15 16  1  0
 16 17  2  0
 17 18  1  0
 19 18  2  0
 20 19  1  0
 21 22  2  0
 21 23  1  0
 23 24  1  0
 24 35  1  0
 24 25  1  1
 26 25  1  0
 27 26  2  0
 28 27  1  0
 29 28  1  0
 29 34  2  0
 30 29  1  0
 31 30  2  0
 31 32  1  0
 32 33  2  0
 33 34  1  0
 34 26  1  0
 35 37  2  0
 35 36  1  0
M  END
$$$$
