IWW.pdb
     RDKit          3D

 37 40  0  0  1  0  0  0  0  0999 V2000
    5.5376  -16.9876   18.2224 C   0  0  0  0  0  0  0  0  0  0  0  0
    6.5208  -17.7403   19.0519 C   0  0  0  0  0  0  0  0  0  0  0  0
    7.4243  -16.8242   19.9058 C   0  0  2  0  0  0  0  0  0  0  0  0
    8.1217  -15.8549   19.0050 C   0  0  0  0  0  0  0  0  0  0  0  0
    8.3050  -17.5655   20.8498 C   0  0  2  0  0  0  0  0  0  0  0  0
    7.6963  -18.5901   21.6122 N   0  0  0  0  0  0  0  0  0  0  0  0
    9.0313  -16.5460   21.6941 C   0  0  0  0  0  0  0  0  0  0  0  0
    9.7030  -15.6613   21.1058 O   0  0  0  0  0  0  0  0  0  0  0  0
    8.9747  -16.5590   23.0860 N   0  0  0  0  0  0  0  0  0  0  0  0
    9.6595  -15.6884   23.9811 C   0  0  1  0  0  0  0  0  0  0  0  0
    8.9086  -15.7618   25.3120 C   0  0  0  0  0  0  0  0  0  0  0  0
    7.5476  -15.2446   25.2913 C   0  0  0  0  0  0  0  0  0  0  0  0
    6.3358  -15.8686   25.1701 C   0  0  0  0  0  0  0  0  0  0  0  0
    5.4040  -14.8792   25.1926 N   0  0  0  0  0  0  0  0  0  0  0  0
    5.9487  -13.6863   25.3202 C   0  0  0  0  0  0  0  0  0  0  0  0
    5.4478  -12.3806   25.3952 C   0  0  0  0  0  0  0  0  0  0  0  0
    6.2895  -11.3214   25.5364 C   0  0  0  0  0  0  0  0  0  0  0  0
    7.6415  -11.4703   25.6052 C   0  0  0  0  0  0  0  0  0  0  0  0
    8.1493  -12.7560   25.5310 C   0  0  0  0  0  0  0  0  0  0  0  0
    7.3112  -13.8606   25.3853 C   0  0  0  0  0  0  0  0  0  0  0  0
   11.1124  -15.9256   24.1347 C   0  0  0  0  0  0  0  0  0  0  0  0
   11.9805  -15.0232   23.9561 O   0  0  0  0  0  0  0  0  0  0  0  0
   11.5841  -17.2129   24.5137 N   0  0  0  0  0  0  0  0  0  0  0  0
   12.8964  -17.5903   24.9098 C   0  0  1  0  0  0  0  0  0  0  0  0
   13.4123  -16.8078   26.1320 C   0  0  0  0  0  0  0  0  0  0  0  0
   12.4246  -16.9188   27.2301 C   0  0  0  0  0  0  0  0  0  0  0  0
   11.9480  -18.1115   27.7594 C   0  0  0  0  0  0  0  0  0  0  0  0
   11.0848  -17.8240   28.7117 N   0  0  0  0  0  0  0  0  0  0  0  0
   10.9585  -16.4988   28.8527 C   0  0  0  0  0  0  0  0  0  0  0  0
   10.1827  -15.7537   29.7196 C   0  0  0  0  0  0  0  0  0  0  0  0
   10.2433  -14.3716   29.6660 C   0  0  0  0  0  0  0  0  0  0  0  0
   11.0751  -13.7854   28.7442 C   0  0  0  0  0  0  0  0  0  0  0  0
   11.8510  -14.5346   27.8777 C   0  0  0  0  0  0  0  0  0  0  0  0
   11.7935  -15.9100   27.9309 C   0  0  0  0  0  0  0  0  0  0  0  0
   13.1370  -19.0258   25.0568 C   0  0  0  0  0  0  0  0  0  0  0  0
   14.3771  -19.5742   25.3436 O   0  0  0  0  0  0  0  0  0  0  0  0
   12.1972  -19.8538   24.9163 O   0  0  0  0  0  0  0  0  0  0  0  0
  2  1  1  0
  3  2  1  0
  3  4  1  6
  5  6  1  1
  5  3  1  0
  7  5  1  0
  7  8  2  0
  9  7  1  0
 10  9  1  0
 10 21  1  0
 11 12  1  0
 10 11  1  1
 12 20  1  0
 13 14  1  0
 13 12  2  0
 14 15  1  0
 15 20  2  0
 15 16  1  0
 16 17  2  0
 17 18  1  0
 19 18  2  0
 20 19  1  0
 21 22  2  0
 21 23  1  0
 23 24  1  0
 24 35  1  0
 24 25  1  1
 26 25  1  0
 27 26  2  0
 28 27  1  0
 29 28  1  0
 29 34  2  0
 30 29  1  0
 31 30  2  0
 31 32  1  0
 32 33  2  0
 33 34  1  0
 34 26  1  0
 35 37  2  0
 35 36  1  0
M  END
$$$$
