IWW.pdb
     RDKit          3D

 37 40  0  0  1  0  0  0  0  0999 V2000
    8.0585  -12.3840   18.3226 C   0  0  0  0  0  0  0  0  0  0  0  0
    8.4361  -13.8254   18.3563 C   0  0  0  0  0  0  0  0  0  0  0  0
    8.1171  -14.5068   19.7050 C   0  0  2  0  0  0  0  0  0  0  0  0
    8.8107  -13.7615   20.8008 C   0  0  0  0  0  0  0  0  0  0  0  0
    8.3357  -15.9793   19.6969 C   0  0  2  0  0  0  0  0  0  0  0  0
    7.7171  -16.7059   18.6524 N   0  0  0  0  0  0  0  0  0  0  0  0
    7.9902  -16.5006   21.0711 C   0  0  0  0  0  0  0  0  0  0  0  0
    6.7753  -16.6005   21.3778 O   0  0  0  0  0  0  0  0  0  0  0  0
    8.9678  -16.8702   21.9922 N   0  0  0  0  0  0  0  0  0  0  0  0
    8.7767  -17.1791   23.3693 C   0  0  1  0  0  0  0  0  0  0  0  0
    8.8488  -18.7031   23.4828 C   0  0  0  0  0  0  0  0  0  0  0  0
    8.2117  -19.2731   24.6615 C   0  0  0  0  0  0  0  0  0  0  0  0
    6.9317  -19.6986   24.8914 C   0  0  0  0  0  0  0  0  0  0  0  0
    6.9049  -20.1158   26.1848 N   0  0  0  0  0  0  0  0  0  0  0  0
    8.0755  -19.9816   26.7746 C   0  0  0  0  0  0  0  0  0  0  0  0
    8.5662  -20.2550   28.0575 C   0  0  0  0  0  0  0  0  0  0  0  0
    9.8659  -20.0048   28.3713 C   0  0  0  0  0  0  0  0  0  0  0  0
   10.7433  -19.4785   27.4725 C   0  0  0  0  0  0  0  0  0  0  0  0
   10.2702  -19.2025   26.2011 C   0  0  0  0  0  0  0  0  0  0  0  0
    8.9432  -19.4475   25.8510 C   0  0  0  0  0  0  0  0  0  0  0  0
    9.6813  -16.4952   24.3205 C   0  0  0  0  0  0  0  0  0  0  0  0
   10.9385  -16.6323   24.2956 O   0  0  0  0  0  0  0  0  0  0  0  0
    9.1436  -15.6265   25.3102 N   0  0  0  0  0  0  0  0  0  0  0  0
    9.7432  -15.1945   26.5249 C   0  0  1  0  0  0  0  0  0  0  0  0
    8.7347  -15.0324   27.6778 C   0  0  0  0  0  0  0  0  0  0  0  0
    7.5568  -14.2796   27.1882 C   0  0  0  0  0  0  0  0  0  0  0  0
    6.3448  -14.8459   26.8140 C   0  0  0  0  0  0  0  0  0  0  0  0
    5.5387  -13.8778   26.4299 N   0  0  0  0  0  0  0  0  0  0  0  0
    6.1449  -12.6885   26.5296 C   0  0  0  0  0  0  0  0  0  0  0  0
    5.6869  -11.4160   26.2477 C   0  0  0  0  0  0  0  0  0  0  0  0
    6.5259  -10.3335   26.4496 C   0  0  0  0  0  0  0  0  0  0  0  0
    7.7942  -10.5640   26.9226 C   0  0  0  0  0  0  0  0  0  0  0  0
    8.2496  -11.8397   27.2043 C   0  0  0  0  0  0  0  0  0  0  0  0
    7.4155  -12.9180   27.0059 C   0  0  0  0  0  0  0  0  0  0  0  0
   10.9298  -15.9336   26.9560 C   0  0  0  0  0  0  0  0  0  0  0  0
   11.4327  -17.0403   26.2905 O   0  0  0  0  0  0  0  0  0  0  0  0
   11.5623  -15.5889   27.9903 O   0  0  0  0  0  0  0  0  0  0  0  0
  2  1  1  0
  3  2  1  0
  3  4  1  1
  5  6  1  6
  5  3  1  0
  7  5  1  0
  7  8  2  0
  9  7  1  0
 10  9  1  0
 10 21  1  0
 11 12  1  0
 10 11  1  6
 12 20  1  0
 13 14  1  0
 13 12  2  0
 14 15  1  0
 15 20  2  0
 15 16  1  0
 16 17  2  0
 17 18  1  0
 19 18  2  0
 20 19  1  0
 21 22  2  0
 21 23  1  0
 23 24  1  0
 24 35  1  0
 24 25  1  1
 26 25  1  0
 27 26  2  0
 28 27  1  0
 29 28  1  0
 29 34  2  0
 30 29  1  0
 31 30  2  0
 31 32  1  0
 32 33  2  0
 33 34  1  0
 34 26  1  0
 35 37  2  0
 35 36  1  0
M  END
$$$$
