IWW.pdb
     RDKit          3D

 37 40  0  0  1  0  0  0  0  0999 V2000
    6.7872  -12.1518   18.2924 C   0  0  0  0  0  0  0  0  0  0  0  0
    7.2495  -13.5524   18.5068 C   0  0  0  0  0  0  0  0  0  0  0  0
    8.0436  -13.7372   19.8183 C   0  0  2  0  0  0  0  0  0  0  0  0
    9.1512  -12.7327   19.8602 C   0  0  0  0  0  0  0  0  0  0  0  0
    8.4493  -15.1458   20.0778 C   0  0  2  0  0  0  0  0  0  0  0  0
    7.4355  -16.1269   19.9714 N   0  0  0  0  0  0  0  0  0  0  0  0
    9.1719  -15.1770   21.4031 C   0  0  0  0  0  0  0  0  0  0  0  0
   10.2086  -14.4772   21.5281 O   0  0  0  0  0  0  0  0  0  0  0  0
    8.7248  -15.9469   22.4745 N   0  0  0  0  0  0  0  0  0  0  0  0
    9.3166  -16.0465   23.7660 C   0  0  1  0  0  0  0  0  0  0  0  0
    8.2628  -16.6827   24.6746 C   0  0  0  0  0  0  0  0  0  0  0  0
    7.0783  -15.8724   24.9207 C   0  0  0  0  0  0  0  0  0  0  0  0
    5.7565  -16.2029   25.0476 C   0  0  0  0  0  0  0  0  0  0  0  0
    5.0974  -15.0310   25.2473 N   0  0  0  0  0  0  0  0  0  0  0  0
    5.9138  -13.9968   25.2551 C   0  0  0  0  0  0  0  0  0  0  0  0
    5.7482  -12.6157   25.4182 C   0  0  0  0  0  0  0  0  0  0  0  0
    6.8200  -11.7790   25.3813 C   0  0  0  0  0  0  0  0  0  0  0  0
    8.0892  -12.2305   25.1812 C   0  0  0  0  0  0  0  0  0  0  0  0
    8.2662  -13.5937   25.0172 C   0  0  0  0  0  0  0  0  0  0  0  0
    7.1866  -14.4752   25.0494 C   0  0  0  0  0  0  0  0  0  0  0  0
   10.6199  -16.7451   23.8319 C   0  0  0  0  0  0  0  0  0  0  0  0
   11.0510  -17.4879   22.9033 O   0  0  0  0  0  0  0  0  0  0  0  0
   11.4545  -16.5821   24.9720 N   0  0  0  0  0  0  0  0  0  0  0  0
   12.7236  -17.1700   25.2278 C   0  0  1  0  0  0  0  0  0  0  0  0
   13.4305  -16.5796   26.4624 C   0  0  0  0  0  0  0  0  0  0  0  0
   12.5136  -16.6472   27.6236 C   0  0  0  0  0  0  0  0  0  0  0  0
   12.3020  -17.7719   28.4111 C   0  0  0  0  0  0  0  0  0  0  0  0
   11.4227  -17.4638   29.3419 N   0  0  0  0  0  0  0  0  0  0  0  0
   11.0340  -16.1884   29.2233 C   0  0  0  0  0  0  0  0  0  0  0  0
   10.1453  -15.4425   29.9733 C   0  0  0  0  0  0  0  0  0  0  0  0
    9.9232  -14.1172   29.6407 C   0  0  0  0  0  0  0  0  0  0  0  0
   10.5955  -13.5873   28.5671 C   0  0  0  0  0  0  0  0  0  0  0  0
   11.4852  -14.3369   27.8183 C   0  0  0  0  0  0  0  0  0  0  0  0
   11.7089  -15.6554   28.1489 C   0  0  0  0  0  0  0  0  0  0  0  0
   12.7656  -18.6323   25.2391 C   0  0  0  0  0  0  0  0  0  0  0  0
   11.6370  -19.4356   25.2817 O   0  0  0  0  0  0  0  0  0  0  0  0
   13.8669  -19.2448   25.2182 O   0  0  0  0  0  0  0  0  0  0  0  0
  2  1  1  0
  3  2  1  0
  3  4  1  6
  5  6  1  1
  5  3  1  0
  7  5  1  0
  7  8  2  0
  9  7  1  0
 10  9  1  0
 10 21  1  0
 11 12  1  0
 10 11  1  1
 12 20  1  0
 13 14  1  0
 13 12  2  0
 14 15  1  0
 15 20  2  0
 15 16  1  0
 16 17  2  0
 17 18  1  0
 19 18  2  0
 20 19  1  0
 21 22  2  0
 21 23  1  0
 23 24  1  0
 24 35  1  0
 24 25  1  1
 26 25  1  0
 27 26  2  0
 28 27  1  0
 29 28  1  0
 29 34  2  0
 30 29  1  0
 31 30  2  0
 31 32  1  0
 32 33  2  0
 33 34  1  0
 34 26  1  0
 35 37  2  0
 35 36  1  0
M  END
$$$$
