IWW.pdb
     RDKit          3D

 37 40  0  0  1  0  0  0  0  0999 V2000
   10.4854  -19.3192   15.8563 C   0  0  0  0  0  0  0  0  0  0  0  0
    9.1419  -18.8278   16.2743 C   0  0  0  0  0  0  0  0  0  0  0  0
    9.2051  -17.7389   17.3675 C   0  0  2  0  0  0  0  0  0  0  0  0
   10.2749  -16.7559   17.0116 C   0  0  0  0  0  0  0  0  0  0  0  0
    9.2742  -18.2845   18.7509 C   0  0  2  0  0  0  0  0  0  0  0  0
    8.3668  -19.3223   19.0687 N   0  0  0  0  0  0  0  0  0  0  0  0
    9.2036  -17.1178   19.7068 C   0  0  0  0  0  0  0  0  0  0  0  0
   10.0612  -16.2061   19.5916 O   0  0  0  0  0  0  0  0  0  0  0  0
    8.2264  -17.0262   20.6953 N   0  0  0  0  0  0  0  0  0  0  0  0
    8.1098  -16.0200   21.6965 C   0  0  1  0  0  0  0  0  0  0  0  0
    6.9182  -16.4177   22.5698 C   0  0  0  0  0  0  0  0  0  0  0  0
    6.9070  -15.8473   23.9095 C   0  0  0  0  0  0  0  0  0  0  0  0
    6.8365  -16.4262   25.1473 C   0  0  0  0  0  0  0  0  0  0  0  0
    6.8410  -15.4001   26.0388 N   0  0  0  0  0  0  0  0  0  0  0  0
    6.9105  -14.2260   25.4447 C   0  0  0  0  0  0  0  0  0  0  0  0
    6.9457  -12.8993   25.8919 C   0  0  0  0  0  0  0  0  0  0  0  0
    7.0275  -11.8703   25.0062 C   0  0  0  0  0  0  0  0  0  0  0  0
    7.0726  -12.0706   23.6598 C   0  0  0  0  0  0  0  0  0  0  0  0
    7.0371  -13.3776   23.2049 C   0  0  0  0  0  0  0  0  0  0  0  0
    6.9526  -14.4523   24.0889 C   0  0  0  0  0  0  0  0  0  0  0  0
    9.3295  -15.7474   22.4895 C   0  0  0  0  0  0  0  0  0  0  0  0
    9.9101  -14.6237   22.4961 O   0  0  0  0  0  0  0  0  0  0  0  0
    9.8899  -16.7713   23.3023 N   0  0  0  0  0  0  0  0  0  0  0  0
   11.1420  -16.7769   23.9759 C   0  0  1  0  0  0  0  0  0  0  0  0
   11.3062  -15.6082   24.9656 C   0  0  0  0  0  0  0  0  0  0  0  0
   10.8704  -16.0483   26.3110 C   0  0  0  0  0  0  0  0  0  0  0  0
   10.6232  -17.3643   26.6808 C   0  0  0  0  0  0  0  0  0  0  0  0
   10.2517  -17.3745   27.9443 N   0  0  0  0  0  0  0  0  0  0  0  0
   10.2394  -16.1331   28.4448 C   0  0  0  0  0  0  0  0  0  0  0  0
    9.9259  -15.6732   29.7092 C   0  0  0  0  0  0  0  0  0  0  0  0
   10.0028  -14.3168   29.9756 C   0  0  0  0  0  0  0  0  0  0  0  0
   10.3869  -13.4694   28.9658 C   0  0  0  0  0  0  0  0  0  0  0  0
   10.7006  -13.9333   27.7006 C   0  0  0  0  0  0  0  0  0  0  0  0
   10.6265  -15.2829   27.4343 C   0  0  0  0  0  0  0  0  0  0  0  0
   11.5420  -18.0471   24.5814 C   0  0  0  0  0  0  0  0  0  0  0  0
   10.7127  -19.1540   24.6697 O   0  0  0  0  0  0  0  0  0  0  0  0
   12.6937  -18.1918   25.0726 O   0  0  0  0  0  0  0  0  0  0  0  0
  2  1  1  0
  3  2  1  0
  3  4  1  6
  5  6  1  1
  5  3  1  0
  7  5  1  0
  7  8  2  0
  9  7  1  0
 10  9  1  0
 10 21  1  0
 11 12  1  0
 10 11  1  1
 12 20  1  0
 13 14  1  0
 13 12  2  0
 14 15  1  0
 15 20  2  0
 15 16  1  0
 16 17  2  0
 17 18  1  0
 19 18  2  0
 20 19  1  0
 21 22  2  0
 21 23  1  0
 23 24  1  0
 24 35  1  0
 24 25  1  1
 26 25  1  0
 27 26  2  0
 28 27  1  0
 29 28  1  0
 29 34  2  0
 30 29  1  0
 31 30  2  0
 31 32  1  0
 32 33  2  0
 33 34  1  0
 34 26  1  0
 35 37  2  0
 35 36  1  0
M  END
$$$$
