IWW.pdb
     RDKit          3D

 37 40  0  0  1  0  0  0  0  0999 V2000
   11.8660  -18.3995   15.8355 C   0  0  0  0  0  0  0  0  0  0  0  0
   10.6217  -17.6377   16.1397 C   0  0  0  0  0  0  0  0  0  0  0  0
   10.5613  -17.1271   17.5959 C   0  0  2  0  0  0  0  0  0  0  0  0
   10.9207  -18.2485   18.5183 C   0  0  0  0  0  0  0  0  0  0  0  0
    9.2997  -16.4089   17.9255 C   0  0  2  0  0  0  0  0  0  0  0  0
    8.9171  -15.3659   17.0496 N   0  0  0  0  0  0  0  0  0  0  0  0
    9.3846  -15.9739   19.3688 C   0  0  0  0  0  0  0  0  0  0  0  0
   10.4035  -15.3355   19.7353 O   0  0  0  0  0  0  0  0  0  0  0  0
    8.3775  -16.2550   20.2893 N   0  0  0  0  0  0  0  0  0  0  0  0
    8.4017  -16.0052   21.6912 C   0  0  1  0  0  0  0  0  0  0  0  0
    6.9433  -16.0040   22.1536 C   0  0  0  0  0  0  0  0  0  0  0  0
    6.7367  -15.7354   23.5697 C   0  0  0  0  0  0  0  0  0  0  0  0
    6.5065  -16.5663   24.6322 C   0  0  0  0  0  0  0  0  0  0  0  0
    6.3688  -15.7562   25.7150 N   0  0  0  0  0  0  0  0  0  0  0  0
    6.4981  -14.4827   25.4026 C   0  0  0  0  0  0  0  0  0  0  0  0
    6.4468  -13.2839   26.1249 C   0  0  0  0  0  0  0  0  0  0  0  0
    6.6313  -12.0894   25.5010 C   0  0  0  0  0  0  0  0  0  0  0  0
    6.8657  -11.9957   24.1626 C   0  0  0  0  0  0  0  0  0  0  0  0
    6.9174  -13.1736   23.4371 C   0  0  0  0  0  0  0  0  0  0  0  0
    6.7313  -14.4123   24.0492 C   0  0  0  0  0  0  0  0  0  0  0  0
    9.2527  -16.9085   22.4979 C   0  0  0  0  0  0  0  0  0  0  0  0
    9.2860  -18.1610   22.3243 O   0  0  0  0  0  0  0  0  0  0  0  0
   10.0931  -16.3722   23.5124 N   0  0  0  0  0  0  0  0  0  0  0  0
   11.0999  -17.0354   24.2661 C   0  0  1  0  0  0  0  0  0  0  0  0
   11.7779  -16.1267   25.3087 C   0  0  0  0  0  0  0  0  0  0  0  0
   11.0849  -16.2805   26.6086 C   0  0  0  0  0  0  0  0  0  0  0  0
   11.0457  -17.4478   27.3607 C   0  0  0  0  0  0  0  0  0  0  0  0
   10.3390  -17.2144   28.4473 N   0  0  0  0  0  0  0  0  0  0  0  0
    9.9033  -15.9488   28.4667 C   0  0  0  0  0  0  0  0  0  0  0  0
    9.1441  -15.2702   29.4003 C   0  0  0  0  0  0  0  0  0  0  0  0
    8.8328  -13.9389   29.1825 C   0  0  0  0  0  0  0  0  0  0  0  0
    9.2892  -13.3361   28.0363 C   0  0  0  0  0  0  0  0  0  0  0  0
   10.0497  -14.0186   27.1035 C   0  0  0  0  0  0  0  0  0  0  0  0
   10.3621  -15.3428   27.3195 C   0  0  0  0  0  0  0  0  0  0  0  0
   10.7252  -18.3246   24.8473 C   0  0  0  0  0  0  0  0  0  0  0  0
   11.6396  -19.2483   25.3283 O   0  0  0  0  0  0  0  0  0  0  0  0
    9.5147  -18.6655   24.9310 O   0  0  0  0  0  0  0  0  0  0  0  0
  2  1  1  0
  3  2  1  0
  3  4  1  1
  5  6  1  6
  5  3  1  0
  7  5  1  0
  7  8  2  0
  9  7  1  0
 10  9  1  0
 10 21  1  0
 11 12  1  0
 10 11  1  1
 12 20  1  0
 13 14  1  0
 13 12  2  0
 14 15  1  0
 15 20  2  0
 15 16  1  0
 16 17  2  0
 17 18  1  0
 19 18  2  0
 20 19  1  0
 21 22  2  0
 21 23  1  0
 23 24  1  0
 24 35  1  0
 24 25  1  1
 26 25  1  0
 27 26  2  0
 28 27  1  0
 29 28  1  0
 29 34  2  0
 30 29  1  0
 31 30  2  0
 31 32  1  0
 32 33  2  0
 33 34  1  0
 34 26  1  0
 35 37  2  0
 35 36  1  0
M  END
$$$$
