DTT.pdb
     RDKit          3D

 23 22  0  0  1  0  0  0  0  0999 V2000
   17.3058  -12.3914  -16.8345 N   0  0  0  0  0  0  0  0  0  0  0  0
   18.5676  -11.9351  -16.2936 C   0  0  1  0  0  0  0  0  0  0  0  0
   19.7439  -12.5224  -17.0209 C   0  0  0  0  0  0  0  0  0  0  0  0
   19.8031  -13.9774  -16.8058 C   0  0  0  0  0  0  0  0  0  0  0  0
   19.6150  -14.4798  -15.6654 O   0  0  0  0  0  0  0  0  0  0  0  0
   18.6309  -10.4426  -16.3068 C   0  0  0  0  0  0  0  0  0  0  0  0
   18.3953   -9.8213  -17.3747 O   0  0  0  0  0  0  0  0  0  0  0  0
   20.0682  -14.8549  -17.8492 O   0  0  0  0  0  0  0  0  0  0  0  0
   16.3703   -8.2136  -14.9207 C   0  0  0  0  0  0  0  0  0  0  0  0
   17.6818   -7.7893  -14.3094 C   0  0  1  0  0  0  0  0  0  0  0  0
   17.7906   -8.4130  -13.0548 O   0  0  0  0  0  0  0  0  0  0  0  0
   18.8371   -8.1887  -15.2039 C   0  0  2  0  0  0  0  0  0  0  0  0
   18.9462   -9.6736  -15.1672 N   0  0  0  0  0  0  0  0  0  0  0  0
   20.0997   -7.7025  -14.6085 C   0  0  0  0  0  0  0  0  0  0  0  0
   20.6670   -8.4255  -13.7191 O   0  0  0  0  0  0  0  0  0  0  0  0
   23.2843   -7.2178  -16.1179 C   0  0  0  0  0  0  0  0  0  0  0  0
   22.9301   -5.8635  -15.5493 C   0  0  1  0  0  0  0  0  0  0  0  0
   22.2542   -5.1133  -16.5061 O   0  0  0  0  0  0  0  0  0  0  0  0
   21.9694   -6.0746  -14.3857 C   0  0  2  0  0  0  0  0  0  0  0  0
   20.7100   -6.4851  -14.9751 N   0  0  0  0  0  0  0  0  0  0  0  0
   21.8322   -4.8615  -13.5764 C   0  0  0  0  0  0  0  0  0  0  0  0
   20.6480   -4.1745  -13.4747 O   0  0  0  0  0  0  0  0  0  0  0  0
   22.8349   -4.4246  -12.9460 O   0  0  0  0  0  0  0  0  0  0  0  0
  2  1  1  6
  2  3  1  0
  3  4  1  0
  4  8  1  0
  5  4  2  0
  6 13  1  0
  6  2  1  0
  7  6  2  0
 10  9  1  6
 10 12  1  0
 11 10  1  0
 12 13  1  1
 12 14  1  0
 14 20  1  0
 15 14  2  0
 17 18  1  0
 17 16  1  6
 19 17  1  0
 19 20  1  6
 21 22  1  0
 21 19  1  0
 23 21  2  0
M  END
$$$$
