DTT.pdb
     RDKit          3D

 23 22  0  0  1  0  0  0  0  0999 V2000
   15.5174  -11.4157  -16.2108 N   0  0  0  0  0  0  0  0  0  0  0  0
   16.6364  -11.1238  -15.3416 C   0  0  1  0  0  0  0  0  0  0  0  0
   17.6693  -12.2150  -15.3581 C   0  0  0  0  0  0  0  0  0  0  0  0
   17.1168  -13.4501  -14.7785 C   0  0  0  0  0  0  0  0  0  0  0  0
   15.9690  -13.4743  -14.2586 O   0  0  0  0  0  0  0  0  0  0  0  0
   17.2500   -9.8112  -15.7052 C   0  0  0  0  0  0  0  0  0  0  0  0
   17.4361   -9.5280  -16.9165 O   0  0  0  0  0  0  0  0  0  0  0  0
   17.8367  -14.6379  -14.7809 O   0  0  0  0  0  0  0  0  0  0  0  0
   15.9041   -6.6456  -15.7680 C   0  0  0  0  0  0  0  0  0  0  0  0
   17.0915   -6.4903  -14.8516 C   0  0  1  0  0  0  0  0  0  0  0  0
   16.6374   -6.6534  -13.5317 O   0  0  0  0  0  0  0  0  0  0  0  0
   18.1525   -7.5202  -15.1801 C   0  0  2  0  0  0  0  0  0  0  0  0
   17.6412   -8.8510  -14.7490 N   0  0  0  0  0  0  0  0  0  0  0  0
   19.3390   -7.2789  -14.3321 C   0  0  0  0  0  0  0  0  0  0  0  0
   19.2876   -7.6338  -13.1045 O   0  0  0  0  0  0  0  0  0  0  0  0
   22.7413   -8.5263  -14.5655 C   0  0  0  0  0  0  0  0  0  0  0  0
   22.8662   -7.0211  -14.6056 C   0  0  1  0  0  0  0  0  0  0  0  0
   22.8518   -6.5825  -15.9256 O   0  0  0  0  0  0  0  0  0  0  0  0
   21.6412   -6.4255  -13.9228 C   0  0  2  0  0  0  0  0  0  0  0  0
   20.5237   -6.6815  -14.8103 N   0  0  0  0  0  0  0  0  0  0  0  0
   21.8183   -4.9967  -13.6541 C   0  0  0  0  0  0  0  0  0  0  0  0
   22.6749   -4.5299  -12.6881 O   0  0  0  0  0  0  0  0  0  0  0  0
   21.1630   -4.1564  -14.3310 O   0  0  0  0  0  0  0  0  0  0  0  0
  2  1  1  6
  2  3  1  0
  3  4  1  0
  4  8  1  0
  5  4  2  0
  6 13  1  0
  6  2  1  0
  7  6  2  0
 10  9  1  6
 10 12  1  0
 11 10  1  0
 12 13  1  1
 12 14  1  0
 14 20  1  0
 15 14  2  0
 17 18  1  0
 17 16  1  6
 19 17  1  0
 19 20  1  6
 21 22  1  0
 21 19  1  0
 23 21  2  0
M  END
$$$$
