DTT.pdb
     RDKit          3D

 23 22  0  0  1  0  0  0  0  0999 V2000
   13.7912   -5.3269   -9.7542 N   0  0  0  0  0  0  0  0  0  0  0  0
   15.1172   -5.0084  -10.2371 C   0  0  1  0  0  0  0  0  0  0  0  0
   16.0633   -4.6703   -9.1199 C   0  0  0  0  0  0  0  0  0  0  0  0
   15.8875   -3.2680   -8.7082 C   0  0  0  0  0  0  0  0  0  0  0  0
   15.1304   -2.4875   -9.3455 O   0  0  0  0  0  0  0  0  0  0  0  0
   15.6551   -6.1317  -11.0620 C   0  0  0  0  0  0  0  0  0  0  0  0
   15.4709   -7.3186  -10.6890 O   0  0  0  0  0  0  0  0  0  0  0  0
   16.5476   -2.7483   -7.6023 O   0  0  0  0  0  0  0  0  0  0  0  0
   14.6260   -6.9712  -14.4121 C   0  0  0  0  0  0  0  0  0  0  0  0
   16.1286   -6.8689  -14.4855 C   0  0  1  0  0  0  0  0  0  0  0  0
   16.4471   -5.5867  -14.9649 O   0  0  0  0  0  0  0  0  0  0  0  0
   16.7424   -7.0934  -13.1191 C   0  0  2  0  0  0  0  0  0  0  0  0
   16.3727   -5.9343  -12.2602 N   0  0  0  0  0  0  0  0  0  0  0  0
   18.2146   -7.0242  -13.2334 C   0  0  0  0  0  0  0  0  0  0  0  0
   18.8251   -6.0808  -12.6229 O   0  0  0  0  0  0  0  0  0  0  0  0
   22.4531   -9.1016  -14.5491 C   0  0  0  0  0  0  0  0  0  0  0  0
   20.9520   -9.1976  -14.4062 C   0  0  1  0  0  0  0  0  0  0  0  0
   20.6332  -10.0115  -13.3241 O   0  0  0  0  0  0  0  0  0  0  0  0
   20.4158   -7.8063  -14.0929 C   0  0  2  0  0  0  0  0  0  0  0  0
   18.9775   -7.9477  -13.9778 N   0  0  0  0  0  0  0  0  0  0  0  0
   20.7958   -6.8397  -15.1256 C   0  0  0  0  0  0  0  0  0  0  0  0
   19.9418   -6.4646  -16.1329 O   0  0  0  0  0  0  0  0  0  0  0  0
   21.9494   -6.3278  -15.0959 O   0  0  0  0  0  0  0  0  0  0  0  0
  2  1  1  1
  2  3  1  0
  3  4  1  0
  4  8  1  0
  5  4  2  0
  6 13  1  0
  6  2  1  0
  7  6  2  0
 10  9  1  1
 10 12  1  0
 11 10  1  0
 12 13  1  1
 12 14  1  0
 14 20  1  0
 15 14  2  0
 17 18  1  0
 17 16  1  1
 19 17  1  0
 19 20  1  6
 21 22  1  0
 21 19  1  0
 23 21  2  0
M  END
$$$$
