DTT.pdb
     RDKit          3D

 23 22  0  0  1  0  0  0  0  0999 V2000
   31.6643  -36.7257   -7.1786 N   0  0  0  0  0  0  0  0  0  0  0  0
   31.4163  -35.8757   -6.0345 C   0  0  1  0  0  0  0  0  0  0  0  0
   29.9818  -35.9244   -5.5900 C   0  0  0  0  0  0  0  0  0  0  0  0
   29.1122  -35.3016   -6.6012 C   0  0  0  0  0  0  0  0  0  0  0  0
   29.2494  -34.0924   -6.9290 O   0  0  0  0  0  0  0  0  0  0  0  0
   32.3298  -36.2371   -4.9091 C   0  0  0  0  0  0  0  0  0  0  0  0
   32.7103  -37.4286   -4.7774 O   0  0  0  0  0  0  0  0  0  0  0  0
   28.1063  -36.0198   -7.2347 O   0  0  0  0  0  0  0  0  0  0  0  0
   34.1046  -33.2801   -2.4846 C   0  0  0  0  0  0  0  0  0  0  0  0
   34.8008  -34.5805   -2.7974 C   0  0  1  0  0  0  0  0  0  0  0  0
   35.7000  -34.8468   -1.7507 O   0  0  0  0  0  0  0  0  0  0  0  0
   33.7924  -35.7028   -2.9306 C   0  0  2  0  0  0  0  0  0  0  0  0
   32.8001  -35.2999   -3.9657 N   0  0  0  0  0  0  0  0  0  0  0  0
   33.0125  -35.8028   -1.6789 C   0  0  0  0  0  0  0  0  0  0  0  0
   32.0367  -34.9941   -1.5077 O   0  0  0  0  0  0  0  0  0  0  0  0
   32.0915  -39.1878    0.2804 C   0  0  0  0  0  0  0  0  0  0  0  0
   32.7486  -38.1558    1.1670 C   0  0  1  0  0  0  0  0  0  0  0  0
   34.1246  -38.3596    1.1867 O   0  0  0  0  0  0  0  0  0  0  0  0
   32.5086  -36.7819    0.5534 C   0  0  2  0  0  0  0  0  0  0  0  0
   33.2888  -36.7467   -0.6680 N   0  0  0  0  0  0  0  0  0  0  0  0
   32.8802  -35.7089    1.4785 C   0  0  0  0  0  0  0  0  0  0  0  0
   32.2289  -35.5055    2.6698 O   0  0  0  0  0  0  0  0  0  0  0  0
   33.8333  -34.9379    1.1770 O   0  0  0  0  0  0  0  0  0  0  0  0
  2  1  1  6
  2  3  1  0
  3  4  1  0
  4  8  1  0
  5  4  2  0
  6 13  1  0
  6  2  1  0
  7  6  2  0
 10  9  1  1
 10 12  1  0
 11 10  1  0
 12 13  1  6
 12 14  1  0
 14 20  1  0
 15 14  2  0
 17 18  1  0
 17 16  1  6
 19 17  1  0
 19 20  1  6
 21 22  1  0
 21 19  1  0
 23 21  2  0
M  END
$$$$
