DTT.pdb
     RDKit          3D

 23 22  0  0  1  0  0  0  0  0999 V2000
   18.6845  -12.6489  -16.4667 N   0  0  0  0  0  0  0  0  0  0  0  0
   18.5177  -11.2245  -16.6570 C   0  0  1  0  0  0  0  0  0  0  0  0
   17.0710  -10.8198  -16.6841 C   0  0  0  0  0  0  0  0  0  0  0  0
   16.3756  -11.4835  -17.7989 C   0  0  0  0  0  0  0  0  0  0  0  0
   16.8051  -11.4024  -18.9810 O   0  0  0  0  0  0  0  0  0  0  0  0
   19.2574  -10.4678  -15.6026 C   0  0  0  0  0  0  0  0  0  0  0  0
   19.0332  -10.7143  -14.3898 O   0  0  0  0  0  0  0  0  0  0  0  0
   15.2195  -12.2254  -17.5940 O   0  0  0  0  0  0  0  0  0  0  0  0
   22.5031  -10.8202  -14.5465 C   0  0  0  0  0  0  0  0  0  0  0  0
   22.4337   -9.3621  -14.9244 C   0  0  1  0  0  0  0  0  0  0  0  0
   22.8904   -9.2410  -16.2479 O   0  0  0  0  0  0  0  0  0  0  0  0
   21.0133   -8.8502  -14.8030 C   0  0  2  0  0  0  0  0  0  0  0  0
   20.2127   -9.4720  -15.8942 N   0  0  0  0  0  0  0  0  0  0  0  0
   20.9945   -7.4021  -15.0991 C   0  0  0  0  0  0  0  0  0  0  0  0
   20.9739   -7.0353  -16.3241 O   0  0  0  0  0  0  0  0  0  0  0  0
   19.9505   -2.8534  -14.0401 C   0  0  0  0  0  0  0  0  0  0  0  0
   19.8547   -4.3433  -13.8078 C   0  0  1  0  0  0  0  0  0  0  0  0
   18.7314   -4.8492  -14.4539 O   0  0  0  0  0  0  0  0  0  0  0  0
   21.0720   -5.0017  -14.4452 C   0  0  2  0  0  0  0  0  0  0  0  0
   20.9944   -6.4074  -14.0993 N   0  0  0  0  0  0  0  0  0  0  0  0
   22.3182   -4.3862  -13.9833 C   0  0  0  0  0  0  0  0  0  0  0  0
   22.9696   -3.4143  -14.7015 O   0  0  0  0  0  0  0  0  0  0  0  0
   22.8188   -4.7573  -12.8854 O   0  0  0  0  0  0  0  0  0  0  0  0
  2  1  1  1
  2  3  1  0
  3  4  1  0
  4  8  1  0
  5  4  2  0
  6 13  1  0
  6  2  1  0
  7  6  2  0
 10  9  1  6
 10 12  1  0
 11 10  1  0
 12 13  1  6
 12 14  1  0
 14 20  1  0
 15 14  2  0
 17 18  1  0
 17 16  1  6
 19 17  1  0
 19 20  1  1
 21 22  1  0
 21 19  1  0
 23 21  2  0
M  END
$$$$
