DTT.pdb
     RDKit          3D

 23 22  0  0  1  0  0  0  0  0999 V2000
   19.5877  -11.0280  -17.6609 N   0  0  0  0  0  0  0  0  0  0  0  0
   18.6399  -10.8352  -16.5851 C   0  0  1  0  0  0  0  0  0  0  0  0
   18.1482  -12.1376  -16.0198 C   0  0  0  0  0  0  0  0  0  0  0  0
   17.4148  -12.8957  -17.0465 C   0  0  0  0  0  0  0  0  0  0  0  0
   18.0047  -13.3841  -18.0475 O   0  0  0  0  0  0  0  0  0  0  0  0
   19.2368   -9.9858  -15.5108 C   0  0  0  0  0  0  0  0  0  0  0  0
   18.6217   -9.8376  -14.4238 O   0  0  0  0  0  0  0  0  0  0  0  0
   16.0447  -13.1036  -16.9544 O   0  0  0  0  0  0  0  0  0  0  0  0
   22.1397  -10.6933  -13.5918 C   0  0  0  0  0  0  0  0  0  0  0  0
   22.3990   -9.3245  -14.1686 C   0  0  1  0  0  0  0  0  0  0  0  0
   23.1660   -9.4898  -15.3345 O   0  0  0  0  0  0  0  0  0  0  0  0
   21.0924   -8.6272  -14.4861 C   0  0  2  0  0  0  0  0  0  0  0  0
   20.4761   -9.3264  -15.6478 N   0  0  0  0  0  0  0  0  0  0  0  0
   21.3796   -7.2624  -14.9760 C   0  0  0  0  0  0  0  0  0  0  0  0
   21.9040   -7.1336  -16.1353 O   0  0  0  0  0  0  0  0  0  0  0  0
   19.7255   -4.4641  -16.1752 C   0  0  0  0  0  0  0  0  0  0  0  0
   20.3968   -3.9383  -14.9279 C   0  0  1  0  0  0  0  0  0  0  0  0
   19.5391   -4.0696  -13.8406 O   0  0  0  0  0  0  0  0  0  0  0  0
   21.6159   -4.8069  -14.6435 C   0  0  2  0  0  0  0  0  0  0  0  0
   21.1007   -6.0978  -14.2310 N   0  0  0  0  0  0  0  0  0  0  0  0
   22.4783   -4.2041  -13.6247 C   0  0  0  0  0  0  0  0  0  0  0  0
   23.2004   -3.0594  -13.8549 O   0  0  0  0  0  0  0  0  0  0  0  0
   22.5669   -4.7509  -12.4903 O   0  0  0  0  0  0  0  0  0  0  0  0
  2  1  1  6
  2  3  1  0
  3  4  1  0
  4  8  1  0
  5  4  2  0
  6 13  1  0
  6  2  1  0
  7  6  2  0
 10  9  1  6
 10 12  1  0
 11 10  1  0
 12 13  1  6
 12 14  1  0
 14 20  1  0
 15 14  2  0
 17 18  1  0
 17 16  1  6
 19 17  1  0
 19 20  1  1
 21 22  1  0
 21 19  1  0
 23 21  2  0
M  END
$$$$
