DTT.pdb
     RDKit          3D

 23 22  0  0  1  0  0  0  0  0999 V2000
   22.6278  -13.1173  -19.0506 N   0  0  0  0  0  0  0  0  0  0  0  0
   22.5001  -11.6763  -19.0516 C   0  0  1  0  0  0  0  0  0  0  0  0
   21.1763  -11.2229  -19.5990 C   0  0  0  0  0  0  0  0  0  0  0  0
   21.0676  -11.5694  -21.0254 C   0  0  0  0  0  0  0  0  0  0  0  0
   22.0808  -11.5882  -21.7748 O   0  0  0  0  0  0  0  0  0  0  0  0
   22.7164  -11.1331  -17.6769 C   0  0  0  0  0  0  0  0  0  0  0  0
   22.2134  -11.7274  -16.6890 O   0  0  0  0  0  0  0  0  0  0  0  0
   19.8459  -11.8894  -21.6032 O   0  0  0  0  0  0  0  0  0  0  0  0
   25.5390  -10.9493  -15.5449 C   0  0  0  0  0  0  0  0  0  0  0  0
   25.0826   -9.5171  -15.6637 C   0  0  1  0  0  0  0  0  0  0  0  0
   25.8610   -8.9013  -16.6587 O   0  0  0  0  0  0  0  0  0  0  0  0
   23.6130   -9.4575  -16.0254 C   0  0  2  0  0  0  0  0  0  0  0  0
   23.4676   -9.9680  -17.4169 N   0  0  0  0  0  0  0  0  0  0  0  0
   23.1897   -8.0429  -16.0961 C   0  0  0  0  0  0  0  0  0  0  0  0
   23.2667   -7.4440  -17.2234 O   0  0  0  0  0  0  0  0  0  0  0  0
   19.9959   -6.8265  -14.8103 C   0  0  0  0  0  0  0  0  0  0  0  0
   20.8724   -6.0019  -15.7239 C   0  0  1  0  0  0  0  0  0  0  0  0
   20.3988   -4.6950  -15.7774 O   0  0  0  0  0  0  0  0  0  0  0  0
   22.2694   -5.9471  -15.1182 C   0  0  2  0  0  0  0  0  0  0  0  0
   22.7026   -7.3242  -14.9847 N   0  0  0  0  0  0  0  0  0  0  0  0
   22.2707   -5.2399  -13.8356 C   0  0  0  0  0  0  0  0  0  0  0  0
   22.1098   -3.8795  -13.7449 O   0  0  0  0  0  0  0  0  0  0  0  0
   22.4248   -5.8978  -12.7693 O   0  0  0  0  0  0  0  0  0  0  0  0
  2  1  1  1
  2  3  1  0
  3  4  1  0
  4  8  1  0
  5  4  2  0
  6 13  1  0
  6  2  1  0
  7  6  2  0
 10  9  1  6
 10 12  1  0
 11 10  1  0
 12 13  1  6
 12 14  1  0
 14 20  1  0
 15 14  2  0
 17 18  1  0
 17 16  1  1
 19 17  1  0
 19 20  1  1
 21 22  1  0
 21 19  1  0
 23 21  2  0
M  END
$$$$
