LRP.pdb
     RDKit          3D

 27 27  0  0  1  0  0  0  0  0999 V2000
    9.4276  -12.5966   19.7535 C   0  0  0  0  0  0  0  0  0  0  0  0
    8.0338  -13.2182   19.7835 C   0  0  1  0  0  0  0  0  0  0  0  0
    7.0594  -12.0681   19.9307 C   0  0  0  0  0  0  0  0  0  0  0  0
    7.8436  -13.9010   18.4500 C   0  0  0  0  0  0  0  0  0  0  0  0
    8.7148  -15.1239   18.3003 C   0  0  2  0  0  0  0  0  0  0  0  0
    8.3406  -15.8144   17.0921 N   0  0  0  0  0  0  0  0  0  0  0  0
    8.6263  -16.0418   19.4430 C   0  0  0  0  0  0  0  0  0  0  0  0
    7.5124  -16.4985   19.8193 O   0  0  0  0  0  0  0  0  0  0  0  0
   14.7658  -21.9631   21.7385 N   0  0  0  0  0  0  0  0  0  0  0  0
   13.6622  -22.1735   22.6426 C   0  0  0  0  0  0  0  0  0  0  0  0
   13.6454  -23.1825   23.4387 N   0  0  0  0  0  0  0  0  0  0  0  0
   12.5720  -21.2710   22.6723 N   0  0  0  0  0  0  0  0  0  0  0  0
   12.4301  -20.2484   21.6111 C   0  0  0  0  0  0  0  0  0  0  0  0
   11.2692  -19.3583   21.9375 C   0  0  0  0  0  0  0  0  0  0  0  0
   10.9329  -18.2966   20.9730 C   0  0  0  0  0  0  0  0  0  0  0  0
    9.7934  -17.3785   21.2622 C   0  0  2  0  0  0  0  0  0  0  0  0
    9.7937  -16.4168   20.1260 N   0  0  0  0  0  0  0  0  0  0  0  0
    9.8777  -16.5949   22.4898 C   0  0  0  0  0  0  0  0  0  0  0  0
   10.6721  -15.5591   22.4269 O   0  0  0  0  0  0  0  0  0  0  0  0
   12.8108  -23.3636   24.0158 N   0  0  0  0  0  0  0  0  0  0  0  0
    9.2049  -16.8365   23.7007 C   0  0  0  0  0  0  0  0  0  0  0  0
    8.3580  -17.9848   23.9602 C   0  0  0  0  0  0  0  0  0  0  0  0
    7.3431  -17.4533   24.9231 C   0  0  0  0  0  0  0  0  0  0  0  0
    7.7317  -16.0377   25.2541 C   0  0  2  0  0  0  0  0  0  0  0  0
    9.2313  -16.0807   24.9054 C   0  0  0  0  0  0  0  0  0  0  0  0
    9.9010  -16.8294   26.0288 O   0  0  0  0  0  0  0  0  0  0  0  0
   10.1788  -16.2245   27.2263 O   0  0  0  0  0  0  0  0  0  0  0  0
  2  3  1  6
  2  1  1  0
  4  2  1  0
  5  6  1  6
  5  4  1  0
  7  5  1  0
  8  7  2  0
  9 10  1  0
 10 12  1  0
 11 10  2  0
 12 13  1  0
 13 14  1  0
 15 14  1  0
 16 15  1  6
 16 17  1  0
 17  7  1  0
 18 16  1  0
 19 18  2  0
 20 18  1  0
 21 20  1  0
 22 21  1  0
 23 22  1  0
 23 24  1  0
 24 20  1  0
 24 25  1  1
 25 26  1  0
 27 25  2  0
M  END
$$$$
