LRP.pdb
     RDKit          3D

 27 27  0  0  1  0  0  0  0  0999 V2000
    6.2607  -12.7758   26.4870 C   0  0  0  0  0  0  0  0  0  0  0  0
    7.6150  -13.4646   26.6338 C   0  0  1  0  0  0  0  0  0  0  0  0
    8.4354  -12.5939   27.5626 C   0  0  0  0  0  0  0  0  0  0  0  0
    7.3434  -14.8055   27.2734 C   0  0  0  0  0  0  0  0  0  0  0  0
    6.5719  -15.7307   26.3647 C   0  0  2  0  0  0  0  0  0  0  0  0
    6.1781  -16.8957   27.1158 N   0  0  0  0  0  0  0  0  0  0  0  0
    7.3303  -16.1407   25.1761 C   0  0  0  0  0  0  0  0  0  0  0  0
    8.2334  -17.0175   25.2574 O   0  0  0  0  0  0  0  0  0  0  0  0
    9.1057  -12.4426   18.2825 N   0  0  0  0  0  0  0  0  0  0  0  0
    8.6787  -13.5593   17.4763 C   0  0  0  0  0  0  0  0  0  0  0  0
    9.2112  -13.7856   16.3285 N   0  0  0  0  0  0  0  0  0  0  0  0
    7.6617  -14.4316   17.9332 N   0  0  0  0  0  0  0  0  0  0  0  0
    7.0220  -14.1967   19.2475 C   0  0  0  0  0  0  0  0  0  0  0  0
    7.7517  -14.9795   20.2970 C   0  0  0  0  0  0  0  0  0  0  0  0
    7.1242  -15.0870   21.6256 C   0  0  0  0  0  0  0  0  0  0  0  0
    7.7976  -15.8845   22.6913 C   0  0  2  0  0  0  0  0  0  0  0  0
    7.0486  -15.5514   23.9337 N   0  0  0  0  0  0  0  0  0  0  0  0
    9.2036  -15.5875   22.9432 C   0  0  0  0  0  0  0  0  0  0  0  0
    9.4209  -14.4877   23.6148 O   0  0  0  0  0  0  0  0  0  0  0  0
    8.8675  -14.5673   15.7514 N   0  0  0  0  0  0  0  0  0  0  0  0
   10.3176  -16.3486   22.5470 C   0  0  0  0  0  0  0  0  0  0  0  0
   10.2486  -17.5716   21.7707 C   0  0  0  0  0  0  0  0  0  0  0  0
   11.4308  -18.3523   22.2528 C   0  0  0  0  0  0  0  0  0  0  0  0
   12.1885  -17.4779   23.2149 C   0  0  2  0  0  0  0  0  0  0  0  0
   11.6999  -16.0897   22.7604 C   0  0  0  0  0  0  0  0  0  0  0  0
   12.4251  -15.7913   21.4735 O   0  0  0  0  0  0  0  0  0  0  0  0
   11.8002  -15.8970   20.2588 O   0  0  0  0  0  0  0  0  0  0  0  0
  2  3  1  1
  2  1  1  0
  4  2  1  0
  5  6  1  1
  5  4  1  0
  7  5  1  0
  8  7  2  0
  9 10  1  0
 10 12  1  0
 11 10  2  0
 12 13  1  0
 13 14  1  0
 15 14  1  0
 16 15  1  6
 16 17  1  0
 17  7  1  0
 18 16  1  0
 19 18  2  0
 20 18  1  0
 21 20  1  0
 22 21  1  0
 23 22  1  0
 23 24  1  0
 24 20  1  0
 24 25  1  6
 25 26  1  0
 27 25  2  0
M  END
$$$$
