LRP.pdb
     RDKit          3D

 27 27  0  0  1  0  0  0  0  0999 V2000
    7.8402  -11.9344   18.2308 C   0  0  0  0  0  0  0  0  0  0  0  0
    8.4299  -13.2642   18.6932 C   0  0  1  0  0  0  0  0  0  0  0  0
    9.6258  -12.9205   19.5568 C   0  0  0  0  0  0  0  0  0  0  0  0
    7.3613  -13.9392   19.5197 C   0  0  0  0  0  0  0  0  0  0  0  0
    7.8537  -15.2078   20.1715 C   0  0  2  0  0  0  0  0  0  0  0  0
    7.4981  -16.3265   19.3357 N   0  0  0  0  0  0  0  0  0  0  0  0
    7.3184  -15.4101   21.5238 C   0  0  0  0  0  0  0  0  0  0  0  0
    6.0741  -15.4338   21.7285 O   0  0  0  0  0  0  0  0  0  0  0  0
    5.9314  -21.6370   26.6388 N   0  0  0  0  0  0  0  0  0  0  0  0
    6.5816  -20.7586   27.5797 C   0  0  0  0  0  0  0  0  0  0  0  0
    6.6431  -21.0590   28.8280 N   0  0  0  0  0  0  0  0  0  0  0  0
    7.1670  -19.5445   27.1472 N   0  0  0  0  0  0  0  0  0  0  0  0
    7.0290  -19.1191   25.7359 C   0  0  0  0  0  0  0  0  0  0  0  0
    7.8947  -17.9191   25.4965 C   0  0  0  0  0  0  0  0  0  0  0  0
    7.8853  -17.3312   24.1458 C   0  0  0  0  0  0  0  0  0  0  0  0
    7.7375  -15.8549   23.9905 C   0  0  2  0  0  0  0  0  0  0  0  0
    8.2000  -15.5793   22.6028 N   0  0  0  0  0  0  0  0  0  0  0  0
    8.5322  -15.0188   24.8835 C   0  0  0  0  0  0  0  0  0  0  0  0
    9.7890  -14.8955   24.5471 O   0  0  0  0  0  0  0  0  0  0  0  0
    7.0895  -20.4061   29.4888 N   0  0  0  0  0  0  0  0  0  0  0  0
    8.0905  -14.3487   26.0381 C   0  0  0  0  0  0  0  0  0  0  0  0
    6.7367  -14.3992   26.5555 C   0  0  0  0  0  0  0  0  0  0  0  0
    6.5658  -13.0611   27.2035 C   0  0  0  0  0  0  0  0  0  0  0  0
    7.8865  -12.3450   27.1176 C   0  0  2  0  0  0  0  0  0  0  0  0
    8.8347  -13.5468   26.9473 C   0  0  0  0  0  0  0  0  0  0  0  0
    8.9466  -14.1877   28.3066 O   0  0  0  0  0  0  0  0  0  0  0  0
    9.7519  -13.6611   29.2820 O   0  0  0  0  0  0  0  0  0  0  0  0
  2  3  1  1
  2  1  1  0
  4  2  1  0
  5  6  1  6
  5  4  1  0
  7  5  1  0
  8  7  2  0
  9 10  1  0
 10 12  1  0
 11 10  2  0
 12 13  1  0
 13 14  1  0
 15 14  1  0
 16 15  1  1
 16 17  1  0
 17  7  1  0
 18 16  1  0
 19 18  2  0
 20 18  1  0
 21 20  1  0
 22 21  1  0
 23 22  1  0
 23 24  1  0
 24 20  1  0
 24 25  1  1
 25 26  1  0
 27 25  2  0
M  END
$$$$
