LRP.pdb
     RDKit          3D

 27 27  0  0  1  0  0  0  0  0999 V2000
    7.9316  -12.3927   18.6383 C   0  0  0  0  0  0  0  0  0  0  0  0
    8.4243  -13.6869   19.2803 C   0  0  1  0  0  0  0  0  0  0  0  0
    9.7054  -13.3382   20.0090 C   0  0  0  0  0  0  0  0  0  0  0  0
    7.3578  -14.1070   20.2636 C   0  0  0  0  0  0  0  0  0  0  0  0
    7.7500  -15.3349   21.0480 C   0  0  2  0  0  0  0  0  0  0  0  0
    7.2122  -16.4976   20.3882 N   0  0  0  0  0  0  0  0  0  0  0  0
    7.2935  -15.3016   22.4432 C   0  0  0  0  0  0  0  0  0  0  0  0
    6.0727  -15.1459   22.7193 O   0  0  0  0  0  0  0  0  0  0  0  0
    6.2946  -21.2914   27.5156 N   0  0  0  0  0  0  0  0  0  0  0  0
    7.1970  -21.4064   26.3967 C   0  0  0  0  0  0  0  0  0  0  0  0
    7.7567  -22.5284   26.1138 N   0  0  0  0  0  0  0  0  0  0  0  0
    7.4858  -20.2835   25.5846 N   0  0  0  0  0  0  0  0  0  0  0  0
    6.8748  -18.9709   25.8941 C   0  0  0  0  0  0  0  0  0  0  0  0
    7.3789  -17.9510   24.9183 C   0  0  0  0  0  0  0  0  0  0  0  0
    6.8853  -16.5702   25.0606 C   0  0  0  0  0  0  0  0  0  0  0  0
    7.8405  -15.4329   24.9214 C   0  0  2  0  0  0  0  0  0  0  0  0
    8.2248  -15.4446   23.4834 N   0  0  0  0  0  0  0  0  0  0  0  0
    9.0733  -15.5131   25.6974 C   0  0  0  0  0  0  0  0  0  0  0  0
   10.1119  -15.9495   25.0351 O   0  0  0  0  0  0  0  0  0  0  0  0
    8.4434  -22.5774   25.3468 N   0  0  0  0  0  0  0  0  0  0  0  0
    9.2496  -15.1741   27.0507 C   0  0  0  0  0  0  0  0  0  0  0  0
    8.1758  -14.8311   27.9630 C   0  0  0  0  0  0  0  0  0  0  0  0
    8.8223  -13.8682   28.9088 C   0  0  0  0  0  0  0  0  0  0  0  0
   10.2817  -13.7926   28.5499 C   0  0  2  0  0  0  0  0  0  0  0  0
   10.4489  -15.1356   27.8146 C   0  0  0  0  0  0  0  0  0  0  0  0
   10.4736  -16.1978   28.8833 O   0  0  0  0  0  0  0  0  0  0  0  0
   11.5275  -16.3157   29.7509 O   0  0  0  0  0  0  0  0  0  0  0  0
  2  3  1  1
  2  1  1  0
  4  2  1  0
  5  6  1  6
  5  4  1  0
  7  5  1  0
  8  7  2  0
  9 10  1  0
 10 12  1  0
 11 10  2  0
 12 13  1  0
 13 14  1  0
 15 14  1  0
 16 15  1  6
 16 17  1  0
 17  7  1  0
 18 16  1  0
 19 18  2  0
 20 18  1  0
 21 20  1  0
 22 21  1  0
 23 22  1  0
 23 24  1  0
 24 20  1  0
 24 25  1  1
 25 26  1  0
 27 25  2  0
M  END
$$$$
