LRP.pdb
     RDKit          3D

 27 27  0  0  1  0  0  0  0  0999 V2000
    7.5496  -12.4194   18.1522 C   0  0  0  0  0  0  0  0  0  0  0  0
    8.3117  -13.5916   18.7649 C   0  0  1  0  0  0  0  0  0  0  0  0
    9.3069  -12.9899   19.7352 C   0  0  0  0  0  0  0  0  0  0  0  0
    7.2910  -14.4219   19.5061 C   0  0  0  0  0  0  0  0  0  0  0  0
    7.9303  -15.4408   20.4172 C   0  0  2  0  0  0  0  0  0  0  0  0
    7.8487  -16.7368   19.7926 N   0  0  0  0  0  0  0  0  0  0  0  0
    7.3153  -15.4935   21.7495 C   0  0  0  0  0  0  0  0  0  0  0  0
    6.0691  -15.3596   21.8910 O   0  0  0  0  0  0  0  0  0  0  0  0
    6.6672  -21.3650   22.9152 N   0  0  0  0  0  0  0  0  0  0  0  0
    7.1764  -20.8830   24.1753 C   0  0  0  0  0  0  0  0  0  0  0  0
    8.2906  -21.3181   24.6458 N   0  0  0  0  0  0  0  0  0  0  0  0
    6.4581  -19.9185   24.9220 N   0  0  0  0  0  0  0  0  0  0  0  0
    7.1022  -19.2445   26.0721 C   0  0  0  0  0  0  0  0  0  0  0  0
    7.0941  -17.7634   25.8423 C   0  0  0  0  0  0  0  0  0  0  0  0
    7.5170  -17.2775   24.5174 C   0  0  0  0  0  0  0  0  0  0  0  0
    7.5701  -15.8094   24.2582 C   0  0  2  0  0  0  0  0  0  0  0  0
    8.1217  -15.6952   22.8804 N   0  0  0  0  0  0  0  0  0  0  0  0
    8.4296  -15.0197   25.1333 C   0  0  0  0  0  0  0  0  0  0  0  0
    9.6971  -15.0323   24.8154 O   0  0  0  0  0  0  0  0  0  0  0  0
    8.6320  -20.9700   25.5540 N   0  0  0  0  0  0  0  0  0  0  0  0
    8.0387  -14.2649   26.2534 C   0  0  0  0  0  0  0  0  0  0  0  0
    6.6829  -14.1816   26.7611 C   0  0  0  0  0  0  0  0  0  0  0  0
    6.6190  -12.8063   27.3479 C   0  0  0  0  0  0  0  0  0  0  0  0
    7.9943  -12.2050   27.2417 C   0  0  1  0  0  0  0  0  0  0  0  0
    8.8417  -13.4865   27.1325 C   0  0  0  0  0  0  0  0  0  0  0  0
    8.8943  -14.0731   28.5197 O   0  0  0  0  0  0  0  0  0  0  0  0
    9.6981  -13.5393   29.4924 O   0  0  0  0  0  0  0  0  0  0  0  0
  2  3  1  1
  2  1  1  0
  4  2  1  0
  5  6  1  6
  5  4  1  0
  7  5  1  0
  8  7  2  0
  9 10  1  0
 10 12  1  0
 11 10  2  0
 12 13  1  0
 13 14  1  0
 15 14  1  0
 16 15  1  1
 16 17  1  0
 17  7  1  0
 18 16  1  0
 19 18  2  0
 20 18  1  0
 21 20  1  0
 22 21  1  0
 23 22  1  0
 23 24  1  0
 24 20  1  0
 24 25  1  1
 25 26  1  0
 27 25  2  0
M  END
$$$$
