TLQ.pdb
     RDKit          3D

 25 24  0  0  1  0  0  0  0  0999 V2000
   17.6304  -11.6007  -18.2549 C   0  0  0  0  0  0  0  0  0  0  0  0
   17.2927  -12.5043  -17.1145 C   0  0  1  0  0  0  0  0  0  0  0  0
   16.2885  -13.3702  -17.5099 O   0  0  0  0  0  0  0  0  0  0  0  0
   18.4984  -13.3403  -16.6649 C   0  0  2  0  0  0  0  0  0  0  0  0
   18.0138  -14.2670  -15.6845 N   0  0  0  0  0  0  0  0  0  0  0  0
   19.4395  -12.3560  -16.0296 C   0  0  0  0  0  0  0  0  0  0  0  0
   19.0663  -11.6663  -15.0453 O   0  0  0  0  0  0  0  0  0  0  0  0
   23.4693  -12.4979  -13.8302 C   0  0  0  0  0  0  0  0  0  0  0  0
   23.6717  -12.6250  -15.3282 C   0  0  2  0  0  0  0  0  0  0  0  0
   25.0885  -12.9838  -15.5745 C   0  0  0  0  0  0  0  0  0  0  0  0
   23.1072  -11.5299  -16.1121 C   0  0  0  0  0  0  0  0  0  0  0  0
   21.6866  -11.1699  -16.0336 C   0  0  2  0  0  0  0  0  0  0  0  0
   20.7771  -12.1794  -16.5258 N   0  0  0  0  0  0  0  0  0  0  0  0
   21.3316   -9.8167  -16.5237 C   0  0  0  0  0  0  0  0  0  0  0  0
   20.9977   -9.5615  -17.7103 O   0  0  0  0  0  0  0  0  0  0  0  0
   16.8222   -7.7469  -17.1024 N   0  0  0  0  0  0  0  0  0  0  0  0
   17.3415   -6.4298  -17.1486 C   0  0  0  0  0  0  0  0  0  0  0  0
   16.5846   -5.4902  -17.4602 O   0  0  0  0  0  0  0  0  0  0  0  0
   18.7807   -6.1822  -16.8256 C   0  0  0  0  0  0  0  0  0  0  0  0
   19.4108   -7.4640  -16.4110 C   0  0  0  0  0  0  0  0  0  0  0  0
   20.8835   -7.3608  -16.1160 C   0  0  2  0  0  0  0  0  0  0  0  0
   21.3478   -8.6898  -15.6527 N   0  0  0  0  0  0  0  0  0  0  0  0
   21.1087   -6.3945  -15.0241 C   0  0  0  0  0  0  0  0  0  0  0  0
   21.3573   -6.8136  -13.8567 O   0  0  0  0  0  0  0  0  0  0  0  0
   21.0543   -5.0363  -15.2568 O   0  0  0  0  0  0  0  0  0  0  0  0
  2  1  1  6
  3  2  1  0
  4  6  1  0
  4  2  1  0
  4  5  1  1
  6 13  1  0
  7  6  2  0
  9  8  1  1
 10  9  1  0
 12 11  1  6
 11  9  1  0
 13 12  1  0
 14 12  1  0
 14 15  2  0
 17 16  1  0
 18 17  2  0
 19 17  1  0
 19 20  1  0
 21 20  1  1
 21 22  1  0
 21 23  1  0
 22 14  1  0
 23 24  2  0
 23 25  1  0
M  END
$$$$
