TLQ.pdb
     RDKit          3D

 25 24  0  0  1  0  0  0  0  0999 V2000
   26.6255  -17.6868  -16.4044 C   0  0  0  0  0  0  0  0  0  0  0  0
   27.1335  -18.8219  -17.2318 C   0  0  1  0  0  0  0  0  0  0  0  0
   28.0082  -18.3278  -18.1832 O   0  0  0  0  0  0  0  0  0  0  0  0
   27.8807  -19.8622  -16.3866 C   0  0  2  0  0  0  0  0  0  0  0  0
   28.3122  -20.8907  -17.2871 N   0  0  0  0  0  0  0  0  0  0  0  0
   26.8509  -20.4028  -15.4349 C   0  0  0  0  0  0  0  0  0  0  0  0
   25.9839  -21.2217  -15.8369 O   0  0  0  0  0  0  0  0  0  0  0  0
   25.7374  -20.1625   -9.2435 C   0  0  0  0  0  0  0  0  0  0  0  0
   25.2915  -20.6354  -10.6141 C   0  0  2  0  0  0  0  0  0  0  0  0
   24.8534  -22.0465  -10.4965 C   0  0  0  0  0  0  0  0  0  0  0  0
   26.2101  -20.3027  -11.6995 C   0  0  0  0  0  0  0  0  0  0  0  0
   25.8265  -20.4346  -13.1100 C   0  0  2  0  0  0  0  0  0  0  0  0
   26.8309  -20.0018  -14.0546 N   0  0  0  0  0  0  0  0  0  0  0  0
   24.4775  -19.9331  -13.4655 C   0  0  0  0  0  0  0  0  0  0  0  0
   24.1436  -18.7200  -13.4275 O   0  0  0  0  0  0  0  0  0  0  0  0
   18.7173  -21.0318  -17.8437 N   0  0  0  0  0  0  0  0  0  0  0  0
   19.9776  -21.2265  -17.2269 C   0  0  0  0  0  0  0  0  0  0  0  0
   20.8328  -21.9263  -17.8030 O   0  0  0  0  0  0  0  0  0  0  0  0
   20.2667  -20.5956  -15.9020 C   0  0  0  0  0  0  0  0  0  0  0  0
   21.6714  -20.8980  -15.5186 C   0  0  0  0  0  0  0  0  0  0  0  0
   22.0857  -20.3240  -14.1899 C   0  0  2  0  0  0  0  0  0  0  0  0
   23.4475  -20.8230  -13.8847 N   0  0  0  0  0  0  0  0  0  0  0  0
   21.1774  -20.8053  -13.1317 C   0  0  0  0  0  0  0  0  0  0  0  0
   20.0726  -20.2198  -12.9389 O   0  0  0  0  0  0  0  0  0  0  0  0
   21.5135  -21.8887  -12.3474 O   0  0  0  0  0  0  0  0  0  0  0  0
  2  1  1  1
  3  2  1  0
  4  6  1  0
  4  2  1  0
  4  5  1  6
  6 13  1  0
  7  6  2  0
  9  8  1  1
 10  9  1  0
 12 11  1  1
 11  9  1  0
 13 12  1  0
 14 12  1  0
 14 15  2  0
 17 16  1  0
 18 17  2  0
 19 17  1  0
 19 20  1  0
 21 20  1  6
 21 22  1  0
 21 23  1  0
 22 14  1  0
 23 24  2  0
 23 25  1  0
M  END
$$$$
