TLQ.pdb
     RDKit          3D

 25 24  0  0  1  0  0  0  0  0999 V2000
   13.6364  -13.8303    8.1623 C   0  0  0  0  0  0  0  0  0  0  0  0
   13.3900  -13.8885    6.6902 C   0  0  1  0  0  0  0  0  0  0  0  0
   12.0844  -13.5062    6.4380 O   0  0  0  0  0  0  0  0  0  0  0  0
   14.3238  -12.9518    5.9121 C   0  0  2  0  0  0  0  0  0  0  0  0
   13.9097  -13.0044    4.5407 N   0  0  0  0  0  0  0  0  0  0  0  0
   15.6930  -13.5518    6.0652 C   0  0  0  0  0  0  0  0  0  0  0  0
   16.0024  -14.5952    5.4332 O   0  0  0  0  0  0  0  0  0  0  0  0
   21.4493  -11.8788    7.1593 C   0  0  0  0  0  0  0  0  0  0  0  0
   20.2264  -12.5192    6.5303 C   0  0  2  0  0  0  0  0  0  0  0  0
   20.0536  -11.9510    5.1724 C   0  0  0  0  0  0  0  0  0  0  0  0
   19.0517  -12.5648    7.3968 C   0  0  0  0  0  0  0  0  0  0  0  0
   17.9711  -13.5362    7.1903 C   0  0  2  0  0  0  0  0  0  0  0  0
   16.6743  -12.9543    6.9292 N   0  0  0  0  0  0  0  0  0  0  0  0
   17.8953  -14.6420    8.1747 C   0  0  0  0  0  0  0  0  0  0  0  0
   17.3942  -14.5297    9.3240 O   0  0  0  0  0  0  0  0  0  0  0  0
   17.1466  -20.4510    6.6486 N   0  0  0  0  0  0  0  0  0  0  0  0
   17.3285  -20.6498    8.0393 C   0  0  0  0  0  0  0  0  0  0  0  0
   17.1519  -21.7870    8.5173 O   0  0  0  0  0  0  0  0  0  0  0  0
   17.7272  -19.5028    8.9124 C   0  0  0  0  0  0  0  0  0  0  0  0
   17.8377  -18.2761    8.0789 C   0  0  0  0  0  0  0  0  0  0  0  0
   18.2801  -17.0528    8.8366 C   0  0  2  0  0  0  0  0  0  0  0  0
   18.4006  -15.9377    7.8677 N   0  0  0  0  0  0  0  0  0  0  0  0
   19.6107  -17.2855    9.4297 C   0  0  0  0  0  0  0  0  0  0  0  0
   20.6503  -17.0815    8.7383 O   0  0  0  0  0  0  0  0  0  0  0  0
   19.7403  -17.7218   10.7316 O   0  0  0  0  0  0  0  0  0  0  0  0
  2  1  1  1
  3  2  1  0
  4  6  1  0
  4  2  1  0
  4  5  1  6
  6 13  1  0
  7  6  2  0
  9  8  1  1
 10  9  1  0
 12 11  1  1
 11  9  1  0
 13 12  1  0
 14 12  1  0
 14 15  2  0
 17 16  1  0
 18 17  2  0
 19 17  1  0
 19 20  1  0
 21 20  1  6
 21 22  1  0
 21 23  1  0
 22 14  1  0
 23 24  2  0
 23 25  1  0
M  END
$$$$
