TLQ.pdb
     RDKit          3D

 25 24  0  0  1  0  0  0  0  0999 V2000
   17.4845  -14.5083  -17.5203 C   0  0  0  0  0  0  0  0  0  0  0  0
   18.4388  -13.5940  -16.8242 C   0  0  1  0  0  0  0  0  0  0  0  0
   19.3086  -14.3507  -16.0592 O   0  0  0  0  0  0  0  0  0  0  0  0
   19.2672  -12.7636  -17.8136 C   0  0  2  0  0  0  0  0  0  0  0  0
   20.0959  -13.6865  -18.5322 N   0  0  0  0  0  0  0  0  0  0  0  0
   20.1125  -11.8650  -16.9556 C   0  0  0  0  0  0  0  0  0  0  0  0
   19.5704  -11.0379  -16.1772 O   0  0  0  0  0  0  0  0  0  0  0  0
   26.2570  -11.0453  -15.7750 C   0  0  0  0  0  0  0  0  0  0  0  0
   24.8260  -10.5895  -15.5613 C   0  0  2  0  0  0  0  0  0  0  0  0
   24.6312  -10.3408  -14.1132 C   0  0  0  0  0  0  0  0  0  0  0  0
   23.8224  -11.3985  -16.2476 C   0  0  0  0  0  0  0  0  0  0  0  0
   22.4121  -10.9974  -16.3114 C   0  0  2  0  0  0  0  0  0  0  0  0
   21.5479  -11.9272  -17.0022 N   0  0  0  0  0  0  0  0  0  0  0  0
   22.1537   -9.5947  -16.7150 C   0  0  0  0  0  0  0  0  0  0  0  0
   22.4855   -9.1086  -17.8277 O   0  0  0  0  0  0  0  0  0  0  0  0
   17.0670   -6.7316  -16.0508 N   0  0  0  0  0  0  0  0  0  0  0  0
   17.8281   -5.5719  -16.3381 C   0  0  0  0  0  0  0  0  0  0  0  0
   17.2401   -4.4845  -16.4958 O   0  0  0  0  0  0  0  0  0  0  0  0
   19.3168   -5.6634  -16.4484 C   0  0  0  0  0  0  0  0  0  0  0  0
   19.7367   -7.0641  -16.1779 C   0  0  0  0  0  0  0  0  0  0  0  0
   21.2235   -7.2882  -16.2528 C   0  0  2  0  0  0  0  0  0  0  0  0
   21.4933   -8.6858  -15.8396 N   0  0  0  0  0  0  0  0  0  0  0  0
   21.9130   -6.3926  -15.3046 C   0  0  0  0  0  0  0  0  0  0  0  0
   22.0763   -5.1732  -15.5989 O   0  0  0  0  0  0  0  0  0  0  0  0
   22.3826   -6.8648  -14.0969 O   0  0  0  0  0  0  0  0  0  0  0  0
  2  1  1  6
  3  2  1  0
  4  6  1  0
  4  2  1  0
  4  5  1  1
  6 13  1  0
  7  6  2  0
  9  8  1  1
 10  9  1  0
 12 11  1  6
 11  9  1  0
 13 12  1  0
 14 12  1  0
 14 15  2  0
 17 16  1  0
 18 17  2  0
 19 17  1  0
 19 20  1  0
 21 20  1  1
 21 22  1  0
 21 23  1  0
 22 14  1  0
 23 24  2  0
 23 25  1  0
M  END
$$$$
