TLQ.pdb
     RDKit          3D

 25 24  0  0  1  0  0  0  0  0999 V2000
   19.4528  -11.3810  -19.5049 C   0  0  0  0  0  0  0  0  0  0  0  0
   20.5247  -11.9424  -20.3806 C   0  0  1  0  0  0  0  0  0  0  0  0
   21.3158  -10.9055  -20.8428 O   0  0  0  0  0  0  0  0  0  0  0  0
   21.4229  -12.9337  -19.6288 C   0  0  2  0  0  0  0  0  0  0  0  0
   20.5707  -13.9860  -19.1586 N   0  0  0  0  0  0  0  0  0  0  0  0
   21.9763  -12.1552  -18.4687 C   0  0  0  0  0  0  0  0  0  0  0  0
   21.2219  -11.7995  -17.5262 O   0  0  0  0  0  0  0  0  0  0  0  0
   27.5845  -10.3470  -16.2640 C   0  0  0  0  0  0  0  0  0  0  0  0
   26.0754  -10.1954  -16.2394 C   0  0  2  0  0  0  0  0  0  0  0  0
   25.6224  -10.3058  -14.8324 C   0  0  0  0  0  0  0  0  0  0  0  0
   25.3690  -10.9910  -17.2397 C   0  0  0  0  0  0  0  0  0  0  0  0
   23.9183  -10.8844  -17.4344 C   0  0  2  0  0  0  0  0  0  0  0  0
   23.3680  -11.8006  -18.4072 N   0  0  0  0  0  0  0  0  0  0  0  0
   23.3848   -9.5114  -17.6013 C   0  0  0  0  0  0  0  0  0  0  0  0
   23.5435   -8.8144  -18.6374 O   0  0  0  0  0  0  0  0  0  0  0  0
   17.9747   -8.1464  -17.6248 N   0  0  0  0  0  0  0  0  0  0  0  0
   18.3851   -6.7942  -17.5256 C   0  0  0  0  0  0  0  0  0  0  0  0
   17.5453   -5.8911  -17.7043 O   0  0  0  0  0  0  0  0  0  0  0  0
   19.8100   -6.4670  -17.2101 C   0  0  0  0  0  0  0  0  0  0  0  0
   20.5895   -7.7307  -17.1271 C   0  0  0  0  0  0  0  0  0  0  0  0
   22.0385   -7.5395  -16.7661 C   0  0  2  0  0  0  0  0  0  0  0  0
   22.6372   -8.8805  -16.5661 N   0  0  0  0  0  0  0  0  0  0  0  0
   22.1439   -6.8003  -15.4937 C   0  0  0  0  0  0  0  0  0  0  0  0
   22.3937   -7.4263  -14.4232 O   0  0  0  0  0  0  0  0  0  0  0  0
   21.9759   -5.4321  -15.4526 O   0  0  0  0  0  0  0  0  0  0  0  0
  2  1  1  1
  3  2  1  0
  4  6  1  0
  4  2  1  0
  4  5  1  1
  6 13  1  0
  7  6  2  0
  9  8  1  1
 10  9  1  0
 12 11  1  6
 11  9  1  0
 13 12  1  0
 14 12  1  0
 14 15  2  0
 17 16  1  0
 18 17  2  0
 19 17  1  0
 19 20  1  0
 21 20  1  1
 21 22  1  0
 21 23  1  0
 22 14  1  0
 23 24  2  0
 23 25  1  0
M  END
$$$$
