TLQ.pdb
     RDKit          3D

 25 24  0  0  1  0  0  0  0  0999 V2000
   19.4045   -9.2108  -20.0340 C   0  0  0  0  0  0  0  0  0  0  0  0
   18.4737  -10.1522  -19.3420 C   0  0  1  0  0  0  0  0  0  0  0  0
   17.6121  -10.6994  -20.2762 O   0  0  0  0  0  0  0  0  0  0  0  0
   19.2229  -11.2987  -18.6498 C   0  0  2  0  0  0  0  0  0  0  0  0
   18.2268  -12.2159  -18.1792 N   0  0  0  0  0  0  0  0  0  0  0  0
   19.9292  -10.6573  -17.4888 C   0  0  0  0  0  0  0  0  0  0  0  0
   19.2856   -9.9616  -16.6608 O   0  0  0  0  0  0  0  0  0  0  0  0
   22.5257  -12.5316  -14.1771 C   0  0  0  0  0  0  0  0  0  0  0  0
   23.3820  -12.2597  -15.3993 C   0  0  2  0  0  0  0  0  0  0  0  0
   24.7147  -12.8684  -15.1749 C   0  0  0  0  0  0  0  0  0  0  0  0
   23.3424  -10.8789  -15.8732 C   0  0  0  0  0  0  0  0  0  0  0  0
   22.0812  -10.2103  -16.2140 C   0  0  2  0  0  0  0  0  0  0  0  0
   21.3444  -10.8209  -17.2970 N   0  0  0  0  0  0  0  0  0  0  0  0
   22.1438   -8.7353  -16.3477 C   0  0  0  0  0  0  0  0  0  0  0  0
   22.5776   -8.1374  -17.3670 O   0  0  0  0  0  0  0  0  0  0  0  0
   17.8933   -5.1518  -16.5390 N   0  0  0  0  0  0  0  0  0  0  0  0
   18.8054   -4.1193  -16.2095 C   0  0  0  0  0  0  0  0  0  0  0  0
   18.4134   -2.9365  -16.2247 O   0  0  0  0  0  0  0  0  0  0  0  0
   20.2175   -4.4562  -15.8497 C   0  0  0  0  0  0  0  0  0  0  0  0
   20.3655   -5.9353  -15.8051 C   0  0  0  0  0  0  0  0  0  0  0  0
   21.7486   -6.4065  -15.4425 C   0  0  2  0  0  0  0  0  0  0  0  0
   21.7022   -7.8808  -15.2972 N   0  0  0  0  0  0  0  0  0  0  0  0
   22.1477   -5.8339  -14.1428 C   0  0  0  0  0  0  0  0  0  0  0  0
   22.0787   -6.5426  -13.0971 O   0  0  0  0  0  0  0  0  0  0  0  0
   22.5986   -4.5340  -14.0491 O   0  0  0  0  0  0  0  0  0  0  0  0
  2  1  1  6
  3  2  1  0
  4  6  1  0
  4  2  1  0
  4  5  1  1
  6 13  1  0
  7  6  2  0
  9  8  1  1
 10  9  1  0
 12 11  1  6
 11  9  1  0
 13 12  1  0
 14 12  1  0
 14 15  2  0
 17 16  1  0
 18 17  2  0
 19 17  1  0
 19 20  1  0
 21 20  1  1
 21 22  1  0
 21 23  1  0
 22 14  1  0
 23 24  2  0
 23 25  1  0
M  END
$$$$
