MME.pdb
     RDKit          3D

 26 25  0  0  1  0  0  0  0  0999 V2000
   26.5626  -13.0086  -19.4894 C   0  0  0  0  0  0  0  0  0  0  0  0
   27.3089  -11.8012  -18.3820 S   0  0  0  0  0  0  0  0  0  0  0  0
   28.8975  -11.1931  -18.9838 C   0  0  0  0  0  0  0  0  0  0  0  0
   29.5078  -10.2738  -17.9763 C   0  0  0  0  0  0  0  0  0  0  0  0
   30.7510   -9.5794  -18.4980 C   0  0  2  0  0  0  0  0  0  0  0  0
   31.5755  -10.5741  -19.2093 N   0  0  0  0  0  0  0  0  0  0  0  0
   31.5656   -9.0061  -17.4296 C   0  0  0  0  0  0  0  0  0  0  0  0
   31.0636   -8.1071  -16.6703 O   0  0  0  0  0  0  0  0  0  0  0  0
   37.8219  -10.0367  -12.7106 C   0  0  0  0  0  0  0  0  0  0  0  0
   36.9704  -10.3909  -14.2964 S   0  0  0  0  0  0  0  0  0  0  0  0
   35.5411   -9.2687  -14.4669 C   0  0  0  0  0  0  0  0  0  0  0  0
   34.7923   -9.6864  -15.6877 C   0  0  0  0  0  0  0  0  0  0  0  0
   33.5945   -8.8003  -15.9975 C   0  0  2  0  0  0  0  0  0  0  0  0
   32.9296   -9.3775  -17.1466 N   0  0  0  0  0  0  0  0  0  0  0  0
   34.1414   -7.4556  -16.2356 C   0  0  0  0  0  0  0  0  0  0  0  0
   34.7361   -7.2978  -17.3482 O   0  0  0  0  0  0  0  0  0  0  0  0
   33.9852   -6.4543  -15.2666 N   0  0  0  0  0  0  0  0  0  0  0  0
   34.3550   -5.0807  -15.6267 C   0  0  1  0  0  0  0  0  0  0  0  0
   33.1053   -4.3166  -16.0337 C   0  0  0  0  0  0  0  0  0  0  0  0
   33.3625   -2.8701  -16.3280 C   0  0  0  0  0  0  0  0  0  0  0  0
   32.0562   -2.1618  -16.5237 C   0  0  0  0  0  0  0  0  0  0  0  0
   31.6176   -1.4284  -15.6183 O   0  0  0  0  0  0  0  0  0  0  0  0
   35.1090   -4.4419  -14.5346 C   0  0  0  0  0  0  0  0  0  0  0  0
   34.7501   -4.6725  -13.3533 O   0  0  0  0  0  0  0  0  0  0  0  0
   31.3439   -2.3184  -17.6925 O   0  0  0  0  0  0  0  0  0  0  0  0
   36.1909   -3.6021  -14.7299 O   0  0  0  0  0  0  0  0  0  0  0  0
  2  3  1  0
  2  1  1  0
  4  5  1  0
  4  3  1  0
  5  6  1  1
  7  8  2  0
  7  5  1  0
 10  9  1  0
 11 12  1  0
 11 10  1  0
 13 12  1  6
 13 14  1  0
 14  7  1  0
 15 13  1  0
 15 16  2  0
 17 15  1  0
 18 17  1  0
 18 19  1  1
 19 20  1  0
 20 21  1  0
 21 22  2  0
 23 18  1  0
 24 23  2  0
 25 21  1  0
 26 23  1  0
M  END
$$$$
