MME.pdb
     RDKit          3D

 26 25  0  0  1  0  0  0  0  0999 V2000
   22.6593  -10.6748    6.9104 C   0  0  0  0  0  0  0  0  0  0  0  0
   21.1063  -11.4452    7.3962 S   0  0  0  0  0  0  0  0  0  0  0  0
   19.9550  -11.6202    6.0179 C   0  0  0  0  0  0  0  0  0  0  0  0
   18.7276  -12.3448    6.4662 C   0  0  0  0  0  0  0  0  0  0  0  0
   18.4921  -13.6275    5.6921 C   0  0  2  0  0  0  0  0  0  0  0  0
   17.3475  -13.4201    4.7854 N   0  0  0  0  0  0  0  0  0  0  0  0
   18.1748  -14.7586    6.5602 C   0  0  0  0  0  0  0  0  0  0  0  0
   18.7494  -14.8570    7.6989 O   0  0  0  0  0  0  0  0  0  0  0  0
   11.5773  -17.8425    7.4086 C   0  0  0  0  0  0  0  0  0  0  0  0
   13.1854  -18.3069    6.6579 S   0  0  0  0  0  0  0  0  0  0  0  0
   14.5039  -17.2846    7.3980 C   0  0  0  0  0  0  0  0  0  0  0  0
   15.7777  -17.6333    6.7043 C   0  0  0  0  0  0  0  0  0  0  0  0
   16.9784  -16.8460    7.2089 C   0  0  2  0  0  0  0  0  0  0  0  0
   17.2398  -15.8069    6.2355 N   0  0  0  0  0  0  0  0  0  0  0  0
   18.0689  -17.8234    7.3483 C   0  0  0  0  0  0  0  0  0  0  0  0
   18.7928  -17.9840    6.3155 O   0  0  0  0  0  0  0  0  0  0  0  0
   18.2516  -18.5005    8.5625 N   0  0  0  0  0  0  0  0  0  0  0  0
   19.3970  -19.4100    8.6807 C   0  0  1  0  0  0  0  0  0  0  0  0
   20.4448  -18.7800    9.5843 C   0  0  0  0  0  0  0  0  0  0  0  0
   21.5953  -19.6914    9.8856 C   0  0  0  0  0  0  0  0  0  0  0  0
   22.5276  -19.0158   10.8453 C   0  0  0  0  0  0  0  0  0  0  0  0
   22.0830  -18.5776   11.9225 O   0  0  0  0  0  0  0  0  0  0  0  0
   18.9581  -20.7438    9.1251 C   0  0  0  0  0  0  0  0  0  0  0  0
   19.5262  -21.7492    8.6313 O   0  0  0  0  0  0  0  0  0  0  0  0
   23.8644  -18.8783   10.5421 O   0  0  0  0  0  0  0  0  0  0  0  0
   17.9567  -20.9583   10.0552 O   0  0  0  0  0  0  0  0  0  0  0  0
  2  3  1  0
  2  1  1  0
  4  5  1  0
  4  3  1  0
  5  6  1  6
  7  8  2  0
  7  5  1  0
 10  9  1  0
 11 12  1  0
 11 10  1  0
 13 12  1  6
 13 14  1  0
 14  7  1  0
 15 13  1  0
 15 16  2  0
 17 15  1  0
 18 17  1  0
 18 19  1  1
 19 20  1  0
 20 21  1  0
 21 22  2  0
 23 18  1  0
 24 23  2  0
 25 21  1  0
 26 23  1  0
M  END
$$$$
