MME.pdb
     RDKit          3D

 26 25  0  0  1  0  0  0  0  0999 V2000
   24.9320  -28.4468  -17.0937 C   0  0  0  0  0  0  0  0  0  0  0  0
   25.5605  -27.3035  -18.3342 S   0  0  0  0  0  0  0  0  0  0  0  0
   26.7656  -26.1408  -17.6623 C   0  0  0  0  0  0  0  0  0  0  0  0
   26.2617  -25.5677  -16.3777 C   0  0  0  0  0  0  0  0  0  0  0  0
   25.7339  -24.1548  -16.5367 C   0  0  2  0  0  0  0  0  0  0  0  0
   26.8843  -23.2380  -16.6446 N   0  0  0  0  0  0  0  0  0  0  0  0
   24.9254  -23.7247  -15.3988 C   0  0  0  0  0  0  0  0  0  0  0  0
   23.7825  -24.2642  -15.2005 O   0  0  0  0  0  0  0  0  0  0  0  0
   25.9296  -20.9453   -8.7842 C   0  0  0  0  0  0  0  0  0  0  0  0
   25.3982  -19.9474  -10.2288 S   0  0  0  0  0  0  0  0  0  0  0  0
   24.3196  -20.9670  -11.2909 C   0  0  0  0  0  0  0  0  0  0  0  0
   25.1370  -21.4111  -12.4571 C   0  0  0  0  0  0  0  0  0  0  0  0
   24.3763  -22.3046  -13.4260 C   0  0  2  0  0  0  0  0  0  0  0  0
   25.3160  -22.7131  -14.4485 N   0  0  0  0  0  0  0  0  0  0  0  0
   23.2598  -21.4902  -13.9303 C   0  0  0  0  0  0  0  0  0  0  0  0
   23.5932  -20.4724  -14.6155 O   0  0  0  0  0  0  0  0  0  0  0  0
   21.9379  -21.8609  -13.6455 N   0  0  0  0  0  0  0  0  0  0  0  0
   20.8572  -21.0019  -14.1428 C   0  0  1  0  0  0  0  0  0  0  0  0
   19.5221  -21.5513  -13.6664 C   0  0  0  0  0  0  0  0  0  0  0  0
   18.3463  -20.7598  -14.1521 C   0  0  0  0  0  0  0  0  0  0  0  0
   17.1817  -21.6787  -14.3663 C   0  0  0  0  0  0  0  0  0  0  0  0
   16.6246  -22.1981  -13.3814 O   0  0  0  0  0  0  0  0  0  0  0  0
   21.0899  -19.5990  -13.7594 C   0  0  0  0  0  0  0  0  0  0  0  0
   21.0799  -18.7282  -14.6643 O   0  0  0  0  0  0  0  0  0  0  0  0
   16.7290  -21.9492  -15.6389 O   0  0  0  0  0  0  0  0  0  0  0  0
   21.3190  -19.1801  -12.4609 O   0  0  0  0  0  0  0  0  0  0  0  0
  2  3  1  0
  2  1  1  0
  4  5  1  0
  4  3  1  0
  5  6  1  1
  7  8  2  0
  7  5  1  0
 10  9  1  0
 11 12  1  0
 11 10  1  0
 13 12  1  1
 13 14  1  0
 14  7  1  0
 15 13  1  0
 15 16  2  0
 17 15  1  0
 18 17  1  0
 18 19  1  1
 19 20  1  0
 20 21  1  0
 21 22  2  0
 23 18  1  0
 24 23  2  0
 25 21  1  0
 26 23  1  0
M  END
$$$$
