MME.pdb
     RDKit          3D

 26 25  0  0  1  0  0  0  0  0999 V2000
   20.2529  -23.8280  -13.9476 C   0  0  0  0  0  0  0  0  0  0  0  0
   18.8644  -23.0485  -13.1076 S   0  0  0  0  0  0  0  0  0  0  0  0
   18.9379  -21.2466  -13.1663 C   0  0  0  0  0  0  0  0  0  0  0  0
   20.3564  -20.7892  -13.0593 C   0  0  0  0  0  0  0  0  0  0  0  0
   20.9656  -21.0902  -11.7034 C   0  0  2  0  0  0  0  0  0  0  0  0
   20.2235  -20.3292  -10.6809 N   0  0  0  0  0  0  0  0  0  0  0  0
   22.3705  -20.6996  -11.6185 C   0  0  0  0  0  0  0  0  0  0  0  0
   22.8899  -20.0128  -12.5646 O   0  0  0  0  0  0  0  0  0  0  0  0
   28.5909  -19.7033   -7.0375 C   0  0  0  0  0  0  0  0  0  0  0  0
   26.9642  -20.4957   -7.3394 S   0  0  0  0  0  0  0  0  0  0  0  0
   26.7017  -20.6467   -9.1393 C   0  0  0  0  0  0  0  0  0  0  0  0
   25.3191  -21.1683   -9.3439 C   0  0  0  0  0  0  0  0  0  0  0  0
   24.6313  -20.5971  -10.5753 C   0  0  2  0  0  0  0  0  0  0  0  0
   23.2510  -21.0307  -10.5259 N   0  0  0  0  0  0  0  0  0  0  0  0
   25.3805  -21.1159  -11.7301 C   0  0  0  0  0  0  0  0  0  0  0  0
   25.3039  -22.3722  -11.9100 O   0  0  0  0  0  0  0  0  0  0  0  0
   26.1102  -20.2374  -12.5436 N   0  0  0  0  0  0  0  0  0  0  0  0
   26.6248  -20.7449  -13.8206 C   0  0  1  0  0  0  0  0  0  0  0  0
   26.1066  -19.8709  -14.9515 C   0  0  0  0  0  0  0  0  0  0  0  0
   26.6100  -20.2845  -16.3008 C   0  0  0  0  0  0  0  0  0  0  0  0
   26.0829  -19.3413  -17.3395 C   0  0  0  0  0  0  0  0  0  0  0  0
   25.3256  -18.4149  -16.9952 O   0  0  0  0  0  0  0  0  0  0  0  0
   28.0931  -20.8539  -13.7830 C   0  0  0  0  0  0  0  0  0  0  0  0
   28.7199  -20.1324  -12.9682 O   0  0  0  0  0  0  0  0  0  0  0  0
   26.4298  -19.4944  -18.6639 O   0  0  0  0  0  0  0  0  0  0  0  0
   28.8263  -21.7043  -14.5912 O   0  0  0  0  0  0  0  0  0  0  0  0
  2  3  1  0
  2  1  1  0
  4  5  1  0
  4  3  1  0
  5  6  1  1
  7  8  2  0
  7  5  1  0
 10  9  1  0
 11 12  1  0
 11 10  1  0
 13 12  1  1
 13 14  1  0
 14  7  1  0
 15 13  1  0
 15 16  2  0
 17 15  1  0
 18 17  1  0
 18 19  1  6
 19 20  1  0
 20 21  1  0
 21 22  2  0
 23 18  1  0
 24 23  2  0
 25 21  1  0
 26 23  1  0
M  END
$$$$
