MME.pdb
     RDKit          3D

 26 25  0  0  1  0  0  0  0  0999 V2000
   28.0266  -14.6258  -17.5664 C   0  0  0  0  0  0  0  0  0  0  0  0
   27.4124  -16.1105  -18.3786 S   0  0  0  0  0  0  0  0  0  0  0  0
   26.3408  -17.0949  -17.3117 C   0  0  0  0  0  0  0  0  0  0  0  0
   26.7399  -16.9174  -15.8828 C   0  0  0  0  0  0  0  0  0  0  0  0
   27.5543  -18.0831  -15.3555 C   0  0  2  0  0  0  0  0  0  0  0  0
   28.1421  -18.7972  -16.5044 N   0  0  0  0  0  0  0  0  0  0  0  0
   26.7466  -19.0385  -14.6017 C   0  0  0  0  0  0  0  0  0  0  0  0
   26.4023  -20.1414  -15.1511 O   0  0  0  0  0  0  0  0  0  0  0  0
   24.7884  -21.6425   -7.4162 C   0  0  0  0  0  0  0  0  0  0  0  0
   25.4668  -20.3223   -8.4942 S   0  0  0  0  0  0  0  0  0  0  0  0
   25.2436  -20.8073  -10.2396 C   0  0  0  0  0  0  0  0  0  0  0  0
   25.8347  -19.7254  -11.0797 C   0  0  0  0  0  0  0  0  0  0  0  0
   25.6026  -19.9202  -12.5710 C   0  0  2  0  0  0  0  0  0  0  0  0
   26.2896  -18.8411  -13.2486 N   0  0  0  0  0  0  0  0  0  0  0  0
   24.1430  -19.9090  -12.7545 C   0  0  0  0  0  0  0  0  0  0  0  0
   23.6087  -18.7564  -12.8055 O   0  0  0  0  0  0  0  0  0  0  0  0
   23.4414  -21.1181  -12.8623 N   0  0  0  0  0  0  0  0  0  0  0  0
   21.9996  -21.0587  -13.1286 C   0  0  1  0  0  0  0  0  0  0  0  0
   21.5045  -22.4437  -13.5134 C   0  0  0  0  0  0  0  0  0  0  0  0
   20.0337  -22.4920  -13.7953 C   0  0  0  0  0  0  0  0  0  0  0  0
   19.6440  -23.8902  -14.1689 C   0  0  0  0  0  0  0  0  0  0  0  0
   20.5064  -24.7882  -14.1576 O   0  0  0  0  0  0  0  0  0  0  0  0
   21.2831  -20.4719  -11.9834 C   0  0  0  0  0  0  0  0  0  0  0  0
   21.6629  -20.7797  -10.8264 O   0  0  0  0  0  0  0  0  0  0  0  0
   18.3453  -24.1835  -14.5227 O   0  0  0  0  0  0  0  0  0  0  0  0
   20.2155  -19.6002  -12.1034 O   0  0  0  0  0  0  0  0  0  0  0  0
  2  3  1  0
  2  1  1  0
  4  5  1  0
  4  3  1  0
  5  6  1  6
  7  8  2  0
  7  5  1  0
 10  9  1  0
 11 12  1  0
 11 10  1  0
 13 12  1  1
 13 14  1  0
 14  7  1  0
 15 13  1  0
 15 16  2  0
 17 15  1  0
 18 17  1  0
 18 19  1  1
 19 20  1  0
 20 21  1  0
 21 22  2  0
 23 18  1  0
 24 23  2  0
 25 21  1  0
 26 23  1  0
M  END
$$$$
