FSG.pdb
     RDKit          3D

 22 22  0  0  1  0  0  0  0  0999 V2000
   32.0991  -12.5379  -18.2777 N   0  0  0  0  0  0  0  0  0  0  0  0
   31.9665  -11.2272  -17.6871 C   0  0  1  0  0  0  0  0  0  0  0  0
   33.3315  -10.5341  -17.7896 C   0  0  0  0  0  0  0  0  0  0  0  0
   33.2246   -9.2765  -17.0277 C   0  0  0  0  0  0  0  0  0  0  0  0
   33.7257   -9.2089  -15.7486 C   0  0  0  0  0  0  0  0  0  0  0  0
   33.6271   -8.0388  -15.0374 C   0  0  0  0  0  0  0  0  0  0  0  0
   33.0216   -6.9393  -15.6220 C   0  0  0  0  0  0  0  0  0  0  0  0
   32.5121   -6.9761  -16.8966 C   0  0  0  0  0  0  0  0  0  0  0  0
   32.6248   -8.1624  -17.5864 C   0  0  0  0  0  0  0  0  0  0  0  0
   31.0133  -10.4384  -18.4680 C   0  0  0  0  0  0  0  0  0  0  0  0
   31.0675  -10.4477  -19.7264 O   0  0  0  0  0  0  0  0  0  0  0  0
   26.6429   -8.9167  -18.9138 O   0  0  0  0  0  0  0  0  0  0  0  0
   27.6728   -9.4713  -18.1737 C   0  0  0  0  0  0  0  0  0  0  0  0
   29.0298   -8.9954  -18.6509 C   0  0  2  0  0  0  0  0  0  0  0  0
   30.0228   -9.6579  -17.8447 N   0  0  0  0  0  0  0  0  0  0  0  0
   29.2014   -7.5459  -18.5165 C   0  0  0  0  0  0  0  0  0  0  0  0
   29.5069   -7.0637  -17.3982 O   0  0  0  0  0  0  0  0  0  0  0  0
   29.0323   -6.6670  -19.6160 N   0  0  0  0  0  0  0  0  0  0  0  0
   29.2044   -5.2607  -19.4067 C   0  0  0  0  0  0  0  0  0  0  0  0
   27.8998   -4.5545  -19.3900 C   0  0  0  0  0  0  0  0  0  0  0  0
   27.7757   -3.2266  -19.6968 O   0  0  0  0  0  0  0  0  0  0  0  0
   26.8599   -5.1909  -19.0834 O   0  0  0  0  0  0  0  0  0  0  0  0
  2  1  1  6
  2 10  1  0
  3  2  1  0
  4  3  1  0
  4  5  2  0
  6  5  1  0
  7  6  2  0
  8  9  2  0
  8  7  1  0
  9  4  1  0
 10 15  1  0
 10 11  2  0
 12 13  1  0
 14 13  1  1
 14 16  1  0
 15 14  1  0
 16 17  2  0
 16 18  1  0
 18 19  1  0
 19 20  1  0
 20 21  1  0
 22 20  2  0
M  END
$$$$
