FSG.pdb
     RDKit          3D

 22 22  0  0  1  0  0  0  0  0999 V2000
   25.4894  -13.5784  -17.1052 N   0  0  0  0  0  0  0  0  0  0  0  0
   24.3333  -12.8104  -17.5027 C   0  0  1  0  0  0  0  0  0  0  0  0
   23.0994  -13.7031  -17.3160 C   0  0  0  0  0  0  0  0  0  0  0  0
   23.1387  -14.7083  -18.3938 C   0  0  0  0  0  0  0  0  0  0  0  0
   23.4756  -16.0094  -18.1013 C   0  0  0  0  0  0  0  0  0  0  0  0
   23.5128  -16.9470  -19.1033 C   0  0  0  0  0  0  0  0  0  0  0  0
   23.2091  -16.5661  -20.3995 C   0  0  0  0  0  0  0  0  0  0  0  0
   22.8694  -15.2755  -20.7224 C   0  0  0  0  0  0  0  0  0  0  0  0
   22.8401  -14.3563  -19.6976 C   0  0  0  0  0  0  0  0  0  0  0  0
   24.1843  -11.6619  -16.6088 C   0  0  0  0  0  0  0  0  0  0  0  0
   24.7054  -11.6825  -15.4622 O   0  0  0  0  0  0  0  0  0  0  0  0
   25.1727   -8.3239  -17.5090 O   0  0  0  0  0  0  0  0  0  0  0  0
   24.8657   -8.7536  -16.2294 C   0  0  0  0  0  0  0  0  0  0  0  0
   23.4753   -9.3510  -16.1537 C   0  0  2  0  0  0  0  0  0  0  0  0
   23.4649  -10.5177  -16.9985 N   0  0  0  0  0  0  0  0  0  0  0  0
   22.4352   -8.4255  -16.6121 C   0  0  0  0  0  0  0  0  0  0  0  0
   22.1851   -8.3403  -17.8396 O   0  0  0  0  0  0  0  0  0  0  0  0
   21.6989   -7.6195  -15.7077 N   0  0  0  0  0  0  0  0  0  0  0  0
   20.7078   -6.7271  -16.2298 C   0  0  0  0  0  0  0  0  0  0  0  0
   20.1505   -5.8576  -15.1647 C   0  0  0  0  0  0  0  0  0  0  0  0
   19.2916   -4.8256  -15.4291 O   0  0  0  0  0  0  0  0  0  0  0  0
   20.4730   -6.0676  -13.9679 O   0  0  0  0  0  0  0  0  0  0  0  0
  2  1  1  1
  2 10  1  0
  3  2  1  0
  4  3  1  0
  4  5  2  0
  6  5  1  0
  7  6  2  0
  8  9  2  0
  8  7  1  0
  9  4  1  0
 10 15  1  0
 10 11  2  0
 12 13  1  0
 14 13  1  6
 14 16  1  0
 15 14  1  0
 16 17  2  0
 16 18  1  0
 18 19  1  0
 19 20  1  0
 20 21  1  0
 22 20  2  0
M  END
$$$$
