FSG.pdb
     RDKit          3D

 22 22  0  0  1  0  0  0  0  0999 V2000
   14.1992  -10.0686  -10.2790 N   0  0  0  0  0  0  0  0  0  0  0  0
   14.9383   -8.8291  -10.2383 C   0  0  1  0  0  0  0  0  0  0  0  0
   15.3848   -8.6050   -8.7876 C   0  0  0  0  0  0  0  0  0  0  0  0
   14.4033   -7.6874   -8.1808 C   0  0  0  0  0  0  0  0  0  0  0  0
   13.1406   -8.1414   -7.8789 C   0  0  0  0  0  0  0  0  0  0  0  0
   12.2252   -7.2885   -7.3139 C   0  0  0  0  0  0  0  0  0  0  0  0
   12.5893   -5.9779   -7.0555 C   0  0  0  0  0  0  0  0  0  0  0  0
   13.8418   -5.4956   -7.3457 C   0  0  0  0  0  0  0  0  0  0  0  0
   14.7394   -6.3729   -7.9117 C   0  0  0  0  0  0  0  0  0  0  0  0
   16.1454   -8.9582  -11.0548 C   0  0  0  0  0  0  0  0  0  0  0  0
   16.5936  -10.0995  -11.3431 O   0  0  0  0  0  0  0  0  0  0  0  0
   18.0880   -8.6601  -14.8271 O   0  0  0  0  0  0  0  0  0  0  0  0
   17.1897   -8.5215  -13.7830 C   0  0  0  0  0  0  0  0  0  0  0  0
   17.8579   -7.9900  -12.5312 C   0  0  2  0  0  0  0  0  0  0  0  0
   16.8306   -7.8273  -11.5347 N   0  0  0  0  0  0  0  0  0  0  0  0
   18.5177   -6.6988  -12.7458 C   0  0  0  0  0  0  0  0  0  0  0  0
   17.8245   -5.6526  -12.7844 O   0  0  0  0  0  0  0  0  0  0  0  0
   19.9218   -6.5941  -12.9119 N   0  0  0  0  0  0  0  0  0  0  0  0
   20.4900   -5.3067  -13.1778 C   0  0  0  0  0  0  0  0  0  0  0  0
   21.9274   -5.4138  -13.5290 C   0  0  0  0  0  0  0  0  0  0  0  0
   22.6692   -4.3389  -13.9377 O   0  0  0  0  0  0  0  0  0  0  0  0
   22.4976   -6.5316  -13.4518 O   0  0  0  0  0  0  0  0  0  0  0  0
  2  1  1  1
  2 10  1  0
  3  2  1  0
  4  3  1  0
  4  5  2  0
  6  5  1  0
  7  6  2  0
  8  9  2  0
  8  7  1  0
  9  4  1  0
 10 15  1  0
 10 11  2  0
 12 13  1  0
 14 13  1  6
 14 16  1  0
 15 14  1  0
 16 17  2  0
 16 18  1  0
 18 19  1  0
 19 20  1  0
 20 21  1  0
 22 20  2  0
M  END
$$$$
