FSG.pdb
     RDKit          3D

 22 22  0  0  1  0  0  0  0  0999 V2000
   28.5804  -19.8255  -15.6515 N   0  0  0  0  0  0  0  0  0  0  0  0
   27.5094  -19.8081  -14.6835 C   0  0  1  0  0  0  0  0  0  0  0  0
   27.9269  -18.8623  -13.5497 C   0  0  0  0  0  0  0  0  0  0  0  0
   28.4331  -19.7118  -12.4563 C   0  0  0  0  0  0  0  0  0  0  0  0
   29.7624  -20.0636  -12.4249 C   0  0  0  0  0  0  0  0  0  0  0  0
   30.2357  -20.8545  -11.4077 C   0  0  0  0  0  0  0  0  0  0  0  0
   29.3630  -21.2881  -10.4240 C   0  0  0  0  0  0  0  0  0  0  0  0
   28.0312  -20.9537  -10.4283 C   0  0  0  0  0  0  0  0  0  0  0  0
   27.5841  -20.1595  -11.4603 C   0  0  0  0  0  0  0  0  0  0  0  0
   26.3070  -19.2493  -15.3018 C   0  0  0  0  0  0  0  0  0  0  0  0
   26.3895  -18.2253  -16.0307 O   0  0  0  0  0  0  0  0  0  0  0  0
   24.4501  -20.8221  -17.6053 O   0  0  0  0  0  0  0  0  0  0  0  0
   23.4349  -20.3999  -16.7642 C   0  0  0  0  0  0  0  0  0  0  0  0
   23.9027  -19.3140  -15.8168 C   0  0  2  0  0  0  0  0  0  0  0  0
   25.0419  -19.8312  -15.1029 N   0  0  0  0  0  0  0  0  0  0  0  0
   22.8737  -18.9254  -14.8479 C   0  0  0  0  0  0  0  0  0  0  0  0
   22.9090  -19.4042  -13.6878 O   0  0  0  0  0  0  0  0  0  0  0  0
   21.8344  -18.0209  -15.1820 N   0  0  0  0  0  0  0  0  0  0  0  0
   20.8507  -17.7049  -14.1902 C   0  0  0  0  0  0  0  0  0  0  0  0
   19.7046  -18.6450  -14.2488 C   0  0  0  0  0  0  0  0  0  0  0  0
   18.4124  -18.2471  -14.0373 O   0  0  0  0  0  0  0  0  0  0  0  0
   19.9165  -19.8580  -14.5021 O   0  0  0  0  0  0  0  0  0  0  0  0
  2  1  1  6
  2 10  1  0
  3  2  1  0
  4  3  1  0
  4  5  2  0
  6  5  1  0
  7  6  2  0
  8  9  2  0
  8  7  1  0
  9  4  1  0
 10 15  1  0
 10 11  2  0
 12 13  1  0
 14 13  1  6
 14 16  1  0
 15 14  1  0
 16 17  2  0
 16 18  1  0
 18 19  1  0
 19 20  1  0
 20 21  1  0
 22 20  2  0
M  END
$$$$
