FSG.pdb
     RDKit          3D

 22 22  0  0  1  0  0  0  0  0999 V2000
   19.1399   -9.1662  -19.0306 N   0  0  0  0  0  0  0  0  0  0  0  0
   20.4575   -8.6345  -18.7745 C   0  0  1  0  0  0  0  0  0  0  0  0
   20.6546   -7.4246  -19.6972 C   0  0  0  0  0  0  0  0  0  0  0  0
   21.0831   -7.9557  -21.0041 C   0  0  0  0  0  0  0  0  0  0  0  0
   22.4129   -8.2270  -21.2276 C   0  0  0  0  0  0  0  0  0  0  0  0
   22.8139   -8.7216  -22.4437 C   0  0  0  0  0  0  0  0  0  0  0  0
   21.8686   -8.9408  -23.4314 C   0  0  0  0  0  0  0  0  0  0  0  0
   20.5344   -8.6798  -23.2382 C   0  0  0  0  0  0  0  0  0  0  0  0
   20.1607   -8.1844  -22.0090 C   0  0  0  0  0  0  0  0  0  0  0  0
   20.5248   -8.1512  -17.3953 C   0  0  0  0  0  0  0  0  0  0  0  0
   19.4682   -7.8488  -16.7799 O   0  0  0  0  0  0  0  0  0  0  0  0
   22.3611   -9.8238  -14.4353 O   0  0  0  0  0  0  0  0  0  0  0  0
   22.8190   -8.5375  -14.6632 C   0  0  0  0  0  0  0  0  0  0  0  0
   21.7659   -7.6732  -15.3262 C   0  0  2  0  0  0  0  0  0  0  0  0
   21.7543   -8.0121  -16.7262 N   0  0  0  0  0  0  0  0  0  0  0  0
   22.0402   -6.2399  -15.1886 C   0  0  0  0  0  0  0  0  0  0  0  0
   22.7875   -5.6737  -16.0236 O   0  0  0  0  0  0  0  0  0  0  0  0
   21.4850   -5.4691  -14.1362 N   0  0  0  0  0  0  0  0  0  0  0  0
   21.7814   -4.0692  -14.0768 C   0  0  0  0  0  0  0  0  0  0  0  0
   20.6603   -3.2576  -14.6109 C   0  0  0  0  0  0  0  0  0  0  0  0
   20.6655   -1.8892  -14.5916 O   0  0  0  0  0  0  0  0  0  0  0  0
   19.6603   -3.8389  -15.1034 O   0  0  0  0  0  0  0  0  0  0  0  0
  2  1  1  6
  2 10  1  0
  3  2  1  0
  4  3  1  0
  4  5  2  0
  6  5  1  0
  7  6  2  0
  8  9  2  0
  8  7  1  0
  9  4  1  0
 10 15  1  0
 10 11  2  0
 12 13  1  0
 14 13  1  1
 14 16  1  0
 15 14  1  0
 16 17  2  0
 16 18  1  0
 18 19  1  0
 19 20  1  0
 20 21  1  0
 22 20  2  0
M  END
$$$$
