FSG.pdb
     RDKit          3D

 22 22  0  0  1  0  0  0  0  0999 V2000
   25.5014    0.8056   -9.2398 N   0  0  0  0  0  0  0  0  0  0  0  0
   25.6060    1.1469   -7.8409 C   0  0  1  0  0  0  0  0  0  0  0  0
   26.9343    1.8894   -7.6447 C   0  0  0  0  0  0  0  0  0  0  0  0
   27.8576    0.9389   -6.9985 C   0  0  0  0  0  0  0  0  0  0  0  0
   28.7833    0.2629   -7.7587 C   0  0  0  0  0  0  0  0  0  0  0  0
   29.6439   -0.6226   -7.1589 C   0  0  0  0  0  0  0  0  0  0  0  0
   29.5663   -0.8223   -5.7910 C   0  0  0  0  0  0  0  0  0  0  0  0
   28.6533   -0.1625   -5.0058 C   0  0  0  0  0  0  0  0  0  0  0  0
   27.8027    0.7196   -5.6339 C   0  0  0  0  0  0  0  0  0  0  0  0
   24.5290    2.0715   -7.4863 C   0  0  0  0  0  0  0  0  0  0  0  0
   23.7827    2.5454   -8.3836 O   0  0  0  0  0  0  0  0  0  0  0  0
   20.7254    2.8668   -5.7507 O   0  0  0  0  0  0  0  0  0  0  0  0
   21.9243    2.2943   -6.1397 C   0  0  0  0  0  0  0  0  0  0  0  0
   23.1057    3.1872   -5.8192 C   0  0  2  0  0  0  0  0  0  0  0  0
   24.2992    2.4526   -6.1519 N   0  0  0  0  0  0  0  0  0  0  0  0
   23.1622    3.5661   -4.4044 C   0  0  0  0  0  0  0  0  0  0  0  0
   23.6885    2.7810   -3.5778 O   0  0  0  0  0  0  0  0  0  0  0  0
   22.6384    4.7981   -3.9378 N   0  0  0  0  0  0  0  0  0  0  0  0
   22.6861    5.0799   -2.5345 C   0  0  0  0  0  0  0  0  0  0  0  0
   22.1238    6.4195   -2.2341 C   0  0  0  0  0  0  0  0  0  0  0  0
   21.9987    6.8979   -0.9580 O   0  0  0  0  0  0  0  0  0  0  0  0
   21.7438    7.1534   -3.1814 O   0  0  0  0  0  0  0  0  0  0  0  0
  2  1  1  6
  2 10  1  0
  3  2  1  0
  4  3  1  0
  4  5  2  0
  6  5  1  0
  7  6  2  0
  8  9  2  0
  8  7  1  0
  9  4  1  0
 10 15  1  0
 10 11  2  0
 12 13  1  0
 14 13  1  1
 14 16  1  0
 15 14  1  0
 16 17  2  0
 16 18  1  0
 18 19  1  0
 19 20  1  0
 20 21  1  0
 22 20  2  0
M  END
$$$$
