FSG.pdb
     RDKit          3D

 22 22  0  0  1  0  0  0  0  0999 V2000
   26.6217   -9.4121  -17.9900 N   0  0  0  0  0  0  0  0  0  0  0  0
   25.2177   -9.7460  -17.9507 C   0  0  1  0  0  0  0  0  0  0  0  0
   24.9545  -10.4811  -16.6298 C   0  0  0  0  0  0  0  0  0  0  0  0
   25.7632  -11.7132  -16.6641 C   0  0  0  0  0  0  0  0  0  0  0  0
   26.7620  -11.8999  -15.7371 C   0  0  0  0  0  0  0  0  0  0  0  0
   27.5162  -13.0465  -15.7673 C   0  0  0  0  0  0  0  0  0  0  0  0
   27.2583  -14.0022  -16.7356 C   0  0  0  0  0  0  0  0  0  0  0  0
   26.2684  -13.8443  -17.6740 C   0  0  0  0  0  0  0  0  0  0  0  0
   25.5278  -12.6848  -17.6200 C   0  0  0  0  0  0  0  0  0  0  0  0
   24.4275   -8.5148  -17.9336 C   0  0  0  0  0  0  0  0  0  0  0  0
   24.8950   -7.4719  -17.4041 O   0  0  0  0  0  0  0  0  0  0  0  0
   20.5612   -8.4236  -19.4275 O   0  0  0  0  0  0  0  0  0  0  0  0
   21.3702   -7.3140  -19.6017 C   0  0  0  0  0  0  0  0  0  0  0  0
   22.4263   -7.2107  -18.5202 C   0  0  2  0  0  0  0  0  0  0  0  0
   23.1411   -8.4611  -18.5001 N   0  0  0  0  0  0  0  0  0  0  0  0
   21.8552   -6.9707  -17.1917 C   0  0  0  0  0  0  0  0  0  0  0  0
   21.6642   -7.9422  -16.4196 O   0  0  0  0  0  0  0  0  0  0  0  0
   21.5101   -5.6688  -16.7493 N   0  0  0  0  0  0  0  0  0  0  0  0
   20.8830   -5.5193  -15.4704 C   0  0  0  0  0  0  0  0  0  0  0  0
   21.8462   -5.0357  -14.4508 C   0  0  0  0  0  0  0  0  0  0  0  0
   21.4723   -4.7245  -13.1717 O   0  0  0  0  0  0  0  0  0  0  0  0
   23.0567   -4.9026  -14.7628 O   0  0  0  0  0  0  0  0  0  0  0  0
  2  1  1  1
  2 10  1  0
  3  2  1  0
  4  3  1  0
  4  5  2  0
  6  5  1  0
  7  6  2  0
  8  9  2  0
  8  7  1  0
  9  4  1  0
 10 15  1  0
 10 11  2  0
 12 13  1  0
 14 13  1  6
 14 16  1  0
 15 14  1  0
 16 17  2  0
 16 18  1  0
 18 19  1  0
 19 20  1  0
 20 21  1  0
 22 20  2  0
M  END
$$$$
