FSG.pdb
     RDKit          3D

 22 22  0  0  1  0  0  0  0  0999 V2000
   27.1034  -19.0959  -16.9369 N   0  0  0  0  0  0  0  0  0  0  0  0
   26.8368  -18.6161  -15.6016 C   0  0  1  0  0  0  0  0  0  0  0  0
   25.4645  -17.9301  -15.6227 C   0  0  0  0  0  0  0  0  0  0  0  0
   25.7132  -16.4959  -15.8571 C   0  0  0  0  0  0  0  0  0  0  0  0
   25.5609  -15.9746  -17.1207 C   0  0  0  0  0  0  0  0  0  0  0  0
   25.7920  -14.6395  -17.3411 C   0  0  0  0  0  0  0  0  0  0  0  0
   26.1768  -13.8344  -16.2823 C   0  0  0  0  0  0  0  0  0  0  0  0
   26.3372  -14.3257  -15.0102 C   0  0  0  0  0  0  0  0  0  0  0  0
   26.0987  -15.6681  -14.8182 C   0  0  0  0  0  0  0  0  0  0  0  0
   26.7449  -19.7547  -14.6874 C   0  0  0  0  0  0  0  0  0  0  0  0
   26.3123  -20.8631  -15.1009 O   0  0  0  0  0  0  0  0  0  0  0  0
   29.3755  -21.0583  -12.7014 O   0  0  0  0  0  0  0  0  0  0  0  0
   28.3377  -20.9891  -11.7879 C   0  0  0  0  0  0  0  0  0  0  0  0
   26.9996  -20.7861  -12.4690 C   0  0  2  0  0  0  0  0  0  0  0  0
   27.1317  -19.6459  -13.3393 N   0  0  0  0  0  0  0  0  0  0  0  0
   25.9128  -20.5326  -11.5187 C   0  0  0  0  0  0  0  0  0  0  0  0
   25.9231  -19.4765  -10.8397 O   0  0  0  0  0  0  0  0  0  0  0  0
   24.8446  -21.4478  -11.3416 N   0  0  0  0  0  0  0  0  0  0  0  0
   23.7759  -21.0962  -10.4554 C   0  0  0  0  0  0  0  0  0  0  0  0
   22.4608  -21.5033  -11.0084 C   0  0  0  0  0  0  0  0  0  0  0  0
   21.2833  -21.2899  -10.3446 O   0  0  0  0  0  0  0  0  0  0  0  0
   22.4138  -22.0677  -12.1308 O   0  0  0  0  0  0  0  0  0  0  0  0
  2  1  1  6
  2 10  1  0
  3  2  1  0
  4  3  1  0
  4  5  2  0
  6  5  1  0
  7  6  2  0
  8  9  2  0
  8  7  1  0
  9  4  1  0
 10 15  1  0
 10 11  2  0
 12 13  1  0
 14 13  1  1
 14 16  1  0
 15 14  1  0
 16 17  2  0
 16 18  1  0
 18 19  1  0
 19 20  1  0
 20 21  1  0
 22 20  2  0
M  END
$$$$
