FSG.pdb
     RDKit          3D

 22 22  0  0  1  0  0  0  0  0999 V2000
   24.4903  -19.9216   -8.4887 N   0  0  0  0  0  0  0  0  0  0  0  0
   25.8325  -19.8089   -9.0085 C   0  0  1  0  0  0  0  0  0  0  0  0
   26.6536  -20.9649   -8.4223 C   0  0  0  0  0  0  0  0  0  0  0  0
   27.1750  -20.4969   -7.1251 C   0  0  0  0  0  0  0  0  0  0  0  0
   26.9194  -21.2227   -5.9851 C   0  0  0  0  0  0  0  0  0  0  0  0
   27.4040  -20.7886   -4.7762 C   0  0  0  0  0  0  0  0  0  0  0  0
   28.1463  -19.6210   -4.7233 C   0  0  0  0  0  0  0  0  0  0  0  0
   28.4179  -18.8752   -5.8439 C   0  0  0  0  0  0  0  0  0  0  0  0
   27.9195  -19.3342   -7.0425 C   0  0  0  0  0  0  0  0  0  0  0  0
   25.8052  -19.9815  -10.4611 C   0  0  0  0  0  0  0  0  0  0  0  0
   24.7891  -20.4741  -11.0194 O   0  0  0  0  0  0  0  0  0  0  0  0
   27.5387  -18.0535  -14.1256 O   0  0  0  0  0  0  0  0  0  0  0  0
   27.9927  -19.0758  -13.3101 C   0  0  0  0  0  0  0  0  0  0  0  0
   26.8491  -19.8479  -12.6842 C   0  0  2  0  0  0  0  0  0  0  0  0
   26.8974  -19.6077  -11.2648 N   0  0  0  0  0  0  0  0  0  0  0  0
   26.9419  -21.2911  -12.9233 C   0  0  0  0  0  0  0  0  0  0  0  0
   27.1098  -22.0663  -11.9500 O   0  0  0  0  0  0  0  0  0  0  0  0
   26.8475  -21.8416  -14.2263 N   0  0  0  0  0  0  0  0  0  0  0  0
   25.6527  -21.6183  -14.9838 C   0  0  0  0  0  0  0  0  0  0  0  0
   24.7037  -22.7496  -14.8400 C   0  0  0  0  0  0  0  0  0  0  0  0
   24.5362  -23.6998  -15.8104 O   0  0  0  0  0  0  0  0  0  0  0  0
   24.0208  -22.8497  -13.7893 O   0  0  0  0  0  0  0  0  0  0  0  0
  2  1  1  1
  2 10  1  0
  3  2  1  0
  4  3  1  0
  4  5  2  0
  6  5  1  0
  7  6  2  0
  8  9  2  0
  8  7  1  0
  9  4  1  0
 10 15  1  0
 10 11  2  0
 12 13  1  0
 14 13  1  6
 14 16  1  0
 15 14  1  0
 16 17  2  0
 16 18  1  0
 18 19  1  0
 19 20  1  0
 20 21  1  0
 22 20  2  0
M  END
$$$$
