FSG.pdb
     RDKit          3D

 22 22  0  0  1  0  0  0  0  0999 V2000
   23.8387  -10.2042  -17.8637 N   0  0  0  0  0  0  0  0  0  0  0  0
   23.5369   -9.5201  -16.6287 C   0  0  1  0  0  0  0  0  0  0  0  0
   24.5867   -8.4166  -16.4434 C   0  0  0  0  0  0  0  0  0  0  0  0
   25.8828   -9.0941  -16.2571 C   0  0  0  0  0  0  0  0  0  0  0  0
   26.0749   -9.9120  -15.1681 C   0  0  0  0  0  0  0  0  0  0  0  0
   27.2810  -10.5438  -14.9929 C   0  0  0  0  0  0  0  0  0  0  0  0
   28.2905  -10.3467  -15.9199 C   0  0  0  0  0  0  0  0  0  0  0  0
   28.1287   -9.5365  -17.0167 C   0  0  0  0  0  0  0  0  0  0  0  0
   26.9090   -8.9156  -17.1672 C   0  0  0  0  0  0  0  0  0  0  0  0
   22.2311   -8.8700  -16.7420 C   0  0  0  0  0  0  0  0  0  0  0  0
   21.7612   -8.5908  -17.8769 O   0  0  0  0  0  0  0  0  0  0  0  0
   19.8709   -8.2352  -13.3811 O   0  0  0  0  0  0  0  0  0  0  0  0
   19.3146   -8.5788  -14.6012 C   0  0  0  0  0  0  0  0  0  0  0  0
   20.1303   -8.0475  -15.7623 C   0  0  2  0  0  0  0  0  0  0  0  0
   21.4735   -8.5426  -15.6029 N   0  0  0  0  0  0  0  0  0  0  0  0
   20.1677   -6.5829  -15.8053 C   0  0  0  0  0  0  0  0  0  0  0  0
   21.1332   -5.9765  -15.2794 O   0  0  0  0  0  0  0  0  0  0  0  0
   19.1421   -5.8257  -16.4256 N   0  0  0  0  0  0  0  0  0  0  0  0
   19.3027   -4.4066  -16.5338 C   0  0  0  0  0  0  0  0  0  0  0  0
   18.7016   -3.7059  -15.3726 C   0  0  0  0  0  0  0  0  0  0  0  0
   18.7231   -2.3439  -15.2408 O   0  0  0  0  0  0  0  0  0  0  0  0
   18.1475   -4.3795  -14.4672 O   0  0  0  0  0  0  0  0  0  0  0  0
  2  1  1  6
  2 10  1  0
  3  2  1  0
  4  3  1  0
  4  5  2  0
  6  5  1  0
  7  6  2  0
  8  9  2  0
  8  7  1  0
  9  4  1  0
 10 15  1  0
 10 11  2  0
 12 13  1  0
 14 13  1  1
 14 16  1  0
 15 14  1  0
 16 17  2  0
 16 18  1  0
 18 19  1  0
 19 20  1  0
 20 21  1  0
 22 20  2  0
M  END
$$$$
