FSG.pdb
     RDKit          3D

 22 22  0  0  1  0  0  0  0  0999 V2000
   26.3011  -33.1018    1.6782 N   0  0  0  0  0  0  0  0  0  0  0  0
   25.9873  -33.0484    0.2700 C   0  0  1  0  0  0  0  0  0  0  0  0
   25.9960  -31.5725   -0.1495 C   0  0  0  0  0  0  0  0  0  0  0  0
   24.7351  -30.9868    0.3411 C   0  0  0  0  0  0  0  0  0  0  0  0
   23.6115  -31.0248   -0.4512 C   0  0  0  0  0  0  0  0  0  0  0  0
   22.4364  -30.4800    0.0037 C   0  0  0  0  0  0  0  0  0  0  0  0
   22.4006  -29.8978    1.2595 C   0  0  0  0  0  0  0  0  0  0  0  0
   23.5054  -29.8447    2.0732 C   0  0  0  0  0  0  0  0  0  0  0  0
   24.6702  -30.3988    1.5913 C   0  0  0  0  0  0  0  0  0  0  0  0
   27.0399  -33.7266   -0.4866 C   0  0  0  0  0  0  0  0  0  0  0  0
   28.2410  -33.6358   -0.1180 O   0  0  0  0  0  0  0  0  0  0  0  0
   27.1656  -37.4285   -1.7461 O   0  0  0  0  0  0  0  0  0  0  0  0
   27.2470  -36.5121   -2.7805 C   0  0  0  0  0  0  0  0  0  0  0  0
   27.8064  -35.1835   -2.3141 C   0  0  2  0  0  0  0  0  0  0  0  0
   26.7451  -34.4889   -1.6315 N   0  0  0  0  0  0  0  0  0  0  0  0
   28.2826  -34.3492   -3.4212 C   0  0  0  0  0  0  0  0  0  0  0  0
   27.7724  -33.2162   -3.6013 O   0  0  0  0  0  0  0  0  0  0  0  0
   29.3068  -34.7842   -4.2996 N   0  0  0  0  0  0  0  0  0  0  0  0
   29.7876  -33.8786   -5.2996 C   0  0  0  0  0  0  0  0  0  0  0  0
   30.7841  -34.5313   -6.1838 C   0  0  0  0  0  0  0  0  0  0  0  0
   31.2798  -33.9285   -7.3080 O   0  0  0  0  0  0  0  0  0  0  0  0
   31.1971  -35.6841   -5.8992 O   0  0  0  0  0  0  0  0  0  0  0  0
  2  1  1  1
  2 10  1  0
  3  2  1  0
  4  3  1  0
  4  5  2  0
  6  5  1  0
  7  6  2  0
  8  9  2  0
  8  7  1  0
  9  4  1  0
 10 15  1  0
 10 11  2  0
 12 13  1  0
 14 13  1  6
 14 16  1  0
 15 14  1  0
 16 17  2  0
 16 18  1  0
 18 19  1  0
 19 20  1  0
 20 21  1  0
 22 20  2  0
M  END
$$$$
