DHH.pdb
     RDKit          3D

 29 30  0  0  1  0  0  0  0  0999 V2000
   10.9481  -18.0460   19.4410 N   0  0  0  0  0  0  0  0  0  0  0  0
   10.1920  -18.1398   20.6928 C   0  0  1  0  0  0  0  0  0  0  0  0
   11.0253  -18.9891   21.6328 C   0  0  0  0  0  0  0  0  0  0  0  0
   11.0932  -20.3535   21.0597 C   0  0  0  0  0  0  0  0  0  0  0  0
   12.1261  -20.8200   20.5189 O   0  0  0  0  0  0  0  0  0  0  0  0
   10.0196  -16.7621   21.2077 C   0  0  0  0  0  0  0  0  0  0  0  0
   10.9801  -15.9576   21.3105 O   0  0  0  0  0  0  0  0  0  0  0  0
    9.9823  -21.1957   21.0994 O   0  0  0  0  0  0  0  0  0  0  0  0
    8.7438  -16.3244   21.5985 N   0  0  0  0  0  0  0  0  0  0  0  0
    8.4503  -15.0531   22.2304 C   0  0  1  0  0  0  0  0  0  0  0  0
    7.1873  -14.5300   21.6076 C   0  0  0  0  0  0  0  0  0  0  0  0
    7.4930  -13.9211   20.2878 C   0  0  0  0  0  0  0  0  0  0  0  0
    8.7508  -13.7998   19.6845 C   0  0  0  0  0  0  0  0  0  0  0  0
    8.6243  -13.1993   18.5015 N   0  0  0  0  0  0  0  0  0  0  0  0
    7.3243  -12.9257   18.3151 C   0  0  0  0  0  0  0  0  0  0  0  0
    6.6495  -13.3607   19.3900 N   0  0  0  0  0  0  0  0  0  0  0  0
    8.3681  -15.2608   23.6709 C   0  0  0  0  0  0  0  0  0  0  0  0
    7.3473  -14.8535   24.2848 O   0  0  0  0  0  0  0  0  0  0  0  0
    9.4339  -15.9236   24.4050 N   0  0  0  0  0  0  0  0  0  0  0  0
    9.0802  -16.7553   25.5271 C   0  0  1  0  0  0  0  0  0  0  0  0
    8.0475  -17.7795   25.2230 C   0  0  0  0  0  0  0  0  0  0  0  0
    7.7160  -18.7381   26.2590 C   0  0  0  0  0  0  0  0  0  0  0  0
    8.1237  -18.8213   27.5608 C   0  0  0  0  0  0  0  0  0  0  0  0
    7.5255  -19.8840   28.1639 N   0  0  0  0  0  0  0  0  0  0  0  0
    6.7579  -20.4350   27.2160 C   0  0  0  0  0  0  0  0  0  0  0  0
    6.8545  -19.7708   26.0732 N   0  0  0  0  0  0  0  0  0  0  0  0
   10.2997  -17.2999   26.1534 C   0  0  0  0  0  0  0  0  0  0  0  0
   11.5428  -17.3004   25.5690 O   0  0  0  0  0  0  0  0  0  0  0  0
   10.1961  -17.7980   27.2990 O   0  0  0  0  0  0  0  0  0  0  0  0
  2  1  1  6
  3  4  1  0
  3  2  1  0
  4  5  2  0
  6  2  1  0
  6  7  2  0
  8  4  1  0
  9  6  1  0
 10  9  1  0
 10 11  1  6
 11 12  1  0
 12 16  1  0
 12 13  2  0
 13 14  1  0
 15 14  1  0
 16 15  2  0
 17 10  1  0
 18 17  2  0
 19 17  1  0
 20 21  1  6
 20 19  1  0
 21 22  1  0
 22 23  2  0
 22 26  1  0
 23 24  1  0
 24 25  1  0
 26 25  2  0
 27 28  1  0
 27 20  1  0
 29 27  2  0
M  END
$$$$
