DHH.pdb
     RDKit          3D

 29 30  0  0  1  0  0  0  0  0999 V2000
   14.3625  -24.6957   27.3859 N   0  0  0  0  0  0  0  0  0  0  0  0
   14.8603  -23.4070   26.8974 C   0  0  1  0  0  0  0  0  0  0  0  0
   13.8600  -22.9263   25.8641 C   0  0  0  0  0  0  0  0  0  0  0  0
   13.9383  -23.8464   24.7056 C   0  0  0  0  0  0  0  0  0  0  0  0
   15.0238  -24.2028   24.1845 O   0  0  0  0  0  0  0  0  0  0  0  0
   14.9288  -22.4918   28.0597 C   0  0  0  0  0  0  0  0  0  0  0  0
   15.6317  -21.4496   28.0543 O   0  0  0  0  0  0  0  0  0  0  0  0
   12.7778  -24.3665   24.1331 O   0  0  0  0  0  0  0  0  0  0  0  0
   14.1872  -22.7852   29.2155 N   0  0  0  0  0  0  0  0  0  0  0  0
   14.0280  -21.9043   30.3559 C   0  0  1  0  0  0  0  0  0  0  0  0
   12.5600  -21.8470   30.6696 C   0  0  0  0  0  0  0  0  0  0  0  0
   11.8717  -20.9648   29.6929 C   0  0  0  0  0  0  0  0  0  0  0  0
   12.0048  -19.5765   29.5686 C   0  0  0  0  0  0  0  0  0  0  0  0
   11.2290  -19.1389   28.5773 N   0  0  0  0  0  0  0  0  0  0  0  0
   10.5949  -20.1980   28.0520 C   0  0  0  0  0  0  0  0  0  0  0  0
   10.9839  -21.2915   28.7251 N   0  0  0  0  0  0  0  0  0  0  0  0
   14.8559  -22.4051   31.4461 C   0  0  0  0  0  0  0  0  0  0  0  0
   14.6540  -23.5716   31.8743 O   0  0  0  0  0  0  0  0  0  0  0  0
   15.9010  -21.5892   32.0430 N   0  0  0  0  0  0  0  0  0  0  0  0
   16.6996  -22.1603   33.0975 C   0  0  1  0  0  0  0  0  0  0  0  0
   17.9307  -21.3903   33.4129 C   0  0  0  0  0  0  0  0  0  0  0  0
   18.7972  -21.8943   34.4604 C   0  0  0  0  0  0  0  0  0  0  0  0
   18.8491  -23.1201   35.0623 C   0  0  0  0  0  0  0  0  0  0  0  0
   19.8516  -23.1397   35.9818 N   0  0  0  0  0  0  0  0  0  0  0  0
   20.3989  -21.9196   35.9257 C   0  0  0  0  0  0  0  0  0  0  0  0
   19.7883  -21.1599   35.0277 N   0  0  0  0  0  0  0  0  0  0  0  0
   15.8527  -22.4456   34.2712 C   0  0  0  0  0  0  0  0  0  0  0  0
   16.2242  -23.2442   35.3252 O   0  0  0  0  0  0  0  0  0  0  0  0
   14.7137  -21.9237   34.3111 O   0  0  0  0  0  0  0  0  0  0  0  0
  2  1  1  1
  3  4  1  0
  3  2  1  0
  4  5  2  0
  6  2  1  0
  6  7  2  0
  8  4  1  0
  9  6  1  0
 10  9  1  0
 10 11  1  1
 11 12  1  0
 12 16  1  0
 12 13  2  0
 13 14  1  0
 15 14  1  0
 16 15  2  0
 17 10  1  0
 18 17  2  0
 19 17  1  0
 20 21  1  1
 20 19  1  0
 21 22  1  0
 22 23  2  0
 22 26  1  0
 23 24  1  0
 24 25  1  0
 26 25  2  0
 27 28  1  0
 27 20  1  0
 29 27  2  0
M  END
$$$$
