DHH.pdb
     RDKit          3D

 29 30  0  0  1  0  0  0  0  0999 V2000
   12.8949  -15.2583   17.9987 N   0  0  0  0  0  0  0  0  0  0  0  0
   12.2371  -16.3811   18.6724 C   0  0  1  0  0  0  0  0  0  0  0  0
   13.3086  -17.4294   18.9009 C   0  0  0  0  0  0  0  0  0  0  0  0
   13.6708  -17.9928   17.5794 C   0  0  0  0  0  0  0  0  0  0  0  0
   14.7610  -17.7500   17.0055 O   0  0  0  0  0  0  0  0  0  0  0  0
   11.6908  -15.8695   19.9502 C   0  0  0  0  0  0  0  0  0  0  0  0
   12.3828  -15.1972   20.7561 O   0  0  0  0  0  0  0  0  0  0  0  0
   12.7909  -18.8375   16.9032 O   0  0  0  0  0  0  0  0  0  0  0  0
   10.3539  -16.1363   20.2869 N   0  0  0  0  0  0  0  0  0  0  0  0
    9.6846  -15.6797   21.4891 C   0  0  1  0  0  0  0  0  0  0  0  0
    8.2739  -15.3331   21.1062 C   0  0  0  0  0  0  0  0  0  0  0  0
    8.2744  -14.1579   20.1980 C   0  0  0  0  0  0  0  0  0  0  0  0
    8.1524  -14.1683   18.8031 C   0  0  0  0  0  0  0  0  0  0  0  0
    8.1952  -12.9194   18.3402 N   0  0  0  0  0  0  0  0  0  0  0  0
    8.3410  -12.0959   19.3890 C   0  0  0  0  0  0  0  0  0  0  0  0
    8.3882  -12.8440   20.5018 N   0  0  0  0  0  0  0  0  0  0  0  0
    9.7928  -16.7216   22.5028 C   0  0  0  0  0  0  0  0  0  0  0  0
   10.0864  -17.8912   22.1411 O   0  0  0  0  0  0  0  0  0  0  0  0
    9.5697  -16.4375   23.9112 N   0  0  0  0  0  0  0  0  0  0  0  0
   10.3171  -17.1863   24.8893 C   0  0  1  0  0  0  0  0  0  0  0  0
   11.7871  -17.1720   24.6725 C   0  0  0  0  0  0  0  0  0  0  0  0
   12.4368  -18.4250   24.3410 C   0  0  0  0  0  0  0  0  0  0  0  0
   11.9436  -19.5589   23.7591 C   0  0  0  0  0  0  0  0  0  0  0  0
   12.9384  -20.4767   23.6222 N   0  0  0  0  0  0  0  0  0  0  0  0
   14.0288  -19.8852   24.1248 C   0  0  0  0  0  0  0  0  0  0  0  0
   13.7555  -18.6633   24.5592 N   0  0  0  0  0  0  0  0  0  0  0  0
    9.9068  -16.7872   26.2489 C   0  0  0  0  0  0  0  0  0  0  0  0
   10.2085  -17.4873   27.3915 O   0  0  0  0  0  0  0  0  0  0  0  0
    9.2354  -15.7358   26.3720 O   0  0  0  0  0  0  0  0  0  0  0  0
  2  1  1  1
  3  4  1  0
  3  2  1  0
  4  5  2  0
  6  2  1  0
  6  7  2  0
  8  4  1  0
  9  6  1  0
 10  9  1  0
 10 11  1  6
 11 12  1  0
 12 16  1  0
 12 13  2  0
 13 14  1  0
 15 14  1  0
 16 15  2  0
 17 10  1  0
 18 17  2  0
 19 17  1  0
 20 21  1  1
 20 19  1  0
 21 22  1  0
 22 23  2  0
 22 26  1  0
 23 24  1  0
 24 25  1  0
 26 25  2  0
 27 28  1  0
 27 20  1  0
 29 27  2  0
M  END
$$$$
