DHH.pdb
     RDKit          3D

 29 30  0  0  1  0  0  0  0  0999 V2000
   10.1620  -17.9434   15.7232 N   0  0  0  0  0  0  0  0  0  0  0  0
    9.1229  -16.9542   16.0219 C   0  0  1  0  0  0  0  0  0  0  0  0
    7.9890  -17.2189   15.0505 C   0  0  0  0  0  0  0  0  0  0  0  0
    8.4449  -16.7949   13.7062 C   0  0  0  0  0  0  0  0  0  0  0  0
    9.0233  -17.5672   12.9026 O   0  0  0  0  0  0  0  0  0  0  0  0
    8.7019  -17.1674   17.4256 C   0  0  0  0  0  0  0  0  0  0  0  0
    7.7168  -16.5714   17.9300 O   0  0  0  0  0  0  0  0  0  0  0  0
    8.2440  -15.4858   13.2693 O   0  0  0  0  0  0  0  0  0  0  0  0
    9.4186  -18.0647   18.2338 N   0  0  0  0  0  0  0  0  0  0  0  0
    9.1216  -18.3652   19.6206 C   0  0  1  0  0  0  0  0  0  0  0  0
    9.7348  -19.7024   19.9251 C   0  0  0  0  0  0  0  0  0  0  0  0
    8.7582  -20.7818   19.6295 C   0  0  0  0  0  0  0  0  0  0  0  0
    7.4020  -20.6310   19.3152 C   0  0  0  0  0  0  0  0  0  0  0  0
    6.8530  -21.8283   19.1133 N   0  0  0  0  0  0  0  0  0  0  0  0
    7.8083  -22.7542   19.2860 C   0  0  0  0  0  0  0  0  0  0  0  0
    8.9499  -22.1210   19.5959 N   0  0  0  0  0  0  0  0  0  0  0  0
    9.6209  -17.2735   20.4475 C   0  0  0  0  0  0  0  0  0  0  0  0
   10.7501  -16.7822   20.1859 O   0  0  0  0  0  0  0  0  0  0  0  0
    8.8456  -16.7466   21.5590 N   0  0  0  0  0  0  0  0  0  0  0  0
    9.4231  -15.7000   22.3635 C   0  0  1  0  0  0  0  0  0  0  0  0
    8.6674  -14.4210   22.3308 C   0  0  0  0  0  0  0  0  0  0  0  0
    8.6121  -13.6968   21.0760 C   0  0  0  0  0  0  0  0  0  0  0  0
    9.1880  -13.9639   19.8658 C   0  0  0  0  0  0  0  0  0  0  0  0
    8.8316  -13.0086   18.9651 N   0  0  0  0  0  0  0  0  0  0  0  0
    8.0393  -12.1697   19.6431 C   0  0  0  0  0  0  0  0  0  0  0  0
    7.8936  -12.5580   20.9019 N   0  0  0  0  0  0  0  0  0  0  0  0
    9.6939  -16.2028   23.7236 C   0  0  0  0  0  0  0  0  0  0  0  0
   10.4387  -15.5378   24.6669 O   0  0  0  0  0  0  0  0  0  0  0  0
    9.2116  -17.3150   24.0426 O   0  0  0  0  0  0  0  0  0  0  0  0
  2  1  1  6
  3  4  1  0
  3  2  1  0
  4  5  2  0
  6  2  1  0
  6  7  2  0
  8  4  1  0
  9  6  1  0
 10  9  1  0
 10 11  1  1
 11 12  1  0
 12 16  1  0
 12 13  2  0
 13 14  1  0
 15 14  1  0
 16 15  2  0
 17 10  1  0
 18 17  2  0
 19 17  1  0
 20 21  1  1
 20 19  1  0
 21 22  1  0
 22 23  2  0
 22 26  1  0
 23 24  1  0
 24 25  1  0
 26 25  2  0
 27 28  1  0
 27 20  1  0
 29 27  2  0
M  END
$$$$
