DHH.pdb
     RDKit          3D

 29 30  0  0  1  0  0  0  0  0999 V2000
   12.5212  -16.5214   17.9451 N   0  0  0  0  0  0  0  0  0  0  0  0
   12.9836  -15.1428   18.1270 C   0  0  1  0  0  0  0  0  0  0  0  0
   12.8228  -14.4574   16.7839 C   0  0  0  0  0  0  0  0  0  0  0  0
   13.7721  -15.0943   15.8415 C   0  0  0  0  0  0  0  0  0  0  0  0
   14.9288  -15.4548   16.1715 O   0  0  0  0  0  0  0  0  0  0  0  0
   12.1262  -14.5235   19.1634 C   0  0  0  0  0  0  0  0  0  0  0  0
   12.2793  -13.3339   19.5400 O   0  0  0  0  0  0  0  0  0  0  0  0
   13.4079  -15.3243   14.5150 O   0  0  0  0  0  0  0  0  0  0  0  0
   11.1012  -15.2793   19.7551 N   0  0  0  0  0  0  0  0  0  0  0  0
   10.2529  -14.8350   20.8436 C   0  0  1  0  0  0  0  0  0  0  0  0
    8.8314  -15.0888   20.4292 C   0  0  0  0  0  0  0  0  0  0  0  0
    8.5618  -14.4265   19.1274 C   0  0  0  0  0  0  0  0  0  0  0  0
    8.1566  -13.1021   18.9214 C   0  0  0  0  0  0  0  0  0  0  0  0
    8.0173  -12.8740   17.6159 N   0  0  0  0  0  0  0  0  0  0  0  0
    8.3188  -14.0076   16.9650 C   0  0  0  0  0  0  0  0  0  0  0  0
    8.6448  -14.9365   17.8766 N   0  0  0  0  0  0  0  0  0  0  0  0
   10.6575  -15.5308   22.0589 C   0  0  0  0  0  0  0  0  0  0  0  0
    9.7778  -16.1151   22.7443 O   0  0  0  0  0  0  0  0  0  0  0  0
   12.0456  -15.5619   22.4902 N   0  0  0  0  0  0  0  0  0  0  0  0
   12.4460  -16.5657   23.4432 C   0  0  1  0  0  0  0  0  0  0  0  0
   12.0118  -17.9431   23.0939 C   0  0  0  0  0  0  0  0  0  0  0  0
   10.7615  -18.4225   23.6498 C   0  0  0  0  0  0  0  0  0  0  0  0
    9.9722  -17.9117   24.6417 C   0  0  0  0  0  0  0  0  0  0  0  0
    8.8728  -18.6960   24.8055 N   0  0  0  0  0  0  0  0  0  0  0  0
    9.0087  -19.6777   23.9061 C   0  0  0  0  0  0  0  0  0  0  0  0
   10.1253  -19.5369   23.2061 N   0  0  0  0  0  0  0  0  0  0  0  0
   13.8888  -16.4443   23.7250 C   0  0  0  0  0  0  0  0  0  0  0  0
   14.7333  -15.5584   23.1016 O   0  0  0  0  0  0  0  0  0  0  0  0
   14.3806  -17.2024   24.5939 O   0  0  0  0  0  0  0  0  0  0  0  0
  2  1  1  6
  3  4  1  0
  3  2  1  0
  4  5  2  0
  6  2  1  0
  6  7  2  0
  8  4  1  0
  9  6  1  0
 10  9  1  0
 10 11  1  6
 11 12  1  0
 12 16  1  0
 12 13  2  0
 13 14  1  0
 15 14  1  0
 16 15  2  0
 17 10  1  0
 18 17  2  0
 19 17  1  0
 20 21  1  6
 20 19  1  0
 21 22  1  0
 22 23  2  0
 22 26  1  0
 23 24  1  0
 24 25  1  0
 26 25  2  0
 27 28  1  0
 27 20  1  0
 29 27  2  0
M  END
$$$$
