DHH.pdb
     RDKit          3D

 29 30  0  0  1  0  0  0  0  0999 V2000
   11.2594  -16.2086   16.3114 N   0  0  0  0  0  0  0  0  0  0  0  0
   12.3816  -16.4717   17.2162 C   0  0  1  0  0  0  0  0  0  0  0  0
   13.6418  -16.3455   16.3823 C   0  0  0  0  0  0  0  0  0  0  0  0
   13.5688  -17.3618   15.3068 C   0  0  0  0  0  0  0  0  0  0  0  0
   12.8398  -18.3820   15.3752 O   0  0  0  0  0  0  0  0  0  0  0  0
   12.3310  -15.4521   18.2890 C   0  0  0  0  0  0  0  0  0  0  0  0
   13.1495  -14.5000   18.3508 O   0  0  0  0  0  0  0  0  0  0  0  0
   14.3276  -17.2212   14.1452 O   0  0  0  0  0  0  0  0  0  0  0  0
   11.3389  -15.5386   19.2790 N   0  0  0  0  0  0  0  0  0  0  0  0
   11.0958  -14.5502   20.3113 C   0  0  1  0  0  0  0  0  0  0  0  0
    9.6261  -14.5848   20.6204 C   0  0  0  0  0  0  0  0  0  0  0  0
    8.8702  -13.8944   19.5444 C   0  0  0  0  0  0  0  0  0  0  0  0
    9.4000  -13.2484   18.4207 C   0  0  0  0  0  0  0  0  0  0  0  0
    8.4095  -12.7493   17.6821 N   0  0  0  0  0  0  0  0  0  0  0  0
    7.2513  -13.0496   18.2888 C   0  0  0  0  0  0  0  0  0  0  0  0
    7.5331  -13.7368   19.4062 N   0  0  0  0  0  0  0  0  0  0  0  0
   11.9559  -14.8491   21.4496 C   0  0  0  0  0  0  0  0  0  0  0  0
   11.9143  -14.0938   22.4559 O   0  0  0  0  0  0  0  0  0  0  0  0
   12.8532  -15.9932   21.4439 N   0  0  0  0  0  0  0  0  0  0  0  0
   13.0284  -16.7342   22.6671 C   0  0  1  0  0  0  0  0  0  0  0  0
   11.7621  -17.2375   23.2597 C   0  0  0  0  0  0  0  0  0  0  0  0
   11.8499  -18.0670   24.4455 C   0  0  0  0  0  0  0  0  0  0  0  0
   12.9361  -18.5003   25.1526 C   0  0  0  0  0  0  0  0  0  0  0  0
   12.5269  -19.2416   26.2174 N   0  0  0  0  0  0  0  0  0  0  0  0
   11.1906  -19.2486   26.1433 C   0  0  0  0  0  0  0  0  0  0  0  0
   10.7637  -18.5563   25.0969 N   0  0  0  0  0  0  0  0  0  0  0  0
   14.0593  -17.7730   22.4823 C   0  0  0  0  0  0  0  0  0  0  0  0
   14.5975  -18.5267   23.4968 O   0  0  0  0  0  0  0  0  0  0  0  0
   14.4748  -17.9840   21.3186 O   0  0  0  0  0  0  0  0  0  0  0  0
  2  1  1  6
  3  4  1  0
  3  2  1  0
  4  5  2  0
  6  2  1  0
  6  7  2  0
  8  4  1  0
  9  6  1  0
 10  9  1  0
 10 11  1  1
 11 12  1  0
 12 16  1  0
 12 13  2  0
 13 14  1  0
 15 14  1  0
 16 15  2  0
 17 10  1  0
 18 17  2  0
 19 17  1  0
 20 21  1  6
 20 19  1  0
 21 22  1  0
 22 23  2  0
 22 26  1  0
 23 24  1  0
 24 25  1  0
 26 25  2  0
 27 28  1  0
 27 20  1  0
 29 27  2  0
M  END
$$$$
