QSH.pdb
     RDKit          3D

 26 26  0  0  1  0  0  0  0  0999 V2000
   44.2875  -10.9185   -7.3600 N   0  0  0  0  0  0  0  0  0  0  0  0
   44.9711  -11.6998   -8.3132 C   0  0  0  0  0  0  0  0  0  0  0  0
   45.9779  -12.3662   -7.9802 O   0  0  0  0  0  0  0  0  0  0  0  0
   44.4947  -11.7362   -9.7297 C   0  0  0  0  0  0  0  0  0  0  0  0
   43.3366  -10.8103   -9.8811 C   0  0  0  0  0  0  0  0  0  0  0  0
   42.0265  -11.4974   -9.5617 C   0  0  2  0  0  0  0  0  0  0  0  0
   41.8559  -12.4716  -10.6586 N   0  0  0  0  0  0  0  0  0  0  0  0
   40.8525  -10.6293   -9.5745 C   0  0  0  0  0  0  0  0  0  0  0  0
   40.2245  -10.4045  -10.6713 O   0  0  0  0  0  0  0  0  0  0  0  0
   38.5512   -9.7531   -6.2907 O   0  0  0  0  0  0  0  0  0  0  0  0
   38.0390   -9.5812   -7.5646 C   0  0  0  0  0  0  0  0  0  0  0  0
   39.1111   -9.1703   -8.5342 C   0  0  2  0  0  0  0  0  0  0  0  0
   40.2926   -9.9738   -8.4587 N   0  0  0  0  0  0  0  0  0  0  0  0
   39.4044   -7.7125   -8.3852 C   0  0  0  0  0  0  0  0  0  0  0  0
   40.4143   -7.3111   -7.7491 O   0  0  0  0  0  0  0  0  0  0  0  0
   38.5493   -6.7446   -8.9594 N   0  0  0  0  0  0  0  0  0  0  0  0
   38.7112   -5.3122   -8.8119 C   0  0  1  0  0  0  0  0  0  0  0  0
   37.7065   -4.5424   -9.6138 C   0  0  0  0  0  0  0  0  0  0  0  0
   37.9612   -4.7953  -11.0505 C   0  0  0  0  0  0  0  0  0  0  0  0
   39.1413   -5.1902  -11.6221 C   0  0  0  0  0  0  0  0  0  0  0  0
   38.9520   -5.3012  -12.9465 N   0  0  0  0  0  0  0  0  0  0  0  0
   37.6710   -4.9781  -13.1874 C   0  0  0  0  0  0  0  0  0  0  0  0
   37.0614   -4.6678  -12.0306 N   0  0  0  0  0  0  0  0  0  0  0  0
   38.7501   -4.8910   -7.4020 C   0  0  0  0  0  0  0  0  0  0  0  0
   39.7577   -4.0384   -6.9844 O   0  0  0  0  0  0  0  0  0  0  0  0
   37.9070   -5.2710   -6.5517 O   0  0  0  0  0  0  0  0  0  0  0  0
  1  2  1  0
  2  4  1  0
  2  3  2  0
  4  5  1  0
  6  5  1  0
  6  8  1  0
  6  7  1  6
  8  9  2  0
 10 11  1  0
 12 11  1  1
 12 14  1  0
 13  8  1  0
 13 12  1  0
 14 15  2  0
 16 17  1  0
 16 14  1  0
 17 24  1  0
 17 18  1  6
 19 18  1  0
 20 19  2  0
 21 22  1  0
 21 20  1  0
 22 23  2  0
 23 19  1  0
 24 26  2  0
 24 25  1  0
M  END
$$$$
