QSH.pdb
     RDKit          3D

 26 26  0  0  1  0  0  0  0  0999 V2000
   15.7956  -12.3518  -13.0939 N   0  0  0  0  0  0  0  0  0  0  0  0
   15.3514  -12.8899  -11.8693 C   0  0  0  0  0  0  0  0  0  0  0  0
   15.3006  -14.1305  -11.7049 O   0  0  0  0  0  0  0  0  0  0  0  0
   14.9386  -11.9786  -10.7587 C   0  0  0  0  0  0  0  0  0  0  0  0
   15.1560  -10.5649  -11.1783 C   0  0  0  0  0  0  0  0  0  0  0  0
   14.9241   -9.6008  -10.0349 C   0  0  2  0  0  0  0  0  0  0  0  0
   13.4585   -9.6067   -9.8526 N   0  0  0  0  0  0  0  0  0  0  0  0
   15.3164   -8.2196  -10.3002 C   0  0  0  0  0  0  0  0  0  0  0  0
   14.5012   -7.4139  -10.8782 O   0  0  0  0  0  0  0  0  0  0  0  0
   16.1680   -5.4941   -8.2418 O   0  0  0  0  0  0  0  0  0  0  0  0
   17.1665   -5.3842   -9.1933 C   0  0  0  0  0  0  0  0  0  0  0  0
   16.9159   -6.3008  -10.3574 C   0  0  2  0  0  0  0  0  0  0  0  0
   16.5556   -7.6314   -9.9739 N   0  0  0  0  0  0  0  0  0  0  0  0
   18.0834   -6.2745  -11.2902 C   0  0  0  0  0  0  0  0  0  0  0  0
   18.7739   -7.3059  -11.5015 O   0  0  0  0  0  0  0  0  0  0  0  0
   18.4407   -5.0830  -11.9613 N   0  0  0  0  0  0  0  0  0  0  0  0
   19.4439   -4.9944  -13.0032 C   0  0  1  0  0  0  0  0  0  0  0  0
   19.2294   -6.0088  -14.0848 C   0  0  0  0  0  0  0  0  0  0  0  0
   19.8307   -7.2906  -13.6505 C   0  0  0  0  0  0  0  0  0  0  0  0
   19.2182   -8.5144  -13.6012 C   0  0  0  0  0  0  0  0  0  0  0  0
   20.1064   -9.4125  -13.1466 N   0  0  0  0  0  0  0  0  0  0  0  0
   21.2517   -8.7496  -12.9184 C   0  0  0  0  0  0  0  0  0  0  0  0
   21.0875   -7.4515  -13.2250 N   0  0  0  0  0  0  0  0  0  0  0  0
   19.5893   -3.6283  -13.5317 C   0  0  0  0  0  0  0  0  0  0  0  0
   20.7894   -3.2592  -14.1151 O   0  0  0  0  0  0  0  0  0  0  0  0
   18.6704   -2.7734  -13.4783 O   0  0  0  0  0  0  0  0  0  0  0  0
  1  2  1  0
  2  4  1  0
  2  3  2  0
  4  5  1  0
  6  5  1  0
  6  8  1  0
  6  7  1  6
  8  9  2  0
 10 11  1  0
 12 11  1  1
 12 14  1  0
 13  8  1  0
 13 12  1  0
 14 15  2  0
 16 17  1  0
 16 14  1  0
 17 24  1  0
 17 18  1  6
 19 18  1  0
 20 19  2  0
 21 22  1  0
 21 20  1  0
 22 23  2  0
 23 19  1  0
 24 26  2  0
 24 25  1  0
M  END
$$$$
