QSH.pdb
     RDKit          3D

 26 26  0  0  1  0  0  0  0  0999 V2000
   25.0770  -23.2371  -12.2156 N   0  0  0  0  0  0  0  0  0  0  0  0
   24.0931  -23.9979  -12.8786 C   0  0  0  0  0  0  0  0  0  0  0  0
   24.0794  -25.2457  -12.7712 O   0  0  0  0  0  0  0  0  0  0  0  0
   23.0586  -23.3156  -13.7146 C   0  0  0  0  0  0  0  0  0  0  0  0
   23.3131  -21.8470  -13.7071 C   0  0  0  0  0  0  0  0  0  0  0  0
   24.4151  -21.4660  -14.6719 C   0  0  2  0  0  0  0  0  0  0  0  0
   25.6571  -21.8223  -13.9564 N   0  0  0  0  0  0  0  0  0  0  0  0
   24.4970  -20.0429  -14.9880 C   0  0  0  0  0  0  0  0  0  0  0  0
   24.3616  -19.1644  -14.0618 O   0  0  0  0  0  0  0  0  0  0  0  0
   27.0914  -18.5267  -17.0666 O   0  0  0  0  0  0  0  0  0  0  0  0
   26.0221  -17.6822  -17.3074 C   0  0  0  0  0  0  0  0  0  0  0  0
   24.8188  -18.0796  -16.4997 C   0  0  2  0  0  0  0  0  0  0  0  0
   24.7244  -19.4877  -16.2640 N   0  0  0  0  0  0  0  0  0  0  0  0
   23.5787  -17.5228  -17.1210 C   0  0  0  0  0  0  0  0  0  0  0  0
   22.8490  -18.2274  -17.8669 O   0  0  0  0  0  0  0  0  0  0  0  0
   23.1943  -16.1837  -16.8831 N   0  0  0  0  0  0  0  0  0  0  0  0
   22.0722  -15.5240  -17.5200 C   0  0  1  0  0  0  0  0  0  0  0  0
   20.9429  -15.2786  -16.5665 C   0  0  0  0  0  0  0  0  0  0  0  0
   20.3630  -16.5856  -16.1811 C   0  0  0  0  0  0  0  0  0  0  0  0
   19.6354  -17.4315  -16.9750 C   0  0  0  0  0  0  0  0  0  0  0  0
   19.2920  -18.5042  -16.2446 N   0  0  0  0  0  0  0  0  0  0  0  0
   19.8018  -18.3208  -15.0158 C   0  0  0  0  0  0  0  0  0  0  0  0
   20.4574  -17.1484  -14.9725 N   0  0  0  0  0  0  0  0  0  0  0  0
   22.4712  -14.3079  -18.2471 C   0  0  0  0  0  0  0  0  0  0  0  0
   21.5197  -13.6258  -18.9861 O   0  0  0  0  0  0  0  0  0  0  0  0
   23.6428  -13.8550  -18.2303 O   0  0  0  0  0  0  0  0  0  0  0  0
  1  2  1  0
  2  4  1  0
  2  3  2  0
  4  5  1  0
  6  5  1  0
  6  8  1  0
  6  7  1  1
  8  9  2  0
 10 11  1  0
 12 11  1  6
 12 14  1  0
 13  8  1  0
 13 12  1  0
 14 15  2  0
 16 17  1  0
 16 14  1  0
 17 24  1  0
 17 18  1  1
 19 18  1  0
 20 19  2  0
 21 22  1  0
 21 20  1  0
 22 23  2  0
 23 19  1  0
 24 26  2  0
 24 25  1  0
M  END
$$$$
