QSH.pdb
     RDKit          3D

 26 26  0  0  1  0  0  0  0  0999 V2000
   21.4063  -13.3785  -17.2233 N   0  0  0  0  0  0  0  0  0  0  0  0
   20.3249  -14.2543  -16.9997 C   0  0  0  0  0  0  0  0  0  0  0  0
   20.4327  -15.4734  -17.2659 O   0  0  0  0  0  0  0  0  0  0  0  0
   19.0414  -13.7293  -16.4416 C   0  0  0  0  0  0  0  0  0  0  0  0
   19.1833  -12.2694  -16.1762 C   0  0  0  0  0  0  0  0  0  0  0  0
   17.9392  -11.6950  -15.5337 C   0  0  2  0  0  0  0  0  0  0  0  0
   16.8959  -11.8541  -16.5670 N   0  0  0  0  0  0  0  0  0  0  0  0
   18.0088  -10.2724  -15.2119 C   0  0  0  0  0  0  0  0  0  0  0  0
   18.1130   -9.4004  -16.1482 O   0  0  0  0  0  0  0  0  0  0  0  0
   18.6420   -8.5762  -11.3590 O   0  0  0  0  0  0  0  0  0  0  0  0
   17.8158   -7.9151  -12.2506 C   0  0  0  0  0  0  0  0  0  0  0  0
   18.1152   -8.3096  -13.6693 C   0  0  2  0  0  0  0  0  0  0  0  0
   17.9687   -9.7109  -13.9192 N   0  0  0  0  0  0  0  0  0  0  0  0
   19.4614   -7.7985  -14.0694 C   0  0  0  0  0  0  0  0  0  0  0  0
   20.4716   -8.5502  -14.0703 O   0  0  0  0  0  0  0  0  0  0  0  0
   19.6321   -6.4506  -14.4590 N   0  0  0  0  0  0  0  0  0  0  0  0
   20.8433   -5.9094  -15.0419 C   0  0  1  0  0  0  0  0  0  0  0  0
   21.3064   -6.7023  -16.2258 C   0  0  0  0  0  0  0  0  0  0  0  0
   22.5708   -6.1106  -16.7201 C   0  0  0  0  0  0  0  0  0  0  0  0
   23.8346   -6.3576  -16.2543 C   0  0  0  0  0  0  0  0  0  0  0  0
   24.6988   -5.6176  -16.9670 N   0  0  0  0  0  0  0  0  0  0  0  0
   23.9756   -4.9231  -17.8604 C   0  0  0  0  0  0  0  0  0  0  0  0
   22.6736   -5.2215  -17.7127 N   0  0  0  0  0  0  0  0  0  0  0  0
   20.7350   -4.4707  -15.3338 C   0  0  0  0  0  0  0  0  0  0  0  0
   21.8743   -3.7721  -15.6953 O   0  0  0  0  0  0  0  0  0  0  0  0
   19.6503   -3.8402  -15.2698 O   0  0  0  0  0  0  0  0  0  0  0  0
  1  2  1  0
  2  4  1  0
  2  3  2  0
  4  5  1  0
  6  5  1  0
  6  8  1  0
  6  7  1  6
  8  9  2  0
 10 11  1  0
 12 11  1  1
 12 14  1  0
 13  8  1  0
 13 12  1  0
 14 15  2  0
 16 17  1  0
 16 14  1  0
 17 24  1  0
 17 18  1  6
 19 18  1  0
 20 19  2  0
 21 22  1  0
 21 20  1  0
 22 23  2  0
 23 19  1  0
 24 26  2  0
 24 25  1  0
M  END
$$$$
