PIN.pdb
     RDKit          3D

 24 24  0  0  1  0  0  0  0  0999 V2000
   26.8542  -18.9962  -15.6398 N   0  0  0  0  0  0  0  0  0  0  0  0
   27.6248  -17.7959  -15.5090 C   0  0  0  0  0  0  0  0  0  0  0  0
   29.0921  -18.2263  -15.5269 C   0  0  0  0  0  0  0  0  0  0  0  0
   28.9832  -19.5943  -14.8636 C   0  0  0  0  0  0  0  0  0  0  0  0
   27.7106  -20.1207  -15.4508 C   0  0  1  0  0  0  0  0  0  0  0  0
   27.0595  -21.0464  -14.4546 C   0  0  0  0  0  0  0  0  0  0  0  0
   27.6940  -22.1207  -14.2452 O   0  0  0  0  0  0  0  0  0  0  0  0
   26.3553  -20.1208   -9.4464 C   0  0  0  0  0  0  0  0  0  0  0  0
   26.4311  -20.7955  -10.8031 C   0  0  0  0  0  0  0  0  0  0  0  0
   25.0796  -20.7239  -11.4782 C   0  0  2  0  0  0  0  0  0  0  0  0
   24.1504  -21.5892  -10.6132 C   0  0  0  0  0  0  0  0  0  0  0  0
   25.1623  -21.4244  -12.8415 C   0  0  2  0  0  0  0  0  0  0  0  0
   25.8468  -20.6901  -13.8415 N   0  0  0  0  0  0  0  0  0  0  0  0
   23.8390  -21.8922  -13.2223 C   0  0  0  0  0  0  0  0  0  0  0  0
   23.1484  -22.7092  -12.5380 O   0  0  0  0  0  0  0  0  0  0  0  0
   23.4496  -25.3813  -14.8545 N   0  0  0  0  0  0  0  0  0  0  0  0
   22.7279  -24.2650  -15.4171 C   0  0  0  0  0  0  0  0  0  0  0  0
   22.9539  -24.0408  -16.6221 O   0  0  0  0  0  0  0  0  0  0  0  0
   21.8086  -23.4859  -14.5861 C   0  0  0  0  0  0  0  0  0  0  0  0
   21.8544  -21.9989  -14.7977 C   0  0  2  0  0  0  0  0  0  0  0  0
   23.1741  -21.4720  -14.4234 N   0  0  0  0  0  0  0  0  0  0  0  0
   20.8994  -21.2521  -13.9265 C   0  0  0  0  0  0  0  0  0  0  0  0
   21.2830  -20.3717  -13.0806 O   0  0  0  0  0  0  0  0  0  0  0  0
   19.5333  -21.4498  -13.9636 O   0  0  0  0  0  0  0  0  0  0  0  0
  2  1  1  0
  3  2  1  0
  4  5  1  0
  4  3  1  0
  5  1  1  0
  5  6  1  1
  6  7  2  0
  8  9  1  0
  9 10  1  0
 10 12  1  0
 10 11  1  1
 12 13  1  6
 13  6  1  0
 14 12  1  0
 15 14  2  0
 17 16  1  0
 17 18  2  0
 19 17  1  0
 20 19  1  1
 20 21  1  0
 21 14  1  0
 22 24  1  0
 22 20  1  0
 23 22  2  0
M  END
$$$$
