PIN.pdb
     RDKit          3D

 24 24  0  0  1  0  0  0  0  0999 V2000
   28.5671  -20.2697  -15.6158 N   0  0  0  0  0  0  0  0  0  0  0  0
   28.6325  -19.3750  -16.7326 C   0  0  0  0  0  0  0  0  0  0  0  0
   28.4011  -17.9721  -16.1698 C   0  0  0  0  0  0  0  0  0  0  0  0
   27.4603  -18.2933  -15.0144 C   0  0  0  0  0  0  0  0  0  0  0  0
   28.0413  -19.5697  -14.4902 C   0  0  1  0  0  0  0  0  0  0  0  0
   26.9341  -20.4013  -13.8936 C   0  0  0  0  0  0  0  0  0  0  0  0
   26.6362  -21.4338  -14.5614 O   0  0  0  0  0  0  0  0  0  0  0  0
   26.2816  -20.4942   -8.4448 C   0  0  0  0  0  0  0  0  0  0  0  0
   26.1888  -21.0327   -9.8601 C   0  0  0  0  0  0  0  0  0  0  0  0
   25.0488  -20.3526  -10.5847 C   0  0  2  0  0  0  0  0  0  0  0  0
   23.7839  -21.1029  -10.1406 C   0  0  0  0  0  0  0  0  0  0  0  0
   25.1869  -20.6112  -12.0914 C   0  0  2  0  0  0  0  0  0  0  0  0
   26.3213  -20.0103  -12.6915 N   0  0  0  0  0  0  0  0  0  0  0  0
   23.9213  -20.3218  -12.7466 C   0  0  0  0  0  0  0  0  0  0  0  0
   23.4422  -19.1539  -12.8854 O   0  0  0  0  0  0  0  0  0  0  0  0
   20.3655  -21.7501  -17.2976 N   0  0  0  0  0  0  0  0  0  0  0  0
   20.3592  -21.9010  -15.8620 C   0  0  0  0  0  0  0  0  0  0  0  0
   19.2304  -21.8967  -15.3335 O   0  0  0  0  0  0  0  0  0  0  0  0
   21.6181  -22.0452  -15.1293 C   0  0  0  0  0  0  0  0  0  0  0  0
   21.8729  -21.0019  -14.0783 C   0  0  2  0  0  0  0  0  0  0  0  0
   23.0779  -21.3391  -13.3079 N   0  0  0  0  0  0  0  0  0  0  0  0
   20.7904  -20.9246  -13.0529 C   0  0  0  0  0  0  0  0  0  0  0  0
   20.7570  -21.6900  -12.0278 O   0  0  0  0  0  0  0  0  0  0  0  0
   19.7447  -20.0261  -13.1278 O   0  0  0  0  0  0  0  0  0  0  0  0
  2  1  1  0
  3  2  1  0
  4  5  1  0
  4  3  1  0
  5  1  1  0
  5  6  1  6
  6  7  2  0
  8  9  1  0
  9 10  1  0
 10 12  1  0
 10 11  1  1
 12 13  1  6
 13  6  1  0
 14 12  1  0
 15 14  2  0
 17 16  1  0
 17 18  2  0
 19 17  1  0
 20 19  1  6
 20 21  1  0
 21 14  1  0
 22 24  1  0
 22 20  1  0
 23 22  2  0
M  END
$$$$
