PIN.pdb
     RDKit          3D

 24 24  0  0  1  0  0  0  0  0999 V2000
   28.5853  -20.9347  -15.5106 N   0  0  0  0  0  0  0  0  0  0  0  0
   28.7266  -20.2046  -16.7349 C   0  0  0  0  0  0  0  0  0  0  0  0
   28.5097  -18.7327  -16.3817 C   0  0  0  0  0  0  0  0  0  0  0  0
   27.5087  -18.8704  -15.2405 C   0  0  0  0  0  0  0  0  0  0  0  0
   28.0289  -20.0745  -14.5186 C   0  0  1  0  0  0  0  0  0  0  0  0
   26.8727  -20.7913  -13.8684 C   0  0  0  0  0  0  0  0  0  0  0  0
   26.5257  -21.8604  -14.4492 O   0  0  0  0  0  0  0  0  0  0  0  0
   26.2404  -20.5774   -8.4380 C   0  0  0  0  0  0  0  0  0  0  0  0
   26.1593  -21.1027   -9.8590 C   0  0  0  0  0  0  0  0  0  0  0  0
   25.0092  -20.4344  -10.5788 C   0  0  2  0  0  0  0  0  0  0  0  0
   23.7467  -21.1478  -10.0713 C   0  0  0  0  0  0  0  0  0  0  0  0
   25.1021  -20.7538  -12.0773 C   0  0  2  0  0  0  0  0  0  0  0  0
   26.2706  -20.2657  -12.7132 N   0  0  0  0  0  0  0  0  0  0  0  0
   23.8529  -20.3866  -12.7251 C   0  0  0  0  0  0  0  0  0  0  0  0
   23.4197  -19.1961  -12.8134 O   0  0  0  0  0  0  0  0  0  0  0  0
   23.1405  -22.8292  -16.8782 N   0  0  0  0  0  0  0  0  0  0  0  0
   22.5390  -21.6531  -16.2964 C   0  0  0  0  0  0  0  0  0  0  0  0
   22.9475  -20.5676  -16.7530 O   0  0  0  0  0  0  0  0  0  0  0  0
   21.5261  -21.7837  -15.2478 C   0  0  0  0  0  0  0  0  0  0  0  0
   21.7478  -20.9310  -14.0305 C   0  0  2  0  0  0  0  0  0  0  0  0
   22.9750  -21.3444  -13.3361 N   0  0  0  0  0  0  0  0  0  0  0  0
   20.6749  -21.0832  -13.0035 C   0  0  0  0  0  0  0  0  0  0  0  0
   19.6315  -20.3424  -12.9827 O   0  0  0  0  0  0  0  0  0  0  0  0
   20.7218  -22.0302  -11.9999 O   0  0  0  0  0  0  0  0  0  0  0  0
  2  1  1  0
  3  2  1  0
  4  5  1  0
  4  3  1  0
  5  1  1  0
  5  6  1  6
  6  7  2  0
  8  9  1  0
  9 10  1  0
 10 12  1  0
 10 11  1  1
 12 13  1  6
 13  6  1  0
 14 12  1  0
 15 14  2  0
 17 16  1  0
 17 18  2  0
 19 17  1  0
 20 19  1  6
 20 21  1  0
 21 14  1  0
 22 24  1  0
 22 20  1  0
 23 22  2  0
M  END
$$$$
