PIN.pdb
     RDKit          3D

 24 24  0  0  1  0  0  0  0  0999 V2000
   22.1763  -10.5247  -19.9371 N   0  0  0  0  0  0  0  0  0  0  0  0
   22.3386  -11.8928  -20.3292 C   0  0  0  0  0  0  0  0  0  0  0  0
   20.9554  -12.3798  -20.7627 C   0  0  0  0  0  0  0  0  0  0  0  0
   20.0720  -11.5519  -19.8368 C   0  0  0  0  0  0  0  0  0  0  0  0
   20.7842  -10.2350  -19.8282 C   0  0  1  0  0  0  0  0  0  0  0  0
   20.5460   -9.5598  -18.5013 C   0  0  0  0  0  0  0  0  0  0  0  0
   19.3341   -9.2860  -18.2628 O   0  0  0  0  0  0  0  0  0  0  0  0
   23.5962  -11.0542  -14.2694 C   0  0  0  0  0  0  0  0  0  0  0  0
   22.4684  -10.5671  -15.1596 C   0  0  0  0  0  0  0  0  0  0  0  0
   22.5976   -9.0744  -15.3661 C   0  0  2  0  0  0  0  0  0  0  0  0
   22.1803   -8.4446  -14.0283 C   0  0  0  0  0  0  0  0  0  0  0  0
   21.5522   -8.6178  -16.3929 C   0  0  2  0  0  0  0  0  0  0  0  0
   21.6225   -9.2831  -17.6421 N   0  0  0  0  0  0  0  0  0  0  0  0
   21.5575   -7.1656  -16.4708 C   0  0  0  0  0  0  0  0  0  0  0  0
   22.5332   -6.4796  -16.9065 O   0  0  0  0  0  0  0  0  0  0  0  0
   20.2361   -2.1650  -17.0021 N   0  0  0  0  0  0  0  0  0  0  0  0
   20.0150   -3.1599  -18.0244 C   0  0  0  0  0  0  0  0  0  0  0  0
   19.7962   -2.7081  -19.1652 O   0  0  0  0  0  0  0  0  0  0  0  0
   20.0561   -4.5843  -17.6895 C   0  0  0  0  0  0  0  0  0  0  0  0
   20.4357   -4.9000  -16.2703 C   0  0  2  0  0  0  0  0  0  0  0  0
   20.4475   -6.3540  -16.0580 N   0  0  0  0  0  0  0  0  0  0  0  0
   19.4498   -4.3903  -15.2715 C   0  0  0  0  0  0  0  0  0  0  0  0
   19.1821   -3.1457  -15.1414 O   0  0  0  0  0  0  0  0  0  0  0  0
   18.7515   -5.2164  -14.4134 O   0  0  0  0  0  0  0  0  0  0  0  0
  2  1  1  0
  3  2  1  0
  4  5  1  0
  4  3  1  0
  5  1  1  0
  5  6  1  1
  6  7  2  0
  8  9  1  0
  9 10  1  0
 10 12  1  0
 10 11  1  1
 12 13  1  6
 13  6  1  0
 14 12  1  0
 15 14  2  0
 17 16  1  0
 17 18  2  0
 19 17  1  0
 20 19  1  6
 20 21  1  0
 21 14  1  0
 22 24  1  0
 22 20  1  0
 23 22  2  0
M  END
$$$$
