PIN.pdb
     RDKit          3D

 24 24  0  0  1  0  0  0  0  0999 V2000
   28.6837  -20.9511  -15.1983 N   0  0  0  0  0  0  0  0  0  0  0  0
   28.7146  -20.2116  -16.4248 C   0  0  0  0  0  0  0  0  0  0  0  0
   28.5568  -18.7400  -16.0402 C   0  0  0  0  0  0  0  0  0  0  0  0
   27.6717  -18.8737  -14.8066 C   0  0  0  0  0  0  0  0  0  0  0  0
   28.2418  -20.0921  -14.1493 C   0  0  1  0  0  0  0  0  0  0  0  0
   27.1446  -20.7977  -13.3935 C   0  0  0  0  0  0  0  0  0  0  0  0
   26.6007  -21.7490  -14.0259 O   0  0  0  0  0  0  0  0  0  0  0  0
   26.9694  -20.1714   -7.8863 C   0  0  0  0  0  0  0  0  0  0  0  0
   26.6976  -20.9330   -9.1700 C   0  0  0  0  0  0  0  0  0  0  0  0
   25.5820  -20.2540   -9.9328 C   0  0  2  0  0  0  0  0  0  0  0  0
   24.2837  -20.8179   -9.3356 C   0  0  0  0  0  0  0  0  0  0  0  0
   25.6148  -20.7239  -11.3936 C   0  0  2  0  0  0  0  0  0  0  0  0
   26.7990  -20.3870  -12.0953 N   0  0  0  0  0  0  0  0  0  0  0  0
   24.3793  -20.3314  -12.0525 C   0  0  0  0  0  0  0  0  0  0  0  0
   24.1361  -19.1562  -12.4679 O   0  0  0  0  0  0  0  0  0  0  0  0
   20.3311  -21.0530  -15.3954 N   0  0  0  0  0  0  0  0  0  0  0  0
   21.4054  -22.0139  -15.4729 C   0  0  0  0  0  0  0  0  0  0  0  0
   21.3808  -22.7570  -16.4732 O   0  0  0  0  0  0  0  0  0  0  0  0
   22.4246  -22.0681  -14.4237 C   0  0  0  0  0  0  0  0  0  0  0  0
   22.3182  -21.0029  -13.3691 C   0  0  2  0  0  0  0  0  0  0  0  0
   23.2991  -21.2438  -12.3017 N   0  0  0  0  0  0  0  0  0  0  0  0
   21.0014  -21.0026  -12.6655 C   0  0  0  0  0  0  0  0  0  0  0  0
   19.9015  -20.7366  -13.2630 O   0  0  0  0  0  0  0  0  0  0  0  0
   20.8656  -21.2880  -11.3214 O   0  0  0  0  0  0  0  0  0  0  0  0
  2  1  1  0
  3  2  1  0
  4  5  1  0
  4  3  1  0
  5  1  1  0
  5  6  1  6
  6  7  2  0
  8  9  1  0
  9 10  1  0
 10 12  1  0
 10 11  1  1
 12 13  1  6
 13  6  1  0
 14 12  1  0
 15 14  2  0
 17 16  1  0
 17 18  2  0
 19 17  1  0
 20 19  1  6
 20 21  1  0
 21 14  1  0
 22 24  1  0
 22 20  1  0
 23 22  2  0
M  END
$$$$
