PIN.pdb
     RDKit          3D

 24 24  0  0  1  0  0  0  0  0999 V2000
   28.6614  -21.0013  -15.4688 N   0  0  0  0  0  0  0  0  0  0  0  0
   28.9055  -20.3395  -16.7155 C   0  0  0  0  0  0  0  0  0  0  0  0
   28.6596  -18.8513  -16.4642 C   0  0  0  0  0  0  0  0  0  0  0  0
   27.5659  -18.9303  -15.4055 C   0  0  0  0  0  0  0  0  0  0  0  0
   28.0234  -20.0901  -14.5765 C   0  0  1  0  0  0  0  0  0  0  0  0
   26.8165  -20.7752  -13.9872 C   0  0  0  0  0  0  0  0  0  0  0  0
   26.4145  -21.7816  -14.6400 O   0  0  0  0  0  0  0  0  0  0  0  0
   26.1418  -20.4989   -8.5424 C   0  0  0  0  0  0  0  0  0  0  0  0
   26.0769  -21.0730   -9.9452 C   0  0  0  0  0  0  0  0  0  0  0  0
   24.9268  -20.4402  -10.6965 C   0  0  2  0  0  0  0  0  0  0  0  0
   23.6701  -21.1718  -10.2007 C   0  0  0  0  0  0  0  0  0  0  0  0
   25.0539  -20.7809  -12.1877 C   0  0  2  0  0  0  0  0  0  0  0  0
   26.2298  -20.2891  -12.8070 N   0  0  0  0  0  0  0  0  0  0  0  0
   23.8143  -20.4379  -12.8662 C   0  0  0  0  0  0  0  0  0  0  0  0
   23.3676  -19.2543  -12.9777 O   0  0  0  0  0  0  0  0  0  0  0  0
   19.4262  -20.6674  -15.8063 N   0  0  0  0  0  0  0  0  0  0  0  0
   20.3288  -21.7338  -16.1692 C   0  0  0  0  0  0  0  0  0  0  0  0
   19.9819  -22.4085  -17.1581 O   0  0  0  0  0  0  0  0  0  0  0  0
   21.5506  -21.9621  -15.3960 C   0  0  0  0  0  0  0  0  0  0  0  0
   21.7665  -21.0226  -14.2434 C   0  0  2  0  0  0  0  0  0  0  0  0
   22.9625  -21.4142  -13.4847 N   0  0  0  0  0  0  0  0  0  0  0  0
   20.6634  -21.0632  -13.2381 C   0  0  0  0  0  0  0  0  0  0  0  0
   20.6263  -21.9229  -12.2909 O   0  0  0  0  0  0  0  0  0  0  0  0
   19.6012  -20.1812  -13.2494 O   0  0  0  0  0  0  0  0  0  0  0  0
  2  1  1  0
  3  2  1  0
  4  5  1  0
  4  3  1  0
  5  1  1  0
  5  6  1  6
  6  7  2  0
  8  9  1  0
  9 10  1  0
 10 12  1  0
 10 11  1  1
 12 13  1  6
 13  6  1  0
 14 12  1  0
 15 14  2  0
 17 16  1  0
 17 18  2  0
 19 17  1  0
 20 19  1  6
 20 21  1  0
 21 14  1  0
 22 24  1  0
 22 20  1  0
 23 22  2  0
M  END
$$$$
