PIN.pdb
     RDKit          3D

 24 24  0  0  1  0  0  0  0  0999 V2000
   25.3540  -13.7281  -16.4941 N   0  0  0  0  0  0  0  0  0  0  0  0
   25.9583  -15.0007  -16.7535 C   0  0  0  0  0  0  0  0  0  0  0  0
   27.2210  -14.7158  -17.5676 C   0  0  0  0  0  0  0  0  0  0  0  0
   26.7733  -13.4823  -18.3430 C   0  0  0  0  0  0  0  0  0  0  0  0
   25.9802  -12.7415  -17.3116 C   0  0  1  0  0  0  0  0  0  0  0  0
   24.9004  -11.9483  -18.0030 C   0  0  0  0  0  0  0  0  0  0  0  0
   25.3271  -11.0040  -18.7288 O   0  0  0  0  0  0  0  0  0  0  0  0
   20.9736  -14.5808  -20.4182 C   0  0  0  0  0  0  0  0  0  0  0  0
   21.9620  -13.4947  -20.0372 C   0  0  0  0  0  0  0  0  0  0  0  0
   21.3644  -12.6270  -18.9522 C   0  0  2  0  0  0  0  0  0  0  0  0
   20.3132  -11.7603  -19.6621 C   0  0  0  0  0  0  0  0  0  0  0  0
   22.4368  -11.6560  -18.4392 C   0  0  2  0  0  0  0  0  0  0  0  0
   23.5476  -12.2786  -17.8175 N   0  0  0  0  0  0  0  0  0  0  0  0
   21.8015  -10.6100  -17.6535 C   0  0  0  0  0  0  0  0  0  0  0  0
   21.4677  -10.7382  -16.4350 O   0  0  0  0  0  0  0  0  0  0  0  0
   20.5961   -5.9695  -15.6596 N   0  0  0  0  0  0  0  0  0  0  0  0
   21.5070   -6.9959  -15.2122 C   0  0  0  0  0  0  0  0  0  0  0  0
   22.0267   -6.7943  -14.0974 O   0  0  0  0  0  0  0  0  0  0  0  0
   21.7656   -8.1692  -16.0484 C   0  0  0  0  0  0  0  0  0  0  0  0
   20.9765   -8.2343  -17.3256 C   0  0  2  0  0  0  0  0  0  0  0  0
   21.4849   -9.3138  -18.1834 N   0  0  0  0  0  0  0  0  0  0  0  0
   21.1111   -7.0052  -18.1624 C   0  0  0  0  0  0  0  0  0  0  0  0
   20.8640   -5.8338  -17.7102 O   0  0  0  0  0  0  0  0  0  0  0  0
   21.5112   -7.0336  -19.4836 O   0  0  0  0  0  0  0  0  0  0  0  0
  2  1  1  0
  3  2  1  0
  4  5  1  0
  4  3  1  0
  5  1  1  0
  5  6  1  6
  6  7  2  0
  8  9  1  0
  9 10  1  0
 10 12  1  0
 10 11  1  6
 12 13  1  1
 13  6  1  0
 14 12  1  0
 15 14  2  0
 17 16  1  0
 17 18  2  0
 19 17  1  0
 20 19  1  1
 20 21  1  0
 21 14  1  0
 22 24  1  0
 22 20  1  0
 23 22  2  0
M  END
$$$$
