RGA.pdb
     RDKit          3D

 21 20  0  0  1  0  0  0  0  0999 V2000
   25.5009  -24.7783  -15.2033 N   0  0  0  0  0  0  0  0  0  0  0  0
   26.6421  -24.2351  -15.8566 C   0  0  0  0  0  0  0  0  0  0  0  0
   27.4068  -25.0070  -16.5593 N   0  0  0  0  0  0  0  0  0  0  0  0
   26.9564  -22.8609  -15.7500 N   0  0  0  0  0  0  0  0  0  0  0  0
   26.0580  -21.9149  -15.0473 C   0  0  0  0  0  0  0  0  0  0  0  0
   25.0228  -21.4149  -15.9786 C   0  0  0  0  0  0  0  0  0  0  0  0
   24.1801  -20.2975  -15.5346 C   0  0  0  0  0  0  0  0  0  0  0  0
   23.1924  -19.6666  -16.4269 C   0  0  2  0  0  0  0  0  0  0  0  0
   23.9765  -18.7462  -17.3361 N   0  0  0  0  0  0  0  0  0  0  0  0
   22.1892  -18.8345  -15.7663 C   0  0  0  0  0  0  0  0  0  0  0  0
   22.4632  -17.6306  -15.4271 O   0  0  0  0  0  0  0  0  0  0  0  0
   28.2941  -24.6822  -16.9916 N   0  0  0  0  0  0  0  0  0  0  0  0
   20.8950  -19.3420  -15.4889 C   0  0  0  0  0  0  0  0  0  0  0  0
   19.9438  -18.4588  -14.8413 C   0  0  0  0  0  0  0  0  0  0  0  0
   19.1941  -17.6758  -15.8291 O   0  0  0  0  0  0  0  0  0  0  0  0
   19.7756  -17.2879  -16.8805 C   0  0  0  0  0  0  0  0  0  0  0  0
   15.6399  -17.1735  -16.6395 C   0  0  2  0  0  0  0  0  0  0  0  0
   17.0516  -16.6813  -16.6099 N   0  0  0  0  0  0  0  0  0  0  0  0
   17.8428  -17.3555  -15.6166 C   0  0  0  0  0  0  0  0  0  0  0  0
   17.0535  -15.2159  -16.3374 O   0  0  0  0  0  0  0  0  0  0  0  0
   17.4073  -14.7635  -15.2258 O   0  0  0  0  0  0  0  0  0  0  0  0
  1  2  1  0
  2  3  2  0
  4  5  1  0
  4  2  1  0
  6  5  1  0
  7  6  1  0
  8 10  1  0
  8  7  1  0
  8  9  1  6
 10 12  1  0
 11 10  2  0
 12 13  1  0
 13 14  1  0
 14 15  2  0
 14 18  1  0
 17 16  1  6
 17 19  1  0
 18 17  1  0
 19 21  1  0
 20 19  2  0
M  END
$$$$
