RGA.pdb
     RDKit          3D

 21 20  0  0  1  0  0  0  0  0999 V2000
   25.5144  -20.4167  -11.2028 N   0  0  0  0  0  0  0  0  0  0  0  0
   26.7472  -20.7064  -11.8514 C   0  0  0  0  0  0  0  0  0  0  0  0
   27.5631  -21.5617  -11.3252 N   0  0  0  0  0  0  0  0  0  0  0  0
   27.0974  -20.0724  -13.0655 N   0  0  0  0  0  0  0  0  0  0  0  0
   26.2451  -19.0158  -13.6595 C   0  0  0  0  0  0  0  0  0  0  0  0
   25.4140  -19.5867  -14.7424 C   0  0  0  0  0  0  0  0  0  0  0  0
   24.2524  -20.4003  -14.3618 C   0  0  0  0  0  0  0  0  0  0  0  0
   23.3609  -21.0011  -15.3687 C   0  0  2  0  0  0  0  0  0  0  0  0
   24.0934  -22.2093  -15.9095 N   0  0  0  0  0  0  0  0  0  0  0  0
   23.0545  -20.1568  -16.5212 C   0  0  0  0  0  0  0  0  0  0  0  0
   23.8769  -20.0660  -17.4985 O   0  0  0  0  0  0  0  0  0  0  0  0
   28.4828  -21.7989  -11.7465 N   0  0  0  0  0  0  0  0  0  0  0  0
   21.8430  -19.4232  -16.5809 C   0  0  0  0  0  0  0  0  0  0  0  0
   21.5998  -18.6081  -17.7559 C   0  0  0  0  0  0  0  0  0  0  0  0
   21.3991  -17.2021  -17.3901 O   0  0  0  0  0  0  0  0  0  0  0  0
   21.3672  -16.8795  -16.1698 C   0  0  0  0  0  0  0  0  0  0  0  0
   20.9928  -13.9604  -19.2608 C   0  0  2  0  0  0  0  0  0  0  0  0
   20.9656  -14.8444  -18.0550 N   0  0  0  0  0  0  0  0  0  0  0  0
   21.2429  -16.2173  -18.3797 C   0  0  0  0  0  0  0  0  0  0  0  0
   19.6271  -14.7467  -17.4066 O   0  0  0  0  0  0  0  0  0  0  0  0
   18.7509  -15.6202  -17.5930 O   0  0  0  0  0  0  0  0  0  0  0  0
  1  2  1  0
  2  3  2  0
  4  5  1  0
  4  2  1  0
  6  5  1  0
  7  6  1  0
  8 10  1  0
  8  7  1  0
  8  9  1  6
 10 12  1  0
 11 10  2  0
 12 13  1  0
 13 14  1  0
 14 15  2  0
 14 18  1  0
 17 16  1  1
 17 19  1  0
 18 17  1  0
 19 21  1  0
 20 19  2  0
M  END
$$$$
