RGA.pdb
     RDKit          3D

 21 20  0  0  1  0  0  0  0  0999 V2000
   27.4399  -21.9893  -16.9808 N   0  0  0  0  0  0  0  0  0  0  0  0
   26.3021  -22.8408  -16.9123 C   0  0  0  0  0  0  0  0  0  0  0  0
   25.1186  -22.3244  -16.8298 N   0  0  0  0  0  0  0  0  0  0  0  0
   26.4434  -24.2473  -16.9324 N   0  0  0  0  0  0  0  0  0  0  0  0
   27.7485  -24.8890  -17.2170 C   0  0  0  0  0  0  0  0  0  0  0  0
   27.5362  -26.2638  -17.7210 C   0  0  0  0  0  0  0  0  0  0  0  0
   27.6690  -27.3735  -16.7688 C   0  0  0  0  0  0  0  0  0  0  0  0
   28.9264  -28.1268  -16.6237 C   0  0  2  0  0  0  0  0  0  0  0  0
   29.8121  -27.6888  -17.7693 N   0  0  0  0  0  0  0  0  0  0  0  0
   28.8054  -29.5791  -16.7302 C   0  0  0  0  0  0  0  0  0  0  0  0
   29.2440  -30.1947  -17.7638 O   0  0  0  0  0  0  0  0  0  0  0  0
   24.2548  -22.8980  -16.7634 N   0  0  0  0  0  0  0  0  0  0  0  0
   28.2018  -30.3343  -15.6935 C   0  0  0  0  0  0  0  0  0  0  0  0
   28.0976  -31.7701  -15.8715 C   0  0  0  0  0  0  0  0  0  0  0  0
   26.9590  -32.3130  -15.1233 O   0  0  0  0  0  0  0  0  0  0  0  0
   26.0841  -31.5234  -14.6704 C   0  0  0  0  0  0  0  0  0  0  0  0
   25.8718  -33.5901  -12.6727 C   0  0  1  0  0  0  0  0  0  0  0  0
   25.8480  -34.2445  -14.0170 N   0  0  0  0  0  0  0  0  0  0  0  0
   26.8343  -33.6956  -14.9076 C   0  0  0  0  0  0  0  0  0  0  0  0
   24.4925  -34.0839  -14.6156 O   0  0  0  0  0  0  0  0  0  0  0  0
   24.3258  -33.4549  -15.6843 O   0  0  0  0  0  0  0  0  0  0  0  0
  1  2  1  0
  2  3  2  0
  4  5  1  0
  4  2  1  0
  6  5  1  0
  7  6  1  0
  8 10  1  0
  8  7  1  0
  8  9  1  6
 10 12  1  0
 11 10  2  0
 12 13  1  0
 13 14  1  0
 14 15  2  0
 14 18  1  0
 17 16  1  1
 17 19  1  0
 18 17  1  0
 19 21  1  0
 20 19  2  0
M  END
$$$$
