RGA.pdb
     RDKit          3D

 21 20  0  0  1  0  0  0  0  0999 V2000
   24.3257  -19.7355  -10.3530 N   0  0  0  0  0  0  0  0  0  0  0  0
   25.0622  -20.7076   -9.6203 C   0  0  0  0  0  0  0  0  0  0  0  0
   24.4884  -21.3562   -8.6588 N   0  0  0  0  0  0  0  0  0  0  0  0
   26.4159  -20.9774   -9.9256 N   0  0  0  0  0  0  0  0  0  0  0  0
   27.1515  -20.1872  -10.9406 C   0  0  0  0  0  0  0  0  0  0  0  0
   27.2068  -20.9321  -12.2179 C   0  0  0  0  0  0  0  0  0  0  0  0
   26.1906  -20.6311  -13.2341 C   0  0  0  0  0  0  0  0  0  0  0  0
   26.1962  -21.2821  -14.5554 C   0  0  2  0  0  0  0  0  0  0  0  0
   27.5509  -20.9886  -15.1616 N   0  0  0  0  0  0  0  0  0  0  0  0
   25.2044  -20.7844  -15.5060 C   0  0  0  0  0  0  0  0  0  0  0  0
   25.4537  -19.7574  -16.2289 O   0  0  0  0  0  0  0  0  0  0  0  0
   24.9955  -22.0255   -8.0468 N   0  0  0  0  0  0  0  0  0  0  0  0
   23.9490  -21.4275  -15.6472 C   0  0  0  0  0  0  0  0  0  0  0  0
   23.0055  -20.8734  -16.5996 C   0  0  0  0  0  0  0  0  0  0  0  0
   21.8551  -20.2746  -15.9148 O   0  0  0  0  0  0  0  0  0  0  0  0
   21.7863  -20.3332  -14.6555 C   0  0  0  0  0  0  0  0  0  0  0  0
   18.8543  -18.2569  -16.9504 C   0  0  2  0  0  0  0  0  0  0  0  0
   19.6819  -19.0672  -16.0046 N   0  0  0  0  0  0  0  0  0  0  0  0
   20.8353  -19.6403  -16.6437 C   0  0  0  0  0  0  0  0  0  0  0  0
   18.8415  -20.1541  -15.4266 O   0  0  0  0  0  0  0  0  0  0  0  0
   18.9232  -21.3299  -15.8465 O   0  0  0  0  0  0  0  0  0  0  0  0
  1  2  1  0
  2  3  2  0
  4  5  1  0
  4  2  1  0
  6  5  1  0
  7  6  1  0
  8 10  1  0
  8  7  1  0
  8  9  1  6
 10 12  1  0
 11 10  2  0
 12 13  1  0
 13 14  1  0
 14 15  2  0
 14 18  1  0
 17 16  1  1
 17 19  1  0
 18 17  1  0
 19 21  1  0
 20 19  2  0
M  END
$$$$
