RGA.pdb
     RDKit          3D

 21 20  0  0  1  0  0  0  0  0999 V2000
   26.2750  -21.4318  -10.1888 N   0  0  0  0  0  0  0  0  0  0  0  0
   25.0044  -20.9028  -10.5493 C   0  0  0  0  0  0  0  0  0  0  0  0
   24.1157  -20.6883   -9.6334 N   0  0  0  0  0  0  0  0  0  0  0  0
   24.6947  -20.6070  -11.8966 N   0  0  0  0  0  0  0  0  0  0  0  0
   25.4570  -21.2101  -13.0151 C   0  0  0  0  0  0  0  0  0  0  0  0
   26.7536  -20.5156  -13.1751 C   0  0  0  0  0  0  0  0  0  0  0  0
   27.6106  -20.9097  -14.3004 C   0  0  0  0  0  0  0  0  0  0  0  0
   27.5801  -20.1948  -15.5879 C   0  0  2  0  0  0  0  0  0  0  0  0
   27.7796  -18.7315  -15.2597 N   0  0  0  0  0  0  0  0  0  0  0  0
   26.3223  -20.2824  -16.3263 C   0  0  0  0  0  0  0  0  0  0  0  0
   25.9274  -21.4007  -16.8090 O   0  0  0  0  0  0  0  0  0  0  0  0
   23.1538  -20.3575   -9.8454 N   0  0  0  0  0  0  0  0  0  0  0  0
   25.5150  -19.1337  -16.5220 C   0  0  0  0  0  0  0  0  0  0  0  0
   24.3008  -19.2819  -17.3016 C   0  0  0  0  0  0  0  0  0  0  0  0
   23.1145  -19.2601  -16.4394 O   0  0  0  0  0  0  0  0  0  0  0  0
   23.2553  -19.0691  -15.1994 C   0  0  0  0  0  0  0  0  0  0  0  0
   19.3970  -19.3585  -16.9703 C   0  0  2  0  0  0  0  0  0  0  0  0
   20.6498  -19.4463  -16.1585 N   0  0  0  0  0  0  0  0  0  0  0  0
   21.8309  -19.4488  -16.9783 C   0  0  0  0  0  0  0  0  0  0  0  0
   20.6130  -20.6878  -15.3345 O   0  0  0  0  0  0  0  0  0  0  0  0
   21.2193  -21.7220  -15.6926 O   0  0  0  0  0  0  0  0  0  0  0  0
  1  2  1  0
  2  3  2  0
  4  5  1  0
  4  2  1  0
  6  5  1  0
  7  6  1  0
  8 10  1  0
  8  7  1  0
  8  9  1  1
 10 12  1  0
 11 10  2  0
 12 13  1  0
 13 14  1  0
 14 15  2  0
 14 18  1  0
 17 16  1  1
 17 19  1  0
 18 17  1  0
 19 21  1  0
 20 19  2  0
M  END
$$$$
