RGA.pdb
     RDKit          3D

 21 20  0  0  1  0  0  0  0  0999 V2000
   14.7407  -14.0366  -16.1430 N   0  0  0  0  0  0  0  0  0  0  0  0
   15.6242  -13.7874  -15.0560 C   0  0  0  0  0  0  0  0  0  0  0  0
   15.5547  -14.5204  -13.9920 N   0  0  0  0  0  0  0  0  0  0  0  0
   16.5802  -12.7478  -15.1188 N   0  0  0  0  0  0  0  0  0  0  0  0
   16.6568  -11.8377  -16.2857 C   0  0  0  0  0  0  0  0  0  0  0  0
   18.0305  -11.8355  -16.8353 C   0  0  0  0  0  0  0  0  0  0  0  0
   18.3168  -10.9456  -17.9676 C   0  0  0  0  0  0  0  0  0  0  0  0
   19.6803  -10.7784  -18.4993 C   0  0  2  0  0  0  0  0  0  0  0  0
   20.1787  -12.1703  -18.8201 N   0  0  0  0  0  0  0  0  0  0  0  0
   20.6498  -10.1984  -17.5727 C   0  0  0  0  0  0  0  0  0  0  0  0
   21.7412  -10.8118  -17.3043 O   0  0  0  0  0  0  0  0  0  0  0  0
   16.1665  -14.3756  -13.1647 N   0  0  0  0  0  0  0  0  0  0  0  0
   20.4026   -8.9471  -16.9541 C   0  0  0  0  0  0  0  0  0  0  0  0
   21.4230   -8.4118  -16.0730 C   0  0  0  0  0  0  0  0  0  0  0  0
   21.0142   -7.1173  -15.5177 O   0  0  0  0  0  0  0  0  0  0  0  0
   19.9641   -6.5641  -15.9483 C   0  0  0  0  0  0  0  0  0  0  0  0
   21.9193   -5.2043  -12.4544 C   0  0  2  0  0  0  0  0  0  0  0  0
   21.3067   -5.3295  -13.8128 N   0  0  0  0  0  0  0  0  0  0  0  0
   21.7763   -6.4916  -14.5171 C   0  0  0  0  0  0  0  0  0  0  0  0
   21.6195   -4.1067  -14.6054 O   0  0  0  0  0  0  0  0  0  0  0  0
   21.1308   -2.9952  -14.3032 O   0  0  0  0  0  0  0  0  0  0  0  0
  1  2  1  0
  2  3  2  0
  4  5  1  0
  4  2  1  0
  6  5  1  0
  7  6  1  0
  8 10  1  0
  8  7  1  0
  8  9  1  1
 10 12  1  0
 11 10  2  0
 12 13  1  0
 13 14  1  0
 14 15  2  0
 14 18  1  0
 17 16  1  1
 17 19  1  0
 18 17  1  0
 19 21  1  0
 20 19  2  0
M  END
$$$$
