DSW.pdb
     RDKit          3D

 29 30  0  0  1  0  0  0  0  0999 V2000
   11.8253  -18.6629   19.5741 N   0  0  0  0  0  0  0  0  0  0  0  0
   12.5979  -17.5727   20.0754 C   0  0  1  0  0  0  0  0  0  0  0  0
   13.0945  -16.7637   18.8734 C   0  0  0  0  0  0  0  0  0  0  0  0
   14.1970  -17.4761   18.1855 C   0  0  0  0  0  0  0  0  0  0  0  0
   15.3438  -17.3949   18.6965 O   0  0  0  0  0  0  0  0  0  0  0  0
   11.7651  -16.6134   20.8773 C   0  0  0  0  0  0  0  0  0  0  0  0
   12.2237  -15.4739   21.1419 O   0  0  0  0  0  0  0  0  0  0  0  0
   14.0466  -18.2169   17.0283 O   0  0  0  0  0  0  0  0  0  0  0  0
    7.6338  -17.3585   21.8341 O   0  0  0  0  0  0  0  0  0  0  0  0
    8.2086  -16.1149   21.9047 C   0  0  0  0  0  0  0  0  0  0  0  0
    9.6655  -16.1323   22.2159 C   0  0  2  0  0  0  0  0  0  0  0  0
   10.4726  -16.9302   21.3575 N   0  0  0  0  0  0  0  0  0  0  0  0
    9.8625  -16.4217   23.6525 C   0  0  0  0  0  0  0  0  0  0  0  0
   10.1594  -17.5953   23.9799 O   0  0  0  0  0  0  0  0  0  0  0  0
    9.7363  -15.4570   24.6848 N   0  0  0  0  0  0  0  0  0  0  0  0
    9.8948  -15.7750   26.1042 C   0  0  1  0  0  0  0  0  0  0  0  0
    8.6136  -16.2866   26.6977 C   0  0  0  0  0  0  0  0  0  0  0  0
    7.4986  -15.4430   26.2331 C   0  0  0  0  0  0  0  0  0  0  0  0
    6.3585  -15.8422   25.5798 C   0  0  0  0  0  0  0  0  0  0  0  0
    5.5964  -14.7604   25.3356 N   0  0  0  0  0  0  0  0  0  0  0  0
    6.2141  -13.6476   25.8176 C   0  0  0  0  0  0  0  0  0  0  0  0
    5.8515  -12.3251   25.8143 C   0  0  0  0  0  0  0  0  0  0  0  0
    6.6937  -11.3901   26.3855 C   0  0  0  0  0  0  0  0  0  0  0  0
    7.8786  -11.7881   26.9482 C   0  0  0  0  0  0  0  0  0  0  0  0
    8.2219  -13.1213   26.9403 C   0  0  0  0  0  0  0  0  0  0  0  0
    7.4120  -14.0801   26.3823 C   0  0  0  0  0  0  0  0  0  0  0  0
   11.0041  -16.7177   26.2463 C   0  0  0  0  0  0  0  0  0  0  0  0
   11.5373  -17.2170   25.2289 O   0  0  0  0  0  0  0  0  0  0  0  0
   11.4772  -17.0700   27.4882 O   0  0  0  0  0  0  0  0  0  0  0  0
  2  1  1  6
  3  2  1  0
  4  3  1  0
  5  4  2  0
  6  2  1  0
  6  7  2  0
  8  4  1  0
  9 10  1  0
 11 10  1  6
 11 12  1  0
 11 13  1  0
 12  6  1  0
 13 14  2  0
 13 15  1  0
 15 16  1  0
 16 27  1  0
 16 17  1  6
 18 17  1  0
 19 18  2  0
 20 19  1  0
 21 20  1  0
 21 26  2  0
 22 21  1  0
 23 22  2  0
 23 24  1  0
 24 25  2  0
 25 26  1  0
 26 18  1  0
 27 28  2  0
 27 29  1  0
M  END
$$$$
