DSW.pdb
     RDKit          3D

 29 30  0  0  1  0  0  0  0  0999 V2000
    8.8206  -17.5816   16.7486 N   0  0  0  0  0  0  0  0  0  0  0  0
    9.1013  -16.2592   17.2059 C   0  0  1  0  0  0  0  0  0  0  0  0
    8.4286  -15.2805   16.2387 C   0  0  0  0  0  0  0  0  0  0  0  0
    9.0565  -15.3580   14.8985 C   0  0  0  0  0  0  0  0  0  0  0  0
    9.9886  -16.1891   14.7453 O   0  0  0  0  0  0  0  0  0  0  0  0
    8.4768  -15.9809   18.5436 C   0  0  0  0  0  0  0  0  0  0  0  0
    7.7062  -14.9964   18.6693 O   0  0  0  0  0  0  0  0  0  0  0  0
    8.6869  -14.5817   13.8163 O   0  0  0  0  0  0  0  0  0  0  0  0
    7.4172  -18.8592   21.3440 O   0  0  0  0  0  0  0  0  0  0  0  0
    7.0543  -17.5362   21.3486 C   0  0  0  0  0  0  0  0  0  0  0  0
    8.1537  -16.6001   20.9815 C   0  0  2  0  0  0  0  0  0  0  0  0
    8.7141  -16.7807   19.6861 N   0  0  0  0  0  0  0  0  0  0  0  0
    9.1607  -16.5688   22.0638 C   0  0  0  0  0  0  0  0  0  0  0  0
   10.2646  -17.1260   21.8553 O   0  0  0  0  0  0  0  0  0  0  0  0
    8.9579  -15.9496   23.3239 N   0  0  0  0  0  0  0  0  0  0  0  0
    9.9891  -15.8810   24.3596 C   0  0  1  0  0  0  0  0  0  0  0  0
    9.8119  -14.6701   25.2303 C   0  0  0  0  0  0  0  0  0  0  0  0
    8.4062  -14.5930   25.6652 C   0  0  0  0  0  0  0  0  0  0  0  0
    7.4963  -15.6179   25.7524 C   0  0  0  0  0  0  0  0  0  0  0  0
    6.3257  -15.1228   26.1943 N   0  0  0  0  0  0  0  0  0  0  0  0
    6.4449  -13.7832   26.4021 C   0  0  0  0  0  0  0  0  0  0  0  0
    5.5496  -12.8413   26.8403 C   0  0  0  0  0  0  0  0  0  0  0  0
    5.9533  -11.5247   26.9558 C   0  0  0  0  0  0  0  0  0  0  0  0
    7.2380  -11.1709   26.6338 C   0  0  0  0  0  0  0  0  0  0  0  0
    8.1196  -12.1335   26.1963 C   0  0  0  0  0  0  0  0  0  0  0  0
    7.7562  -13.4518   26.0681 C   0  0  0  0  0  0  0  0  0  0  0  0
    9.9699  -17.1331   25.1155 C   0  0  0  0  0  0  0  0  0  0  0  0
    9.0046  -17.9224   24.9976 O   0  0  0  0  0  0  0  0  0  0  0  0
   11.0019  -17.4633   25.9620 O   0  0  0  0  0  0  0  0  0  0  0  0
  2  1  1  6
  3  2  1  0
  4  3  1  0
  5  4  2  0
  6  2  1  0
  6  7  2  0
  8  4  1  0
  9 10  1  0
 11 10  1  1
 11 12  1  0
 11 13  1  0
 12  6  1  0
 13 14  2  0
 13 15  1  0
 15 16  1  0
 16 27  1  0
 16 17  1  1
 18 17  1  0
 19 18  2  0
 20 19  1  0
 21 20  1  0
 21 26  2  0
 22 21  1  0
 23 22  2  0
 23 24  1  0
 24 25  2  0
 25 26  1  0
 26 18  1  0
 27 28  2  0
 27 29  1  0
M  END
$$$$
