DSW.pdb
     RDKit          3D

 29 30  0  0  1  0  0  0  0  0999 V2000
   11.3400  -19.1939   18.3446 N   0  0  0  0  0  0  0  0  0  0  0  0
   12.0381  -18.3188   19.2298 C   0  0  1  0  0  0  0  0  0  0  0  0
   12.4799  -17.0954   18.4211 C   0  0  0  0  0  0  0  0  0  0  0  0
   13.7465  -17.3746   17.7041 C   0  0  0  0  0  0  0  0  0  0  0  0
   14.4016  -18.3870   18.0630 O   0  0  0  0  0  0  0  0  0  0  0  0
   11.1430  -17.7751   20.3069 C   0  0  0  0  0  0  0  0  0  0  0  0
   11.2140  -16.5574   20.6086 O   0  0  0  0  0  0  0  0  0  0  0  0
   14.2494  -16.5999   16.6758 O   0  0  0  0  0  0  0  0  0  0  0  0
    8.7849  -20.3519   22.8530 O   0  0  0  0  0  0  0  0  0  0  0  0
    8.3049  -19.1225   22.4786 C   0  0  0  0  0  0  0  0  0  0  0  0
    9.3602  -18.1532   22.0705 C   0  0  2  0  0  0  0  0  0  0  0  0
   10.2106  -18.5738   21.0099 N   0  0  0  0  0  0  0  0  0  0  0  0
   10.0922  -17.6841   23.2665 C   0  0  0  0  0  0  0  0  0  0  0  0
   11.3038  -17.9901   23.3712 O   0  0  0  0  0  0  0  0  0  0  0  0
    9.5115  -16.9106   24.3042 N   0  0  0  0  0  0  0  0  0  0  0  0
   10.2552  -16.4579   25.4801 C   0  0  1  0  0  0  0  0  0  0  0  0
    9.9763  -15.0134   25.7826 C   0  0  0  0  0  0  0  0  0  0  0  0
    8.5245  -14.8307   25.9549 C   0  0  0  0  0  0  0  0  0  0  0  0
    7.5491  -15.7975   25.9470 C   0  0  0  0  0  0  0  0  0  0  0  0
    6.3539  -15.2102   26.1402 N   0  0  0  0  0  0  0  0  0  0  0  0
    6.5213  -13.8665   26.2765 C   0  0  0  0  0  0  0  0  0  0  0  0
    5.6261  -12.8488   26.4853 C   0  0  0  0  0  0  0  0  0  0  0  0
    6.0875  -11.5499   26.5831 C   0  0  0  0  0  0  0  0  0  0  0  0
    7.4286  -11.2886   26.4714 C   0  0  0  0  0  0  0  0  0  0  0  0
    8.3089  -12.3261   26.2623 C   0  0  0  0  0  0  0  0  0  0  0  0
    7.8892  -13.6299   26.1594 C   0  0  0  0  0  0  0  0  0  0  0  0
    9.9374  -17.3451   26.5986 C   0  0  0  0  0  0  0  0  0  0  0  0
    8.9870  -18.1556   26.5061 O   0  0  0  0  0  0  0  0  0  0  0  0
   10.6695  -17.3057   27.7618 O   0  0  0  0  0  0  0  0  0  0  0  0
  2  1  1  6
  3  2  1  0
  4  3  1  0
  5  4  2  0
  6  2  1  0
  6  7  2  0
  8  4  1  0
  9 10  1  0
 11 10  1  1
 11 12  1  0
 11 13  1  0
 12  6  1  0
 13 14  2  0
 13 15  1  0
 15 16  1  0
 16 27  1  0
 16 17  1  1
 18 17  1  0
 19 18  2  0
 20 19  1  0
 21 20  1  0
 21 26  2  0
 22 21  1  0
 23 22  2  0
 23 24  1  0
 24 25  2  0
 25 26  1  0
 26 18  1  0
 27 28  2  0
 27 29  1  0
M  END
$$$$
