DSW.pdb
     RDKit          3D

 29 30  0  0  1  0  0  0  0  0999 V2000
   10.8264  -18.3651   17.6423 N   0  0  0  0  0  0  0  0  0  0  0  0
   11.5670  -18.3904   18.8619 C   0  0  1  0  0  0  0  0  0  0  0  0
   12.8460  -17.5758   18.6459 C   0  0  0  0  0  0  0  0  0  0  0  0
   13.7875  -18.3077   17.7660 C   0  0  0  0  0  0  0  0  0  0  0  0
   14.0201  -19.5122   18.0452 O   0  0  0  0  0  0  0  0  0  0  0  0
   10.8409  -17.6930   19.9769 C   0  0  0  0  0  0  0  0  0  0  0  0
   10.7468  -16.4401   19.9600 O   0  0  0  0  0  0  0  0  0  0  0  0
   14.4209  -17.7557   16.6685 O   0  0  0  0  0  0  0  0  0  0  0  0
    8.3074  -19.8971   22.7059 O   0  0  0  0  0  0  0  0  0  0  0  0
    8.1007  -18.6190   22.2524 C   0  0  0  0  0  0  0  0  0  0  0  0
    9.3514  -17.8422   22.0239 C   0  0  2  0  0  0  0  0  0  0  0  0
   10.2487  -18.3827   21.0609 N   0  0  0  0  0  0  0  0  0  0  0  0
    9.9893  -17.5360   23.3223 C   0  0  0  0  0  0  0  0  0  0  0  0
   11.0418  -18.1499   23.6188 O   0  0  0  0  0  0  0  0  0  0  0  0
    9.4866  -16.5927   24.2549 N   0  0  0  0  0  0  0  0  0  0  0  0
   10.0986  -16.3518   25.5619 C   0  0  1  0  0  0  0  0  0  0  0  0
    9.8311  -14.9545   26.0433 C   0  0  0  0  0  0  0  0  0  0  0  0
    8.3754  -14.7304   26.0816 C   0  0  0  0  0  0  0  0  0  0  0  0
    7.3776  -15.6629   25.9372 C   0  0  0  0  0  0  0  0  0  0  0  0
    6.1869  -15.0442   26.0387 N   0  0  0  0  0  0  0  0  0  0  0  0
    6.3794  -13.7135   26.2486 C   0  0  0  0  0  0  0  0  0  0  0  0
    5.4983  -12.6756   26.4134 C   0  0  0  0  0  0  0  0  0  0  0  0
    5.9858  -11.3979   26.6116 C   0  0  0  0  0  0  0  0  0  0  0  0
    7.3384  -11.1773   26.6421 C   0  0  0  0  0  0  0  0  0  0  0  0
    8.2042  -12.2344   26.4747 C   0  0  0  0  0  0  0  0  0  0  0  0
    7.7585  -13.5183   26.2752 C   0  0  0  0  0  0  0  0  0  0  0  0
    9.6220  -17.3752   26.4919 C   0  0  0  0  0  0  0  0  0  0  0  0
    8.6227  -18.0716   26.2001 O   0  0  0  0  0  0  0  0  0  0  0  0
   10.2563  -17.5891   27.6928 O   0  0  0  0  0  0  0  0  0  0  0  0
  2  1  1  6
  3  2  1  0
  4  3  1  0
  5  4  2  0
  6  2  1  0
  6  7  2  0
  8  4  1  0
  9 10  1  0
 11 10  1  1
 11 12  1  0
 11 13  1  0
 12  6  1  0
 13 14  2  0
 13 15  1  0
 15 16  1  0
 16 27  1  0
 16 17  1  1
 18 17  1  0
 19 18  2  0
 20 19  1  0
 21 20  1  0
 21 26  2  0
 22 21  1  0
 23 22  2  0
 23 24  1  0
 24 25  2  0
 25 26  1  0
 26 18  1  0
 27 28  2  0
 27 29  1  0
M  END
$$$$
