DSW.pdb
     RDKit          3D

 29 30  0  0  1  0  0  0  0  0999 V2000
   10.9946  -17.5855   17.6396 N   0  0  0  0  0  0  0  0  0  0  0  0
   11.5642  -17.9630   18.8926 C   0  0  1  0  0  0  0  0  0  0  0  0
   12.9875  -17.3997   18.9445 C   0  0  0  0  0  0  0  0  0  0  0  0
   13.9362  -18.3181   18.2715 C   0  0  0  0  0  0  0  0  0  0  0  0
   13.4622  -19.3684   17.7663 O   0  0  0  0  0  0  0  0  0  0  0  0
   10.8483  -17.3288   20.0511 C   0  0  0  0  0  0  0  0  0  0  0  0
   11.0467  -16.1145   20.3059 O   0  0  0  0  0  0  0  0  0  0  0  0
   15.2963  -18.0962   18.1652 O   0  0  0  0  0  0  0  0  0  0  0  0
    7.8817  -19.4833   22.4172 O   0  0  0  0  0  0  0  0  0  0  0  0
    7.7959  -18.1558   22.0819 C   0  0  0  0  0  0  0  0  0  0  0  0
    9.1139  -17.4868   21.8945 C   0  0  2  0  0  0  0  0  0  0  0  0
    9.9494  -18.0372   20.8827 N   0  0  0  0  0  0  0  0  0  0  0  0
    9.7863  -17.3400   23.2032 C   0  0  0  0  0  0  0  0  0  0  0  0
   10.8069  -18.0355   23.4205 O   0  0  0  0  0  0  0  0  0  0  0  0
    9.3503  -16.4633   24.2297 N   0  0  0  0  0  0  0  0  0  0  0  0
   10.0279  -16.3392   25.5206 C   0  0  1  0  0  0  0  0  0  0  0  0
    9.7627  -15.0027   26.1525 C   0  0  0  0  0  0  0  0  0  0  0  0
    8.3108  -14.7526   26.1555 C   0  0  0  0  0  0  0  0  0  0  0  0
    7.2984  -15.6793   26.1060 C   0  0  0  0  0  0  0  0  0  0  0  0
    6.1177  -15.0343   26.1308 N   0  0  0  0  0  0  0  0  0  0  0  0
    6.3311  -13.6919   26.1962 C   0  0  0  0  0  0  0  0  0  0  0  0
    5.4665  -12.6283   26.2406 C   0  0  0  0  0  0  0  0  0  0  0  0
    5.9740  -11.3445   26.3022 C   0  0  0  0  0  0  0  0  0  0  0  0
    7.3300  -11.1435   26.3185 C   0  0  0  0  0  0  0  0  0  0  0  0
    8.1790  -12.2263   26.2735 C   0  0  0  0  0  0  0  0  0  0  0  0
    7.7131  -13.5169   26.2116 C   0  0  0  0  0  0  0  0  0  0  0  0
    9.6199  -17.4599   26.3672 C   0  0  0  0  0  0  0  0  0  0  0  0
    8.6038  -18.1307   26.0736 O   0  0  0  0  0  0  0  0  0  0  0  0
   10.3379  -17.7943   27.4911 O   0  0  0  0  0  0  0  0  0  0  0  0
  2  1  1  6
  3  2  1  0
  4  3  1  0
  5  4  2  0
  6  2  1  0
  6  7  2  0
  8  4  1  0
  9 10  1  0
 11 10  1  1
 11 12  1  0
 11 13  1  0
 12  6  1  0
 13 14  2  0
 13 15  1  0
 15 16  1  0
 16 27  1  0
 16 17  1  1
 18 17  1  0
 19 18  2  0
 20 19  1  0
 21 20  1  0
 21 26  2  0
 22 21  1  0
 23 22  2  0
 23 24  1  0
 24 25  2  0
 25 26  1  0
 26 18  1  0
 27 28  2  0
 27 29  1  0
M  END
$$$$
