DSW.pdb
     RDKit          3D

 29 30  0  0  1  0  0  0  0  0999 V2000
    9.1924  -19.5549   21.0204 N   0  0  0  0  0  0  0  0  0  0  0  0
    9.9053  -18.7805   20.0566 C   0  0  1  0  0  0  0  0  0  0  0  0
    9.3449  -19.1287   18.6743 C   0  0  0  0  0  0  0  0  0  0  0  0
   10.1457  -18.4805   17.6090 C   0  0  0  0  0  0  0  0  0  0  0  0
   11.3968  -18.5957   17.6769 O   0  0  0  0  0  0  0  0  0  0  0  0
    9.6572  -17.3081   20.2214 C   0  0  0  0  0  0  0  0  0  0  0  0
   10.5021  -16.4893   19.7804 O   0  0  0  0  0  0  0  0  0  0  0  0
    9.6103  -17.7633   16.5558 O   0  0  0  0  0  0  0  0  0  0  0  0
    5.9705  -15.7809   21.7428 O   0  0  0  0  0  0  0  0  0  0  0  0
    6.9107  -14.9369   21.2083 C   0  0  0  0  0  0  0  0  0  0  0  0
    8.3079  -15.4472   21.2929 C   0  0  2  0  0  0  0  0  0  0  0  0
    8.5053  -16.7871   20.8565 N   0  0  0  0  0  0  0  0  0  0  0  0
    8.8543  -15.1761   22.6399 C   0  0  0  0  0  0  0  0  0  0  0  0
    8.7575  -14.0093   23.0891 O   0  0  0  0  0  0  0  0  0  0  0  0
    9.4820  -16.1513   23.4568 N   0  0  0  0  0  0  0  0  0  0  0  0
    9.9596  -15.8759   24.8122 C   0  0  1  0  0  0  0  0  0  0  0  0
    9.0059  -16.4012   25.8468 C   0  0  0  0  0  0  0  0  0  0  0  0
    7.7331  -15.6663   25.7435 C   0  0  0  0  0  0  0  0  0  0  0  0
    6.5283  -16.1338   25.2788 C   0  0  0  0  0  0  0  0  0  0  0  0
    5.6201  -15.1438   25.3541 N   0  0  0  0  0  0  0  0  0  0  0  0
    6.2043  -14.0248   25.8625 C   0  0  0  0  0  0  0  0  0  0  0  0
    5.7100  -12.7733   26.1272 C   0  0  0  0  0  0  0  0  0  0  0  0
    6.5505  -11.8095   26.6510 C   0  0  0  0  0  0  0  0  0  0  0  0
    7.8646  -12.1088   26.9013 C   0  0  0  0  0  0  0  0  0  0  0  0
    8.3389  -13.3719   26.6280 C   0  0  0  0  0  0  0  0  0  0  0  0
    7.5352  -14.3563   26.1070 C   0  0  0  0  0  0  0  0  0  0  0  0
   11.3076  -16.4271   24.9489 C   0  0  0  0  0  0  0  0  0  0  0  0
   11.8254  -17.0607   24.0007 O   0  0  0  0  0  0  0  0  0  0  0  0
   12.0242  -16.2614   26.1105 O   0  0  0  0  0  0  0  0  0  0  0  0
  2  1  1  1
  3  2  1  0
  4  3  1  0
  5  4  2  0
  6  2  1  0
  6  7  2  0
  8  4  1  0
  9 10  1  0
 11 10  1  1
 11 12  1  0
 11 13  1  0
 12  6  1  0
 13 14  2  0
 13 15  1  0
 15 16  1  0
 16 27  1  0
 16 17  1  1
 18 17  1  0
 19 18  2  0
 20 19  1  0
 21 20  1  0
 21 26  2  0
 22 21  1  0
 23 22  2  0
 23 24  1  0
 24 25  2  0
 25 26  1  0
 26 18  1  0
 27 28  2  0
 27 29  1  0
M  END
$$$$
