TEH.pdb
     RDKit          3D

 27 27  0  0  1  0  0  0  0  0999 V2000
    8.4813  -12.6805   19.0039 C   0  0  0  0  0  0  0  0  0  0  0  0
    8.0411  -13.6830   17.9575 C   0  0  1  0  0  0  0  0  0  0  0  0
    7.3075  -13.0516   16.9621 O   0  0  0  0  0  0  0  0  0  0  0  0
    9.2585  -14.3359   17.2945 C   0  0  2  0  0  0  0  0  0  0  0  0
    8.8045  -15.2746   16.2665 N   0  0  0  0  0  0  0  0  0  0  0  0
   10.0923  -15.0736   18.2534 C   0  0  0  0  0  0  0  0  0  0  0  0
    9.8172  -16.2882   18.5585 O   0  0  0  0  0  0  0  0  0  0  0  0
   11.2221  -14.4751   18.8701 N   0  0  0  0  0  0  0  0  0  0  0  0
   12.0196  -15.2438   19.8295 C   0  0  1  0  0  0  0  0  0  0  0  0
   13.4080  -14.6253   19.9629 C   0  0  0  0  0  0  0  0  0  0  0  0
   14.2924  -15.0285   18.8083 C   0  0  0  0  0  0  0  0  0  0  0  0
   15.6214  -14.4200   18.8661 C   0  0  0  0  0  0  0  0  0  0  0  0
   16.0655  -13.8069   17.8620 O   0  0  0  0  0  0  0  0  0  0  0  0
   11.3086  -15.2250   21.1200 C   0  0  0  0  0  0  0  0  0  0  0  0
   10.4024  -14.3882   21.3149 O   0  0  0  0  0  0  0  0  0  0  0  0
   16.4514  -14.4739   19.9857 O   0  0  0  0  0  0  0  0  0  0  0  0
   11.5979  -16.1326   22.1999 N   0  0  0  0  0  0  0  0  0  0  0  0
   10.7122  -16.3324   23.2969 C   0  0  1  0  0  0  0  0  0  0  0  0
    9.3611  -16.8187   22.8939 C   0  0  0  0  0  0  0  0  0  0  0  0
    8.3955  -15.8329   22.4339 C   0  0  0  0  0  0  0  0  0  0  0  0
    8.4114  -14.4699   22.4727 C   0  0  0  0  0  0  0  0  0  0  0  0
    7.2813  -13.9775   21.8818 N   0  0  0  0  0  0  0  0  0  0  0  0
    6.5873  -15.0254   21.4880 C   0  0  0  0  0  0  0  0  0  0  0  0
    7.2220  -16.1529   21.8007 N   0  0  0  0  0  0  0  0  0  0  0  0
   11.2626  -17.2649   24.3416 C   0  0  0  0  0  0  0  0  0  0  0  0
   10.5736  -17.3980   25.3835 O   0  0  0  0  0  0  0  0  0  0  0  0
   12.4358  -17.9543   24.2259 O   0  0  0  0  0  0  0  0  0  0  0  0
  2  1  1  1
  2  3  1  0
  4  2  1  0
  4  5  1  6
  6  7  2  0
  6  4  1  0
  8  6  1  0
  9 10  1  1
  9  8  1  0
 11 12  1  0
 11 10  1  0
 12 13  2  0
 14  9  1  0
 15 14  2  0
 16 12  1  0
 17 14  1  0
 18 17  1  0
 18 19  1  6
 20 19  1  0
 20 21  2  0
 22 21  1  0
 23 22  1  0
 24 23  2  0
 24 20  1  0
 25 18  1  0
 25 27  1  0
 26 25  2  0
M  END
$$$$
