TEH.pdb
     RDKit          3D

 27 27  0  0  1  0  0  0  0  0999 V2000
    8.9227  -12.5122   20.6484 C   0  0  0  0  0  0  0  0  0  0  0  0
    7.8018  -13.1409   19.8470 C   0  0  1  0  0  0  0  0  0  0  0  0
    7.4865  -12.3471   18.7525 O   0  0  0  0  0  0  0  0  0  0  0  0
    8.2261  -14.5149   19.3179 C   0  0  2  0  0  0  0  0  0  0  0  0
    7.1452  -15.0752   18.5043 N   0  0  0  0  0  0  0  0  0  0  0  0
    8.5270  -15.4646   20.3979 C   0  0  0  0  0  0  0  0  0  0  0  0
    7.5904  -16.1468   20.9471 O   0  0  0  0  0  0  0  0  0  0  0  0
    9.8521  -15.6605   20.8676 N   0  0  0  0  0  0  0  0  0  0  0  0
   10.1406  -16.7580   21.7947 C   0  0  1  0  0  0  0  0  0  0  0  0
   11.5568  -17.2755   21.5609 C   0  0  0  0  0  0  0  0  0  0  0  0
   11.8989  -18.3736   22.5382 C   0  0  0  0  0  0  0  0  0  0  0  0
   13.2599  -18.8836   22.3722 C   0  0  0  0  0  0  0  0  0  0  0  0
   14.1812  -18.4375   23.1026 O   0  0  0  0  0  0  0  0  0  0  0  0
    9.9895  -16.2381   23.1652 C   0  0  0  0  0  0  0  0  0  0  0  0
   10.4514  -15.1147   23.4551 O   0  0  0  0  0  0  0  0  0  0  0  0
   13.6158  -19.8545   21.4364 O   0  0  0  0  0  0  0  0  0  0  0  0
    9.3264  -16.9599   24.2202 N   0  0  0  0  0  0  0  0  0  0  0  0
    9.2611  -16.4801   25.5594 C   0  0  1  0  0  0  0  0  0  0  0  0
    7.8837  -16.1114   25.9963 C   0  0  0  0  0  0  0  0  0  0  0  0
    7.4339  -14.7514   25.7438 C   0  0  0  0  0  0  0  0  0  0  0  0
    8.0628  -13.6865   25.1694 C   0  0  0  0  0  0  0  0  0  0  0  0
    7.2127  -12.6170   25.1241 N   0  0  0  0  0  0  0  0  0  0  0  0
    6.0819  -13.0246   25.6626 C   0  0  0  0  0  0  0  0  0  0  0  0
    6.1760  -14.2961   26.0451 N   0  0  0  0  0  0  0  0  0  0  0  0
    9.8386  -17.4412   26.5627 C   0  0  0  0  0  0  0  0  0  0  0  0
   10.1601  -18.5735   26.1236 O   0  0  0  0  0  0  0  0  0  0  0  0
   10.0268  -17.1617   27.8861 O   0  0  0  0  0  0  0  0  0  0  0  0
  2  1  1  6
  2  3  1  0
  4  2  1  0
  4  5  1  1
  6  7  2  0
  6  4  1  0
  8  6  1  0
  9 10  1  1
  9  8  1  0
 11 12  1  0
 11 10  1  0
 12 13  2  0
 14  9  1  0
 15 14  2  0
 16 12  1  0
 17 14  1  0
 18 17  1  0
 18 19  1  1
 20 19  1  0
 20 21  2  0
 22 21  1  0
 23 22  1  0
 24 23  2  0
 24 20  1  0
 25 18  1  0
 25 27  1  0
 26 25  2  0
M  END
$$$$
