TEH.pdb
     RDKit          3D

 27 27  0  0  1  0  0  0  0  0999 V2000
    9.5894  -12.4828   19.8404 C   0  0  0  0  0  0  0  0  0  0  0  0
    8.5954  -13.2427   18.9870 C   0  0  1  0  0  0  0  0  0  0  0  0
    8.1805  -12.4611   17.9171 O   0  0  0  0  0  0  0  0  0  0  0  0
    9.2385  -14.5103   18.4147 C   0  0  2  0  0  0  0  0  0  0  0  0
    8.3149  -15.1358   17.4661 N   0  0  0  0  0  0  0  0  0  0  0  0
    9.5633  -15.4948   19.4559 C   0  0  0  0  0  0  0  0  0  0  0  0
    8.7020  -16.3749   19.8137 O   0  0  0  0  0  0  0  0  0  0  0  0
   10.8298  -15.5084   20.0968 N   0  0  0  0  0  0  0  0  0  0  0  0
   11.1441  -16.5628   21.0647 C   0  0  1  0  0  0  0  0  0  0  0  0
   12.5086  -17.1676   20.7478 C   0  0  0  0  0  0  0  0  0  0  0  0
   12.7352  -17.2384   19.2573 C   0  0  0  0  0  0  0  0  0  0  0  0
   14.0118  -17.8579   18.9016 C   0  0  0  0  0  0  0  0  0  0  0  0
   14.7690  -18.2812   19.8120 O   0  0  0  0  0  0  0  0  0  0  0  0
   11.1363  -15.9554   22.4072 C   0  0  0  0  0  0  0  0  0  0  0  0
   11.0515  -14.7150   22.5245 O   0  0  0  0  0  0  0  0  0  0  0  0
   14.4589  -18.0156   17.5900 O   0  0  0  0  0  0  0  0  0  0  0  0
   11.2225  -16.7187   23.6252 N   0  0  0  0  0  0  0  0  0  0  0  0
   10.2633  -16.6103   24.6721 C   0  0  1  0  0  0  0  0  0  0  0  0
    8.8527  -16.7464   24.2076 C   0  0  0  0  0  0  0  0  0  0  0  0
    8.1409  -15.5330   23.8379 C   0  0  0  0  0  0  0  0  0  0  0  0
    8.5395  -14.2294   23.8045 C   0  0  0  0  0  0  0  0  0  0  0  0
    7.5153  -13.4442   23.3538 N   0  0  0  0  0  0  0  0  0  0  0  0
    6.5074  -14.2579   23.1153 C   0  0  0  0  0  0  0  0  0  0  0  0
    6.8439  -15.5155   23.3930 N   0  0  0  0  0  0  0  0  0  0  0  0
   10.4935  -17.5892   25.7914 C   0  0  0  0  0  0  0  0  0  0  0  0
    9.9246  -17.3287   26.8807 O   0  0  0  0  0  0  0  0  0  0  0  0
   11.2644  -18.7122   25.6940 O   0  0  0  0  0  0  0  0  0  0  0  0
  2  1  1  6
  2  3  1  0
  4  2  1  0
  4  5  1  6
  6  7  2  0
  6  4  1  0
  8  6  1  0
  9 10  1  6
  9  8  1  0
 11 12  1  0
 11 10  1  0
 12 13  2  0
 14  9  1  0
 15 14  2  0
 16 12  1  0
 17 14  1  0
 18 17  1  0
 18 19  1  6
 20 19  1  0
 20 21  2  0
 22 21  1  0
 23 22  1  0
 24 23  2  0
 24 20  1  0
 25 18  1  0
 25 27  1  0
 26 25  2  0
M  END
$$$$
