TEH.pdb
     RDKit          3D

 27 27  0  0  1  0  0  0  0  0999 V2000
    8.5499  -12.6877   20.2473 C   0  0  0  0  0  0  0  0  0  0  0  0
    8.0395  -13.1545   18.8999 C   0  0  1  0  0  0  0  0  0  0  0  0
    8.1091  -12.1230   17.9732 O   0  0  0  0  0  0  0  0  0  0  0  0
    8.8957  -14.3110   18.3734 C   0  0  2  0  0  0  0  0  0  0  0  0
    8.3956  -14.7251   17.0609 N   0  0  0  0  0  0  0  0  0  0  0  0
    8.8704  -15.4796   19.2637 C   0  0  0  0  0  0  0  0  0  0  0  0
    8.1742  -16.5138   18.9639 O   0  0  0  0  0  0  0  0  0  0  0  0
    9.6091  -15.5067   20.4755 N   0  0  0  0  0  0  0  0  0  0  0  0
    9.6589  -16.7372   21.2698 C   0  0  1  0  0  0  0  0  0  0  0  0
   10.7707  -17.6445   20.7512 C   0  0  0  0  0  0  0  0  0  0  0  0
   12.0727  -16.8902   20.6334 C   0  0  0  0  0  0  0  0  0  0  0  0
   13.1943  -17.7433   20.2410 C   0  0  0  0  0  0  0  0  0  0  0  0
   13.5827  -18.6516   21.0192 O   0  0  0  0  0  0  0  0  0  0  0  0
    9.9018  -16.3556   22.6722 C   0  0  0  0  0  0  0  0  0  0  0  0
   10.7572  -15.4854   22.9373 O   0  0  0  0  0  0  0  0  0  0  0  0
   13.8804  -17.6163   19.0334 O   0  0  0  0  0  0  0  0  0  0  0  0
    9.1985  -16.9360   23.7868 N   0  0  0  0  0  0  0  0  0  0  0  0
    9.3799  -16.4925   25.1278 C   0  0  1  0  0  0  0  0  0  0  0  0
    8.1167  -16.0557   25.7895 C   0  0  0  0  0  0  0  0  0  0  0  0
    7.5720  -14.7585   25.4204 C   0  0  0  0  0  0  0  0  0  0  0  0
    8.0398  -13.7904   24.5817 C   0  0  0  0  0  0  0  0  0  0  0  0
    7.1520  -12.7521   24.5334 N   0  0  0  0  0  0  0  0  0  0  0  0
    6.1572  -13.0831   25.3306 C   0  0  0  0  0  0  0  0  0  0  0  0
    6.3728  -14.2767   25.8790 N   0  0  0  0  0  0  0  0  0  0  0  0
   10.0491  -17.5152   26.0055 C   0  0  0  0  0  0  0  0  0  0  0  0
   10.2800  -18.6317   25.4779 O   0  0  0  0  0  0  0  0  0  0  0  0
   10.4086  -17.3057   27.3062 O   0  0  0  0  0  0  0  0  0  0  0  0
  2  1  1  1
  2  3  1  0
  4  2  1  0
  4  5  1  6
  6  7  2  0
  6  4  1  0
  8  6  1  0
  9 10  1  6
  9  8  1  0
 11 12  1  0
 11 10  1  0
 12 13  2  0
 14  9  1  0
 15 14  2  0
 16 12  1  0
 17 14  1  0
 18 17  1  0
 18 19  1  1
 20 19  1  0
 20 21  2  0
 22 21  1  0
 23 22  1  0
 24 23  2  0
 24 20  1  0
 25 18  1  0
 25 27  1  0
 26 25  2  0
M  END
$$$$
