TEH.pdb
     RDKit          3D

 27 27  0  0  1  0  0  0  0  0999 V2000
    9.6282  -12.6225   19.7224 C   0  0  0  0  0  0  0  0  0  0  0  0
    8.8408  -13.3328   18.6411 C   0  0  1  0  0  0  0  0  0  0  0  0
    8.4132  -12.4262   17.6804 O   0  0  0  0  0  0  0  0  0  0  0  0
    9.7155  -14.3765   17.9385 C   0  0  2  0  0  0  0  0  0  0  0  0
    8.9633  -14.9734   16.8331 N   0  0  0  0  0  0  0  0  0  0  0  0
   10.1376  -15.4557   18.8418 C   0  0  0  0  0  0  0  0  0  0  0  0
   10.0531  -16.6823   18.4778 O   0  0  0  0  0  0  0  0  0  0  0  0
   10.6502  -15.1829   20.1371 N   0  0  0  0  0  0  0  0  0  0  0  0
   11.2686  -16.2589   20.9163 C   0  0  1  0  0  0  0  0  0  0  0  0
   12.4732  -16.8172   20.1644 C   0  0  0  0  0  0  0  0  0  0  0  0
   12.0360  -17.7365   19.0501 C   0  0  0  0  0  0  0  0  0  0  0  0
   13.1538  -18.4250   18.4049 C   0  0  0  0  0  0  0  0  0  0  0  0
   13.1892  -18.5066   17.1505 O   0  0  0  0  0  0  0  0  0  0  0  0
   11.6742  -15.6948   22.2158 C   0  0  0  0  0  0  0  0  0  0  0  0
   12.8857  -15.6313   22.5116 O   0  0  0  0  0  0  0  0  0  0  0  0
   14.2098  -19.0120   19.1016 O   0  0  0  0  0  0  0  0  0  0  0  0
   10.7400  -15.1988   23.1931 N   0  0  0  0  0  0  0  0  0  0  0  0
   10.1220  -16.0377   24.1637 C   0  0  1  0  0  0  0  0  0  0  0  0
    8.9444  -16.7894   23.6417 C   0  0  0  0  0  0  0  0  0  0  0  0
    7.9165  -16.0364   22.9402 C   0  0  0  0  0  0  0  0  0  0  0  0
    7.7633  -14.6972   22.7340 C   0  0  0  0  0  0  0  0  0  0  0  0
    6.6455  -14.4703   21.9807 N   0  0  0  0  0  0  0  0  0  0  0  0
    6.1254  -15.6543   21.7309 C   0  0  0  0  0  0  0  0  0  0  0  0
    6.8581  -16.6157   22.2885 N   0  0  0  0  0  0  0  0  0  0  0  0
   11.0739  -17.0190   24.7921 C   0  0  0  0  0  0  0  0  0  0  0  0
   11.1085  -17.0304   26.0478 O   0  0  0  0  0  0  0  0  0  0  0  0
   11.8804  -17.8728   24.0954 O   0  0  0  0  0  0  0  0  0  0  0  0
  2  1  1  1
  2  3  1  0
  4  2  1  0
  4  5  1  6
  6  7  2  0
  6  4  1  0
  8  6  1  0
  9 10  1  6
  9  8  1  0
 11 12  1  0
 11 10  1  0
 12 13  2  0
 14  9  1  0
 15 14  2  0
 16 12  1  0
 17 14  1  0
 18 17  1  0
 18 19  1  6
 20 19  1  0
 20 21  2  0
 22 21  1  0
 23 22  1  0
 24 23  2  0
 24 20  1  0
 25 18  1  0
 25 27  1  0
 26 25  2  0
M  END
$$$$
