SCQ.pdb
     RDKit          3D

 22 21  0  0  1  0  0  0  0  0999 V2000
    4.5976  -19.3823   21.5811 O   0  0  0  0  0  0  0  0  0  0  0  0
    4.8201  -18.0543   21.3161 C   0  0  0  0  0  0  0  0  0  0  0  0
    5.6103  -17.8382   20.0495 C   0  0  2  0  0  0  0  0  0  0  0  0
    5.7901  -19.0831   19.3708 N   0  0  0  0  0  0  0  0  0  0  0  0
    6.8895  -17.1628   20.2406 C   0  0  0  0  0  0  0  0  0  0  0  0
    7.9450  -17.7937   19.9764 O   0  0  0  0  0  0  0  0  0  0  0  0
    7.0642  -15.8362   20.7048 N   0  0  0  0  0  0  0  0  0  0  0  0
    8.3255  -15.2394   21.0382 C   0  0  1  0  0  0  0  0  0  0  0  0
    8.2460  -13.7569   21.2696 C   0  0  0  0  0  0  0  0  0  0  0  0
    6.8802  -13.4679   22.4496 S   0  0  0  0  0  0  0  0  0  0  0  0
    8.9019  -15.8561   22.2632 C   0  0  0  0  0  0  0  0  0  0  0  0
    8.1743  -16.4610   23.1123 O   0  0  0  0  0  0  0  0  0  0  0  0
   10.0117  -21.0104   22.7726 N   0  0  0  0  0  0  0  0  0  0  0  0
   10.9655  -20.4982   23.7320 C   0  0  0  0  0  0  0  0  0  0  0  0
   11.5934  -21.3532   24.4473 O   0  0  0  0  0  0  0  0  0  0  0  0
   11.2277  -19.0983   23.9264 C   0  0  0  0  0  0  0  0  0  0  0  0
   10.6814  -18.0011   23.1712 C   0  0  0  0  0  0  0  0  0  0  0  0
   11.0034  -16.5947   23.4562 C   0  0  2  0  0  0  0  0  0  0  0  0
   10.2987  -15.7452   22.4515 N   0  0  0  0  0  0  0  0  0  0  0  0
   12.3999  -16.1732   23.5472 C   0  0  0  0  0  0  0  0  0  0  0  0
   13.2339  -16.2605   24.6085 O   0  0  0  0  0  0  0  0  0  0  0  0
   12.9504  -15.6379   22.4966 O   0  0  0  0  0  0  0  0  0  0  0  0
  1  2  1  0
  2  3  1  0
  3  4  1  1
  5  3  1  0
  5  7  1  0
  6  5  2  0
  8  7  1  0
  8 11  1  0
  9 10  1  0
  8  9  1  1
 11 12  2  0
 11 19  1  0
 13 14  1  0
 14 15  2  0
 16 14  1  0
 16 17  1  0
 18 17  1  6
 18 20  1  0
 19 18  1  0
 20 22  2  0
 20 21  1  0
M  END
$$$$
