SCQ.pdb
     RDKit          3D

 22 21  0  0  1  0  0  0  0  0999 V2000
    7.0113  -15.7901   19.2577 O   0  0  0  0  0  0  0  0  0  0  0  0
    6.9592  -15.4655   20.5901 C   0  0  0  0  0  0  0  0  0  0  0  0
    7.2024  -13.9982   20.8414 C   0  0  2  0  0  0  0  0  0  0  0  0
    7.9671  -13.4420   19.7697 N   0  0  0  0  0  0  0  0  0  0  0  0
    7.8198  -13.6977   22.1289 C   0  0  0  0  0  0  0  0  0  0  0  0
    9.0635  -13.8445   22.2452 O   0  0  0  0  0  0  0  0  0  0  0  0
    7.1413  -13.2464   23.2873 N   0  0  0  0  0  0  0  0  0  0  0  0
    7.6658  -13.2978   24.6217 C   0  0  1  0  0  0  0  0  0  0  0  0
    6.7733  -12.6511   25.6430 C   0  0  0  0  0  0  0  0  0  0  0  0
    7.6870  -12.6378   27.2261 S   0  0  0  0  0  0  0  0  0  0  0  0
    7.8978  -14.7029   25.0515 C   0  0  0  0  0  0  0  0  0  0  0  0
    6.9865  -15.5857   24.9696 O   0  0  0  0  0  0  0  0  0  0  0  0
   12.3051  -18.3456   22.9044 N   0  0  0  0  0  0  0  0  0  0  0  0
   11.8722  -18.9474   24.1467 C   0  0  0  0  0  0  0  0  0  0  0  0
   12.3328  -20.1077   24.4272 O   0  0  0  0  0  0  0  0  0  0  0  0
   10.9548  -18.3212   25.0591 C   0  0  0  0  0  0  0  0  0  0  0  0
   10.3669  -17.0128   24.9356 C   0  0  0  0  0  0  0  0  0  0  0  0
    9.5061  -16.4214   25.9709 C   0  0  2  0  0  0  0  0  0  0  0  0
    9.1776  -15.0251   25.5583 N   0  0  0  0  0  0  0  0  0  0  0  0
    9.9432  -16.4203   27.3656 C   0  0  0  0  0  0  0  0  0  0  0  0
   10.0755  -17.4744   28.2028 O   0  0  0  0  0  0  0  0  0  0  0  0
   10.2518  -15.2807   27.9125 O   0  0  0  0  0  0  0  0  0  0  0  0
  1  2  1  0
  2  3  1  0
  3  4  1  6
  5  3  1  0
  5  7  1  0
  6  5  2  0
  8  7  1  0
  8 11  1  0
  9 10  1  0
  8  9  1  1
 11 12  2  0
 11 19  1  0
 13 14  1  0
 14 15  2  0
 16 14  1  0
 16 17  1  0
 18 17  1  6
 18 20  1  0
 19 18  1  0
 20 22  2  0
 20 21  1  0
M  END
$$$$
