SCQ.pdb
     RDKit          3D

 22 21  0  0  1  0  0  0  0  0999 V2000
    7.8377  -19.2659   18.5806 O   0  0  0  0  0  0  0  0  0  0  0  0
    7.2844  -18.2753   17.8086 C   0  0  0  0  0  0  0  0  0  0  0  0
    8.2306  -17.1244   17.5730 C   0  0  2  0  0  0  0  0  0  0  0  0
    9.3178  -17.5503   16.7488 N   0  0  0  0  0  0  0  0  0  0  0  0
    8.7219  -16.4846   18.7889 C   0  0  0  0  0  0  0  0  0  0  0  0
    9.8362  -16.8457   19.2471 O   0  0  0  0  0  0  0  0  0  0  0  0
    8.0527  -15.4737   19.5210 N   0  0  0  0  0  0  0  0  0  0  0  0
    8.5271  -14.8903   20.7428 C   0  0  1  0  0  0  0  0  0  0  0  0
    7.6565  -13.7778   21.2548 C   0  0  0  0  0  0  0  0  0  0  0  0
    7.5987  -12.4958   19.9530 S   0  0  0  0  0  0  0  0  0  0  0  0
    8.6309  -15.9125   21.8186 C   0  0  0  0  0  0  0  0  0  0  0  0
    7.8950  -16.9491   21.8284 O   0  0  0  0  0  0  0  0  0  0  0  0
   11.7309  -20.2763   21.4040 N   0  0  0  0  0  0  0  0  0  0  0  0
   12.4902  -19.2435   22.0744 C   0  0  0  0  0  0  0  0  0  0  0  0
   13.7658  -19.3173   22.0070 O   0  0  0  0  0  0  0  0  0  0  0  0
   11.8912  -18.1644   22.8111 C   0  0  0  0  0  0  0  0  0  0  0  0
   10.4851  -17.9074   22.9826 C   0  0  0  0  0  0  0  0  0  0  0  0
    9.9683  -16.7834   23.7778 C   0  0  2  0  0  0  0  0  0  0  0  0
    9.5844  -15.6890   22.8382 N   0  0  0  0  0  0  0  0  0  0  0  0
   10.7775  -16.2262   24.8598 C   0  0  0  0  0  0  0  0  0  0  0  0
   11.1970  -16.8362   25.9918 O   0  0  0  0  0  0  0  0  0  0  0  0
   11.1636  -14.9872   24.7638 O   0  0  0  0  0  0  0  0  0  0  0  0
  1  2  1  0
  2  3  1  0
  3  4  1  1
  5  3  1  0
  5  7  1  0
  6  5  2  0
  8  7  1  0
  8 11  1  0
  9 10  1  0
  8  9  1  1
 11 12  2  0
 11 19  1  0
 13 14  1  0
 14 15  2  0
 16 14  1  0
 16 17  1  0
 18 17  1  6
 18 20  1  0
 19 18  1  0
 20 22  2  0
 20 21  1  0
M  END
$$$$
