SCQ.pdb
     RDKit          3D

 22 21  0  0  1  0  0  0  0  0999 V2000
    8.0906  -19.4280   19.3960 O   0  0  0  0  0  0  0  0  0  0  0  0
    7.0428  -18.5714   19.1685 C   0  0  0  0  0  0  0  0  0  0  0  0
    7.4914  -17.2293   18.6460 C   0  0  2  0  0  0  0  0  0  0  0  0
    8.1614  -17.3946   17.3944 N   0  0  0  0  0  0  0  0  0  0  0  0
    8.3121  -16.4602   19.5755 C   0  0  0  0  0  0  0  0  0  0  0  0
    9.5519  -16.4017   19.3720 O   0  0  0  0  0  0  0  0  0  0  0  0
    7.8397  -15.7567   20.7103 N   0  0  0  0  0  0  0  0  0  0  0  0
    8.6675  -15.0488   21.6441 C   0  0  1  0  0  0  0  0  0  0  0  0
    7.8944  -14.1657   22.5823 C   0  0  0  0  0  0  0  0  0  0  0  0
    6.6958  -15.2304   23.4603 S   0  0  0  0  0  0  0  0  0  0  0  0
    9.4688  -15.9913   22.4702 C   0  0  0  0  0  0  0  0  0  0  0  0
    9.0961  -17.1909   22.6661 O   0  0  0  0  0  0  0  0  0  0  0  0
   16.0577  -16.7794   22.0002 N   0  0  0  0  0  0  0  0  0  0  0  0
   15.5314  -16.4804   23.3141 C   0  0  0  0  0  0  0  0  0  0  0  0
   16.3365  -15.9637   24.1638 O   0  0  0  0  0  0  0  0  0  0  0  0
   14.1745  -16.7436   23.7086 C   0  0  0  0  0  0  0  0  0  0  0  0
   12.9893  -16.0783   23.2340 C   0  0  0  0  0  0  0  0  0  0  0  0
   11.6367  -16.4293   23.6923 C   0  0  2  0  0  0  0  0  0  0  0  0
   10.6694  -15.5024   23.0344 N   0  0  0  0  0  0  0  0  0  0  0  0
   11.3474  -16.4893   25.1237 C   0  0  0  0  0  0  0  0  0  0  0  0
   11.6854  -17.4565   26.0069 O   0  0  0  0  0  0  0  0  0  0  0  0
   10.6791  -15.5088   25.6577 O   0  0  0  0  0  0  0  0  0  0  0  0
  1  2  1  0
  2  3  1  0
  3  4  1  6
  5  3  1  0
  5  7  1  0
  6  5  2  0
  8  7  1  0
  8 11  1  0
  9 10  1  0
  8  9  1  1
 11 12  2  0
 11 19  1  0
 13 14  1  0
 14 15  2  0
 16 14  1  0
 16 17  1  0
 18 17  1  1
 18 20  1  0
 19 18  1  0
 20 22  2  0
 20 21  1  0
M  END
$$$$
