SCQ.pdb
     RDKit          3D

 22 21  0  0  1  0  0  0  0  0999 V2000
    8.2128  -18.6972   17.9362 O   0  0  0  0  0  0  0  0  0  0  0  0
    7.7374  -17.7032   17.1182 C   0  0  0  0  0  0  0  0  0  0  0  0
    8.6912  -16.5405   17.0005 C   0  0  2  0  0  0  0  0  0  0  0  0
    9.8704  -16.9483   16.3034 N   0  0  0  0  0  0  0  0  0  0  0  0
    9.0327  -15.9056   18.2691 C   0  0  0  0  0  0  0  0  0  0  0  0
   10.1084  -16.2336   18.8322 O   0  0  0  0  0  0  0  0  0  0  0  0
    8.2547  -14.9338   18.9445 N   0  0  0  0  0  0  0  0  0  0  0  0
    8.5336  -14.4206   20.2548 C   0  0  1  0  0  0  0  0  0  0  0  0
    7.5148  -13.4288   20.7407 C   0  0  0  0  0  0  0  0  0  0  0  0
    7.4729  -12.0613   19.5285 S   0  0  0  0  0  0  0  0  0  0  0  0
    8.6056  -15.5191   21.2554 C   0  0  0  0  0  0  0  0  0  0  0  0
    8.2046  -16.6952   20.9863 O   0  0  0  0  0  0  0  0  0  0  0  0
   12.7735  -18.8024   21.2054 N   0  0  0  0  0  0  0  0  0  0  0  0
   12.3343  -19.0097   22.5680 C   0  0  0  0  0  0  0  0  0  0  0  0
   12.8879  -19.9586   23.2239 O   0  0  0  0  0  0  0  0  0  0  0  0
   11.3139  -18.2231   23.2054 C   0  0  0  0  0  0  0  0  0  0  0  0
   10.6122  -17.0968   22.6470 C   0  0  0  0  0  0  0  0  0  0  0  0
    9.6626  -16.2823   23.4200 C   0  0  2  0  0  0  0  0  0  0  0  0
    9.1400  -15.2070   22.5265 N   0  0  0  0  0  0  0  0  0  0  0  0
   10.0784  -15.6917   24.6906 C   0  0  0  0  0  0  0  0  0  0  0  0
   10.2466  -16.3051   25.8843 O   0  0  0  0  0  0  0  0  0  0  0  0
   10.3262  -14.4147   24.7233 O   0  0  0  0  0  0  0  0  0  0  0  0
  1  2  1  0
  2  3  1  0
  3  4  1  1
  5  3  1  0
  5  7  1  0
  6  5  2  0
  8  7  1  0
  8 11  1  0
  9 10  1  0
  8  9  1  1
 11 12  2  0
 11 19  1  0
 13 14  1  0
 14 15  2  0
 16 14  1  0
 16 17  1  0
 18 17  1  6
 18 20  1  0
 19 18  1  0
 20 22  2  0
 20 21  1  0
M  END
$$$$
