SCQ.pdb
     RDKit          3D

 22 21  0  0  1  0  0  0  0  0999 V2000
    8.6616  -19.7901   18.8915 O   0  0  0  0  0  0  0  0  0  0  0  0
    7.6225  -19.3918   18.0884 C   0  0  0  0  0  0  0  0  0  0  0  0
    7.7391  -17.9507   17.6581 C   0  0  2  0  0  0  0  0  0  0  0  0
    8.5880  -17.8530   16.5125 N   0  0  0  0  0  0  0  0  0  0  0  0
    8.1788  -17.0380   18.7082 C   0  0  0  0  0  0  0  0  0  0  0  0
    9.3957  -16.7242   18.7576 O   0  0  0  0  0  0  0  0  0  0  0  0
    7.3515  -16.4569   19.7000 N   0  0  0  0  0  0  0  0  0  0  0  0
    7.8109  -15.6116   20.7643 C   0  0  1  0  0  0  0  0  0  0  0  0
    6.6984  -14.9853   21.5566 C   0  0  0  0  0  0  0  0  0  0  0  0
    7.4632  -13.7870   22.7058 S   0  0  0  0  0  0  0  0  0  0  0  0
    8.6705  -16.3673   21.7145 C   0  0  0  0  0  0  0  0  0  0  0  0
    8.4124  -17.5695   22.0378 O   0  0  0  0  0  0  0  0  0  0  0  0
   14.8543  -17.0119   23.8477 N   0  0  0  0  0  0  0  0  0  0  0  0
   14.2800  -17.2606   22.5435 C   0  0  0  0  0  0  0  0  0  0  0  0
   14.9704  -17.9586   21.7229 O   0  0  0  0  0  0  0  0  0  0  0  0
   12.9990  -16.7588   22.1273 C   0  0  0  0  0  0  0  0  0  0  0  0
   12.0862  -15.9615   22.9044 C   0  0  0  0  0  0  0  0  0  0  0  0
   10.7105  -16.3851   23.2056 C   0  0  2  0  0  0  0  0  0  0  0  0
    9.7939  -15.6964   22.2500 N   0  0  0  0  0  0  0  0  0  0  0  0
   10.1868  -16.2412   24.5625 C   0  0  0  0  0  0  0  0  0  0  0  0
   10.3089  -17.0970   25.6028 O   0  0  0  0  0  0  0  0  0  0  0  0
    9.5077  -15.1688   24.8491 O   0  0  0  0  0  0  0  0  0  0  0  0
  1  2  1  0
  2  3  1  0
  3  4  1  6
  5  3  1  0
  5  7  1  0
  6  5  2  0
  8  7  1  0
  8 11  1  0
  9 10  1  0
  8  9  1  1
 11 12  2  0
 11 19  1  0
 13 14  1  0
 14 15  2  0
 16 14  1  0
 16 17  1  0
 18 17  1  1
 18 20  1  0
 19 18  1  0
 20 22  2  0
 20 21  1  0
M  END
$$$$
