SCQ.pdb
     RDKit          3D

 22 21  0  0  1  0  0  0  0  0999 V2000
    7.8513  -18.7161   21.5410 O   0  0  0  0  0  0  0  0  0  0  0  0
    8.0556  -17.6787   22.4159 C   0  0  0  0  0  0  0  0  0  0  0  0
    7.6323  -16.3468   21.8482 C   0  0  2  0  0  0  0  0  0  0  0  0
    8.2368  -16.1502   20.5681 N   0  0  0  0  0  0  0  0  0  0  0  0
    7.8870  -15.2065   22.7222 C   0  0  0  0  0  0  0  0  0  0  0  0
    8.9433  -14.5455   22.5512 O   0  0  0  0  0  0  0  0  0  0  0  0
    7.0429  -14.7601   23.7681 N   0  0  0  0  0  0  0  0  0  0  0  0
    7.3339  -13.6685   24.6525 C   0  0  1  0  0  0  0  0  0  0  0  0
    6.1984  -13.3233   25.5741 C   0  0  0  0  0  0  0  0  0  0  0  0
    6.7012  -11.8402   26.5169 S   0  0  0  0  0  0  0  0  0  0  0  0
    8.5236  -13.9652   25.4949 C   0  0  0  0  0  0  0  0  0  0  0  0
    9.0698  -13.0730   26.2174 O   0  0  0  0  0  0  0  0  0  0  0  0
   11.4143  -16.6361   30.0071 N   0  0  0  0  0  0  0  0  0  0  0  0
   10.7604  -15.3478   29.9349 C   0  0  0  0  0  0  0  0  0  0  0  0
   11.0012  -14.5151   30.8762 O   0  0  0  0  0  0  0  0  0  0  0  0
    9.8581  -14.9693   28.8819 C   0  0  0  0  0  0  0  0  0  0  0  0
    9.4260  -15.7837   27.7762 C   0  0  0  0  0  0  0  0  0  0  0  0
   10.0578  -15.7317   26.4492 C   0  0  2  0  0  0  0  0  0  0  0  0
    9.0297  -15.2849   25.4637 N   0  0  0  0  0  0  0  0  0  0  0  0
   10.7456  -16.9102   25.9254 C   0  0  0  0  0  0  0  0  0  0  0  0
   11.9776  -17.3705   26.2411 O   0  0  0  0  0  0  0  0  0  0  0  0
   10.1315  -17.6366   25.0374 O   0  0  0  0  0  0  0  0  0  0  0  0
  1  2  1  0
  2  3  1  0
  3  4  1  6
  5  3  1  0
  5  7  1  0
  6  5  2  0
  8  7  1  0
  8 11  1  0
  9 10  1  0
  8  9  1  1
 11 12  2  0
 11 19  1  0
 13 14  1  0
 14 15  2  0
 16 14  1  0
 16 17  1  0
 18 17  1  1
 18 20  1  0
 19 18  1  0
 20 22  2  0
 20 21  1  0
M  END
$$$$
