FKA.pdb
     RDKit          3D

 26 26  0  0  1  0  0  0  0  0999 V2000
   28.6851  -20.8908   -8.8156 N   0  0  0  0  0  0  0  0  0  0  0  0
   27.2713  -20.7077   -8.7505 C   0  0  1  0  0  0  0  0  0  0  0  0
   26.9620  -19.4403   -8.0150 C   0  0  0  0  0  0  0  0  0  0  0  0
   27.4449  -19.5309   -6.6256 C   0  0  0  0  0  0  0  0  0  0  0  0
   28.5696  -18.8715   -6.2258 C   0  0  0  0  0  0  0  0  0  0  0  0
   29.0265  -18.9589   -4.9061 C   0  0  0  0  0  0  0  0  0  0  0  0
   28.3052  -19.7335   -4.0171 C   0  0  0  0  0  0  0  0  0  0  0  0
   27.1669  -20.4002   -4.4240 C   0  0  0  0  0  0  0  0  0  0  0  0
   26.7495  -20.2908   -5.7259 C   0  0  0  0  0  0  0  0  0  0  0  0
   26.6371  -20.6158  -10.0954 C   0  0  0  0  0  0  0  0  0  0  0  0
   27.1530  -19.8710  -10.9509 O   0  0  0  0  0  0  0  0  0  0  0  0
   25.4771  -21.3319  -10.4516 N   0  0  0  0  0  0  0  0  0  0  0  0
   24.9893  -21.3163  -11.7897 C   0  0  1  0  0  0  0  0  0  0  0  0
   24.9406  -22.7381  -12.2931 C   0  0  0  0  0  0  0  0  0  0  0  0
   24.5864  -22.7815  -13.7464 C   0  0  0  0  0  0  0  0  0  0  0  0
   24.4477  -24.1728  -14.3084 C   0  0  0  0  0  0  0  0  0  0  0  0
   24.0776  -24.0930  -15.7875 C   0  0  0  0  0  0  0  0  0  0  0  0
   23.8567  -25.4209  -16.3130 N   0  0  0  0  0  0  0  0  0  0  0  0
   23.6256  -20.7357  -11.9025 C   0  0  0  0  0  0  0  0  0  0  0  0
   22.7672  -20.9030  -11.0109 O   0  0  0  0  0  0  0  0  0  0  0  0
   21.8363  -18.7038  -14.4991 C   0  0  0  0  0  0  0  0  0  0  0  0
   21.9295  -19.4705  -13.1863 C   0  0  2  0  0  0  0  0  0  0  0  0
   23.2573  -19.9711  -13.0310 N   0  0  0  0  0  0  0  0  0  0  0  0
   20.8841  -20.4865  -13.1332 C   0  0  0  0  0  0  0  0  0  0  0  0
   21.0339  -21.7325  -13.7123 O   0  0  0  0  0  0  0  0  0  0  0  0
   19.8071  -20.2356  -12.5457 O   0  0  0  0  0  0  0  0  0  0  0  0
  2 10  1  0
  2  1  1  6
  3  2  1  0
  4  9  2  0
  4  3  1  0
  5  4  1  0
  6  7  1  0
  6  5  2  0
  7  8  2  0
  8  9  1  0
 10 11  2  0
 12 13  1  0
 12 10  1  0
 13 14  1  1
 14 15  1  0
 16 15  1  0
 17 16  1  0
 18 17  1  0
 19 13  1  0
 20 19  2  0
 22 21  1  6
 22 23  1  0
 23 19  1  0
 24 22  1  0
 24 25  1  0
 26 24  2  0
M  END
$$$$
