FKA.pdb
     RDKit          3D

 26 26  0  0  1  0  0  0  0  0999 V2000
   19.2561  -23.4475  -12.2945 N   0  0  0  0  0  0  0  0  0  0  0  0
   19.7438  -23.7864  -10.9968 C   0  0  1  0  0  0  0  0  0  0  0  0
   20.3499  -22.5762  -10.3559 C   0  0  0  0  0  0  0  0  0  0  0  0
   20.5124  -21.5034  -11.3532 C   0  0  0  0  0  0  0  0  0  0  0  0
   19.6391  -20.4577  -11.4124 C   0  0  0  0  0  0  0  0  0  0  0  0
   19.7952  -19.4401  -12.3602 C   0  0  0  0  0  0  0  0  0  0  0  0
   20.8609  -19.5241  -13.2364 C   0  0  0  0  0  0  0  0  0  0  0  0
   21.7438  -20.5836  -13.1747 C   0  0  0  0  0  0  0  0  0  0  0  0
   21.5587  -21.5625  -12.2321 C   0  0  0  0  0  0  0  0  0  0  0  0
   18.6745  -24.2901  -10.0900 C   0  0  0  0  0  0  0  0  0  0  0  0
   17.5754  -23.7032  -10.0766 O   0  0  0  0  0  0  0  0  0  0  0  0
   18.8434  -25.4024   -9.2419 N   0  0  0  0  0  0  0  0  0  0  0  0
   17.7267  -26.0080   -8.5977 C   0  0  1  0  0  0  0  0  0  0  0  0
   18.0152  -27.4801   -8.4331 C   0  0  0  0  0  0  0  0  0  0  0  0
   17.8997  -28.1994   -9.7403 C   0  0  0  0  0  0  0  0  0  0  0  0
   19.2117  -28.4027  -10.4530 C   0  0  0  0  0  0  0  0  0  0  0  0
   18.9752  -29.1684  -11.7526 C   0  0  0  0  0  0  0  0  0  0  0  0
   20.2171  -29.3022  -12.4792 N   0  0  0  0  0  0  0  0  0  0  0  0
   17.4517  -25.4347   -7.2541 C   0  0  0  0  0  0  0  0  0  0  0  0
   18.3753  -25.1409   -6.4664 O   0  0  0  0  0  0  0  0  0  0  0  0
   14.5760  -23.7640   -5.6827 C   0  0  0  0  0  0  0  0  0  0  0  0
   15.8514  -24.5885   -5.5664 C   0  0  2  0  0  0  0  0  0  0  0  0
   16.1266  -25.2031   -6.8251 N   0  0  0  0  0  0  0  0  0  0  0  0
   15.7388  -25.5159   -4.4459 C   0  0  0  0  0  0  0  0  0  0  0  0
   15.7515  -25.0914   -3.1307 O   0  0  0  0  0  0  0  0  0  0  0  0
   15.6259  -26.7431   -4.6679 O   0  0  0  0  0  0  0  0  0  0  0  0
  2 10  1  0
  2  1  1  6
  3  2  1  0
  4  9  2  0
  4  3  1  0
  5  4  1  0
  6  7  1  0
  6  5  2  0
  7  8  2  0
  8  9  1  0
 10 11  2  0
 12 13  1  0
 12 10  1  0
 13 14  1  1
 14 15  1  0
 16 15  1  0
 17 16  1  0
 18 17  1  0
 19 13  1  0
 20 19  2  0
 22 21  1  6
 22 23  1  0
 23 19  1  0
 24 22  1  0
 24 25  1  0
 26 24  2  0
M  END
$$$$
