FKA.pdb
     RDKit          3D

 26 26  0  0  1  0  0  0  0  0999 V2000
   17.7403   -8.3802  -12.1314 N   0  0  0  0  0  0  0  0  0  0  0  0
   18.6673   -7.6592  -12.9424 C   0  0  1  0  0  0  0  0  0  0  0  0
   20.0202   -7.6821  -12.3005 C   0  0  0  0  0  0  0  0  0  0  0  0
   20.9833   -6.9288  -13.1233 C   0  0  0  0  0  0  0  0  0  0  0  0
   21.8335   -7.5684  -13.9764 C   0  0  0  0  0  0  0  0  0  0  0  0
   22.7472   -6.8513  -14.7566 C   0  0  0  0  0  0  0  0  0  0  0  0
   22.7646   -5.4742  -14.6388 C   0  0  0  0  0  0  0  0  0  0  0  0
   21.9030   -4.8288  -13.7745 C   0  0  0  0  0  0  0  0  0  0  0  0
   21.0209   -5.5652  -13.0256 C   0  0  0  0  0  0  0  0  0  0  0  0
   18.8067   -8.2318  -14.3106 C   0  0  0  0  0  0  0  0  0  0  0  0
   18.9716   -9.4611  -14.4311 O   0  0  0  0  0  0  0  0  0  0  0  0
   18.7613   -7.4502  -15.4820 N   0  0  0  0  0  0  0  0  0  0  0  0
   18.8145   -8.0571  -16.7695 C   0  0  1  0  0  0  0  0  0  0  0  0
   17.5300   -7.7411  -17.4958 C   0  0  0  0  0  0  0  0  0  0  0  0
   16.9767   -8.9606  -18.1637 C   0  0  0  0  0  0  0  0  0  0  0  0
   15.6940   -8.7247  -18.9187 C   0  0  0  0  0  0  0  0  0  0  0  0
   15.2166  -10.0355  -19.5392 C   0  0  0  0  0  0  0  0  0  0  0  0
   13.9511   -9.8331  -20.2068 N   0  0  0  0  0  0  0  0  0  0  0  0
   19.9488   -7.5662  -17.5951 C   0  0  0  0  0  0  0  0  0  0  0  0
   20.1547   -6.3462  -17.7652 O   0  0  0  0  0  0  0  0  0  0  0  0
   22.7512   -9.2053  -19.4707 C   0  0  0  0  0  0  0  0  0  0  0  0
   21.8945   -8.0157  -19.0572 C   0  0  2  0  0  0  0  0  0  0  0  0
   20.8349   -8.4728  -18.2169 N   0  0  0  0  0  0  0  0  0  0  0  0
   21.4610   -7.2843  -20.2427 C   0  0  0  0  0  0  0  0  0  0  0  0
   22.1228   -6.1610  -20.7014 O   0  0  0  0  0  0  0  0  0  0  0  0
   20.4554   -7.6760  -20.8777 O   0  0  0  0  0  0  0  0  0  0  0  0
  2 10  1  0
  2  1  1  1
  3  2  1  0
  4  9  2  0
  4  3  1  0
  5  4  1  0
  6  7  1  0
  6  5  2  0
  7  8  2  0
  8  9  1  0
 10 11  2  0
 12 13  1  0
 12 10  1  0
 13 14  1  6
 14 15  1  0
 16 15  1  0
 17 16  1  0
 18 17  1  0
 19 13  1  0
 20 19  2  0
 22 21  1  6
 22 23  1  0
 23 19  1  0
 24 22  1  0
 24 25  1  0
 26 24  2  0
M  END
$$$$
