FKA.pdb
     RDKit          3D

 26 26  0  0  1  0  0  0  0  0999 V2000
   27.6859  -21.2711   -9.4263 N   0  0  0  0  0  0  0  0  0  0  0  0
   26.5168  -20.5554   -9.0291 C   0  0  1  0  0  0  0  0  0  0  0  0
   26.9137  -19.3187   -8.2838 C   0  0  0  0  0  0  0  0  0  0  0  0
   27.5700  -19.6813   -7.0150 C   0  0  0  0  0  0  0  0  0  0  0  0
   28.7008  -19.0429   -6.5986 C   0  0  0  0  0  0  0  0  0  0  0  0
   29.3223  -19.3888   -5.3936 C   0  0  0  0  0  0  0  0  0  0  0  0
   28.7577  -20.3973   -4.6355 C   0  0  0  0  0  0  0  0  0  0  0  0
   27.6129  -21.0422   -5.0590 C   0  0  0  0  0  0  0  0  0  0  0  0
   27.0316  -20.6759   -6.2460 C   0  0  0  0  0  0  0  0  0  0  0  0
   25.6747  -20.1360  -10.1843 C   0  0  0  0  0  0  0  0  0  0  0  0
   25.6446  -18.9300  -10.4964 O   0  0  0  0  0  0  0  0  0  0  0  0
   24.9064  -21.0382  -10.9463 N   0  0  0  0  0  0  0  0  0  0  0  0
   24.1031  -20.5817  -12.0304 C   0  0  1  0  0  0  0  0  0  0  0  0
   24.7029  -21.0982  -13.3152 C   0  0  0  0  0  0  0  0  0  0  0  0
   24.9542  -22.5714  -13.2365 C   0  0  0  0  0  0  0  0  0  0  0  0
   25.7265  -23.1307  -14.4033 C   0  0  0  0  0  0  0  0  0  0  0  0
   25.3940  -24.6110  -14.5750 C   0  0  0  0  0  0  0  0  0  0  0  0
   26.1551  -25.1634  -15.6721 N   0  0  0  0  0  0  0  0  0  0  0  0
   22.6968  -21.0561  -11.9495 C   0  0  0  0  0  0  0  0  0  0  0  0
   22.4056  -22.1553  -11.4328 O   0  0  0  0  0  0  0  0  0  0  0  0
   19.3719  -19.6135  -12.9133 C   0  0  0  0  0  0  0  0  0  0  0  0
   20.2824  -20.7045  -12.3649 C   0  0  2  0  0  0  0  0  0  0  0  0
   21.6393  -20.2713  -12.4589 N   0  0  0  0  0  0  0  0  0  0  0  0
   19.9973  -21.9682  -13.0356 C   0  0  0  0  0  0  0  0  0  0  0  0
   19.0627  -22.8659  -12.5550 O   0  0  0  0  0  0  0  0  0  0  0  0
   20.6132  -22.2641  -14.0850 O   0  0  0  0  0  0  0  0  0  0  0  0
  2 10  1  0
  2  1  1  6
  3  2  1  0
  4  9  2  0
  4  3  1  0
  5  4  1  0
  6  7  1  0
  6  5  2  0
  7  8  2  0
  8  9  1  0
 10 11  2  0
 12 13  1  0
 12 10  1  0
 13 14  1  6
 14 15  1  0
 16 15  1  0
 17 16  1  0
 18 17  1  0
 19 13  1  0
 20 19  2  0
 22 21  1  6
 22 23  1  0
 23 19  1  0
 24 22  1  0
 24 25  1  0
 26 24  2  0
M  END
$$$$
