FKA.pdb
     RDKit          3D

 26 26  0  0  1  0  0  0  0  0999 V2000
   28.1134  -20.1689  -14.7015 N   0  0  0  0  0  0  0  0  0  0  0  0
   27.0883  -20.5309  -13.7769 C   0  0  1  0  0  0  0  0  0  0  0  0
   27.3201  -19.8344  -12.4716 C   0  0  0  0  0  0  0  0  0  0  0  0
   28.4691  -20.4376  -11.7733 C   0  0  0  0  0  0  0  0  0  0  0  0
   28.2896  -21.2582  -10.6990 C   0  0  0  0  0  0  0  0  0  0  0  0
   29.3820  -21.8299  -10.0373 C   0  0  0  0  0  0  0  0  0  0  0  0
   30.6505  -21.5396  -10.5034 C   0  0  0  0  0  0  0  0  0  0  0  0
   30.8299  -20.7087  -11.5911 C   0  0  0  0  0  0  0  0  0  0  0  0
   29.7350  -20.1666  -12.2143 C   0  0  0  0  0  0  0  0  0  0  0  0
   25.7250  -20.1610  -14.2504 C   0  0  0  0  0  0  0  0  0  0  0  0
   25.5480  -19.0290  -14.7402 O   0  0  0  0  0  0  0  0  0  0  0  0
   24.6193  -21.0308  -14.1723 N   0  0  0  0  0  0  0  0  0  0  0  0
   23.3557  -20.6588  -14.7144 C   0  0  1  0  0  0  0  0  0  0  0  0
   23.0085  -21.6294  -15.8165 C   0  0  0  0  0  0  0  0  0  0  0  0
   21.7519  -21.2188  -16.5178 C   0  0  0  0  0  0  0  0  0  0  0  0
   21.3192  -22.1585  -17.6135 C   0  0  0  0  0  0  0  0  0  0  0  0
   20.0697  -21.6078  -18.2966 C   0  0  0  0  0  0  0  0  0  0  0  0
   19.5812  -22.5568  -19.2706 N   0  0  0  0  0  0  0  0  0  0  0  0
   22.2623  -20.6871  -13.7079 C   0  0  0  0  0  0  0  0  0  0  0  0
   22.1198  -21.6482  -12.9232 O   0  0  0  0  0  0  0  0  0  0  0  0
   19.4648  -18.3646  -12.7872 C   0  0  0  0  0  0  0  0  0  0  0  0
   20.2223  -19.6847  -12.7286 C   0  0  2  0  0  0  0  0  0  0  0  0
   21.3445  -19.6187  -13.6084 N   0  0  0  0  0  0  0  0  0  0  0  0
   19.3071  -20.7906  -12.9886 C   0  0  0  0  0  0  0  0  0  0  0  0
   18.7968  -21.0476  -14.2471 O   0  0  0  0  0  0  0  0  0  0  0  0
   18.9624  -21.5422  -12.0483 O   0  0  0  0  0  0  0  0  0  0  0  0
  2 10  1  0
  2  1  1  6
  3  2  1  0
  4  9  2  0
  4  3  1  0
  5  4  1  0
  6  7  1  0
  6  5  2  0
  7  8  2  0
  8  9  1  0
 10 11  2  0
 12 13  1  0
 12 10  1  0
 13 14  1  6
 14 15  1  0
 16 15  1  0
 17 16  1  0
 18 17  1  0
 19 13  1  0
 20 19  2  0
 22 21  1  6
 22 23  1  0
 23 19  1  0
 24 22  1  0
 24 25  1  0
 26 24  2  0
M  END
$$$$
