TMN.pdb
     RDKit          3D

 24 23  0  0  1  0  0  0  0  0999 V2000
    7.3981  -17.0405   18.5368 C   0  0  0  0  0  0  0  0  0  0  0  0
    7.7926  -16.8226   19.9755 C   0  0  1  0  0  0  0  0  0  0  0  0
    8.6469  -17.7974   20.4181 O   0  0  0  0  0  0  0  0  0  0  0  0
    8.3524  -15.4433   20.2113 C   0  0  2  0  0  0  0  0  0  0  0  0
    9.6068  -15.2869   19.4854 N   0  0  0  0  0  0  0  0  0  0  0  0
    8.6807  -15.1959   21.6392 C   0  0  0  0  0  0  0  0  0  0  0  0
    9.8087  -15.4348   22.1485 O   0  0  0  0  0  0  0  0  0  0  0  0
    7.7599  -10.7831   26.9815 C   0  0  0  0  0  0  0  0  0  0  0  0
    6.6052  -12.1085   26.9667 S   0  0  0  0  0  0  0  0  0  0  0  0
    7.0277  -13.6388   26.2193 C   0  0  0  0  0  0  0  0  0  0  0  0
    6.9250  -13.8655   24.7877 C   0  0  0  0  0  0  0  0  0  0  0  0
    7.8800  -14.6088   23.9640 C   0  0  2  0  0  0  0  0  0  0  0  0
    7.7049  -14.6549   22.5456 N   0  0  0  0  0  0  0  0  0  0  0  0
    8.2531  -15.9431   24.5243 C   0  0  0  0  0  0  0  0  0  0  0  0
    7.8713  -17.0125   23.9518 O   0  0  0  0  0  0  0  0  0  0  0  0
   12.1335  -19.5567   24.3637 N   0  0  0  0  0  0  0  0  0  0  0  0
   10.9398  -18.7722   24.2679 C   0  0  0  0  0  0  0  0  0  0  0  0
   10.0076  -19.2452   23.6028 O   0  0  0  0  0  0  0  0  0  0  0  0
   10.9093  -17.4729   24.9609 C   0  0  0  0  0  0  0  0  0  0  0  0
    9.8035  -17.3317   25.9820 C   0  0  2  0  0  0  0  0  0  0  0  0
    9.0299  -16.1077   25.6889 N   0  0  0  0  0  0  0  0  0  0  0  0
   10.3981  -17.0959   27.3054 C   0  0  0  0  0  0  0  0  0  0  0  0
   10.7196  -18.1541   28.1226 O   0  0  0  0  0  0  0  0  0  0  0  0
   10.6219  -15.9442   27.7129 O   0  0  0  0  0  0  0  0  0  0  0  0
  2  1  1  6
  2  3  1  0
  4  2  1  0
  4  5  1  6
  6  4  1  0
  7  6  2  0
  8  9  1  0
  9 10  1  0
 11 10  1  0
 12 11  1  1
 12 13  1  0
 13  6  1  0
 14 12  1  0
 14 15  2  0
 16 17  1  0
 17 19  1  0
 18 17  2  0
 20 19  1  6
 20 21  1  0
 21 14  1  0
 22 20  1  0
 23 22  1  0
 24 22  2  0
M  END
$$$$
