TMN.pdb
     RDKit          3D

 24 23  0  0  1  0  0  0  0  0999 V2000
    7.5424  -17.8829   18.9104 C   0  0  0  0  0  0  0  0  0  0  0  0
    7.3837  -16.7899   19.9366 C   0  0  1  0  0  0  0  0  0  0  0  0
    6.4350  -17.1088   20.8715 O   0  0  0  0  0  0  0  0  0  0  0  0
    8.6946  -16.4156   20.5794 C   0  0  2  0  0  0  0  0  0  0  0  0
    9.2026  -17.5382   21.3585 N   0  0  0  0  0  0  0  0  0  0  0  0
    8.5600  -15.2888   21.5385 C   0  0  0  0  0  0  0  0  0  0  0  0
    8.2102  -14.1248   21.2046 O   0  0  0  0  0  0  0  0  0  0  0  0
    6.7611  -11.5665   27.6117 C   0  0  0  0  0  0  0  0  0  0  0  0
    6.3986  -12.7641   26.3768 S   0  0  0  0  0  0  0  0  0  0  0  0
    7.0126  -12.5632   24.7454 C   0  0  0  0  0  0  0  0  0  0  0  0
    7.3451  -13.6896   23.8899 C   0  0  0  0  0  0  0  0  0  0  0  0
    8.5899  -14.4592   23.9263 C   0  0  2  0  0  0  0  0  0  0  0  0
    8.8277  -15.4665   22.9397 N   0  0  0  0  0  0  0  0  0  0  0  0
    8.9806  -14.9146   25.2950 C   0  0  0  0  0  0  0  0  0  0  0  0
    8.7072  -14.2039   26.3135 O   0  0  0  0  0  0  0  0  0  0  0  0
    6.3782  -19.1331   27.4103 N   0  0  0  0  0  0  0  0  0  0  0  0
    7.7715  -19.0006   27.1096 C   0  0  0  0  0  0  0  0  0  0  0  0
    8.5472  -19.7778   27.6834 O   0  0  0  0  0  0  0  0  0  0  0  0
    8.1753  -17.9596   26.1490 C   0  0  0  0  0  0  0  0  0  0  0  0
    9.2827  -17.0524   26.6349 C   0  0  2  0  0  0  0  0  0  0  0  0
    9.6577  -16.1246   25.5480 N   0  0  0  0  0  0  0  0  0  0  0  0
   10.4892  -17.8552   26.8806 C   0  0  0  0  0  0  0  0  0  0  0  0
   11.5657  -17.7725   26.0291 O   0  0  0  0  0  0  0  0  0  0  0  0
   10.5633  -18.6210   27.8556 O   0  0  0  0  0  0  0  0  0  0  0  0
  2  1  1  6
  2  3  1  0
  4  2  1  0
  4  5  1  1
  6  4  1  0
  7  6  2  0
  8  9  1  0
  9 10  1  0
 11 10  1  0
 12 11  1  1
 12 13  1  0
 13  6  1  0
 14 12  1  0
 14 15  2  0
 16 17  1  0
 17 19  1  0
 18 17  2  0
 20 19  1  6
 20 21  1  0
 21 14  1  0
 22 20  1  0
 23 22  1  0
 24 22  2  0
M  END
$$$$
