TMN.pdb
     RDKit          3D

 24 23  0  0  1  0  0  0  0  0999 V2000
    8.2949  -13.0519   20.0445 C   0  0  0  0  0  0  0  0  0  0  0  0
    7.4641  -14.2889   20.2742 C   0  0  1  0  0  0  0  0  0  0  0  0
    6.9501  -14.7768   19.1022 O   0  0  0  0  0  0  0  0  0  0  0  0
    8.2174  -15.3493   21.0355 C   0  0  2  0  0  0  0  0  0  0  0  0
    7.3783  -16.5297   21.2022 N   0  0  0  0  0  0  0  0  0  0  0  0
    8.5809  -14.9172   22.4098 C   0  0  0  0  0  0  0  0  0  0  0  0
    9.6627  -14.3374   22.6969 O   0  0  0  0  0  0  0  0  0  0  0  0
    6.2690  -10.6132   26.0404 C   0  0  0  0  0  0  0  0  0  0  0  0
    6.7513  -11.7333   27.3066 S   0  0  0  0  0  0  0  0  0  0  0  0
    7.0391  -13.4223   26.9282 C   0  0  0  0  0  0  0  0  0  0  0  0
    6.9199  -13.9540   25.5812 C   0  0  0  0  0  0  0  0  0  0  0  0
    7.9582  -14.6808   24.8484 C   0  0  2  0  0  0  0  0  0  0  0  0
    7.6960  -15.1410   23.5204 N   0  0  0  0  0  0  0  0  0  0  0  0
    8.6688  -15.7102   25.6662 C   0  0  0  0  0  0  0  0  0  0  0  0
    8.9446  -15.4859   26.8872 O   0  0  0  0  0  0  0  0  0  0  0  0
    7.8890  -19.4743   28.2410 N   0  0  0  0  0  0  0  0  0  0  0  0
    7.6283  -19.2474   26.8518 C   0  0  0  0  0  0  0  0  0  0  0  0
    6.4483  -19.0588   26.5244 O   0  0  0  0  0  0  0  0  0  0  0  0
    8.7719  -19.2551   25.9237 C   0  0  0  0  0  0  0  0  0  0  0  0
    9.6526  -18.0288   26.0023 C   0  0  2  0  0  0  0  0  0  0  0  0
    9.0712  -16.9628   25.1607 N   0  0  0  0  0  0  0  0  0  0  0  0
   10.9529  -18.3304   25.3868 C   0  0  0  0  0  0  0  0  0  0  0  0
   12.0672  -18.5179   26.1703 O   0  0  0  0  0  0  0  0  0  0  0  0
   11.0740  -18.4219   24.1541 O   0  0  0  0  0  0  0  0  0  0  0  0
  2  1  1  6
  2  3  1  0
  4  2  1  0
  4  5  1  1
  6  4  1  0
  7  6  2  0
  8  9  1  0
  9 10  1  0
 11 10  1  0
 12 11  1  1
 12 13  1  0
 13  6  1  0
 14 12  1  0
 14 15  2  0
 16 17  1  0
 17 19  1  0
 18 17  2  0
 20 19  1  6
 20 21  1  0
 21 14  1  0
 22 20  1  0
 23 22  1  0
 24 22  2  0
M  END
$$$$
