TMN.pdb
     RDKit          3D

 24 23  0  0  1  0  0  0  0  0999 V2000
    6.7174  -17.1467   19.1975 C   0  0  0  0  0  0  0  0  0  0  0  0
    7.4020  -16.8381   20.5049 C   0  0  1  0  0  0  0  0  0  0  0  0
    8.5570  -17.5592   20.6527 O   0  0  0  0  0  0  0  0  0  0  0  0
    7.6404  -15.3614   20.6898 C   0  0  2  0  0  0  0  0  0  0  0  0
    8.5226  -14.8668   19.6401 N   0  0  0  0  0  0  0  0  0  0  0  0
    8.3251  -15.0488   21.9709 C   0  0  0  0  0  0  0  0  0  0  0  0
    9.5670  -14.8575   22.0711 O   0  0  0  0  0  0  0  0  0  0  0  0
    6.9200  -11.9641   28.1908 C   0  0  0  0  0  0  0  0  0  0  0  0
    5.9472  -12.0690   26.7303 S   0  0  0  0  0  0  0  0  0  0  0  0
    6.4426  -13.1175   25.4134 C   0  0  0  0  0  0  0  0  0  0  0  0
    7.4667  -14.1367   25.5671 C   0  0  0  0  0  0  0  0  0  0  0  0
    8.2080  -14.7817   24.4819 C   0  0  2  0  0  0  0  0  0  0  0  0
    7.5909  -14.9433   23.2023 N   0  0  0  0  0  0  0  0  0  0  0  0
    8.9523  -16.0077   24.9020 C   0  0  0  0  0  0  0  0  0  0  0  0
    8.4149  -17.1555   24.7979 O   0  0  0  0  0  0  0  0  0  0  0  0
   13.5485  -15.5968   23.8805 N   0  0  0  0  0  0  0  0  0  0  0  0
   12.8335  -16.7904   24.2176 C   0  0  0  0  0  0  0  0  0  0  0  0
   12.5741  -17.5713   23.2913 O   0  0  0  0  0  0  0  0  0  0  0  0
   12.4628  -16.9991   25.6277 C   0  0  0  0  0  0  0  0  0  0  0  0
   10.9826  -17.1933   25.8658 C   0  0  2  0  0  0  0  0  0  0  0  0
   10.2604  -15.9817   25.4262 N   0  0  0  0  0  0  0  0  0  0  0  0
   10.7352  -17.2776   27.3122 C   0  0  0  0  0  0  0  0  0  0  0  0
   11.2938  -18.2902   28.0561 O   0  0  0  0  0  0  0  0  0  0  0  0
   10.0212  -16.4425   27.8913 O   0  0  0  0  0  0  0  0  0  0  0  0
  2  1  1  6
  2  3  1  0
  4  2  1  0
  4  5  1  6
  6  4  1  0
  7  6  2  0
  8  9  1  0
  9 10  1  0
 11 10  1  0
 12 11  1  1
 12 13  1  0
 13  6  1  0
 14 12  1  0
 14 15  2  0
 16 17  1  0
 17 19  1  0
 18 17  2  0
 20 19  1  1
 20 21  1  0
 21 14  1  0
 22 20  1  0
 23 22  1  0
 24 22  2  0
M  END
$$$$
