TMN.pdb
     RDKit          3D

 24 23  0  0  1  0  0  0  0  0999 V2000
    7.3383  -16.3713   19.5829 C   0  0  0  0  0  0  0  0  0  0  0  0
    8.0017  -15.1489   19.0011 C   0  0  1  0  0  0  0  0  0  0  0  0
    7.7715  -15.0416   17.6552 O   0  0  0  0  0  0  0  0  0  0  0  0
    7.6184  -13.8884   19.7332 C   0  0  2  0  0  0  0  0  0  0  0  0
    8.2095  -12.7319   19.0713 N   0  0  0  0  0  0  0  0  0  0  0  0
    8.1307  -13.8588   21.1277 C   0  0  0  0  0  0  0  0  0  0  0  0
    9.3461  -13.7024   21.4226 O   0  0  0  0  0  0  0  0  0  0  0  0
    6.8927  -12.2525   28.8773 C   0  0  0  0  0  0  0  0  0  0  0  0
    6.4898  -12.1838   27.1675 S   0  0  0  0  0  0  0  0  0  0  0  0
    7.0848  -13.4170   26.0703 C   0  0  0  0  0  0  0  0  0  0  0  0
    6.8602  -13.3628   24.6358 C   0  0  0  0  0  0  0  0  0  0  0  0
    7.6839  -14.0073   23.6114 C   0  0  2  0  0  0  0  0  0  0  0  0
    7.2457  -14.0105   22.2504 N   0  0  0  0  0  0  0  0  0  0  0  0
    8.2353  -15.3338   24.0237 C   0  0  0  0  0  0  0  0  0  0  0  0
    7.5007  -16.3716   24.0044 O   0  0  0  0  0  0  0  0  0  0  0  0
   12.7310  -15.7461   22.7394 N   0  0  0  0  0  0  0  0  0  0  0  0
   11.8716  -16.8096   23.1634 C   0  0  0  0  0  0  0  0  0  0  0  0
   11.4478  -17.5743   22.2856 O   0  0  0  0  0  0  0  0  0  0  0  0
   11.5583  -16.9144   24.5988 C   0  0  0  0  0  0  0  0  0  0  0  0
   10.0858  -16.8215   24.9285 C   0  0  2  0  0  0  0  0  0  0  0  0
    9.5653  -15.5245   24.4495 N   0  0  0  0  0  0  0  0  0  0  0  0
    9.9217  -16.7794   26.3886 C   0  0  0  0  0  0  0  0  0  0  0  0
    9.4834  -15.6322   27.0070 O   0  0  0  0  0  0  0  0  0  0  0  0
   10.1733  -17.7717   27.0919 O   0  0  0  0  0  0  0  0  0  0  0  0
  2  1  1  1
  2  3  1  0
  4  2  1  0
  4  5  1  6
  6  4  1  0
  7  6  2  0
  8  9  1  0
  9 10  1  0
 11 10  1  0
 12 11  1  1
 12 13  1  0
 13  6  1  0
 14 12  1  0
 14 15  2  0
 16 17  1  0
 17 19  1  0
 18 17  2  0
 20 19  1  1
 20 21  1  0
 21 14  1  0
 22 20  1  0
 23 22  1  0
 24 22  2  0
M  END
$$$$
