TMN.pdb
     RDKit          3D

 24 23  0  0  1  0  0  0  0  0999 V2000
    6.8270  -15.8797   19.4087 C   0  0  0  0  0  0  0  0  0  0  0  0
    7.6145  -14.7503   18.7945 C   0  0  1  0  0  0  0  0  0  0  0  0
    7.2640  -14.5429   17.4868 O   0  0  0  0  0  0  0  0  0  0  0  0
    7.5202  -13.4823   19.6036 C   0  0  2  0  0  0  0  0  0  0  0  0
    8.2258  -12.4051   18.9205 N   0  0  0  0  0  0  0  0  0  0  0  0
    8.1664  -13.6047   20.9359 C   0  0  0  0  0  0  0  0  0  0  0  0
    9.4124  -13.5432   21.1167 O   0  0  0  0  0  0  0  0  0  0  0  0
    5.7295  -11.5547   27.4599 C   0  0  0  0  0  0  0  0  0  0  0  0
    7.3341  -12.2165   27.1805 S   0  0  0  0  0  0  0  0  0  0  0  0
    7.5754  -13.4661   25.9726 C   0  0  0  0  0  0  0  0  0  0  0  0
    7.2665  -13.2661   24.5670 C   0  0  0  0  0  0  0  0  0  0  0  0
    7.9511  -13.8977   23.4376 C   0  0  2  0  0  0  0  0  0  0  0  0
    7.3869  -13.8053   22.1271 N   0  0  0  0  0  0  0  0  0  0  0  0
    8.4617  -15.2714   23.7303 C   0  0  0  0  0  0  0  0  0  0  0  0
    7.6709  -16.2673   23.7282 O   0  0  0  0  0  0  0  0  0  0  0  0
   11.6939  -19.4503   24.2304 N   0  0  0  0  0  0  0  0  0  0  0  0
   12.4358  -18.2407   24.4198 C   0  0  0  0  0  0  0  0  0  0  0  0
   13.5777  -18.3487   24.8883 O   0  0  0  0  0  0  0  0  0  0  0  0
   11.7920  -16.9696   24.0469 C   0  0  0  0  0  0  0  0  0  0  0  0
   10.3085  -16.9097   24.3319 C   0  0  2  0  0  0  0  0  0  0  0  0
    9.8119  -15.5537   24.0199 N   0  0  0  0  0  0  0  0  0  0  0  0
   10.0895  -17.0702   25.7765 C   0  0  0  0  0  0  0  0  0  0  0  0
   10.4318  -16.0636   26.6485 O   0  0  0  0  0  0  0  0  0  0  0  0
    9.5939  -18.1108   26.2391 O   0  0  0  0  0  0  0  0  0  0  0  0
  2  1  1  1
  2  3  1  0
  4  2  1  0
  4  5  1  6
  6  4  1  0
  7  6  2  0
  8  9  1  0
  9 10  1  0
 11 10  1  0
 12 11  1  1
 12 13  1  0
 13  6  1  0
 14 12  1  0
 14 15  2  0
 16 17  1  0
 17 19  1  0
 18 17  2  0
 20 19  1  1
 20 21  1  0
 21 14  1  0
 22 20  1  0
 23 22  1  0
 24 22  2  0
M  END
$$$$
