TMN.pdb
     RDKit          3D

 24 23  0  0  1  0  0  0  0  0999 V2000
    7.0628  -16.0377   19.1476 C   0  0  0  0  0  0  0  0  0  0  0  0
    7.8092  -14.8590   18.5762 C   0  0  1  0  0  0  0  0  0  0  0  0
    7.5375  -14.6863   17.2449 O   0  0  0  0  0  0  0  0  0  0  0  0
    7.5684  -13.5955   19.3617 C   0  0  2  0  0  0  0  0  0  0  0  0
    8.2263  -12.4718   18.7064 N   0  0  0  0  0  0  0  0  0  0  0  0
    8.1428  -13.6550   20.7307 C   0  0  0  0  0  0  0  0  0  0  0  0
    9.3803  -13.6503   20.9702 O   0  0  0  0  0  0  0  0  0  0  0  0
    7.1144  -12.3119   28.6198 C   0  0  0  0  0  0  0  0  0  0  0  0
    6.5274  -12.3599   26.9633 S   0  0  0  0  0  0  0  0  0  0  0  0
    7.4437  -13.2019   25.7263 C   0  0  0  0  0  0  0  0  0  0  0  0
    7.0806  -13.1620   24.3200 C   0  0  0  0  0  0  0  0  0  0  0  0
    7.7936  -13.8279   23.2284 C   0  0  2  0  0  0  0  0  0  0  0  0
    7.2975  -13.7226   21.8916 N   0  0  0  0  0  0  0  0  0  0  0  0
    8.2347  -15.2185   23.5526 C   0  0  0  0  0  0  0  0  0  0  0  0
    7.6193  -16.2198   23.0670 O   0  0  0  0  0  0  0  0  0  0  0  0
    9.6023  -18.3954   22.1945 N   0  0  0  0  0  0  0  0  0  0  0  0
   10.8808  -17.7643   22.3234 C   0  0  0  0  0  0  0  0  0  0  0  0
   11.7104  -17.9864   21.4303 O   0  0  0  0  0  0  0  0  0  0  0  0
   11.1125  -16.9057   23.4974 C   0  0  0  0  0  0  0  0  0  0  0  0
    9.9566  -16.8465   24.4700 C   0  0  2  0  0  0  0  0  0  0  0  0
    9.3286  -15.5115   24.3918 N   0  0  0  0  0  0  0  0  0  0  0  0
   10.4767  -16.9405   25.8415 C   0  0  0  0  0  0  0  0  0  0  0  0
   10.7037  -15.8027   26.5795 O   0  0  0  0  0  0  0  0  0  0  0  0
   10.7213  -18.0416   26.3614 O   0  0  0  0  0  0  0  0  0  0  0  0
  2  1  1  1
  2  3  1  0
  4  2  1  0
  4  5  1  6
  6  4  1  0
  7  6  2  0
  8  9  1  0
  9 10  1  0
 11 10  1  0
 12 11  1  1
 12 13  1  0
 13  6  1  0
 14 12  1  0
 14 15  2  0
 16 17  1  0
 17 19  1  0
 18 17  2  0
 20 19  1  6
 20 21  1  0
 21 14  1  0
 22 20  1  0
 23 22  1  0
 24 22  2  0
M  END
$$$$
