TMN.pdb
     RDKit          3D

 24 23  0  0  1  0  0  0  0  0999 V2000
    7.3165  -18.5523   21.5572 C   0  0  0  0  0  0  0  0  0  0  0  0
    8.0927  -18.0644   20.3603 C   0  0  1  0  0  0  0  0  0  0  0  0
    7.7918  -18.7851   19.2352 O   0  0  0  0  0  0  0  0  0  0  0  0
    7.9230  -16.5839   20.1347 C   0  0  2  0  0  0  0  0  0  0  0  0
    8.6511  -16.1784   18.9387 N   0  0  0  0  0  0  0  0  0  0  0  0
    8.4842  -15.7686   21.2428 C   0  0  0  0  0  0  0  0  0  0  0  0
    9.6387  -15.2629   21.2232 O   0  0  0  0  0  0  0  0  0  0  0  0
    7.6322  -12.3639   28.0964 C   0  0  0  0  0  0  0  0  0  0  0  0
    6.7108  -12.9406   26.7147 S   0  0  0  0  0  0  0  0  0  0  0  0
    7.3245  -12.7114   25.0870 C   0  0  0  0  0  0  0  0  0  0  0  0
    7.0986  -13.6743   24.0225 C   0  0  0  0  0  0  0  0  0  0  0  0
    8.1094  -14.5486   23.4249 C   0  0  2  0  0  0  0  0  0  0  0  0
    7.7222  -15.5021   22.4323 N   0  0  0  0  0  0  0  0  0  0  0  0
    9.0686  -15.1292   24.4130 C   0  0  0  0  0  0  0  0  0  0  0  0
    9.6582  -14.3810   25.2555 O   0  0  0  0  0  0  0  0  0  0  0  0
   12.9798  -15.5392   23.3067 N   0  0  0  0  0  0  0  0  0  0  0  0
   12.4928  -16.6091   24.1237 C   0  0  0  0  0  0  0  0  0  0  0  0
   12.8066  -17.7600   23.7892 O   0  0  0  0  0  0  0  0  0  0  0  0
   11.6623  -16.2649   25.2904 C   0  0  0  0  0  0  0  0  0  0  0  0
   10.3834  -17.0625   25.4081 C   0  0  2  0  0  0  0  0  0  0  0  0
    9.3787  -16.5024   24.4810 N   0  0  0  0  0  0  0  0  0  0  0  0
    9.8142  -16.8634   26.7486 C   0  0  0  0  0  0  0  0  0  0  0  0
   10.5164  -17.2467   27.8670 O   0  0  0  0  0  0  0  0  0  0  0  0
    8.6943  -16.3484   26.9006 O   0  0  0  0  0  0  0  0  0  0  0  0
  2  1  1  1
  2  3  1  0
  4  2  1  0
  4  5  1  6
  6  4  1  0
  7  6  2  0
  8  9  1  0
  9 10  1  0
 11 10  1  0
 12 11  1  1
 12 13  1  0
 13  6  1  0
 14 12  1  0
 14 15  2  0
 16 17  1  0
 17 19  1  0
 18 17  2  0
 20 19  1  1
 20 21  1  0
 21 14  1  0
 22 20  1  0
 23 22  1  0
 24 22  2  0
M  END
$$$$
