TMN.pdb
     RDKit          3D

 24 23  0  0  1  0  0  0  0  0999 V2000
    8.1826  -12.6537   19.1998 C   0  0  0  0  0  0  0  0  0  0  0  0
    7.5133  -14.0037   19.2472 C   0  0  1  0  0  0  0  0  0  0  0  0
    7.2577  -14.4852   17.9907 O   0  0  0  0  0  0  0  0  0  0  0  0
    8.2876  -14.9960   20.0763 C   0  0  2  0  0  0  0  0  0  0  0  0
    7.5518  -16.2516   20.1613 N   0  0  0  0  0  0  0  0  0  0  0  0
    8.4763  -14.5449   21.4794 C   0  0  0  0  0  0  0  0  0  0  0  0
    9.1834  -13.5538   21.8058 O   0  0  0  0  0  0  0  0  0  0  0  0
    7.0161  -11.7639   28.0328 C   0  0  0  0  0  0  0  0  0  0  0  0
    7.1723  -12.4002   26.4015 S   0  0  0  0  0  0  0  0  0  0  0  0
    6.5796  -14.0072   26.0204 C   0  0  0  0  0  0  0  0  0  0  0  0
    6.6792  -14.5832   24.6902 C   0  0  0  0  0  0  0  0  0  0  0  0
    7.9147  -14.7884   23.9321 C   0  0  2  0  0  0  0  0  0  0  0  0
    7.8460  -15.2310   22.5743 N   0  0  0  0  0  0  0  0  0  0  0  0
    8.9842  -15.4981   24.6976 C   0  0  0  0  0  0  0  0  0  0  0  0
    9.3021  -15.1148   25.8677 O   0  0  0  0  0  0  0  0  0  0  0  0
   13.2812  -17.6870   23.5760 N   0  0  0  0  0  0  0  0  0  0  0  0
   13.1842  -16.4238   24.2426 C   0  0  0  0  0  0  0  0  0  0  0  0
   14.1566  -15.6620   24.1485 O   0  0  0  0  0  0  0  0  0  0  0  0
   11.9466  -16.1269   24.9839 C   0  0  0  0  0  0  0  0  0  0  0  0
   10.8751  -17.1870   24.8674 C   0  0  2  0  0  0  0  0  0  0  0  0
    9.6942  -16.6072   24.1951 N   0  0  0  0  0  0  0  0  0  0  0  0
   10.4061  -17.5466   26.2132 C   0  0  0  0  0  0  0  0  0  0  0  0
   10.6776  -18.7890   26.7361 O   0  0  0  0  0  0  0  0  0  0  0  0
    9.7585  -16.7426   26.9037 O   0  0  0  0  0  0  0  0  0  0  0  0
  2  1  1  6
  2  3  1  0
  4  2  1  0
  4  5  1  1
  6  4  1  0
  7  6  2  0
  8  9  1  0
  9 10  1  0
 11 10  1  0
 12 11  1  1
 12 13  1  0
 13  6  1  0
 14 12  1  0
 14 15  2  0
 16 17  1  0
 17 19  1  0
 18 17  2  0
 20 19  1  1
 20 21  1  0
 21 14  1  0
 22 20  1  0
 23 22  1  0
 24 22  2  0
M  END
$$$$
