FCV.pdb
     RDKit          3D

 25 25  0  0  1  0  0  0  0  0999 V2000
    6.2868  -18.5110   22.8037 N   0  0  0  0  0  0  0  0  0  0  0  0
    6.8211  -17.1864   23.1745 C   0  0  1  0  0  0  0  0  0  0  0  0
    5.8003  -16.4864   24.0276 C   0  0  0  0  0  0  0  0  0  0  0  0
    6.2010  -15.0875   24.2575 C   0  0  0  0  0  0  0  0  0  0  0  0
    6.3176  -14.2410   23.1666 C   0  0  0  0  0  0  0  0  0  0  0  0
    6.6796  -12.9181   23.3252 C   0  0  0  0  0  0  0  0  0  0  0  0
    6.9176  -12.4804   24.6011 C   0  0  0  0  0  0  0  0  0  0  0  0
    6.8123  -13.2927   25.7156 C   0  0  0  0  0  0  0  0  0  0  0  0
    6.4454  -14.6246   25.5321 C   0  0  0  0  0  0  0  0  0  0  0  0
    8.1454  -17.3364   23.8180 C   0  0  0  0  0  0  0  0  0  0  0  0
    8.3826  -18.1712   24.7246 O   0  0  0  0  0  0  0  0  0  0  0  0
    9.2528  -16.5114   23.4248 N   0  0  0  0  0  0  0  0  0  0  0  0
   10.5911  -16.7477   23.8925 C   0  0  1  0  0  0  0  0  0  0  0  0
   11.5789  -16.3263   22.8214 C   0  0  0  0  0  0  0  0  0  0  0  0
   13.2628  -16.8204   23.2161 S   0  0  0  0  0  0  0  0  0  0  0  0
   10.8579  -16.0577   25.1801 C   0  0  0  0  0  0  0  0  0  0  0  0
   11.2579  -14.8436   25.1906 O   0  0  0  0  0  0  0  0  0  0  0  0
   10.2714  -14.8683   29.5785 C   0  0  0  0  0  0  0  0  0  0  0  0
    9.8776  -15.3351   28.2078 C   0  0  1  0  0  0  0  0  0  0  0  0
    9.6152  -14.1147   27.3357 C   0  0  0  0  0  0  0  0  0  0  0  0
   11.0434  -16.1487   27.6311 C   0  0  2  0  0  0  0  0  0  0  0  0
   10.6582  -16.7772   26.3905 N   0  0  0  0  0  0  0  0  0  0  0  0
   11.3506  -17.1905   28.6325 C   0  0  0  0  0  0  0  0  0  0  0  0
   11.9521  -16.8119   29.8171 O   0  0  0  0  0  0  0  0  0  0  0  0
   11.0977  -18.4100   28.4745 O   0  0  0  0  0  0  0  0  0  0  0  0
  2 10  1  0
  2  1  1  1
  3  2  1  0
  4  3  1  0
  5  4  2  0
  6  5  1  0
  7  8  1  0
  7  6  2  0
  8  9  2  0
  9  4  1  0
 10 11  2  0
 12 10  1  0
 12 13  1  0
 13 14  1  6
 14 15  1  0
 16 17  2  0
 16 13  1  0
 19 18  1  1
 19 20  1  0
 19 21  1  0
 21 22  1  6
 22 16  1  0
 23 24  1  0
 23 21  1  0
 25 23  2  0
M  END
$$$$
