FCV.pdb
     RDKit          3D

 25 25  0  0  1  0  0  0  0  0999 V2000
    7.2655  -16.2083   20.2692 N   0  0  0  0  0  0  0  0  0  0  0  0
    7.6675  -15.4623   21.4773 C   0  0  1  0  0  0  0  0  0  0  0  0
    6.4419  -14.8234   22.0686 C   0  0  0  0  0  0  0  0  0  0  0  0
    6.7764  -14.1594   23.3403 C   0  0  0  0  0  0  0  0  0  0  0  0
    7.4569  -12.9528   23.3020 C   0  0  0  0  0  0  0  0  0  0  0  0
    7.7865  -12.2822   24.4630 C   0  0  0  0  0  0  0  0  0  0  0  0
    7.4138  -12.8579   25.6486 C   0  0  0  0  0  0  0  0  0  0  0  0
    6.7341  -14.0598   25.7298 C   0  0  0  0  0  0  0  0  0  0  0  0
    6.4116  -14.7194   24.5453 C   0  0  0  0  0  0  0  0  0  0  0  0
    8.3906  -16.3574   22.4081 C   0  0  0  0  0  0  0  0  0  0  0  0
    7.9178  -17.4392   22.8339 O   0  0  0  0  0  0  0  0  0  0  0  0
    9.7040  -16.0217   22.8814 N   0  0  0  0  0  0  0  0  0  0  0  0
   10.4176  -16.8467   23.8172 C   0  0  1  0  0  0  0  0  0  0  0  0
   11.5671  -17.5342   23.1055 C   0  0  0  0  0  0  0  0  0  0  0  0
   12.5333  -18.5689   24.2152 S   0  0  0  0  0  0  0  0  0  0  0  0
   10.8911  -16.0704   24.9912 C   0  0  0  0  0  0  0  0  0  0  0  0
   11.6724  -15.0713   24.8314 O   0  0  0  0  0  0  0  0  0  0  0  0
    8.7128  -14.8266   27.7900 C   0  0  0  0  0  0  0  0  0  0  0  0
   10.1590  -14.4524   27.6485 C   0  0  1  0  0  0  0  0  0  0  0  0
   10.6127  -13.7718   28.9330 C   0  0  0  0  0  0  0  0  0  0  0  0
   10.9625  -15.7405   27.4276 C   0  0  2  0  0  0  0  0  0  0  0  0
   10.4561  -16.4645   26.2866 N   0  0  0  0  0  0  0  0  0  0  0  0
   10.7745  -16.5545   28.6462 C   0  0  0  0  0  0  0  0  0  0  0  0
   11.3831  -16.1433   29.8161 O   0  0  0  0  0  0  0  0  0  0  0  0
   10.0903  -17.6063   28.6870 O   0  0  0  0  0  0  0  0  0  0  0  0
  2 10  1  0
  2  1  1  6
  3  2  1  0
  4  3  1  0
  5  4  2  0
  6  5  1  0
  7  8  1  0
  7  6  2  0
  8  9  2  0
  9  4  1  0
 10 11  2  0
 12 10  1  0
 12 13  1  0
 13 14  1  6
 14 15  1  0
 16 17  2  0
 16 13  1  0
 19 18  1  1
 19 20  1  0
 19 21  1  0
 21 22  1  6
 22 16  1  0
 23 24  1  0
 23 21  1  0
 25 23  2  0
M  END
$$$$
