FCV.pdb
     RDKit          3D

 25 25  0  0  1  0  0  0  0  0999 V2000
    7.6332  -13.8346   16.3702 N   0  0  0  0  0  0  0  0  0  0  0  0
    8.9192  -13.4468   16.9812 C   0  0  1  0  0  0  0  0  0  0  0  0
    8.6492  -12.4067   18.0324 C   0  0  0  0  0  0  0  0  0  0  0  0
    8.1209  -13.0405   19.2528 C   0  0  0  0  0  0  0  0  0  0  0  0
    7.2615  -14.1198   19.1234 C   0  0  0  0  0  0  0  0  0  0  0  0
    6.7449  -14.7580   20.2334 C   0  0  0  0  0  0  0  0  0  0  0  0
    7.1166  -14.2807   21.4623 C   0  0  0  0  0  0  0  0  0  0  0  0
    7.9713  -13.2069   21.6342 C   0  0  0  0  0  0  0  0  0  0  0  0
    8.4808  -12.5778   20.4999 C   0  0  0  0  0  0  0  0  0  0  0  0
    9.6225  -14.6472   17.4860 C   0  0  0  0  0  0  0  0  0  0  0  0
    9.3340  -15.8166   17.1333 O   0  0  0  0  0  0  0  0  0  0  0  0
   10.6983  -14.5281   18.4295 N   0  0  0  0  0  0  0  0  0  0  0  0
   11.5691  -15.6271   18.7446 C   0  0  1  0  0  0  0  0  0  0  0  0
   12.6068  -15.7756   17.6483 C   0  0  0  0  0  0  0  0  0  0  0  0
   13.7744  -17.1003   17.9913 S   0  0  0  0  0  0  0  0  0  0  0  0
   12.2048  -15.4658   20.0769 C   0  0  0  0  0  0  0  0  0  0  0  0
   12.8948  -14.4225   20.3404 O   0  0  0  0  0  0  0  0  0  0  0  0
   12.1978  -16.7721   24.7685 C   0  0  0  0  0  0  0  0  0  0  0  0
   11.6008  -16.9706   23.4062 C   0  0  1  0  0  0  0  0  0  0  0  0
   10.2088  -16.3532   23.3910 C   0  0  0  0  0  0  0  0  0  0  0  0
   12.4993  -16.2588   22.3865 C   0  0  2  0  0  0  0  0  0  0  0  0
   12.0271  -16.4940   21.0433 N   0  0  0  0  0  0  0  0  0  0  0  0
   13.8442  -16.8502   22.5428 C   0  0  0  0  0  0  0  0  0  0  0  0
   14.7768  -16.1784   23.3091 O   0  0  0  0  0  0  0  0  0  0  0  0
   14.1973  -17.9349   22.0186 O   0  0  0  0  0  0  0  0  0  0  0  0
  2 10  1  0
  2  1  1  1
  3  2  1  0
  4  3  1  0
  5  4  2  0
  6  5  1  0
  7  8  1  0
  7  6  2  0
  8  9  2  0
  9  4  1  0
 10 11  2  0
 12 10  1  0
 12 13  1  0
 13 14  1  6
 14 15  1  0
 16 17  2  0
 16 13  1  0
 19 18  1  1
 19 20  1  0
 19 21  1  0
 21 22  1  6
 22 16  1  0
 23 24  1  0
 23 21  1  0
 25 23  2  0
M  END
$$$$
