FCV.pdb
     RDKit          3D

 25 25  0  0  1  0  0  0  0  0999 V2000
    9.5525  -15.3629   21.8583 N   0  0  0  0  0  0  0  0  0  0  0  0
    9.1075  -14.6736   23.0849 C   0  0  1  0  0  0  0  0  0  0  0  0
    7.6044  -14.6629   23.1028 C   0  0  0  0  0  0  0  0  0  0  0  0
    7.1138  -13.8908   24.2575 C   0  0  0  0  0  0  0  0  0  0  0  0
    7.2595  -12.5127   24.2469 C   0  0  0  0  0  0  0  0  0  0  0  0
    6.8087  -11.7392   25.2978 C   0  0  0  0  0  0  0  0  0  0  0  0
    6.2140  -12.3892   26.3466 C   0  0  0  0  0  0  0  0  0  0  0  0
    6.0495  -13.7616   26.3957 C   0  0  0  0  0  0  0  0  0  0  0  0
    6.5120  -14.5228   25.3240 C   0  0  0  0  0  0  0  0  0  0  0  0
    9.7212  -15.3074   24.2731 C   0  0  0  0  0  0  0  0  0  0  0  0
   10.1161  -16.4985   24.2945 O   0  0  0  0  0  0  0  0  0  0  0  0
    9.8989  -14.5696   25.4920 N   0  0  0  0  0  0  0  0  0  0  0  0
   10.6567  -15.0855   26.5989 C   0  0  1  0  0  0  0  0  0  0  0  0
   10.5580  -14.1229   27.7669 C   0  0  0  0  0  0  0  0  0  0  0  0
   11.2359  -14.8182   29.2810 S   0  0  0  0  0  0  0  0  0  0  0  0
   10.2181  -16.4517   26.9816 C   0  0  0  0  0  0  0  0  0  0  0  0
    8.9741  -16.7192   27.1042 O   0  0  0  0  0  0  0  0  0  0  0  0
   11.1004  -21.1767   27.4014 C   0  0  0  0  0  0  0  0  0  0  0  0
   11.4667  -19.8475   26.8092 C   0  0  1  0  0  0  0  0  0  0  0  0
   10.9637  -19.8004   25.3726 C   0  0  0  0  0  0  0  0  0  0  0  0
   10.7816  -18.7539   27.6390 C   0  0  2  0  0  0  0  0  0  0  0  0
   11.2102  -17.4457   27.2060 N   0  0  0  0  0  0  0  0  0  0  0  0
   11.2097  -18.9714   29.0361 C   0  0  0  0  0  0  0  0  0  0  0  0
   10.4565  -19.8090   29.8356 O   0  0  0  0  0  0  0  0  0  0  0  0
   12.2244  -18.4384   29.5486 O   0  0  0  0  0  0  0  0  0  0  0  0
  2 10  1  0
  2  1  1  6
  3  2  1  0
  4  3  1  0
  5  4  2  0
  6  5  1  0
  7  8  1  0
  7  6  2  0
  8  9  2  0
  9  4  1  0
 10 11  2  0
 12 10  1  0
 12 13  1  0
 13 14  1  1
 14 15  1  0
 16 17  2  0
 16 13  1  0
 19 18  1  1
 19 20  1  0
 19 21  1  0
 21 22  1  6
 22 16  1  0
 23 24  1  0
 23 21  1  0
 25 23  2  0
M  END
$$$$
