FCV.pdb
     RDKit          3D

 25 25  0  0  1  0  0  0  0  0999 V2000
    9.9927  -16.8219   21.7277 N   0  0  0  0  0  0  0  0  0  0  0  0
    9.5150  -15.7297   22.5975 C   0  0  1  0  0  0  0  0  0  0  0  0
    8.0240  -15.6187   22.4421 C   0  0  0  0  0  0  0  0  0  0  0  0
    7.6780  -14.3887   21.7089 C   0  0  0  0  0  0  0  0  0  0  0  0
    7.4750  -14.4648   20.3402 C   0  0  0  0  0  0  0  0  0  0  0  0
    7.1387  -13.3454   19.6053 C   0  0  0  0  0  0  0  0  0  0  0  0
    7.0149  -12.1621   20.2838 C   0  0  0  0  0  0  0  0  0  0  0  0
    7.2090  -12.0440   21.6482 C   0  0  0  0  0  0  0  0  0  0  0  0
    7.5478  -13.1868   22.3702 C   0  0  0  0  0  0  0  0  0  0  0  0
    9.9618  -15.9588   23.9897 C   0  0  0  0  0  0  0  0  0  0  0  0
   10.5623  -16.9964   24.3609 O   0  0  0  0  0  0  0  0  0  0  0  0
    9.7228  -14.9778   25.0105 N   0  0  0  0  0  0  0  0  0  0  0  0
   10.2950  -15.0816   26.3249 C   0  0  1  0  0  0  0  0  0  0  0  0
    9.7550  -13.9644   27.1971 C   0  0  0  0  0  0  0  0  0  0  0  0
   10.3329  -14.0875   28.8960 S   0  0  0  0  0  0  0  0  0  0  0  0
   10.0483  -16.4138   26.9328 C   0  0  0  0  0  0  0  0  0  0  0  0
    8.8600  -16.8792   27.0064 O   0  0  0  0  0  0  0  0  0  0  0  0
   11.7987  -20.7097   28.3686 C   0  0  0  0  0  0  0  0  0  0  0  0
   11.9969  -19.4463   27.5837 C   0  0  1  0  0  0  0  0  0  0  0  0
   11.8502  -19.7666   26.1022 C   0  0  0  0  0  0  0  0  0  0  0  0
   10.9141  -18.4474   28.0122 C   0  0  2  0  0  0  0  0  0  0  0  0
   11.1595  -17.1515   27.4265 N   0  0  0  0  0  0  0  0  0  0  0  0
   11.0098  -18.3456   29.4829 C   0  0  0  0  0  0  0  0  0  0  0  0
   11.8027  -17.3538   30.0267 O   0  0  0  0  0  0  0  0  0  0  0  0
   10.4106  -19.1103   30.2782 O   0  0  0  0  0  0  0  0  0  0  0  0
  2 10  1  0
  2  1  1  6
  3  2  1  0
  4  3  1  0
  5  4  2  0
  6  5  1  0
  7  8  1  0
  7  6  2  0
  8  9  2  0
  9  4  1  0
 10 11  2  0
 12 10  1  0
 12 13  1  0
 13 14  1  1
 14 15  1  0
 16 17  2  0
 16 13  1  0
 19 18  1  1
 19 20  1  0
 19 21  1  0
 21 22  1  6
 22 16  1  0
 23 24  1  0
 23 21  1  0
 25 23  2  0
M  END
$$$$
