FCV.pdb
     RDKit          3D

 25 25  0  0  1  0  0  0  0  0999 V2000
    5.6399  -16.6818   24.6491 N   0  0  0  0  0  0  0  0  0  0  0  0
    6.7190  -16.3754   23.6904 C   0  0  1  0  0  0  0  0  0  0  0  0
    6.6127  -14.9262   23.3055 C   0  0  0  0  0  0  0  0  0  0  0  0
    6.9114  -14.0676   24.4647 C   0  0  0  0  0  0  0  0  0  0  0  0
    6.1787  -14.2417   25.6279 C   0  0  0  0  0  0  0  0  0  0  0  0
    6.4235  -13.4719   26.7475 C   0  0  0  0  0  0  0  0  0  0  0  0
    7.4169  -12.5331   26.6597 C   0  0  0  0  0  0  0  0  0  0  0  0
    8.1706  -12.3281   25.5181 C   0  0  0  0  0  0  0  0  0  0  0  0
    7.9064  -13.1165   24.3998 C   0  0  0  0  0  0  0  0  0  0  0  0
    8.0295  -16.7531   24.2652 C   0  0  0  0  0  0  0  0  0  0  0  0
    8.1845  -17.1051   25.4598 O   0  0  0  0  0  0  0  0  0  0  0  0
    9.2191  -16.7343   23.4613 N   0  0  0  0  0  0  0  0  0  0  0  0
   10.5066  -17.0988   23.9858 C   0  0  1  0  0  0  0  0  0  0  0  0
   11.5340  -17.0529   22.8710 C   0  0  0  0  0  0  0  0  0  0  0  0
   13.1535  -17.6163   23.4144 S   0  0  0  0  0  0  0  0  0  0  0  0
   10.9040  -16.2364   25.1275 C   0  0  0  0  0  0  0  0  0  0  0  0
   11.3358  -15.0511   24.9210 O   0  0  0  0  0  0  0  0  0  0  0  0
   10.4099  -14.3275   29.2535 C   0  0  0  0  0  0  0  0  0  0  0  0
   10.0183  -15.0162   27.9792 C   0  0  1  0  0  0  0  0  0  0  0  0
    9.7621  -13.9584   26.9141 C   0  0  0  0  0  0  0  0  0  0  0  0
   11.1830  -15.9181   27.5505 C   0  0  2  0  0  0  0  0  0  0  0  0
   10.7923  -16.7597   26.4452 N   0  0  0  0  0  0  0  0  0  0  0  0
   11.4989  -16.7628   28.7207 C   0  0  0  0  0  0  0  0  0  0  0  0
   12.2215  -16.2092   29.7598 O   0  0  0  0  0  0  0  0  0  0  0  0
   11.1493  -17.9634   28.8325 O   0  0  0  0  0  0  0  0  0  0  0  0
  2 10  1  0
  2  1  1  1
  3  2  1  0
  4  3  1  0
  5  4  2  0
  6  5  1  0
  7  8  1  0
  7  6  2  0
  8  9  2  0
  9  4  1  0
 10 11  2  0
 12 10  1  0
 12 13  1  0
 13 14  1  6
 14 15  1  0
 16 17  2  0
 16 13  1  0
 19 18  1  1
 19 20  1  0
 19 21  1  0
 21 22  1  6
 22 16  1  0
 23 24  1  0
 23 21  1  0
 25 23  2  0
M  END
$$$$
