FCV.pdb
     RDKit          3D

 25 25  0  0  1  0  0  0  0  0999 V2000
    6.0483  -18.6819   20.4603 N   0  0  0  0  0  0  0  0  0  0  0  0
    6.6753  -17.4111   20.8721 C   0  0  1  0  0  0  0  0  0  0  0  0
    6.1024  -16.3058   20.0295 C   0  0  0  0  0  0  0  0  0  0  0  0
    6.7891  -15.0353   20.3196 C   0  0  0  0  0  0  0  0  0  0  0  0
    6.3889  -14.2996   21.4236 C   0  0  0  0  0  0  0  0  0  0  0  0
    7.0046  -13.1072   21.7481 C   0  0  0  0  0  0  0  0  0  0  0  0
    8.0232  -12.6846   20.9358 C   0  0  0  0  0  0  0  0  0  0  0  0
    8.4524  -13.3889   19.8255 C   0  0  0  0  0  0  0  0  0  0  0  0
    7.8167  -14.5900   19.5167 C   0  0  0  0  0  0  0  0  0  0  0  0
    6.5047  -17.2107   22.3285 C   0  0  0  0  0  0  0  0  0  0  0  0
    5.3844  -17.1423   22.8901 O   0  0  0  0  0  0  0  0  0  0  0  0
    7.6441  -17.0814   23.1925 N   0  0  0  0  0  0  0  0  0  0  0  0
    7.5157  -16.9269   24.6156 C   0  0  1  0  0  0  0  0  0  0  0  0
    7.7614  -18.2632   25.2898 C   0  0  0  0  0  0  0  0  0  0  0  0
    9.2635  -19.0573   24.6995 S   0  0  0  0  0  0  0  0  0  0  0  0
    8.4235  -15.8767   25.1429 C   0  0  0  0  0  0  0  0  0  0  0  0
    9.5872  -15.7170   24.6384 O   0  0  0  0  0  0  0  0  0  0  0  0
    7.5337  -12.1823   26.0391 C   0  0  0  0  0  0  0  0  0  0  0  0
    8.1273  -12.8465   27.2467 C   0  0  1  0  0  0  0  0  0  0  0  0
    6.9974  -13.2459   28.1862 C   0  0  0  0  0  0  0  0  0  0  0  0
    8.8828  -14.0964   26.7768 C   0  0  2  0  0  0  0  0  0  0  0  0
    7.9678  -15.0604   26.2148 N   0  0  0  0  0  0  0  0  0  0  0  0
    9.5170  -14.6687   27.9822 C   0  0  0  0  0  0  0  0  0  0  0  0
   10.5471  -13.9706   28.5819 O   0  0  0  0  0  0  0  0  0  0  0  0
    9.1765  -15.7598   28.5015 O   0  0  0  0  0  0  0  0  0  0  0  0
  2 10  1  0
  2  1  1  6
  3  2  1  0
  4  3  1  0
  5  4  2  0
  6  5  1  0
  7  8  1  0
  7  6  2  0
  8  9  2  0
  9  4  1  0
 10 11  2  0
 12 10  1  0
 12 13  1  0
 13 14  1  1
 14 15  1  0
 16 17  2  0
 16 13  1  0
 19 18  1  6
 19 20  1  0
 19 21  1  0
 21 22  1  1
 22 16  1  0
 23 24  1  0
 23 21  1  0
 25 23  2  0
M  END
$$$$
