FCV.pdb
     RDKit          3D

 25 25  0  0  1  0  0  0  0  0999 V2000
    7.3205  -18.3160   19.4573 N   0  0  0  0  0  0  0  0  0  0  0  0
    7.6874  -17.0788   20.1731 C   0  0  1  0  0  0  0  0  0  0  0  0
    6.7386  -15.9907   19.7541 C   0  0  0  0  0  0  0  0  0  0  0  0
    7.1445  -14.7044   20.3465 C   0  0  0  0  0  0  0  0  0  0  0  0
    6.6434  -14.3574   21.5910 C   0  0  0  0  0  0  0  0  0  0  0  0
    6.9986  -13.1690   22.1974 C   0  0  0  0  0  0  0  0  0  0  0  0
    7.8634  -12.3515   21.5193 C   0  0  0  0  0  0  0  0  0  0  0  0
    8.3857  -12.6609   20.2764 C   0  0  0  0  0  0  0  0  0  0  0  0
    8.0136  -13.8657   19.6831 C   0  0  0  0  0  0  0  0  0  0  0  0
    7.7154  -17.3270   21.6319 C   0  0  0  0  0  0  0  0  0  0  0  0
    6.7209  -17.7284   22.2838 O   0  0  0  0  0  0  0  0  0  0  0  0
    8.9149  -17.1147   22.3920 N   0  0  0  0  0  0  0  0  0  0  0  0
    8.9798  -17.3540   23.8077 C   0  0  1  0  0  0  0  0  0  0  0  0
    9.7684  -18.6234   24.0666 C   0  0  0  0  0  0  0  0  0  0  0  0
    9.9578  -18.9607   25.8233 S   0  0  0  0  0  0  0  0  0  0  0  0
    9.5558  -16.1971   24.5391 C   0  0  0  0  0  0  0  0  0  0  0  0
   10.6191  -15.6294   24.1135 O   0  0  0  0  0  0  0  0  0  0  0  0
    9.1113  -12.6865   27.8632 C   0  0  0  0  0  0  0  0  0  0  0  0
    8.4231  -13.7741   27.0918 C   0  0  1  0  0  0  0  0  0  0  0  0
    7.5763  -13.1342   25.9999 C   0  0  0  0  0  0  0  0  0  0  0  0
    9.5024  -14.6643   26.4621 C   0  0  2  0  0  0  0  0  0  0  0  0
    8.8988  -15.7416   25.7154 N   0  0  0  0  0  0  0  0  0  0  0  0
   10.2792  -15.2241   27.5872 C   0  0  0  0  0  0  0  0  0  0  0  0
   11.2422  -14.4335   28.1837 O   0  0  0  0  0  0  0  0  0  0  0  0
   10.1187  -16.3838   28.0404 O   0  0  0  0  0  0  0  0  0  0  0  0
  2 10  1  0
  2  1  1  6
  3  2  1  0
  4  3  1  0
  5  4  2  0
  6  5  1  0
  7  8  1  0
  7  6  2  0
  8  9  2  0
  9  4  1  0
 10 11  2  0
 12 10  1  0
 12 13  1  0
 13 14  1  6
 14 15  1  0
 16 17  2  0
 16 13  1  0
 19 18  1  6
 19 20  1  0
 19 21  1  0
 21 22  1  1
 22 16  1  0
 23 24  1  0
 23 21  1  0
 25 23  2  0
M  END
$$$$
