SRW.pdb
     RDKit          3D

 32 33  0  0  1  0  0  0  0  0999 V2000
    8.3376  -12.2011   18.2873 O   0  0  0  0  0  0  0  0  0  0  0  0
    8.0978  -13.1618   19.2612 C   0  0  0  0  0  0  0  0  0  0  0  0
    8.4024  -14.5400   18.7038 C   0  0  2  0  0  0  0  0  0  0  0  0
    7.3594  -14.8470   17.7247 N   0  0  0  0  0  0  0  0  0  0  0  0
    8.3248  -15.5388   19.7880 C   0  0  0  0  0  0  0  0  0  0  0  0
    7.5199  -16.4922   19.6857 O   0  0  0  0  0  0  0  0  0  0  0  0
   13.8955  -18.6997   20.8010 N   0  0  0  0  0  0  0  0  0  0  0  0
   13.6036  -18.5919   19.4215 C   0  0  0  0  0  0  0  0  0  0  0  0
   14.5195  -18.3461   18.5443 N   0  0  0  0  0  0  0  0  0  0  0  0
   12.2454  -18.7632   19.0007 N   0  0  0  0  0  0  0  0  0  0  0  0
   11.2037  -18.9897   19.9527 C   0  0  0  0  0  0  0  0  0  0  0  0
   10.7165  -17.6609   20.4855 C   0  0  0  0  0  0  0  0  0  0  0  0
    9.5393  -17.8387   21.3913 C   0  0  0  0  0  0  0  0  0  0  0  0
    9.1281  -16.4913   21.9463 C   0  0  2  0  0  0  0  0  0  0  0  0
    9.1321  -15.4606   20.9496 N   0  0  0  0  0  0  0  0  0  0  0  0
   10.0257  -16.0865   23.0737 C   0  0  0  0  0  0  0  0  0  0  0  0
   11.2698  -16.3404   23.0167 O   0  0  0  0  0  0  0  0  0  0  0  0
   14.3556  -18.2728   17.5374 N   0  0  0  0  0  0  0  0  0  0  0  0
    9.5609  -15.4241   24.2229 C   0  0  1  0  0  0  0  0  0  0  0  0
    9.8094  -15.9300   25.5584 C   0  0  0  0  0  0  0  0  0  0  0  0
    8.5805  -16.4080   26.2439 C   0  0  0  0  0  0  0  0  0  0  0  0
    7.5028  -15.4042   26.0752 C   0  0  0  0  0  0  0  0  0  0  0  0
    6.1614  -15.6437   25.7589 N   0  0  0  0  0  0  0  0  0  0  0  0
    5.5013  -14.4777   25.6853 C   0  0  0  0  0  0  0  0  0  0  0  0
    6.3381  -13.4681   25.9375 C   0  0  0  0  0  0  0  0  0  0  0  0
    6.1626  -12.0830   25.9862 C   0  0  0  0  0  0  0  0  0  0  0  0
    7.2600  -11.3231   26.2806 C   0  0  0  0  0  0  0  0  0  0  0  0
    8.5062  -11.8290   26.5278 C   0  0  0  0  0  0  0  0  0  0  0  0
    8.6627  -13.2084   26.4752 C   0  0  0  0  0  0  0  0  0  0  0  0
    7.5797  -14.0211   26.1808 C   0  0  0  0  0  0  0  0  0  0  0  0
   10.8277  -17.0039   25.5541 O   0  0  0  0  0  0  0  0  0  0  0  0
   11.0729  -17.7350   24.5697 O   0  0  0  0  0  0  0  0  0  0  0  0
  1  2  1  0
  3  2  1  0
  3  4  1  6
  5  6  2  0
  5  3  1  0
  8  9  2  0
  8  7  1  0
 10  8  1  0
 11 12  1  0
 11 10  1  0
 13 12  1  0
 14 13  1  6
 14 15  1  0
 15  5  1  0
 16 14  1  0
 16 17  2  0
 18 16  1  0
 19 18  1  0
 19 30  1  0
 19 20  1  1
 21 20  1  0
 22 21  2  0
 23 22  1  0
 24 23  1  0
 24 29  2  0
 25 26  2  0
 25 24  1  0
 26 27  1  0
 27 28  2  0
 29 28  1  0
 29 21  1  0
 30 31  2  0
 30 32  1  0
M  END
$$$$
