SRW.pdb
     RDKit          3D

 32 33  0  0  1  0  0  0  0  0999 V2000
    8.2022  -19.7829   24.8810 O   0  0  0  0  0  0  0  0  0  0  0  0
    6.9038  -19.6626   24.4030 C   0  0  0  0  0  0  0  0  0  0  0  0
    6.9320  -19.4294   22.9038 C   0  0  2  0  0  0  0  0  0  0  0  0
    7.3238  -20.6935   22.2801 N   0  0  0  0  0  0  0  0  0  0  0  0
    7.9585  -18.4189   22.5811 C   0  0  0  0  0  0  0  0  0  0  0  0
    9.0890  -18.7956   22.1969 O   0  0  0  0  0  0  0  0  0  0  0  0
    8.3694  -14.1854   17.2184 N   0  0  0  0  0  0  0  0  0  0  0  0
    8.2022  -13.2546   18.2698 C   0  0  0  0  0  0  0  0  0  0  0  0
    8.2432  -11.9792   18.0690 N   0  0  0  0  0  0  0  0  0  0  0  0
    7.9817  -13.7583   19.5922 N   0  0  0  0  0  0  0  0  0  0  0  0
    6.9130  -14.6674   19.8641 C   0  0  0  0  0  0  0  0  0  0  0  0
    6.8553  -14.9400   21.3505 C   0  0  0  0  0  0  0  0  0  0  0  0
    8.1887  -14.7245   21.9934 C   0  0  0  0  0  0  0  0  0  0  0  0
    8.7412  -16.0562   22.4561 C   0  0  2  0  0  0  0  0  0  0  0  0
    7.7131  -17.0278   22.6897 N   0  0  0  0  0  0  0  0  0  0  0  0
    9.5505  -15.8889   23.7043 C   0  0  0  0  0  0  0  0  0  0  0  0
   10.6188  -15.2009   23.6802 O   0  0  0  0  0  0  0  0  0  0  0  0
    8.2094  -11.2728   18.8080 N   0  0  0  0  0  0  0  0  0  0  0  0
    9.1884  -16.4639   24.9347 C   0  0  1  0  0  0  0  0  0  0  0  0
   10.0499  -16.4009   26.0987 C   0  0  0  0  0  0  0  0  0  0  0  0
    9.4791  -15.5951   27.2094 C   0  0  0  0  0  0  0  0  0  0  0  0
    8.1947  -14.9979   26.7724 C   0  0  0  0  0  0  0  0  0  0  0  0
    7.0191  -15.6723   26.4260 N   0  0  0  0  0  0  0  0  0  0  0  0
    6.0769  -14.7833   26.0758 C   0  0  0  0  0  0  0  0  0  0  0  0
    6.5665  -13.5446   26.1713 C   0  0  0  0  0  0  0  0  0  0  0  0
    6.0115  -12.2861   25.9272 C   0  0  0  0  0  0  0  0  0  0  0  0
    6.8135  -11.1982   26.1311 C   0  0  0  0  0  0  0  0  0  0  0  0
    8.1120  -11.2643   26.5548 C   0  0  0  0  0  0  0  0  0  0  0  0
    8.6479  -12.5238   26.7927 C   0  0  0  0  0  0  0  0  0  0  0  0
    7.8742  -13.6571   26.6004 C   0  0  0  0  0  0  0  0  0  0  0  0
   10.4005  -17.7516   26.5916 O   0  0  0  0  0  0  0  0  0  0  0  0
   11.2114  -17.9725   27.5174 O   0  0  0  0  0  0  0  0  0  0  0  0
  1  2  1  0
  3  2  1  0
  3  4  1  6
  5  6  2  0
  5  3  1  0
  8  9  2  0
  8  7  1  0
 10  8  1  0
 11 12  1  0
 11 10  1  0
 13 12  1  0
 14 13  1  1
 14 15  1  0
 15  5  1  0
 16 14  1  0
 16 17  2  0
 18 16  1  0
 19 18  1  0
 19 30  1  0
 19 20  1  1
 21 20  1  0
 22 21  2  0
 23 22  1  0
 24 23  1  0
 24 29  2  0
 25 26  2  0
 25 24  1  0
 26 27  1  0
 27 28  2  0
 29 28  1  0
 29 21  1  0
 30 31  2  0
 30 32  1  0
M  END
$$$$
