SRW.pdb
     RDKit          3D

 32 33  0  0  1  0  0  0  0  0999 V2000
    9.3603  -12.8062   21.1900 O   0  0  0  0  0  0  0  0  0  0  0  0
    8.1278  -13.0087   20.5826 C   0  0  0  0  0  0  0  0  0  0  0  0
    8.1218  -14.3521   19.8769 C   0  0  2  0  0  0  0  0  0  0  0  0
    6.8033  -14.5080   19.2621 N   0  0  0  0  0  0  0  0  0  0  0  0
    8.2980  -15.4312   20.8688 C   0  0  0  0  0  0  0  0  0  0  0  0
    7.3188  -15.7939   21.5593 O   0  0  0  0  0  0  0  0  0  0  0  0
   12.3068  -18.3177   16.4658 N   0  0  0  0  0  0  0  0  0  0  0  0
   13.0877  -18.7097   17.5778 C   0  0  0  0  0  0  0  0  0  0  0  0
   14.3427  -18.9954   17.4674 N   0  0  0  0  0  0  0  0  0  0  0  0
   12.4520  -18.7873   18.8588 N   0  0  0  0  0  0  0  0  0  0  0  0
   11.5079  -17.7972   19.2723 C   0  0  0  0  0  0  0  0  0  0  0  0
   11.7570  -17.4441   20.7215 C   0  0  0  0  0  0  0  0  0  0  0  0
   10.7757  -18.1254   21.6219 C   0  0  0  0  0  0  0  0  0  0  0  0
    9.6977  -17.1403   22.0222 C   0  0  2  0  0  0  0  0  0  0  0  0
    9.5419  -16.0780   21.0720 N   0  0  0  0  0  0  0  0  0  0  0  0
    9.9886  -16.5550   23.3688 C   0  0  0  0  0  0  0  0  0  0  0  0
   10.7260  -15.5244   23.4667 O   0  0  0  0  0  0  0  0  0  0  0  0
   14.9498  -19.2590   18.2472 N   0  0  0  0  0  0  0  0  0  0  0  0
    9.4803  -17.0927   24.5638 C   0  0  1  0  0  0  0  0  0  0  0  0
    9.7603  -16.5002   25.8567 C   0  0  0  0  0  0  0  0  0  0  0  0
    8.5609  -16.3975   26.7283 C   0  0  0  0  0  0  0  0  0  0  0  0
    7.5825  -15.4720   26.1091 C   0  0  0  0  0  0  0  0  0  0  0  0
    6.6218  -15.7767   25.1390 N   0  0  0  0  0  0  0  0  0  0  0  0
    5.9320  -14.6693   24.8253 C   0  0  0  0  0  0  0  0  0  0  0  0
    6.3859  -13.6366   25.5401 C   0  0  0  0  0  0  0  0  0  0  0  0
    6.0209  -12.2892   25.5934 C   0  0  0  0  0  0  0  0  0  0  0  0
    6.7117  -11.4875   26.4584 C   0  0  0  0  0  0  0  0  0  0  0  0
    7.7274  -11.9177   27.2668 C   0  0  0  0  0  0  0  0  0  0  0  0
    8.0772  -13.2606   27.2009 C   0  0  0  0  0  0  0  0  0  0  0  0
    7.4060  -14.1133   26.3393 C   0  0  0  0  0  0  0  0  0  0  0  0
   10.8337  -17.2283   26.5694 O   0  0  0  0  0  0  0  0  0  0  0  0
   11.2505  -16.9256   27.7088 O   0  0  0  0  0  0  0  0  0  0  0  0
  1  2  1  0
  3  2  1  0
  3  4  1  1
  5  6  2  0
  5  3  1  0
  8  9  2  0
  8  7  1  0
 10  8  1  0
 11 12  1  0
 11 10  1  0
 13 12  1  0
 14 13  1  6
 14 15  1  0
 15  5  1  0
 16 14  1  0
 16 17  2  0
 18 16  1  0
 19 18  1  0
 19 30  1  0
 19 20  1  1
 21 20  1  0
 22 21  2  0
 23 22  1  0
 24 23  1  0
 24 29  2  0
 25 26  2  0
 25 24  1  0
 26 27  1  0
 27 28  2  0
 29 28  1  0
 29 21  1  0
 30 31  2  0
 30 32  1  0
M  END
$$$$
