SRW.pdb
     RDKit          3D

 32 33  0  0  1  0  0  0  0  0999 V2000
    8.4215  -12.4529   21.0075 O   0  0  0  0  0  0  0  0  0  0  0  0
    8.9282  -12.6819   19.7349 C   0  0  0  0  0  0  0  0  0  0  0  0
    8.2871  -13.9253   19.1470 C   0  0  2  0  0  0  0  0  0  0  0  0
    6.8581  -13.6452   19.0050 N   0  0  0  0  0  0  0  0  0  0  0  0
    8.4443  -15.0527   20.0869 C   0  0  0  0  0  0  0  0  0  0  0  0
    7.5400  -15.2852   20.9209 O   0  0  0  0  0  0  0  0  0  0  0  0
   11.7139  -18.2218   16.2790 N   0  0  0  0  0  0  0  0  0  0  0  0
   12.7429  -18.3812   17.2359 C   0  0  0  0  0  0  0  0  0  0  0  0
   13.9485  -17.9701   17.0209 N   0  0  0  0  0  0  0  0  0  0  0  0
   12.4216  -19.0205   18.4766 N   0  0  0  0  0  0  0  0  0  0  0  0
   11.1393  -19.6158   18.6866 C   0  0  0  0  0  0  0  0  0  0  0  0
   10.1932  -18.5785   19.2484 C   0  0  0  0  0  0  0  0  0  0  0  0
   10.7010  -18.0259   20.5425 C   0  0  0  0  0  0  0  0  0  0  0  0
    9.7543  -16.9504   21.0321 C   0  0  2  0  0  0  0  0  0  0  0  0
    9.5876  -15.8893   20.0824 N   0  0  0  0  0  0  0  0  0  0  0  0
   10.2303  -16.3765   22.3300 C   0  0  0  0  0  0  0  0  0  0  0  0
   11.1258  -15.4746   22.3344 O   0  0  0  0  0  0  0  0  0  0  0  0
   14.7357  -18.1186   17.6569 N   0  0  0  0  0  0  0  0  0  0  0  0
    9.7316  -16.7877   23.5781 C   0  0  1  0  0  0  0  0  0  0  0  0
   10.1817  -16.1948   24.8219 C   0  0  0  0  0  0  0  0  0  0  0  0
    9.8422  -14.7529   24.9423 C   0  0  0  0  0  0  0  0  0  0  0  0
    8.3844  -14.6094   25.1689 C   0  0  0  0  0  0  0  0  0  0  0  0
    7.3872  -15.5544   24.9056 N   0  0  0  0  0  0  0  0  0  0  0  0
    6.1893  -15.0487   25.2371 C   0  0  0  0  0  0  0  0  0  0  0  0
    6.3374  -13.8088   25.7102 C   0  0  0  0  0  0  0  0  0  0  0  0
    5.4266  -12.8614   26.1840 C   0  0  0  0  0  0  0  0  0  0  0  0
    5.9316  -11.6618   26.6013 C   0  0  0  0  0  0  0  0  0  0  0  0
    7.2593  -11.3345   26.5843 C   0  0  0  0  0  0  0  0  0  0  0  0
    8.1510  -12.2885   26.1100 C   0  0  0  0  0  0  0  0  0  0  0  0
    7.6872  -13.5198   25.6757 C   0  0  0  0  0  0  0  0  0  0  0  0
    9.6608  -16.9294   25.9963 O   0  0  0  0  0  0  0  0  0  0  0  0
    9.8521  -16.5832   27.1825 O   0  0  0  0  0  0  0  0  0  0  0  0
  1  2  1  0
  3  2  1  0
  3  4  1  1
  5  6  2  0
  5  3  1  0
  8  9  2  0
  8  7  1  0
 10  8  1  0
 11 12  1  0
 11 10  1  0
 13 12  1  0
 14 13  1  6
 14 15  1  0
 15  5  1  0
 16 14  1  0
 16 17  2  0
 18 16  1  0
 19 18  1  0
 19 30  1  0
 19 20  1  1
 21 20  1  0
 22 21  2  0
 23 22  1  0
 24 23  1  0
 24 29  2  0
 25 26  2  0
 25 24  1  0
 26 27  1  0
 27 28  2  0
 29 28  1  0
 29 21  1  0
 30 31  2  0
 30 32  1  0
M  END
$$$$
