SRW.pdb
     RDKit          3D

 32 33  0  0  1  0  0  0  0  0999 V2000
    9.8451  -20.1793   22.9917 O   0  0  0  0  0  0  0  0  0  0  0  0
    8.7893  -20.2415   22.0916 C   0  0  0  0  0  0  0  0  0  0  0  0
    9.1457  -19.4714   20.8336 C   0  0  2  0  0  0  0  0  0  0  0  0
   10.1204  -20.2777   20.0985 N   0  0  0  0  0  0  0  0  0  0  0  0
    9.7885  -18.1946   21.2023 C   0  0  0  0  0  0  0  0  0  0  0  0
   11.0371  -18.1077   21.1753 O   0  0  0  0  0  0  0  0  0  0  0  0
    8.8793  -12.2290   17.8224 N   0  0  0  0  0  0  0  0  0  0  0  0
    8.1414  -13.3519   17.3814 C   0  0  0  0  0  0  0  0  0  0  0  0
    8.3312  -13.8833   16.2193 N   0  0  0  0  0  0  0  0  0  0  0  0
    7.1571  -13.9047   18.2626 N   0  0  0  0  0  0  0  0  0  0  0  0
    7.3228  -13.8440   19.6808 C   0  0  0  0  0  0  0  0  0  0  0  0
    8.6385  -14.4870   20.0579 C   0  0  0  0  0  0  0  0  0  0  0  0
    8.7729  -14.6166   21.5421 C   0  0  0  0  0  0  0  0  0  0  0  0
    9.6696  -15.7943   21.8614 C   0  0  2  0  0  0  0  0  0  0  0  0
    9.0421  -17.0542   21.5886 N   0  0  0  0  0  0  0  0  0  0  0  0
   10.0981  -15.7602   23.2953 C   0  0  0  0  0  0  0  0  0  0  0  0
   10.9886  -14.9351   23.6718 O   0  0  0  0  0  0  0  0  0  0  0  0
    7.9363  -14.7772   15.9171 N   0  0  0  0  0  0  0  0  0  0  0  0
    9.5589  -16.6102   24.2763 C   0  0  1  0  0  0  0  0  0  0  0  0
   10.0063  -16.5786   25.6547 C   0  0  0  0  0  0  0  0  0  0  0  0
    9.6535  -15.3180   26.3583 C   0  0  0  0  0  0  0  0  0  0  0  0
    8.1894  -15.1025   26.2742 C   0  0  0  0  0  0  0  0  0  0  0  0
    7.2055  -16.0567   25.9947 N   0  0  0  0  0  0  0  0  0  0  0  0
    5.9977  -15.4720   25.9983 C   0  0  0  0  0  0  0  0  0  0  0  0
    6.1265  -14.1704   26.2671 C   0  0  0  0  0  0  0  0  0  0  0  0
    5.1995  -13.1321   26.3857 C   0  0  0  0  0  0  0  0  0  0  0  0
    5.6865  -11.8883   26.6758 C   0  0  0  0  0  0  0  0  0  0  0  0
    7.0112  -11.5999   26.8553 C   0  0  0  0  0  0  0  0  0  0  0  0
    7.9192  -12.6443   26.7337 C   0  0  0  0  0  0  0  0  0  0  0  0
    7.4740  -13.9233   26.4406 C   0  0  0  0  0  0  0  0  0  0  0  0
    9.4953  -17.7371   26.4207 O   0  0  0  0  0  0  0  0  0  0  0  0
    8.6754  -18.5684   25.9729 O   0  0  0  0  0  0  0  0  0  0  0  0
  1  2  1  0
  3  2  1  0
  3  4  1  6
  5  6  2  0
  5  3  1  0
  8  9  2  0
  8  7  1  0
 10  8  1  0
 11 12  1  0
 11 10  1  0
 13 12  1  0
 14 13  1  1
 14 15  1  0
 15  5  1  0
 16 14  1  0
 16 17  2  0
 18 16  1  0
 19 18  1  0
 19 30  1  0
 19 20  1  6
 21 20  1  0
 22 21  2  0
 23 22  1  0
 24 23  1  0
 24 29  2  0
 25 26  2  0
 25 24  1  0
 26 27  1  0
 27 28  2  0
 29 28  1  0
 29 21  1  0
 30 31  2  0
 30 32  1  0
M  END
$$$$
