SRW.pdb
     RDKit          3D

 32 33  0  0  1  0  0  0  0  0999 V2000
   10.6472  -20.0726   22.3473 O   0  0  0  0  0  0  0  0  0  0  0  0
   10.1069  -19.8440   21.0884 C   0  0  0  0  0  0  0  0  0  0  0  0
   10.8573  -18.7134   20.4092 C   0  0  2  0  0  0  0  0  0  0  0  0
   12.2298  -19.1745   20.1991 N   0  0  0  0  0  0  0  0  0  0  0  0
   10.8975  -17.5402   21.3043 C   0  0  0  0  0  0  0  0  0  0  0  0
   11.8977  -17.3623   22.0359 O   0  0  0  0  0  0  0  0  0  0  0  0
    7.5688  -14.0058   16.4632 N   0  0  0  0  0  0  0  0  0  0  0  0
    7.7851  -13.3922   17.7188 C   0  0  0  0  0  0  0  0  0  0  0  0
    8.7055  -12.5035   17.8978 N   0  0  0  0  0  0  0  0  0  0  0  0
    6.9493  -13.7794   18.8154 N   0  0  0  0  0  0  0  0  0  0  0  0
    7.3627  -13.5647   20.1665 C   0  0  0  0  0  0  0  0  0  0  0  0
    8.3747  -14.6200   20.5528 C   0  0  0  0  0  0  0  0  0  0  0  0
    8.8159  -14.4541   21.9725 C   0  0  0  0  0  0  0  0  0  0  0  0
    9.8503  -15.5101   22.3007 C   0  0  2  0  0  0  0  0  0  0  0  0
    9.8400  -16.5996   21.3688 N   0  0  0  0  0  0  0  0  0  0  0  0
    9.6409  -16.0452   23.6829 C   0  0  0  0  0  0  0  0  0  0  0  0
    8.9493  -17.0971   23.8579 O   0  0  0  0  0  0  0  0  0  0  0  0
    8.9790  -12.1248   18.8077 N   0  0  0  0  0  0  0  0  0  0  0  0
   10.1787  -15.4360   24.8297 C   0  0  2  0  0  0  0  0  0  0  0  0
    9.9604  -15.9684   26.1602 C   0  0  0  0  0  0  0  0  0  0  0  0
    8.5972  -16.5281   26.3528 C   0  0  0  0  0  0  0  0  0  0  0  0
    7.5911  -15.4752   26.0763 C   0  0  0  0  0  0  0  0  0  0  0  0
    6.4124  -15.6013   25.3337 N   0  0  0  0  0  0  0  0  0  0  0  0
    5.7717  -14.4226   25.3028 C   0  0  0  0  0  0  0  0  0  0  0  0
    6.4663  -13.5126   25.9902 C   0  0  0  0  0  0  0  0  0  0  0  0
    6.2454  -12.1602   26.2618 C   0  0  0  0  0  0  0  0  0  0  0  0
    7.1831  -11.5120   27.0159 C   0  0  0  0  0  0  0  0  0  0  0  0
    8.3127  -12.0987   27.5159 C   0  0  0  0  0  0  0  0  0  0  0  0
    8.5166  -13.4442   27.2362 C   0  0  0  0  0  0  0  0  0  0  0  0
    7.5940  -14.1446   26.4757 C   0  0  0  0  0  0  0  0  0  0  0  0
   10.9728  -16.9888   26.5123 O   0  0  0  0  0  0  0  0  0  0  0  0
   11.9067  -17.3405   25.7587 O   0  0  0  0  0  0  0  0  0  0  0  0
  1  2  1  0
  3  2  1  0
  3  4  1  1
  5  6  2  0
  5  3  1  0
  8  9  2  0
  8  7  1  0
 10  8  1  0
 11 12  1  0
 11 10  1  0
 13 12  1  0
 14 13  1  6
 14 15  1  0
 15  5  1  0
 16 14  1  0
 16 17  2  0
 18 16  1  0
 19 18  1  0
 19 30  1  0
 19 20  1  1
 21 20  1  0
 22 21  2  0
 23 22  1  0
 24 23  1  0
 24 29  2  0
 25 26  2  0
 25 24  1  0
 26 27  1  0
 27 28  2  0
 29 28  1  0
 29 21  1  0
 30 31  2  0
 30 32  1  0
M  END
$$$$
