SRW.pdb
     RDKit          3D

 32 33  0  0  1  0  0  0  0  0999 V2000
    6.6151  -19.8306   25.6032 O   0  0  0  0  0  0  0  0  0  0  0  0
    5.3749  -19.8041   24.9787 C   0  0  0  0  0  0  0  0  0  0  0  0
    5.5414  -20.1082   23.5013 C   0  0  2  0  0  0  0  0  0  0  0  0
    6.1604  -21.4301   23.4023 N   0  0  0  0  0  0  0  0  0  0  0  0
    6.4590  -19.1233   22.8954 C   0  0  0  0  0  0  0  0  0  0  0  0
    7.6664  -19.4203   22.7497 O   0  0  0  0  0  0  0  0  0  0  0  0
    7.8502  -13.6032   16.9805 N   0  0  0  0  0  0  0  0  0  0  0  0
    8.5656  -13.2391   18.1447 C   0  0  0  0  0  0  0  0  0  0  0  0
    8.8764  -12.0119   18.4024 N   0  0  0  0  0  0  0  0  0  0  0  0
    8.9499  -14.2750   19.0558 N   0  0  0  0  0  0  0  0  0  0  0  0
    8.0150  -15.2730   19.4712 C   0  0  0  0  0  0  0  0  0  0  0  0
    7.2840  -14.7903   20.7039 C   0  0  0  0  0  0  0  0  0  0  0  0
    6.2639  -15.7873   21.1545 C   0  0  0  0  0  0  0  0  0  0  0  0
    6.9415  -16.8514   21.9920 C   0  0  2  0  0  0  0  0  0  0  0  0
    6.0237  -17.8445   22.4685 N   0  0  0  0  0  0  0  0  0  0  0  0
    7.6481  -16.2363   23.1595 C   0  0  0  0  0  0  0  0  0  0  0  0
    7.0092  -15.4913   23.9670 O   0  0  0  0  0  0  0  0  0  0  0  0
    9.4049  -11.7060   19.2229 N   0  0  0  0  0  0  0  0  0  0  0  0
    9.0138  -16.4398   23.4222 C   0  0  1  0  0  0  0  0  0  0  0  0
    9.7011  -15.7600   24.5023 C   0  0  0  0  0  0  0  0  0  0  0  0
    9.1052  -16.0258   25.8375 C   0  0  0  0  0  0  0  0  0  0  0  0
    7.8311  -15.2789   25.9635 C   0  0  0  0  0  0  0  0  0  0  0  0
    6.5335  -15.7865   25.8393 N   0  0  0  0  0  0  0  0  0  0  0  0
    5.6445  -14.7961   26.0111 C   0  0  0  0  0  0  0  0  0  0  0  0
    6.2861  -13.6485   26.2447 C   0  0  0  0  0  0  0  0  0  0  0  0
    5.8400  -12.3466   26.4849 C   0  0  0  0  0  0  0  0  0  0  0  0
    6.7913  -11.3866   26.6884 C   0  0  0  0  0  0  0  0  0  0  0  0
    8.1390  -11.6186   26.6716 C   0  0  0  0  0  0  0  0  0  0  0  0
    8.5650  -12.9189   26.4312 C   0  0  0  0  0  0  0  0  0  0  0  0
    7.6383  -13.9270   26.2191 C   0  0  0  0  0  0  0  0  0  0  0  0
   11.1433  -16.0911   24.5249 O   0  0  0  0  0  0  0  0  0  0  0  0
   11.6969  -16.8730   23.7212 O   0  0  0  0  0  0  0  0  0  0  0  0
  1  2  1  0
  3  2  1  0
  3  4  1  1
  5  6  2  0
  5  3  1  0
  8  9  2  0
  8  7  1  0
 10  8  1  0
 11 12  1  0
 11 10  1  0
 13 12  1  0
 14 13  1  1
 14 15  1  0
 15  5  1  0
 16 14  1  0
 16 17  2  0
 18 16  1  0
 19 18  1  0
 19 30  1  0
 19 20  1  1
 21 20  1  0
 22 21  2  0
 23 22  1  0
 24 23  1  0
 24 29  2  0
 25 26  2  0
 25 24  1  0
 26 27  1  0
 27 28  2  0
 29 28  1  0
 29 21  1  0
 30 31  2  0
 30 32  1  0
M  END
$$$$
