SRW.pdb
     RDKit          3D

 32 33  0  0  1  0  0  0  0  0999 V2000
    6.1494  -16.6096   18.6352 O   0  0  0  0  0  0  0  0  0  0  0  0
    5.3748  -16.5146   19.7840 C   0  0  0  0  0  0  0  0  0  0  0  0
    6.2279  -16.0123   20.9341 C   0  0  2  0  0  0  0  0  0  0  0  0
    6.8792  -14.7833   20.4804 N   0  0  0  0  0  0  0  0  0  0  0  0
    7.2777  -17.0043   21.2394 C   0  0  0  0  0  0  0  0  0  0  0  0
    6.9456  -18.1483   21.6243 O   0  0  0  0  0  0  0  0  0  0  0  0
   14.9385  -18.9234   18.9073 N   0  0  0  0  0  0  0  0  0  0  0  0
   14.6231  -20.1974   19.4338 C   0  0  0  0  0  0  0  0  0  0  0  0
   15.4857  -21.1586   19.4654 N   0  0  0  0  0  0  0  0  0  0  0  0
   13.3021  -20.4121   19.9436 N   0  0  0  0  0  0  0  0  0  0  0  0
   12.2196  -19.5601   19.5630 C   0  0  0  0  0  0  0  0  0  0  0  0
   11.7858  -18.7401   20.7573 C   0  0  0  0  0  0  0  0  0  0  0  0
   10.7691  -17.7136   20.3696 C   0  0  0  0  0  0  0  0  0  0  0  0
    9.6700  -17.6812   21.4106 C   0  0  2  0  0  0  0  0  0  0  0  0
    8.6578  -16.7104   21.1130 N   0  0  0  0  0  0  0  0  0  0  0  0
   10.2345  -17.4005   22.7683 C   0  0  0  0  0  0  0  0  0  0  0  0
   11.3245  -17.9466   23.1274 O   0  0  0  0  0  0  0  0  0  0  0  0
   15.2922  -22.1025   19.8086 N   0  0  0  0  0  0  0  0  0  0  0  0
    9.6129  -16.5452   23.6944 C   0  0  1  0  0  0  0  0  0  0  0  0
   10.1946  -16.2588   24.9909 C   0  0  0  0  0  0  0  0  0  0  0  0
   10.0041  -14.8493   25.4220 C   0  0  0  0  0  0  0  0  0  0  0  0
    8.5843  -14.4668   25.2350 C   0  0  0  0  0  0  0  0  0  0  0  0
    7.6038  -15.1646   24.5220 N   0  0  0  0  0  0  0  0  0  0  0  0
    6.4438  -14.4922   24.5764 C   0  0  0  0  0  0  0  0  0  0  0  0
    6.6014  -13.3763   25.2926 C   0  0  0  0  0  0  0  0  0  0  0  0
    5.7258  -12.3467   25.6460 C   0  0  0  0  0  0  0  0  0  0  0  0
    6.2303  -11.3295   26.4068 C   0  0  0  0  0  0  0  0  0  0  0  0
    7.5257  -11.2574   26.8393 C   0  0  0  0  0  0  0  0  0  0  0  0
    8.3827  -12.2897   26.4787 C   0  0  0  0  0  0  0  0  0  0  0  0
    7.9179  -13.3433   25.7081 C   0  0  0  0  0  0  0  0  0  0  0  0
    9.6791  -17.1733   26.0340 O   0  0  0  0  0  0  0  0  0  0  0  0
    8.7524  -17.9932   25.8534 O   0  0  0  0  0  0  0  0  0  0  0  0
  1  2  1  0
  3  2  1  0
  3  4  1  6
  5  6  2  0
  5  3  1  0
  8  9  2  0
  8  7  1  0
 10  8  1  0
 11 12  1  0
 11 10  1  0
 13 12  1  0
 14 13  1  6
 14 15  1  0
 15  5  1  0
 16 14  1  0
 16 17  2  0
 18 16  1  0
 19 18  1  0
 19 30  1  0
 19 20  1  1
 21 20  1  0
 22 21  2  0
 23 22  1  0
 24 23  1  0
 24 29  2  0
 25 26  2  0
 25 24  1  0
 26 27  1  0
 27 28  2  0
 29 28  1  0
 29 21  1  0
 30 31  2  0
 30 32  1  0
M  END
$$$$
