SRW.pdb
     RDKit          3D

 32 33  0  0  1  0  0  0  0  0999 V2000
    8.5261  -19.7654   22.9206 O   0  0  0  0  0  0  0  0  0  0  0  0
    7.2622  -19.5898   22.3723 C   0  0  0  0  0  0  0  0  0  0  0  0
    7.3844  -18.9326   21.0100 C   0  0  2  0  0  0  0  0  0  0  0  0
    7.9756  -19.9212   20.1080 N   0  0  0  0  0  0  0  0  0  0  0  0
    8.3043  -17.7814   21.0983 C   0  0  0  0  0  0  0  0  0  0  0  0
    9.4888  -17.9135   20.7151 O   0  0  0  0  0  0  0  0  0  0  0  0
    8.6449  -15.1828   16.1763 N   0  0  0  0  0  0  0  0  0  0  0  0
    8.2947  -13.8670   16.5582 C   0  0  0  0  0  0  0  0  0  0  0  0
    8.2046  -12.9054   15.7002 N   0  0  0  0  0  0  0  0  0  0  0  0
    8.0354  -13.6094   17.9429 N   0  0  0  0  0  0  0  0  0  0  0  0
    7.9914  -14.6757   18.8935 C   0  0  0  0  0  0  0  0  0  0  0  0
    7.1564  -14.2520   20.0809 C   0  0  0  0  0  0  0  0  0  0  0  0
    7.9992  -14.0899   21.3061 C   0  0  0  0  0  0  0  0  0  0  0  0
    8.7560  -15.3755   21.5654 C   0  0  2  0  0  0  0  0  0  0  0  0
    7.8965  -16.5224   21.6038 N   0  0  0  0  0  0  0  0  0  0  0  0
    9.5187  -15.2912   22.8507 C   0  0  0  0  0  0  0  0  0  0  0  0
   10.4405  -14.4267   22.9857 O   0  0  0  0  0  0  0  0  0  0  0  0
    7.9516  -11.9417   15.9313 N   0  0  0  0  0  0  0  0  0  0  0  0
    9.2685  -16.1349   23.9466 C   0  0  1  0  0  0  0  0  0  0  0  0
   10.0166  -16.0341   25.1841 C   0  0  0  0  0  0  0  0  0  0  0  0
    9.1691  -16.1780   26.3965 C   0  0  0  0  0  0  0  0  0  0  0  0
    7.9169  -15.4060   26.2141 C   0  0  0  0  0  0  0  0  0  0  0  0
    6.6627  -15.8987   25.8384 N   0  0  0  0  0  0  0  0  0  0  0  0
    5.7834  -14.8873   25.7721 C   0  0  0  0  0  0  0  0  0  0  0  0
    6.3899  -13.7398   26.0857 C   0  0  0  0  0  0  0  0  0  0  0  0
    5.9366  -12.4209   26.1668 C   0  0  0  0  0  0  0  0  0  0  0  0
    6.8473  -11.4670   26.5256 C   0  0  0  0  0  0  0  0  0  0  0  0
    8.1613  -11.7205   26.8073 C   0  0  0  0  0  0  0  0  0  0  0  0
    8.5951  -13.0376   26.7217 C   0  0  0  0  0  0  0  0  0  0  0  0
    7.7091  -14.0403   26.3619 C   0  0  0  0  0  0  0  0  0  0  0  0
   11.1258  -17.0126   25.2322 O   0  0  0  0  0  0  0  0  0  0  0  0
   12.3363  -16.7006   25.2647 O   0  0  0  0  0  0  0  0  0  0  0  0
  1  2  1  0
  3  2  1  0
  3  4  1  6
  5  6  2  0
  5  3  1  0
  8  9  2  0
  8  7  1  0
 10  8  1  0
 11 12  1  0
 11 10  1  0
 13 12  1  0
 14 13  1  1
 14 15  1  0
 15  5  1  0
 16 14  1  0
 16 17  2  0
 18 16  1  0
 19 18  1  0
 19 30  1  0
 19 20  1  1
 21 20  1  0
 22 21  2  0
 23 22  1  0
 24 23  1  0
 24 29  2  0
 25 26  2  0
 25 24  1  0
 26 27  1  0
 27 28  2  0
 29 28  1  0
 29 21  1  0
 30 31  2  0
 30 32  1  0
M  END
$$$$
