SRW.pdb
     RDKit          3D

 32 33  0  0  1  0  0  0  0  0999 V2000
    7.3620  -18.4277   25.3162 O   0  0  0  0  0  0  0  0  0  0  0  0
    6.0759  -18.1314   24.8837 C   0  0  0  0  0  0  0  0  0  0  0  0
    5.9473  -18.4555   23.4068 C   0  0  2  0  0  0  0  0  0  0  0  0
    6.2066  -19.8876   23.2575 N   0  0  0  0  0  0  0  0  0  0  0  0
    6.9781  -17.7193   22.6487 C   0  0  0  0  0  0  0  0  0  0  0  0
    7.9924  -18.3303   22.2423 O   0  0  0  0  0  0  0  0  0  0  0  0
    7.6253  -13.0139   16.0522 N   0  0  0  0  0  0  0  0  0  0  0  0
    8.0199  -14.2817   16.5387 C   0  0  0  0  0  0  0  0  0  0  0  0
    8.1011  -15.3162   15.7692 N   0  0  0  0  0  0  0  0  0  0  0  0
    8.3358  -14.4055   17.9301 N   0  0  0  0  0  0  0  0  0  0  0  0
    8.0810  -13.3333   18.8402 C   0  0  0  0  0  0  0  0  0  0  0  0
    8.5195  -13.7420   20.2286 C   0  0  0  0  0  0  0  0  0  0  0  0
    7.3965  -14.3754   20.9872 C   0  0  0  0  0  0  0  0  0  0  0  0
    7.9073  -15.6127   21.6950 C   0  0  2  0  0  0  0  0  0  0  0  0
    6.8640  -16.3370   22.3602 N   0  0  0  0  0  0  0  0  0  0  0  0
    8.9667  -15.2544   22.6900 C   0  0  0  0  0  0  0  0  0  0  0  0
    9.4939  -14.0982   22.6667 O   0  0  0  0  0  0  0  0  0  0  0  0
    8.4309  -16.2376   16.0665 N   0  0  0  0  0  0  0  0  0  0  0  0
    9.4252  -16.1459   23.6751 C   0  0  1  0  0  0  0  0  0  0  0  0
   10.5815  -15.8559   24.4998 C   0  0  0  0  0  0  0  0  0  0  0  0
   10.4875  -14.5516   25.2060 C   0  0  0  0  0  0  0  0  0  0  0  0
    9.1981  -14.4796   25.9336 C   0  0  0  0  0  0  0  0  0  0  0  0
    8.6543  -15.4389   26.7944 N   0  0  0  0  0  0  0  0  0  0  0  0
    7.4667  -15.0122   27.2509 C   0  0  0  0  0  0  0  0  0  0  0  0
    7.1895  -13.8118   26.7359 C   0  0  0  0  0  0  0  0  0  0  0  0
    6.1031  -12.9461   26.8845 C   0  0  0  0  0  0  0  0  0  0  0  0
    6.1436  -11.7669   26.1944 C   0  0  0  0  0  0  0  0  0  0  0  0
    7.1707  -11.3856   25.3760 C   0  0  0  0  0  0  0  0  0  0  0  0
    8.2429  -12.2586   25.2398 C   0  0  0  0  0  0  0  0  0  0  0  0
    8.2479  -13.4661   25.9193 C   0  0  0  0  0  0  0  0  0  0  0  0
   10.8378  -16.9357   25.4789 O   0  0  0  0  0  0  0  0  0  0  0  0
   10.0536  -17.8844   25.6991 O   0  0  0  0  0  0  0  0  0  0  0  0
  1  2  1  0
  3  2  1  0
  3  4  1  1
  5  6  2  0
  5  3  1  0
  8  9  2  0
  8  7  1  0
 10  8  1  0
 11 12  1  0
 11 10  1  0
 13 12  1  0
 14 13  1  1
 14 15  1  0
 15  5  1  0
 16 14  1  0
 16 17  2  0
 18 16  1  0
 19 18  1  0
 19 30  1  0
 19 20  1  6
 21 20  1  0
 22 21  2  0
 23 22  1  0
 24 23  1  0
 24 29  2  0
 25 26  2  0
 25 24  1  0
 26 27  1  0
 27 28  2  0
 29 28  1  0
 29 21  1  0
 30 31  2  0
 30 32  1  0
M  END
$$$$
