SRW.pdb
     RDKit          3D

 32 33  0  0  1  0  0  0  0  0999 V2000
   10.2832  -13.3455   17.4194 O   0  0  0  0  0  0  0  0  0  0  0  0
    9.8136  -13.5814   18.7049 C   0  0  0  0  0  0  0  0  0  0  0  0
    8.3730  -14.0543   18.6427 C   0  0  2  0  0  0  0  0  0  0  0  0
    7.5401  -12.8679   18.4442 N   0  0  0  0  0  0  0  0  0  0  0  0
    7.9994  -14.6689   19.9318 C   0  0  0  0  0  0  0  0  0  0  0  0
    7.6770  -13.9317   20.8909 O   0  0  0  0  0  0  0  0  0  0  0  0
    8.3753  -21.3245   24.0108 N   0  0  0  0  0  0  0  0  0  0  0  0
    7.0590  -21.2566   24.5233 C   0  0  0  0  0  0  0  0  0  0  0  0
    6.7462  -21.7482   25.6763 N   0  0  0  0  0  0  0  0  0  0  0  0
    6.0535  -20.6199   23.7267 N   0  0  0  0  0  0  0  0  0  0  0  0
    6.3563  -20.1190   22.4229 C   0  0  0  0  0  0  0  0  0  0  0  0
    6.8799  -18.7051   22.5403 C   0  0  0  0  0  0  0  0  0  0  0  0
    7.1083  -18.0979   21.1924 C   0  0  0  0  0  0  0  0  0  0  0  0
    7.5588  -16.6622   21.3612 C   0  0  2  0  0  0  0  0  0  0  0  0
    7.9911  -16.0719   20.1283 N   0  0  0  0  0  0  0  0  0  0  0  0
    8.6661  -16.5689   22.3642 C   0  0  0  0  0  0  0  0  0  0  0  0
    9.7887  -17.1135   22.1223 O   0  0  0  0  0  0  0  0  0  0  0  0
    5.8386  -21.6285   26.1326 N   0  0  0  0  0  0  0  0  0  0  0  0
    8.5335  -15.8962   23.5912 C   0  0  2  0  0  0  0  0  0  0  0  0
    9.5920  -15.8824   24.5815 C   0  0  0  0  0  0  0  0  0  0  0  0
    9.6312  -14.6310   25.3823 C   0  0  0  0  0  0  0  0  0  0  0  0
    8.2459  -14.1921   25.6747 C   0  0  0  0  0  0  0  0  0  0  0  0
    7.1054  -14.9951   25.7805 N   0  0  0  0  0  0  0  0  0  0  0  0
    6.0374  -14.2272   26.0461 C   0  0  0  0  0  0  0  0  0  0  0  0
    6.4093  -12.9470   26.1232 C   0  0  0  0  0  0  0  0  0  0  0  0
    5.7010  -11.7690   26.3722 C   0  0  0  0  0  0  0  0  0  0  0  0
    6.4113  -10.6012   26.3790 C   0  0  0  0  0  0  0  0  0  0  0  0
    7.7583  -10.5150   26.1595 C   0  0  0  0  0  0  0  0  0  0  0  0
    8.4470  -11.6962   25.9134 C   0  0  0  0  0  0  0  0  0  0  0  0
    7.7708  -12.9056   25.8964 C   0  0  0  0  0  0  0  0  0  0  0  0
    9.5080  -17.0507   25.4859 O   0  0  0  0  0  0  0  0  0  0  0  0
    8.5350  -17.8349   25.5315 O   0  0  0  0  0  0  0  0  0  0  0  0
  1  2  1  0
  3  2  1  0
  3  4  1  1
  5  6  2  0
  5  3  1  0
  8  9  2  0
  8  7  1  0
 10  8  1  0
 11 12  1  0
 11 10  1  0
 13 12  1  0
 14 13  1  6
 14 15  1  0
 15  5  1  0
 16 14  1  0
 16 17  2  0
 18 16  1  0
 19 18  1  0
 19 30  1  0
 19 20  1  6
 21 20  1  0
 22 21  2  0
 23 22  1  0
 24 23  1  0
 24 29  2  0
 25 26  2  0
 25 24  1  0
 26 27  1  0
 27 28  2  0
 29 28  1  0
 29 21  1  0
 30 31  2  0
 30 32  1  0
M  END
$$$$
