SRW.pdb
     RDKit          3D

 32 33  0  0  1  0  0  0  0  0999 V2000
    9.6263  -12.1476   19.9416 O   0  0  0  0  0  0  0  0  0  0  0  0
    9.7778  -13.0243   18.8752 C   0  0  0  0  0  0  0  0  0  0  0  0
    8.5241  -13.8661   18.7251 C   0  0  2  0  0  0  0  0  0  0  0  0
    7.3865  -12.9460   18.7276 N   0  0  0  0  0  0  0  0  0  0  0  0
    8.3916  -14.7654   19.8882 C   0  0  0  0  0  0  0  0  0  0  0  0
    7.5917  -14.4679   20.8041 O   0  0  0  0  0  0  0  0  0  0  0  0
   10.2707  -20.1554   16.9455 N   0  0  0  0  0  0  0  0  0  0  0  0
   11.3515  -20.0213   17.8475 C   0  0  0  0  0  0  0  0  0  0  0  0
   12.5734  -19.9144   17.4419 N   0  0  0  0  0  0  0  0  0  0  0  0
   11.0654  -20.0054   19.2507 N   0  0  0  0  0  0  0  0  0  0  0  0
    9.7397  -20.2333   19.7334 C   0  0  0  0  0  0  0  0  0  0  0  0
    9.0602  -18.9038   19.9734 C   0  0  0  0  0  0  0  0  0  0  0  0
    9.7814  -18.1064   21.0135 C   0  0  0  0  0  0  0  0  0  0  0  0
    9.0865  -16.7728   21.1912 C   0  0  2  0  0  0  0  0  0  0  0  0
    9.1401  -15.9620   20.0100 N   0  0  0  0  0  0  0  0  0  0  0  0
    9.6828  -16.0131   22.3349 C   0  0  0  0  0  0  0  0  0  0  0  0
    9.8841  -14.7626   22.2296 O   0  0  0  0  0  0  0  0  0  0  0  0
   13.3880  -19.8604   18.0581 N   0  0  0  0  0  0  0  0  0  0  0  0
   10.0429  -16.6180   23.5514 C   0  0  1  0  0  0  0  0  0  0  0  0
    9.5976  -16.1022   24.8308 C   0  0  0  0  0  0  0  0  0  0  0  0
    8.1180  -16.0448   24.9585 C   0  0  0  0  0  0  0  0  0  0  0  0
    7.6563  -14.6611   24.6952 C   0  0  0  0  0  0  0  0  0  0  0  0
    7.3803  -14.0801   23.4530 N   0  0  0  0  0  0  0  0  0  0  0  0
    6.9953  -12.8065   23.6275 C   0  0  0  0  0  0  0  0  0  0  0  0
    7.0006  -12.5071   24.9289 C   0  0  0  0  0  0  0  0  0  0  0  0
    6.6901  -11.3413   25.6331 C   0  0  0  0  0  0  0  0  0  0  0  0
    6.8068  -11.3825   26.9943 C   0  0  0  0  0  0  0  0  0  0  0  0
    7.2047  -12.4826   27.7026 C   0  0  0  0  0  0  0  0  0  0  0  0
    7.5096  -13.6333   26.9863 C   0  0  0  0  0  0  0  0  0  0  0  0
    7.4064  -13.6409   25.6045 C   0  0  0  0  0  0  0  0  0  0  0  0
   10.1659  -16.8746   25.9580 O   0  0  0  0  0  0  0  0  0  0  0  0
   10.1572  -18.1230   26.0287 O   0  0  0  0  0  0  0  0  0  0  0  0
  1  2  1  0
  3  2  1  0
  3  4  1  1
  5  6  2  0
  5  3  1  0
  8  9  2  0
  8  7  1  0
 10  8  1  0
 11 12  1  0
 11 10  1  0
 13 12  1  0
 14 13  1  6
 14 15  1  0
 15  5  1  0
 16 14  1  0
 16 17  2  0
 18 16  1  0
 19 18  1  0
 19 30  1  0
 19 20  1  1
 21 20  1  0
 22 21  2  0
 23 22  1  0
 24 23  1  0
 24 29  2  0
 25 26  2  0
 25 24  1  0
 26 27  1  0
 27 28  2  0
 29 28  1  0
 29 21  1  0
 30 31  2  0
 30 32  1  0
M  END
$$$$
