ADP.pdb
     RDKit          3D

 21 21  0  0  1  0  0  0  0  0999 V2000
    8.1778  -12.3851   19.7493 C   0  0  0  0  0  0  0  0  0  0  0  0
    8.3298  -13.8978   19.8988 C   0  0  2  0  0  0  0  0  0  0  0  0
    7.3975  -14.4490   18.8903 N   0  0  0  0  0  0  0  0  0  0  0  0
    7.7898  -14.3122   21.2204 C   0  0  0  0  0  0  0  0  0  0  0  0
    6.5637  -14.1052   21.5166 O   0  0  0  0  0  0  0  0  0  0  0  0
    8.5535  -14.9566   22.2340 N   0  0  0  0  0  0  0  0  0  0  0  0
    7.9437  -15.2730   23.5247 C   0  0  1  0  0  0  0  0  0  0  0  0
    7.9925  -16.7815   23.7107 C   0  0  0  0  0  0  0  0  0  0  0  0
    7.3983  -17.4960   22.5959 C   0  0  0  0  0  0  0  0  0  0  0  0
    6.1736  -17.6553   22.4153 O   0  0  0  0  0  0  0  0  0  0  0  0
    8.5612  -14.5326   24.6475 C   0  0  0  0  0  0  0  0  0  0  0  0
    9.8349  -14.2687   24.5845 O   0  0  0  0  0  0  0  0  0  0  0  0
    8.2036  -18.0917   21.5861 O   0  0  0  0  0  0  0  0  0  0  0  0
    7.9251  -14.0584   25.8169 N   0  0  0  0  0  0  0  0  0  0  0  0
    6.4486  -14.1580   25.9963 C   0  0  0  0  0  0  0  0  0  0  0  0
    6.1747  -12.7003   26.3989 C   0  0  0  0  0  0  0  0  0  0  0  0
    7.2209  -12.5503   27.4922 C   0  0  0  0  0  0  0  0  0  0  0  0
    8.3914  -13.4345   27.0124 C   0  0  1  0  0  0  0  0  0  0  0  0
    8.5720  -14.4545   28.0998 C   0  0  0  0  0  0  0  0  0  0  0  0
    9.1656  -14.2124   29.1758 O   0  0  0  0  0  0  0  0  0  0  0  0
    8.0613  -15.7277   27.9139 O   0  0  0  0  0  0  0  0  0  0  0  0
  2  1  1  1
  2  3  1  0
  4  2  1  0
  5  4  2  0
  6  4  1  0
  7 11  1  0
  7  6  1  0
  7  8  1  1
  9 10  2  0
  9  8  1  0
 11 14  1  0
 12 11  2  0
 13  9  1  0
 14 15  1  0
 14 18  1  0
 15 16  1  0
 16 17  1  0
 18 17  1  0
 18 19  1  1
 19 21  1  0
 20 19  2  0
M  END
$$$$
