ADP.pdb
     RDKit          3D

 21 21  0  0  1  0  0  0  0  0999 V2000
    8.2963  -12.2614   19.6262 C   0  0  0  0  0  0  0  0  0  0  0  0
    8.3552  -13.7850   19.7210 C   0  0  2  0  0  0  0  0  0  0  0  0
    7.3903  -14.2413   18.6958 N   0  0  0  0  0  0  0  0  0  0  0  0
    7.7913  -14.2127   21.0283 C   0  0  0  0  0  0  0  0  0  0  0  0
    6.5572  -14.0191   21.2996 O   0  0  0  0  0  0  0  0  0  0  0  0
    8.5394  -14.8562   22.0539 N   0  0  0  0  0  0  0  0  0  0  0  0
    7.9239  -15.1293   23.3519 C   0  0  1  0  0  0  0  0  0  0  0  0
    7.7927  -16.6368   23.5022 C   0  0  0  0  0  0  0  0  0  0  0  0
    7.2376  -17.2649   22.3174 C   0  0  0  0  0  0  0  0  0  0  0  0
    6.0323  -17.2487   21.9934 O   0  0  0  0  0  0  0  0  0  0  0  0
    8.6514  -14.4981   24.4755 C   0  0  0  0  0  0  0  0  0  0  0  0
    9.9416  -14.3548   24.3707 O   0  0  0  0  0  0  0  0  0  0  0  0
    8.0626  -17.9745   21.4016 O   0  0  0  0  0  0  0  0  0  0  0  0
    8.1079  -14.0139   25.6867 N   0  0  0  0  0  0  0  0  0  0  0  0
    6.6400  -14.0332   25.9455 C   0  0  0  0  0  0  0  0  0  0  0  0
    6.4731  -12.5714   26.3893 C   0  0  0  0  0  0  0  0  0  0  0  0
    7.5838  -12.5046   27.4258 C   0  0  0  0  0  0  0  0  0  0  0  0
    8.6734  -13.4434   26.8660 C   0  0  1  0  0  0  0  0  0  0  0  0
    8.8531  -14.4953   27.9228 C   0  0  0  0  0  0  0  0  0  0  0  0
    8.2692  -15.6030   27.8945 O   0  0  0  0  0  0  0  0  0  0  0  0
    9.7033  -14.2381   28.9845 O   0  0  0  0  0  0  0  0  0  0  0  0
  2  1  1  1
  2  3  1  0
  4  2  1  0
  5  4  2  0
  6  4  1  0
  7 11  1  0
  7  6  1  0
  7  8  1  1
  9 10  2  0
  9  8  1  0
 11 14  1  0
 12 11  2  0
 13  9  1  0
 14 15  1  0
 14 18  1  0
 15 16  1  0
 16 17  1  0
 18 17  1  0
 18 19  1  1
 19 21  1  0
 20 19  2  0
M  END
$$$$
