ADP.pdb
     RDKit          3D

 21 21  0  0  1  0  0  0  0  0999 V2000
   12.0555  -16.1680   14.0681 C   0  0  0  0  0  0  0  0  0  0  0  0
   10.5823  -16.4302   13.7607 C   0  0  2  0  0  0  0  0  0  0  0  0
   10.2307  -15.3746   12.7849 N   0  0  0  0  0  0  0  0  0  0  0  0
    9.7743  -16.1456   14.9755 C   0  0  0  0  0  0  0  0  0  0  0  0
    9.2038  -15.0117   15.1271 O   0  0  0  0  0  0  0  0  0  0  0  0
    9.5639  -17.0718   16.0356 N   0  0  0  0  0  0  0  0  0  0  0  0
    8.6613  -16.7371   17.1362 C   0  0  1  0  0  0  0  0  0  0  0  0
    7.9982  -18.0218   17.6077 C   0  0  0  0  0  0  0  0  0  0  0  0
    7.1335  -17.8098   18.7539 C   0  0  0  0  0  0  0  0  0  0  0  0
    5.9647  -17.3749   18.7014 O   0  0  0  0  0  0  0  0  0  0  0  0
    9.3369  -16.0015   18.2282 C   0  0  0  0  0  0  0  0  0  0  0  0
   10.5971  -16.2458   18.4475 O   0  0  0  0  0  0  0  0  0  0  0  0
    7.5750  -18.0945   20.0756 O   0  0  0  0  0  0  0  0  0  0  0  0
    8.7719  -15.0355   19.0911 N   0  0  0  0  0  0  0  0  0  0  0  0
    7.3138  -14.7266   19.0675 C   0  0  0  0  0  0  0  0  0  0  0  0
    7.4122  -13.1963   18.9671 C   0  0  0  0  0  0  0  0  0  0  0  0
    8.3830  -12.9405   20.1092 C   0  0  0  0  0  0  0  0  0  0  0  0
    9.3048  -14.1783   20.0996 C   0  0  1  0  0  0  0  0  0  0  0  0
    9.1315  -14.7958   21.4576 C   0  0  0  0  0  0  0  0  0  0  0  0
    8.3690  -15.7646   21.6784 O   0  0  0  0  0  0  0  0  0  0  0  0
    9.8447  -14.2765   22.5243 O   0  0  0  0  0  0  0  0  0  0  0  0
  2  1  1  1
  2  3  1  0
  4  2  1  0
  5  4  2  0
  6  4  1  0
  7 11  1  0
  7  6  1  0
  7  8  1  1
  9 10  2  0
  9  8  1  0
 11 14  1  0
 12 11  2  0
 13  9  1  0
 14 15  1  0
 14 18  1  0
 15 16  1  0
 16 17  1  0
 18 17  1  0
 18 19  1  1
 19 21  1  0
 20 19  2  0
M  END
$$$$
