ADP.pdb
     RDKit          3D

 21 21  0  0  1  0  0  0  0  0999 V2000
   11.7284  -16.5608   21.1851 C   0  0  0  0  0  0  0  0  0  0  0  0
   10.2457  -16.2505   20.9878 C   0  0  2  0  0  0  0  0  0  0  0  0
   10.2476  -14.9755   20.2363 N   0  0  0  0  0  0  0  0  0  0  0  0
    9.6338  -15.9432   22.3072 C   0  0  0  0  0  0  0  0  0  0  0  0
    9.7266  -14.7720   22.8110 O   0  0  0  0  0  0  0  0  0  0  0  0
    8.9124  -16.8826   23.0965 N   0  0  0  0  0  0  0  0  0  0  0  0
    8.4001  -16.4987   24.4111 C   0  0  1  0  0  0  0  0  0  0  0  0
    7.4345  -17.5788   24.8732 C   0  0  0  0  0  0  0  0  0  0  0  0
    6.8610  -17.2885   26.1744 C   0  0  0  0  0  0  0  0  0  0  0  0
    7.1069  -16.2732   26.8576 O   0  0  0  0  0  0  0  0  0  0  0  0
    9.4770  -16.2297   25.3899 C   0  0  0  0  0  0  0  0  0  0  0  0
   10.6282  -16.8129   25.2146 O   0  0  0  0  0  0  0  0  0  0  0  0
    5.9383  -18.1783   26.7908 O   0  0  0  0  0  0  0  0  0  0  0  0
    9.4150  -15.3928   26.5269 N   0  0  0  0  0  0  0  0  0  0  0  0
    8.1804  -14.6299   26.8671 C   0  0  0  0  0  0  0  0  0  0  0  0
    8.8199  -13.2457   27.0583 C   0  0  0  0  0  0  0  0  0  0  0  0
    9.9481  -13.6284   28.0032 C   0  0  0  0  0  0  0  0  0  0  0  0
   10.3435  -15.0514   27.5551 C   0  0  1  0  0  0  0  0  0  0  0  0
   10.1225  -15.9103   28.7672 C   0  0  0  0  0  0  0  0  0  0  0  0
    9.1477  -16.6873   28.8889 O   0  0  0  0  0  0  0  0  0  0  0  0
   11.0347  -15.8476   29.8065 O   0  0  0  0  0  0  0  0  0  0  0  0
  2  1  1  1
  2  3  1  0
  4  2  1  0
  5  4  2  0
  6  4  1  0
  7 11  1  0
  7  6  1  0
  7  8  1  1
  9 10  2  0
  9  8  1  0
 11 14  1  0
 12 11  2  0
 13  9  1  0
 14 15  1  0
 14 18  1  0
 15 16  1  0
 16 17  1  0
 18 17  1  0
 18 19  1  1
 19 21  1  0
 20 19  2  0
M  END
$$$$
