ADP.pdb
     RDKit          3D

 21 21  0  0  1  0  0  0  0  0999 V2000
    8.2386  -12.2461   19.3424 C   0  0  0  0  0  0  0  0  0  0  0  0
    8.4141  -13.7586   19.4665 C   0  0  2  0  0  0  0  0  0  0  0  0
    7.5997  -14.3019   18.3566 N   0  0  0  0  0  0  0  0  0  0  0  0
    7.7579  -14.2230   20.7168 C   0  0  0  0  0  0  0  0  0  0  0  0
    6.6756  -14.9017   20.6707 O   0  0  0  0  0  0  0  0  0  0  0  0
    8.2555  -13.9716   22.0264 N   0  0  0  0  0  0  0  0  0  0  0  0
    7.8034  -14.7859   23.1536 C   0  0  1  0  0  0  0  0  0  0  0  0
    7.9074  -16.2480   22.7490 C   0  0  0  0  0  0  0  0  0  0  0  0
    7.6117  -17.1488   23.8479 C   0  0  0  0  0  0  0  0  0  0  0  0
    6.5665  -17.1311   24.5300 O   0  0  0  0  0  0  0  0  0  0  0  0
    8.5273  -14.4810   24.4079 C   0  0  0  0  0  0  0  0  0  0  0  0
    9.8110  -14.6971   24.4461 O   0  0  0  0  0  0  0  0  0  0  0  0
    8.5312  -18.1592   24.2435 O   0  0  0  0  0  0  0  0  0  0  0  0
    7.9870  -13.9675   25.6084 N   0  0  0  0  0  0  0  0  0  0  0  0
    6.5174  -13.7974   25.7921 C   0  0  0  0  0  0  0  0  0  0  0  0
    6.5219  -12.3416   26.2843 C   0  0  0  0  0  0  0  0  0  0  0  0
    7.5727  -12.4586   27.3772 C   0  0  0  0  0  0  0  0  0  0  0  0
    8.5573  -13.5169   26.8362 C   0  0  1  0  0  0  0  0  0  0  0  0
    8.5373  -14.6170   27.8584 C   0  0  0  0  0  0  0  0  0  0  0  0
    7.7983  -15.6242   27.7679 O   0  0  0  0  0  0  0  0  0  0  0  0
    9.3725  -14.5231   28.9584 O   0  0  0  0  0  0  0  0  0  0  0  0
  2  1  1  1
  2  3  1  0
  4  2  1  0
  5  4  2  0
  6  4  1  0
  7 11  1  0
  7  6  1  0
  7  8  1  6
  9 10  2  0
  9  8  1  0
 11 14  1  0
 12 11  2  0
 13  9  1  0
 14 15  1  0
 14 18  1  0
 15 16  1  0
 16 17  1  0
 18 17  1  0
 18 19  1  1
 19 21  1  0
 20 19  2  0
M  END
$$$$
