ADP.pdb
     RDKit          3D

 21 21  0  0  1  0  0  0  0  0999 V2000
    7.7040  -12.9859   19.2212 C   0  0  0  0  0  0  0  0  0  0  0  0
    8.7938  -13.4648   20.1787 C   0  0  2  0  0  0  0  0  0  0  0  0
    9.2488  -14.7427   19.5869 N   0  0  0  0  0  0  0  0  0  0  0  0
    8.1738  -13.8191   21.4825 C   0  0  0  0  0  0  0  0  0  0  0  0
    7.6333  -12.9195   22.2122 O   0  0  0  0  0  0  0  0  0  0  0  0
    8.1205  -15.1382   22.0146 N   0  0  0  0  0  0  0  0  0  0  0  0
    7.5487  -15.3739   23.3395 C   0  0  1  0  0  0  0  0  0  0  0  0
    7.3138  -16.8687   23.4911 C   0  0  0  0  0  0  0  0  0  0  0  0
    6.3449  -17.3762   22.5371 C   0  0  0  0  0  0  0  0  0  0  0  0
    6.6251  -17.9563   21.4681 O   0  0  0  0  0  0  0  0  0  0  0  0
    8.3731  -14.8056   24.4292 C   0  0  0  0  0  0  0  0  0  0  0  0
    9.6690  -14.8451   24.3056 O   0  0  0  0  0  0  0  0  0  0  0  0
    4.9468  -17.2429   22.7617 O   0  0  0  0  0  0  0  0  0  0  0  0
    7.9200  -14.2048   25.6253 N   0  0  0  0  0  0  0  0  0  0  0  0
    6.4692  -13.9800   25.8839 C   0  0  0  0  0  0  0  0  0  0  0  0
    6.5417  -12.4979   26.2839 C   0  0  0  0  0  0  0  0  0  0  0  0
    7.6531  -12.5802   27.3184 C   0  0  0  0  0  0  0  0  0  0  0  0
    8.5751  -13.6982   26.7872 C   0  0  1  0  0  0  0  0  0  0  0  0
    8.5880  -14.7337   27.8750 C   0  0  0  0  0  0  0  0  0  0  0  0
    7.8586  -15.7518   27.8616 O   0  0  0  0  0  0  0  0  0  0  0  0
    9.4440  -14.5641   28.9495 O   0  0  0  0  0  0  0  0  0  0  0  0
  2  1  1  6
  2  3  1  0
  4  2  1  0
  5  4  2  0
  6  4  1  0
  7 11  1  0
  7  6  1  0
  7  8  1  1
  9 10  2  0
  9  8  1  0
 11 14  1  0
 12 11  2  0
 13  9  1  0
 14 15  1  0
 14 18  1  0
 15 16  1  0
 16 17  1  0
 18 17  1  0
 18 19  1  1
 19 21  1  0
 20 19  2  0
M  END
$$$$
