WKS.pdb
     RDKit          3D

 30 31  0  0  1  0  0  0  0  0999 V2000
    6.3205  -18.2520   24.1689 N   0  0  0  0  0  0  0  0  0  0  0  0
    6.7829  -16.9113   23.9145 C   0  0  1  0  0  0  0  0  0  0  0  0
    7.6578  -16.4417   25.0211 C   0  0  0  0  0  0  0  0  0  0  0  0
    7.0238  -15.3062   25.7277 C   0  0  0  0  0  0  0  0  0  0  0  0
    5.8138  -15.3242   26.4246 C   0  0  0  0  0  0  0  0  0  0  0  0
    5.5775  -14.1198   26.9655 N   0  0  0  0  0  0  0  0  0  0  0  0
    6.6028  -13.3337   26.6325 C   0  0  0  0  0  0  0  0  0  0  0  0
    6.8256  -12.0160   26.9351 C   0  0  0  0  0  0  0  0  0  0  0  0
    7.9593  -11.3789   26.4782 C   0  0  0  0  0  0  0  0  0  0  0  0
    8.8950  -12.0372   25.7109 C   0  0  0  0  0  0  0  0  0  0  0  0
    8.6402  -13.3813   25.4188 C   0  0  0  0  0  0  0  0  0  0  0  0
    7.5234  -14.0313   25.8630 C   0  0  0  0  0  0  0  0  0  0  0  0
    7.4516  -16.9111   22.5925 C   0  0  0  0  0  0  0  0  0  0  0  0
    7.9215  -17.9518   22.0713 O   0  0  0  0  0  0  0  0  0  0  0  0
    7.5540  -15.6774   21.9052 N   0  0  0  0  0  0  0  0  0  0  0  0
    8.2110  -15.5031   20.6337 C   0  0  1  0  0  0  0  0  0  0  0  0
    7.8224  -14.0933   20.1542 C   0  0  0  0  0  0  0  0  0  0  0  0
    8.5506  -13.7171   18.9137 C   0  0  0  0  0  0  0  0  0  0  0  0
    7.6437  -13.8466   17.7253 C   0  0  0  0  0  0  0  0  0  0  0  0
    8.3211  -13.5608   16.4266 C   0  0  0  0  0  0  0  0  0  0  0  0
    7.3592  -13.7421   15.3359 N   0  0  0  0  0  0  0  0  0  0  0  0
    9.6687  -15.4374   20.8758 C   0  0  0  0  0  0  0  0  0  0  0  0
   10.4196  -15.2291   19.8808 O   0  0  0  0  0  0  0  0  0  0  0  0
   11.4894  -16.4838   24.3481 O   0  0  0  0  0  0  0  0  0  0  0  0
   12.0218  -15.3400   23.7450 C   0  0  0  0  0  0  0  0  0  0  0  0
   11.6966  -15.4661   22.2542 C   0  0  2  0  0  0  0  0  0  0  0  0
   10.2638  -15.5914   22.1340 N   0  0  0  0  0  0  0  0  0  0  0  0
   12.4180  -16.5853   21.6420 C   0  0  0  0  0  0  0  0  0  0  0  0
   13.7954  -16.5918   21.5823 O   0  0  0  0  0  0  0  0  0  0  0  0
   11.7871  -17.5498   21.1654 O   0  0  0  0  0  0  0  0  0  0  0  0
  2 13  1  0
  2  1  1  1
  3  2  1  0
  3  4  1  0
  4  5  2  0
  4 12  1  0
  5  6  1  0
  6  7  1  0
  7  8  2  0
  8  9  1  0
 10  9  2  0
 11 10  1  0
 12 11  2  0
 12  7  1  0
 13 14  2  0
 15 16  1  0
 15 13  1  0
 16 22  1  0
 16 17  1  1
 18 17  1  0
 19 18  1  0
 20 19  1  0
 21 20  1  0
 22 23  2  0
 24 25  1  0
 26 25  1  1
 26 28  1  0
 27 22  1  0
 27 26  1  0
 28 30  2  0
 28 29  1  0
M  END
$$$$
