WKS.pdb
     RDKit          3D

 30 31  0  0  1  0  0  0  0  0999 V2000
    6.5342  -16.7027   25.5900 N   0  0  0  0  0  0  0  0  0  0  0  0
    7.2467  -15.7410   24.7877 C   0  0  1  0  0  0  0  0  0  0  0  0
    8.5006  -15.3207   25.4670 C   0  0  0  0  0  0  0  0  0  0  0  0
    8.1934  -14.3975   26.5823 C   0  0  0  0  0  0  0  0  0  0  0  0
    8.5369  -14.5637   27.9255 C   0  0  0  0  0  0  0  0  0  0  0  0
    8.1232  -13.5063   28.6396 N   0  0  0  0  0  0  0  0  0  0  0  0
    7.5248  -12.6703   27.7892 C   0  0  0  0  0  0  0  0  0  0  0  0
    6.9313  -11.4589   28.0295 C   0  0  0  0  0  0  0  0  0  0  0  0
    6.3538  -10.7498   26.9981 C   0  0  0  0  0  0  0  0  0  0  0  0
    6.3534  -11.2294   25.7068 C   0  0  0  0  0  0  0  0  0  0  0  0
    6.9670  -12.4683   25.4926 C   0  0  0  0  0  0  0  0  0  0  0  0
    7.5459  -13.1861   26.5009 C   0  0  0  0  0  0  0  0  0  0  0  0
    7.4719  -16.3480   23.4552 C   0  0  0  0  0  0  0  0  0  0  0  0
    7.4886  -17.5895   23.2708 O   0  0  0  0  0  0  0  0  0  0  0  0
    7.6737  -15.4756   22.3584 N   0  0  0  0  0  0  0  0  0  0  0  0
    7.9650  -15.9077   21.0141 C   0  0  1  0  0  0  0  0  0  0  0  0
    7.8402  -14.6497   20.1363 C   0  0  0  0  0  0  0  0  0  0  0  0
    8.0434  -14.9641   18.6974 C   0  0  0  0  0  0  0  0  0  0  0  0
    7.7794  -13.7458   17.8622 C   0  0  0  0  0  0  0  0  0  0  0  0
    7.8928  -13.9947   16.3951 C   0  0  0  0  0  0  0  0  0  0  0  0
    7.8208  -12.7142   15.6861 N   0  0  0  0  0  0  0  0  0  0  0  0
    9.3955  -16.2786   20.9512 C   0  0  0  0  0  0  0  0  0  0  0  0
   10.2149  -15.5663   21.5982 O   0  0  0  0  0  0  0  0  0  0  0  0
   10.9832  -19.4674   21.6317 O   0  0  0  0  0  0  0  0  0  0  0  0
   11.5002  -19.1387   20.3747 C   0  0  0  0  0  0  0  0  0  0  0  0
   11.3135  -17.6260   20.2308 C   0  0  2  0  0  0  0  0  0  0  0  0
    9.8941  -17.3651   20.2219 N   0  0  0  0  0  0  0  0  0  0  0  0
   11.9925  -17.1142   19.0371 C   0  0  0  0  0  0  0  0  0  0  0  0
   13.3413  -16.8292   19.0574 O   0  0  0  0  0  0  0  0  0  0  0  0
   11.3510  -16.9301   17.9835 O   0  0  0  0  0  0  0  0  0  0  0  0
  2 13  1  0
  2  1  1  1
  3  2  1  0
  3  4  1  0
  4  5  2  0
  4 12  1  0
  5  6  1  0
  6  7  1  0
  7  8  2  0
  8  9  1  0
 10  9  2  0
 11 10  1  0
 12 11  2  0
 12  7  1  0
 13 14  2  0
 15 16  1  0
 15 13  1  0
 16 22  1  0
 16 17  1  6
 18 17  1  0
 19 18  1  0
 20 19  1  0
 21 20  1  0
 22 23  2  0
 24 25  1  0
 26 25  1  6
 26 28  1  0
 27 22  1  0
 27 26  1  0
 28 30  2  0
 28 29  1  0
M  END
$$$$
