WKS.pdb
     RDKit          3D

 30 31  0  0  1  0  0  0  0  0999 V2000
    6.1976  -18.3017   24.0500 N   0  0  0  0  0  0  0  0  0  0  0  0
    6.8001  -16.9956   23.9647 C   0  0  1  0  0  0  0  0  0  0  0  0
    7.3480  -16.5859   25.2847 C   0  0  0  0  0  0  0  0  0  0  0  0
    6.6675  -15.3617   25.7632 C   0  0  0  0  0  0  0  0  0  0  0  0
    5.3425  -15.2530   26.1902 C   0  0  0  0  0  0  0  0  0  0  0  0
    5.0892  -13.9967   26.5859 N   0  0  0  0  0  0  0  0  0  0  0  0
    6.2157  -13.3007   26.4226 C   0  0  0  0  0  0  0  0  0  0  0  0
    6.4676  -11.9776   26.6745 C   0  0  0  0  0  0  0  0  0  0  0  0
    7.7145  -11.4463   26.4232 C   0  0  0  0  0  0  0  0  0  0  0  0
    8.7368  -12.2180   25.9162 C   0  0  0  0  0  0  0  0  0  0  0  0
    8.4495  -13.5647   25.6697 C   0  0  0  0  0  0  0  0  0  0  0  0
    7.2208  -14.1108   25.9130 C   0  0  0  0  0  0  0  0  0  0  0  0
    7.8196  -17.0416   22.8908 C   0  0  0  0  0  0  0  0  0  0  0  0
    8.3208  -18.1161   22.4785 O   0  0  0  0  0  0  0  0  0  0  0  0
    8.2314  -15.8135   22.3190 N   0  0  0  0  0  0  0  0  0  0  0  0
    9.1953  -15.6913   21.2537 C   0  0  1  0  0  0  0  0  0  0  0  0
    9.0100  -14.2730   20.6856 C   0  0  0  0  0  0  0  0  0  0  0  0
    7.8794  -14.2129   19.7218 C   0  0  0  0  0  0  0  0  0  0  0  0
    8.3630  -13.7141   18.3918 C   0  0  0  0  0  0  0  0  0  0  0  0
    7.2881  -13.6366   17.3594 C   0  0  0  0  0  0  0  0  0  0  0  0
    7.8331  -13.0181   16.1477 N   0  0  0  0  0  0  0  0  0  0  0  0
   10.5464  -15.6896   21.8555 C   0  0  0  0  0  0  0  0  0  0  0  0
   11.5262  -15.4428   21.0963 O   0  0  0  0  0  0  0  0  0  0  0  0
   11.2123  -16.9082   25.5866 O   0  0  0  0  0  0  0  0  0  0  0  0
   12.1397  -15.9359   25.1994 C   0  0  0  0  0  0  0  0  0  0  0  0
   12.1714  -15.9770   23.6693 C   0  0  2  0  0  0  0  0  0  0  0  0
   10.8042  -15.9438   23.2082 N   0  0  0  0  0  0  0  0  0  0  0  0
   12.9075  -17.1462   23.1806 C   0  0  0  0  0  0  0  0  0  0  0  0
   14.2586  -17.2824   23.4187 O   0  0  0  0  0  0  0  0  0  0  0  0
   12.3134  -18.0358   22.5394 O   0  0  0  0  0  0  0  0  0  0  0  0
  2 13  1  0
  2  1  1  1
  3  2  1  0
  3  4  1  0
  4  5  2  0
  4 12  1  0
  5  6  1  0
  6  7  1  0
  7  8  2  0
  8  9  1  0
 10  9  2  0
 11 10  1  0
 12 11  2  0
 12  7  1  0
 13 14  2  0
 15 16  1  0
 15 13  1  0
 16 22  1  0
 16 17  1  1
 18 17  1  0
 19 18  1  0
 20 19  1  0
 21 20  1  0
 22 23  2  0
 24 25  1  0
 26 25  1  1
 26 28  1  0
 27 22  1  0
 27 26  1  0
 28 30  2  0
 28 29  1  0
M  END
$$$$
