WKS.pdb
     RDKit          3D

 30 31  0  0  1  0  0  0  0  0999 V2000
    6.5526  -18.1419   24.6664 N   0  0  0  0  0  0  0  0  0  0  0  0
    6.9070  -16.7968   24.2904 C   0  0  1  0  0  0  0  0  0  0  0  0
    7.6682  -16.1328   25.3814 C   0  0  0  0  0  0  0  0  0  0  0  0
    6.8616  -15.0453   25.9792 C   0  0  0  0  0  0  0  0  0  0  0  0
    5.5737  -15.1520   26.5084 C   0  0  0  0  0  0  0  0  0  0  0  0
    5.1772  -13.9664   26.9942 N   0  0  0  0  0  0  0  0  0  0  0  0
    6.1761  -13.1060   26.7890 C   0  0  0  0  0  0  0  0  0  0  0  0
    6.2567  -11.7736   27.0983 C   0  0  0  0  0  0  0  0  0  0  0  0
    7.3905  -11.0541   26.7872 C   0  0  0  0  0  0  0  0  0  0  0  0
    8.4676  -11.6430   26.1621 C   0  0  0  0  0  0  0  0  0  0  0  0
    8.3559  -13.0042   25.8594 C   0  0  0  0  0  0  0  0  0  0  0  0
    7.2414  -13.7352   26.1604 C   0  0  0  0  0  0  0  0  0  0  0  0
    7.6510  -16.8703   23.0114 C   0  0  0  0  0  0  0  0  0  0  0  0
    8.3124  -17.8810   22.6699 O   0  0  0  0  0  0  0  0  0  0  0  0
    7.6008  -15.7450   22.1534 N   0  0  0  0  0  0  0  0  0  0  0  0
    8.2076  -15.6867   20.8468 C   0  0  1  0  0  0  0  0  0  0  0  0
    8.0731  -14.2231   20.3904 C   0  0  0  0  0  0  0  0  0  0  0  0
    8.8039  -13.9768   19.1193 C   0  0  0  0  0  0  0  0  0  0  0  0
    7.8296  -13.7833   17.9947 C   0  0  0  0  0  0  0  0  0  0  0  0
    8.4843  -13.5906   16.6675 C   0  0  0  0  0  0  0  0  0  0  0  0
    7.4510  -13.5205   15.6306 N   0  0  0  0  0  0  0  0  0  0  0  0
    9.6616  -15.9065   21.0060 C   0  0  0  0  0  0  0  0  0  0  0  0
   10.2679  -15.2143   21.8723 O   0  0  0  0  0  0  0  0  0  0  0  0
   11.4183  -19.1653   20.1430 O   0  0  0  0  0  0  0  0  0  0  0  0
   12.1864  -18.2906   20.9177 C   0  0  0  0  0  0  0  0  0  0  0  0
   11.8353  -16.8833   20.4278 C   0  0  2  0  0  0  0  0  0  0  0  0
   10.4030  -16.8299   20.2586 N   0  0  0  0  0  0  0  0  0  0  0  0
   12.5650  -16.5456   19.2025 C   0  0  0  0  0  0  0  0  0  0  0  0
   13.9430  -16.5061   19.1874 O   0  0  0  0  0  0  0  0  0  0  0  0
   11.9407  -16.2886   18.1538 O   0  0  0  0  0  0  0  0  0  0  0  0
  2 13  1  0
  2  1  1  1
  3  2  1  0
  3  4  1  0
  4  5  2  0
  4 12  1  0
  5  6  1  0
  6  7  1  0
  7  8  2  0
  8  9  1  0
 10  9  2  0
 11 10  1  0
 12 11  2  0
 12  7  1  0
 13 14  2  0
 15 16  1  0
 15 13  1  0
 16 22  1  0
 16 17  1  1
 18 17  1  0
 19 18  1  0
 20 19  1  0
 21 20  1  0
 22 23  2  0
 24 25  1  0
 26 25  1  6
 26 28  1  0
 27 22  1  0
 27 26  1  0
 28 30  2  0
 28 29  1  0
M  END
$$$$
