YIW.pdb
     RDKit          3D

 35 37  0  0  1  0  0  0  0  0999 V2000
    6.7236  -24.9042   20.2173 O   0  0  0  0  0  0  0  0  0  0  0  0
    7.2246  -23.6226   20.4401 C   0  0  0  0  0  0  0  0  0  0  0  0
    7.8335  -23.2986   21.6390 C   0  0  0  0  0  0  0  0  0  0  0  0
    8.3313  -22.0374   21.8703 C   0  0  0  0  0  0  0  0  0  0  0  0
    8.2380  -21.0431   20.9020 C   0  0  0  0  0  0  0  0  0  0  0  0
    8.7849  -19.6827   21.1716 C   0  0  0  0  0  0  0  0  0  0  0  0
    8.5021  -18.7373   20.0030 C   0  0  2  0  0  0  0  0  0  0  0  0
    9.1748  -19.2051   18.8322 N   0  0  0  0  0  0  0  0  0  0  0  0
    8.9356  -17.3805   20.4147 C   0  0  0  0  0  0  0  0  0  0  0  0
   10.1185  -17.0280   20.2117 O   0  0  0  0  0  0  0  0  0  0  0  0
    7.6424  -21.3420   19.7155 C   0  0  0  0  0  0  0  0  0  0  0  0
    7.1453  -22.6207   19.4993 C   0  0  0  0  0  0  0  0  0  0  0  0
    6.5684  -12.7683   19.1114 C   0  0  0  0  0  0  0  0  0  0  0  0
    7.4776  -13.8665   19.5507 C   0  0  0  0  0  0  0  0  0  0  0  0
    7.7079  -13.9834   21.0190 C   0  0  2  0  0  0  0  0  0  0  0  0
    8.2908  -12.6629   21.5058 C   0  0  0  0  0  0  0  0  0  0  0  0
    8.4809  -15.1552   21.4938 C   0  0  2  0  0  0  0  0  0  0  0  0
    8.0345  -16.4409   21.0482 N   0  0  0  0  0  0  0  0  0  0  0  0
    8.6429  -15.0855   22.9624 C   0  0  0  0  0  0  0  0  0  0  0  0
    7.9050  -14.3828   23.7026 O   0  0  0  0  0  0  0  0  0  0  0  0
    9.6556  -15.8231   23.6139 N   0  0  0  0  0  0  0  0  0  0  0  0
   10.0466  -15.5355   25.0030 C   0  0  1  0  0  0  0  0  0  0  0  0
    8.9182  -16.0976   25.8200 C   0  0  0  0  0  0  0  0  0  0  0  0
    7.6937  -15.3213   25.9106 C   0  0  0  0  0  0  0  0  0  0  0  0
    6.4183  -15.6775   25.4759 C   0  0  0  0  0  0  0  0  0  0  0  0
    5.5968  -14.6608   25.7175 N   0  0  0  0  0  0  0  0  0  0  0  0
    6.2576  -13.6348   26.2959 C   0  0  0  0  0  0  0  0  0  0  0  0
    5.8611  -12.3999   26.7434 C   0  0  0  0  0  0  0  0  0  0  0  0
    6.7846  -11.5572   27.3251 C   0  0  0  0  0  0  0  0  0  0  0  0
    8.0949  -11.9471   27.4581 C   0  0  0  0  0  0  0  0  0  0  0  0
    8.5006  -13.1787   27.0130 C   0  0  0  0  0  0  0  0  0  0  0  0
    7.5842  -14.0317   26.4274 C   0  0  0  0  0  0  0  0  0  0  0  0
   11.3013  -16.2275   25.2737 C   0  0  0  0  0  0  0  0  0  0  0  0
   12.0089  -16.1207   26.4680 O   0  0  0  0  0  0  0  0  0  0  0  0
   11.8005  -16.9736   24.3799 O   0  0  0  0  0  0  0  0  0  0  0  0
  2 12  2  0
  2  1  1  0
  3  2  1  0
  4  5  1  0
  4  3  2  0
  5 11  2  0
  6  5  1  0
  7  6  1  0
  7  8  1  6
  9  7  1  0
 10  9  2  0
 11 12  1  0
 13 14  1  0
 14 15  1  0
 15 17  1  0
 15 16  1  6
 17 18  1  1
 17 19  1  0
 18  9  1  0
 19 20  2  0
 21 19  1  0
 21 22  1  0
 22 23  1  1
 22 33  1  0
 24 23  1  0
 25 24  2  0
 26 25  1  0
 27 26  1  0
 27 32  2  0
 28 27  1  0
 29 28  2  0
 29 30  1  0
 30 31  2  0
 31 32  1  0
 32 24  1  0
 33 35  2  0
 33 34  1  0
M  END
$$$$
