YIW.pdb
     RDKit          3D

 35 37  0  0  1  0  0  0  0  0999 V2000
    8.5273  -11.8548   16.1694 O   0  0  0  0  0  0  0  0  0  0  0  0
    8.3291  -12.6566   17.2924 C   0  0  0  0  0  0  0  0  0  0  0  0
    9.3963  -13.0489   18.0799 C   0  0  0  0  0  0  0  0  0  0  0  0
    9.2131  -13.8400   19.1900 C   0  0  0  0  0  0  0  0  0  0  0  0
    7.9434  -14.2728   19.5580 C   0  0  0  0  0  0  0  0  0  0  0  0
    7.7655  -15.1288   20.7656 C   0  0  0  0  0  0  0  0  0  0  0  0
    8.3818  -16.5121   20.5520 C   0  0  2  0  0  0  0  0  0  0  0  0
    7.6561  -17.2107   19.5384 N   0  0  0  0  0  0  0  0  0  0  0  0
    8.3666  -17.2116   21.8591 C   0  0  0  0  0  0  0  0  0  0  0  0
    7.5916  -18.1791   22.0266 O   0  0  0  0  0  0  0  0  0  0  0  0
    6.8801  -13.8975   18.7961 C   0  0  0  0  0  0  0  0  0  0  0  0
    7.0838  -13.0984   17.6785 C   0  0  0  0  0  0  0  0  0  0  0  0
   10.1462  -21.1195   22.1104 C   0  0  0  0  0  0  0  0  0  0  0  0
    9.4988  -19.8460   22.5401 C   0  0  0  0  0  0  0  0  0  0  0  0
   10.2816  -18.9933   23.4796 C   0  0  2  0  0  0  0  0  0  0  0  0
   10.7646  -19.8794   24.6207 C   0  0  0  0  0  0  0  0  0  0  0  0
    9.6401  -17.7470   23.9603 C   0  0  2  0  0  0  0  0  0  0  0  0
    9.2212  -16.8138   22.9579 N   0  0  0  0  0  0  0  0  0  0  0  0
   10.4809  -17.1225   25.0047 C   0  0  0  0  0  0  0  0  0  0  0  0
   11.7142  -16.9123   24.8594 O   0  0  0  0  0  0  0  0  0  0  0  0
    9.9234  -16.7239   26.2393 N   0  0  0  0  0  0  0  0  0  0  0  0
   10.7250  -16.0291   27.2590 C   0  0  1  0  0  0  0  0  0  0  0  0
    9.9361  -14.7849   27.5531 C   0  0  0  0  0  0  0  0  0  0  0  0
    8.5528  -14.7385   27.1120 C   0  0  0  0  0  0  0  0  0  0  0  0
    7.7004  -15.8092   26.8484 C   0  0  0  0  0  0  0  0  0  0  0  0
    6.5359  -15.3218   26.4320 N   0  0  0  0  0  0  0  0  0  0  0  0
    6.5617  -13.9719   26.4030 C   0  0  0  0  0  0  0  0  0  0  0  0
    5.6259  -13.0249   26.0710 C   0  0  0  0  0  0  0  0  0  0  0  0
    5.9474  -11.6873   26.1647 C   0  0  0  0  0  0  0  0  0  0  0  0
    7.1956  -11.3000   26.5874 C   0  0  0  0  0  0  0  0  0  0  0  0
    8.1374  -12.2390   26.9203 C   0  0  0  0  0  0  0  0  0  0  0  0
    7.8271  -13.5828   26.8295 C   0  0  0  0  0  0  0  0  0  0  0  0
   10.8188  -16.8938   28.4294 C   0  0  0  0  0  0  0  0  0  0  0  0
   11.6429  -16.6401   29.5226 O   0  0  0  0  0  0  0  0  0  0  0  0
   10.1205  -17.9498   28.4747 O   0  0  0  0  0  0  0  0  0  0  0  0
  2 12  2  0
  2  1  1  0
  3  2  1  0
  4  5  1  0
  4  3  2  0
  5 11  2  0
  6  5  1  0
  7  6  1  0
  7  8  1  6
  9  7  1  0
 10  9  2  0
 11 12  1  0
 13 14  1  0
 14 15  1  0
 15 17  1  0
 15 16  1  1
 17 18  1  6
 17 19  1  0
 18  9  1  0
 19 20  2  0
 21 19  1  0
 21 22  1  0
 22 23  1  1
 22 33  1  0
 24 23  1  0
 25 24  2  0
 26 25  1  0
 27 26  1  0
 27 32  2  0
 28 27  1  0
 29 28  2  0
 29 30  1  0
 30 31  2  0
 31 32  1  0
 32 24  1  0
 33 35  2  0
 33 34  1  0
M  END
$$$$
