YIW.pdb
     RDKit          3D

 35 37  0  0  1  0  0  0  0  0999 V2000
    6.6149  -25.3355   21.3110 O   0  0  0  0  0  0  0  0  0  0  0  0
    7.1685  -24.0593   21.4009 C   0  0  0  0  0  0  0  0  0  0  0  0
    8.5290  -23.8648   21.2452 C   0  0  0  0  0  0  0  0  0  0  0  0
    9.0867  -22.6105   21.3320 C   0  0  0  0  0  0  0  0  0  0  0  0
    8.2970  -21.4925   21.5801 C   0  0  0  0  0  0  0  0  0  0  0  0
    8.9204  -20.1412   21.6693 C   0  0  0  0  0  0  0  0  0  0  0  0
    8.4694  -19.2523   20.5092 C   0  0  2  0  0  0  0  0  0  0  0  0
    8.8700  -19.8394   19.2695 N   0  0  0  0  0  0  0  0  0  0  0  0
    9.0544  -17.9075   20.7270 C   0  0  0  0  0  0  0  0  0  0  0  0
   10.1146  -17.5987   20.1394 O   0  0  0  0  0  0  0  0  0  0  0  0
    6.9559  -21.6628   21.7361 C   0  0  0  0  0  0  0  0  0  0  0  0
    6.4101  -22.9367   21.6453 C   0  0  0  0  0  0  0  0  0  0  0  0
    6.6431  -13.2509   19.7437 C   0  0  0  0  0  0  0  0  0  0  0  0
    7.5925  -14.3663   20.0264 C   0  0  0  0  0  0  0  0  0  0  0  0
    8.0695  -14.4847   21.4338 C   0  0  2  0  0  0  0  0  0  0  0  0
    8.6459  -13.1361   21.8455 C   0  0  0  0  0  0  0  0  0  0  0  0
    8.9783  -15.6116   21.7502 C   0  0  2  0  0  0  0  0  0  0  0  0
    8.4401  -16.9304   21.6012 N   0  0  0  0  0  0  0  0  0  0  0  0
    9.5999  -15.3960   23.0749 C   0  0  0  0  0  0  0  0  0  0  0  0
   10.3021  -14.3868   23.3485 O   0  0  0  0  0  0  0  0  0  0  0  0
    9.4273  -16.3342   24.1160 N   0  0  0  0  0  0  0  0  0  0  0  0
   10.0200  -16.1272   25.4468 C   0  0  1  0  0  0  0  0  0  0  0  0
    8.8765  -16.3618   26.3923 C   0  0  0  0  0  0  0  0  0  0  0  0
    7.6693  -15.5758   26.2054 C   0  0  0  0  0  0  0  0  0  0  0  0
    6.4448  -15.9946   25.6878 C   0  0  0  0  0  0  0  0  0  0  0  0
    5.6260  -14.9479   25.6564 N   0  0  0  0  0  0  0  0  0  0  0  0
    6.2399  -13.8420   26.1294 C   0  0  0  0  0  0  0  0  0  0  0  0
    5.8243  -12.5474   26.3135 C   0  0  0  0  0  0  0  0  0  0  0  0
    6.6942  -11.6227   26.8517 C   0  0  0  0  0  0  0  0  0  0  0  0
    7.9701  -11.9904   27.2030 C   0  0  0  0  0  0  0  0  0  0  0  0
    8.3945  -13.2813   27.0218 C   0  0  0  0  0  0  0  0  0  0  0  0
    7.5320  -14.2169   26.4823 C   0  0  0  0  0  0  0  0  0  0  0  0
   11.0787  -17.1130   25.6304 C   0  0  0  0  0  0  0  0  0  0  0  0
   11.9194  -17.1573   26.7393 O   0  0  0  0  0  0  0  0  0  0  0  0
   11.2675  -17.9905   24.7363 O   0  0  0  0  0  0  0  0  0  0  0  0
  2 12  2  0
  2  1  1  0
  3  2  1  0
  4  5  1  0
  4  3  2  0
  5 11  2  0
  6  5  1  0
  7  6  1  0
  7  8  1  6
  9  7  1  0
 10  9  2  0
 11 12  1  0
 13 14  1  0
 14 15  1  0
 15 17  1  0
 15 16  1  6
 17 18  1  1
 17 19  1  0
 18  9  1  0
 19 20  2  0
 21 19  1  0
 21 22  1  0
 22 23  1  1
 22 33  1  0
 24 23  1  0
 25 24  2  0
 26 25  1  0
 27 26  1  0
 27 32  2  0
 28 27  1  0
 29 28  2  0
 29 30  1  0
 30 31  2  0
 31 32  1  0
 32 24  1  0
 33 35  2  0
 33 34  1  0
M  END
$$$$
