YIW.pdb
     RDKit          3D

 35 37  0  0  1  0  0  0  0  0999 V2000
    4.1935  -23.6043   25.6218 O   0  0  0  0  0  0  0  0  0  0  0  0
    4.9822  -22.5893   25.0824 C   0  0  0  0  0  0  0  0  0  0  0  0
    4.4040  -21.4617   24.5282 C   0  0  0  0  0  0  0  0  0  0  0  0
    5.1718  -20.4539   23.9928 C   0  0  0  0  0  0  0  0  0  0  0  0
    6.5604  -20.5366   23.9915 C   0  0  0  0  0  0  0  0  0  0  0  0
    7.3750  -19.4331   23.4075 C   0  0  0  0  0  0  0  0  0  0  0  0
    7.1692  -19.3418   21.8947 C   0  0  2  0  0  0  0  0  0  0  0  0
    7.5809  -20.5637   21.2787 N   0  0  0  0  0  0  0  0  0  0  0  0
    7.9332  -18.1661   21.4129 C   0  0  0  0  0  0  0  0  0  0  0  0
    9.0085  -18.3446   20.7992 O   0  0  0  0  0  0  0  0  0  0  0  0
    7.1487  -21.6382   24.5323 C   0  0  0  0  0  0  0  0  0  0  0  0
    6.3576  -22.6461   25.0684 C   0  0  0  0  0  0  0  0  0  0  0  0
    7.6067  -12.0887   19.9491 C   0  0  0  0  0  0  0  0  0  0  0  0
    8.3650  -13.2963   20.3876 C   0  0  0  0  0  0  0  0  0  0  0  0
    7.5483  -14.4601   20.8361 C   0  0  2  0  0  0  0  0  0  0  0  0
    6.5775  -13.9654   21.9008 C   0  0  0  0  0  0  0  0  0  0  0  0
    8.2776  -15.6802   21.2550 C   0  0  2  0  0  0  0  0  0  0  0  0
    7.4783  -16.8085   21.6277 N   0  0  0  0  0  0  0  0  0  0  0  0
    9.2864  -15.3328   22.2795 C   0  0  0  0  0  0  0  0  0  0  0  0
   10.2368  -14.5347   22.0653 O   0  0  0  0  0  0  0  0  0  0  0  0
    9.2249  -15.8935   23.5740 N   0  0  0  0  0  0  0  0  0  0  0  0
   10.1659  -15.4948   24.6326 C   0  0  1  0  0  0  0  0  0  0  0  0
    9.4121  -15.7590   25.9048 C   0  0  0  0  0  0  0  0  0  0  0  0
    8.0499  -15.2636   26.0017 C   0  0  0  0  0  0  0  0  0  0  0  0
    6.8644  -15.9720   25.8138 C   0  0  0  0  0  0  0  0  0  0  0  0
    5.8475  -15.1282   25.9586 N   0  0  0  0  0  0  0  0  0  0  0  0
    6.2908  -13.8832   26.2364 C   0  0  0  0  0  0  0  0  0  0  0  0
    5.6503  -12.6953   26.4840 C   0  0  0  0  0  0  0  0  0  0  0  0
    6.3917  -11.5675   26.7664 C   0  0  0  0  0  0  0  0  0  0  0  0
    7.7635  -11.6277   26.8009 C   0  0  0  0  0  0  0  0  0  0  0  0
    8.4122  -12.8099   26.5539 C   0  0  0  0  0  0  0  0  0  0  0  0
    7.6799  -13.9468   26.2687 C   0  0  0  0  0  0  0  0  0  0  0  0
   11.3514  -16.3373   24.5268 C   0  0  0  0  0  0  0  0  0  0  0  0
   11.4446  -17.4521   23.6980 O   0  0  0  0  0  0  0  0  0  0  0  0
   12.3705  -16.0603   25.2266 O   0  0  0  0  0  0  0  0  0  0  0  0
  2 12  2  0
  2  1  1  0
  3  2  1  0
  4  5  1  0
  4  3  2  0
  5 11  2  0
  6  5  1  0
  7  6  1  0
  7  8  1  6
  9  7  1  0
 10  9  2  0
 11 12  1  0
 13 14  1  0
 14 15  1  0
 15 17  1  0
 15 16  1  1
 17 18  1  1
 17 19  1  0
 18  9  1  0
 19 20  2  0
 21 19  1  0
 21 22  1  0
 22 23  1  1
 22 33  1  0
 24 23  1  0
 25 24  2  0
 26 25  1  0
 27 26  1  0
 27 32  2  0
 28 27  1  0
 29 28  2  0
 29 30  1  0
 30 31  2  0
 31 32  1  0
 32 24  1  0
 33 35  2  0
 33 34  1  0
M  END
$$$$
