YIW.pdb
     RDKit          3D

 35 37  0  0  1  0  0  0  0  0999 V2000
    6.5209  -23.8405   15.9607 O   0  0  0  0  0  0  0  0  0  0  0  0
    7.1138  -22.8283   16.7138 C   0  0  0  0  0  0  0  0  0  0  0  0
    7.3764  -21.5907   16.1549 C   0  0  0  0  0  0  0  0  0  0  0  0
    7.9611  -20.5845   16.8879 C   0  0  0  0  0  0  0  0  0  0  0  0
    8.3086  -20.7799   18.2207 C   0  0  0  0  0  0  0  0  0  0  0  0
    8.9404  -19.6762   18.9986 C   0  0  0  0  0  0  0  0  0  0  0  0
    9.0393  -18.4014   18.1594 C   0  0  2  0  0  0  0  0  0  0  0  0
    9.9148  -18.6216   17.0516 N   0  0  0  0  0  0  0  0  0  0  0  0
    9.5034  -17.3150   19.0552 C   0  0  0  0  0  0  0  0  0  0  0  0
   10.7307  -17.1513   19.2338 O   0  0  0  0  0  0  0  0  0  0  0  0
    8.0583  -21.9907   18.7892 C   0  0  0  0  0  0  0  0  0  0  0  0
    7.4672  -22.9952   18.0338 C   0  0  0  0  0  0  0  0  0  0  0  0
    6.7441  -12.4803   19.3920 C   0  0  0  0  0  0  0  0  0  0  0  0
    7.7850  -13.5469   19.3238 C   0  0  0  0  0  0  0  0  0  0  0  0
    8.1999  -14.1465   20.6241 C   0  0  2  0  0  0  0  0  0  0  0  0
    8.8176  -13.0412   21.4710 C   0  0  0  0  0  0  0  0  0  0  0  0
    9.0455  -15.3623   20.5720 C   0  0  2  0  0  0  0  0  0  0  0  0
    8.5827  -16.4297   19.7367 N   0  0  0  0  0  0  0  0  0  0  0  0
    9.3628  -15.8099   21.9456 C   0  0  0  0  0  0  0  0  0  0  0  0
   10.4847  -15.6241   22.4870 O   0  0  0  0  0  0  0  0  0  0  0  0
    8.3976  -16.4799   22.7288 N   0  0  0  0  0  0  0  0  0  0  0  0
    8.5656  -16.6499   24.1807 C   0  0  1  0  0  0  0  0  0  0  0  0
    7.4986  -15.7740   24.7732 C   0  0  0  0  0  0  0  0  0  0  0  0
    7.9041  -14.4990   25.3390 C   0  0  0  0  0  0  0  0  0  0  0  0
    9.1598  -13.8968   25.2836 C   0  0  0  0  0  0  0  0  0  0  0  0
    9.1048  -12.7558   25.9633 N   0  0  0  0  0  0  0  0  0  0  0  0
    7.8705  -12.5588   26.4746 C   0  0  0  0  0  0  0  0  0  0  0  0
    7.3161  -11.5482   27.2187 C   0  0  0  0  0  0  0  0  0  0  0  0
    5.9877  -11.6192   27.5817 C   0  0  0  0  0  0  0  0  0  0  0  0
    5.2199  -12.6933   27.2031 C   0  0  0  0  0  0  0  0  0  0  0  0
    5.7654  -13.7084   26.4604 C   0  0  0  0  0  0  0  0  0  0  0  0
    7.0960  -13.6487   26.0913 C   0  0  0  0  0  0  0  0  0  0  0  0
    8.3453  -18.0552   24.5015 C   0  0  0  0  0  0  0  0  0  0  0  0
    8.6149  -18.6232   25.7438 O   0  0  0  0  0  0  0  0  0  0  0  0
    7.8854  -18.8278   23.6091 O   0  0  0  0  0  0  0  0  0  0  0  0
  2 12  2  0
  2  1  1  0
  3  2  1  0
  4  5  1  0
  4  3  2  0
  5 11  2  0
  6  5  1  0
  7  6  1  0
  7  8  1  6
  9  7  1  0
 10  9  2  0
 11 12  1  0
 13 14  1  0
 14 15  1  0
 15 17  1  0
 15 16  1  1
 17 18  1  1
 17 19  1  0
 18  9  1  0
 19 20  2  0
 21 19  1  0
 21 22  1  0
 22 23  1  1
 22 33  1  0
 24 23  1  0
 25 24  2  0
 26 25  1  0
 27 26  1  0
 27 32  2  0
 28 27  1  0
 29 28  2  0
 29 30  1  0
 30 31  2  0
 31 32  1  0
 32 24  1  0
 33 35  2  0
 33 34  1  0
M  END
$$$$
