YIW.pdb
     RDKit          3D

 35 37  0  0  1  0  0  0  0  0999 V2000
    9.6660  -24.2792   17.0645 O   0  0  0  0  0  0  0  0  0  0  0  0
    9.8939  -23.0736   17.7263 C   0  0  0  0  0  0  0  0  0  0  0  0
   11.1744  -22.5665   17.8536 C   0  0  0  0  0  0  0  0  0  0  0  0
   11.4116  -21.3783   18.5045 C   0  0  0  0  0  0  0  0  0  0  0  0
   10.3669  -20.6452   19.0579 C   0  0  0  0  0  0  0  0  0  0  0  0
   10.6445  -19.3588   19.7584 C   0  0  0  0  0  0  0  0  0  0  0  0
    9.9001  -18.2007   19.0922 C   0  0  2  0  0  0  0  0  0  0  0  0
   10.4238  -17.9832   17.7806 N   0  0  0  0  0  0  0  0  0  0  0  0
   10.0408  -17.0169   19.9737 C   0  0  0  0  0  0  0  0  0  0  0  0
   11.1407  -16.4238   20.0310 O   0  0  0  0  0  0  0  0  0  0  0  0
    9.0994  -21.1271   18.9431 C   0  0  0  0  0  0  0  0  0  0  0  0
    8.8786  -22.3287   18.2826 C   0  0  0  0  0  0  0  0  0  0  0  0
    7.1958  -12.6003   19.7698 C   0  0  0  0  0  0  0  0  0  0  0  0
    8.2076  -13.6647   20.0326 C   0  0  0  0  0  0  0  0  0  0  0  0
    8.2243  -14.2317   21.4113 C   0  0  2  0  0  0  0  0  0  0  0  0
    8.4866  -13.0878   22.3825 C   0  0  0  0  0  0  0  0  0  0  0  0
    9.1059  -15.3976   21.6552 C   0  0  2  0  0  0  0  0  0  0  0  0
    8.9449  -16.5177   20.7773 N   0  0  0  0  0  0  0  0  0  0  0  0
    9.0465  -15.7794   23.0830 C   0  0  0  0  0  0  0  0  0  0  0  0
    7.9853  -16.1484   23.6521 O   0  0  0  0  0  0  0  0  0  0  0  0
   10.2056  -15.7472   23.8889 N   0  0  0  0  0  0  0  0  0  0  0  0
   10.1846  -16.2011   25.2884 C   0  0  1  0  0  0  0  0  0  0  0  0
    9.5568  -15.0558   26.0306 C   0  0  0  0  0  0  0  0  0  0  0  0
    8.1096  -14.9353   25.9938 C   0  0  0  0  0  0  0  0  0  0  0  0
    7.1799  -15.8885   25.5820 C   0  0  0  0  0  0  0  0  0  0  0  0
    5.9666  -15.3530   25.6723 N   0  0  0  0  0  0  0  0  0  0  0  0
    6.0333  -14.0830   26.1266 C   0  0  0  0  0  0  0  0  0  0  0  0
    5.0792  -13.1362   26.4016 C   0  0  0  0  0  0  0  0  0  0  0  0
    5.4623  -11.9043   26.8886 C   0  0  0  0  0  0  0  0  0  0  0  0
    6.7900  -11.6219   27.0986 C   0  0  0  0  0  0  0  0  0  0  0  0
    7.7505  -12.5613   26.8258 C   0  0  0  0  0  0  0  0  0  0  0  0
    7.3787  -13.7993   26.3365 C   0  0  0  0  0  0  0  0  0  0  0  0
    9.3630  -17.4035   25.3632 C   0  0  0  0  0  0  0  0  0  0  0  0
    9.1788  -18.1513   26.5231 O   0  0  0  0  0  0  0  0  0  0  0  0
    8.7746  -17.8154   24.3197 O   0  0  0  0  0  0  0  0  0  0  0  0
  2 12  2  0
  2  1  1  0
  3  2  1  0
  4  5  1  0
  4  3  2  0
  5 11  2  0
  6  5  1  0
  7  6  1  0
  7  8  1  6
  9  7  1  0
 10  9  2  0
 11 12  1  0
 13 14  1  0
 14 15  1  0
 15 17  1  0
 15 16  1  1
 17 18  1  6
 17 19  1  0
 18  9  1  0
 19 20  2  0
 21 19  1  0
 21 22  1  0
 22 23  1  1
 22 33  1  0
 24 23  1  0
 25 24  2  0
 26 25  1  0
 27 26  1  0
 27 32  2  0
 28 27  1  0
 29 28  2  0
 29 30  1  0
 30 31  2  0
 31 32  1  0
 32 24  1  0
 33 35  2  0
 33 34  1  0
M  END
$$$$
