YIW.pdb
     RDKit          3D

 35 37  0  0  1  0  0  0  0  0999 V2000
   -0.0045  -20.9066   21.6890 O   0  0  0  0  0  0  0  0  0  0  0  0
    1.2346  -20.2712   21.7540 C   0  0  0  0  0  0  0  0  0  0  0  0
    2.1598  -20.6203   22.7210 C   0  0  0  0  0  0  0  0  0  0  0  0
    3.3854  -20.0003   22.7950 C   0  0  0  0  0  0  0  0  0  0  0  0
    3.7353  -18.9981   21.8960 C   0  0  0  0  0  0  0  0  0  0  0  0
    5.0691  -18.3391   21.9921 C   0  0  0  0  0  0  0  0  0  0  0  0
    5.7665  -18.3131   20.6311 C   0  0  2  0  0  0  0  0  0  0  0  0
    5.8689  -19.6427   20.1176 N   0  0  0  0  0  0  0  0  0  0  0  0
    7.0859  -17.6641   20.8208 C   0  0  0  0  0  0  0  0  0  0  0  0
    8.1252  -18.2892   20.5140 O   0  0  0  0  0  0  0  0  0  0  0  0
    2.8387  -18.6402   20.9368 C   0  0  0  0  0  0  0  0  0  0  0  0
    1.6058  -19.2770   20.8771 C   0  0  0  0  0  0  0  0  0  0  0  0
    7.1937  -12.3096   19.4892 C   0  0  0  0  0  0  0  0  0  0  0  0
    7.5710  -13.7455   19.6352 C   0  0  0  0  0  0  0  0  0  0  0  0
    8.2607  -14.1198   20.9028 C   0  0  2  0  0  0  0  0  0  0  0  0
    9.5820  -13.3635   20.9552 C   0  0  0  0  0  0  0  0  0  0  0  0
    8.4216  -15.5652   21.1870 C   0  0  2  0  0  0  0  0  0  0  0  0
    7.2182  -16.3239   21.3521 N   0  0  0  0  0  0  0  0  0  0  0  0
    9.3713  -15.7523   22.3054 C   0  0  0  0  0  0  0  0  0  0  0  0
   10.5876  -15.4331   22.2349 O   0  0  0  0  0  0  0  0  0  0  0  0
    8.9445  -16.3088   23.5310 N   0  0  0  0  0  0  0  0  0  0  0  0
    9.8977  -16.6340   24.6037 C   0  0  1  0  0  0  0  0  0  0  0  0
    9.4526  -15.7776   25.7548 C   0  0  0  0  0  0  0  0  0  0  0  0
    8.3724  -14.8348   25.5212 C   0  0  0  0  0  0  0  0  0  0  0  0
    7.3508  -14.9180   24.5768 C   0  0  0  0  0  0  0  0  0  0  0  0
    6.5998  -13.8259   24.6782 N   0  0  0  0  0  0  0  0  0  0  0  0
    7.0660  -13.0093   25.6476 C   0  0  0  0  0  0  0  0  0  0  0  0
    6.6402  -11.8007   26.1380 C   0  0  0  0  0  0  0  0  0  0  0  0
    7.3275  -11.2059   27.1749 C   0  0  0  0  0  0  0  0  0  0  0  0
    8.4324  -11.8157   27.7171 C   0  0  0  0  0  0  0  0  0  0  0  0
    8.8658  -13.0229   27.2331 C   0  0  0  0  0  0  0  0  0  0  0  0
    8.1857  -13.6284   26.1934 C   0  0  0  0  0  0  0  0  0  0  0  0
    9.7688  -18.0538   24.9103 C   0  0  0  0  0  0  0  0  0  0  0  0
   10.5854  -18.7350   25.8091 O   0  0  0  0  0  0  0  0  0  0  0  0
    8.8685  -18.7315   24.3314 O   0  0  0  0  0  0  0  0  0  0  0  0
  2 12  2  0
  2  1  1  0
  3  2  1  0
  4  5  1  0
  4  3  2  0
  5 11  2  0
  6  5  1  0
  7  6  1  0
  7  8  1  1
  9  7  1  0
 10  9  2  0
 11 12  1  0
 13 14  1  0
 14 15  1  0
 15 17  1  0
 15 16  1  6
 17 18  1  1
 17 19  1  0
 18  9  1  0
 19 20  2  0
 21 19  1  0
 21 22  1  0
 22 23  1  1
 22 33  1  0
 24 23  1  0
 25 24  2  0
 26 25  1  0
 27 26  1  0
 27 32  2  0
 28 27  1  0
 29 28  2  0
 29 30  1  0
 30 31  2  0
 31 32  1  0
 32 24  1  0
 33 35  2  0
 33 34  1  0
M  END
$$$$
