YIW.pdb
     RDKit          3D

 35 37  0  0  1  0  0  0  0  0999 V2000
    7.2270  -24.8067   18.8843 O   0  0  0  0  0  0  0  0  0  0  0  0
    7.6228  -23.5486   19.3359 C   0  0  0  0  0  0  0  0  0  0  0  0
    7.6497  -22.4642   18.4779 C   0  0  0  0  0  0  0  0  0  0  0  0
    8.0384  -21.2183   18.9120 C   0  0  0  0  0  0  0  0  0  0  0  0
    8.4186  -21.0079   20.2335 C   0  0  0  0  0  0  0  0  0  0  0  0
    8.8356  -19.6497   20.6848 C   0  0  0  0  0  0  0  0  0  0  0  0
    8.6759  -18.6257   19.5600 C   0  0  2  0  0  0  0  0  0  0  0  0
    9.3360  -19.0967   18.3835 N   0  0  0  0  0  0  0  0  0  0  0  0
    9.2210  -17.3376   20.0516 C   0  0  0  0  0  0  0  0  0  0  0  0
   10.3896  -17.0114   19.7469 O   0  0  0  0  0  0  0  0  0  0  0  0
    8.3988  -22.0624   21.0936 C   0  0  0  0  0  0  0  0  0  0  0  0
    8.0035  -23.3133   20.6378 C   0  0  0  0  0  0  0  0  0  0  0  0
    6.5288  -12.6875   19.4759 C   0  0  0  0  0  0  0  0  0  0  0  0
    7.6301  -13.6800   19.6426 C   0  0  0  0  0  0  0  0  0  0  0  0
    8.0231  -13.9987   21.0449 C   0  0  2  0  0  0  0  0  0  0  0  0
    8.5371  -12.7167   21.6875 C   0  0  0  0  0  0  0  0  0  0  0  0
    8.9407  -15.1443   21.2492 C   0  0  2  0  0  0  0  0  0  0  0  0
    8.4460  -16.4359   20.8777 N   0  0  0  0  0  0  0  0  0  0  0  0
    9.4787  -15.1144   22.6267 C   0  0  0  0  0  0  0  0  0  0  0  0
   10.1309  -14.1412   23.0888 O   0  0  0  0  0  0  0  0  0  0  0  0
    9.2780  -16.2018   23.5050 N   0  0  0  0  0  0  0  0  0  0  0  0
    9.8126  -16.1945   24.8759 C   0  0  1  0  0  0  0  0  0  0  0  0
    8.6377  -16.5905   25.7242 C   0  0  0  0  0  0  0  0  0  0  0  0
    7.4830  -15.7091   25.7381 C   0  0  0  0  0  0  0  0  0  0  0  0
    6.1721  -16.0074   25.3704 C   0  0  0  0  0  0  0  0  0  0  0  0
    5.4424  -14.9037   25.4983 N   0  0  0  0  0  0  0  0  0  0  0  0
    6.1989  -13.8742   25.9359 C   0  0  0  0  0  0  0  0  0  0  0  0
    5.9156  -12.5654   26.2346 C   0  0  0  0  0  0  0  0  0  0  0  0
    6.9192  -11.7387   26.6939 C   0  0  0  0  0  0  0  0  0  0  0  0
    8.1965  -12.2180   26.8531 C   0  0  0  0  0  0  0  0  0  0  0  0
    8.4893  -13.5240   26.5563 C   0  0  0  0  0  0  0  0  0  0  0  0
    7.4919  -14.3618   26.0943 C   0  0  0  0  0  0  0  0  0  0  0  0
   10.8843  -17.1805   24.9502 C   0  0  0  0  0  0  0  0  0  0  0  0
   11.7287  -17.3335   26.0466 O   0  0  0  0  0  0  0  0  0  0  0  0
   11.0819  -17.9535   23.9662 O   0  0  0  0  0  0  0  0  0  0  0  0
  2 12  2  0
  2  1  1  0
  3  2  1  0
  4  5  1  0
  4  3  2  0
  5 11  2  0
  6  5  1  0
  7  6  1  0
  7  8  1  6
  9  7  1  0
 10  9  2  0
 11 12  1  0
 13 14  1  0
 14 15  1  0
 15 17  1  0
 15 16  1  6
 17 18  1  1
 17 19  1  0
 18  9  1  0
 19 20  2  0
 21 19  1  0
 21 22  1  0
 22 23  1  1
 22 33  1  0
 24 23  1  0
 25 24  2  0
 26 25  1  0
 27 26  1  0
 27 32  2  0
 28 27  1  0
 29 28  2  0
 29 30  1  0
 30 31  2  0
 31 32  1  0
 32 24  1  0
 33 35  2  0
 33 34  1  0
M  END
$$$$
