AGD.pdb
     RDKit          3D

 18 17  0  0  1  0  0  0  0  0999 V2000
    6.8973  -17.7280   20.2464 C   0  0  0  0  0  0  0  0  0  0  0  0
    8.2815  -17.6047   19.6282 C   0  0  2  0  0  0  0  0  0  0  0  0
    8.9920  -18.8676   19.6328 N   0  0  0  0  0  0  0  0  0  0  0  0
    9.0026  -16.5593   20.3896 C   0  0  0  0  0  0  0  0  0  0  0  0
    8.5627  -15.3919   20.3707 O   0  0  0  0  0  0  0  0  0  0  0  0
   10.1710  -16.8551   21.1305 N   0  0  0  0  0  0  0  0  0  0  0  0
   10.8475  -15.8119   21.8886 C   0  0  0  0  0  0  0  0  0  0  0  0
   12.0213  -16.3733   22.6081 C   0  0  0  0  0  0  0  0  0  0  0  0
   12.0413  -17.5951   22.9207 O   0  0  0  0  0  0  0  0  0  0  0  0
   13.1410  -15.5928   22.9672 N   0  0  0  0  0  0  0  0  0  0  0  0
   14.3966  -16.2203   23.3912 C   0  0  1  0  0  0  0  0  0  0  0  0
   15.5407  -15.2864   23.2464 C   0  0  0  0  0  0  0  0  0  0  0  0
   16.8122  -15.9125   23.6072 C   0  0  0  0  0  0  0  0  0  0  0  0
   17.0941  -17.0820   23.2878 O   0  0  0  0  0  0  0  0  0  0  0  0
   14.2408  -16.5792   24.8367 C   0  0  0  0  0  0  0  0  0  0  0  0
   13.3447  -15.8223   25.6178 O   0  0  0  0  0  0  0  0  0  0  0  0
   17.7464  -15.1582   24.3432 O   0  0  0  0  0  0  0  0  0  0  0  0
   14.8407  -17.4929   25.4032 O   0  0  0  0  0  0  0  0  0  0  0  0
  2  1  1  1
  2  3  1  0
  4  5  2  0
  4  2  1  0
  6  4  1  0
  7  6  1  0
  8  7  1  0
  8 10  1  0
  9  8  2  0
 11 12  1  1
 11 10  1  0
 12 13  1  0
 13 14  2  0
 13 17  1  0
 15 11  1  0
 16 15  1  0
 18 15  2  0
M  END
$$$$
