AGD.pdb
     RDKit          3D

 18 17  0  0  1  0  0  0  0  0999 V2000
    9.2528  -13.2226   18.8336 C   0  0  0  0  0  0  0  0  0  0  0  0
    7.7555  -13.4868   18.7983 C   0  0  2  0  0  0  0  0  0  0  0  0
    6.9881  -12.3056   19.1385 N   0  0  0  0  0  0  0  0  0  0  0  0
    7.4928  -14.6069   19.7304 C   0  0  0  0  0  0  0  0  0  0  0  0
    7.9346  -15.7390   19.4481 O   0  0  0  0  0  0  0  0  0  0  0  0
    6.7559  -14.4207   20.9238 N   0  0  0  0  0  0  0  0  0  0  0  0
    6.4414  -15.5552   21.7810 C   0  0  0  0  0  0  0  0  0  0  0  0
    7.5936  -15.8698   22.6666 C   0  0  0  0  0  0  0  0  0  0  0  0
    7.6452  -15.3811   23.8282 O   0  0  0  0  0  0  0  0  0  0  0  0
    8.6570  -16.7071   22.2666 N   0  0  0  0  0  0  0  0  0  0  0  0
    9.7308  -17.0646   23.1989 C   0  0  1  0  0  0  0  0  0  0  0  0
   10.0678  -18.5067   23.1042 C   0  0  0  0  0  0  0  0  0  0  0  0
   11.1611  -18.8772   24.0021 C   0  0  0  0  0  0  0  0  0  0  0  0
   11.2519  -18.4330   25.1613 O   0  0  0  0  0  0  0  0  0  0  0  0
   10.9320  -16.2575   22.8140 C   0  0  0  0  0  0  0  0  0  0  0  0
   10.9103  -15.5787   21.5791 O   0  0  0  0  0  0  0  0  0  0  0  0
   12.1433  -19.7696   23.5306 O   0  0  0  0  0  0  0  0  0  0  0  0
   11.9486  -16.1390   23.4982 O   0  0  0  0  0  0  0  0  0  0  0  0
  2  1  1  1
  2  3  1  0
  4  5  2  0
  4  2  1  0
  6  4  1  0
  7  6  1  0
  8  7  1  0
  8 10  1  0
  9  8  2  0
 11 12  1  6
 11 10  1  0
 12 13  1  0
 13 14  2  0
 13 17  1  0
 15 11  1  0
 16 15  1  0
 18 15  2  0
M  END
$$$$
