AGD.pdb
     RDKit          3D

 18 17  0  0  1  0  0  0  0  0999 V2000
    6.6379  -13.5746   20.6824 C   0  0  0  0  0  0  0  0  0  0  0  0
    7.2962  -14.8704   20.2346 C   0  0  2  0  0  0  0  0  0  0  0  0
    6.8042  -16.0135   20.9770 N   0  0  0  0  0  0  0  0  0  0  0  0
    8.7571  -14.6906   20.3962 C   0  0  0  0  0  0  0  0  0  0  0  0
    9.3287  -13.7991   19.7366 O   0  0  0  0  0  0  0  0  0  0  0  0
    9.5112  -15.5034   21.2750 N   0  0  0  0  0  0  0  0  0  0  0  0
   10.9133  -15.2070   21.5334 C   0  0  0  0  0  0  0  0  0  0  0  0
   11.4508  -16.1175   22.5788 C   0  0  0  0  0  0  0  0  0  0  0  0
   10.7000  -16.9848   23.1031 O   0  0  0  0  0  0  0  0  0  0  0  0
   12.7885  -16.0615   23.0250 N   0  0  0  0  0  0  0  0  0  0  0  0
   13.2987  -17.0204   24.0101 C   0  0  1  0  0  0  0  0  0  0  0  0
   14.7729  -16.9185   24.1469 C   0  0  0  0  0  0  0  0  0  0  0  0
   15.4581  -17.0869   22.8659 C   0  0  0  0  0  0  0  0  0  0  0  0
   15.1725  -18.0019   22.0719 O   0  0  0  0  0  0  0  0  0  0  0  0
   12.6632  -16.6801   25.3227 C   0  0  0  0  0  0  0  0  0  0  0  0
   12.6917  -17.6476   26.3470 O   0  0  0  0  0  0  0  0  0  0  0  0
   16.4772  -16.1765   22.5255 O   0  0  0  0  0  0  0  0  0  0  0  0
   12.1111  -15.6103   25.5806 O   0  0  0  0  0  0  0  0  0  0  0  0
  2  1  1  1
  2  3  1  0
  4  5  2  0
  4  2  1  0
  6  4  1  0
  7  6  1  0
  8  7  1  0
  8 10  1  0
  9  8  2  0
 11 12  1  1
 11 10  1  0
 12 13  1  0
 13 14  2  0
 13 17  1  0
 15 11  1  0
 16 15  1  0
 18 15  2  0
M  END
$$$$
