AGD.pdb
     RDKit          3D

 18 17  0  0  1  0  0  0  0  0999 V2000
    7.2914  -12.8466   19.2721 C   0  0  0  0  0  0  0  0  0  0  0  0
    8.7609  -12.9540   19.6488 C   0  0  2  0  0  0  0  0  0  0  0  0
    9.6190  -12.3090   18.6753 N   0  0  0  0  0  0  0  0  0  0  0  0
    9.0663  -14.3961   19.7888 C   0  0  0  0  0  0  0  0  0  0  0  0
    8.4633  -15.0556   20.6595 O   0  0  0  0  0  0  0  0  0  0  0  0
   10.0209  -15.0351   18.9629 N   0  0  0  0  0  0  0  0  0  0  0  0
   10.3281  -16.4467   19.1467 C   0  0  0  0  0  0  0  0  0  0  0  0
   11.6396  -16.6063   19.8288 C   0  0  0  0  0  0  0  0  0  0  0  0
   12.1559  -17.7519   19.9378 O   0  0  0  0  0  0  0  0  0  0  0  0
   12.3543  -15.5176   20.3725 N   0  0  0  0  0  0  0  0  0  0  0  0
   13.6760  -15.7068   20.9789 C   0  0  1  0  0  0  0  0  0  0  0  0
   14.5978  -14.6019   20.6159 C   0  0  0  0  0  0  0  0  0  0  0  0
   15.0634  -14.7045   19.2334 C   0  0  0  0  0  0  0  0  0  0  0  0
   15.1269  -13.7187   18.4760 O   0  0  0  0  0  0  0  0  0  0  0  0
   13.4805  -15.7100   22.4636 C   0  0  0  0  0  0  0  0  0  0  0  0
   12.1737  -15.5417   22.9635 O   0  0  0  0  0  0  0  0  0  0  0  0
   15.4524  -15.9682   18.7485 O   0  0  0  0  0  0  0  0  0  0  0  0
   14.3811  -15.8492   23.2913 O   0  0  0  0  0  0  0  0  0  0  0  0
  2  1  1  6
  2  3  1  0
  4  5  2  0
  4  2  1  0
  6  4  1  0
  7  6  1  0
  8  7  1  0
  8 10  1  0
  9  8  2  0
 11 12  1  1
 11 10  1  0
 12 13  1  0
 13 14  2  0
 13 17  1  0
 15 11  1  0
 16 15  1  0
 18 15  2  0
M  END
$$$$
