AGD.pdb
     RDKit          3D

 18 17  0  0  1  0  0  0  0  0999 V2000
    7.6503  -12.2042   19.1507 C   0  0  0  0  0  0  0  0  0  0  0  0
    8.9141  -13.0483   19.2082 C   0  0  2  0  0  0  0  0  0  0  0  0
    9.2985  -13.5390   17.8999 N   0  0  0  0  0  0  0  0  0  0  0  0
    8.6530  -14.1519   20.1603 C   0  0  0  0  0  0  0  0  0  0  0  0
    8.3977  -13.8715   21.3488 O   0  0  0  0  0  0  0  0  0  0  0  0
    8.6885  -15.5063   19.7527 N   0  0  0  0  0  0  0  0  0  0  0  0
    8.4038  -16.5707   20.7049 C   0  0  0  0  0  0  0  0  0  0  0  0
    9.6286  -16.9200   21.4722 C   0  0  0  0  0  0  0  0  0  0  0  0
    9.7343  -18.0595   22.0024 O   0  0  0  0  0  0  0  0  0  0  0  0
   10.7046  -16.0226   21.6415 N   0  0  0  0  0  0  0  0  0  0  0  0
   11.9299  -16.4323   22.3350 C   0  0  1  0  0  0  0  0  0  0  0  0
   13.0257  -15.4563   22.1133 C   0  0  0  0  0  0  0  0  0  0  0  0
   13.5395  -15.5061   20.7450 C   0  0  0  0  0  0  0  0  0  0  0  0
   13.6457  -16.5717   20.1107 O   0  0  0  0  0  0  0  0  0  0  0  0
   11.6103  -16.4817   23.7972 C   0  0  0  0  0  0  0  0  0  0  0  0
   12.5138  -17.1414   24.6543 O   0  0  0  0  0  0  0  0  0  0  0  0
   13.9262  -14.2999   20.1293 O   0  0  0  0  0  0  0  0  0  0  0  0
   10.6094  -15.9867   24.3155 O   0  0  0  0  0  0  0  0  0  0  0  0
  2  1  1  6
  2  3  1  0
  4  5  2  0
  4  2  1  0
  6  4  1  0
  7  6  1  0
  8  7  1  0
  8 10  1  0
  9  8  2  0
 11 12  1  1
 11 10  1  0
 12 13  1  0
 13 14  2  0
 13 17  1  0
 15 11  1  0
 16 15  1  0
 18 15  2  0
M  END
$$$$
