AGD.pdb
     RDKit          3D

 18 17  0  0  1  0  0  0  0  0999 V2000
    8.6056  -11.9210   20.1018 C   0  0  0  0  0  0  0  0  0  0  0  0
    8.3685  -12.7890   18.8757 C   0  0  2  0  0  0  0  0  0  0  0  0
    6.9601  -13.0587   18.6662 N   0  0  0  0  0  0  0  0  0  0  0  0
    9.1489  -14.0323   19.0696 C   0  0  0  0  0  0  0  0  0  0  0  0
    8.5517  -15.0652   19.4342 O   0  0  0  0  0  0  0  0  0  0  0  0
   10.5465  -14.0714   18.8529 N   0  0  0  0  0  0  0  0  0  0  0  0
   11.2605  -15.3405   18.8718 C   0  0  0  0  0  0  0  0  0  0  0  0
   12.3583  -15.3019   19.8739 C   0  0  0  0  0  0  0  0  0  0  0  0
   13.2035  -14.3663   19.8444 O   0  0  0  0  0  0  0  0  0  0  0  0
   12.5069  -16.2798   20.8807 N   0  0  0  0  0  0  0  0  0  0  0  0
   13.6811  -16.2895   21.7589 C   0  0  1  0  0  0  0  0  0  0  0  0
   13.3876  -16.9745   23.0423 C   0  0  0  0  0  0  0  0  0  0  0  0
   14.0951  -16.3639   24.1672 C   0  0  0  0  0  0  0  0  0  0  0  0
   15.0234  -15.5500   24.0087 O   0  0  0  0  0  0  0  0  0  0  0  0
   14.7591  -17.0414   21.0411 C   0  0  0  0  0  0  0  0  0  0  0  0
   14.3840  -18.1322   20.2315 O   0  0  0  0  0  0  0  0  0  0  0  0
   13.7061  -16.7148   25.4745 O   0  0  0  0  0  0  0  0  0  0  0  0
   15.9603  -16.7794   21.1032 O   0  0  0  0  0  0  0  0  0  0  0  0
  2  1  1  1
  2  3  1  0
  4  5  2  0
  4  2  1  0
  6  4  1  0
  7  6  1  0
  8  7  1  0
  8 10  1  0
  9  8  2  0
 11 12  1  1
 11 10  1  0
 12 13  1  0
 13 14  2  0
 13 17  1  0
 15 11  1  0
 16 15  1  0
 18 15  2  0
M  END
$$$$
