AGD.pdb
     RDKit          3D

 18 17  0  0  1  0  0  0  0  0999 V2000
    6.5061  -11.2672   26.6477 C   0  0  0  0  0  0  0  0  0  0  0  0
    6.6716  -12.7671   26.8382 C   0  0  2  0  0  0  0  0  0  0  0  0
    7.9279  -13.0968   27.4808 N   0  0  0  0  0  0  0  0  0  0  0  0
    6.5533  -13.3878   25.4991 C   0  0  0  0  0  0  0  0  0  0  0  0
    5.4747  -13.2811   24.8812 O   0  0  0  0  0  0  0  0  0  0  0  0
    7.6292  -14.0946   24.9122 N   0  0  0  0  0  0  0  0  0  0  0  0
    7.4784  -14.7129   23.6024 C   0  0  0  0  0  0  0  0  0  0  0  0
    8.7278  -15.4212   23.2174 C   0  0  0  0  0  0  0  0  0  0  0  0
    8.7653  -16.0950   22.1519 O   0  0  0  0  0  0  0  0  0  0  0  0
    9.9017  -15.3773   23.9996 N   0  0  0  0  0  0  0  0  0  0  0  0
   11.0943  -16.1404   23.6183 C   0  0  1  0  0  0  0  0  0  0  0  0
   12.3352  -15.3792   23.9068 C   0  0  0  0  0  0  0  0  0  0  0  0
   13.5374  -16.1228   23.5318 C   0  0  0  0  0  0  0  0  0  0  0  0
   13.6224  -16.7598   22.4659 O   0  0  0  0  0  0  0  0  0  0  0  0
   11.0916  -17.3951   24.4357 C   0  0  0  0  0  0  0  0  0  0  0  0
   12.0285  -18.3988   24.1180 O   0  0  0  0  0  0  0  0  0  0  0  0
   14.6349  -16.1129   24.4144 O   0  0  0  0  0  0  0  0  0  0  0  0
   10.3269  -17.6221   25.3734 O   0  0  0  0  0  0  0  0  0  0  0  0
  2  1  1  6
  2  3  1  0
  4  5  2  0
  4  2  1  0
  6  4  1  0
  7  6  1  0
  8  7  1  0
  8 10  1  0
  9  8  2  0
 11 12  1  1
 11 10  1  0
 12 13  1  0
 13 14  2  0
 13 17  1  0
 15 11  1  0
 16 15  1  0
 18 15  2  0
M  END
$$$$
