AGD.pdb
     RDKit          3D

 18 17  0  0  1  0  0  0  0  0999 V2000
   -0.0372  -19.4370   20.4296 C   0  0  0  0  0  0  0  0  0  0  0  0
    0.9345  -20.1783   21.3347 C   0  0  2  0  0  0  0  0  0  0  0  0
    0.4385  -20.2839   22.6922 N   0  0  0  0  0  0  0  0  0  0  0  0
    2.2238  -19.4531   21.2697 C   0  0  0  0  0  0  0  0  0  0  0  0
    2.8463  -19.4311   20.1886 O   0  0  0  0  0  0  0  0  0  0  0  0
    2.7598  -18.7915   22.3996 N   0  0  0  0  0  0  0  0  0  0  0  0
    4.0518  -18.1243   22.3195 C   0  0  0  0  0  0  0  0  0  0  0  0
    5.0697  -18.8716   23.1046 C   0  0  0  0  0  0  0  0  0  0  0  0
    4.7037  -19.7411   23.9417 O   0  0  0  0  0  0  0  0  0  0  0  0
    6.4565  -18.6545   22.9582 N   0  0  0  0  0  0  0  0  0  0  0  0
    7.4257  -19.3494   23.8113 C   0  0  1  0  0  0  0  0  0  0  0  0
    8.8068  -19.1998   23.2892 C   0  0  0  0  0  0  0  0  0  0  0  0
    9.7824  -19.9351   24.0931 C   0  0  0  0  0  0  0  0  0  0  0  0
   10.5700  -19.3662   24.8710 O   0  0  0  0  0  0  0  0  0  0  0  0
    7.3468  -18.7191   25.1674 C   0  0  0  0  0  0  0  0  0  0  0  0
    7.6945  -19.5018   26.2866 O   0  0  0  0  0  0  0  0  0  0  0  0
    9.8263  -21.3379   23.9771 O   0  0  0  0  0  0  0  0  0  0  0  0
    6.9980  -17.5586   25.3845 O   0  0  0  0  0  0  0  0  0  0  0  0
  2  1  1  6
  2  3  1  0
  4  5  2  0
  4  2  1  0
  6  4  1  0
  7  6  1  0
  8  7  1  0
  8 10  1  0
  9  8  2  0
 11 12  1  6
 11 10  1  0
 12 13  1  0
 13 14  2  0
 13 17  1  0
 15 11  1  0
 16 15  1  0
 18 15  2  0
M  END
$$$$
