AGD.pdb
     RDKit          3D

 18 17  0  0  1  0  0  0  0  0999 V2000
    7.1615  -13.8075   18.3469 C   0  0  0  0  0  0  0  0  0  0  0  0
    7.6966  -14.9066   19.2517 C   0  0  2  0  0  0  0  0  0  0  0  0
    6.6880  -15.9040   19.5485 N   0  0  0  0  0  0  0  0  0  0  0  0
    8.2036  -14.2482   20.4773 C   0  0  0  0  0  0  0  0  0  0  0  0
    9.2356  -13.5513   20.4011 O   0  0  0  0  0  0  0  0  0  0  0  0
    7.5473  -14.3934   21.7222 N   0  0  0  0  0  0  0  0  0  0  0  0
    8.0995  -13.7816   22.9228 C   0  0  0  0  0  0  0  0  0  0  0  0
    8.9483  -14.7568   23.6572 C   0  0  0  0  0  0  0  0  0  0  0  0
    8.4091  -15.6664   24.3447 O   0  0  0  0  0  0  0  0  0  0  0  0
   10.3587  -14.7177   23.6238 N   0  0  0  0  0  0  0  0  0  0  0  0
   11.1605  -15.7563   24.2784 C   0  0  1  0  0  0  0  0  0  0  0  0
   10.2968  -16.7773   24.9219 C   0  0  0  0  0  0  0  0  0  0  0  0
   11.0765  -17.7889   25.6342 C   0  0  0  0  0  0  0  0  0  0  0  0
   12.3134  -17.7163   25.7528 O   0  0  0  0  0  0  0  0  0  0  0  0
   11.9804  -16.4142   23.2119 C   0  0  0  0  0  0  0  0  0  0  0  0
   13.3784  -16.4640   23.3826 O   0  0  0  0  0  0  0  0  0  0  0  0
   10.3958  -18.8822   26.2040 O   0  0  0  0  0  0  0  0  0  0  0  0
   11.5249  -16.9203   22.1862 O   0  0  0  0  0  0  0  0  0  0  0  0
  2  1  1  6
  2  3  1  0
  4  5  2  0
  4  2  1  0
  6  4  1  0
  7  6  1  0
  8  7  1  0
  8 10  1  0
  9  8  2  0
 11 12  1  6
 11 10  1  0
 12 13  1  0
 13 14  2  0
 13 17  1  0
 15 11  1  0
 16 15  1  0
 18 15  2  0
M  END
$$$$
