AGD.pdb
     RDKit          3D

 18 17  0  0  1  0  0  0  0  0999 V2000
    7.5088  -12.7856   18.9229 C   0  0  0  0  0  0  0  0  0  0  0  0
    7.7440  -13.8322   20.0010 C   0  0  2  0  0  0  0  0  0  0  0  0
    8.0300  -13.2304   21.2879 N   0  0  0  0  0  0  0  0  0  0  0  0
    8.8536  -14.6932   19.5320 C   0  0  0  0  0  0  0  0  0  0  0  0
    8.6809  -15.3936   18.5141 O   0  0  0  0  0  0  0  0  0  0  0  0
   10.0946  -14.7379   20.2101 N   0  0  0  0  0  0  0  0  0  0  0  0
   11.2128  -15.4863   19.6532 C   0  0  0  0  0  0  0  0  0  0  0  0
   12.4259  -15.3066   20.4940 C   0  0  0  0  0  0  0  0  0  0  0  0
   13.1063  -14.2490   20.3974 O   0  0  0  0  0  0  0  0  0  0  0  0
   12.8656  -16.2797   21.4167 N   0  0  0  0  0  0  0  0  0  0  0  0
   14.0775  -16.0722   22.2158 C   0  0  1  0  0  0  0  0  0  0  0  0
   14.0855  -16.9430   23.4174 C   0  0  0  0  0  0  0  0  0  0  0  0
   14.8944  -16.3822   24.4990 C   0  0  0  0  0  0  0  0  0  0  0  0
   15.8981  -15.6779   24.2849 O   0  0  0  0  0  0  0  0  0  0  0  0
   15.2426  -16.4315   21.3463 C   0  0  0  0  0  0  0  0  0  0  0  0
   16.4666  -15.7686   21.5658 O   0  0  0  0  0  0  0  0  0  0  0  0
   14.5177  -16.6534   25.8286 O   0  0  0  0  0  0  0  0  0  0  0  0
   15.2153  -17.2691   20.4445 O   0  0  0  0  0  0  0  0  0  0  0  0
  2  1  1  6
  2  3  1  0
  4  5  2  0
  4  2  1  0
  6  4  1  0
  7  6  1  0
  8  7  1  0
  8 10  1  0
  9  8  2  0
 11 12  1  1
 11 10  1  0
 12 13  1  0
 13 14  2  0
 13 17  1  0
 15 11  1  0
 16 15  1  0
 18 15  2  0
M  END
$$$$
