AGD.pdb
     RDKit          3D

 18 17  0  0  1  0  0  0  0  0999 V2000
    7.3872  -12.8752   19.3670 C   0  0  0  0  0  0  0  0  0  0  0  0
    7.8462  -14.3026   19.6219 C   0  0  2  0  0  0  0  0  0  0  0  0
    6.7288  -15.2095   19.7918 N   0  0  0  0  0  0  0  0  0  0  0  0
    8.7198  -14.2681   20.8169 C   0  0  0  0  0  0  0  0  0  0  0  0
    9.8635  -13.7810   20.7106 O   0  0  0  0  0  0  0  0  0  0  0  0
    8.2876  -14.7735   22.0657 N   0  0  0  0  0  0  0  0  0  0  0  0
    9.1116  -14.6051   23.2546 C   0  0  0  0  0  0  0  0  0  0  0  0
    9.8777  -15.8484   23.5337 C   0  0  0  0  0  0  0  0  0  0  0  0
    9.3568  -16.9732   23.3008 O   0  0  0  0  0  0  0  0  0  0  0  0
   11.1884  -15.8357   24.0571 N   0  0  0  0  0  0  0  0  0  0  0  0
   11.8982  -17.0846   24.3512 C   0  0  1  0  0  0  0  0  0  0  0  0
   13.3671  -16.8753   24.3781 C   0  0  0  0  0  0  0  0  0  0  0  0
   13.8837  -16.4284   23.0850 C   0  0  0  0  0  0  0  0  0  0  0  0
   13.5804  -16.9886   22.0157 O   0  0  0  0  0  0  0  0  0  0  0  0
   11.4460  -17.5372   25.7052 C   0  0  0  0  0  0  0  0  0  0  0  0
   11.9102  -18.7798   26.1812 O   0  0  0  0  0  0  0  0  0  0  0  0
   14.7560  -15.3230   23.0568 O   0  0  0  0  0  0  0  0  0  0  0  0
   10.6920  -16.9030   26.4433 O   0  0  0  0  0  0  0  0  0  0  0  0
  2  1  1  1
  2  3  1  0
  4  5  2  0
  4  2  1  0
  6  4  1  0
  7  6  1  0
  8  7  1  0
  8 10  1  0
  9  8  2  0
 11 12  1  1
 11 10  1  0
 12 13  1  0
 13 14  2  0
 13 17  1  0
 15 11  1  0
 16 15  1  0
 18 15  2  0
M  END
$$$$
