VSE.pdb
     RDKit          3D

 23 22  0  0  1  0  0  0  0  0999 V2000
    9.4344  -15.3638   18.5798 C   0  0  0  0  0  0  0  0  0  0  0  0
    7.9735  -15.0186   18.7532 C   0  0  2  0  0  0  0  0  0  0  0  0
    7.3893  -14.7253   17.3830 C   0  0  0  0  0  0  0  0  0  0  0  0
    7.8211  -13.7557   19.5765 C   0  0  2  0  0  0  0  0  0  0  0  0
    8.4147  -12.6683   18.8239 N   0  0  0  0  0  0  0  0  0  0  0  0
    8.4595  -13.8461   20.8934 C   0  0  0  0  0  0  0  0  0  0  0  0
    9.6699  -13.6036   21.0224 O   0  0  0  0  0  0  0  0  0  0  0  0
    6.5608  -15.5534   24.2538 O   0  0  0  0  0  0  0  0  0  0  0  0
    7.4761  -14.5282   24.4985 C   0  0  0  0  0  0  0  0  0  0  0  0
    8.3989  -14.4324   23.3317 C   0  0  2  0  0  0  0  0  0  0  0  0
    7.7480  -14.2093   22.0785 N   0  0  0  0  0  0  0  0  0  0  0  0
    9.2778  -15.6530   23.2909 C   0  0  0  0  0  0  0  0  0  0  0  0
    9.0583  -16.5532   22.4596 O   0  0  0  0  0  0  0  0  0  0  0  0
   10.3507  -15.8071   24.1737 N   0  0  0  0  0  0  0  0  0  0  0  0
   11.2334  -16.9547   24.2324 C   0  0  1  0  0  0  0  0  0  0  0  0
   12.5106  -16.7614   23.5033 C   0  0  0  0  0  0  0  0  0  0  0  0
   13.7481  -16.8343   24.3650 C   0  0  0  0  0  0  0  0  0  0  0  0
   14.9654  -16.5214   23.5227 C   0  0  0  0  0  0  0  0  0  0  0  0
   15.1303  -15.3873   23.0163 O   0  0  0  0  0  0  0  0  0  0  0  0
   11.3935  -17.4212   25.6314 C   0  0  0  0  0  0  0  0  0  0  0  0
   12.0292  -18.6523   25.9131 O   0  0  0  0  0  0  0  0  0  0  0  0
   15.9180  -17.4860   23.2980 O   0  0  0  0  0  0  0  0  0  0  0  0
   11.0044  -16.8080   26.6524 O   0  0  0  0  0  0  0  0  0  0  0  0
  2  1  1  6
  2  3  1  0
  4  2  1  0
  4  6  1  0
  4  5  1  6
  6  7  2  0
  9  8  1  0
 10  9  1  1
 11  6  1  0
 11 10  1  0
 12 10  1  0
 12 14  1  0
 13 12  2  0
 15 20  1  0
 15 14  1  0
 15 16  1  1
 17 16  1  0
 17 18  1  0
 18 19  2  0
 18 22  1  0
 20 21  1  0
 23 20  2  0
M  END
$$$$
