VSE.pdb
     RDKit          3D

 23 22  0  0  1  0  0  0  0  0999 V2000
    9.4750  -15.2704   18.5780 C   0  0  0  0  0  0  0  0  0  0  0  0
    8.1008  -14.6530   18.6959 C   0  0  2  0  0  0  0  0  0  0  0  0
    7.6838  -14.1577   17.3227 C   0  0  0  0  0  0  0  0  0  0  0  0
    8.1393  -13.4433   19.6075 C   0  0  2  0  0  0  0  0  0  0  0  0
    9.0829  -12.4992   19.0422 N   0  0  0  0  0  0  0  0  0  0  0  0
    8.5355  -13.7696   20.9809 C   0  0  0  0  0  0  0  0  0  0  0  0
    9.7359  -13.8440   21.2873 O   0  0  0  0  0  0  0  0  0  0  0  0
    7.3839  -14.7644   25.5808 O   0  0  0  0  0  0  0  0  0  0  0  0
    6.8538  -14.5145   24.3137 C   0  0  0  0  0  0  0  0  0  0  0  0
    7.9819  -14.3928   23.3469 C   0  0  2  0  0  0  0  0  0  0  0  0
    7.5906  -14.0158   22.0246 N   0  0  0  0  0  0  0  0  0  0  0  0
    8.7775  -15.6699   23.3472 C   0  0  0  0  0  0  0  0  0  0  0  0
    8.6498  -16.4856   22.4157 O   0  0  0  0  0  0  0  0  0  0  0  0
    9.6701  -15.9710   24.3802 N   0  0  0  0  0  0  0  0  0  0  0  0
   10.6604  -17.0285   24.3544 C   0  0  1  0  0  0  0  0  0  0  0  0
   11.8264  -16.7311   23.4871 C   0  0  0  0  0  0  0  0  0  0  0  0
   12.8914  -17.8011   23.4704 C   0  0  0  0  0  0  0  0  0  0  0  0
   14.0682  -17.3251   22.6471 C   0  0  0  0  0  0  0  0  0  0  0  0
   14.3122  -16.1039   22.5091 O   0  0  0  0  0  0  0  0  0  0  0  0
   11.0155  -17.4472   25.7325 C   0  0  0  0  0  0  0  0  0  0  0  0
   11.5641  -18.7267   25.9789 O   0  0  0  0  0  0  0  0  0  0  0  0
   14.8954  -18.2339   22.0323 O   0  0  0  0  0  0  0  0  0  0  0  0
   10.8745  -16.7503   26.7642 O   0  0  0  0  0  0  0  0  0  0  0  0
  2  1  1  6
  2  3  1  0
  4  2  1  0
  4  6  1  0
  4  5  1  6
  6  7  2  0
  9  8  1  0
 10  9  1  1
 11  6  1  0
 11 10  1  0
 12 10  1  0
 12 14  1  0
 13 12  2  0
 15 20  1  0
 15 14  1  0
 15 16  1  1
 17 16  1  0
 17 18  1  0
 18 19  2  0
 18 22  1  0
 20 21  1  0
 23 20  2  0
M  END
$$$$
