VSE.pdb
     RDKit          3D

 23 22  0  0  1  0  0  0  0  0999 V2000
    6.3304  -11.6889   26.7578 C   0  0  0  0  0  0  0  0  0  0  0  0
    7.2096  -12.8488   26.3514 C   0  0  2  0  0  0  0  0  0  0  0  0
    8.3759  -12.3014   25.5484 C   0  0  0  0  0  0  0  0  0  0  0  0
    6.4528  -13.7942   25.4406 C   0  0  2  0  0  0  0  0  0  0  0  0
    5.3001  -14.2791   26.1736 N   0  0  0  0  0  0  0  0  0  0  0  0
    7.2617  -14.9314   24.9909 C   0  0  0  0  0  0  0  0  0  0  0  0
    7.5187  -15.8651   25.7672 O   0  0  0  0  0  0  0  0  0  0  0  0
    9.5424  -14.9707   21.4022 O   0  0  0  0  0  0  0  0  0  0  0  0
    8.9217  -16.1566   21.7987 C   0  0  0  0  0  0  0  0  0  0  0  0
    8.6688  -16.0880   23.2661 C   0  0  2  0  0  0  0  0  0  0  0  0
    7.7905  -15.0337   23.6671 N   0  0  0  0  0  0  0  0  0  0  0  0
    9.9835  -16.0224   23.9951 C   0  0  0  0  0  0  0  0  0  0  0  0
   10.3211  -14.9776   24.5815 O   0  0  0  0  0  0  0  0  0  0  0  0
   10.8500  -17.1188   24.0331 N   0  0  0  0  0  0  0  0  0  0  0  0
   11.6491  -17.5199   25.1733 C   0  0  1  0  0  0  0  0  0  0  0  0
   10.8622  -17.7021   26.4174 C   0  0  0  0  0  0  0  0  0  0  0  0
   11.6605  -18.1801   27.6064 C   0  0  0  0  0  0  0  0  0  0  0  0
   11.0927  -17.5710   28.8697 C   0  0  0  0  0  0  0  0  0  0  0  0
   10.1027  -16.8041   28.8324 O   0  0  0  0  0  0  0  0  0  0  0  0
   12.5168  -18.6718   24.8255 C   0  0  0  0  0  0  0  0  0  0  0  0
   12.2098  -19.4984   23.7204 O   0  0  0  0  0  0  0  0  0  0  0  0
   11.6600  -17.8527   30.0892 O   0  0  0  0  0  0  0  0  0  0  0  0
   13.5540  -19.0136   25.4398 O   0  0  0  0  0  0  0  0  0  0  0  0
  2  1  1  6
  2  3  1  0
  4  2  1  0
  4  6  1  0
  4  5  1  1
  6  7  2  0
  9  8  1  0
 10  9  1  6
 11  6  1  0
 11 10  1  0
 12 10  1  0
 12 14  1  0
 13 12  2  0
 15 20  1  0
 15 14  1  0
 15 16  1  1
 17 16  1  0
 17 18  1  0
 18 19  2  0
 18 22  1  0
 20 21  1  0
 23 20  2  0
M  END
$$$$
