VSE.pdb
     RDKit          3D

 23 22  0  0  1  0  0  0  0  0999 V2000
    8.7781  -18.5092   19.5503 C   0  0  0  0  0  0  0  0  0  0  0  0
    7.3812  -17.9331   19.5300 C   0  0  2  0  0  0  0  0  0  0  0  0
    6.6771  -18.4400   18.2842 C   0  0  0  0  0  0  0  0  0  0  0  0
    7.4320  -16.4225   19.4235 C   0  0  2  0  0  0  0  0  0  0  0  0
    7.9493  -16.0935   18.1099 N   0  0  0  0  0  0  0  0  0  0  0  0
    8.2727  -15.8006   20.4513 C   0  0  0  0  0  0  0  0  0  0  0  0
    9.4912  -15.6572   20.2636 O   0  0  0  0  0  0  0  0  0  0  0  0
    6.9637  -15.0906   24.3835 O   0  0  0  0  0  0  0  0  0  0  0  0
    7.8514  -14.1537   23.8514 C   0  0  0  0  0  0  0  0  0  0  0  0
    8.5915  -14.7924   22.7261 C   0  0  2  0  0  0  0  0  0  0  0  0
    7.7565  -15.3335   21.6994 N   0  0  0  0  0  0  0  0  0  0  0  0
    9.5365  -15.8265   23.2752 C   0  0  0  0  0  0  0  0  0  0  0  0
    9.2123  -17.0284   23.2814 O   0  0  0  0  0  0  0  0  0  0  0  0
   10.7878  -15.4704   23.7867 N   0  0  0  0  0  0  0  0  0  0  0  0
   11.7959  -16.3956   24.2633 C   0  0  1  0  0  0  0  0  0  0  0  0
   13.1853  -15.9598   23.9806 C   0  0  0  0  0  0  0  0  0  0  0  0
   14.2547  -16.9296   24.4225 C   0  0  0  0  0  0  0  0  0  0  0  0
   15.6153  -16.3757   24.0602 C   0  0  0  0  0  0  0  0  0  0  0  0
   16.4460  -16.0645   24.9449 O   0  0  0  0  0  0  0  0  0  0  0  0
   11.5461  -16.7585   25.6798 C   0  0  0  0  0  0  0  0  0  0  0  0
   12.1314  -17.9161   26.2419 O   0  0  0  0  0  0  0  0  0  0  0  0
   15.9638  -16.2039   22.7421 O   0  0  0  0  0  0  0  0  0  0  0  0
   10.8308  -16.1135   26.4812 O   0  0  0  0  0  0  0  0  0  0  0  0
  2  1  1  6
  2  3  1  0
  4  2  1  0
  4  6  1  0
  4  5  1  6
  6  7  2  0
  9  8  1  0
 10  9  1  1
 11  6  1  0
 11 10  1  0
 12 10  1  0
 12 14  1  0
 13 12  2  0
 15 20  1  0
 15 14  1  0
 15 16  1  1
 17 16  1  0
 17 18  1  0
 18 19  2  0
 18 22  1  0
 20 21  1  0
 23 20  2  0
M  END
$$$$
