VSE.pdb
     RDKit          3D

 23 22  0  0  1  0  0  0  0  0999 V2000
    6.8739  -13.2528   20.8505 C   0  0  0  0  0  0  0  0  0  0  0  0
    8.2406  -13.1432   20.2149 C   0  0  2  0  0  0  0  0  0  0  0  0
    8.1234  -12.2572   18.9877 C   0  0  0  0  0  0  0  0  0  0  0  0
    8.7126  -14.5006   19.7348 C   0  0  2  0  0  0  0  0  0  0  0  0
    7.8629  -14.8931   18.6279 N   0  0  0  0  0  0  0  0  0  0  0  0
    8.6645  -15.5293   20.7784 C   0  0  0  0  0  0  0  0  0  0  0  0
    7.5739  -15.9532   21.1926 O   0  0  0  0  0  0  0  0  0  0  0  0
   11.2224  -18.5283   21.4518 O   0  0  0  0  0  0  0  0  0  0  0  0
   10.0074  -18.4216   22.1310 C   0  0  0  0  0  0  0  0  0  0  0  0
    9.7878  -16.9894   22.4811 C   0  0  2  0  0  0  0  0  0  0  0  0
    9.8378  -16.0932   21.3683 N   0  0  0  0  0  0  0  0  0  0  0  0
   10.7550  -16.5872   23.5613 C   0  0  0  0  0  0  0  0  0  0  0  0
   11.8644  -16.1096   23.2602 O   0  0  0  0  0  0  0  0  0  0  0  0
   10.4381  -16.7371   24.9146 N   0  0  0  0  0  0  0  0  0  0  0  0
   11.3498  -16.5240   26.0205 C   0  0  1  0  0  0  0  0  0  0  0  0
   10.7714  -15.7160   27.1217 C   0  0  0  0  0  0  0  0  0  0  0  0
    9.9997  -14.4979   26.6745 C   0  0  0  0  0  0  0  0  0  0  0  0
    9.5255  -13.7303   27.8891 C   0  0  0  0  0  0  0  0  0  0  0  0
    9.8428  -14.0876   29.0473 O   0  0  0  0  0  0  0  0  0  0  0  0
   11.9533  -17.8071   26.4565 C   0  0  0  0  0  0  0  0  0  0  0  0
   11.4937  -19.0361   25.9301 O   0  0  0  0  0  0  0  0  0  0  0  0
    8.7316  -12.6189   27.7388 O   0  0  0  0  0  0  0  0  0  0  0  0
   12.8811  -17.9293   27.2897 O   0  0  0  0  0  0  0  0  0  0  0  0
  2  1  1  6
  2  3  1  0
  4  2  1  0
  4  6  1  0
  4  5  1  6
  6  7  2  0
  9  8  1  0
 10  9  1  6
 11  6  1  0
 11 10  1  0
 12 10  1  0
 12 14  1  0
 13 12  2  0
 15 20  1  0
 15 14  1  0
 15 16  1  1
 17 16  1  0
 17 18  1  0
 18 19  2  0
 18 22  1  0
 20 21  1  0
 23 20  2  0
M  END
$$$$
