VSE.pdb
     RDKit          3D

 23 22  0  0  1  0  0  0  0  0999 V2000
    8.1143  -12.8214   26.8230 C   0  0  0  0  0  0  0  0  0  0  0  0
    7.3357  -12.2199   25.6761 C   0  0  2  0  0  0  0  0  0  0  0  0
    6.5544  -11.0306   26.2051 C   0  0  0  0  0  0  0  0  0  0  0  0
    6.3213  -13.2126   25.1454 C   0  0  2  0  0  0  0  0  0  0  0  0
    5.5366  -13.6804   26.2708 N   0  0  0  0  0  0  0  0  0  0  0  0
    6.9364  -14.3576   24.4669 C   0  0  0  0  0  0  0  0  0  0  0  0
    7.1497  -15.4129   25.0844 O   0  0  0  0  0  0  0  0  0  0  0  0
    7.1164  -15.4933   20.3322 O   0  0  0  0  0  0  0  0  0  0  0  0
    8.2995  -15.2045   21.0146 C   0  0  0  0  0  0  0  0  0  0  0  0
    8.0583  -15.3885   22.4740 C   0  0  2  0  0  0  0  0  0  0  0  0
    7.3187  -14.3314   23.0900 N   0  0  0  0  0  0  0  0  0  0  0  0
    9.3714  -15.6255   23.1695 C   0  0  0  0  0  0  0  0  0  0  0  0
    9.9390  -14.6925   23.7669 O   0  0  0  0  0  0  0  0  0  0  0  0
    9.9814  -16.8833   23.1637 N   0  0  0  0  0  0  0  0  0  0  0  0
   11.1348  -17.2623   23.9546 C   0  0  1  0  0  0  0  0  0  0  0  0
   10.7877  -17.8139   25.2871 C   0  0  0  0  0  0  0  0  0  0  0  0
   11.9713  -18.2268   26.1285 C   0  0  0  0  0  0  0  0  0  0  0  0
   11.4830  -18.7275   27.4702 C   0  0  0  0  0  0  0  0  0  0  0  0
   10.2840  -18.6037   27.8120 O   0  0  0  0  0  0  0  0  0  0  0  0
   12.0563  -18.1132   23.1627 C   0  0  0  0  0  0  0  0  0  0  0  0
   13.4438  -18.1206   23.4337 O   0  0  0  0  0  0  0  0  0  0  0  0
   12.3559  -19.3316   28.3428 O   0  0  0  0  0  0  0  0  0  0  0  0
   11.7206  -18.8718   22.2236 O   0  0  0  0  0  0  0  0  0  0  0  0
  2  1  1  1
  2  3  1  0
  4  2  1  0
  4  6  1  0
  4  5  1  1
  6  7  2  0
  9  8  1  0
 10  9  1  6
 11  6  1  0
 11 10  1  0
 12 10  1  0
 12 14  1  0
 13 12  2  0
 15 20  1  0
 15 14  1  0
 15 16  1  1
 17 16  1  0
 17 18  1  0
 18 19  2  0
 18 22  1  0
 20 21  1  0
 23 20  2  0
M  END
$$$$
