LKM.pdb
     RDKit          3D

 26 25  0  0  1  0  0  0  0  0999 V2000
   18.6240  -21.0884  -13.0625 C   0  0  0  0  0  0  0  0  0  0  0  0
   19.8693  -20.2303  -13.0525 C   0  0  1  0  0  0  0  0  0  0  0  0
   19.5549  -18.8120  -12.6318 C   0  0  0  0  0  0  0  0  0  0  0  0
   20.9291  -20.8499  -12.1787 C   0  0  0  0  0  0  0  0  0  0  0  0
   22.1411  -19.9513  -12.1388 C   0  0  2  0  0  0  0  0  0  0  0  0
   22.6433  -19.5950  -13.4244 N   0  0  0  0  0  0  0  0  0  0  0  0
   23.2008  -20.5359  -11.2554 C   0  0  0  0  0  0  0  0  0  0  0  0
   22.8900  -21.2651  -10.2850 O   0  0  0  0  0  0  0  0  0  0  0  0
   24.5870  -20.3007  -11.4645 N   0  0  0  0  0  0  0  0  0  0  0  0
   25.6389  -20.9875  -10.7446 C   0  0  1  0  0  0  0  0  0  0  0  0
   26.8751  -21.1655  -11.5950 C   0  0  0  0  0  0  0  0  0  0  0  0
   26.6185  -21.8514  -12.8888 C   0  0  0  0  0  0  0  0  0  0  0  0
   27.8574  -22.0186  -13.7344 C   0  0  0  0  0  0  0  0  0  0  0  0
   27.5252  -22.5742  -15.1050 C   0  0  0  0  0  0  0  0  0  0  0  0
   28.6932  -22.6745  -15.9487 N   0  0  0  0  0  0  0  0  0  0  0  0
   26.0626  -20.1325   -9.5775 C   0  0  0  0  0  0  0  0  0  0  0  0
   25.9275  -18.8852   -9.6717 O   0  0  0  0  0  0  0  0  0  0  0  0
   28.4069  -22.1832   -3.8184 C   0  0  0  0  0  0  0  0  0  0  0  0
   27.8667  -20.4829   -3.3962 S   0  0  0  0  0  0  0  0  0  0  0  0
   27.7375  -19.5944   -4.9958 C   0  0  0  0  0  0  0  0  0  0  0  0
   27.1342  -20.4773   -6.0431 C   0  0  0  0  0  0  0  0  0  0  0  0
   27.0986  -19.8102   -7.3651 C   0  0  2  0  0  0  0  0  0  0  0  0
   26.5993  -20.7100   -8.4026 N   0  0  0  0  0  0  0  0  0  0  0  0
   28.3990  -19.3059   -7.7922 C   0  0  0  0  0  0  0  0  0  0  0  0
   28.8811  -18.0891   -7.3892 O   0  0  0  0  0  0  0  0  0  0  0  0
   29.1330  -19.9983   -8.5708 O   0  0  0  0  0  0  0  0  0  0  0  0
  2  3  1  1
  2  1  1  0
  4  2  1  0
  5  6  1  6
  5  4  1  0
  7  5  1  0
  8  7  2  0
  9  7  1  0
 10  9  1  0
 10 11  1  6
 11 12  1  0
 12 13  1  0
 13 14  1  0
 15 14  1  0
 16 10  1  0
 17 16  2  0
 19 20  1  0
 19 18  1  0
 20 21  1  0
 22 21  1  1
 22 24  1  0
 22 23  1  0
 23 16  1  0
 24 25  1  0
 26 24  2  0
M  END
$$$$
