LKM.pdb
     RDKit          3D

 26 25  0  0  1  0  0  0  0  0999 V2000
   16.5319  -15.2804  -19.7518 C   0  0  0  0  0  0  0  0  0  0  0  0
   17.0372  -14.7981  -18.4103 C   0  0  1  0  0  0  0  0  0  0  0  0
   18.3292  -15.4866  -18.0311 C   0  0  0  0  0  0  0  0  0  0  0  0
   17.1828  -13.2983  -18.4103 C   0  0  0  0  0  0  0  0  0  0  0  0
   17.6334  -12.8337  -17.0469 C   0  0  2  0  0  0  0  0  0  0  0  0
   16.7827  -13.2481  -15.9809 N   0  0  0  0  0  0  0  0  0  0  0  0
   17.8677  -11.3537  -17.0461 C   0  0  0  0  0  0  0  0  0  0  0  0
   18.4506  -10.8008  -18.0075 O   0  0  0  0  0  0  0  0  0  0  0  0
   17.4509  -10.5135  -15.9780 N   0  0  0  0  0  0  0  0  0  0  0  0
   17.6414   -9.0782  -15.9598 C   0  0  1  0  0  0  0  0  0  0  0  0
   16.6523   -8.3939  -15.0451 C   0  0  0  0  0  0  0  0  0  0  0  0
   15.2757   -8.3173  -15.6014 C   0  0  0  0  0  0  0  0  0  0  0  0
   14.2842   -7.6766  -14.6610 C   0  0  0  0  0  0  0  0  0  0  0  0
   12.9113   -7.5618  -15.2932 C   0  0  0  0  0  0  0  0  0  0  0  0
   11.9205   -7.0827  -14.3578 N   0  0  0  0  0  0  0  0  0  0  0  0
   19.0041   -8.7795  -15.3885 C   0  0  0  0  0  0  0  0  0  0  0  0
   19.3253   -9.3193  -14.2984 O   0  0  0  0  0  0  0  0  0  0  0  0
   26.4905   -8.8576  -15.9202 C   0  0  0  0  0  0  0  0  0  0  0  0
   24.8955   -9.0526  -16.8027 S   0  0  0  0  0  0  0  0  0  0  0  0
   23.6351   -8.2710  -15.7232 C   0  0  0  0  0  0  0  0  0  0  0  0
   22.2734   -8.3834  -16.3342 C   0  0  0  0  0  0  0  0  0  0  0  0
   21.2397   -7.7478  -15.4848 C   0  0  2  0  0  0  0  0  0  0  0  0
   19.9048   -7.9154  -16.0549 N   0  0  0  0  0  0  0  0  0  0  0  0
   21.4643   -6.3223  -15.2720 C   0  0  0  0  0  0  0  0  0  0  0  0
   22.4182   -5.8519  -14.4092 O   0  0  0  0  0  0  0  0  0  0  0  0
   20.7607   -5.4607  -15.8941 O   0  0  0  0  0  0  0  0  0  0  0  0
  2  3  1  6
  2  1  1  0
  4  2  1  0
  5  6  1  1
  5  4  1  0
  7  5  1  0
  8  7  2  0
  9  7  1  0
 10  9  1  0
 10 11  1  1
 11 12  1  0
 12 13  1  0
 13 14  1  0
 15 14  1  0
 16 10  1  0
 17 16  2  0
 19 20  1  0
 19 18  1  0
 20 21  1  0
 22 21  1  6
 22 24  1  0
 22 23  1  0
 23 16  1  0
 24 25  1  0
 26 24  2  0
M  END
$$$$
