LKM.pdb
     RDKit          3D

 26 25  0  0  1  0  0  0  0  0999 V2000
   18.2709  -16.1747  -15.7430 C   0  0  0  0  0  0  0  0  0  0  0  0
   17.7304  -15.2614  -16.8206 C   0  0  1  0  0  0  0  0  0  0  0  0
   16.2734  -14.9337  -16.5819 C   0  0  0  0  0  0  0  0  0  0  0  0
   18.5725  -14.0164  -16.9273 C   0  0  0  0  0  0  0  0  0  0  0  0
   18.0546  -13.1499  -18.0493 C   0  0  2  0  0  0  0  0  0  0  0  0
   18.2230  -13.7161  -19.3466 N   0  0  0  0  0  0  0  0  0  0  0  0
   18.6248  -11.7675  -17.9528 C   0  0  0  0  0  0  0  0  0  0  0  0
   19.8312  -11.5564  -18.2171 O   0  0  0  0  0  0  0  0  0  0  0  0
   17.8457  -10.6437  -17.5645 N   0  0  0  0  0  0  0  0  0  0  0  0
   18.3650   -9.2952  -17.4741 C   0  0  1  0  0  0  0  0  0  0  0  0
   17.2867   -8.3038  -17.1028 C   0  0  0  0  0  0  0  0  0  0  0  0
   17.7891   -6.9188  -16.9042 C   0  0  0  0  0  0  0  0  0  0  0  0
   17.7546   -6.0830  -18.1605 C   0  0  0  0  0  0  0  0  0  0  0  0
   18.3083   -4.6927  -17.9197 C   0  0  0  0  0  0  0  0  0  0  0  0
   18.1827   -3.8482  -19.0847 N   0  0  0  0  0  0  0  0  0  0  0  0
   19.3754   -9.2410  -16.3566 C   0  0  0  0  0  0  0  0  0  0  0  0
   19.1305   -9.8780  -15.2996 O   0  0  0  0  0  0  0  0  0  0  0  0
   26.4396  -10.4307  -14.0225 C   0  0  0  0  0  0  0  0  0  0  0  0
   25.2264  -10.4660  -15.3966 S   0  0  0  0  0  0  0  0  0  0  0  0
   23.7775   -9.5119  -14.8006 C   0  0  0  0  0  0  0  0  0  0  0  0
   22.7210   -9.4404  -15.8584 C   0  0  0  0  0  0  0  0  0  0  0  0
   21.5692   -8.6161  -15.4247 C   0  0  2  0  0  0  0  0  0  0  0  0
   20.5711   -8.4955  -16.4851 N   0  0  0  0  0  0  0  0  0  0  0  0
   21.9475   -7.2711  -15.0054 C   0  0  0  0  0  0  0  0  0  0  0  0
   22.0523   -6.2306  -15.8896 O   0  0  0  0  0  0  0  0  0  0  0  0
   22.1990   -7.0266  -13.7801 O   0  0  0  0  0  0  0  0  0  0  0  0
  2  3  1  1
  2  1  1  0
  4  2  1  0
  5  6  1  6
  5  4  1  0
  7  5  1  0
  8  7  2  0
  9  7  1  0
 10  9  1  0
 10 11  1  1
 11 12  1  0
 12 13  1  0
 13 14  1  0
 15 14  1  0
 16 10  1  0
 17 16  2  0
 19 20  1  0
 19 18  1  0
 20 21  1  0
 22 21  1  6
 22 24  1  0
 22 23  1  0
 23 16  1  0
 24 25  1  0
 26 24  2  0
M  END
$$$$
