WQQ.pdb
     RDKit          3D

 33 34  0  0  1  0  0  0  0  0999 V2000
   21.8599  -14.7551  -20.8824 N   0  0  0  0  0  0  0  0  0  0  0  0
   21.7565  -15.1396  -19.4755 C   0  0  1  0  0  0  0  0  0  0  0  0
   21.3893  -13.8949  -18.7232 C   0  0  0  0  0  0  0  0  0  0  0  0
   22.1041  -12.6809  -19.1601 C   0  0  0  0  0  0  0  0  0  0  0  0
   23.4896  -12.4953  -19.1243 C   0  0  0  0  0  0  0  0  0  0  0  0
   23.8067  -11.2617  -19.5872 N   0  0  0  0  0  0  0  0  0  0  0  0
   22.6559  -10.6366  -19.9252 C   0  0  0  0  0  0  0  0  0  0  0  0
   22.3570   -9.4198  -20.4298 C   0  0  0  0  0  0  0  0  0  0  0  0
   21.0935   -8.9941  -20.7006 C   0  0  0  0  0  0  0  0  0  0  0  0
   20.0229   -9.8600  -20.4433 C   0  0  0  0  0  0  0  0  0  0  0  0
   20.3075  -11.1055  -19.9271 C   0  0  0  0  0  0  0  0  0  0  0  0
   21.5888  -11.5158  -19.6620 C   0  0  0  0  0  0  0  0  0  0  0  0
   20.7127  -16.2139  -19.3164 C   0  0  0  0  0  0  0  0  0  0  0  0
   19.5822  -16.0519  -19.8374 O   0  0  0  0  0  0  0  0  0  0  0  0
   22.5090  -22.1260  -18.3820 N   0  0  0  0  0  0  0  0  0  0  0  0
   22.6145  -21.2111  -17.3250 C   0  0  0  0  0  0  0  0  0  0  0  0
   23.3657  -21.5585  -16.3347 O   0  0  0  0  0  0  0  0  0  0  0  0
   21.9291  -19.8792  -17.2566 C   0  0  0  0  0  0  0  0  0  0  0  0
   20.8900  -19.8299  -18.3407 C   0  0  0  0  0  0  0  0  0  0  0  0
   20.1929  -18.4652  -18.2332 C   0  0  2  0  0  0  0  0  0  0  0  0
   21.0376  -17.3753  -18.5820 N   0  0  0  0  0  0  0  0  0  0  0  0
   19.4421  -18.3386  -16.9867 C   0  0  0  0  0  0  0  0  0  0  0  0
   19.7888  -17.6019  -16.0647 O   0  0  0  0  0  0  0  0  0  0  0  0
   20.9546  -19.5453  -13.0588 N   0  0  0  0  0  0  0  0  0  0  0  0
   20.1767  -18.3813  -12.9043 C   0  0  0  0  0  0  0  0  0  0  0  0
   20.6217  -17.4471  -12.1744 O   0  0  0  0  0  0  0  0  0  0  0  0
   18.8680  -18.1837  -13.5557 C   0  0  0  0  0  0  0  0  0  0  0  0
   18.3299  -19.2820  -14.3570 C   0  0  0  0  0  0  0  0  0  0  0  0
   17.4734  -18.9349  -15.5219 C   0  0  2  0  0  0  0  0  0  0  0  0
   18.2197  -19.0868  -16.7675 N   0  0  0  0  0  0  0  0  0  0  0  0
   16.6883  -17.7257  -15.4043 C   0  0  0  0  0  0  0  0  0  0  0  0
   17.2151  -16.6171  -15.3784 O   0  0  0  0  0  0  0  0  0  0  0  0
   15.3013  -17.8560  -15.3304 O   0  0  0  0  0  0  0  0  0  0  0  0
  2  1  1  6
  2  3  1  0
  3  4  1  0
  4  5  2  0
  5  6  1  0
  7  6  1  0
  8  7  2  0
  9  8  1  0
 10 11  1  0
 10  9  2  0
 11 12  2  0
 12  4  1  0
 12  7  1  0
 13 14  2  0
 13  2  1  0
 15 16  1  0
 16 17  2  0
 18 19  1  0
 18 16  1  0
 20 19  1  1
 20 21  1  0
 21 13  1  0
 22 30  1  0
 22 20  1  0
 23 22  2  0
 24 25  1  0
 25 26  2  0
 27 28  1  0
 27 25  1  0
 29 28  1  1
 29 30  1  0
 29 31  1  0
 31 33  1  0
 32 31  2  0
M  END
$$$$
