WQQ.pdb
     RDKit          3D

 33 34  0  0  1  0  0  0  0  0999 V2000
   25.0321  -18.9829  -11.0502 N   0  0  0  0  0  0  0  0  0  0  0  0
   26.0717  -19.9700  -11.3374 C   0  0  1  0  0  0  0  0  0  0  0  0
   25.8086  -21.1364  -10.4317 C   0  0  0  0  0  0  0  0  0  0  0  0
   25.8485  -20.8165   -8.9924 C   0  0  0  0  0  0  0  0  0  0  0  0
   24.7370  -20.7197   -8.1493 C   0  0  0  0  0  0  0  0  0  0  0  0
   25.1314  -20.3984   -6.8931 N   0  0  0  0  0  0  0  0  0  0  0  0
   26.4790  -20.2832   -6.8978 C   0  0  0  0  0  0  0  0  0  0  0  0
   27.4033  -19.9884   -5.9579 C   0  0  0  0  0  0  0  0  0  0  0  0
   28.7418  -19.9295   -6.1943 C   0  0  0  0  0  0  0  0  0  0  0  0
   29.2073  -20.1864   -7.4902 C   0  0  0  0  0  0  0  0  0  0  0  0
   28.2795  -20.4879   -8.4633 C   0  0  0  0  0  0  0  0  0  0  0  0
   26.9342  -20.5429   -8.2041 C   0  0  0  0  0  0  0  0  0  0  0  0
   26.0095  -20.3679  -12.7889 C   0  0  0  0  0  0  0  0  0  0  0  0
   24.9272  -20.7928  -13.2620 O   0  0  0  0  0  0  0  0  0  0  0  0
   29.7812  -18.1540  -16.4389 N   0  0  0  0  0  0  0  0  0  0  0  0
   29.3806  -19.1607  -17.3285 C   0  0  0  0  0  0  0  0  0  0  0  0
   29.5508  -18.9207  -18.5851 O   0  0  0  0  0  0  0  0  0  0  0  0
   28.7756  -20.4758  -16.9375 C   0  0  0  0  0  0  0  0  0  0  0  0
   28.7712  -20.5629  -15.4375 C   0  0  0  0  0  0  0  0  0  0  0  0
   27.3109  -20.4170  -14.9833 C   0  0  2  0  0  0  0  0  0  0  0  0
   27.1752  -20.2518  -13.5771 N   0  0  0  0  0  0  0  0  0  0  0  0
   26.4474  -21.4134  -15.6118 C   0  0  0  0  0  0  0  0  0  0  0  0
   26.3741  -22.5790  -15.2258 O   0  0  0  0  0  0  0  0  0  0  0  0
   22.2819  -21.9440  -12.8684 N   0  0  0  0  0  0  0  0  0  0  0  0
   22.2965  -22.9997  -13.8006 C   0  0  0  0  0  0  0  0  0  0  0  0
   21.7489  -24.0965  -13.4830 O   0  0  0  0  0  0  0  0  0  0  0  0
   22.9100  -22.8972  -15.1381 C   0  0  0  0  0  0  0  0  0  0  0  0
   23.6481  -21.6768  -15.4605 C   0  0  0  0  0  0  0  0  0  0  0  0
   24.2357  -21.5615  -16.8215 C   0  0  2  0  0  0  0  0  0  0  0  0
   25.6093  -21.0727  -16.7447 N   0  0  0  0  0  0  0  0  0  0  0  0
   23.4043  -20.9413  -17.8296 C   0  0  0  0  0  0  0  0  0  0  0  0
   23.6996  -19.8599  -18.3302 O   0  0  0  0  0  0  0  0  0  0  0  0
   22.2515  -21.6185  -18.2280 O   0  0  0  0  0  0  0  0  0  0  0  0
  2  1  1  6
  2  3  1  0
  3  4  1  0
  4  5  2  0
  5  6  1  0
  7  6  1  0
  8  7  2  0
  9  8  1  0
 10 11  1  0
 10  9  2  0
 11 12  2  0
 12  4  1  0
 12  7  1  0
 13 14  2  0
 13  2  1  0
 15 16  1  0
 16 17  2  0
 18 19  1  0
 18 16  1  0
 20 19  1  1
 20 21  1  0
 21 13  1  0
 22 30  1  0
 22 20  1  0
 23 22  2  0
 24 25  1  0
 25 26  2  0
 27 28  1  0
 27 25  1  0
 29 28  1  1
 29 30  1  0
 29 31  1  0
 31 33  1  0
 32 31  2  0
M  END
$$$$
