WQQ.pdb
     RDKit          3D

 33 34  0  0  1  0  0  0  0  0999 V2000
   16.6789  -24.9766   -4.6867 N   0  0  0  0  0  0  0  0  0  0  0  0
   15.3096  -24.8608   -4.1870 C   0  0  1  0  0  0  0  0  0  0  0  0
   14.9427  -26.2100   -3.6438 C   0  0  0  0  0  0  0  0  0  0  0  0
   14.7150  -27.2436   -4.6712 C   0  0  0  0  0  0  0  0  0  0  0  0
   15.6775  -28.1345   -5.1561 C   0  0  0  0  0  0  0  0  0  0  0  0
   15.1335  -28.9394   -6.1011 N   0  0  0  0  0  0  0  0  0  0  0  0
   13.8340  -28.5926   -6.2437 C   0  0  0  0  0  0  0  0  0  0  0  0
   12.8199  -29.0345   -7.0190 C   0  0  0  0  0  0  0  0  0  0  0  0
   11.5590  -28.5243   -6.9920 C   0  0  0  0  0  0  0  0  0  0  0  0
   11.2785  -27.4720   -6.1111 C   0  0  0  0  0  0  0  0  0  0  0  0
   12.3005  -27.0064   -5.3126 C   0  0  0  0  0  0  0  0  0  0  0  0
   13.5649  -27.5353   -5.3546 C   0  0  0  0  0  0  0  0  0  0  0  0
   15.2436  -23.7963   -3.1235 C   0  0  0  0  0  0  0  0  0  0  0  0
   16.2044  -23.6664   -2.3260 O   0  0  0  0  0  0  0  0  0  0  0  0
   10.6428  -19.1605   -3.0214 N   0  0  0  0  0  0  0  0  0  0  0  0
   11.4416  -19.0333   -1.8763 C   0  0  0  0  0  0  0  0  0  0  0  0
   11.2132  -18.0091   -1.1249 O   0  0  0  0  0  0  0  0  0  0  0  0
   12.5276  -19.9817   -1.4646 C   0  0  0  0  0  0  0  0  0  0  0  0
   12.6619  -21.0326   -2.5299 C   0  0  0  0  0  0  0  0  0  0  0  0
   13.7741  -21.9910   -2.0779 C   0  0  2  0  0  0  0  0  0  0  0  0
   14.0982  -22.9736   -3.0538 N   0  0  0  0  0  0  0  0  0  0  0  0
   13.5547  -22.4692   -0.7153 C   0  0  0  0  0  0  0  0  0  0  0  0
   13.0448  -23.5587   -0.4589 O   0  0  0  0  0  0  0  0  0  0  0  0
   16.0299  -26.5065    1.6979 N   0  0  0  0  0  0  0  0  0  0  0  0
   16.3846  -25.4159    2.5157 C   0  0  0  0  0  0  0  0  0  0  0  0
   17.4992  -25.4454    3.1159 O   0  0  0  0  0  0  0  0  0  0  0  0
   15.5294  -24.2293    2.7074 C   0  0  0  0  0  0  0  0  0  0  0  0
   15.1064  -23.4916    1.5180 C   0  0  0  0  0  0  0  0  0  0  0  0
   14.2289  -22.3071    1.7129 C   0  0  2  0  0  0  0  0  0  0  0  0
   13.9393  -21.6699    0.4317 N   0  0  0  0  0  0  0  0  0  0  0  0
   14.5875  -21.4127    2.7917 C   0  0  0  0  0  0  0  0  0  0  0  0
   14.9815  -20.2702    2.5756 O   0  0  0  0  0  0  0  0  0  0  0  0
   14.4621  -21.8868    4.0978 O   0  0  0  0  0  0  0  0  0  0  0  0
  2  1  1  1
  2  3  1  0
  3  4  1  0
  4  5  2  0
  5  6  1  0
  7  6  1  0
  8  7  2  0
  9  8  1  0
 10 11  1  0
 10  9  2  0
 11 12  2  0
 12  4  1  0
 12  7  1  0
 13 14  2  0
 13  2  1  0
 15 16  1  0
 16 17  2  0
 18 19  1  0
 18 16  1  0
 20 19  1  6
 20 21  1  0
 21 13  1  0
 22 30  1  0
 22 20  1  0
 23 22  2  0
 24 25  1  0
 25 26  2  0
 27 28  1  0
 27 25  1  0
 29 28  1  6
 29 30  1  0
 29 31  1  0
 31 33  1  0
 32 31  2  0
M  END
$$$$
