WQQ.pdb
     RDKit          3D

 33 34  0  0  1  0  0  0  0  0999 V2000
   25.4442  -17.7024  -17.4129 N   0  0  0  0  0  0  0  0  0  0  0  0
   25.0659  -17.5234  -16.0119 C   0  0  1  0  0  0  0  0  0  0  0  0
   24.1050  -16.3721  -15.9776 C   0  0  0  0  0  0  0  0  0  0  0  0
   24.6469  -15.1051  -16.5037 C   0  0  0  0  0  0  0  0  0  0  0  0
   24.0951  -14.3550  -17.5469 C   0  0  0  0  0  0  0  0  0  0  0  0
   24.8524  -13.2560  -17.7821 N   0  0  0  0  0  0  0  0  0  0  0  0
   25.8888  -13.2723  -16.9132 C   0  0  0  0  0  0  0  0  0  0  0  0
   26.9402  -12.4557  -16.6845 C   0  0  0  0  0  0  0  0  0  0  0  0
   27.8842  -12.6745  -15.7295 C   0  0  0  0  0  0  0  0  0  0  0  0
   27.7745  -13.8160  -14.9251 C   0  0  0  0  0  0  0  0  0  0  0  0
   26.7091  -14.6621  -15.1440 C   0  0  0  0  0  0  0  0  0  0  0  0
   25.7676  -14.4229  -16.1117 C   0  0  0  0  0  0  0  0  0  0  0  0
   24.4373  -18.7881  -15.4883 C   0  0  0  0  0  0  0  0  0  0  0  0
   23.6946  -19.4616  -16.2437 O   0  0  0  0  0  0  0  0  0  0  0  0
   27.1819  -22.0314  -15.2501 N   0  0  0  0  0  0  0  0  0  0  0  0
   26.4805  -22.0241  -14.0363 C   0  0  0  0  0  0  0  0  0  0  0  0
   25.7356  -23.0500  -13.7947 O   0  0  0  0  0  0  0  0  0  0  0  0
   26.5268  -20.9296  -13.0124 C   0  0  0  0  0  0  0  0  0  0  0  0
   25.1702  -20.8253  -12.3751 C   0  0  0  0  0  0  0  0  0  0  0  0
   24.2052  -20.3116  -13.4544 C   0  0  2  0  0  0  0  0  0  0  0  0
   24.7021  -19.1797  -14.1578 N   0  0  0  0  0  0  0  0  0  0  0  0
   22.8350  -20.2230  -12.9562 C   0  0  0  0  0  0  0  0  0  0  0  0
   22.4642  -19.3646  -12.1571 O   0  0  0  0  0  0  0  0  0  0  0  0
   19.0567  -17.8444  -15.9551 N   0  0  0  0  0  0  0  0  0  0  0  0
   18.2884  -18.1167  -14.8065 C   0  0  0  0  0  0  0  0  0  0  0  0
   17.1304  -17.6119  -14.7180 O   0  0  0  0  0  0  0  0  0  0  0  0
   18.7556  -18.9692  -13.6970 C   0  0  0  0  0  0  0  0  0  0  0  0
   20.1346  -19.4533  -13.7402 C   0  0  0  0  0  0  0  0  0  0  0  0
   20.4012  -20.8305  -13.2470 C   0  0  2  0  0  0  0  0  0  0  0  0
   21.8164  -21.1591  -13.3904 N   0  0  0  0  0  0  0  0  0  0  0  0
   19.4729  -21.8556  -13.6711 C   0  0  0  0  0  0  0  0  0  0  0  0
   19.8152  -22.7596  -14.4280 O   0  0  0  0  0  0  0  0  0  0  0  0
   18.1675  -21.7926  -13.1829 O   0  0  0  0  0  0  0  0  0  0  0  0
  2  1  1  6
  2  3  1  0
  3  4  1  0
  4  5  2  0
  5  6  1  0
  7  6  1  0
  8  7  2  0
  9  8  1  0
 10 11  1  0
 10  9  2  0
 11 12  2  0
 12  4  1  0
 12  7  1  0
 13 14  2  0
 13  2  1  0
 15 16  1  0
 16 17  2  0
 18 19  1  0
 18 16  1  0
 20 19  1  1
 20 21  1  0
 21 13  1  0
 22 30  1  0
 22 20  1  0
 23 22  2  0
 24 25  1  0
 25 26  2  0
 27 28  1  0
 27 25  1  0
 29 28  1  6
 29 30  1  0
 29 31  1  0
 31 33  1  0
 32 31  2  0
M  END
$$$$
