WQQ.pdb
     RDKit          3D

 33 34  0  0  1  0  0  0  0  0999 V2000
   27.7517  -20.6458  -10.4615 N   0  0  0  0  0  0  0  0  0  0  0  0
   26.4886  -21.0560   -9.8497 C   0  0  1  0  0  0  0  0  0  0  0  0
   26.5541  -20.6234   -8.4149 C   0  0  0  0  0  0  0  0  0  0  0  0
   27.9170  -20.5630   -7.8542 C   0  0  0  0  0  0  0  0  0  0  0  0
   29.0810  -20.9966   -8.4964 C   0  0  0  0  0  0  0  0  0  0  0  0
   30.1553  -20.8065   -7.6925 N   0  0  0  0  0  0  0  0  0  0  0  0
   29.7171  -20.2569   -6.5370 C   0  0  0  0  0  0  0  0  0  0  0  0
   30.3185  -19.8581   -5.3951 C   0  0  0  0  0  0  0  0  0  0  0  0
   29.6614  -19.3154   -4.3346 C   0  0  0  0  0  0  0  0  0  0  0  0
   28.2723  -19.1550   -4.4151 C   0  0  0  0  0  0  0  0  0  0  0  0
   27.6403  -19.5571   -5.5717 C   0  0  0  0  0  0  0  0  0  0  0  0
   28.3214  -20.1014   -6.6301 C   0  0  0  0  0  0  0  0  0  0  0  0
   25.3377  -20.4081  -10.5739 C   0  0  0  0  0  0  0  0  0  0  0  0
   24.8815  -19.3186  -10.1488 O   0  0  0  0  0  0  0  0  0  0  0  0
   25.1274  -19.5647  -16.6080 N   0  0  0  0  0  0  0  0  0  0  0  0
   23.8720  -19.1778  -16.1182 C   0  0  0  0  0  0  0  0  0  0  0  0
   23.1471  -18.4508  -16.9003 O   0  0  0  0  0  0  0  0  0  0  0  0
   23.3156  -19.5369  -14.7729 C   0  0  0  0  0  0  0  0  0  0  0  0
   24.3500  -20.3401  -14.0364 C   0  0  0  0  0  0  0  0  0  0  0  0
   23.8140  -20.5670  -12.6147 C   0  0  2  0  0  0  0  0  0  0  0  0
   24.8030  -21.0485  -11.7130 N   0  0  0  0  0  0  0  0  0  0  0  0
   22.5370  -21.2760  -12.6253 C   0  0  0  0  0  0  0  0  0  0  0  0
   22.4038  -22.4274  -12.2137 O   0  0  0  0  0  0  0  0  0  0  0  0
   20.1533  -24.2716  -15.9325 N   0  0  0  0  0  0  0  0  0  0  0  0
   19.0860  -24.3254  -15.0150 C   0  0  0  0  0  0  0  0  0  0  0  0
   18.0876  -25.0548  -15.2884 O   0  0  0  0  0  0  0  0  0  0  0  0
   19.0685  -23.5819  -13.7410 C   0  0  0  0  0  0  0  0  0  0  0  0
   20.2499  -22.7940  -13.3925 C   0  0  0  0  0  0  0  0  0  0  0  0
   20.0555  -21.3519  -13.0870 C   0  0  2  0  0  0  0  0  0  0  0  0
   21.3322  -20.6448  -13.1274 N   0  0  0  0  0  0  0  0  0  0  0  0
   19.2027  -21.0433  -11.9601 C   0  0  0  0  0  0  0  0  0  0  0  0
   19.5577  -20.2651  -11.0794 O   0  0  0  0  0  0  0  0  0  0  0  0
   17.9493  -21.6535  -11.9073 O   0  0  0  0  0  0  0  0  0  0  0  0
  2  1  1  6
  2  3  1  0
  3  4  1  0
  4  5  2  0
  5  6  1  0
  7  6  1  0
  8  7  2  0
  9  8  1  0
 10 11  1  0
 10  9  2  0
 11 12  2  0
 12  4  1  0
 12  7  1  0
 13 14  2  0
 13  2  1  0
 15 16  1  0
 16 17  2  0
 18 19  1  0
 18 16  1  0
 20 19  1  6
 20 21  1  0
 21 13  1  0
 22 30  1  0
 22 20  1  0
 23 22  2  0
 24 25  1  0
 25 26  2  0
 27 28  1  0
 27 25  1  0
 29 28  1  1
 29 30  1  0
 29 31  1  0
 31 33  1  0
 32 31  2  0
M  END
$$$$
