WQQ.pdb
     RDKit          3D

 33 34  0  0  1  0  0  0  0  0999 V2000
   27.8295  -21.1915   -9.3801 N   0  0  0  0  0  0  0  0  0  0  0  0
   26.3838  -21.0205   -9.2439 C   0  0  1  0  0  0  0  0  0  0  0  0
   26.1739  -20.1295   -8.0556 C   0  0  0  0  0  0  0  0  0  0  0  0
   27.4098  -19.7598   -7.3403 C   0  0  0  0  0  0  0  0  0  0  0  0
   28.4299  -18.9475   -7.8451 C   0  0  0  0  0  0  0  0  0  0  0  0
   29.4227  -18.8238   -6.9308 N   0  0  0  0  0  0  0  0  0  0  0  0
   29.0719  -19.5391   -5.8378 C   0  0  0  0  0  0  0  0  0  0  0  0
   29.6530  -19.7800   -4.6424 C   0  0  0  0  0  0  0  0  0  0  0  0
   29.1011  -20.5499   -3.6658 C   0  0  0  0  0  0  0  0  0  0  0  0
   27.8522  -21.1392   -3.8998 C   0  0  0  0  0  0  0  0  0  0  0  0
   27.2438  -20.9061   -5.1141 C   0  0  0  0  0  0  0  0  0  0  0  0
   27.8168  -20.1260   -6.0853 C   0  0  0  0  0  0  0  0  0  0  0  0
   25.8221  -20.4115  -10.5018 C   0  0  0  0  0  0  0  0  0  0  0  0
   26.2852  -19.3199  -10.9139 O   0  0  0  0  0  0  0  0  0  0  0  0
   27.7043  -19.8425  -14.0718 N   0  0  0  0  0  0  0  0  0  0  0  0
   27.0685  -21.0554  -14.3719 C   0  0  0  0  0  0  0  0  0  0  0  0
   27.7940  -21.9630  -14.9337 O   0  0  0  0  0  0  0  0  0  0  0  0
   25.6294  -21.3738  -14.0964 C   0  0  0  0  0  0  0  0  0  0  0  0
   24.9942  -20.1671  -13.4655 C   0  0  0  0  0  0  0  0  0  0  0  0
   24.0765  -20.6771  -12.3441 C   0  0  2  0  0  0  0  0  0  0  0  0
   24.7865  -21.0883  -11.1822 N   0  0  0  0  0  0  0  0  0  0  0  0
   23.0630  -21.5982  -12.8520 C   0  0  0  0  0  0  0  0  0  0  0  0
   23.1584  -22.8209  -12.7588 O   0  0  0  0  0  0  0  0  0  0  0  0
   19.7380  -22.7218   -9.0929 N   0  0  0  0  0  0  0  0  0  0  0  0
   18.8454  -23.0685  -10.1258 C   0  0  0  0  0  0  0  0  0  0  0  0
   17.7637  -23.6525   -9.8218 O   0  0  0  0  0  0  0  0  0  0  0  0
   19.0967  -22.7807  -11.5506 C   0  0  0  0  0  0  0  0  0  0  0  0
   20.3582  -22.1321  -11.9054 C   0  0  0  0  0  0  0  0  0  0  0  0
   20.5944  -21.8131  -13.3383 C   0  0  2  0  0  0  0  0  0  0  0  0
   21.8629  -21.1093  -13.5023 N   0  0  0  0  0  0  0  0  0  0  0  0
   19.4726  -21.2628  -14.0672 C   0  0  0  0  0  0  0  0  0  0  0  0
   19.4323  -20.0781  -14.3866 O   0  0  0  0  0  0  0  0  0  0  0  0
   18.4324  -22.1274  -14.4088 O   0  0  0  0  0  0  0  0  0  0  0  0
  2  1  1  6
  2  3  1  0
  3  4  1  0
  4  5  2  0
  5  6  1  0
  7  6  1  0
  8  7  2  0
  9  8  1  0
 10 11  1  0
 10  9  2  0
 11 12  2  0
 12  4  1  0
 12  7  1  0
 13 14  2  0
 13  2  1  0
 15 16  1  0
 16 17  2  0
 18 19  1  0
 18 16  1  0
 20 19  1  6
 20 21  1  0
 21 13  1  0
 22 30  1  0
 22 20  1  0
 23 22  2  0
 24 25  1  0
 25 26  2  0
 27 28  1  0
 27 25  1  0
 29 28  1  1
 29 30  1  0
 29 31  1  0
 31 33  1  0
 32 31  2  0
M  END
$$$$
