WQQ.pdb
     RDKit          3D

 33 34  0  0  1  0  0  0  0  0999 V2000
   26.8820  -22.3126  -13.0082 N   0  0  0  0  0  0  0  0  0  0  0  0
   26.0502  -21.4504  -12.1699 C   0  0  1  0  0  0  0  0  0  0  0  0
   26.8644  -20.2226  -11.8878 C   0  0  0  0  0  0  0  0  0  0  0  0
   27.9135  -20.4037  -10.8669 C   0  0  0  0  0  0  0  0  0  0  0  0
   29.2798  -20.5564  -11.1225 C   0  0  0  0  0  0  0  0  0  0  0  0
   29.9570  -20.7128   -9.9590 N   0  0  0  0  0  0  0  0  0  0  0  0
   29.0606  -20.6653   -8.9473 C   0  0  0  0  0  0  0  0  0  0  0  0
   29.1505  -20.7606   -7.6029 C   0  0  0  0  0  0  0  0  0  0  0  0
   28.0870  -20.6795   -6.7582 C   0  0  0  0  0  0  0  0  0  0  0  0
   26.8104  -20.4872   -7.3015 C   0  0  0  0  0  0  0  0  0  0  0  0
   26.6980  -20.3887   -8.6714 C   0  0  0  0  0  0  0  0  0  0  0  0
   27.7831  -20.4723   -9.5055 C   0  0  0  0  0  0  0  0  0  0  0  0
   24.7721  -21.1160  -12.8934 C   0  0  0  0  0  0  0  0  0  0  0  0
   24.7968  -20.9538  -14.1380 O   0  0  0  0  0  0  0  0  0  0  0  0
   18.9497  -21.2220   -9.9010 N   0  0  0  0  0  0  0  0  0  0  0  0
   18.7645  -21.0902  -11.2843 C   0  0  0  0  0  0  0  0  0  0  0  0
   17.5455  -21.1136  -11.7076 O   0  0  0  0  0  0  0  0  0  0  0  0
   19.8591  -20.9287  -12.2963 C   0  0  0  0  0  0  0  0  0  0  0  0
   21.1761  -20.9755  -11.5746 C   0  0  0  0  0  0  0  0  0  0  0  0
   22.2698  -20.6986  -12.6172 C   0  0  2  0  0  0  0  0  0  0  0  0
   23.5796  -20.9932  -12.1474 N   0  0  0  0  0  0  0  0  0  0  0  0
   22.0829  -19.4032  -13.2656 C   0  0  0  0  0  0  0  0  0  0  0  0
   22.5343  -18.3528  -12.8119 O   0  0  0  0  0  0  0  0  0  0  0  0
   26.1134  -18.5574  -16.3241 N   0  0  0  0  0  0  0  0  0  0  0  0
   25.2758  -17.6504  -17.0020 C   0  0  0  0  0  0  0  0  0  0  0  0
   25.7919  -16.8694  -17.8548 O   0  0  0  0  0  0  0  0  0  0  0  0
   23.8201  -17.5636  -16.7798 C   0  0  0  0  0  0  0  0  0  0  0  0
   23.2305  -18.4318  -15.7617 C   0  0  0  0  0  0  0  0  0  0  0  0
   21.7651  -18.3323  -15.5303 C   0  0  2  0  0  0  0  0  0  0  0  0
   21.3439  -19.2850  -14.5074 N   0  0  0  0  0  0  0  0  0  0  0  0
   20.9313  -18.2694  -16.7106 C   0  0  0  0  0  0  0  0  0  0  0  0
   20.0790  -19.1223  -16.9419 O   0  0  0  0  0  0  0  0  0  0  0  0
   21.1182  -17.1961  -17.5820 O   0  0  0  0  0  0  0  0  0  0  0  0
  2  1  1  6
  2  3  1  0
  3  4  1  0
  4  5  2  0
  5  6  1  0
  7  6  1  0
  8  7  2  0
  9  8  1  0
 10 11  1  0
 10  9  2  0
 11 12  2  0
 12  4  1  0
 12  7  1  0
 13 14  2  0
 13  2  1  0
 15 16  1  0
 16 17  2  0
 18 19  1  0
 18 16  1  0
 20 19  1  1
 20 21  1  0
 21 13  1  0
 22 30  1  0
 22 20  1  0
 23 22  2  0
 24 25  1  0
 25 26  2  0
 27 28  1  0
 27 25  1  0
 29 28  1  6
 29 30  1  0
 29 31  1  0
 31 33  1  0
 32 31  2  0
M  END
$$$$
