WQQ.pdb
     RDKit          3D

 33 34  0  0  1  0  0  0  0  0999 V2000
   25.2368  -16.4761  -19.4300 N   0  0  0  0  0  0  0  0  0  0  0  0
   25.2314  -16.5949  -17.9727 C   0  0  1  0  0  0  0  0  0  0  0  0
   24.6149  -15.3321  -17.4481 C   0  0  0  0  0  0  0  0  0  0  0  0
   25.3466  -14.1005  -17.7994 C   0  0  0  0  0  0  0  0  0  0  0  0
   24.7792  -12.9443  -18.3440 C   0  0  0  0  0  0  0  0  0  0  0  0
   25.7376  -12.0098  -18.5555 N   0  0  0  0  0  0  0  0  0  0  0  0
   26.9210  -12.5319  -18.1599 C   0  0  0  0  0  0  0  0  0  0  0  0
   28.1917  -12.0745  -18.1342 C   0  0  0  0  0  0  0  0  0  0  0  0
   29.2534  -12.7930  -17.6786 C   0  0  0  0  0  0  0  0  0  0  0  0
   29.0320  -14.0922  -17.2044 C   0  0  0  0  0  0  0  0  0  0  0  0
   27.7423  -14.5772  -17.2237 C   0  0  0  0  0  0  0  0  0  0  0  0
   26.6854  -13.8362  -17.6865 C   0  0  0  0  0  0  0  0  0  0  0  0
   24.4421  -17.8108  -17.5636 C   0  0  0  0  0  0  0  0  0  0  0  0
   23.5518  -18.2505  -18.3317 O   0  0  0  0  0  0  0  0  0  0  0  0
   26.6354  -22.4744  -16.2145 N   0  0  0  0  0  0  0  0  0  0  0  0
   25.5253  -22.7843  -15.4163 C   0  0  0  0  0  0  0  0  0  0  0  0
   25.2483  -24.0369  -15.2752 O   0  0  0  0  0  0  0  0  0  0  0  0
   24.6457  -21.7856  -14.7254 C   0  0  0  0  0  0  0  0  0  0  0  0
   25.2222  -20.4166  -14.9517 C   0  0  0  0  0  0  0  0  0  0  0  0
   24.2035  -19.6338  -15.7940 C   0  0  2  0  0  0  0  0  0  0  0  0
   24.7271  -18.4217  -16.3230 N   0  0  0  0  0  0  0  0  0  0  0  0
   22.9041  -19.5517  -15.1319 C   0  0  0  0  0  0  0  0  0  0  0  0
   22.7047  -18.8758  -14.1238 O   0  0  0  0  0  0  0  0  0  0  0  0
   17.1019  -21.9701  -17.2177 N   0  0  0  0  0  0  0  0  0  0  0  0
   16.9806  -20.7213  -16.5775 C   0  0  0  0  0  0  0  0  0  0  0  0
   15.8638  -20.1256  -16.6172 O   0  0  0  0  0  0  0  0  0  0  0  0
   18.0854  -20.0674  -15.8512 C   0  0  0  0  0  0  0  0  0  0  0  0
   19.3867  -20.7342  -15.8408 C   0  0  0  0  0  0  0  0  0  0  0  0
   20.4560  -20.1536  -14.9863 C   0  0  2  0  0  0  0  0  0  0  0  0
   21.7550  -20.2740  -15.6417 N   0  0  0  0  0  0  0  0  0  0  0  0
   20.4244  -20.5123  -13.5853 C   0  0  0  0  0  0  0  0  0  0  0  0
   20.9488  -21.5433  -13.1736 O   0  0  0  0  0  0  0  0  0  0  0  0
   19.7834  -19.6399  -12.7053 O   0  0  0  0  0  0  0  0  0  0  0  0
  2  1  1  6
  2  3  1  0
  3  4  1  0
  4  5  2  0
  5  6  1  0
  7  6  1  0
  8  7  2  0
  9  8  1  0
 10 11  1  0
 10  9  2  0
 11 12  2  0
 12  4  1  0
 12  7  1  0
 13 14  2  0
 13  2  1  0
 15 16  1  0
 16 17  2  0
 18 19  1  0
 18 16  1  0
 20 19  1  1
 20 21  1  0
 21 13  1  0
 22 30  1  0
 22 20  1  0
 23 22  2  0
 24 25  1  0
 25 26  2  0
 27 28  1  0
 27 25  1  0
 29 28  1  6
 29 30  1  0
 29 31  1  0
 31 33  1  0
 32 31  2  0
M  END
$$$$
