WQQ.pdb
     RDKit          3D

 33 34  0  0  1  0  0  0  0  0999 V2000
   25.6647  -21.9027   -9.6643 N   0  0  0  0  0  0  0  0  0  0  0  0
   25.7509  -20.4457   -9.7528 C   0  0  1  0  0  0  0  0  0  0  0  0
   26.9770  -20.0477   -8.9858 C   0  0  0  0  0  0  0  0  0  0  0  0
   26.8828  -20.2546   -7.5284 C   0  0  0  0  0  0  0  0  0  0  0  0
   25.8002  -20.8310   -6.8568 C   0  0  0  0  0  0  0  0  0  0  0  0
   26.0388  -20.8558   -5.5229 N   0  0  0  0  0  0  0  0  0  0  0  0
   27.2563  -20.3070   -5.3088 C   0  0  0  0  0  0  0  0  0  0  0  0
   28.0030  -20.0694   -4.2085 C   0  0  0  0  0  0  0  0  0  0  0  0
   29.2349  -19.4924   -4.2309 C   0  0  0  0  0  0  0  0  0  0  0  0
   29.7769  -19.1127   -5.4654 C   0  0  0  0  0  0  0  0  0  0  0  0
   29.0296  -19.3457   -6.5995 C   0  0  0  0  0  0  0  0  0  0  0  0
   27.7897  -19.9296   -6.5554 C   0  0  0  0  0  0  0  0  0  0  0  0
   25.8382  -20.0273  -11.1971 C   0  0  0  0  0  0  0  0  0  0  0  0
   25.8734  -18.8047  -11.4800 O   0  0  0  0  0  0  0  0  0  0  0  0
   27.4594  -19.0433  -15.7613 N   0  0  0  0  0  0  0  0  0  0  0  0
   28.3291  -19.4212  -14.7288 C   0  0  0  0  0  0  0  0  0  0  0  0
   29.3277  -18.6362  -14.4999 O   0  0  0  0  0  0  0  0  0  0  0  0
   28.1914  -20.6517  -13.8831 C   0  0  0  0  0  0  0  0  0  0  0  0
   26.9925  -21.4195  -14.3634 C   0  0  0  0  0  0  0  0  0  0  0  0
   25.7745  -20.8717  -13.6044 C   0  0  2  0  0  0  0  0  0  0  0  0
   25.8767  -21.0263  -12.1942 N   0  0  0  0  0  0  0  0  0  0  0  0
   24.5192  -21.2944  -14.2199 C   0  0  0  0  0  0  0  0  0  0  0  0
   24.1131  -22.4551  -14.1901 O   0  0  0  0  0  0  0  0  0  0  0  0
   20.6706  -23.3805  -12.7913 N   0  0  0  0  0  0  0  0  0  0  0  0
   19.8755  -22.2179  -12.7851 C   0  0  0  0  0  0  0  0  0  0  0  0
   18.6472  -22.3249  -12.4961 O   0  0  0  0  0  0  0  0  0  0  0  0
   20.3974  -20.8723  -13.0900 C   0  0  0  0  0  0  0  0  0  0  0  0
   21.8229  -20.7429  -13.3885 C   0  0  0  0  0  0  0  0  0  0  0  0
   22.2125  -20.4403  -14.7912 C   0  0  2  0  0  0  0  0  0  0  0  0
   23.6647  -20.3472  -14.9089 N   0  0  0  0  0  0  0  0  0  0  0  0
   21.4609  -19.3984  -15.4560 C   0  0  0  0  0  0  0  0  0  0  0  0
   21.8810  -18.2468  -15.5249 O   0  0  0  0  0  0  0  0  0  0  0  0
   20.2379  -19.7450  -16.0308 O   0  0  0  0  0  0  0  0  0  0  0  0
  2  1  1  6
  2  3  1  0
  3  4  1  0
  4  5  2  0
  5  6  1  0
  7  6  1  0
  8  7  2  0
  9  8  1  0
 10 11  1  0
 10  9  2  0
 11 12  2  0
 12  4  1  0
 12  7  1  0
 13 14  2  0
 13  2  1  0
 15 16  1  0
 16 17  2  0
 18 19  1  0
 18 16  1  0
 20 19  1  6
 20 21  1  0
 21 13  1  0
 22 30  1  0
 22 20  1  0
 23 22  2  0
 24 25  1  0
 25 26  2  0
 27 28  1  0
 27 25  1  0
 29 28  1  1
 29 30  1  0
 29 31  1  0
 31 33  1  0
 32 31  2  0
M  END
$$$$
