WQQ.pdb
     RDKit          3D

 33 34  0  0  1  0  0  0  0  0999 V2000
   17.2674  -17.7070    4.0897 N   0  0  0  0  0  0  0  0  0  0  0  0
   18.0425  -16.9244    5.0513 C   0  0  1  0  0  0  0  0  0  0  0  0
   17.1206  -15.8618    5.5719 C   0  0  0  0  0  0  0  0  0  0  0  0
   17.6552  -14.4898    5.4854 C   0  0  0  0  0  0  0  0  0  0  0  0
   17.0112  -13.4019    4.8879 C   0  0  0  0  0  0  0  0  0  0  0  0
   17.7884  -12.2951    4.9747 N   0  0  0  0  0  0  0  0  0  0  0  0
   18.9282  -12.6376    5.6173 C   0  0  0  0  0  0  0  0  0  0  0  0
   20.0428  -11.9672    5.9819 C   0  0  0  0  0  0  0  0  0  0  0  0
   21.0917  -12.5297    6.6409 C   0  0  0  0  0  0  0  0  0  0  0  0
   21.0284  -13.8903    6.9678 C   0  0  0  0  0  0  0  0  0  0  0  0
   19.8998  -14.5917    6.6031 C   0  0  0  0  0  0  0  0  0  0  0  0
   18.8527  -14.0055    5.9396 C   0  0  0  0  0  0  0  0  0  0  0  0
   18.5382  -17.8205    6.1558 C   0  0  0  0  0  0  0  0  0  0  0  0
   18.0132  -18.9503    6.3105 O   0  0  0  0  0  0  0  0  0  0  0  0
   23.1988  -15.8262   10.2958 N   0  0  0  0  0  0  0  0  0  0  0  0
   22.7815  -17.1093   10.6764 C   0  0  0  0  0  0  0  0  0  0  0  0
   23.4252  -17.6595   11.6504 O   0  0  0  0  0  0  0  0  0  0  0  0
   21.6618  -17.8818   10.0457 C   0  0  0  0  0  0  0  0  0  0  0  0
   21.1222  -17.0747    8.8991 C   0  0  0  0  0  0  0  0  0  0  0  0
   20.0886  -17.9534    8.1782 C   0  0  2  0  0  0  0  0  0  0  0  0
   19.5819  -17.3612    6.9884 N   0  0  0  0  0  0  0  0  0  0  0  0
   19.1039  -18.5019    9.1072 C   0  0  0  0  0  0  0  0  0  0  0  0
   18.0651  -17.9166    9.4088 O   0  0  0  0  0  0  0  0  0  0  0  0
   14.2215  -19.5545    9.2864 N   0  0  0  0  0  0  0  0  0  0  0  0
   14.6350  -20.8578    8.9483 C   0  0  0  0  0  0  0  0  0  0  0  0
   13.8703  -21.5702    8.2333 O   0  0  0  0  0  0  0  0  0  0  0  0
   15.9208  -21.4411    9.3755 C   0  0  0  0  0  0  0  0  0  0  0  0
   17.1411  -20.6856    9.0963 C   0  0  0  0  0  0  0  0  0  0  0  0
   18.1550  -20.5822   10.1790 C   0  0  2  0  0  0  0  0  0  0  0  0
   19.3006  -19.7953    9.7321 N   0  0  0  0  0  0  0  0  0  0  0  0
   18.4703  -21.8060   10.8828 C   0  0  0  0  0  0  0  0  0  0  0  0
   19.6262  -22.2048   10.9926 O   0  0  0  0  0  0  0  0  0  0  0  0
   17.4142  -22.5217   11.4472 O   0  0  0  0  0  0  0  0  0  0  0  0
  2  1  1  6
  2  3  1  0
  3  4  1  0
  4  5  2  0
  5  6  1  0
  7  6  1  0
  8  7  2  0
  9  8  1  0
 10 11  1  0
 10  9  2  0
 11 12  2  0
 12  4  1  0
 12  7  1  0
 13 14  2  0
 13  2  1  0
 15 16  1  0
 16 17  2  0
 18 19  1  0
 18 16  1  0
 20 19  1  1
 20 21  1  0
 21 13  1  0
 22 30  1  0
 22 20  1  0
 23 22  2  0
 24 25  1  0
 25 26  2  0
 27 28  1  0
 27 25  1  0
 29 28  1  6
 29 30  1  0
 29 31  1  0
 31 33  1  0
 32 31  2  0
M  END
$$$$
