ACD.pdb
     RDKit          3D

 20 19  0  0  1  0  0  0  0  0999 V2000
   21.8055  -21.3032   -9.6780 C   0  0  0  0  0  0  0  0  0  0  0  0
   23.2777  -21.1157   -9.3581 C   0  0  2  0  0  0  0  0  0  0  0  0
   23.4042  -20.1557   -8.3041 N   0  0  0  0  0  0  0  0  0  0  0  0
   23.9263  -20.6479  -10.6019 C   0  0  0  0  0  0  0  0  0  0  0  0
   23.8241  -19.4213  -10.8955 O   0  0  0  0  0  0  0  0  0  0  0  0
   24.6495  -21.5088  -11.4683 N   0  0  0  0  0  0  0  0  0  0  0  0
   25.2096  -20.9529  -12.6763 C   0  0  1  0  0  0  0  0  0  0  0  0
   26.2450  -21.9765  -13.1605 C   0  0  0  0  0  0  0  0  0  0  0  0
   26.9577  -21.3496  -14.6826 S   0  0  0  0  0  0  0  0  0  0  0  0
   24.2025  -20.8640  -13.7643 C   0  0  0  0  0  0  0  0  0  0  0  0
   23.4450  -21.8206  -14.0604 O   0  0  0  0  0  0  0  0  0  0  0  0
   24.0617  -19.6725  -14.5178 N   0  0  0  0  0  0  0  0  0  0  0  0
   23.0420  -19.5335  -15.5781 C   0  0  1  0  0  0  0  0  0  0  0  0
   22.7172  -18.0803  -15.6041 C   0  0  0  0  0  0  0  0  0  0  0  0
   21.4165  -17.6892  -16.1085 C   0  0  0  0  0  0  0  0  0  0  0  0
   20.6407  -18.6453  -16.4587 O   0  0  0  0  0  0  0  0  0  0  0  0
   23.5635  -20.0460  -16.8506 C   0  0  0  0  0  0  0  0  0  0  0  0
   22.7179  -20.6671  -17.7412 O   0  0  0  0  0  0  0  0  0  0  0  0
   20.8915  -16.4310  -16.2676 O   0  0  0  0  0  0  0  0  0  0  0  0
   24.7869  -19.9542  -17.2020 O   0  0  0  0  0  0  0  0  0  0  0  0
  2  1  1  6
  3  2  1  0
  4  5  2  0
  4  2  1  0
  6  4  1  0
  7  6  1  0
  7  8  1  6
  9  8  1  0
 10 12  1  0
 10  7  1  0
 11 10  2  0
 13 12  1  0
 13 14  1  6
 15 16  2  0
 15 14  1  0
 17 13  1  0
 18 17  1  0
 19 15  1  0
 20 17  2  0
M  END
$$$$
