ACD.pdb
     RDKit          3D

 20 19  0  0  1  0  0  0  0  0999 V2000
   17.0808  -10.6501  -17.7298 C   0  0  0  0  0  0  0  0  0  0  0  0
   18.5615  -10.9752  -17.6480 C   0  0  2  0  0  0  0  0  0  0  0  0
   18.7198  -12.3948  -17.5564 N   0  0  0  0  0  0  0  0  0  0  0  0
   19.0808  -10.2903  -16.4448 C   0  0  0  0  0  0  0  0  0  0  0  0
   18.3178  -10.2043  -15.4391 O   0  0  0  0  0  0  0  0  0  0  0  0
   20.3842   -9.7326  -16.3740 N   0  0  0  0  0  0  0  0  0  0  0  0
   20.7872   -9.0849  -15.1493 C   0  0  1  0  0  0  0  0  0  0  0  0
   22.0184   -9.8581  -14.6590 C   0  0  0  0  0  0  0  0  0  0  0  0
   22.5910   -9.0693  -13.1532 S   0  0  0  0  0  0  0  0  0  0  0  0
   21.2603   -7.6970  -15.3862 C   0  0  0  0  0  0  0  0  0  0  0  0
   22.1635   -7.4258  -16.2152 O   0  0  0  0  0  0  0  0  0  0  0  0
   20.6956   -6.6131  -14.6695 N   0  0  0  0  0  0  0  0  0  0  0  0
   21.1325   -5.2186  -14.8884 C   0  0  1  0  0  0  0  0  0  0  0  0
   19.9181   -4.3958  -14.6311 C   0  0  0  0  0  0  0  0  0  0  0  0
   19.4571   -3.5241  -15.6927 C   0  0  0  0  0  0  0  0  0  0  0  0
   20.2048   -3.4604  -16.7297 O   0  0  0  0  0  0  0  0  0  0  0  0
   22.2614   -4.8988  -14.0068 C   0  0  0  0  0  0  0  0  0  0  0  0
   23.2960   -4.1176  -14.4687 O   0  0  0  0  0  0  0  0  0  0  0  0
   18.3256   -2.7490  -15.7473 O   0  0  0  0  0  0  0  0  0  0  0  0
   22.3558   -5.3078  -12.8016 O   0  0  0  0  0  0  0  0  0  0  0  0
  2  1  1  1
  3  2  1  0
  4  5  2  0
  4  2  1  0
  6  4  1  0
  7  6  1  0
  7  8  1  6
  9  8  1  0
 10 12  1  0
 10  7  1  0
 11 10  2  0
 13 12  1  0
 13 14  1  1
 15 16  2  0
 15 14  1  0
 17 13  1  0
 18 17  1  0
 19 15  1  0
 20 17  2  0
M  END
$$$$
