ACD.pdb
     RDKit          3D

 20 19  0  0  1  0  0  0  0  0999 V2000
   28.2575  -19.4142  -13.7272 C   0  0  0  0  0  0  0  0  0  0  0  0
   27.1426  -19.6934  -14.7191 C   0  0  2  0  0  0  0  0  0  0  0  0
   27.6927  -19.7161  -16.0402 N   0  0  0  0  0  0  0  0  0  0  0  0
   26.1513  -18.6077  -14.5603 C   0  0  0  0  0  0  0  0  0  0  0  0
   25.5944  -18.4776  -13.4316 O   0  0  0  0  0  0  0  0  0  0  0  0
   25.8040  -17.7175  -15.6099 N   0  0  0  0  0  0  0  0  0  0  0  0
   24.8169  -16.6987  -15.3464 C   0  0  1  0  0  0  0  0  0  0  0  0
   25.2405  -15.4863  -16.1860 C   0  0  0  0  0  0  0  0  0  0  0  0
   26.5269  -14.6225  -15.2823 S   0  0  0  0  0  0  0  0  0  0  0  0
   23.4751  -17.0824  -15.8547 C   0  0  0  0  0  0  0  0  0  0  0  0
   23.3187  -17.7388  -16.9136 O   0  0  0  0  0  0  0  0  0  0  0  0
   22.3054  -16.7125  -15.1461 N   0  0  0  0  0  0  0  0  0  0  0  0
   20.9617  -17.1609  -15.5665 C   0  0  1  0  0  0  0  0  0  0  0  0
   20.1074  -16.9826  -14.3598 C   0  0  0  0  0  0  0  0  0  0  0  0
   18.6868  -17.2329  -14.4966 C   0  0  0  0  0  0  0  0  0  0  0  0
   18.3565  -18.1450  -15.3317 O   0  0  0  0  0  0  0  0  0  0  0  0
   20.5118  -16.3868  -16.7294 C   0  0  0  0  0  0  0  0  0  0  0  0
   20.8800  -15.0675  -16.8627 O   0  0  0  0  0  0  0  0  0  0  0  0
   17.6348  -16.6273  -13.8557 O   0  0  0  0  0  0  0  0  0  0  0  0
   19.7781  -16.8659  -17.6572 O   0  0  0  0  0  0  0  0  0  0  0  0
  2  1  1  1
  3  2  1  0
  4  5  2  0
  4  2  1  0
  6  4  1  0
  7  6  1  0
  7  8  1  6
  9  8  1  0
 10 12  1  0
 10  7  1  0
 11 10  2  0
 13 12  1  0
 13 14  1  1
 15 16  2  0
 15 14  1  0
 17 13  1  0
 18 17  1  0
 19 15  1  0
 20 17  2  0
M  END
$$$$
