ACD.pdb
     RDKit          3D

 20 19  0  0  1  0  0  0  0  0999 V2000
   17.1358  -10.2522  -12.7791 C   0  0  0  0  0  0  0  0  0  0  0  0
   16.3054  -10.5495  -11.5435 C   0  0  2  0  0  0  0  0  0  0  0  0
   15.2997  -11.5102  -11.8812 N   0  0  0  0  0  0  0  0  0  0  0  0
   15.7103   -9.2662  -11.1129 C   0  0  0  0  0  0  0  0  0  0  0  0
   14.9574   -8.6610  -11.9302 O   0  0  0  0  0  0  0  0  0  0  0  0
   15.9469   -8.6935   -9.8358 N   0  0  0  0  0  0  0  0  0  0  0  0
   15.3399   -7.4202   -9.5322 C   0  0  1  0  0  0  0  0  0  0  0  0
   15.3720   -7.3015   -8.0028 C   0  0  0  0  0  0  0  0  0  0  0  0
   14.5959   -5.7455   -7.5625 S   0  0  0  0  0  0  0  0  0  0  0  0
   16.1545   -6.2843  -10.0343 C   0  0  0  0  0  0  0  0  0  0  0  0
   17.3978   -6.2227   -9.8695 O   0  0  0  0  0  0  0  0  0  0  0  0
   15.5420   -5.2124  -10.7293 N   0  0  0  0  0  0  0  0  0  0  0  0
   16.3237   -4.0772  -11.2618 C   0  0  1  0  0  0  0  0  0  0  0  0
   16.7902   -4.5326  -12.6007 C   0  0  0  0  0  0  0  0  0  0  0  0
   17.4408   -3.5596  -13.4548 C   0  0  0  0  0  0  0  0  0  0  0  0
   18.3634   -2.8614  -12.9070 O   0  0  0  0  0  0  0  0  0  0  0  0
   15.4932   -2.8679  -11.3045 C   0  0  0  0  0  0  0  0  0  0  0  0
   16.0839   -1.6253  -11.2729 O   0  0  0  0  0  0  0  0  0  0  0  0
   17.2083   -3.2748  -14.7772 O   0  0  0  0  0  0  0  0  0  0  0  0
   14.2188   -2.8870  -11.3704 O   0  0  0  0  0  0  0  0  0  0  0  0
  2  1  1  6
  3  2  1  0
  4  5  2  0
  4  2  1  0
  6  4  1  0
  7  6  1  0
  7  8  1  1
  9  8  1  0
 10 12  1  0
 10  7  1  0
 11 10  2  0
 13 12  1  0
 13 14  1  6
 15 16  2  0
 15 14  1  0
 17 13  1  0
 18 17  1  0
 19 15  1  0
 20 17  2  0
M  END
$$$$
