ACD.pdb
     RDKit          3D

 20 19  0  0  1  0  0  0  0  0999 V2000
   16.9531  -12.1996  -16.8575 C   0  0  0  0  0  0  0  0  0  0  0  0
   18.2564  -11.7552  -16.2181 C   0  0  2  0  0  0  0  0  0  0  0  0
   18.5243  -12.5878  -15.0852 N   0  0  0  0  0  0  0  0  0  0  0  0
   18.0758  -10.3413  -15.8247 C   0  0  0  0  0  0  0  0  0  0  0  0
   17.8741   -9.4944  -16.7429 O   0  0  0  0  0  0  0  0  0  0  0  0
   18.1193   -9.9020  -14.4756 N   0  0  0  0  0  0  0  0  0  0  0  0
   18.0940   -8.4830  -14.2155 C   0  0  1  0  0  0  0  0  0  0  0  0
   17.1696   -8.3016  -13.0044 C   0  0  0  0  0  0  0  0  0  0  0  0
   17.1827   -6.5621  -12.5668 S   0  0  0  0  0  0  0  0  0  0  0  0
   19.4203   -7.9756  -13.7803 C   0  0  0  0  0  0  0  0  0  0  0  0
   20.0267   -8.4435  -12.7852 O   0  0  0  0  0  0  0  0  0  0  0  0
   20.0563   -6.9265  -14.4887 N   0  0  0  0  0  0  0  0  0  0  0  0
   21.4151   -6.4603  -14.1426 C   0  0  1  0  0  0  0  0  0  0  0  0
   22.1897   -6.5751  -15.4094 C   0  0  0  0  0  0  0  0  0  0  0  0
   22.2350   -7.8706  -16.0568 C   0  0  0  0  0  0  0  0  0  0  0  0
   22.7741   -8.8155  -15.3822 O   0  0  0  0  0  0  0  0  0  0  0  0
   21.3592   -5.0958  -13.6050 C   0  0  0  0  0  0  0  0  0  0  0  0
   22.4668   -4.5490  -12.9981 O   0  0  0  0  0  0  0  0  0  0  0  0
   21.7805   -8.2341  -17.2999 O   0  0  0  0  0  0  0  0  0  0  0  0
   20.3215   -4.3552  -13.6615 O   0  0  0  0  0  0  0  0  0  0  0  0
  2  1  1  1
  3  2  1  0
  4  5  2  0
  4  2  1  0
  6  4  1  0
  7  6  1  0
  7  8  1  1
  9  8  1  0
 10 12  1  0
 10  7  1  0
 11 10  2  0
 13 12  1  0
 13 14  1  6
 15 16  2  0
 15 14  1  0
 17 13  1  0
 18 17  1  0
 19 15  1  0
 20 17  2  0
M  END
$$$$
