ACD.pdb
     RDKit          3D

 20 19  0  0  1  0  0  0  0  0999 V2000
   16.3275  -10.9611  -16.1452 C   0  0  0  0  0  0  0  0  0  0  0  0
   17.7038  -11.3976  -16.6141 C   0  0  2  0  0  0  0  0  0  0  0  0
   17.8019  -12.8210  -16.5017 N   0  0  0  0  0  0  0  0  0  0  0  0
   18.6852  -10.7135  -15.7449 C   0  0  0  0  0  0  0  0  0  0  0  0
   18.3988  -10.5843  -14.5192 O   0  0  0  0  0  0  0  0  0  0  0  0
   19.9197  -10.2026  -16.2245 N   0  0  0  0  0  0  0  0  0  0  0  0
   20.7729   -9.4935  -15.3020 C   0  0  1  0  0  0  0  0  0  0  0  0
   22.1904  -10.0200  -15.5624 C   0  0  0  0  0  0  0  0  0  0  0  0
   23.3021   -9.1617  -14.4466 S   0  0  0  0  0  0  0  0  0  0  0  0
   20.8290   -8.0403  -15.6043 C   0  0  0  0  0  0  0  0  0  0  0  0
   20.9722   -7.6005  -16.7716 O   0  0  0  0  0  0  0  0  0  0  0  0
   20.7203   -7.0851  -14.5637 N   0  0  0  0  0  0  0  0  0  0  0  0
   20.7638   -5.6320  -14.8282 C   0  0  1  0  0  0  0  0  0  0  0  0
   19.4154   -5.1347  -14.4378 C   0  0  0  0  0  0  0  0  0  0  0  0
   19.1426   -3.7219  -14.6081 C   0  0  0  0  0  0  0  0  0  0  0  0
   19.3464   -2.9844  -13.5819 O   0  0  0  0  0  0  0  0  0  0  0  0
   21.8626   -5.0144  -14.0764 C   0  0  0  0  0  0  0  0  0  0  0  0
   22.5032   -5.7233  -13.0860 O   0  0  0  0  0  0  0  0  0  0  0  0
   18.6923   -3.0544  -15.7196 O   0  0  0  0  0  0  0  0  0  0  0  0
   22.2802   -3.8262  -14.2821 O   0  0  0  0  0  0  0  0  0  0  0  0
  2  1  1  1
  3  2  1  0
  4  5  2  0
  4  2  1  0
  6  4  1  0
  7  6  1  0
  7  8  1  6
  9  8  1  0
 10 12  1  0
 10  7  1  0
 11 10  2  0
 13 12  1  0
 13 14  1  1
 15 16  2  0
 15 14  1  0
 17 13  1  0
 18 17  1  0
 19 15  1  0
 20 17  2  0
M  END
$$$$
