ACD.pdb
     RDKit          3D

 20 19  0  0  1  0  0  0  0  0999 V2000
   18.7628  -12.4495  -17.4679 C   0  0  0  0  0  0  0  0  0  0  0  0
   19.4750  -11.2018  -17.9586 C   0  0  2  0  0  0  0  0  0  0  0  0
   20.4501  -11.5789  -18.9360 N   0  0  0  0  0  0  0  0  0  0  0  0
   20.1036  -10.5782  -16.7742 C   0  0  0  0  0  0  0  0  0  0  0  0
   19.3562  -10.2796  -15.7979 O   0  0  0  0  0  0  0  0  0  0  0  0
   21.4939  -10.3048  -16.6902 N   0  0  0  0  0  0  0  0  0  0  0  0
   21.9923   -9.6428  -15.5089 C   0  0  1  0  0  0  0  0  0  0  0  0
   23.4798  -10.0097  -15.4265 C   0  0  0  0  0  0  0  0  0  0  0  0
   23.6023  -11.5995  -14.6048 S   0  0  0  0  0  0  0  0  0  0  0  0
   21.9566   -8.1643  -15.6455 C   0  0  0  0  0  0  0  0  0  0  0  0
   22.4029   -7.5707  -16.6580 O   0  0  0  0  0  0  0  0  0  0  0  0
   21.4064   -7.3605  -14.6167 N   0  0  0  0  0  0  0  0  0  0  0  0
   21.4094   -5.8848  -14.6910 C   0  0  1  0  0  0  0  0  0  0  0  0
   19.9868   -5.5140  -14.9292 C   0  0  0  0  0  0  0  0  0  0  0  0
   19.6581   -4.1040  -14.9859 C   0  0  0  0  0  0  0  0  0  0  0  0
   20.5045   -3.3552  -15.5870 O   0  0  0  0  0  0  0  0  0  0  0  0
   21.9700   -5.3182  -13.4587 C   0  0  0  0  0  0  0  0  0  0  0  0
   22.4020   -4.0117  -13.4359 O   0  0  0  0  0  0  0  0  0  0  0  0
   18.5616   -3.4492  -14.4830 O   0  0  0  0  0  0  0  0  0  0  0  0
   22.0903   -5.9729  -12.3700 O   0  0  0  0  0  0  0  0  0  0  0  0
  2  1  1  1
  3  2  1  0
  4  5  2  0
  4  2  1  0
  6  4  1  0
  7  6  1  0
  7  8  1  6
  9  8  1  0
 10 12  1  0
 10  7  1  0
 11 10  2  0
 13 12  1  0
 13 14  1  1
 15 16  2  0
 15 14  1  0
 17 13  1  0
 18 17  1  0
 19 15  1  0
 20 17  2  0
M  END
$$$$
