ACD.pdb
     RDKit          3D

 20 19  0  0  1  0  0  0  0  0999 V2000
   18.9539  -12.2585  -17.7986 C   0  0  0  0  0  0  0  0  0  0  0  0
   19.5432  -10.9676  -18.3380 C   0  0  2  0  0  0  0  0  0  0  0  0
   20.5805  -11.2861  -19.2713 N   0  0  0  0  0  0  0  0  0  0  0  0
   20.0677  -10.2213  -17.1742 C   0  0  0  0  0  0  0  0  0  0  0  0
   19.2362   -9.8083  -16.3145 O   0  0  0  0  0  0  0  0  0  0  0  0
   21.4488   -9.9533  -16.9855 N   0  0  0  0  0  0  0  0  0  0  0  0
   21.8478   -9.1970  -15.8233 C   0  0  1  0  0  0  0  0  0  0  0  0
   23.3137   -9.5725  -15.5696 C   0  0  0  0  0  0  0  0  0  0  0  0
   23.3296  -11.1399  -14.6974 S   0  0  0  0  0  0  0  0  0  0  0  0
   21.8541   -7.7355  -16.0885 C   0  0  0  0  0  0  0  0  0  0  0  0
   22.3577   -7.2420  -17.1274 O   0  0  0  0  0  0  0  0  0  0  0  0
   21.2802   -6.8339  -15.1586 N   0  0  0  0  0  0  0  0  0  0  0  0
   21.2182   -5.3800  -15.4150 C   0  0  1  0  0  0  0  0  0  0  0  0
   19.8259   -4.9907  -15.0575 C   0  0  0  0  0  0  0  0  0  0  0  0
   18.7757   -5.2950  -16.0082 C   0  0  0  0  0  0  0  0  0  0  0  0
   17.6447   -5.6242  -15.5073 O   0  0  0  0  0  0  0  0  0  0  0  0
   22.2465   -4.6847  -14.6319 C   0  0  0  0  0  0  0  0  0  0  0  0
   22.6197   -3.4036  -14.9688 O   0  0  0  0  0  0  0  0  0  0  0  0
   18.8187   -5.2823  -17.3801 O   0  0  0  0  0  0  0  0  0  0  0  0
   22.8399   -5.2011  -13.6270 O   0  0  0  0  0  0  0  0  0  0  0  0
  2  1  1  1
  3  2  1  0
  4  5  2  0
  4  2  1  0
  6  4  1  0
  7  6  1  0
  7  8  1  6
  9  8  1  0
 10 12  1  0
 10  7  1  0
 11 10  2  0
 13 12  1  0
 13 14  1  1
 15 16  2  0
 15 14  1  0
 17 13  1  0
 18 17  1  0
 19 15  1  0
 20 17  2  0
M  END
$$$$
