ACD.pdb
     RDKit          3D

 20 19  0  0  1  0  0  0  0  0999 V2000
   24.3741  -11.0741  -15.9013 C   0  0  0  0  0  0  0  0  0  0  0  0
   23.1469  -11.7734  -16.4578 C   0  0  2  0  0  0  0  0  0  0  0  0
   23.4096  -12.1647  -17.8093 N   0  0  0  0  0  0  0  0  0  0  0  0
   22.0330  -10.8041  -16.3779 C   0  0  0  0  0  0  0  0  0  0  0  0
   22.0335   -9.8361  -17.1927 O   0  0  0  0  0  0  0  0  0  0  0  0
   20.9772  -10.9149  -15.4357 N   0  0  0  0  0  0  0  0  0  0  0  0
   19.9302   -9.9223  -15.4593 C   0  0  1  0  0  0  0  0  0  0  0  0
   18.7368  -10.5636  -14.7392 C   0  0  0  0  0  0  0  0  0  0  0  0
   18.2377  -12.0010  -15.6893 S   0  0  0  0  0  0  0  0  0  0  0  0
   20.2826   -8.7260  -14.6526 C   0  0  0  0  0  0  0  0  0  0  0  0
   21.0371   -8.7879  -13.6508 O   0  0  0  0  0  0  0  0  0  0  0  0
   19.7681   -7.4512  -14.9951 N   0  0  0  0  0  0  0  0  0  0  0  0
   20.1880   -6.2229  -14.2891 C   0  0  1  0  0  0  0  0  0  0  0  0
   21.5904   -5.9906  -14.7333 C   0  0  0  0  0  0  0  0  0  0  0  0
   22.2480   -4.7801  -14.2840 C   0  0  0  0  0  0  0  0  0  0  0  0
   21.5677   -4.0308  -13.5003 O   0  0  0  0  0  0  0  0  0  0  0  0
   19.2754   -5.1191  -14.6096 C   0  0  0  0  0  0  0  0  0  0  0  0
   18.8508   -4.9308  -15.9051 O   0  0  0  0  0  0  0  0  0  0  0  0
   23.5053   -4.3161  -14.5807 O   0  0  0  0  0  0  0  0  0  0  0  0
   18.8329   -4.2929  -13.7434 O   0  0  0  0  0  0  0  0  0  0  0  0
  2  1  1  6
  3  2  1  0
  4  5  2  0
  4  2  1  0
  6  4  1  0
  7  6  1  0
  7  8  1  1
  9  8  1  0
 10 12  1  0
 10  7  1  0
 11 10  2  0
 13 12  1  0
 13 14  1  6
 15 16  2  0
 15 14  1  0
 17 13  1  0
 18 17  1  0
 19 15  1  0
 20 17  2  0
M  END
$$$$
