ACD.pdb
     RDKit          3D

 20 19  0  0  1  0  0  0  0  0999 V2000
   20.7186  -11.0489  -20.6366 C   0  0  0  0  0  0  0  0  0  0  0  0
   21.8012  -10.1926  -20.0046 C   0  0  2  0  0  0  0  0  0  0  0  0
   22.8687  -11.0413  -19.5701 N   0  0  0  0  0  0  0  0  0  0  0  0
   21.1728   -9.4832  -18.8695 C   0  0  0  0  0  0  0  0  0  0  0  0
   20.3868   -8.5274  -19.1332 O   0  0  0  0  0  0  0  0  0  0  0  0
   21.4132   -9.8272  -17.5135 N   0  0  0  0  0  0  0  0  0  0  0  0
   20.7624   -9.0534  -16.4841 C   0  0  1  0  0  0  0  0  0  0  0  0
   20.7102   -9.9663  -15.2520 C   0  0  0  0  0  0  0  0  0  0  0  0
   19.9317   -9.0438  -13.9251 S   0  0  0  0  0  0  0  0  0  0  0  0
   21.5771   -7.8812  -16.0736 C   0  0  0  0  0  0  0  0  0  0  0  0
   22.8231   -7.9438  -15.9316 O   0  0  0  0  0  0  0  0  0  0  0  0
   20.9613   -6.6299  -15.8243 N   0  0  0  0  0  0  0  0  0  0  0  0
   21.7499   -5.4130  -15.5400 C   0  0  1  0  0  0  0  0  0  0  0  0
   22.0593   -4.8399  -16.8793 C   0  0  0  0  0  0  0  0  0  0  0  0
   22.7309   -3.5568  -16.9246 C   0  0  0  0  0  0  0  0  0  0  0  0
   22.4155   -2.7937  -17.9027 O   0  0  0  0  0  0  0  0  0  0  0  0
   20.9874   -4.5086  -14.6713 C   0  0  0  0  0  0  0  0  0  0  0  0
   19.6511   -4.7413  -14.4385 O   0  0  0  0  0  0  0  0  0  0  0  0
   23.6652   -3.0372  -16.0638 O   0  0  0  0  0  0  0  0  0  0  0  0
   21.4921   -3.4866  -14.0973 O   0  0  0  0  0  0  0  0  0  0  0  0
  2  1  1  1
  3  2  1  0
  4  5  2  0
  4  2  1  0
  6  4  1  0
  7  6  1  0
  7  8  1  1
  9  8  1  0
 10 12  1  0
 10  7  1  0
 11 10  2  0
 13 12  1  0
 13 14  1  6
 15 16  2  0
 15 14  1  0
 17 13  1  0
 18 17  1  0
 19 15  1  0
 20 17  2  0
M  END
$$$$
