ACD.pdb
     RDKit          3D

 20 19  0  0  1  0  0  0  0  0999 V2000
   21.5963  -17.5105  -16.5823 C   0  0  0  0  0  0  0  0  0  0  0  0
   21.9015  -16.3096  -17.4595 C   0  0  2  0  0  0  0  0  0  0  0  0
   22.9153  -16.6706  -18.4030 N   0  0  0  0  0  0  0  0  0  0  0  0
   22.3561  -15.2295  -16.5577 C   0  0  0  0  0  0  0  0  0  0  0  0
   21.6040  -14.9121  -15.5909 O   0  0  0  0  0  0  0  0  0  0  0  0
   23.5866  -14.5435  -16.7311 N   0  0  0  0  0  0  0  0  0  0  0  0
   23.9190  -13.4872  -15.8061 C   0  0  1  0  0  0  0  0  0  0  0  0
   25.4371  -13.2981  -15.9233 C   0  0  0  0  0  0  0  0  0  0  0  0
   26.2198  -14.5255  -14.8752 S   0  0  0  0  0  0  0  0  0  0  0  0
   23.3260  -12.1875  -16.2128 C   0  0  0  0  0  0  0  0  0  0  0  0
   23.2821  -11.8129  -17.4104 O   0  0  0  0  0  0  0  0  0  0  0  0
   22.7799  -11.3117  -15.2423 N   0  0  0  0  0  0  0  0  0  0  0  0
   22.0844  -10.0634  -15.6185 C   0  0  1  0  0  0  0  0  0  0  0  0
   21.5767   -9.5096  -14.3327 C   0  0  0  0  0  0  0  0  0  0  0  0
   20.8500   -8.2570  -14.3784 C   0  0  0  0  0  0  0  0  0  0  0  0
   21.3008   -7.3202  -13.6316 O   0  0  0  0  0  0  0  0  0  0  0  0
   23.0048   -9.1661  -16.3267 C   0  0  0  0  0  0  0  0  0  0  0  0
   22.5468   -8.3921  -17.3684 O   0  0  0  0  0  0  0  0  0  0  0  0
   19.7379   -7.9269  -15.1121 O   0  0  0  0  0  0  0  0  0  0  0  0
   24.2419   -9.0488  -16.0361 O   0  0  0  0  0  0  0  0  0  0  0  0
  2  1  1  1
  3  2  1  0
  4  5  2  0
  4  2  1  0
  6  4  1  0
  7  6  1  0
  7  8  1  6
  9  8  1  0
 10 12  1  0
 10  7  1  0
 11 10  2  0
 13 12  1  0
 13 14  1  1
 15 16  2  0
 15 14  1  0
 17 13  1  0
 18 17  1  0
 19 15  1  0
 20 17  2  0
M  END
$$$$
