ITG.pdb
     RDKit          3D

 20 19  0  0  1  0  0  0  0  0999 V2000
    7.1620  -12.2870   20.2206 C   0  0  0  0  0  0  0  0  0  0  0  0
    7.6183  -13.5960   19.6479 C   0  0  0  0  0  0  0  0  0  0  0  0
    8.0876  -14.5586   20.7495 C   0  0  2  0  0  0  0  0  0  0  0  0
    9.1293  -13.8391   21.5364 C   0  0  0  0  0  0  0  0  0  0  0  0
    8.5639  -15.7916   20.0324 C   0  0  2  0  0  0  0  0  0  0  0  0
    7.3647  -16.3623   19.3879 N   0  0  0  0  0  0  0  0  0  0  0  0
    9.0980  -16.8476   20.9025 C   0  0  0  0  0  0  0  0  0  0  0  0
    8.3597  -17.6970   21.4864 O   0  0  0  0  0  0  0  0  0  0  0  0
   12.8929  -19.7126   22.0070 C   0  0  0  0  0  0  0  0  0  0  0  0
   12.2135  -18.6462   21.1702 C   0  0  1  0  0  0  0  0  0  0  0  0
   11.8126  -19.1503   19.9396 O   0  0  0  0  0  0  0  0  0  0  0  0
   11.0479  -18.0638   21.9442 C   0  0  2  0  0  0  0  0  0  0  0  0
   10.4926  -16.9871   21.1483 N   0  0  0  0  0  0  0  0  0  0  0  0
   11.5993  -17.5579   23.2337 C   0  0  0  0  0  0  0  0  0  0  0  0
   12.1446  -16.4261   23.2724 O   0  0  0  0  0  0  0  0  0  0  0  0
   11.5353  -18.3057   24.4341 N   0  0  0  0  0  0  0  0  0  0  0  0
   11.9866  -17.8216   25.7161 C   0  0  0  0  0  0  0  0  0  0  0  0
   11.7788  -18.8571   26.7343 C   0  0  0  0  0  0  0  0  0  0  0  0
   11.2450  -19.9395   26.4232 O   0  0  0  0  0  0  0  0  0  0  0  0
   12.1606  -18.6783   28.0616 O   0  0  0  0  0  0  0  0  0  0  0  0
  1  2  1  0
  2  3  1  0
  3  4  1  6
  5  3  1  0
  5  6  1  1
  7  5  1  0
  7  8  2  0
 10  9  1  1
 10 12  1  0
 10 11  1  0
 12 13  1  6
 13  7  1  0
 14 12  1  0
 15 14  2  0
 16 14  1  0
 17 16  1  0
 18 20  1  0
 18 17  1  0
 19 18  2  0
M  END
$$$$
