ITG.pdb
     RDKit          3D

 20 19  0  0  1  0  0  0  0  0999 V2000
    8.3972  -12.3174   27.5544 C   0  0  0  0  0  0  0  0  0  0  0  0
    7.7637  -13.6002   27.1042 C   0  0  0  0  0  0  0  0  0  0  0  0
    6.7463  -13.3601   25.9784 C   0  0  2  0  0  0  0  0  0  0  0  0
    5.6451  -12.5405   26.5593 C   0  0  0  0  0  0  0  0  0  0  0  0
    6.3434  -14.7276   25.4997 C   0  0  2  0  0  0  0  0  0  0  0  0
    6.0114  -15.4913   26.7187 N   0  0  0  0  0  0  0  0  0  0  0  0
    7.4044  -15.4852   24.8231 C   0  0  0  0  0  0  0  0  0  0  0  0
    8.0921  -16.3767   25.4059 O   0  0  0  0  0  0  0  0  0  0  0  0
    7.0028  -16.2870   21.0345 C   0  0  0  0  0  0  0  0  0  0  0  0
    8.4567  -15.9318   21.2775 C   0  0  1  0  0  0  0  0  0  0  0  0
    8.7620  -14.6777   20.7644 O   0  0  0  0  0  0  0  0  0  0  0  0
    8.7563  -16.0190   22.7606 C   0  0  2  0  0  0  0  0  0  0  0  0
    7.7316  -15.2655   23.4558 N   0  0  0  0  0  0  0  0  0  0  0  0
   10.1050  -15.4163   22.9619 C   0  0  0  0  0  0  0  0  0  0  0  0
   10.1996  -14.2481   23.4160 O   0  0  0  0  0  0  0  0  0  0  0  0
   11.3014  -16.1106   22.6604 N   0  0  0  0  0  0  0  0  0  0  0  0
   12.6232  -15.5537   22.8152 C   0  0  0  0  0  0  0  0  0  0  0  0
   13.6187  -16.4951   22.2908 C   0  0  0  0  0  0  0  0  0  0  0  0
   13.2654  -17.6275   21.9087 O   0  0  0  0  0  0  0  0  0  0  0  0
   14.9699  -16.1704   22.2000 O   0  0  0  0  0  0  0  0  0  0  0  0
  1  2  1  0
  2  3  1  0
  3  4  1  1
  5  3  1  0
  5  6  1  1
  7  5  1  0
  7  8  2  0
 10  9  1  1
 10 12  1  0
 10 11  1  0
 12 13  1  1
 13  7  1  0
 14 12  1  0
 15 14  2  0
 16 14  1  0
 17 16  1  0
 18 20  1  0
 18 17  1  0
 19 18  2  0
M  END
$$$$
