ITG.pdb
     RDKit          3D

 20 19  0  0  1  0  0  0  0  0999 V2000
    8.2533  -12.1272   27.3259 C   0  0  0  0  0  0  0  0  0  0  0  0
    7.7056  -13.4816   26.9858 C   0  0  0  0  0  0  0  0  0  0  0  0
    6.5282  -13.3816   26.0040 C   0  0  2  0  0  0  0  0  0  0  0  0
    5.4360  -12.6554   26.7122 C   0  0  0  0  0  0  0  0  0  0  0  0
    6.2075  -14.7977   25.6126 C   0  0  2  0  0  0  0  0  0  0  0  0
    6.2200  -15.5684   26.8716 N   0  0  0  0  0  0  0  0  0  0  0  0
    7.1967  -15.4379   24.7355 C   0  0  0  0  0  0  0  0  0  0  0  0
    8.0123  -16.3178   25.1452 O   0  0  0  0  0  0  0  0  0  0  0  0
    7.7624  -13.8332   20.9842 C   0  0  0  0  0  0  0  0  0  0  0  0
    7.8831  -15.3433   21.0479 C   0  0  1  0  0  0  0  0  0  0  0  0
    8.8071  -15.8147   20.1242 O   0  0  0  0  0  0  0  0  0  0  0  0
    8.2386  -15.7620   22.4604 C   0  0  2  0  0  0  0  0  0  0  0  0
    7.3039  -15.1087   23.3553 N   0  0  0  0  0  0  0  0  0  0  0  0
    9.6360  -15.3035   22.7049 C   0  0  0  0  0  0  0  0  0  0  0  0
    9.8397  -14.1403   23.1354 O   0  0  0  0  0  0  0  0  0  0  0  0
   10.7603  -16.1314   22.4707 N   0  0  0  0  0  0  0  0  0  0  0  0
   12.1254  -15.7333   22.7145 C   0  0  0  0  0  0  0  0  0  0  0  0
   13.0318  -16.8198   22.3273 C   0  0  0  0  0  0  0  0  0  0  0  0
   12.5722  -17.8739   21.8466 O   0  0  0  0  0  0  0  0  0  0  0  0
   14.4129  -16.7215   22.4771 O   0  0  0  0  0  0  0  0  0  0  0  0
  1  2  1  0
  2  3  1  0
  3  4  1  1
  5  3  1  0
  5  6  1  1
  7  5  1  0
  7  8  2  0
 10  9  1  1
 10 12  1  0
 10 11  1  0
 12 13  1  1
 13  7  1  0
 14 12  1  0
 15 14  2  0
 16 14  1  0
 17 16  1  0
 18 20  1  0
 18 17  1  0
 19 18  2  0
M  END
$$$$
