ITG.pdb
     RDKit          3D

 20 19  0  0  1  0  0  0  0  0999 V2000
    6.3058  -11.7049   27.2869 C   0  0  0  0  0  0  0  0  0  0  0  0
    5.9271  -13.0040   26.6398 C   0  0  0  0  0  0  0  0  0  0  0  0
    7.1426  -13.6850   25.9926 C   0  0  2  0  0  0  0  0  0  0  0  0
    7.7605  -12.6850   25.0760 C   0  0  0  0  0  0  0  0  0  0  0  0
    6.6050  -14.9204   25.3245 C   0  0  2  0  0  0  0  0  0  0  0  0
    6.0761  -15.7619   26.4160 N   0  0  0  0  0  0  0  0  0  0  0  0
    7.6099  -15.7383   24.6325 C   0  0  0  0  0  0  0  0  0  0  0  0
    8.2241  -16.6947   25.1942 O   0  0  0  0  0  0  0  0  0  0  0  0
    7.0259  -16.9009   21.0430 C   0  0  0  0  0  0  0  0  0  0  0  0
    8.4526  -16.3917   21.1070 C   0  0  1  0  0  0  0  0  0  0  0  0
    8.5755  -15.1559   20.4849 O   0  0  0  0  0  0  0  0  0  0  0  0
    8.9054  -16.3394   22.5524 C   0  0  2  0  0  0  0  0  0  0  0  0
    7.9620  -15.5078   23.2732 N   0  0  0  0  0  0  0  0  0  0  0  0
   10.2701  -15.7392   22.5530 C   0  0  0  0  0  0  0  0  0  0  0  0
   10.4307  -14.5667   22.9765 O   0  0  0  0  0  0  0  0  0  0  0  0
   11.4100  -16.4405   22.0913 N   0  0  0  0  0  0  0  0  0  0  0  0
   12.7447  -15.8934   22.0691 C   0  0  0  0  0  0  0  0  0  0  0  0
   13.4757  -16.3297   23.2639 C   0  0  0  0  0  0  0  0  0  0  0  0
   12.8899  -16.9819   24.1498 O   0  0  0  0  0  0  0  0  0  0  0  0
   14.8245  -16.0401   23.4543 O   0  0  0  0  0  0  0  0  0  0  0  0
  1  2  1  0
  2  3  1  0
  3  4  1  6
  5  3  1  0
  5  6  1  1
  7  5  1  0
  7  8  2  0
 10  9  1  1
 10 12  1  0
 10 11  1  0
 12 13  1  1
 13  7  1  0
 14 12  1  0
 15 14  2  0
 16 14  1  0
 17 16  1  0
 18 20  1  0
 18 17  1  0
 19 18  2  0
M  END
$$$$
