ITG.pdb
     RDKit          3D

 20 19  0  0  1  0  0  0  0  0999 V2000
    6.2316  -11.2273   27.4233 C   0  0  0  0  0  0  0  0  0  0  0  0
    5.7934  -12.4502   26.6734 C   0  0  0  0  0  0  0  0  0  0  0  0
    6.9958  -13.2896   26.2151 C   0  0  2  0  0  0  0  0  0  0  0  0
    7.8947  -12.3764   25.4536 C   0  0  0  0  0  0  0  0  0  0  0  0
    6.4151  -14.4266   25.4204 C   0  0  2  0  0  0  0  0  0  0  0  0
    5.6619  -15.2440   26.3920 N   0  0  0  0  0  0  0  0  0  0  0  0
    7.4039  -15.3273   24.8132 C   0  0  0  0  0  0  0  0  0  0  0  0
    7.9726  -16.2594   25.4574 O   0  0  0  0  0  0  0  0  0  0  0  0
    7.0375  -16.6072   21.1944 C   0  0  0  0  0  0  0  0  0  0  0  0
    8.4764  -16.1605   21.3649 C   0  0  1  0  0  0  0  0  0  0  0  0
    8.7156  -14.9649   20.6997 O   0  0  0  0  0  0  0  0  0  0  0  0
    8.8004  -16.0551   22.8417 C   0  0  2  0  0  0  0  0  0  0  0  0
    7.7905  -15.2108   23.4487 N   0  0  0  0  0  0  0  0  0  0  0  0
   10.1547  -15.4396   22.9410 C   0  0  0  0  0  0  0  0  0  0  0  0
   10.2609  -14.1933   23.0638 O   0  0  0  0  0  0  0  0  0  0  0  0
   11.3438  -16.2070   22.9025 N   0  0  0  0  0  0  0  0  0  0  0  0
   12.6647  -15.6668   23.1137 C   0  0  0  0  0  0  0  0  0  0  0  0
   13.6641  -16.7261   22.9365 C   0  0  0  0  0  0  0  0  0  0  0  0
   13.3349  -17.9214   23.0633 O   0  0  0  0  0  0  0  0  0  0  0  0
   14.9927  -16.4469   22.6260 O   0  0  0  0  0  0  0  0  0  0  0  0
  1  2  1  0
  2  3  1  0
  3  4  1  6
  5  3  1  0
  5  6  1  1
  7  5  1  0
  7  8  2  0
 10  9  1  1
 10 12  1  0
 10 11  1  0
 12 13  1  1
 13  7  1  0
 14 12  1  0
 15 14  2  0
 16 14  1  0
 17 16  1  0
 18 20  1  0
 18 17  1  0
 19 18  2  0
M  END
$$$$
