ITG.pdb
     RDKit          3D

 20 19  0  0  1  0  0  0  0  0999 V2000
    8.4598  -12.3316   27.3020 C   0  0  0  0  0  0  0  0  0  0  0  0
    7.9120  -13.6765   26.9269 C   0  0  0  0  0  0  0  0  0  0  0  0
    6.7882  -13.5556   25.8865 C   0  0  2  0  0  0  0  0  0  0  0  0
    5.7029  -12.7498   26.5149 C   0  0  0  0  0  0  0  0  0  0  0  0
    6.4137  -14.9679   25.5306 C   0  0  2  0  0  0  0  0  0  0  0  0
    6.2134  -15.6605   26.8188 N   0  0  0  0  0  0  0  0  0  0  0  0
    7.4531  -15.7249   24.8205 C   0  0  0  0  0  0  0  0  0  0  0  0
    8.1579  -16.6176   25.3806 O   0  0  0  0  0  0  0  0  0  0  0  0
    6.9527  -17.0072   21.2569 C   0  0  0  0  0  0  0  0  0  0  0  0
    8.3244  -16.3620   21.2916 C   0  0  1  0  0  0  0  0  0  0  0  0
    8.3247  -15.1417   20.6282 O   0  0  0  0  0  0  0  0  0  0  0  0
    8.7780  -16.2180   22.7306 C   0  0  2  0  0  0  0  0  0  0  0  0
    7.7384  -15.5031   23.4442 N   0  0  0  0  0  0  0  0  0  0  0  0
   10.0508  -15.4422   22.7036 C   0  0  0  0  0  0  0  0  0  0  0  0
   10.0160  -14.1911   22.8193 O   0  0  0  0  0  0  0  0  0  0  0  0
   11.3154  -16.0601   22.5512 N   0  0  0  0  0  0  0  0  0  0  0  0
   12.5734  -15.3555   22.5997 C   0  0  0  0  0  0  0  0  0  0  0  0
   13.6760  -16.3020   22.3982 C   0  0  0  0  0  0  0  0  0  0  0  0
   13.4562  -17.5287   22.4170 O   0  0  0  0  0  0  0  0  0  0  0  0
   14.9853  -15.8794   22.1822 O   0  0  0  0  0  0  0  0  0  0  0  0
  1  2  1  0
  2  3  1  0
  3  4  1  1
  5  3  1  0
  5  6  1  1
  7  5  1  0
  7  8  2  0
 10  9  1  1
 10 12  1  0
 10 11  1  0
 12 13  1  1
 13  7  1  0
 14 12  1  0
 15 14  2  0
 16 14  1  0
 17 16  1  0
 18 20  1  0
 18 17  1  0
 19 18  2  0
M  END
$$$$
