ITG.pdb
     RDKit          3D

 20 19  0  0  1  0  0  0  0  0999 V2000
    5.9349  -11.4771   27.3617 C   0  0  0  0  0  0  0  0  0  0  0  0
    5.5921  -12.7359   26.6216 C   0  0  0  0  0  0  0  0  0  0  0  0
    6.8541  -13.4573   26.1245 C   0  0  2  0  0  0  0  0  0  0  0  0
    7.6448  -12.4594   25.3494 C   0  0  0  0  0  0  0  0  0  0  0  0
    6.3598  -14.6371   25.3338 C   0  0  2  0  0  0  0  0  0  0  0  0
    5.6750  -15.5080   26.3093 N   0  0  0  0  0  0  0  0  0  0  0  0
    7.4128  -15.4602   24.7245 C   0  0  0  0  0  0  0  0  0  0  0  0
    8.0513  -16.3471   25.3673 O   0  0  0  0  0  0  0  0  0  0  0  0
    7.0674  -16.5375   21.0369 C   0  0  0  0  0  0  0  0  0  0  0  0
    8.5218  -16.1658   21.2500 C   0  0  1  0  0  0  0  0  0  0  0  0
    8.8318  -14.9639   20.6267 O   0  0  0  0  0  0  0  0  0  0  0  0
    8.8184  -16.1198   22.7356 C   0  0  2  0  0  0  0  0  0  0  0  0
    7.7875  -15.3142   23.3596 N   0  0  0  0  0  0  0  0  0  0  0  0
   10.1629  -15.4933   22.8855 C   0  0  0  0  0  0  0  0  0  0  0  0
   10.2510  -14.2536   23.0730 O   0  0  0  0  0  0  0  0  0  0  0  0
   11.3625  -16.2427   22.8252 N   0  0  0  0  0  0  0  0  0  0  0  0
   12.6733  -15.6969   23.0806 C   0  0  0  0  0  0  0  0  0  0  0  0
   13.6901  -16.7286   22.8484 C   0  0  0  0  0  0  0  0  0  0  0  0
   14.5008  -16.6052   21.9098 O   0  0  0  0  0  0  0  0  0  0  0  0
   13.7901  -17.8638   23.6488 O   0  0  0  0  0  0  0  0  0  0  0  0
  1  2  1  0
  2  3  1  0
  3  4  1  6
  5  3  1  0
  5  6  1  1
  7  5  1  0
  7  8  2  0
 10  9  1  1
 10 12  1  0
 10 11  1  0
 12 13  1  1
 13  7  1  0
 14 12  1  0
 15 14  2  0
 16 14  1  0
 17 16  1  0
 18 20  1  0
 18 17  1  0
 19 18  2  0
M  END
$$$$
