PID.pdb
     RDKit          3D

 24 24  0  0  1  0  0  0  0  0999 V2000
    7.1291  -14.6862   20.5269 N   0  0  0  0  0  0  0  0  0  0  0  0
    7.0408  -14.2546   19.1236 C   0  0  0  0  0  0  0  0  0  0  0  0
    7.6765  -12.8810   19.0599 C   0  0  0  0  0  0  0  0  0  0  0  0
    8.0923  -12.6251   20.5153 C   0  0  0  0  0  0  0  0  0  0  0  0
    8.3507  -14.0679   20.9472 C   0  0  1  0  0  0  0  0  0  0  0  0
    8.6482  -14.1896   22.3652 C   0  0  0  0  0  0  0  0  0  0  0  0
    9.8808  -14.2988   22.6859 O   0  0  0  0  0  0  0  0  0  0  0  0
    6.1154  -11.3222   25.9451 C   0  0  0  0  0  0  0  0  0  0  0  0
    7.1462  -12.1131   25.1562 C   0  0  0  0  0  0  0  0  0  0  0  0
    7.3205  -13.4857   25.7178 C   0  0  2  0  0  0  0  0  0  0  0  0
    7.7259  -13.4944   27.1549 C   0  0  0  0  0  0  0  0  0  0  0  0
    8.1691  -14.3517   24.8239 C   0  0  2  0  0  0  0  0  0  0  0  0
    7.7260  -14.2005   23.4283 N   0  0  0  0  0  0  0  0  0  0  0  0
    8.2152  -15.7616   25.2157 C   0  0  0  0  0  0  0  0  0  0  0  0
    7.3699  -16.6083   24.8416 O   0  0  0  0  0  0  0  0  0  0  0  0
    9.2591  -16.2110   26.0586 N   0  0  0  0  0  0  0  0  0  0  0  0
    9.8246  -17.5776   25.9649 C   0  0  1  0  0  0  0  0  0  0  0  0
   10.3658  -17.7127   24.5776 C   0  0  0  0  0  0  0  0  0  0  0  0
   11.1131  -18.9334   24.2950 C   0  0  0  0  0  0  0  0  0  0  0  0
   10.8337  -20.0529   24.7314 O   0  0  0  0  0  0  0  0  0  0  0  0
   10.8281  -17.7616   27.0191 C   0  0  0  0  0  0  0  0  0  0  0  0
   10.6802  -18.6972   27.8468 O   0  0  0  0  0  0  0  0  0  0  0  0
   12.2413  -18.8261   23.4591 O   0  0  0  0  0  0  0  0  0  0  0  0
   11.9299  -16.9571   27.1471 O   0  0  0  0  0  0  0  0  0  0  0  0
  1  2  1  0
  1  5  1  0
  2  3  1  0
  4  3  1  0
  5  4  1  0
  5  6  1  1
  6 13  1  0
  7  6  2  0
  8  9  1  0
  9 10  1  0
 10 11  1  1
 10 12  1  0
 12 13  1  6
 14 12  1  0
 14 16  1  0
 15 14  2  0
 17 16  1  0
 17 21  1  0
 17 18  1  6
 19 18  1  0
 20 19  2  0
 21 22  2  0
 21 24  1  0
 23 19  1  0
M  END
$$$$
