PID.pdb
     RDKit          3D

 24 24  0  0  1  0  0  0  0  0999 V2000
    9.9543  -18.0087   16.8539 N   0  0  0  0  0  0  0  0  0  0  0  0
    9.4472  -19.1463   16.0715 C   0  0  0  0  0  0  0  0  0  0  0  0
    8.8370  -20.1102   17.0683 C   0  0  0  0  0  0  0  0  0  0  0  0
    9.0653  -19.4064   18.4133 C   0  0  0  0  0  0  0  0  0  0  0  0
    9.0168  -17.9559   17.9353 C   0  0  1  0  0  0  0  0  0  0  0  0
    9.3386  -17.0029   18.9852 C   0  0  0  0  0  0  0  0  0  0  0  0
   10.5778  -16.7492   19.1704 O   0  0  0  0  0  0  0  0  0  0  0  0
    6.7823  -12.4067   20.3328 C   0  0  0  0  0  0  0  0  0  0  0  0
    7.8713  -13.4440   20.1132 C   0  0  0  0  0  0  0  0  0  0  0  0
    7.9274  -14.4172   21.2444 C   0  0  2  0  0  0  0  0  0  0  0  0
    8.0845  -13.7692   22.5806 C   0  0  0  0  0  0  0  0  0  0  0  0
    8.9012  -15.5339   20.9732 C   0  0  2  0  0  0  0  0  0  0  0  0
    8.4336  -16.3257   19.8237 N   0  0  0  0  0  0  0  0  0  0  0  0
    9.1768  -16.3892   22.1291 C   0  0  0  0  0  0  0  0  0  0  0  0
    8.3811  -17.2648   22.5432 O   0  0  0  0  0  0  0  0  0  0  0  0
   10.3978  -16.2352   22.8275 N   0  0  0  0  0  0  0  0  0  0  0  0
   10.7847  -17.1139   23.9563 C   0  0  1  0  0  0  0  0  0  0  0  0
   12.2791  -17.1660   23.9533 C   0  0  0  0  0  0  0  0  0  0  0  0
   12.8939  -17.9210   22.8669 C   0  0  0  0  0  0  0  0  0  0  0  0
   12.3369  -18.8088   22.2164 O   0  0  0  0  0  0  0  0  0  0  0  0
   10.2069  -16.5911   25.1993 C   0  0  0  0  0  0  0  0  0  0  0  0
    9.8736  -15.3795   25.2559 O   0  0  0  0  0  0  0  0  0  0  0  0
   14.2273  -17.6128   22.5345 O   0  0  0  0  0  0  0  0  0  0  0  0
   10.0096  -17.3656   26.3122 O   0  0  0  0  0  0  0  0  0  0  0  0
  1  2  1  0
  1  5  1  0
  2  3  1  0
  4  3  1  0
  5  4  1  0
  5  6  1  1
  6 13  1  0
  7  6  2  0
  8  9  1  0
  9 10  1  0
 10 11  1  1
 10 12  1  0
 12 13  1  6
 14 12  1  0
 14 16  1  0
 15 14  2  0
 17 16  1  0
 17 21  1  0
 17 18  1  1
 19 18  1  0
 20 19  2  0
 21 22  2  0
 21 24  1  0
 23 19  1  0
M  END
$$$$
