PID.pdb
     RDKit          3D

 24 24  0  0  1  0  0  0  0  0999 V2000
    7.2903  -14.9187   20.3099 N   0  0  0  0  0  0  0  0  0  0  0  0
    7.0768  -14.5515   18.9017 C   0  0  0  0  0  0  0  0  0  0  0  0
    7.4840  -13.0979   18.7744 C   0  0  0  0  0  0  0  0  0  0  0  0
    7.9141  -12.7336   20.2023 C   0  0  0  0  0  0  0  0  0  0  0  0
    8.4151  -14.1033   20.6579 C   0  0  1  0  0  0  0  0  0  0  0  0
    8.7866  -14.1314   22.0633 C   0  0  0  0  0  0  0  0  0  0  0  0
   10.0367  -14.1821   22.3258 O   0  0  0  0  0  0  0  0  0  0  0  0
    7.2910  -11.8446   27.4848 C   0  0  0  0  0  0  0  0  0  0  0  0
    8.1343  -12.8459   26.7123 C   0  0  0  0  0  0  0  0  0  0  0  0
    7.5610  -13.1050   25.3581 C   0  0  2  0  0  0  0  0  0  0  0  0
    6.1183  -13.4893   25.3852 C   0  0  0  0  0  0  0  0  0  0  0  0
    8.4371  -14.0233   24.5467 C   0  0  2  0  0  0  0  0  0  0  0  0
    7.9192  -14.1087   23.1714 N   0  0  0  0  0  0  0  0  0  0  0  0
    8.6189  -15.3546   25.1282 C   0  0  0  0  0  0  0  0  0  0  0  0
    7.7151  -16.2227   25.1575 O   0  0  0  0  0  0  0  0  0  0  0  0
    9.8711  -15.6981   25.6906 N   0  0  0  0  0  0  0  0  0  0  0  0
   10.1929  -17.0748   26.1346 C   0  0  1  0  0  0  0  0  0  0  0  0
   11.5818  -17.3550   25.6568 C   0  0  0  0  0  0  0  0  0  0  0  0
   11.7124  -18.3759   24.6229 C   0  0  0  0  0  0  0  0  0  0  0  0
   12.7696  -18.7003   24.0761 O   0  0  0  0  0  0  0  0  0  0  0  0
   10.0309  -17.1666   27.5897 C   0  0  0  0  0  0  0  0  0  0  0  0
   10.1370  -16.1225   28.2833 O   0  0  0  0  0  0  0  0  0  0  0  0
   10.5408  -19.0434   24.2168 O   0  0  0  0  0  0  0  0  0  0  0  0
    9.7661  -18.3450   28.2367 O   0  0  0  0  0  0  0  0  0  0  0  0
  1  2  1  0
  1  5  1  0
  2  3  1  0
  4  3  1  0
  5  4  1  0
  5  6  1  1
  6 13  1  0
  7  6  2  0
  8  9  1  0
  9 10  1  0
 10 11  1  1
 10 12  1  0
 12 13  1  6
 14 12  1  0
 14 16  1  0
 15 14  2  0
 17 16  1  0
 17 21  1  0
 17 18  1  1
 19 18  1  0
 20 19  2  0
 21 22  2  0
 21 24  1  0
 23 19  1  0
M  END
$$$$
