PID.pdb
     RDKit          3D

 24 24  0  0  1  0  0  0  0  0999 V2000
    6.9475  -14.5552   20.4475 N   0  0  0  0  0  0  0  0  0  0  0  0
    6.7260  -14.0704   19.0766 C   0  0  0  0  0  0  0  0  0  0  0  0
    7.4072  -12.7202   18.9874 C   0  0  0  0  0  0  0  0  0  0  0  0
    7.9880  -12.5328   20.3960 C   0  0  0  0  0  0  0  0  0  0  0  0
    8.2318  -13.9988   20.7510 C   0  0  1  0  0  0  0  0  0  0  0  0
    8.6755  -14.1826   22.1234 C   0  0  0  0  0  0  0  0  0  0  0  0
    9.9311  -14.0787   22.3397 O   0  0  0  0  0  0  0  0  0  0  0  0
    6.1267  -11.7531   25.9693 C   0  0  0  0  0  0  0  0  0  0  0  0
    7.1746  -12.4029   25.0805 C   0  0  0  0  0  0  0  0  0  0  0  0
    7.5027  -13.7818   25.5505 C   0  0  2  0  0  0  0  0  0  0  0  0
    7.9129  -13.8405   26.9851 C   0  0  0  0  0  0  0  0  0  0  0  0
    8.4382  -14.4872   24.6038 C   0  0  2  0  0  0  0  0  0  0  0  0
    7.8728  -14.4632   23.2449 N   0  0  0  0  0  0  0  0  0  0  0  0
    8.7917  -15.8496   25.0069 C   0  0  0  0  0  0  0  0  0  0  0  0
    7.9485  -16.7661   25.1498 O   0  0  0  0  0  0  0  0  0  0  0  0
   10.1484  -16.1679   25.2521 N   0  0  0  0  0  0  0  0  0  0  0  0
   10.5849  -17.5207   25.6705 C   0  0  1  0  0  0  0  0  0  0  0  0
   12.0148  -17.6477   25.2516 C   0  0  0  0  0  0  0  0  0  0  0  0
   12.2712  -17.5955   23.8164 C   0  0  0  0  0  0  0  0  0  0  0  0
   11.5150  -18.0312   22.9446 O   0  0  0  0  0  0  0  0  0  0  0  0
   10.3682  -17.6769   27.1131 C   0  0  0  0  0  0  0  0  0  0  0  0
   10.4809  -18.8191   27.6277 O   0  0  0  0  0  0  0  0  0  0  0  0
   13.4758  -17.0017   23.3925 O   0  0  0  0  0  0  0  0  0  0  0  0
   10.0468  -16.6292   27.9355 O   0  0  0  0  0  0  0  0  0  0  0  0
  1  2  1  0
  1  5  1  0
  2  3  1  0
  4  3  1  0
  5  4  1  0
  5  6  1  1
  6 13  1  0
  7  6  2  0
  8  9  1  0
  9 10  1  0
 10 11  1  1
 10 12  1  0
 12 13  1  6
 14 12  1  0
 14 16  1  0
 15 14  2  0
 17 16  1  0
 17 21  1  0
 17 18  1  1
 19 18  1  0
 20 19  2  0
 21 22  2  0
 21 24  1  0
 23 19  1  0
M  END
$$$$
