AIM.pdb
     RDKit          3D

 22 21  0  0  1  0  0  0  0  0999 V2000
    6.9444  -17.0358   20.6884 C   0  0  0  0  0  0  0  0  0  0  0  0
    6.9851  -15.5344   20.8027 C   0  0  2  0  0  0  0  0  0  0  0  0
    7.4403  -14.9818   19.5623 N   0  0  0  0  0  0  0  0  0  0  0  0
    7.7786  -15.0675   21.9604 C   0  0  0  0  0  0  0  0  0  0  0  0
    8.9624  -14.7257   21.8604 O   0  0  0  0  0  0  0  0  0  0  0  0
    5.6953  -11.9035   26.1797 C   0  0  0  0  0  0  0  0  0  0  0  0
    6.4443  -12.5151   25.0046 C   0  0  0  0  0  0  0  0  0  0  0  0
    7.2935  -13.6698   25.4270 C   0  0  2  0  0  0  0  0  0  0  0  0
    8.2958  -13.2266   26.4737 C   0  0  0  0  0  0  0  0  0  0  0  0
    7.9530  -14.4770   24.4096 C   0  0  2  0  0  0  0  0  0  0  0  0
    7.2790  -14.9634   23.2832 N   0  0  0  0  0  0  0  0  0  0  0  0
    8.8188  -15.5702   24.9246 C   0  0  0  0  0  0  0  0  0  0  0  0
    8.2745  -16.6416   25.2843 O   0  0  0  0  0  0  0  0  0  0  0  0
    9.9174  -13.8954   29.7258 C   0  0  0  0  0  0  0  0  0  0  0  0
   11.4551  -14.8280   29.8821 S   0  0  0  0  0  0  0  0  0  0  0  0
   11.5275  -16.0212   28.5030 C   0  0  0  0  0  0  0  0  0  0  0  0
   11.0767  -15.2889   27.2752 C   0  0  0  0  0  0  0  0  0  0  0  0
   10.9855  -16.1557   26.0591 C   0  0  2  0  0  0  0  0  0  0  0  0
   10.2248  -15.4584   25.0274 N   0  0  0  0  0  0  0  0  0  0  0  0
   10.3221  -17.4549   26.2967 C   0  0  0  0  0  0  0  0  0  0  0  0
   10.9857  -18.5378   26.2903 O   0  0  0  0  0  0  0  0  0  0  0  0
    8.9591  -17.5256   26.5342 O   0  0  0  0  0  0  0  0  0  0  0  0
  2  1  1  6
  2  4  1  0
  3  2  1  0
  4 11  1  0
  5  4  2  0
  6  7  1  0
  8  9  1  1
  8  7  1  0
 10  8  1  0
 10 12  1  0
 10 11  1  6
 12 13  2  0
 12 19  1  0
 15 14  1  0
 16 15  1  0
 17 16  1  0
 18 17  1  1
 18 20  1  0
 19 18  1  0
 20 22  1  0
 21 20  2  0
M  END
$$$$
