AIM.pdb
     RDKit          3D

 22 21  0  0  1  0  0  0  0  0999 V2000
    8.1594  -18.1530   20.9700 C   0  0  0  0  0  0  0  0  0  0  0  0
    7.9538  -16.6783   20.7414 C   0  0  2  0  0  0  0  0  0  0  0  0
    8.5259  -16.3150   19.4798 N   0  0  0  0  0  0  0  0  0  0  0  0
    8.4587  -15.8482   21.8568 C   0  0  0  0  0  0  0  0  0  0  0  0
    9.6184  -15.4219   21.8960 O   0  0  0  0  0  0  0  0  0  0  0  0
    6.7184  -11.7360   26.1656 C   0  0  0  0  0  0  0  0  0  0  0  0
    7.7781  -12.6951   25.6431 C   0  0  0  0  0  0  0  0  0  0  0  0
    7.2074  -13.6803   24.6754 C   0  0  2  0  0  0  0  0  0  0  0  0
    6.0036  -14.3725   25.2822 C   0  0  0  0  0  0  0  0  0  0  0  0
    8.0893  -14.6589   24.0538 C   0  0  2  0  0  0  0  0  0  0  0  0
    7.6843  -15.4592   22.9789 N   0  0  0  0  0  0  0  0  0  0  0  0
    8.8516  -15.5202   24.9957 C   0  0  0  0  0  0  0  0  0  0  0  0
    8.2717  -16.5133   25.4968 O   0  0  0  0  0  0  0  0  0  0  0  0
    9.6277  -13.4492   29.3163 C   0  0  0  0  0  0  0  0  0  0  0  0
   11.2009  -14.3216   29.4667 S   0  0  0  0  0  0  0  0  0  0  0  0
   10.9463  -16.0357   28.8939 C   0  0  0  0  0  0  0  0  0  0  0  0
   10.0980  -15.9565   27.6606 C   0  0  0  0  0  0  0  0  0  0  0  0
   10.8803  -16.0403   26.3879 C   0  0  2  0  0  0  0  0  0  0  0  0
   10.1974  -15.2721   25.3521 N   0  0  0  0  0  0  0  0  0  0  0  0
   11.0509  -17.4172   25.8783 C   0  0  0  0  0  0  0  0  0  0  0  0
   10.1640  -17.9573   25.1469 O   0  0  0  0  0  0  0  0  0  0  0  0
   12.1832  -18.1544   26.1837 O   0  0  0  0  0  0  0  0  0  0  0  0
  2  1  1  1
  2  4  1  0
  3  2  1  0
  4 11  1  0
  5  4  2  0
  6  7  1  0
  8  9  1  1
  8  7  1  0
 10  8  1  0
 10 12  1  0
 10 11  1  6
 12 13  2  0
 12 19  1  0
 15 14  1  0
 16 15  1  0
 17 16  1  0
 18 17  1  1
 18 20  1  0
 19 18  1  0
 20 22  1  0
 21 20  2  0
M  END
$$$$
