AIM.pdb
     RDKit          3D

 22 21  0  0  1  0  0  0  0  0999 V2000
    9.7851  -17.9148   20.1128 C   0  0  0  0  0  0  0  0  0  0  0  0
    9.1389  -16.5568   20.1974 C   0  0  2  0  0  0  0  0  0  0  0  0
    9.5581  -15.7674   19.0784 N   0  0  0  0  0  0  0  0  0  0  0  0
    9.3818  -15.8846   21.4925 C   0  0  0  0  0  0  0  0  0  0  0  0
   10.3937  -15.2091   21.7113 O   0  0  0  0  0  0  0  0  0  0  0  0
    6.4839  -12.8235   25.9216 C   0  0  0  0  0  0  0  0  0  0  0  0
    7.7498  -13.5627   25.5132 C   0  0  0  0  0  0  0  0  0  0  0  0
    7.4896  -14.5493   24.4215 C   0  0  2  0  0  0  0  0  0  0  0  0
    6.4292  -15.5415   24.8548 C   0  0  0  0  0  0  0  0  0  0  0  0
    8.6130  -15.2484   23.8124 C   0  0  2  0  0  0  0  0  0  0  0  0
    8.4993  -15.9405   22.6008 N   0  0  0  0  0  0  0  0  0  0  0  0
    9.4200  -16.0870   24.7372 C   0  0  0  0  0  0  0  0  0  0  0  0
    9.6175  -17.2879   24.4332 O   0  0  0  0  0  0  0  0  0  0  0  0
    9.3566  -13.3995   29.2958 C   0  0  0  0  0  0  0  0  0  0  0  0
   11.1459  -13.2167   29.1417 S   0  0  0  0  0  0  0  0  0  0  0  0
   11.7091  -14.3328   27.8119 C   0  0  0  0  0  0  0  0  0  0  0  0
   11.0856  -15.6697   28.0783 C   0  0  0  0  0  0  0  0  0  0  0  0
   10.7597  -16.4379   26.8365 C   0  0  2  0  0  0  0  0  0  0  0  0
    9.9742  -15.5945   25.9415 N   0  0  0  0  0  0  0  0  0  0  0  0
    9.9812  -17.6704   27.0805 C   0  0  0  0  0  0  0  0  0  0  0  0
    8.7257  -17.6236   27.2666 O   0  0  0  0  0  0  0  0  0  0  0  0
   10.6002  -18.9093   27.1113 O   0  0  0  0  0  0  0  0  0  0  0  0
  2  1  1  1
  2  4  1  0
  3  2  1  0
  4 11  1  0
  5  4  2  0
  6  7  1  0
  8  9  1  1
  8  7  1  0
 10  8  1  0
 10 12  1  0
 10 11  1  6
 12 13  2  0
 12 19  1  0
 15 14  1  0
 16 15  1  0
 17 16  1  0
 18 17  1  1
 18 20  1  0
 19 18  1  0
 20 22  1  0
 21 20  2  0
M  END
$$$$
