AIM.pdb
     RDKit          3D

 22 21  0  0  1  0  0  0  0  0999 V2000
    6.2862  -19.4936   21.8699 C   0  0  0  0  0  0  0  0  0  0  0  0
    6.3331  -18.4317   20.8026 C   0  0  2  0  0  0  0  0  0  0  0  0
    6.5816  -19.0510   19.5354 N   0  0  0  0  0  0  0  0  0  0  0  0
    7.2967  -17.3519   21.1084 C   0  0  0  0  0  0  0  0  0  0  0  0
    8.5126  -17.5534   21.2039 O   0  0  0  0  0  0  0  0  0  0  0  0
    7.0977  -12.3261   18.7775 C   0  0  0  0  0  0  0  0  0  0  0  0
    7.4632  -13.6965   19.3290 C   0  0  0  0  0  0  0  0  0  0  0  0
    7.6805  -13.6609   20.8070 C   0  0  2  0  0  0  0  0  0  0  0  0
    8.8414  -12.7466   21.1431 C   0  0  0  0  0  0  0  0  0  0  0  0
    7.8003  -14.9148   21.5385 C   0  0  2  0  0  0  0  0  0  0  0  0
    6.9387  -15.9965   21.3210 N   0  0  0  0  0  0  0  0  0  0  0  0
    7.9957  -14.7814   23.0061 C   0  0  0  0  0  0  0  0  0  0  0  0
    7.3316  -13.9111   23.6186 O   0  0  0  0  0  0  0  0  0  0  0  0
    6.2516  -11.9258   27.6432 C   0  0  0  0  0  0  0  0  0  0  0  0
    6.3654  -13.2109   26.3806 S   0  0  0  0  0  0  0  0  0  0  0  0
    7.5892  -14.4417   26.9447 C   0  0  0  0  0  0  0  0  0  0  0  0
    7.7242  -15.4508   25.8445 C   0  0  0  0  0  0  0  0  0  0  0  0
    9.0666  -15.4419   25.1836 C   0  0  2  0  0  0  0  0  0  0  0  0
    8.8939  -15.5885   23.7421 N   0  0  0  0  0  0  0  0  0  0  0  0
    9.9645  -16.5258   25.6347 C   0  0  0  0  0  0  0  0  0  0  0  0
    9.9325  -17.6710   25.0863 O   0  0  0  0  0  0  0  0  0  0  0  0
   10.8658  -16.3209   26.6665 O   0  0  0  0  0  0  0  0  0  0  0  0
  2  1  1  1
  2  4  1  0
  3  2  1  0
  4 11  1  0
  5  4  2  0
  6  7  1  0
  8  9  1  6
  8  7  1  0
 10  8  1  0
 10 12  1  0
 10 11  1  1
 12 13  2  0
 12 19  1  0
 15 14  1  0
 16 15  1  0
 17 16  1  0
 18 17  1  1
 18 20  1  0
 19 18  1  0
 20 22  1  0
 21 20  2  0
M  END
$$$$
