AIM.pdb
     RDKit          3D

 22 21  0  0  1  0  0  0  0  0999 V2000
    7.0547  -19.5352   25.4457 C   0  0  0  0  0  0  0  0  0  0  0  0
    6.1500  -18.6196   24.6633 C   0  0  2  0  0  0  0  0  0  0  0  0
    5.5883  -19.3435   23.5626 N   0  0  0  0  0  0  0  0  0  0  0  0
    6.8218  -17.3711   24.2414 C   0  0  0  0  0  0  0  0  0  0  0  0
    7.3463  -17.2415   23.1295 O   0  0  0  0  0  0  0  0  0  0  0  0
    5.4934  -12.4129   26.4948 C   0  0  0  0  0  0  0  0  0  0  0  0
    5.8154  -13.3307   25.3244 C   0  0  0  0  0  0  0  0  0  0  0  0
    7.2519  -13.7423   25.3197 C   0  0  2  0  0  0  0  0  0  0  0  0
    8.1096  -12.6411   24.7294 C   0  0  0  0  0  0  0  0  0  0  0  0
    7.6209  -15.0291   24.7456 C   0  0  2  0  0  0  0  0  0  0  0  0
    6.9354  -16.2113   25.0490 N   0  0  0  0  0  0  0  0  0  0  0  0
    9.0754  -15.3367   24.7506 C   0  0  0  0  0  0  0  0  0  0  0  0
    9.8358  -14.6306   24.0458 O   0  0  0  0  0  0  0  0  0  0  0  0
   10.5639  -13.0960   28.9583 C   0  0  0  0  0  0  0  0  0  0  0  0
   11.0150  -14.7263   29.5886 S   0  0  0  0  0  0  0  0  0  0  0  0
   10.6088  -15.9550   28.3017 C   0  0  0  0  0  0  0  0  0  0  0  0
   11.2756  -15.4947   27.0405 C   0  0  0  0  0  0  0  0  0  0  0  0
   11.0528  -16.4077   25.8762 C   0  0  2  0  0  0  0  0  0  0  0  0
    9.6400  -16.3863   25.5117 N   0  0  0  0  0  0  0  0  0  0  0  0
   11.4214  -17.8149   26.1384 C   0  0  0  0  0  0  0  0  0  0  0  0
   10.5296  -18.6979   26.3336 O   0  0  0  0  0  0  0  0  0  0  0  0
   12.7492  -18.2080   26.1767 O   0  0  0  0  0  0  0  0  0  0  0  0
  2  1  1  6
  2  4  1  0
  3  2  1  0
  4 11  1  0
  5  4  2  0
  6  7  1  0
  8  9  1  6
  8  7  1  0
 10  8  1  0
 10 12  1  0
 10 11  1  1
 12 13  2  0
 12 19  1  0
 15 14  1  0
 16 15  1  0
 17 16  1  0
 18 17  1  1
 18 20  1  0
 19 18  1  0
 20 22  1  0
 21 20  2  0
M  END
$$$$
