AIM.pdb
     RDKit          3D

 22 21  0  0  1  0  0  0  0  0999 V2000
    8.3202  -20.3795   21.4039 C   0  0  0  0  0  0  0  0  0  0  0  0
    7.6417  -19.2379   20.6929 C   0  0  2  0  0  0  0  0  0  0  0  0
    7.5481  -19.5441   19.2970 N   0  0  0  0  0  0  0  0  0  0  0  0
    8.2920  -17.9341   20.9484 C   0  0  0  0  0  0  0  0  0  0  0  0
    9.5183  -17.7835   20.9068 O   0  0  0  0  0  0  0  0  0  0  0  0
    8.0207  -12.1005   19.4547 C   0  0  0  0  0  0  0  0  0  0  0  0
    8.4435  -13.0542   20.5627 C   0  0  0  0  0  0  0  0  0  0  0  0
    7.7629  -14.3793   20.4452 C   0  0  2  0  0  0  0  0  0  0  0  0
    6.2589  -14.1950   20.4247 C   0  0  0  0  0  0  0  0  0  0  0  0
    8.1256  -15.4489   21.3651 C   0  0  2  0  0  0  0  0  0  0  0  0
    7.5948  -16.7402   21.2624 N   0  0  0  0  0  0  0  0  0  0  0  0
    8.1336  -15.0773   22.8045 C   0  0  0  0  0  0  0  0  0  0  0  0
    7.1039  -14.5495   23.2890 O   0  0  0  0  0  0  0  0  0  0  0  0
    6.5006  -11.7313   27.1668 C   0  0  0  0  0  0  0  0  0  0  0  0
    7.0479  -12.8773   25.8839 S   0  0  0  0  0  0  0  0  0  0  0  0
    7.3130  -14.5054   26.6651 C   0  0  0  0  0  0  0  0  0  0  0  0
    7.8252  -15.4195   25.5932 C   0  0  0  0  0  0  0  0  0  0  0  0
    9.1847  -15.0504   25.0890 C   0  0  2  0  0  0  0  0  0  0  0  0
    9.2460  -15.2909   23.6510 N   0  0  0  0  0  0  0  0  0  0  0  0
   10.2843  -15.8156   25.7134 C   0  0  0  0  0  0  0  0  0  0  0  0
   10.4895  -17.0312   25.4078 O   0  0  0  0  0  0  0  0  0  0  0  0
   11.1210  -15.2269   26.6474 O   0  0  0  0  0  0  0  0  0  0  0  0
  2  1  1  1
  2  4  1  0
  3  2  1  0
  4 11  1  0
  5  4  2  0
  6  7  1  0
  8  9  1  1
  8  7  1  0
 10  8  1  0
 10 12  1  0
 10 11  1  1
 12 13  2  0
 12 19  1  0
 15 14  1  0
 16 15  1  0
 17 16  1  0
 18 17  1  1
 18 20  1  0
 19 18  1  0
 20 22  1  0
 21 20  2  0
M  END
$$$$
