MRF.pdb
     RDKit          3D

 31 31  0  0  1  0  0  0  0  0999 V2000
   31.6078  -21.0113   -8.4686 C   0  0  0  0  0  0  0  0  0  0  0  0
   32.9931  -22.0308   -8.9726 S   0  0  0  0  0  0  0  0  0  0  0  0
   33.0455  -22.3866  -10.7198 C   0  0  0  0  0  0  0  0  0  0  0  0
   32.0936  -21.6195  -11.5665 C   0  0  0  0  0  0  0  0  0  0  0  0
   30.8245  -22.3250  -11.9034 C   0  0  2  0  0  0  0  0  0  0  0  0
   31.0204  -23.6313  -12.4646 N   0  0  0  0  0  0  0  0  0  0  0  0
   29.9435  -21.5420  -12.8034 C   0  0  0  0  0  0  0  0  0  0  0  0
   29.6284  -20.3532  -12.5267 O   0  0  0  0  0  0  0  0  0  0  0  0
   28.0834  -23.1560  -21.1486 N   0  0  0  0  0  0  0  0  0  0  0  0
   29.1463  -22.7006  -20.3342 C   0  0  0  0  0  0  0  0  0  0  0  0
   30.3653  -22.7247  -20.6981 N   0  0  0  0  0  0  0  0  0  0  0  0
   28.8368  -22.1914  -19.0400 N   0  0  0  0  0  0  0  0  0  0  0  0
   27.4828  -22.0909  -18.5421 C   0  0  0  0  0  0  0  0  0  0  0  0
   27.4935  -21.4303  -17.1918 C   0  0  0  0  0  0  0  0  0  0  0  0
   28.4190  -22.0613  -16.1983 C   0  0  0  0  0  0  0  0  0  0  0  0
   28.4578  -21.4253  -14.8507 C   0  0  2  0  0  0  0  0  0  0  0  0
   29.4223  -22.0804  -13.9953 N   0  0  0  0  0  0  0  0  0  0  0  0
   27.1073  -21.4176  -14.3002 C   0  0  0  0  0  0  0  0  0  0  0  0
   26.8981  -21.7794  -13.1290 O   0  0  0  0  0  0  0  0  0  0  0  0
   31.1500  -22.4389  -20.1083 N   0  0  0  0  0  0  0  0  0  0  0  0
   26.0233  -20.9976  -15.0957 C   0  0  2  0  0  0  0  0  0  0  0  0
   24.6952  -20.9192  -14.5043 C   0  0  0  0  0  0  0  0  0  0  0  0
   24.7630  -19.8823  -13.4203 C   0  0  0  0  0  0  0  0  0  0  0  0
   23.5102  -19.6276  -12.7084 C   0  0  0  0  0  0  0  0  0  0  0  0
   23.2894  -20.1357  -11.4504 C   0  0  0  0  0  0  0  0  0  0  0  0
   22.0951  -19.8641  -10.8305 C   0  0  0  0  0  0  0  0  0  0  0  0
   21.0986  -19.1065  -11.4010 C   0  0  0  0  0  0  0  0  0  0  0  0
   21.3518  -18.6120  -12.6631 C   0  0  0  0  0  0  0  0  0  0  0  0
   22.5387  -18.8661  -13.3115 C   0  0  0  0  0  0  0  0  0  0  0  0
   23.6599  -20.6020  -15.4866 O   0  0  0  0  0  0  0  0  0  0  0  0
   23.7984  -19.7798  -16.4400 O   0  0  0  0  0  0  0  0  0  0  0  0
  1  2  1  0
  3  2  1  0
  4  3  1  0
  5  4  1  0
  5  6  1  6
  7  8  2  0
  7  5  1  0
 10 12  1  0
 10  9  1  0
 11 10  2  0
 13 12  1  0
 14 13  1  0
 14 15  1  0
 16 15  1  6
 16 17  1  0
 17  7  1  0
 18 20  1  0
 18 16  1  0
 19 18  2  0
 21 22  1  1
 21 20  1  0
 22 23  1  0
 23 24  2  0
 23 28  1  0
 24 25  1  0
 25 26  2  0
 27 26  1  0
 28 27  2  0
 29 21  1  0
 30 29  2  0
 31 29  1  0
M  END
$$$$
