MRF.pdb
     RDKit          3D

 31 31  0  0  1  0  0  0  0  0999 V2000
   19.7105  -16.0511  -16.6360 C   0  0  0  0  0  0  0  0  0  0  0  0
   20.2429  -14.8591  -17.8641 S   0  0  0  0  0  0  0  0  0  0  0  0
   21.4906  -15.4671  -18.9846 C   0  0  0  0  0  0  0  0  0  0  0  0
   22.2114  -16.6927  -18.5492 C   0  0  0  0  0  0  0  0  0  0  0  0
   23.6367  -16.4932  -18.1607 C   0  0  2  0  0  0  0  0  0  0  0  0
   24.5043  -16.2124  -19.2689 N   0  0  0  0  0  0  0  0  0  0  0  0
   24.1949  -17.6298  -17.3887 C   0  0  0  0  0  0  0  0  0  0  0  0
   23.8166  -18.8114  -17.6119 O   0  0  0  0  0  0  0  0  0  0  0  0
   28.8176  -21.2038  -11.5507 N   0  0  0  0  0  0  0  0  0  0  0  0
   27.4207  -21.3594  -11.7073 C   0  0  0  0  0  0  0  0  0  0  0  0
   26.6343  -21.6220  -10.7420 N   0  0  0  0  0  0  0  0  0  0  0  0
   26.8660  -21.2170  -13.0119 N   0  0  0  0  0  0  0  0  0  0  0  0
   27.4368  -20.3441  -14.0136 C   0  0  0  0  0  0  0  0  0  0  0  0
   27.2568  -18.9125  -13.5917 C   0  0  0  0  0  0  0  0  0  0  0  0
   26.7967  -17.9960  -14.6826 C   0  0  0  0  0  0  0  0  0  0  0  0
   25.6568  -18.4880  -15.5076 C   0  0  2  0  0  0  0  0  0  0  0  0
   25.1619  -17.4478  -16.3818 N   0  0  0  0  0  0  0  0  0  0  0  0
   24.6366  -19.0290  -14.6167 C   0  0  0  0  0  0  0  0  0  0  0  0
   24.2343  -18.3718  -13.6406 O   0  0  0  0  0  0  0  0  0  0  0  0
   25.6235  -21.7426  -10.8368 N   0  0  0  0  0  0  0  0  0  0  0  0
   24.0959  -20.3073  -14.8568 C   0  0  1  0  0  0  0  0  0  0  0  0
   23.3434  -20.9710  -13.8018 C   0  0  0  0  0  0  0  0  0  0  0  0
   21.9051  -20.5793  -13.9819 C   0  0  0  0  0  0  0  0  0  0  0  0
   21.3503  -19.7112  -12.9427 C   0  0  0  0  0  0  0  0  0  0  0  0
   21.5296  -19.9918  -11.6091 C   0  0  0  0  0  0  0  0  0  0  0  0
   20.9865  -19.1415  -10.6782 C   0  0  0  0  0  0  0  0  0  0  0  0
   20.2672  -18.0158  -11.0065 C   0  0  0  0  0  0  0  0  0  0  0  0
   20.1058  -17.7632  -12.3525 C   0  0  0  0  0  0  0  0  0  0  0  0
   20.6376  -18.5957  -13.3104 C   0  0  0  0  0  0  0  0  0  0  0  0
   23.5106  -22.4233  -13.8200 O   0  0  0  0  0  0  0  0  0  0  0  0
   24.1135  -23.0683  -14.7282 O   0  0  0  0  0  0  0  0  0  0  0  0
  1  2  1  0
  3  2  1  0
  4  3  1  0
  5  4  1  0
  5  6  1  6
  7  8  2  0
  7  5  1  0
 10 12  1  0
 10  9  1  0
 11 10  2  0
 13 12  1  0
 14 13  1  0
 14 15  1  0
 16 15  1  1
 16 17  1  0
 17  7  1  0
 18 20  1  0
 18 16  1  0
 19 18  2  0
 21 22  1  6
 21 20  1  0
 22 23  1  0
 23 24  2  0
 23 28  1  0
 24 25  1  0
 25 26  2  0
 27 26  1  0
 28 27  2  0
 29 21  1  0
 30 29  2  0
 31 29  1  0
M  END
$$$$
