MRF.pdb
     RDKit          3D

 31 31  0  0  1  0  0  0  0  0999 V2000
   29.9264  -40.1124  -20.9994 C   0  0  0  0  0  0  0  0  0  0  0  0
   30.3481  -38.6277  -20.0880 S   0  0  0  0  0  0  0  0  0  0  0  0
   29.8063  -38.6308  -18.3885 C   0  0  0  0  0  0  0  0  0  0  0  0
   30.0626  -37.3812  -17.6240 C   0  0  0  0  0  0  0  0  0  0  0  0
   31.4863  -37.1365  -17.2560 C   0  0  2  0  0  0  0  0  0  0  0  0
   31.9751  -38.0076  -16.2255 N   0  0  0  0  0  0  0  0  0  0  0  0
   31.7539  -35.7312  -16.8650 C   0  0  0  0  0  0  0  0  0  0  0  0
   31.8688  -35.4078  -15.6520 O   0  0  0  0  0  0  0  0  0  0  0  0
   36.1942  -28.5881  -19.2111 N   0  0  0  0  0  0  0  0  0  0  0  0
   36.4812  -29.9695  -19.1134 C   0  0  0  0  0  0  0  0  0  0  0  0
   37.6641  -30.4353  -19.0598 N   0  0  0  0  0  0  0  0  0  0  0  0
   35.3911  -30.8860  -19.0754 N   0  0  0  0  0  0  0  0  0  0  0  0
   34.0150  -30.4721  -19.2374 C   0  0  0  0  0  0  0  0  0  0  0  0
   33.1620  -31.1532  -18.2038 C   0  0  0  0  0  0  0  0  0  0  0  0
   32.9499  -32.6165  -18.4389 C   0  0  0  0  0  0  0  0  0  0  0  0
   32.0046  -33.2945  -17.5068 C   0  0  2  0  0  0  0  0  0  0  0  0
   31.8909  -34.7025  -17.8163 N   0  0  0  0  0  0  0  0  0  0  0  0
   30.7285  -32.5892  -17.5432 C   0  0  0  0  0  0  0  0  0  0  0  0
   29.9947  -32.6577  -18.5448 O   0  0  0  0  0  0  0  0  0  0  0  0
   37.8906  -31.4295  -18.9847 N   0  0  0  0  0  0  0  0  0  0  0  0
   30.3150  -31.8209  -16.4373 C   0  0  1  0  0  0  0  0  0  0  0  0
   29.0180  -31.1606  -16.4749 C   0  0  0  0  0  0  0  0  0  0  0  0
   28.3049  -31.5316  -15.2066 C   0  0  0  0  0  0  0  0  0  0  0  0
   27.7617  -32.8895  -15.1594 C   0  0  0  0  0  0  0  0  0  0  0  0
   26.4964  -33.1672  -15.6191 C   0  0  0  0  0  0  0  0  0  0  0  0
   26.0394  -34.4598  -15.5500 C   0  0  0  0  0  0  0  0  0  0  0  0
   26.7813  -35.5013  -15.0428 C   0  0  0  0  0  0  0  0  0  0  0  0
   28.0458  -35.1889  -14.5902 C   0  0  0  0  0  0  0  0  0  0  0  0
   28.5334  -33.9033  -14.6455 C   0  0  0  0  0  0  0  0  0  0  0  0
   29.1291  -29.7105  -16.6238 O   0  0  0  0  0  0  0  0  0  0  0  0
   28.1463  -28.9207  -16.7445 O   0  0  0  0  0  0  0  0  0  0  0  0
  1  2  1  0
  3  2  1  0
  4  3  1  0
  5  4  1  0
  5  6  1  1
  7  8  2  0
  7  5  1  0
 10 12  1  0
 10  9  1  0
 11 10  2  0
 13 12  1  0
 14 13  1  0
 14 15  1  0
 16 15  1  6
 16 17  1  0
 17  7  1  0
 18 20  1  0
 18 16  1  0
 19 18  2  0
 21 22  1  6
 21 20  1  0
 22 23  1  0
 23 24  2  0
 23 28  1  0
 24 25  1  0
 25 26  2  0
 27 26  1  0
 28 27  2  0
 29 21  1  0
 30 29  2  0
 31 29  1  0
M  END
$$$$
