MRF.pdb
     RDKit          3D

 31 31  0  0  1  0  0  0  0  0999 V2000
   23.5163  -28.8824  -19.5313 C   0  0  0  0  0  0  0  0  0  0  0  0
   23.3776  -27.3122  -18.6781 S   0  0  0  0  0  0  0  0  0  0  0  0
   24.3249  -27.2100  -17.1701 C   0  0  0  0  0  0  0  0  0  0  0  0
   24.2973  -25.8957  -16.4748 C   0  0  0  0  0  0  0  0  0  0  0  0
   25.2407  -24.8708  -17.0056 C   0  0  2  0  0  0  0  0  0  0  0  0
   26.6234  -25.1986  -16.8052 N   0  0  0  0  0  0  0  0  0  0  0  0
   24.9860  -23.5115  -16.4700 C   0  0  0  0  0  0  0  0  0  0  0  0
   25.5380  -23.1215  -15.4058 O   0  0  0  0  0  0  0  0  0  0  0  0
   21.5330  -18.2536  -21.0817 N   0  0  0  0  0  0  0  0  0  0  0  0
   22.8861  -18.6592  -21.0127 C   0  0  0  0  0  0  0  0  0  0  0  0
   23.5263  -19.1291  -22.0069 N   0  0  0  0  0  0  0  0  0  0  0  0
   23.5662  -18.5378  -19.7667 N   0  0  0  0  0  0  0  0  0  0  0  0
   22.9264  -18.0328  -18.5722 C   0  0  0  0  0  0  0  0  0  0  0  0
   23.2622  -18.9242  -17.4091 C   0  0  0  0  0  0  0  0  0  0  0  0
   23.5211  -20.3527  -17.7751 C   0  0  0  0  0  0  0  0  0  0  0  0
   23.8174  -21.2714  -16.6393 C   0  0  2  0  0  0  0  0  0  0  0  0
   24.1267  -22.6016  -17.1148 N   0  0  0  0  0  0  0  0  0  0  0  0
   22.6961  -21.2364  -15.7072 C   0  0  0  0  0  0  0  0  0  0  0  0
   21.6538  -21.8714  -15.9454 O   0  0  0  0  0  0  0  0  0  0  0  0
   24.4859  -19.4793  -21.9629 N   0  0  0  0  0  0  0  0  0  0  0  0
   22.7860  -20.4787  -14.5232 C   0  0  2  0  0  0  0  0  0  0  0  0
   21.6534  -20.4507  -13.6088 C   0  0  0  0  0  0  0  0  0  0  0  0
   22.2133  -20.2527  -12.2297 C   0  0  0  0  0  0  0  0  0  0  0  0
   21.2254  -20.1055  -11.1603 C   0  0  0  0  0  0  0  0  0  0  0  0
   20.5561  -21.1940  -10.6536 C   0  0  0  0  0  0  0  0  0  0  0  0
   19.6401  -20.9957   -9.6506 C   0  0  0  0  0  0  0  0  0  0  0  0
   19.3514  -19.7601   -9.1194 C   0  0  0  0  0  0  0  0  0  0  0  0
   20.0400  -18.6895   -9.6497 C   0  0  0  0  0  0  0  0  0  0  0  0
   20.9644  -18.8547  -10.6556 C   0  0  0  0  0  0  0  0  0  0  0  0
   20.6821  -19.4120  -13.9481 O   0  0  0  0  0  0  0  0  0  0  0  0
   19.4461  -19.4643  -13.6766 O   0  0  0  0  0  0  0  0  0  0  0  0
  1  2  1  0
  3  2  1  0
  4  3  1  0
  5  4  1  0
  5  6  1  1
  7  8  2  0
  7  5  1  0
 10 12  1  0
 10  9  1  0
 11 10  2  0
 13 12  1  0
 14 13  1  0
 14 15  1  0
 16 15  1  6
 16 17  1  0
 17  7  1  0
 18 20  1  0
 18 16  1  0
 19 18  2  0
 21 22  1  1
 21 20  1  0
 22 23  1  0
 23 24  2  0
 23 28  1  0
 24 25  1  0
 25 26  2  0
 27 26  1  0
 28 27  2  0
 29 21  1  0
 30 29  2  0
 31 29  1  0
M  END
$$$$
