MRF.pdb
     RDKit          3D

 31 31  0  0  1  0  0  0  0  0999 V2000
   19.5758  -25.8045  -18.6669 C   0  0  0  0  0  0  0  0  0  0  0  0
   20.6440  -27.2430  -18.7155 S   0  0  0  0  0  0  0  0  0  0  0  0
   21.5295  -27.5514  -17.1980 C   0  0  0  0  0  0  0  0  0  0  0  0
   22.1051  -26.3547  -16.5285 C   0  0  0  0  0  0  0  0  0  0  0  0
   23.4935  -26.5168  -16.0105 C   0  0  2  0  0  0  0  0  0  0  0  0
   23.6034  -27.4630  -14.9370 N   0  0  0  0  0  0  0  0  0  0  0  0
   24.1112  -25.2364  -15.5883 C   0  0  0  0  0  0  0  0  0  0  0  0
   24.1642  -24.9141  -14.3707 O   0  0  0  0  0  0  0  0  0  0  0  0
   28.6174  -26.1064  -16.7332 N   0  0  0  0  0  0  0  0  0  0  0  0
   29.8587  -25.5444  -16.3542 C   0  0  0  0  0  0  0  0  0  0  0  0
   30.8287  -26.2329  -15.9027 N   0  0  0  0  0  0  0  0  0  0  0  0
   30.0310  -24.1359  -16.4825 N   0  0  0  0  0  0  0  0  0  0  0  0
   29.0030  -23.2669  -17.0109 C   0  0  0  0  0  0  0  0  0  0  0  0
   27.7014  -23.5493  -16.3138 C   0  0  0  0  0  0  0  0  0  0  0  0
   26.5213  -22.8245  -16.8827 C   0  0  0  0  0  0  0  0  0  0  0  0
   25.2248  -23.0403  -16.1795 C   0  0  2  0  0  0  0  0  0  0  0  0
   24.6614  -24.3295  -16.5140 N   0  0  0  0  0  0  0  0  0  0  0  0
   24.3375  -21.9241  -16.4857 C   0  0  0  0  0  0  0  0  0  0  0  0
   23.4024  -22.0610  -17.2941 O   0  0  0  0  0  0  0  0  0  0  0  0
   31.7217  -25.8410  -15.5954 N   0  0  0  0  0  0  0  0  0  0  0  0
   24.5339  -20.6753  -15.8643 C   0  0  2  0  0  0  0  0  0  0  0  0
   23.6894  -19.5515  -16.2433 C   0  0  0  0  0  0  0  0  0  0  0  0
   22.2904  -19.8981  -15.8221 C   0  0  0  0  0  0  0  0  0  0  0  0
   22.0109  -19.7744  -14.3911 C   0  0  0  0  0  0  0  0  0  0  0  0
   22.9125  -20.2087  -13.4488 C   0  0  0  0  0  0  0  0  0  0  0  0
   22.5968  -20.0670  -12.1204 C   0  0  0  0  0  0  0  0  0  0  0  0
   21.4201  -19.5108  -11.6749 C   0  0  0  0  0  0  0  0  0  0  0  0
   20.5377  -19.0855  -12.6455 C   0  0  0  0  0  0  0  0  0  0  0  0
   20.8244  -19.2133  -13.9853 C   0  0  0  0  0  0  0  0  0  0  0  0
   24.1317  -18.2905  -15.6503 O   0  0  0  0  0  0  0  0  0  0  0  0
   23.5426  -17.1789  -15.7972 O   0  0  0  0  0  0  0  0  0  0  0  0
  1  2  1  0
  3  2  1  0
  4  3  1  0
  5  4  1  0
  5  6  1  1
  7  8  2  0
  7  5  1  0
 10 12  1  0
 10  9  1  0
 11 10  2  0
 13 12  1  0
 14 13  1  0
 14 15  1  0
 16 15  1  6
 16 17  1  0
 17  7  1  0
 18 20  1  0
 18 16  1  0
 19 18  2  0
 21 22  1  6
 21 20  1  0
 22 23  1  0
 23 24  2  0
 23 28  1  0
 24 25  1  0
 25 26  2  0
 27 26  1  0
 28 27  2  0
 29 21  1  0
 30 29  2  0
 31 29  1  0
M  END
$$$$
