FPK.pdb
     RDKit          3D

 28 29  0  0  1  0  0  0  0  0999 V2000
   27.5685  -22.3601  -13.9242 N   0  0  0  0  0  0  0  0  0  0  0  0
   27.3017  -21.6392  -12.7427 C   0  0  1  0  0  0  0  0  0  0  0  0
   28.2826  -20.4883  -12.5205 C   0  0  0  0  0  0  0  0  0  0  0  0
   28.3387  -20.1041  -11.0961 C   0  0  0  0  0  0  0  0  0  0  0  0
   27.6332  -19.0050  -10.6516 C   0  0  0  0  0  0  0  0  0  0  0  0
   27.7116  -18.6694   -9.3104 C   0  0  0  0  0  0  0  0  0  0  0  0
   28.4652  -19.3906   -8.4083 C   0  0  0  0  0  0  0  0  0  0  0  0
   29.1731  -20.4991   -8.8707 C   0  0  0  0  0  0  0  0  0  0  0  0
   29.0996  -20.8435  -10.2190 C   0  0  0  0  0  0  0  0  0  0  0  0
   25.9076  -21.1706  -12.5307 C   0  0  0  0  0  0  0  0  0  0  0  0
   25.4863  -20.4877  -13.5525 O   0  0  0  0  0  0  0  0  0  0  0  0
   25.1112  -21.3989  -11.4190 N   0  0  0  0  0  0  0  0  0  0  0  0
   25.5094  -22.2201  -10.2583 C   0  0  0  0  0  0  0  0  0  0  0  0
   25.0882  -21.3134   -9.1033 C   0  0  0  0  0  0  0  0  0  0  0  0
   24.2167  -20.2099   -9.7230 C   0  0  0  0  0  0  0  0  0  0  0  0
   23.8312  -20.9278  -11.0178 C   0  0  1  0  0  0  0  0  0  0  0  0
   22.9876  -20.1815  -11.9054 C   0  0  0  0  0  0  0  0  0  0  0  0
   22.3886  -19.1404  -11.5744 O   0  0  0  0  0  0  0  0  0  0  0  0
   22.7585  -20.5788  -13.2724 N   0  0  0  0  0  0  0  0  0  0  0  0
   21.9717  -19.8252  -14.1950 C   0  0  1  0  0  0  0  0  0  0  0  0
   22.5990  -19.8890  -15.5685 C   0  0  0  0  0  0  0  0  0  0  0  0
   21.8641  -19.0767  -16.5979 C   0  0  0  0  0  0  0  0  0  0  0  0
   22.4552  -19.1457  -17.9698 C   0  0  0  0  0  0  0  0  0  0  0  0
   21.8166  -18.1618  -18.9253 C   0  0  0  0  0  0  0  0  0  0  0  0
   22.3806  -18.3977  -20.2350 N   0  0  0  0  0  0  0  0  0  0  0  0
   20.5917  -20.3975  -14.3355 C   0  0  0  0  0  0  0  0  0  0  0  0
   20.2886  -21.7157  -14.0684 O   0  0  0  0  0  0  0  0  0  0  0  0
   19.6767  -19.6326  -14.7140 O   0  0  0  0  0  0  0  0  0  0  0  0
  2  1  1  6
  3  2  1  0
  3  4  1  0
  4  5  2  0
  4  9  1  0
  5  6  1  0
  6  7  2  0
  7  8  1  0
  9  8  2  0
 10 12  1  0
 10  2  1  0
 11 10  2  0
 12 16  1  0
 13 14  1  0
 13 12  1  0
 14 15  1  0
 15 16  1  0
 16 17  1  6
 17 18  2  0
 19 20  1  0
 19 17  1  0
 20 26  1  0
 20 21  1  6
 22 21  1  0
 23 22  1  0
 24 23  1  0
 25 24  1  0
 26 27  1  0
 28 26  2  0
M  END
$$$$
