FPK.pdb
     RDKit          3D

 28 29  0  0  1  0  0  0  0  0999 V2000
   24.8807  -16.6068  -16.8169 N   0  0  0  0  0  0  0  0  0  0  0  0
   23.9450  -17.6575  -16.9037 C   0  0  1  0  0  0  0  0  0  0  0  0
   23.4428  -17.8829  -18.3296 C   0  0  0  0  0  0  0  0  0  0  0  0
   23.0265  -16.6118  -18.9546 C   0  0  0  0  0  0  0  0  0  0  0  0
   21.7598  -16.1151  -18.7261 C   0  0  0  0  0  0  0  0  0  0  0  0
   21.3999  -14.9228  -19.3316 C   0  0  0  0  0  0  0  0  0  0  0  0
   22.2575  -14.2182  -20.1499 C   0  0  0  0  0  0  0  0  0  0  0  0
   23.5346  -14.7311  -20.3723 C   0  0  0  0  0  0  0  0  0  0  0  0
   23.9047  -15.9305  -19.7668 C   0  0  0  0  0  0  0  0  0  0  0  0
   24.3177  -18.9546  -16.2822 C   0  0  0  0  0  0  0  0  0  0  0  0
   25.4527  -19.3836  -16.7466 O   0  0  0  0  0  0  0  0  0  0  0  0
   23.5978  -19.6605  -15.3304 N   0  0  0  0  0  0  0  0  0  0  0  0
   22.9959  -19.0620  -14.1223 C   0  0  0  0  0  0  0  0  0  0  0  0
   21.6010  -19.6841  -14.1545 C   0  0  0  0  0  0  0  0  0  0  0  0
   21.6585  -20.8063  -15.2027 C   0  0  0  0  0  0  0  0  0  0  0  0
   23.1740  -21.0138  -15.2279 C   0  0  1  0  0  0  0  0  0  0  0  0
   23.6402  -22.0230  -16.1337 C   0  0  0  0  0  0  0  0  0  0  0  0
   23.6508  -21.8861  -17.3720 O   0  0  0  0  0  0  0  0  0  0  0  0
   24.1415  -23.2971  -15.6816 N   0  0  0  0  0  0  0  0  0  0  0  0
   24.6910  -24.2861  -16.5523 C   0  0  1  0  0  0  0  0  0  0  0  0
   25.7168  -25.1071  -15.8055 C   0  0  0  0  0  0  0  0  0  0  0  0
   26.4601  -26.0747  -16.6837 C   0  0  0  0  0  0  0  0  0  0  0  0
   27.4650  -26.9127  -15.9595 C   0  0  0  0  0  0  0  0  0  0  0  0
   28.2790  -27.7783  -16.8959 C   0  0  0  0  0  0  0  0  0  0  0  0
   29.3423  -28.3775  -16.1215 N   0  0  0  0  0  0  0  0  0  0  0  0
   23.6407  -25.2500  -17.0209 C   0  0  0  0  0  0  0  0  0  0  0  0
   23.6868  -25.8828  -18.2450 O   0  0  0  0  0  0  0  0  0  0  0  0
   22.6791  -25.4853  -16.2558 O   0  0  0  0  0  0  0  0  0  0  0  0
  2  1  1  6
  3  2  1  0
  3  4  1  0
  4  5  2  0
  4  9  1  0
  5  6  1  0
  6  7  2  0
  7  8  1  0
  9  8  2  0
 10 12  1  0
 10  2  1  0
 11 10  2  0
 12 16  1  0
 13 14  1  0
 13 12  1  0
 14 15  1  0
 15 16  1  0
 16 17  1  6
 17 18  2  0
 19 20  1  0
 19 17  1  0
 20 26  1  0
 20 21  1  1
 22 21  1  0
 23 22  1  0
 24 23  1  0
 25 24  1  0
 26 27  1  0
 28 26  2  0
M  END
$$$$
