FPK.pdb
     RDKit          3D

 28 29  0  0  1  0  0  0  0  0999 V2000
   26.9736  -21.0924  -11.0627 N   0  0  0  0  0  0  0  0  0  0  0  0
   25.5645  -21.1078  -11.0279 C   0  0  1  0  0  0  0  0  0  0  0  0
   24.9893  -20.1169  -10.0163 C   0  0  0  0  0  0  0  0  0  0  0  0
   25.7436  -20.1531   -8.7476 C   0  0  0  0  0  0  0  0  0  0  0  0
   25.6123  -21.2333   -7.8996 C   0  0  0  0  0  0  0  0  0  0  0  0
   26.3303  -21.2331   -6.7154 C   0  0  0  0  0  0  0  0  0  0  0  0
   27.1672  -20.1978   -6.3558 C   0  0  0  0  0  0  0  0  0  0  0  0
   27.2908  -19.1123   -7.2219 C   0  0  0  0  0  0  0  0  0  0  0  0
   26.5716  -19.1047   -8.4155 C   0  0  0  0  0  0  0  0  0  0  0  0
   24.8497  -20.9868  -12.3249 C   0  0  0  0  0  0  0  0  0  0  0  0
   23.7102  -20.3816  -12.1730 O   0  0  0  0  0  0  0  0  0  0  0  0
   25.2857  -21.4353  -13.5623 N   0  0  0  0  0  0  0  0  0  0  0  0
   26.6341  -21.1930  -14.1129 C   0  0  0  0  0  0  0  0  0  0  0  0
   26.9943  -22.5875  -14.6221 C   0  0  0  0  0  0  0  0  0  0  0  0
   25.6934  -23.4046  -14.5849 C   0  0  0  0  0  0  0  0  0  0  0  0
   24.6980  -22.2429  -14.5740 C   0  0  1  0  0  0  0  0  0  0  0  0
   23.3151  -22.6202  -14.5323 C   0  0  0  0  0  0  0  0  0  0  0  0
   22.8966  -23.6425  -13.9560 O   0  0  0  0  0  0  0  0  0  0  0  0
   22.2801  -21.8388  -15.1624 N   0  0  0  0  0  0  0  0  0  0  0  0
   20.8855  -22.1069  -15.0167 C   0  0  1  0  0  0  0  0  0  0  0  0
   20.4783  -21.9110  -13.5745 C   0  0  0  0  0  0  0  0  0  0  0  0
   19.0073  -22.1106  -13.3379 C   0  0  0  0  0  0  0  0  0  0  0  0
   18.6537  -22.4482  -11.9247 C   0  0  0  0  0  0  0  0  0  0  0  0
   17.6102  -23.5398  -11.8341 C   0  0  0  0  0  0  0  0  0  0  0  0
   17.4316  -23.8569  -10.4354 N   0  0  0  0  0  0  0  0  0  0  0  0
   20.0553  -21.1508  -15.8220 C   0  0  0  0  0  0  0  0  0  0  0  0
   18.7396  -21.3893  -16.1584 O   0  0  0  0  0  0  0  0  0  0  0  0
   20.5921  -20.0866  -16.2024 O   0  0  0  0  0  0  0  0  0  0  0  0
  2  1  1  6
  3  2  1  0
  3  4  1  0
  4  5  2  0
  4  9  1  0
  5  6  1  0
  6  7  2  0
  7  8  1  0
  9  8  2  0
 10 12  1  0
 10  2  1  0
 11 10  2  0
 12 16  1  0
 13 14  1  0
 13 12  1  0
 14 15  1  0
 15 16  1  0
 16 17  1  1
 17 18  2  0
 19 20  1  0
 19 17  1  0
 20 26  1  0
 20 21  1  1
 22 21  1  0
 23 22  1  0
 24 23  1  0
 25 24  1  0
 26 27  1  0
 28 26  2  0
M  END
$$$$
