FPK.pdb
     RDKit          3D

 28 29  0  0  1  0  0  0  0  0999 V2000
   27.8765  -19.9917  -15.5099 N   0  0  0  0  0  0  0  0  0  0  0  0
   26.8539  -19.6204  -14.6137 C   0  0  1  0  0  0  0  0  0  0  0  0
   26.0460  -18.4200  -15.1061 C   0  0  0  0  0  0  0  0  0  0  0  0
   26.9310  -17.2952  -15.4683 C   0  0  0  0  0  0  0  0  0  0  0  0
   27.6965  -17.3631  -16.6140 C   0  0  0  0  0  0  0  0  0  0  0  0
   28.5194  -16.2926  -16.9217 C   0  0  0  0  0  0  0  0  0  0  0  0
   28.6003  -15.1675  -16.1285 C   0  0  0  0  0  0  0  0  0  0  0  0
   27.8213  -15.1117  -14.9736 C   0  0  0  0  0  0  0  0  0  0  0  0
   26.9906  -16.1848  -14.6567 C   0  0  0  0  0  0  0  0  0  0  0  0
   25.9398  -20.6924  -14.1412 C   0  0  0  0  0  0  0  0  0  0  0  0
   25.3098  -21.2386  -15.1375 O   0  0  0  0  0  0  0  0  0  0  0  0
   25.7424  -21.1026  -12.8316 N   0  0  0  0  0  0  0  0  0  0  0  0
   26.8218  -21.5112  -11.9106 C   0  0  0  0  0  0  0  0  0  0  0  0
   26.4338  -20.7415  -10.6494 C   0  0  0  0  0  0  0  0  0  0  0  0
   25.0083  -20.2200  -10.8893 C   0  0  0  0  0  0  0  0  0  0  0  0
   24.5958  -21.1927  -11.9957 C   0  0  1  0  0  0  0  0  0  0  0  0
   23.2693  -21.0110  -12.5094 C   0  0  0  0  0  0  0  0  0  0  0  0
   22.8585  -19.9391  -12.9937 O   0  0  0  0  0  0  0  0  0  0  0  0
   22.2872  -22.0666  -12.5076 N   0  0  0  0  0  0  0  0  0  0  0  0
   20.9614  -21.9158  -13.0153 C   0  0  1  0  0  0  0  0  0  0  0  0
   20.4552  -23.2480  -13.5184 C   0  0  0  0  0  0  0  0  0  0  0  0
   19.0957  -23.1675  -14.1547 C   0  0  0  0  0  0  0  0  0  0  0  0
   18.5909  -24.4697  -14.6895 C   0  0  0  0  0  0  0  0  0  0  0  0
   17.2797  -24.3221  -15.4295 C   0  0  0  0  0  0  0  0  0  0  0  0
   16.7957  -25.6509  -15.7278 N   0  0  0  0  0  0  0  0  0  0  0  0
   20.0079  -21.4818  -11.9409 C   0  0  0  0  0  0  0  0  0  0  0  0
   18.9403  -20.6405  -12.1717 O   0  0  0  0  0  0  0  0  0  0  0  0
   20.1990  -21.9101  -10.7809 O   0  0  0  0  0  0  0  0  0  0  0  0
  2  1  1  6
  3  2  1  0
  3  4  1  0
  4  5  2  0
  4  9  1  0
  5  6  1  0
  6  7  2  0
  7  8  1  0
  9  8  2  0
 10 12  1  0
 10  2  1  0
 11 10  2  0
 12 16  1  0
 13 14  1  0
 13 12  1  0
 14 15  1  0
 15 16  1  0
 16 17  1  6
 17 18  2  0
 19 20  1  0
 19 17  1  0
 20 26  1  0
 20 21  1  1
 22 21  1  0
 23 22  1  0
 24 23  1  0
 25 24  1  0
 26 27  1  0
 28 26  2  0
M  END
$$$$
