FPK.pdb
     RDKit          3D

 28 29  0  0  1  0  0  0  0  0999 V2000
   22.8032  -27.7642  -14.4017 N   0  0  0  0  0  0  0  0  0  0  0  0
   23.1072  -26.9828  -15.5348 C   0  0  1  0  0  0  0  0  0  0  0  0
   22.4075  -27.4809  -16.7990 C   0  0  0  0  0  0  0  0  0  0  0  0
   22.7028  -28.9064  -17.0445 C   0  0  0  0  0  0  0  0  0  0  0  0
   23.8978  -29.2707  -17.6297 C   0  0  0  0  0  0  0  0  0  0  0  0
   24.1410  -30.6161  -17.8502 C   0  0  0  0  0  0  0  0  0  0  0  0
   23.2366  -31.5990  -17.5074 C   0  0  0  0  0  0  0  0  0  0  0  0
   22.0329  -31.2172  -16.9166 C   0  0  0  0  0  0  0  0  0  0  0  0
   21.7804  -29.8654  -16.6913 C   0  0  0  0  0  0  0  0  0  0  0  0
   22.9490  -25.5107  -15.4094 C   0  0  0  0  0  0  0  0  0  0  0  0
   21.7132  -25.1954  -15.1619 O   0  0  0  0  0  0  0  0  0  0  0  0
   23.9437  -24.5521  -15.5274 N   0  0  0  0  0  0  0  0  0  0  0  0
   25.3251  -24.7138  -15.0318 C   0  0  0  0  0  0  0  0  0  0  0  0
   26.1250  -24.2184  -16.2353 C   0  0  0  0  0  0  0  0  0  0  0  0
   25.1121  -23.5399  -17.1708 C   0  0  0  0  0  0  0  0  0  0  0  0
   24.0044  -23.2751  -16.1494 C   0  0  1  0  0  0  0  0  0  0  0  0
   22.8333  -22.6299  -16.6678 C   0  0  0  0  0  0  0  0  0  0  0  0
   21.9683  -23.2143  -17.3478 O   0  0  0  0  0  0  0  0  0  0  0  0
   22.5555  -21.2330  -16.4432 N   0  0  0  0  0  0  0  0  0  0  0  0
   21.4455  -20.5437  -17.0184 C   0  0  1  0  0  0  0  0  0  0  0  0
   21.3883  -19.1331  -16.4790 C   0  0  0  0  0  0  0  0  0  0  0  0
   20.2964  -18.3032  -17.0945 C   0  0  0  0  0  0  0  0  0  0  0  0
   20.2868  -16.8754  -16.6501 C   0  0  0  0  0  0  0  0  0  0  0  0
   19.2670  -16.0438  -17.3965 C   0  0  0  0  0  0  0  0  0  0  0  0
   19.4656  -14.6642  -17.0140 N   0  0  0  0  0  0  0  0  0  0  0  0
   21.5877  -20.4195  -18.5071 C   0  0  0  0  0  0  0  0  0  0  0  0
   22.8066  -20.3436  -19.1469 O   0  0  0  0  0  0  0  0  0  0  0  0
   20.5424  -20.3844  -19.1939 O   0  0  0  0  0  0  0  0  0  0  0  0
  2  1  1  1
  3  2  1  0
  3  4  1  0
  4  5  2  0
  4  9  1  0
  5  6  1  0
  6  7  2  0
  7  8  1  0
  9  8  2  0
 10 12  1  0
 10  2  1  0
 11 10  2  0
 12 16  1  0
 13 14  1  0
 13 12  1  0
 14 15  1  0
 15 16  1  0
 16 17  1  6
 17 18  2  0
 19 20  1  0
 19 17  1  0
 20 26  1  0
 20 21  1  1
 22 21  1  0
 23 22  1  0
 24 23  1  0
 25 24  1  0
 26 27  1  0
 28 26  2  0
M  END
$$$$
