LQT.pdb
     RDKit          3D

 25 24  0  0  1  0  0  0  0  0999 V2000
    9.1253  -12.8092   19.3459 C   0  0  0  0  0  0  0  0  0  0  0  0
    7.8205  -13.5931   19.2811 C   0  0  2  0  0  0  0  0  0  0  0  0
    6.8227  -12.7392   18.5638 C   0  0  0  0  0  0  0  0  0  0  0  0
    7.4157  -13.9073   20.6868 C   0  0  0  0  0  0  0  0  0  0  0  0
    8.5054  -14.6723   21.3650 C   0  0  2  0  0  0  0  0  0  0  0  0
    8.8808  -15.8429   20.6139 N   0  0  0  0  0  0  0  0  0  0  0  0
    8.0934  -15.0430   22.7503 C   0  0  0  0  0  0  0  0  0  0  0  0
    7.5882  -14.1948   23.5340 O   0  0  0  0  0  0  0  0  0  0  0  0
    7.5476  -21.0117   26.8308 N   0  0  0  0  0  0  0  0  0  0  0  0
    6.8562  -20.0841   26.0135 C   0  0  0  0  0  0  0  0  0  0  0  0
    5.8855  -20.4795   25.3033 O   0  0  0  0  0  0  0  0  0  0  0  0
    7.2712  -18.6681   25.9959 C   0  0  0  0  0  0  0  0  0  0  0  0
    7.6043  -18.2167   24.5883 C   0  0  0  0  0  0  0  0  0  0  0  0
    7.9468  -16.7439   24.5962 C   0  0  2  0  0  0  0  0  0  0  0  0
    8.2614  -16.3543   23.2133 N   0  0  0  0  0  0  0  0  0  0  0  0
    9.1358  -16.5075   25.4670 C   0  0  0  0  0  0  0  0  0  0  0  0
   10.2594  -16.9069   25.0898 O   0  0  0  0  0  0  0  0  0  0  0  0
   10.3467  -13.2509   27.2293 C   0  0  0  0  0  0  0  0  0  0  0  0
   10.0622  -14.3005   28.2823 C   0  0  1  0  0  0  0  0  0  0  0  0
    8.7595  -14.1658   28.8046 O   0  0  0  0  0  0  0  0  0  0  0  0
   10.1685  -15.6642   27.6017 C   0  0  2  0  0  0  0  0  0  0  0  0
    9.0389  -15.8427   26.7142 N   0  0  0  0  0  0  0  0  0  0  0  0
   10.1678  -16.7071   28.6590 C   0  0  0  0  0  0  0  0  0  0  0  0
    9.2278  -17.5382   28.7363 O   0  0  0  0  0  0  0  0  0  0  0  0
   11.1837  -16.8172   29.5981 O   0  0  0  0  0  0  0  0  0  0  0  0
  2  1  1  1
  2  3  1  0
  4  5  1  0
  4  2  1  0
  5  6  1  6
  7  8  2  0
  7  5  1  0
  9 10  1  0
 10 11  2  0
 12 10  1  0
 12 13  1  0
 14 13  1  6
 14 15  1  0
 15  7  1  0
 16 17  2  0
 16 14  1  0
 19 18  1  6
 20 19  1  0
 21 19  1  0
 21 22  1  6
 22 16  1  0
 23 21  1  0
 24 23  2  0
 25 23  1  0
M  END
$$$$
