LQT.pdb
     RDKit          3D

 25 24  0  0  1  0  0  0  0  0999 V2000
    8.9247  -12.2816   18.8237 C   0  0  0  0  0  0  0  0  0  0  0  0
    8.0066  -13.4513   18.4924 C   0  0  2  0  0  0  0  0  0  0  0  0
    6.7983  -12.8904   17.8106 C   0  0  0  0  0  0  0  0  0  0  0  0
    7.6815  -14.1444   19.7780 C   0  0  0  0  0  0  0  0  0  0  0  0
    8.9197  -14.2803   20.6032 C   0  0  2  0  0  0  0  0  0  0  0  0
    9.9095  -15.0962   19.9474 N   0  0  0  0  0  0  0  0  0  0  0  0
    8.5875  -14.8320   21.9490 C   0  0  0  0  0  0  0  0  0  0  0  0
    7.5230  -14.5138   22.5444 O   0  0  0  0  0  0  0  0  0  0  0  0
   11.1336  -20.1644   24.7032 N   0  0  0  0  0  0  0  0  0  0  0  0
   11.2086  -19.4426   23.4867 C   0  0  0  0  0  0  0  0  0  0  0  0
   12.1335  -19.7026   22.6621 O   0  0  0  0  0  0  0  0  0  0  0  0
   10.2112  -18.3961   23.1904 C   0  0  0  0  0  0  0  0  0  0  0  0
   10.2572  -17.2923   24.2273 C   0  0  0  0  0  0  0  0  0  0  0  0
    9.1873  -16.2676   23.9243 C   0  0  2  0  0  0  0  0  0  0  0  0
    9.4604  -15.7238   22.5853 N   0  0  0  0  0  0  0  0  0  0  0  0
    9.2417  -15.1686   24.9328 C   0  0  0  0  0  0  0  0  0  0  0  0
   10.2060  -14.3721   24.9183 O   0  0  0  0  0  0  0  0  0  0  0  0
    6.9300  -12.2987   25.5554 C   0  0  0  0  0  0  0  0  0  0  0  0
    6.9038  -13.1660   26.7957 C   0  0  1  0  0  0  0  0  0  0  0  0
    5.8741  -14.1270   26.7302 O   0  0  0  0  0  0  0  0  0  0  0  0
    8.2423  -13.8994   26.8629 C   0  0  2  0  0  0  0  0  0  0  0  0
    8.2346  -14.9921   25.9134 N   0  0  0  0  0  0  0  0  0  0  0  0
    8.4158  -14.4142   28.2452 C   0  0  0  0  0  0  0  0  0  0  0  0
    8.4946  -13.6211   29.2173 O   0  0  0  0  0  0  0  0  0  0  0  0
    8.4982  -15.7697   28.5309 O   0  0  0  0  0  0  0  0  0  0  0  0
  2  1  1  1
  2  3  1  0
  4  5  1  0
  4  2  1  0
  5  6  1  6
  7  8  2  0
  7  5  1  0
  9 10  1  0
 10 11  2  0
 12 10  1  0
 12 13  1  0
 14 13  1  1
 14 15  1  0
 15  7  1  0
 16 17  2  0
 16 14  1  0
 19 18  1  6
 20 19  1  0
 21 19  1  0
 21 22  1  6
 22 16  1  0
 23 21  1  0
 24 23  2  0
 25 23  1  0
M  END
$$$$
