LQT.pdb
     RDKit          3D

 25 24  0  0  1  0  0  0  0  0999 V2000
    9.5295  -13.3593   19.2100 C   0  0  0  0  0  0  0  0  0  0  0  0
    8.0556  -13.5007   19.5689 C   0  0  2  0  0  0  0  0  0  0  0  0
    7.4724  -12.1232   19.6088 C   0  0  0  0  0  0  0  0  0  0  0  0
    7.9806  -14.2042   20.8874 C   0  0  0  0  0  0  0  0  0  0  0  0
    8.5356  -15.5849   20.7531 C   0  0  2  0  0  0  0  0  0  0  0  0
    7.7092  -16.4110   19.9104 N   0  0  0  0  0  0  0  0  0  0  0  0
    8.7074  -16.2074   22.0981 C   0  0  0  0  0  0  0  0  0  0  0  0
    7.7159  -16.4761   22.8285 O   0  0  0  0  0  0  0  0  0  0  0  0
   13.7769  -19.5258   24.2289 N   0  0  0  0  0  0  0  0  0  0  0  0
   12.6755  -19.6667   25.1083 C   0  0  0  0  0  0  0  0  0  0  0  0
   12.5606  -20.7197   25.8019 O   0  0  0  0  0  0  0  0  0  0  0  0
   11.6731  -18.5885   25.2093 C   0  0  0  0  0  0  0  0  0  0  0  0
   11.4462  -17.9294   23.8640 C   0  0  0  0  0  0  0  0  0  0  0  0
   10.2060  -17.0665   23.9252 C   0  0  2  0  0  0  0  0  0  0  0  0
    9.9869  -16.5088   22.5820 N   0  0  0  0  0  0  0  0  0  0  0  0
   10.4117  -15.9567   24.9019 C   0  0  0  0  0  0  0  0  0  0  0  0
   11.1074  -14.9714   24.5706 O   0  0  0  0  0  0  0  0  0  0  0  0
    8.7042  -13.0221   28.1706 C   0  0  0  0  0  0  0  0  0  0  0  0
    8.5472  -14.2319   27.2744 C   0  0  1  0  0  0  0  0  0  0  0  0
    8.0755  -13.8680   25.9965 O   0  0  0  0  0  0  0  0  0  0  0  0
    9.9311  -14.8594   27.1154 C   0  0  2  0  0  0  0  0  0  0  0  0
    9.8444  -15.9773   26.1998 N   0  0  0  0  0  0  0  0  0  0  0  0
   10.3846  -15.3179   28.4531 C   0  0  0  0  0  0  0  0  0  0  0  0
   10.4237  -16.5437   28.7292 O   0  0  0  0  0  0  0  0  0  0  0  0
   10.7810  -14.4359   29.4486 O   0  0  0  0  0  0  0  0  0  0  0  0
  2  1  1  1
  2  3  1  0
  4  5  1  0
  4  2  1  0
  5  6  1  6
  7  8  2  0
  7  5  1  0
  9 10  1  0
 10 11  2  0
 12 10  1  0
 12 13  1  0
 14 13  1  6
 14 15  1  0
 15  7  1  0
 16 17  2  0
 16 14  1  0
 19 18  1  1
 20 19  1  0
 21 19  1  0
 21 22  1  6
 22 16  1  0
 23 21  1  0
 24 23  2  0
 25 23  1  0
M  END
$$$$
