LQT.pdb
     RDKit          3D

 25 24  0  0  1  0  0  0  0  0999 V2000
    5.8076  -12.8600   26.1140 C   0  0  0  0  0  0  0  0  0  0  0  0
    6.7556  -12.8712   27.3066 C   0  0  2  0  0  0  0  0  0  0  0  0
    6.8878  -11.4592   27.7842 C   0  0  0  0  0  0  0  0  0  0  0  0
    8.0533  -13.4538   26.8426 C   0  0  0  0  0  0  0  0  0  0  0  0
    7.8405  -14.8636   26.3957 C   0  0  2  0  0  0  0  0  0  0  0  0
    8.2460  -15.8087   27.4046 N   0  0  0  0  0  0  0  0  0  0  0  0
    8.5629  -15.1157   25.1148 C   0  0  0  0  0  0  0  0  0  0  0  0
    9.6801  -14.5832   24.8754 O   0  0  0  0  0  0  0  0  0  0  0  0
    9.1748  -20.4409   22.3804 N   0  0  0  0  0  0  0  0  0  0  0  0
    9.7417  -19.5886   21.4013 C   0  0  0  0  0  0  0  0  0  0  0  0
   10.3977  -20.0896   20.4412 O   0  0  0  0  0  0  0  0  0  0  0  0
    9.5642  -18.1275   21.5072 C   0  0  0  0  0  0  0  0  0  0  0  0
    8.7775  -17.7642   22.7502 C   0  0  0  0  0  0  0  0  0  0  0  0
    8.7014  -16.2596   22.8800 C   0  0  2  0  0  0  0  0  0  0  0  0
    8.0090  -15.9576   24.1418 N   0  0  0  0  0  0  0  0  0  0  0  0
    7.9285  -15.6934   21.7355 C   0  0  0  0  0  0  0  0  0  0  0  0
    6.6788  -15.7425   21.7574 O   0  0  0  0  0  0  0  0  0  0  0  0
    8.3161  -12.3161   19.8259 C   0  0  0  0  0  0  0  0  0  0  0  0
    8.5137  -13.4474   18.8397 C   0  0  1  0  0  0  0  0  0  0  0  0
    9.8815  -13.7330   18.6514 O   0  0  0  0  0  0  0  0  0  0  0  0
    7.8411  -14.6852   19.4310 C   0  0  2  0  0  0  0  0  0  0  0  0
    8.5616  -15.0979   20.6168 N   0  0  0  0  0  0  0  0  0  0  0  0
    7.8711  -15.7589   18.4054 C   0  0  0  0  0  0  0  0  0  0  0  0
    8.5938  -16.7751   18.5649 O   0  0  0  0  0  0  0  0  0  0  0  0
    7.1185  -15.6987   17.2409 O   0  0  0  0  0  0  0  0  0  0  0  0
  2  1  1  6
  2  3  1  0
  4  5  1  0
  4  2  1  0
  5  6  1  1
  7  8  2  0
  7  5  1  0
  9 10  1  0
 10 11  2  0
 12 10  1  0
 12 13  1  0
 14 13  1  6
 14 15  1  0
 15  7  1  0
 16 17  2  0
 16 14  1  0
 19 18  1  1
 20 19  1  0
 21 19  1  0
 21 22  1  1
 22 16  1  0
 23 21  1  0
 24 23  2  0
 25 23  1  0
M  END
$$$$
