LQT.pdb
     RDKit          3D

 25 24  0  0  1  0  0  0  0  0999 V2000
    7.1721  -13.1552   19.2416 C   0  0  0  0  0  0  0  0  0  0  0  0
    8.1614  -13.6548   18.1962 C   0  0  2  0  0  0  0  0  0  0  0  0
    7.7202  -13.1161   16.8716 C   0  0  0  0  0  0  0  0  0  0  0  0
    8.1533  -15.1501   18.2496 C   0  0  0  0  0  0  0  0  0  0  0  0
    7.9112  -15.6020   19.6531 C   0  0  2  0  0  0  0  0  0  0  0  0
    7.3775  -14.5414   20.4691 N   0  0  0  0  0  0  0  0  0  0  0  0
    9.1679  -16.1441   20.2470 C   0  0  0  0  0  0  0  0  0  0  0  0
    9.5061  -17.3472   20.0822 O   0  0  0  0  0  0  0  0  0  0  0  0
   14.4647  -13.4838   20.2324 N   0  0  0  0  0  0  0  0  0  0  0  0
   13.9494  -14.4892   19.3779 C   0  0  0  0  0  0  0  0  0  0  0  0
   14.4734  -14.6706   18.2397 O   0  0  0  0  0  0  0  0  0  0  0  0
   12.8091  -15.3153   19.8194 C   0  0  0  0  0  0  0  0  0  0  0  0
   12.3726  -14.9354   21.2197 C   0  0  0  0  0  0  0  0  0  0  0  0
   11.2282  -15.8241   21.6523 C   0  0  2  0  0  0  0  0  0  0  0  0
   10.0064  -15.3193   21.0078 N   0  0  0  0  0  0  0  0  0  0  0  0
   11.0751  -15.7626   23.1358 C   0  0  0  0  0  0  0  0  0  0  0  0
   11.9301  -15.1518   23.8142 O   0  0  0  0  0  0  0  0  0  0  0  0
    8.5337  -14.2051   25.1731 C   0  0  0  0  0  0  0  0  0  0  0  0
    8.4450  -15.6704   25.5424 C   0  0  1  0  0  0  0  0  0  0  0  0
    7.4715  -16.3377   24.7709 O   0  0  0  0  0  0  0  0  0  0  0  0
    9.8066  -16.2954   25.2434 C   0  0  2  0  0  0  0  0  0  0  0  0
    9.9895  -16.3746   23.8095 N   0  0  0  0  0  0  0  0  0  0  0  0
    9.8319  -17.6527   25.8456 C   0  0  0  0  0  0  0  0  0  0  0  0
    9.8777  -18.6751   25.1156 O   0  0  0  0  0  0  0  0  0  0  0  0
    9.8068  -17.8599   27.2177 O   0  0  0  0  0  0  0  0  0  0  0  0
  2  1  1  1
  2  3  1  0
  4  5  1  0
  4  2  1  0
  5  6  1  1
  7  8  2  0
  7  5  1  0
  9 10  1  0
 10 11  2  0
 12 10  1  0
 12 13  1  0
 14 13  1  1
 14 15  1  0
 15  7  1  0
 16 17  2  0
 16 14  1  0
 19 18  1  6
 20 19  1  0
 21 19  1  0
 21 22  1  6
 22 16  1  0
 23 21  1  0
 24 23  2  0
 25 23  1  0
M  END
$$$$
