LQT.pdb
     RDKit          3D

 25 24  0  0  1  0  0  0  0  0999 V2000
    8.6292  -13.7321   18.8654 C   0  0  0  0  0  0  0  0  0  0  0  0
    7.5266  -13.6247   19.9112 C   0  0  2  0  0  0  0  0  0  0  0  0
    7.1447  -12.1811   20.0096 C   0  0  0  0  0  0  0  0  0  0  0  0
    8.0695  -14.1730   21.1932 C   0  0  0  0  0  0  0  0  0  0  0  0
    8.3253  -15.6377   21.0455 C   0  0  2  0  0  0  0  0  0  0  0  0
    7.1214  -16.3577   20.7175 N   0  0  0  0  0  0  0  0  0  0  0  0
    8.9453  -16.1833   22.2881 C   0  0  0  0  0  0  0  0  0  0  0  0
    8.2408  -16.6575   23.2196 O   0  0  0  0  0  0  0  0  0  0  0  0
   15.5253  -16.6602   25.0253 N   0  0  0  0  0  0  0  0  0  0  0  0
   14.6078  -17.5156   24.3675 C   0  0  0  0  0  0  0  0  0  0  0  0
   15.0394  -18.4033   23.5746 O   0  0  0  0  0  0  0  0  0  0  0  0
   13.1599  -17.3662   24.6104 C   0  0  0  0  0  0  0  0  0  0  0  0
   12.4651  -16.7681   23.4039 C   0  0  0  0  0  0  0  0  0  0  0  0
   10.9859  -16.6323   23.6867 C   0  0  2  0  0  0  0  0  0  0  0  0
   10.3371  -16.1796   22.4470 N   0  0  0  0  0  0  0  0  0  0  0  0
   10.7693  -15.6224   24.7642 C   0  0  0  0  0  0  0  0  0  0  0  0
   10.7343  -14.4081   24.4664 O   0  0  0  0  0  0  0  0  0  0  0  0
    8.8340  -13.5538   28.3282 C   0  0  0  0  0  0  0  0  0  0  0  0
    8.9617  -14.5822   27.2248 C   0  0  1  0  0  0  0  0  0  0  0  0
    8.6283  -14.0341   25.9692 O   0  0  0  0  0  0  0  0  0  0  0  0
   10.4241  -15.0224   27.1841 C   0  0  2  0  0  0  0  0  0  0  0  0
   10.6006  -15.9900   26.1219 N   0  0  0  0  0  0  0  0  0  0  0  0
   10.7590  -15.6275   28.4984 C   0  0  0  0  0  0  0  0  0  0  0  0
   10.8194  -16.8762   28.6303 O   0  0  0  0  0  0  0  0  0  0  0  0
   11.0176  -14.8624   29.6270 O   0  0  0  0  0  0  0  0  0  0  0  0
  2  1  1  6
  2  3  1  0
  4  5  1  0
  4  2  1  0
  5  6  1  1
  7  8  2  0
  7  5  1  0
  9 10  1  0
 10 11  2  0
 12 10  1  0
 12 13  1  0
 14 13  1  6
 14 15  1  0
 15  7  1  0
 16 17  2  0
 16 14  1  0
 19 18  1  1
 20 19  1  0
 21 19  1  0
 21 22  1  6
 22 16  1  0
 23 21  1  0
 24 23  2  0
 25 23  1  0
M  END
$$$$
