LQT.pdb
     RDKit          3D

 25 24  0  0  1  0  0  0  0  0999 V2000
    9.3836  -13.2514   19.3213 C   0  0  0  0  0  0  0  0  0  0  0  0
    7.9289  -13.4428   19.7315 C   0  0  2  0  0  0  0  0  0  0  0  0
    7.3029  -12.0853   19.8006 C   0  0  0  0  0  0  0  0  0  0  0  0
    7.9240  -14.1549   21.0475 C   0  0  0  0  0  0  0  0  0  0  0  0
    8.5176  -15.5164   20.8848 C   0  0  2  0  0  0  0  0  0  0  0  0
    7.6926  -16.3616   20.0598 N   0  0  0  0  0  0  0  0  0  0  0  0
    8.7487  -16.1436   22.2187 C   0  0  0  0  0  0  0  0  0  0  0  0
    7.7895  -16.5529   22.9267 O   0  0  0  0  0  0  0  0  0  0  0  0
   13.7563  -19.3814   23.8590 N   0  0  0  0  0  0  0  0  0  0  0  0
   13.1139  -19.2250   25.1117 C   0  0  0  0  0  0  0  0  0  0  0  0
   13.5632  -19.8369   26.1250 O   0  0  0  0  0  0  0  0  0  0  0  0
   11.9293  -18.3524   25.2262 C   0  0  0  0  0  0  0  0  0  0  0  0
   11.5911  -17.7173   23.8928 C   0  0  0  0  0  0  0  0  0  0  0  0
   10.3227  -16.9049   24.0257 C   0  0  2  0  0  0  0  0  0  0  0  0
   10.0495  -16.2917   22.7171 N   0  0  0  0  0  0  0  0  0  0  0  0
   10.5134  -15.8364   25.0504 C   0  0  0  0  0  0  0  0  0  0  0  0
   11.2482  -14.8594   24.7860 O   0  0  0  0  0  0  0  0  0  0  0  0
    8.4465  -13.3087   26.4045 C   0  0  0  0  0  0  0  0  0  0  0  0
    8.7523  -14.1742   27.6081 C   0  0  1  0  0  0  0  0  0  0  0  0
    7.7631  -15.1610   27.7972 O   0  0  0  0  0  0  0  0  0  0  0  0
   10.0830  -14.8736   27.3357 C   0  0  2  0  0  0  0  0  0  0  0  0
    9.8889  -15.8876   26.3209 N   0  0  0  0  0  0  0  0  0  0  0  0
   10.5462  -15.4910   28.6045 C   0  0  0  0  0  0  0  0  0  0  0  0
   10.6310  -16.7405   28.7137 O   0  0  0  0  0  0  0  0  0  0  0  0
   10.9026  -14.7369   29.7138 O   0  0  0  0  0  0  0  0  0  0  0  0
  2  1  1  1
  2  3  1  0
  4  5  1  0
  4  2  1  0
  5  6  1  6
  7  8  2  0
  7  5  1  0
  9 10  1  0
 10 11  2  0
 12 10  1  0
 12 13  1  0
 14 13  1  6
 14 15  1  0
 15  7  1  0
 16 17  2  0
 16 14  1  0
 19 18  1  6
 20 19  1  0
 21 19  1  0
 21 22  1  6
 22 16  1  0
 23 21  1  0
 24 23  2  0
 25 23  1  0
M  END
$$$$
