LQT.pdb
     RDKit          3D

 25 24  0  0  1  0  0  0  0  0999 V2000
    6.7351  -21.8043   20.6189 C   0  0  0  0  0  0  0  0  0  0  0  0
    5.2446  -21.6788   20.3293 C   0  0  2  0  0  0  0  0  0  0  0  0
    5.1044  -21.1264   18.9456 C   0  0  0  0  0  0  0  0  0  0  0  0
    4.6580  -20.7852   21.3762 C   0  0  0  0  0  0  0  0  0  0  0  0
    4.9921  -21.3136   22.7333 C   0  0  2  0  0  0  0  0  0  0  0  0
    3.9391  -22.1477   23.2537 N   0  0  0  0  0  0  0  0  0  0  0  0
    5.2869  -20.1894   23.6689 C   0  0  0  0  0  0  0  0  0  0  0  0
    4.3890  -19.3799   24.0259 O   0  0  0  0  0  0  0  0  0  0  0  0
    8.7773  -20.1443   28.6240 N   0  0  0  0  0  0  0  0  0  0  0  0
    8.5323  -18.7589   28.4599 C   0  0  0  0  0  0  0  0  0  0  0  0
    8.8194  -17.9583   29.3979 O   0  0  0  0  0  0  0  0  0  0  0  0
    7.9461  -18.2603   27.2008 C   0  0  0  0  0  0  0  0  0  0  0  0
    7.5535  -19.4076   26.2922 C   0  0  0  0  0  0  0  0  0  0  0  0
    6.9368  -18.8616   25.0242 C   0  0  2  0  0  0  0  0  0  0  0  0
    6.5805  -20.0081   24.1748 N   0  0  0  0  0  0  0  0  0  0  0  0
    7.9259  -17.9988   24.3135 C   0  0  0  0  0  0  0  0  0  0  0  0
    9.0177  -18.4902   23.9516 O   0  0  0  0  0  0  0  0  0  0  0  0
    6.9457  -14.8564   21.8738 C   0  0  0  0  0  0  0  0  0  0  0  0
    7.9471  -14.4819   22.9455 C   0  0  1  0  0  0  0  0  0  0  0  0
    7.3112  -13.9129   24.0679 O   0  0  0  0  0  0  0  0  0  0  0  0
    8.6397  -15.7701   23.3871 C   0  0  2  0  0  0  0  0  0  0  0  0
    7.6728  -16.6338   24.0311 N   0  0  0  0  0  0  0  0  0  0  0  0
    9.7241  -15.4075   24.3348 C   0  0  0  0  0  0  0  0  0  0  0  0
    9.6697  -15.7698   25.5373 O   0  0  0  0  0  0  0  0  0  0  0  0
   10.8320  -14.6650   23.9510 O   0  0  0  0  0  0  0  0  0  0  0  0
  2  1  1  1
  2  3  1  0
  4  5  1  0
  4  2  1  0
  5  6  1  1
  7  8  2  0
  7  5  1  0
  9 10  1  0
 10 11  2  0
 12 10  1  0
 12 13  1  0
 14 13  1  1
 14 15  1  0
 15  7  1  0
 16 17  2  0
 16 14  1  0
 19 18  1  6
 20 19  1  0
 21 19  1  0
 21 22  1  1
 22 16  1  0
 23 21  1  0
 24 23  2  0
 25 23  1  0
M  END
$$$$
