LQT.pdb
     RDKit          3D

 25 24  0  0  1  0  0  0  0  0999 V2000
    6.4096  -11.9622   24.3445 C   0  0  0  0  0  0  0  0  0  0  0  0
    6.0370  -12.5364   25.7057 C   0  0  2  0  0  0  0  0  0  0  0  0
    6.1399  -11.4244   26.7018 C   0  0  0  0  0  0  0  0  0  0  0  0
    6.9793  -13.6633   25.9902 C   0  0  0  0  0  0  0  0  0  0  0  0
    6.6469  -14.8295   25.1173 C   0  0  2  0  0  0  0  0  0  0  0  0
    5.3576  -15.3854   25.4401 N   0  0  0  0  0  0  0  0  0  0  0  0
    7.7110  -15.8706   25.2162 C   0  0  0  0  0  0  0  0  0  0  0  0
    7.7237  -16.7089   26.1576 O   0  0  0  0  0  0  0  0  0  0  0  0
   13.4683  -17.2114   21.4405 N   0  0  0  0  0  0  0  0  0  0  0  0
   12.3433  -18.0131   21.7535 C   0  0  0  0  0  0  0  0  0  0  0  0
   11.8966  -18.8264   20.8921 O   0  0  0  0  0  0  0  0  0  0  0  0
   11.7022  -17.8951   23.0774 C   0  0  0  0  0  0  0  0  0  0  0  0
   10.6111  -16.8438   23.0612 C   0  0  0  0  0  0  0  0  0  0  0  0
    9.8504  -16.8829   24.3674 C   0  0  2  0  0  0  0  0  0  0  0  0
    8.7282  -15.9388   24.2556 N   0  0  0  0  0  0  0  0  0  0  0  0
   10.7471  -16.4664   25.4856 C   0  0  0  0  0  0  0  0  0  0  0  0
   11.5293  -15.5051   25.3169 O   0  0  0  0  0  0  0  0  0  0  0  0
   10.7427  -14.4022   27.8695 C   0  0  0  0  0  0  0  0  0  0  0  0
   10.8144  -15.6754   28.6851 C   0  0  1  0  0  0  0  0  0  0  0  0
    9.5285  -16.1864   28.9558 O   0  0  0  0  0  0  0  0  0  0  0  0
   11.5748  -16.7047   27.8505 C   0  0  2  0  0  0  0  0  0  0  0  0
   10.7456  -17.1239   26.7405 N   0  0  0  0  0  0  0  0  0  0  0  0
   11.8939  -17.8612   28.7259 C   0  0  0  0  0  0  0  0  0  0  0  0
   12.6642  -17.7247   29.7099 O   0  0  0  0  0  0  0  0  0  0  0  0
   11.3694  -19.1276   28.5085 O   0  0  0  0  0  0  0  0  0  0  0  0
  2  1  1  6
  2  3  1  0
  4  5  1  0
  4  2  1  0
  5  6  1  1
  7  8  2  0
  7  5  1  0
  9 10  1  0
 10 11  2  0
 12 10  1  0
 12 13  1  0
 14 13  1  6
 14 15  1  0
 15  7  1  0
 16 17  2  0
 16 14  1  0
 19 18  1  6
 20 19  1  0
 21 19  1  0
 21 22  1  6
 22 16  1  0
 23 21  1  0
 24 23  2  0
 25 23  1  0
M  END
$$$$
