WYQ.pdb
     RDKit          3D

 36 38  0  0  1  0  0  0  0  0999 V2000
   27.7502  -22.5214  -16.2780 N   0  0  0  0  0  0  0  0  0  0  0  0
   26.8149  -21.4557  -15.9767 C   0  0  1  0  0  0  0  0  0  0  0  0
   25.8550  -21.2916  -17.1271 C   0  0  0  0  0  0  0  0  0  0  0  0
   26.5695  -20.5599  -18.1981 C   0  0  0  0  0  0  0  0  0  0  0  0
   27.1072  -21.0864  -19.3469 C   0  0  0  0  0  0  0  0  0  0  0  0
   27.6767  -20.0809  -20.0652 N   0  0  0  0  0  0  0  0  0  0  0  0
   27.5251  -18.9209  -19.4189 C   0  0  0  0  0  0  0  0  0  0  0  0
   27.8968  -17.6324  -19.6855 C   0  0  0  0  0  0  0  0  0  0  0  0
   27.5964  -16.5893  -18.8045 C   0  0  0  0  0  0  0  0  0  0  0  0
   26.9125  -16.8630  -17.6442 C   0  0  0  0  0  0  0  0  0  0  0  0
   26.5472  -18.1645  -17.3932 C   0  0  0  0  0  0  0  0  0  0  0  0
   26.8396  -19.2022  -18.2579 C   0  0  0  0  0  0  0  0  0  0  0  0
   26.0627  -21.7204  -14.7343 C   0  0  0  0  0  0  0  0  0  0  0  0
   25.7780  -22.8668  -14.3516 O   0  0  0  0  0  0  0  0  0  0  0  0
   30.6736  -21.9136  -10.1008 O   0  0  0  0  0  0  0  0  0  0  0  0
   29.4154  -21.4143  -10.4808 C   0  0  0  0  0  0  0  0  0  0  0  0
   28.2775  -21.7844   -9.8230 C   0  0  0  0  0  0  0  0  0  0  0  0
   27.0505  -21.2883  -10.2047 C   0  0  0  0  0  0  0  0  0  0  0  0
   26.9146  -20.3943  -11.2698 C   0  0  0  0  0  0  0  0  0  0  0  0
   25.5855  -19.8746  -11.6655 C   0  0  0  0  0  0  0  0  0  0  0  0
   24.9472  -20.7640  -12.7055 C   0  0  2  0  0  0  0  0  0  0  0  0
   25.6566  -20.5853  -13.9571 N   0  0  0  0  0  0  0  0  0  0  0  0
   23.5191  -20.4110  -12.9264 C   0  0  0  0  0  0  0  0  0  0  0  0
   23.2035  -19.3160  -13.4803 O   0  0  0  0  0  0  0  0  0  0  0  0
   28.0891  -20.0403  -11.9147 C   0  0  0  0  0  0  0  0  0  0  0  0
   29.3207  -20.5341  -11.5365 C   0  0  0  0  0  0  0  0  0  0  0  0
   18.9220  -24.5459  -13.6404 N   0  0  0  0  0  0  0  0  0  0  0  0
   19.9993  -24.2227  -14.5040 C   0  0  0  0  0  0  0  0  0  0  0  0
   20.2665  -24.9829  -15.4564 O   0  0  0  0  0  0  0  0  0  0  0  0
   20.7627  -22.9815  -14.2236 C   0  0  0  0  0  0  0  0  0  0  0  0
   20.2666  -22.2034  -13.0436 C   0  0  0  0  0  0  0  0  0  0  0  0
   21.0367  -20.9474  -12.8481 C   0  0  2  0  0  0  0  0  0  0  0  0
   22.4479  -21.2446  -12.5463 N   0  0  0  0  0  0  0  0  0  0  0  0
   20.5150  -20.2312  -11.6645 C   0  0  0  0  0  0  0  0  0  0  0  0
   19.4330  -19.3726  -11.6834 O   0  0  0  0  0  0  0  0  0  0  0  0
   21.1137  -20.4237  -10.5525 O   0  0  0  0  0  0  0  0  0  0  0  0
  2  1  1  6
  3  2  1  0
  3  4  1  0
  4 12  1  0
  4  5  2  0
  5  6  1  0
  7  6  1  0
  7  8  2  0
  9  8  1  0
 10  9  2  0
 11 12  2  0
 11 10  1  0
 12  7  1  0
 13 14  2  0
 13  2  1  0
 15 16  1  0
 16 17  2  0
 17 18  1  0
 19 18  2  0
 19 20  1  0
 21 20  1  1
 21 22  1  0
 22 13  1  0
 23 21  1  0
 24 23  2  0
 25 19  1  0
 26 16  1  0
 26 25  2  0
 28 29  2  0
 28 27  1  0
 30 28  1  0
 32 31  1  1
 31 30  1  0
 32 33  1  0
 33 23  1  0
 34 35  1  0
 34 32  1  0
 36 34  2  0
M  END
$$$$
