WYQ.pdb
     RDKit          3D

 36 38  0  0  1  0  0  0  0  0999 V2000
   27.0581  -21.3548  -11.9323 N   0  0  0  0  0  0  0  0  0  0  0  0
   25.8096  -21.3600  -11.1956 C   0  0  1  0  0  0  0  0  0  0  0  0
   25.9617  -20.5306   -9.9463 C   0  0  0  0  0  0  0  0  0  0  0  0
   27.2557  -20.8976   -9.3268 C   0  0  0  0  0  0  0  0  0  0  0  0
   28.2741  -21.6205   -9.8979 C   0  0  0  0  0  0  0  0  0  0  0  0
   29.2872  -21.7378   -8.9972 N   0  0  0  0  0  0  0  0  0  0  0  0
   28.9577  -21.1145   -7.8618 C   0  0  0  0  0  0  0  0  0  0  0  0
   29.5917  -20.9287   -6.6648 C   0  0  0  0  0  0  0  0  0  0  0  0
   28.9909  -20.2142   -5.6241 C   0  0  0  0  0  0  0  0  0  0  0  0
   27.7352  -19.6860   -5.8064 C   0  0  0  0  0  0  0  0  0  0  0  0
   27.1134  -19.8831   -7.0167 C   0  0  0  0  0  0  0  0  0  0  0  0
   27.6992  -20.5879   -8.0512 C   0  0  0  0  0  0  0  0  0  0  0  0
   24.6916  -20.8386  -12.0064 C   0  0  0  0  0  0  0  0  0  0  0  0
   24.7084  -19.7132  -12.5308 O   0  0  0  0  0  0  0  0  0  0  0  0
   26.3002  -25.4045  -15.9483 O   0  0  0  0  0  0  0  0  0  0  0  0
   25.4572  -24.3451  -15.5692 C   0  0  0  0  0  0  0  0  0  0  0  0
   24.1060  -24.5150  -15.4693 C   0  0  0  0  0  0  0  0  0  0  0  0
   23.2904  -23.4694  -15.0969 C   0  0  0  0  0  0  0  0  0  0  0  0
   23.8012  -22.2016  -14.8075 C   0  0  0  0  0  0  0  0  0  0  0  0
   22.9064  -21.0902  -14.4112 C   0  0  0  0  0  0  0  0  0  0  0  0
   22.4274  -21.2650  -12.9899 C   0  0  2  0  0  0  0  0  0  0  0  0
   23.5507  -21.6908  -12.1783 N   0  0  0  0  0  0  0  0  0  0  0  0
   21.3650  -22.3017  -12.8933 C   0  0  0  0  0  0  0  0  0  0  0  0
   21.6205  -23.4438  -12.4079 O   0  0  0  0  0  0  0  0  0  0  0  0
   25.1758  -22.0645  -14.9189 C   0  0  0  0  0  0  0  0  0  0  0  0
   25.9974  -23.1085  -15.2914 C   0  0  0  0  0  0  0  0  0  0  0  0
   18.8262  -25.1774  -10.8294 N   0  0  0  0  0  0  0  0  0  0  0  0
   17.9241  -24.3610  -10.1009 C   0  0  0  0  0  0  0  0  0  0  0  0
   17.0301  -24.8995   -9.4175 O   0  0  0  0  0  0  0  0  0  0  0  0
   18.0931  -22.8897  -10.1936 C   0  0  0  0  0  0  0  0  0  0  0  0
   19.2410  -22.4515  -11.0506 C   0  0  0  0  0  0  0  0  0  0  0  0
   18.8581  -22.3669  -12.4841 C   0  0  2  0  0  0  0  0  0  0  0  0
   20.0386  -22.0932  -13.3222 N   0  0  0  0  0  0  0  0  0  0  0  0
   17.9495  -21.2176  -12.6823 C   0  0  0  0  0  0  0  0  0  0  0  0
   18.2246  -20.1332  -13.4928 O   0  0  0  0  0  0  0  0  0  0  0  0
   16.8367  -21.2357  -12.0552 O   0  0  0  0  0  0  0  0  0  0  0  0
  2  1  1  6
  3  2  1  0
  3  4  1  0
  4 12  1  0
  4  5  2  0
  5  6  1  0
  7  6  1  0
  7  8  2  0
  9  8  1  0
 10  9  2  0
 11 12  2  0
 11 10  1  0
 12  7  1  0
 13 14  2  0
 13  2  1  0
 15 16  1  0
 16 17  2  0
 17 18  1  0
 19 18  2  0
 19 20  1  0
 21 20  1  6
 21 22  1  0
 22 13  1  0
 23 21  1  0
 24 23  2  0
 25 19  1  0
 26 16  1  0
 26 25  2  0
 28 29  2  0
 28 27  1  0
 30 28  1  0
 32 31  1  1
 31 30  1  0
 32 33  1  0
 33 23  1  0
 34 35  1  0
 34 32  1  0
 36 34  2  0
M  END
$$$$
