WYQ.pdb
     RDKit          3D

 36 38  0  0  1  0  0  0  0  0999 V2000
   24.0865  -19.5978   -8.5993 N   0  0  0  0  0  0  0  0  0  0  0  0
   25.4004  -19.9224   -9.1185 C   0  0  1  0  0  0  0  0  0  0  0  0
   25.8681  -21.2242   -8.5199 C   0  0  0  0  0  0  0  0  0  0  0  0
   26.1167  -20.9845   -7.0799 C   0  0  0  0  0  0  0  0  0  0  0  0
   25.3307  -21.3782   -6.0249 C   0  0  0  0  0  0  0  0  0  0  0  0
   25.9105  -20.9615   -4.8666 N   0  0  0  0  0  0  0  0  0  0  0  0
   27.0462  -20.3111   -5.1375 C   0  0  0  0  0  0  0  0  0  0  0  0
   27.9961  -19.7017   -4.3657 C   0  0  0  0  0  0  0  0  0  0  0  0
   29.1121  -19.0820   -4.9358 C   0  0  0  0  0  0  0  0  0  0  0  0
   29.2594  -19.0844   -6.3023 C   0  0  0  0  0  0  0  0  0  0  0  0
   28.2942  -19.7021   -7.0620 C   0  0  0  0  0  0  0  0  0  0  0  0
   27.1877  -20.3171   -6.5075 C   0  0  0  0  0  0  0  0  0  0  0  0
   25.3990  -20.0236  -10.5913 C   0  0  0  0  0  0  0  0  0  0  0  0
   24.4068  -20.3947  -11.2392 O   0  0  0  0  0  0  0  0  0  0  0  0
   28.1234  -17.4427  -18.5978 O   0  0  0  0  0  0  0  0  0  0  0  0
   28.0605  -17.7356  -17.2242 C   0  0  0  0  0  0  0  0  0  0  0  0
   27.3079  -16.9796  -16.3717 C   0  0  0  0  0  0  0  0  0  0  0  0
   27.2542  -17.2765  -15.0277 C   0  0  0  0  0  0  0  0  0  0  0  0
   27.9586  -18.3520  -14.4806 C   0  0  0  0  0  0  0  0  0  0  0  0
   27.8890  -18.6527  -13.0323 C   0  0  0  0  0  0  0  0  0  0  0  0
   26.5894  -19.3394  -12.6866 C   0  0  2  0  0  0  0  0  0  0  0  0
   26.6096  -19.6720  -11.2757 N   0  0  0  0  0  0  0  0  0  0  0  0
   26.4130  -20.5989  -13.4583 C   0  0  0  0  0  0  0  0  0  0  0  0
   27.0290  -21.6535  -13.1213 O   0  0  0  0  0  0  0  0  0  0  0  0
   28.7116  -19.0976  -15.3738 C   0  0  0  0  0  0  0  0  0  0  0  0
   28.7690  -18.8046  -16.7208 C   0  0  0  0  0  0  0  0  0  0  0  0
   24.4071  -25.3049  -14.0313 N   0  0  0  0  0  0  0  0  0  0  0  0
   23.6114  -25.0434  -15.1756 C   0  0  0  0  0  0  0  0  0  0  0  0
   22.7327  -25.8642  -15.5078 O   0  0  0  0  0  0  0  0  0  0  0  0
   23.8717  -23.7911  -15.9279 C   0  0  0  0  0  0  0  0  0  0  0  0
   24.1096  -22.5894  -15.0656 C   0  0  0  0  0  0  0  0  0  0  0  0
   25.4127  -21.9424  -15.3690 C   0  0  2  0  0  0  0  0  0  0  0  0
   25.5734  -20.7049  -14.5855 N   0  0  0  0  0  0  0  0  0  0  0  0
   25.4352  -21.5256  -16.7873 C   0  0  0  0  0  0  0  0  0  0  0  0
   25.9279  -22.2971  -17.8220 O   0  0  0  0  0  0  0  0  0  0  0  0
   24.9669  -20.3701  -17.0658 O   0  0  0  0  0  0  0  0  0  0  0  0
  2  1  1  1
  3  2  1  0
  3  4  1  0
  4 12  1  0
  4  5  2  0
  5  6  1  0
  7  6  1  0
  7  8  2  0
  9  8  1  0
 10  9  2  0
 11 12  2  0
 11 10  1  0
 12  7  1  0
 13 14  2  0
 13  2  1  0
 15 16  1  0
 16 17  2  0
 17 18  1  0
 19 18  2  0
 19 20  1  0
 21 20  1  6
 21 22  1  0
 22 13  1  0
 23 21  1  0
 24 23  2  0
 25 19  1  0
 26 16  1  0
 26 25  2  0
 28 29  2  0
 28 27  1  0
 30 28  1  0
 32 31  1  1
 31 30  1  0
 32 33  1  0
 33 23  1  0
 34 35  1  0
 34 32  1  0
 36 34  2  0
M  END
$$$$
