WYQ.pdb
     RDKit          3D

 36 38  0  0  1  0  0  0  0  0999 V2000
   21.8265  -20.9314  -12.2164 N   0  0  0  0  0  0  0  0  0  0  0  0
   22.3325  -20.4306  -13.4792 C   0  0  1  0  0  0  0  0  0  0  0  0
   21.6087  -19.1586  -13.8398 C   0  0  0  0  0  0  0  0  0  0  0  0
   20.4086  -19.5388  -14.6197 C   0  0  0  0  0  0  0  0  0  0  0  0
   19.1936  -19.9475  -14.1272 C   0  0  0  0  0  0  0  0  0  0  0  0
   18.3603  -20.2026  -15.1722 N   0  0  0  0  0  0  0  0  0  0  0  0
   18.9963  -19.9722  -16.3248 C   0  0  0  0  0  0  0  0  0  0  0  0
   18.6367  -20.0667  -17.6406 C   0  0  0  0  0  0  0  0  0  0  0  0
   19.5332  -19.7532  -18.6664 C   0  0  0  0  0  0  0  0  0  0  0  0
   20.8048  -19.3407  -18.3474 C   0  0  0  0  0  0  0  0  0  0  0  0
   21.1483  -19.2518  -17.0190 C   0  0  0  0  0  0  0  0  0  0  0  0
   20.2691  -19.5595  -15.9981 C   0  0  0  0  0  0  0  0  0  0  0  0
   23.7861  -20.1787  -13.4270 C   0  0  0  0  0  0  0  0  0  0  0  0
   24.2675  -19.0429  -13.2859 O   0  0  0  0  0  0  0  0  0  0  0  0
   25.1035  -19.6417   -7.3974 O   0  0  0  0  0  0  0  0  0  0  0  0
   25.4930  -20.2045   -8.6255 C   0  0  0  0  0  0  0  0  0  0  0  0
   26.6582  -19.8380   -9.2357 C   0  0  0  0  0  0  0  0  0  0  0  0
   27.0290  -20.3965  -10.4390 C   0  0  0  0  0  0  0  0  0  0  0  0
   26.2398  -21.3525  -11.0835 C   0  0  0  0  0  0  0  0  0  0  0  0
   26.6557  -21.9389  -12.3782 C   0  0  0  0  0  0  0  0  0  0  0  0
   26.0947  -21.1455  -13.5339 C   0  0  2  0  0  0  0  0  0  0  0  0
   24.6548  -21.3138  -13.5475 N   0  0  0  0  0  0  0  0  0  0  0  0
   26.6304  -21.6223  -14.8372 C   0  0  0  0  0  0  0  0  0  0  0  0
   26.4809  -22.8290  -15.1934 O   0  0  0  0  0  0  0  0  0  0  0  0
   25.0647  -21.7011  -10.4366 C   0  0  0  0  0  0  0  0  0  0  0  0
   24.6885  -21.1447   -9.2313 C   0  0  0  0  0  0  0  0  0  0  0  0
   25.1595  -21.5533  -20.2884 N   0  0  0  0  0  0  0  0  0  0  0  0
   24.9689  -20.4328  -19.4404 C   0  0  0  0  0  0  0  0  0  0  0  0
   24.2223  -19.5057  -19.8137 O   0  0  0  0  0  0  0  0  0  0  0  0
   25.6792  -20.4221  -18.1376 C   0  0  0  0  0  0  0  0  0  0  0  0
   26.5926  -21.5895  -17.9214 C   0  0  0  0  0  0  0  0  0  0  0  0
   27.7612  -21.2265  -17.0780 C   0  0  2  0  0  0  0  0  0  0  0  0
   27.3218  -20.7904  -15.7409 N   0  0  0  0  0  0  0  0  0  0  0  0
   28.4531  -20.0632  -17.6727 C   0  0  0  0  0  0  0  0  0  0  0  0
   28.4444  -18.7897  -17.1372 O   0  0  0  0  0  0  0  0  0  0  0  0
   29.0990  -20.2576  -18.7576 O   0  0  0  0  0  0  0  0  0  0  0  0
  2  1  1  1
  3  2  1  0
  3  4  1  0
  4 12  1  0
  4  5  2  0
  5  6  1  0
  7  6  1  0
  7  8  2  0
  9  8  1  0
 10  9  2  0
 11 12  2  0
 11 10  1  0
 12  7  1  0
 13 14  2  0
 13  2  1  0
 15 16  1  0
 16 17  2  0
 17 18  1  0
 19 18  2  0
 19 20  1  0
 21 20  1  1
 21 22  1  0
 22 13  1  0
 23 21  1  0
 24 23  2  0
 25 19  1  0
 26 16  1  0
 26 25  2  0
 28 29  2  0
 28 27  1  0
 30 28  1  0
 32 31  1  6
 31 30  1  0
 32 33  1  0
 33 23  1  0
 34 35  1  0
 34 32  1  0
 36 34  2  0
M  END
$$$$
