WYQ.pdb
     RDKit          3D

 36 38  0  0  1  0  0  0  0  0999 V2000
   15.4076  -13.5763    7.6874 N   0  0  0  0  0  0  0  0  0  0  0  0
   16.4519  -14.3260    7.0175 C   0  0  1  0  0  0  0  0  0  0  0  0
   17.6084  -14.5281    7.9627 C   0  0  0  0  0  0  0  0  0  0  0  0
   18.6409  -13.5236    7.6189 C   0  0  0  0  0  0  0  0  0  0  0  0
   18.4377  -12.2674    7.1029 C   0  0  0  0  0  0  0  0  0  0  0  0
   19.6448  -11.6639    6.9297 N   0  0  0  0  0  0  0  0  0  0  0  0
   20.6227  -12.4886    7.3170 C   0  0  0  0  0  0  0  0  0  0  0  0
   21.9858  -12.3895    7.3550 C   0  0  0  0  0  0  0  0  0  0  0  0
   22.7810  -13.4402    7.8223 C   0  0  0  0  0  0  0  0  0  0  0  0
   22.1810  -14.5993    8.2533 C   0  0  0  0  0  0  0  0  0  0  0  0
   20.8093  -14.6804    8.2075 C   0  0  0  0  0  0  0  0  0  0  0  0
   20.0150  -13.6472    7.7474 C   0  0  0  0  0  0  0  0  0  0  0  0
   15.9664  -15.6349    6.5377 C   0  0  0  0  0  0  0  0  0  0  0  0
   15.2807  -16.3964    7.2390 O   0  0  0  0  0  0  0  0  0  0  0  0
   14.2796  -22.1888    0.8820 O   0  0  0  0  0  0  0  0  0  0  0  0
   14.7189  -20.9782    1.4458 C   0  0  0  0  0  0  0  0  0  0  0  0
   16.0481  -20.6781    1.5338 C   0  0  0  0  0  0  0  0  0  0  0  0
   16.4662  -19.4886    2.0884 C   0  0  0  0  0  0  0  0  0  0  0  0
   15.5610  -18.5451    2.5807 C   0  0  0  0  0  0  0  0  0  0  0  0
   16.0317  -17.2731    3.1753 C   0  0  0  0  0  0  0  0  0  0  0  0
   15.9432  -17.3176    4.6820 C   0  0  2  0  0  0  0  0  0  0  0  0
   16.3176  -16.0165    5.2003 N   0  0  0  0  0  0  0  0  0  0  0  0
   16.8696  -18.3303    5.2557 C   0  0  0  0  0  0  0  0  0  0  0  0
   18.1217  -18.1367    5.2481 O   0  0  0  0  0  0  0  0  0  0  0  0
   14.2207  -18.8818    2.4755 C   0  0  0  0  0  0  0  0  0  0  0  0
   13.7964  -20.0719    1.9209 C   0  0  0  0  0  0  0  0  0  0  0  0
   15.6118  -20.7267   10.2035 N   0  0  0  0  0  0  0  0  0  0  0  0
   16.6841  -19.8129   10.0415 C   0  0  0  0  0  0  0  0  0  0  0  0
   16.9518  -19.0172   10.9642 O   0  0  0  0  0  0  0  0  0  0  0  0
   17.4391  -19.8514    8.7646 C   0  0  0  0  0  0  0  0  0  0  0  0
   16.9576  -20.8839    7.7920 C   0  0  0  0  0  0  0  0  0  0  0  0
   17.3453  -20.5503    6.3966 C   0  0  2  0  0  0  0  0  0  0  0  0
   16.4332  -19.5408    5.8310 N   0  0  0  0  0  0  0  0  0  0  0  0
   17.1946  -21.7497    5.5454 C   0  0  0  0  0  0  0  0  0  0  0  0
   16.2236  -21.9036    4.5749 O   0  0  0  0  0  0  0  0  0  0  0  0
   18.0222  -22.7056    5.7284 O   0  0  0  0  0  0  0  0  0  0  0  0
  2  1  1  1
  3  2  1  0
  3  4  1  0
  4 12  1  0
  4  5  2  0
  5  6  1  0
  7  6  1  0
  7  8  2  0
  9  8  1  0
 10  9  2  0
 11 12  2  0
 11 10  1  0
 12  7  1  0
 13 14  2  0
 13  2  1  0
 15 16  1  0
 16 17  2  0
 17 18  1  0
 19 18  2  0
 19 20  1  0
 21 20  1  6
 21 22  1  0
 22 13  1  0
 23 21  1  0
 24 23  2  0
 25 19  1  0
 26 16  1  0
 26 25  2  0
 28 29  2  0
 28 27  1  0
 30 28  1  0
 32 31  1  1
 31 30  1  0
 32 33  1  0
 33 23  1  0
 34 35  1  0
 34 32  1  0
 36 34  2  0
M  END
$$$$
