WYQ.pdb
     RDKit          3D

 36 38  0  0  1  0  0  0  0  0999 V2000
   27.4698  -25.8358  -17.3864 N   0  0  0  0  0  0  0  0  0  0  0  0
   27.6497  -27.2740  -17.4085 C   0  0  1  0  0  0  0  0  0  0  0  0
   28.4230  -27.7009  -16.1872 C   0  0  0  0  0  0  0  0  0  0  0  0
   29.8627  -27.6133  -16.5226 C   0  0  0  0  0  0  0  0  0  0  0  0
   30.6407  -26.4821  -16.5531 C   0  0  0  0  0  0  0  0  0  0  0  0
   31.9073  -26.8305  -16.9077 N   0  0  0  0  0  0  0  0  0  0  0  0
   31.9745  -28.1502  -17.1077 C   0  0  0  0  0  0  0  0  0  0  0  0
   32.9796  -29.0035  -17.4697 C   0  0  0  0  0  0  0  0  0  0  0  0
   32.7567  -30.3767  -17.6073 C   0  0  0  0  0  0  0  0  0  0  0  0
   31.5001  -30.8822  -17.3739 C   0  0  0  0  0  0  0  0  0  0  0  0
   30.5022  -30.0089  -17.0109 C   0  0  0  0  0  0  0  0  0  0  0  0
   30.7128  -28.6501  -16.8724 C   0  0  0  0  0  0  0  0  0  0  0  0
   26.3586  -27.9881  -17.4552 C   0  0  0  0  0  0  0  0  0  0  0  0
   25.3302  -27.5551  -16.9104 O   0  0  0  0  0  0  0  0  0  0  0  0
   20.1104  -33.5592  -20.0719 O   0  0  0  0  0  0  0  0  0  0  0  0
   21.2915  -32.8041  -19.9648 C   0  0  0  0  0  0  0  0  0  0  0  0
   22.5142  -33.4072  -19.8899 C   0  0  0  0  0  0  0  0  0  0  0  0
   23.6644  -32.6566  -19.7852 C   0  0  0  0  0  0  0  0  0  0  0  0
   23.6341  -31.2602  -19.7510 C   0  0  0  0  0  0  0  0  0  0  0  0
   24.8824  -30.4719  -19.6357 C   0  0  0  0  0  0  0  0  0  0  0  0
   25.1048  -30.0205  -18.2121 C   0  0  2  0  0  0  0  0  0  0  0  0
   26.3210  -29.2327  -18.1672 N   0  0  0  0  0  0  0  0  0  0  0  0
   25.2656  -31.1763  -17.2895 C   0  0  0  0  0  0  0  0  0  0  0  0
   26.4176  -31.6245  -17.0118 O   0  0  0  0  0  0  0  0  0  0  0  0
   22.3772  -30.6814  -19.8291 C   0  0  0  0  0  0  0  0  0  0  0  0
   21.2220  -31.4285  -19.9341 C   0  0  0  0  0  0  0  0  0  0  0  0
   27.3238  -33.5709  -14.4444 N   0  0  0  0  0  0  0  0  0  0  0  0
   26.4672  -33.8497  -13.3492 C   0  0  0  0  0  0  0  0  0  0  0  0
   26.8187  -34.6927  -12.4994 O   0  0  0  0  0  0  0  0  0  0  0  0
   25.1801  -33.1152  -13.2728 C   0  0  0  0  0  0  0  0  0  0  0  0
   24.9549  -32.1437  -14.3906 C   0  0  0  0  0  0  0  0  0  0  0  0
   24.3288  -32.7958  -15.5702 C   0  0  2  0  0  0  0  0  0  0  0  0
   24.1801  -31.8350  -16.6773 N   0  0  0  0  0  0  0  0  0  0  0  0
   22.9569  -33.2244  -15.2234 C   0  0  0  0  0  0  0  0  0  0  0  0
   22.6458  -34.4045  -14.5761 O   0  0  0  0  0  0  0  0  0  0  0  0
   21.9994  -32.4447  -15.5507 O   0  0  0  0  0  0  0  0  0  0  0  0
  2  1  1  1
  3  2  1  0
  3  4  1  0
  4 12  1  0
  4  5  2  0
  5  6  1  0
  7  6  1  0
  7  8  2  0
  9  8  1  0
 10  9  2  0
 11 12  2  0
 11 10  1  0
 12  7  1  0
 13 14  2  0
 13  2  1  0
 15 16  1  0
 16 17  2  0
 17 18  1  0
 19 18  2  0
 19 20  1  0
 21 20  1  6
 21 22  1  0
 22 13  1  0
 23 21  1  0
 24 23  2  0
 25 19  1  0
 26 16  1  0
 26 25  2  0
 28 29  2  0
 28 27  1  0
 30 28  1  0
 32 31  1  1
 31 30  1  0
 32 33  1  0
 33 23  1  0
 34 35  1  0
 34 32  1  0
 36 34  2  0
M  END
$$$$
