WYQ.pdb
     RDKit          3D

 36 38  0  0  1  0  0  0  0  0999 V2000
   28.1187  -22.9252  -15.3618 N   0  0  0  0  0  0  0  0  0  0  0  0
   27.4480  -21.8050  -14.7322 C   0  0  1  0  0  0  0  0  0  0  0  0
   28.2384  -20.5454  -14.9778 C   0  0  0  0  0  0  0  0  0  0  0  0
   29.1613  -20.3722  -13.8327 C   0  0  0  0  0  0  0  0  0  0  0  0
   30.4698  -20.7811  -13.7518 C   0  0  0  0  0  0  0  0  0  0  0  0
   30.9637  -20.4319  -12.5330 N   0  0  0  0  0  0  0  0  0  0  0  0
   30.0177  -19.8103  -11.8225 C   0  0  0  0  0  0  0  0  0  0  0  0
   29.9786  -19.2660  -10.5689 C   0  0  0  0  0  0  0  0  0  0  0  0
   28.8197  -18.6628  -10.0711 C   0  0  0  0  0  0  0  0  0  0  0  0
   27.6938  -18.6149  -10.8578 C   0  0  0  0  0  0  0  0  0  0  0  0
   27.7521  -19.1674  -12.1155 C   0  0  0  0  0  0  0  0  0  0  0  0
   28.8929  -19.7657  -12.6161 C   0  0  0  0  0  0  0  0  0  0  0  0
   26.0712  -21.6353  -15.2371 C   0  0  0  0  0  0  0  0  0  0  0  0
   25.7120  -22.0312  -16.3578 O   0  0  0  0  0  0  0  0  0  0  0  0
   24.6412  -20.9079   -8.2353 O   0  0  0  0  0  0  0  0  0  0  0  0
   24.2884  -21.2314   -9.5572 C   0  0  0  0  0  0  0  0  0  0  0  0
   23.0863  -20.8533  -10.0831 C   0  0  0  0  0  0  0  0  0  0  0  0
   22.7521  -21.1763  -11.3797 C   0  0  0  0  0  0  0  0  0  0  0  0
   23.6168  -21.8971  -12.2073 C   0  0  0  0  0  0  0  0  0  0  0  0
   23.2370  -22.2361  -13.5979 C   0  0  0  0  0  0  0  0  0  0  0  0
   23.7049  -21.1698  -14.5592 C   0  0  2  0  0  0  0  0  0  0  0  0
   25.1303  -20.9814  -14.3741 N   0  0  0  0  0  0  0  0  0  0  0  0
   23.0278  -19.8695  -14.3071 C   0  0  0  0  0  0  0  0  0  0  0  0
   23.5133  -19.0384  -13.4832 O   0  0  0  0  0  0  0  0  0  0  0  0
   24.8275  -22.2645  -11.6417 C   0  0  0  0  0  0  0  0  0  0  0  0
   25.1674  -21.9436  -10.3435 C   0  0  0  0  0  0  0  0  0  0  0  0
   19.7969  -18.7522  -19.1435 N   0  0  0  0  0  0  0  0  0  0  0  0
   20.6846  -18.3107  -18.1295 C   0  0  0  0  0  0  0  0  0  0  0  0
   21.9145  -18.3601  -18.3321 O   0  0  0  0  0  0  0  0  0  0  0  0
   20.0947  -17.8087  -16.8638 C   0  0  0  0  0  0  0  0  0  0  0  0
   21.0995  -17.3451  -15.8541 C   0  0  0  0  0  0  0  0  0  0  0  0
   21.1232  -18.2240  -14.6560 C   0  0  2  0  0  0  0  0  0  0  0  0
   21.8337  -19.4815  -14.9478 N   0  0  0  0  0  0  0  0  0  0  0  0
   19.7408  -18.6154  -14.3070 C   0  0  0  0  0  0  0  0  0  0  0  0
   18.7867  -17.7526  -13.8034 O   0  0  0  0  0  0  0  0  0  0  0  0
   19.4157  -19.8380  -14.4845 O   0  0  0  0  0  0  0  0  0  0  0  0
  2  1  1  6
  3  2  1  0
  3  4  1  0
  4 12  1  0
  4  5  2  0
  5  6  1  0
  7  6  1  0
  7  8  2  0
  9  8  1  0
 10  9  2  0
 11 12  2  0
 11 10  1  0
 12  7  1  0
 13 14  2  0
 13  2  1  0
 15 16  1  0
 16 17  2  0
 17 18  1  0
 19 18  2  0
 19 20  1  0
 21 20  1  1
 21 22  1  0
 22 13  1  0
 23 21  1  0
 24 23  2  0
 25 19  1  0
 26 16  1  0
 26 25  2  0
 28 29  2  0
 28 27  1  0
 30 28  1  0
 32 31  1  6
 31 30  1  0
 32 33  1  0
 33 23  1  0
 34 35  1  0
 34 32  1  0
 36 34  2  0
M  END
$$$$
