WYQ.pdb
     RDKit          3D

 36 38  0  0  1  0  0  0  0  0999 V2000
   27.7587  -21.3149  -16.5153 N   0  0  0  0  0  0  0  0  0  0  0  0
   27.3509  -20.5976  -15.3235 C   0  0  1  0  0  0  0  0  0  0  0  0
   26.6910  -19.3017  -15.7199 C   0  0  0  0  0  0  0  0  0  0  0  0
   27.6454  -18.5645  -16.5794 C   0  0  0  0  0  0  0  0  0  0  0  0
   27.4135  -18.0618  -17.8361 C   0  0  0  0  0  0  0  0  0  0  0  0
   28.5468  -17.4546  -18.2814 N   0  0  0  0  0  0  0  0  0  0  0  0
   29.5045  -17.5478  -17.3539 C   0  0  0  0  0  0  0  0  0  0  0  0
   30.8019  -17.1217  -17.2858 C   0  0  0  0  0  0  0  0  0  0  0  0
   31.5922  -17.3670  -16.1590 C   0  0  0  0  0  0  0  0  0  0  0  0
   31.0550  -18.0515  -15.0951 C   0  0  0  0  0  0  0  0  0  0  0  0
   29.7489  -18.4721  -15.1818 C   0  0  0  0  0  0  0  0  0  0  0  0
   28.9599  -18.2343  -16.2914 C   0  0  0  0  0  0  0  0  0  0  0  0
   26.4257  -21.3938  -14.4931 C   0  0  0  0  0  0  0  0  0  0  0  0
   25.6085  -22.1946  -14.9754 O   0  0  0  0  0  0  0  0  0  0  0  0
   27.2019  -18.3673   -7.1275 O   0  0  0  0  0  0  0  0  0  0  0  0
   26.9937  -19.3755   -8.0849 C   0  0  0  0  0  0  0  0  0  0  0  0
   25.8156  -20.0631   -8.1458 C   0  0  0  0  0  0  0  0  0  0  0  0
   25.6234  -21.0489   -9.0885 C   0  0  0  0  0  0  0  0  0  0  0  0
   26.6129  -21.3873  -10.0150 C   0  0  0  0  0  0  0  0  0  0  0  0
   26.3868  -22.4521  -11.0190 C   0  0  0  0  0  0  0  0  0  0  0  0
   25.5932  -21.9273  -12.1914 C   0  0  2  0  0  0  0  0  0  0  0  0
   26.4968  -21.2132  -13.0719 N   0  0  0  0  0  0  0  0  0  0  0  0
   24.5286  -20.9845  -11.7545 C   0  0  0  0  0  0  0  0  0  0  0  0
   24.2479  -20.8531  -10.5260 O   0  0  0  0  0  0  0  0  0  0  0  0
   27.7953  -20.6699   -9.9248 C   0  0  0  0  0  0  0  0  0  0  0  0
   27.9930  -19.6815   -8.9826 C   0  0  0  0  0  0  0  0  0  0  0  0
   22.3996  -24.4887  -14.8732 N   0  0  0  0  0  0  0  0  0  0  0  0
   21.1702  -23.7840  -14.8201 C   0  0  0  0  0  0  0  0  0  0  0  0
   20.1371  -24.3261  -15.2619 O   0  0  0  0  0  0  0  0  0  0  0  0
   21.1790  -22.4200  -14.2359 C   0  0  0  0  0  0  0  0  0  0  0  0
   22.5192  -21.9665  -13.7437 C   0  0  0  0  0  0  0  0  0  0  0  0
   22.4643  -20.5913  -13.1829 C   0  0  2  0  0  0  0  0  0  0  0  0
   23.7792  -20.1945  -12.6495 N   0  0  0  0  0  0  0  0  0  0  0  0
   21.5395  -20.5683  -12.0296 C   0  0  0  0  0  0  0  0  0  0  0  0
   21.6944  -21.3292  -10.8870 O   0  0  0  0  0  0  0  0  0  0  0  0
   20.5291  -19.7902  -12.1044 O   0  0  0  0  0  0  0  0  0  0  0  0
  2  1  1  6
  3  2  1  0
  3  4  1  0
  4 12  1  0
  4  5  2  0
  5  6  1  0
  7  6  1  0
  7  8  2  0
  9  8  1  0
 10  9  2  0
 11 12  2  0
 11 10  1  0
 12  7  1  0
 13 14  2  0
 13  2  1  0
 15 16  1  0
 16 17  2  0
 17 18  1  0
 19 18  2  0
 19 20  1  0
 21 20  1  1
 21 22  1  0
 22 13  1  0
 23 21  1  0
 24 23  2  0
 25 19  1  0
 26 16  1  0
 26 25  2  0
 28 29  2  0
 28 27  1  0
 30 28  1  0
 32 31  1  1
 31 30  1  0
 32 33  1  0
 33 23  1  0
 34 35  1  0
 34 32  1  0
 36 34  2  0
M  END
$$$$
