WYQ.pdb
     RDKit          3D

 36 38  0  0  1  0  0  0  0  0999 V2000
   22.2247  -20.2242  -12.6717 N   0  0  0  0  0  0  0  0  0  0  0  0
   23.6587  -20.3498  -12.5004 C   0  0  1  0  0  0  0  0  0  0  0  0
   23.9725  -21.6796  -11.8639 C   0  0  0  0  0  0  0  0  0  0  0  0
   23.9596  -21.4812  -10.3964 C   0  0  0  0  0  0  0  0  0  0  0  0
   22.9323  -21.7625   -9.5296 C   0  0  0  0  0  0  0  0  0  0  0  0
   23.3214  -21.4352   -8.2676 N   0  0  0  0  0  0  0  0  0  0  0  0
   24.5670  -20.9512   -8.2892 C   0  0  0  0  0  0  0  0  0  0  0  0
   25.4187  -20.4844   -7.3270 C   0  0  0  0  0  0  0  0  0  0  0  0
   26.7007  -20.0273   -7.6467 C   0  0  0  0  0  0  0  0  0  0  0  0
   27.1158  -20.0469   -8.9567 C   0  0  0  0  0  0  0  0  0  0  0  0
   26.2456  -20.5198   -9.9104 C   0  0  0  0  0  0  0  0  0  0  0  0
   24.9767  -20.9736   -9.6040 C   0  0  0  0  0  0  0  0  0  0  0  0
   24.3775  -20.2303  -13.7842 C   0  0  0  0  0  0  0  0  0  0  0  0
   23.9226  -20.6684  -14.8533 O   0  0  0  0  0  0  0  0  0  0  0  0
   30.4905  -17.3770  -19.4794 O   0  0  0  0  0  0  0  0  0  0  0  0
   29.7294  -17.5989  -18.3184 C   0  0  0  0  0  0  0  0  0  0  0  0
   30.1343  -18.4877  -17.3642 C   0  0  0  0  0  0  0  0  0  0  0  0
   29.3800  -18.6965  -16.2307 C   0  0  0  0  0  0  0  0  0  0  0  0
   28.1798  -18.0170  -16.0072 C   0  0  0  0  0  0  0  0  0  0  0  0
   27.3826  -18.2581  -14.7828 C   0  0  0  0  0  0  0  0  0  0  0  0
   26.4073  -19.3921  -14.9895 C   0  0  2  0  0  0  0  0  0  0  0  0
   25.6537  -19.5757  -13.7648 N   0  0  0  0  0  0  0  0  0  0  0  0
   27.1077  -20.6674  -15.2996 C   0  0  0  0  0  0  0  0  0  0  0  0
   27.7548  -21.2829  -14.4009 O   0  0  0  0  0  0  0  0  0  0  0  0
   27.7990  -17.1230  -16.9954 C   0  0  0  0  0  0  0  0  0  0  0  0
   28.5508  -16.9100  -18.1325 C   0  0  0  0  0  0  0  0  0  0  0  0
   24.9203  -24.0256  -14.7628 N   0  0  0  0  0  0  0  0  0  0  0  0
   24.7192  -24.1701  -16.1591 C   0  0  0  0  0  0  0  0  0  0  0  0
   23.5772  -24.4338  -16.5865 O   0  0  0  0  0  0  0  0  0  0  0  0
   25.8943  -23.9995  -17.0488 C   0  0  0  0  0  0  0  0  0  0  0  0
   27.1718  -23.6841  -16.3329 C   0  0  0  0  0  0  0  0  0  0  0  0
   27.8460  -22.4909  -16.9077 C   0  0  2  0  0  0  0  0  0  0  0  0
   27.1013  -21.2634  -16.5769 N   0  0  0  0  0  0  0  0  0  0  0  0
   27.8332  -22.5833  -18.3832 C   0  0  0  0  0  0  0  0  0  0  0  0
   28.4055  -23.6106  -19.1081 O   0  0  0  0  0  0  0  0  0  0  0  0
   27.2527  -21.6428  -19.0239 O   0  0  0  0  0  0  0  0  0  0  0  0
  2  1  1  6
  3  2  1  0
  3  4  1  0
  4 12  1  0
  4  5  2  0
  5  6  1  0
  7  6  1  0
  7  8  2  0
  9  8  1  0
 10  9  2  0
 11 12  2  0
 11 10  1  0
 12  7  1  0
 13 14  2  0
 13  2  1  0
 15 16  1  0
 16 17  2  0
 17 18  1  0
 19 18  2  0
 19 20  1  0
 21 20  1  1
 21 22  1  0
 22 13  1  0
 23 21  1  0
 24 23  2  0
 25 19  1  0
 26 16  1  0
 26 25  2  0
 28 29  2  0
 28 27  1  0
 30 28  1  0
 32 31  1  1
 31 30  1  0
 32 33  1  0
 33 23  1  0
 34 35  1  0
 34 32  1  0
 36 34  2  0
M  END
$$$$
