HMD.pdb
     RDKit          3D

 27 27  0  0  1  0  0  0  0  0999 V2000
    7.8353  -16.5947   20.0943 N   0  0  0  0  0  0  0  0  0  0  0  0
    9.1563  -16.1802   20.4742 C   0  0  1  0  0  0  0  0  0  0  0  0
    9.7692  -15.1782   19.5591 C   0  0  0  0  0  0  0  0  0  0  0  0
    8.8194  -14.2265   18.9740 C   0  0  0  0  0  0  0  0  0  0  0  0
    8.4070  -12.9768   19.3800 C   0  0  0  0  0  0  0  0  0  0  0  0
    7.5128  -12.4822   18.5179 N   0  0  0  0  0  0  0  0  0  0  0  0
    7.3523  -13.4082   17.5651 C   0  0  0  0  0  0  0  0  0  0  0  0
    8.1416  -14.4672   17.8362 N   0  0  0  0  0  0  0  0  0  0  0  0
    9.2270  -15.7511   21.8938 C   0  0  0  0  0  0  0  0  0  0  0  0
   10.3341  -15.3387   22.3776 O   0  0  0  0  0  0  0  0  0  0  0  0
    6.3323  -11.4441   26.3657 C   0  0  0  0  0  0  0  0  0  0  0  0
    7.6041  -12.7107   26.3415 S   0  0  0  0  0  0  0  0  0  0  0  0
    6.9398  -14.3760   26.0895 C   0  0  0  0  0  0  0  0  0  0  0  0
    6.9829  -14.7799   24.6436 C   0  0  0  0  0  0  0  0  0  0  0  0
    8.2869  -15.3651   24.1970 C   0  0  2  0  0  0  0  0  0  0  0  0
    8.1379  -15.7599   22.7860 N   0  0  0  0  0  0  0  0  0  0  0  0
    8.7875  -16.4731   25.0111 C   0  0  0  0  0  0  0  0  0  0  0  0
    8.1343  -17.5299   25.0925 O   0  0  0  0  0  0  0  0  0  0  0  0
   10.0172  -16.3307   25.7020 N   0  0  0  0  0  0  0  0  0  0  0  0
   10.5899  -17.4160   26.5275 C   0  0  1  0  0  0  0  0  0  0  0  0
   12.0833  -17.3062   26.5610 C   0  0  0  0  0  0  0  0  0  0  0  0
   12.6752  -18.2154   25.5629 C   0  0  0  0  0  0  0  0  0  0  0  0
   11.8687  -18.9278   24.8626 O   0  0  0  0  0  0  0  0  0  0  0  0
    9.9847  -17.3503   27.8831 C   0  0  0  0  0  0  0  0  0  0  0  0
    9.5206  -16.2964   28.3243 O   0  0  0  0  0  0  0  0  0  0  0  0
   14.0095  -18.3887   25.2987 O   0  0  0  0  0  0  0  0  0  0  0  0
    9.9426  -18.5059   28.6699 O   0  0  0  0  0  0  0  0  0  0  0  0
  2  1  1  6
  2  3  1  0
  2  9  1  0
  4  3  1  0
  4  5  2  0
  6  5  1  0
  7  6  1  0
  8  7  2  0
  8  4  1  0
  9 10  2  0
 12 11  1  0
 13 12  1  0
 15 14  1  1
 14 13  1  0
 16 15  1  0
 16  9  1  0
 17 18  2  0
 17 15  1  0
 19 17  1  0
 20 24  1  0
 20 19  1  0
 20 21  1  1
 22 23  2  0
 22 21  1  0
 24 27  1  0
 25 24  2  0
 26 22  1  0
M  END
$$$$
