HMD.pdb
     RDKit          3D

 27 27  0  0  1  0  0  0  0  0999 V2000
    7.2506  -17.0830   20.4188 N   0  0  0  0  0  0  0  0  0  0  0  0
    8.6258  -16.6709   20.4278 C   0  0  1  0  0  0  0  0  0  0  0  0
    9.0239  -15.8449   19.2546 C   0  0  0  0  0  0  0  0  0  0  0  0
    8.3917  -14.5230   19.1978 C   0  0  0  0  0  0  0  0  0  0  0  0
    7.1398  -14.1231   18.7863 C   0  0  0  0  0  0  0  0  0  0  0  0
    7.0122  -12.7983   18.9144 N   0  0  0  0  0  0  0  0  0  0  0  0
    8.1744  -12.3512   19.4047 C   0  0  0  0  0  0  0  0  0  0  0  0
    9.0141  -13.3918   19.5785 N   0  0  0  0  0  0  0  0  0  0  0  0
    9.0164  -16.0354   21.7115 C   0  0  0  0  0  0  0  0  0  0  0  0
   10.2042  -15.5934   21.8652 O   0  0  0  0  0  0  0  0  0  0  0  0
    6.8823  -11.6465   27.8700 C   0  0  0  0  0  0  0  0  0  0  0  0
    6.4922  -12.6018   26.4011 S   0  0  0  0  0  0  0  0  0  0  0  0
    7.8542  -13.6692   25.8685 C   0  0  0  0  0  0  0  0  0  0  0  0
    7.5276  -14.3948   24.5949 C   0  0  0  0  0  0  0  0  0  0  0  0
    8.6233  -15.2758   24.0793 C   0  0  2  0  0  0  0  0  0  0  0  0
    8.1579  -15.8718   22.8154 N   0  0  0  0  0  0  0  0  0  0  0  0
    9.0935  -16.3010   25.0114 C   0  0  0  0  0  0  0  0  0  0  0  0
    8.3493  -17.2507   25.3186 O   0  0  0  0  0  0  0  0  0  0  0  0
   10.3979  -16.2014   25.5575 N   0  0  0  0  0  0  0  0  0  0  0  0
   10.9561  -17.2292   26.4626 C   0  0  1  0  0  0  0  0  0  0  0  0
   12.4529  -17.1910   26.4267 C   0  0  0  0  0  0  0  0  0  0  0  0
   12.9245  -17.3259   25.0364 C   0  0  0  0  0  0  0  0  0  0  0  0
   12.4309  -18.2824   24.3365 O   0  0  0  0  0  0  0  0  0  0  0  0
   10.4144  -17.0033   27.8279 C   0  0  0  0  0  0  0  0  0  0  0  0
    9.7145  -16.0203   28.0821 O   0  0  0  0  0  0  0  0  0  0  0  0
   13.8463  -16.5342   24.4012 O   0  0  0  0  0  0  0  0  0  0  0  0
   10.7059  -17.9235   28.8401 O   0  0  0  0  0  0  0  0  0  0  0  0
  2  1  1  1
  2  3  1  0
  2  9  1  0
  4  3  1  0
  4  5  2  0
  6  5  1  0
  7  6  1  0
  8  7  2  0
  8  4  1  0
  9 10  2  0
 12 11  1  0
 13 12  1  0
 15 14  1  1
 14 13  1  0
 16 15  1  0
 16  9  1  0
 17 18  2  0
 17 15  1  0
 19 17  1  0
 20 24  1  0
 20 19  1  0
 20 21  1  1
 22 23  2  0
 22 21  1  0
 24 27  1  0
 25 24  2  0
 26 22  1  0
M  END
$$$$
