HMD.pdb
     RDKit          3D

 27 27  0  0  1  0  0  0  0  0999 V2000
    9.6224  -16.6640   19.5028 N   0  0  0  0  0  0  0  0  0  0  0  0
    8.6573  -16.8811   20.5434 C   0  0  1  0  0  0  0  0  0  0  0  0
    8.2547  -18.3042   20.7160 C   0  0  0  0  0  0  0  0  0  0  0  0
    7.6675  -18.9202   19.5218 C   0  0  0  0  0  0  0  0  0  0  0  0
    6.6098  -18.5453   18.7235 C   0  0  0  0  0  0  0  0  0  0  0  0
    6.4386  -19.4311   17.7367 N   0  0  0  0  0  0  0  0  0  0  0  0
    7.3801  -20.3680   17.9007 C   0  0  0  0  0  0  0  0  0  0  0  0
    8.1277  -20.0636   18.9807 N   0  0  0  0  0  0  0  0  0  0  0  0
    9.0640  -16.2600   21.8292 C   0  0  0  0  0  0  0  0  0  0  0  0
   10.2808  -16.3273   22.2095 O   0  0  0  0  0  0  0  0  0  0  0  0
    6.9056  -11.6478   27.9850 C   0  0  0  0  0  0  0  0  0  0  0  0
    6.5681  -12.4158   26.3980 S   0  0  0  0  0  0  0  0  0  0  0  0
    7.8703  -13.5591   25.8737 C   0  0  0  0  0  0  0  0  0  0  0  0
    7.6054  -14.1144   24.5037 C   0  0  0  0  0  0  0  0  0  0  0  0
    8.6316  -15.0898   24.0158 C   0  0  2  0  0  0  0  0  0  0  0  0
    8.1909  -15.5779   22.6979 N   0  0  0  0  0  0  0  0  0  0  0  0
    8.9239  -16.1984   24.9250 C   0  0  0  0  0  0  0  0  0  0  0  0
    8.0964  -17.1169   25.0721 O   0  0  0  0  0  0  0  0  0  0  0  0
   10.1525  -16.2148   25.6322 N   0  0  0  0  0  0  0  0  0  0  0  0
   10.5137  -17.3057   26.5631 C   0  0  1  0  0  0  0  0  0  0  0  0
   11.9420  -17.7076   26.3583 C   0  0  0  0  0  0  0  0  0  0  0  0
   12.0431  -18.6343   25.2163 C   0  0  0  0  0  0  0  0  0  0  0  0
   10.9599  -18.9145   24.5865 O   0  0  0  0  0  0  0  0  0  0  0  0
   10.2446  -16.8520   27.9524 C   0  0  0  0  0  0  0  0  0  0  0  0
   10.0770  -17.6620   28.8669 O   0  0  0  0  0  0  0  0  0  0  0  0
   13.1806  -19.2405   24.7484 O   0  0  0  0  0  0  0  0  0  0  0  0
   10.1806  -15.4814   28.2237 O   0  0  0  0  0  0  0  0  0  0  0  0
  2  1  1  6
  2  3  1  0
  2  9  1  0
  4  3  1  0
  4  5  2  0
  6  5  1  0
  7  6  1  0
  8  7  2  0
  8  4  1  0
  9 10  2  0
 12 11  1  0
 13 12  1  0
 15 14  1  1
 14 13  1  0
 16 15  1  0
 16  9  1  0
 17 18  2  0
 17 15  1  0
 19 17  1  0
 20 24  1  0
 20 19  1  0
 20 21  1  1
 22 23  2  0
 22 21  1  0
 24 27  1  0
 25 24  2  0
 26 22  1  0
M  END
$$$$
