HMD.pdb
     RDKit          3D

 27 27  0  0  1  0  0  0  0  0999 V2000
    8.0133  -16.3739   20.0698 N   0  0  0  0  0  0  0  0  0  0  0  0
    9.3603  -16.0959   20.4815 C   0  0  1  0  0  0  0  0  0  0  0  0
   10.0968  -15.1699   19.5775 C   0  0  0  0  0  0  0  0  0  0  0  0
    9.2511  -14.1887   18.8903 C   0  0  0  0  0  0  0  0  0  0  0  0
    8.8006  -12.9433   19.2679 C   0  0  0  0  0  0  0  0  0  0  0  0
    8.0435  -12.4129   18.3020 N   0  0  0  0  0  0  0  0  0  0  0  0
    8.0084  -13.3119   17.3111 C   0  0  0  0  0  0  0  0  0  0  0  0
    8.7383  -14.3899   17.6620 N   0  0  0  0  0  0  0  0  0  0  0  0
    9.4397  -15.6656   21.9003 C   0  0  0  0  0  0  0  0  0  0  0  0
   10.5762  -15.4140   22.4244 O   0  0  0  0  0  0  0  0  0  0  0  0
    7.3155  -11.3975   27.7935 C   0  0  0  0  0  0  0  0  0  0  0  0
    7.1998  -12.0003   26.1066 S   0  0  0  0  0  0  0  0  0  0  0  0
    7.3829  -13.7973   25.9830 C   0  0  0  0  0  0  0  0  0  0  0  0
    7.3585  -14.2627   24.5554 C   0  0  0  0  0  0  0  0  0  0  0  0
    8.4828  -15.1765   24.1768 C   0  0  2  0  0  0  0  0  0  0  0  0
    8.3282  -15.5051   22.7495 N   0  0  0  0  0  0  0  0  0  0  0  0
    8.6089  -16.3850   24.9920 C   0  0  0  0  0  0  0  0  0  0  0  0
    7.7267  -17.2622   24.9446 O   0  0  0  0  0  0  0  0  0  0  0  0
    9.7402  -16.5450   25.8314 N   0  0  0  0  0  0  0  0  0  0  0  0
   10.0373  -17.8182   26.5227 C   0  0  1  0  0  0  0  0  0  0  0  0
   11.1236  -18.5558   25.8020 C   0  0  0  0  0  0  0  0  0  0  0  0
   11.5140  -19.7508   26.5719 C   0  0  0  0  0  0  0  0  0  0  0  0
   10.7642  -20.7882   26.4711 O   0  0  0  0  0  0  0  0  0  0  0  0
   10.3930  -17.5195   27.9343 C   0  0  0  0  0  0  0  0  0  0  0  0
   10.3734  -18.4001   28.7973 O   0  0  0  0  0  0  0  0  0  0  0  0
   12.6019  -19.8773   27.3969 O   0  0  0  0  0  0  0  0  0  0  0  0
   10.7556  -16.2155   28.2867 O   0  0  0  0  0  0  0  0  0  0  0  0
  2  1  1  6
  2  3  1  0
  2  9  1  0
  4  3  1  0
  4  5  2  0
  6  5  1  0
  7  6  1  0
  8  7  2  0
  8  4  1  0
  9 10  2  0
 12 11  1  0
 13 12  1  0
 15 14  1  1
 14 13  1  0
 16 15  1  0
 16  9  1  0
 17 18  2  0
 17 15  1  0
 19 17  1  0
 20 24  1  0
 20 19  1  0
 20 21  1  6
 22 23  2  0
 22 21  1  0
 24 27  1  0
 25 24  2  0
 26 22  1  0
M  END
$$$$
