HMD.pdb
     RDKit          3D

 27 27  0  0  1  0  0  0  0  0999 V2000
    7.8159  -14.9128   19.6190 N   0  0  0  0  0  0  0  0  0  0  0  0
    7.9481  -15.6905   20.8185 C   0  0  1  0  0  0  0  0  0  0  0  0
    8.3037  -17.1176   20.5855 C   0  0  0  0  0  0  0  0  0  0  0  0
    7.5092  -17.7814   19.5470 C   0  0  0  0  0  0  0  0  0  0  0  0
    6.3872  -18.5766   19.6201 C   0  0  0  0  0  0  0  0  0  0  0  0
    6.0124  -18.9612   18.3957 N   0  0  0  0  0  0  0  0  0  0  0  0
    6.8880  -18.4165   17.5426 C   0  0  0  0  0  0  0  0  0  0  0  0
    7.7972  -17.7005   18.2346 N   0  0  0  0  0  0  0  0  0  0  0  0
    8.8479  -15.0498   21.8106 C   0  0  0  0  0  0  0  0  0  0  0  0
    9.3700  -13.9136   21.5529 O   0  0  0  0  0  0  0  0  0  0  0  0
    5.9929  -11.4547   27.2512 C   0  0  0  0  0  0  0  0  0  0  0  0
    6.1882  -12.4536   25.7725 S   0  0  0  0  0  0  0  0  0  0  0  0
    7.8203  -13.2279   25.6519 C   0  0  0  0  0  0  0  0  0  0  0  0
    7.9447  -14.0759   24.4187 C   0  0  0  0  0  0  0  0  0  0  0  0
    9.2530  -14.7914   24.2818 C   0  0  2  0  0  0  0  0  0  0  0  0
    9.1881  -15.6078   23.0576 N   0  0  0  0  0  0  0  0  0  0  0  0
    9.6514  -15.5945   25.4382 C   0  0  0  0  0  0  0  0  0  0  0  0
    9.5823  -15.1123   26.5840 O   0  0  0  0  0  0  0  0  0  0  0  0
   10.1144  -16.9198   25.2407 N   0  0  0  0  0  0  0  0  0  0  0  0
    9.8232  -18.0093   26.1975 C   0  0  1  0  0  0  0  0  0  0  0  0
    9.5361  -19.2810   25.4602 C   0  0  0  0  0  0  0  0  0  0  0  0
    9.4537  -20.4042   26.4116 C   0  0  0  0  0  0  0  0  0  0  0  0
    8.7269  -20.2394   27.4570 O   0  0  0  0  0  0  0  0  0  0  0  0
   10.9722  -18.1403   27.1307 C   0  0  0  0  0  0  0  0  0  0  0  0
   11.9958  -17.4691   26.9808 O   0  0  0  0  0  0  0  0  0  0  0  0
   10.0784  -21.6200   26.3032 O   0  0  0  0  0  0  0  0  0  0  0  0
   10.8880  -19.0421   28.1966 O   0  0  0  0  0  0  0  0  0  0  0  0
  2  1  1  6
  2  3  1  0
  2  9  1  0
  4  3  1  0
  4  5  2  0
  6  5  1  0
  7  6  1  0
  8  7  2  0
  8  4  1  0
  9 10  2  0
 12 11  1  0
 13 12  1  0
 15 14  1  1
 14 13  1  0
 16 15  1  0
 16  9  1  0
 17 18  2  0
 17 15  1  0
 19 17  1  0
 20 24  1  0
 20 19  1  0
 20 21  1  6
 22 23  2  0
 22 21  1  0
 24 27  1  0
 25 24  2  0
 26 22  1  0
M  END
$$$$
