HMD.pdb
     RDKit          3D

 27 27  0  0  1  0  0  0  0  0999 V2000
    7.9428  -16.5779   20.1395 N   0  0  0  0  0  0  0  0  0  0  0  0
    9.2565  -16.0722   20.4214 C   0  0  1  0  0  0  0  0  0  0  0  0
    9.7685  -15.1048   19.4118 C   0  0  0  0  0  0  0  0  0  0  0  0
    8.7551  -14.6085   18.4752 C   0  0  0  0  0  0  0  0  0  0  0  0
    8.6090  -14.7667   17.1150 C   0  0  0  0  0  0  0  0  0  0  0  0
    7.5190  -14.1204   16.6887 N   0  0  0  0  0  0  0  0  0  0  0  0
    6.9693  -13.5513   17.7681 C   0  0  0  0  0  0  0  0  0  0  0  0
    7.7140  -13.8437   18.8535 N   0  0  0  0  0  0  0  0  0  0  0  0
    9.3738  -15.5446   21.8042 C   0  0  0  0  0  0  0  0  0  0  0  0
   10.5234  -15.2540   22.2771 O   0  0  0  0  0  0  0  0  0  0  0  0
    7.2698  -12.0693   28.2339 C   0  0  0  0  0  0  0  0  0  0  0  0
    7.2607  -12.4125   26.4720 S   0  0  0  0  0  0  0  0  0  0  0  0
    7.1858  -14.1820   26.0959 C   0  0  0  0  0  0  0  0  0  0  0  0
    7.2043  -14.4382   24.6163 C   0  0  0  0  0  0  0  0  0  0  0  0
    8.4799  -15.0290   24.1005 C   0  0  2  0  0  0  0  0  0  0  0  0
    8.2860  -15.3291   22.6716 N   0  0  0  0  0  0  0  0  0  0  0  0
    8.9677  -16.1998   24.8301 C   0  0  0  0  0  0  0  0  0  0  0  0
    8.3101  -17.2569   24.8209 O   0  0  0  0  0  0  0  0  0  0  0  0
   10.1901  -16.1175   25.5434 N   0  0  0  0  0  0  0  0  0  0  0  0
   10.7372  -17.2592   26.3078 C   0  0  1  0  0  0  0  0  0  0  0  0
   12.2344  -17.2335   26.2736 C   0  0  0  0  0  0  0  0  0  0  0  0
   12.7076  -17.4287   24.8911 C   0  0  0  0  0  0  0  0  0  0  0  0
   12.1593  -18.3668   24.2071 O   0  0  0  0  0  0  0  0  0  0  0  0
   10.1993  -17.2043   27.6920 C   0  0  0  0  0  0  0  0  0  0  0  0
    9.5824  -16.2168   28.0982 O   0  0  0  0  0  0  0  0  0  0  0  0
   13.6835  -16.7118   24.2479 O   0  0  0  0  0  0  0  0  0  0  0  0
   10.3984  -18.2935   28.5466 O   0  0  0  0  0  0  0  0  0  0  0  0
  2  1  1  6
  2  3  1  0
  2  9  1  0
  4  3  1  0
  4  5  2  0
  6  5  1  0
  7  6  1  0
  8  7  2  0
  8  4  1  0
  9 10  2  0
 12 11  1  0
 13 12  1  0
 15 14  1  1
 14 13  1  0
 16 15  1  0
 16  9  1  0
 17 18  2  0
 17 15  1  0
 19 17  1  0
 20 24  1  0
 20 19  1  0
 20 21  1  1
 22 23  2  0
 22 21  1  0
 24 27  1  0
 25 24  2  0
 26 22  1  0
M  END
$$$$
