HMD.pdb
     RDKit          3D

 27 27  0  0  1  0  0  0  0  0999 V2000
    8.9684  -15.4843   19.5202 N   0  0  0  0  0  0  0  0  0  0  0  0
    8.1645  -16.0008   20.5917 C   0  0  1  0  0  0  0  0  0  0  0  0
    7.8638  -17.4551   20.4838 C   0  0  0  0  0  0  0  0  0  0  0  0
    7.1293  -17.8371   19.2735 C   0  0  0  0  0  0  0  0  0  0  0  0
    6.7410  -17.1105   18.1700 C   0  0  0  0  0  0  0  0  0  0  0  0
    6.0816  -17.8932   17.3096 N   0  0  0  0  0  0  0  0  0  0  0  0
    6.0471  -19.1138   17.8573 C   0  0  0  0  0  0  0  0  0  0  0  0
    6.6804  -19.0858   19.0473 N   0  0  0  0  0  0  0  0  0  0  0  0
    8.7069  -15.6443   21.9270 C   0  0  0  0  0  0  0  0  0  0  0  0
    9.9695  -15.6263   22.1149 O   0  0  0  0  0  0  0  0  0  0  0  0
    6.8340  -10.5475   26.6085 C   0  0  0  0  0  0  0  0  0  0  0  0
    6.9404  -12.3353   26.7302 S   0  0  0  0  0  0  0  0  0  0  0  0
    7.3295  -13.1304   25.1508 C   0  0  0  0  0  0  0  0  0  0  0  0
    7.4605  -14.6195   25.2944 C   0  0  0  0  0  0  0  0  0  0  0  0
    8.4883  -15.2451   24.4031 C   0  0  2  0  0  0  0  0  0  0  0  0
    7.9197  -15.3120   23.0460 N   0  0  0  0  0  0  0  0  0  0  0  0
    8.9837  -16.5511   24.8390 C   0  0  0  0  0  0  0  0  0  0  0  0
    8.2648  -17.5606   24.7195 O   0  0  0  0  0  0  0  0  0  0  0  0
   10.2835  -16.6536   25.3955 N   0  0  0  0  0  0  0  0  0  0  0  0
   10.8766  -17.9516   25.7839 C   0  0  1  0  0  0  0  0  0  0  0  0
   12.3436  -17.9599   25.4823 C   0  0  0  0  0  0  0  0  0  0  0  0
   12.9443  -19.2224   25.9497 C   0  0  0  0  0  0  0  0  0  0  0  0
   14.0495  -19.1450   26.5985 O   0  0  0  0  0  0  0  0  0  0  0  0
   10.5907  -18.1920   27.2223 C   0  0  0  0  0  0  0  0  0  0  0  0
   10.1715  -17.2884   27.9492 O   0  0  0  0  0  0  0  0  0  0  0  0
   12.4480  -20.4869   25.7629 O   0  0  0  0  0  0  0  0  0  0  0  0
   10.8023  -19.4667   27.7576 O   0  0  0  0  0  0  0  0  0  0  0  0
  2  1  1  6
  2  3  1  0
  2  9  1  0
  4  3  1  0
  4  5  2  0
  6  5  1  0
  7  6  1  0
  8  7  2  0
  8  4  1  0
  9 10  2  0
 12 11  1  0
 13 12  1  0
 15 14  1  1
 14 13  1  0
 16 15  1  0
 16  9  1  0
 17 18  2  0
 17 15  1  0
 19 17  1  0
 20 24  1  0
 20 19  1  0
 20 21  1  1
 22 23  2  0
 22 21  1  0
 24 27  1  0
 25 24  2  0
 26 22  1  0
M  END
$$$$
