HMD.pdb
     RDKit          3D

 27 27  0  0  1  0  0  0  0  0999 V2000
   10.5289  -14.3584   20.3536 N   0  0  0  0  0  0  0  0  0  0  0  0
    9.2717  -14.0758   20.9866 C   0  0  1  0  0  0  0  0  0  0  0  0
    8.0877  -14.6131   20.2608 C   0  0  0  0  0  0  0  0  0  0  0  0
    8.0587  -14.3017   18.8282 C   0  0  0  0  0  0  0  0  0  0  0  0
    8.1019  -13.1039   18.1500 C   0  0  0  0  0  0  0  0  0  0  0  0
    8.0452  -13.3168   16.8312 N   0  0  0  0  0  0  0  0  0  0  0  0
    7.9661  -14.6424   16.6643 C   0  0  0  0  0  0  0  0  0  0  0  0
    7.9739  -15.2442   17.8709 N   0  0  0  0  0  0  0  0  0  0  0  0
    9.2631  -14.4584   22.4212 C   0  0  0  0  0  0  0  0  0  0  0  0
   10.3578  -14.7626   23.0033 O   0  0  0  0  0  0  0  0  0  0  0  0
    7.3198  -10.9908   27.3238 C   0  0  0  0  0  0  0  0  0  0  0  0
    5.9791  -11.8305   26.4755 S   0  0  0  0  0  0  0  0  0  0  0  0
    6.5160  -12.6782   24.9684 C   0  0  0  0  0  0  0  0  0  0  0  0
    6.8579  -14.1168   25.2304 C   0  0  0  0  0  0  0  0  0  0  0  0
    8.1878  -14.5503   24.6956 C   0  0  2  0  0  0  0  0  0  0  0  0
    8.1088  -14.5169   23.2252 N   0  0  0  0  0  0  0  0  0  0  0  0
    8.6624  -15.8487   25.1751 C   0  0  0  0  0  0  0  0  0  0  0  0
    8.8141  -16.0435   26.3954 O   0  0  0  0  0  0  0  0  0  0  0  0
    8.9458  -16.8762   24.2403 N   0  0  0  0  0  0  0  0  0  0  0  0
    9.5336  -18.1717   24.6444 C   0  0  1  0  0  0  0  0  0  0  0  0
    9.8312  -19.0034   23.4348 C   0  0  0  0  0  0  0  0  0  0  0  0
   10.3730  -20.3111   23.8466 C   0  0  0  0  0  0  0  0  0  0  0  0
   11.6261  -20.5165   23.6568 O   0  0  0  0  0  0  0  0  0  0  0  0
   10.7445  -17.9077   25.4645 C   0  0  0  0  0  0  0  0  0  0  0  0
   10.9802  -18.5615   26.4832 O   0  0  0  0  0  0  0  0  0  0  0  0
    9.6767  -21.3469   24.4144 O   0  0  0  0  0  0  0  0  0  0  0  0
   11.6301  -16.8991   25.0712 O   0  0  0  0  0  0  0  0  0  0  0  0
  2  1  1  6
  2  3  1  0
  2  9  1  0
  4  3  1  0
  4  5  2  0
  6  5  1  0
  7  6  1  0
  8  7  2  0
  8  4  1  0
  9 10  2  0
 12 11  1  0
 13 12  1  0
 15 14  1  1
 14 13  1  0
 16 15  1  0
 16  9  1  0
 17 18  2  0
 17 15  1  0
 19 17  1  0
 20 24  1  0
 20 19  1  0
 20 21  1  6
 22 23  2  0
 22 21  1  0
 24 27  1  0
 25 24  2  0
 26 22  1  0
M  END
$$$$
