HMD.pdb
     RDKit          3D

 27 27  0  0  1  0  0  0  0  0999 V2000
   10.6189  -13.3695   20.0740 N   0  0  0  0  0  0  0  0  0  0  0  0
    9.4093  -13.9234   20.6137 C   0  0  1  0  0  0  0  0  0  0  0  0
    8.8575  -15.0641   19.8316 C   0  0  0  0  0  0  0  0  0  0  0  0
    8.4189  -14.7175   18.4759 C   0  0  0  0  0  0  0  0  0  0  0  0
    8.4371  -13.5273   17.7833 C   0  0  0  0  0  0  0  0  0  0  0  0
    7.9234  -13.6960   16.5605 N   0  0  0  0  0  0  0  0  0  0  0  0
    7.5779  -14.9857   16.4690 C   0  0  0  0  0  0  0  0  0  0  0  0
    7.8759  -15.6096   17.6266 N   0  0  0  0  0  0  0  0  0  0  0  0
    9.5320  -14.2486   22.0571 C   0  0  0  0  0  0  0  0  0  0  0  0
   10.6570  -14.6241   22.5295 O   0  0  0  0  0  0  0  0  0  0  0  0
    5.5697  -10.9801   27.0501 C   0  0  0  0  0  0  0  0  0  0  0  0
    7.0095  -12.0500   26.9851 S   0  0  0  0  0  0  0  0  0  0  0  0
    7.4405  -12.5554   25.3008 C   0  0  0  0  0  0  0  0  0  0  0  0
    7.4760  -14.0501   25.1598 C   0  0  0  0  0  0  0  0  0  0  0  0
    8.6480  -14.5774   24.3913 C   0  0  2  0  0  0  0  0  0  0  0  0
    8.4753  -14.1761   22.9847 N   0  0  0  0  0  0  0  0  0  0  0  0
    8.8785  -16.0175   24.5108 C   0  0  0  0  0  0  0  0  0  0  0  0
    8.1140  -16.8190   23.9424 O   0  0  0  0  0  0  0  0  0  0  0  0
    9.9754  -16.4869   25.2764 N   0  0  0  0  0  0  0  0  0  0  0  0
   10.2986  -17.9252   25.3944 C   0  0  1  0  0  0  0  0  0  0  0  0
   11.6407  -18.2041   24.7909 C   0  0  0  0  0  0  0  0  0  0  0  0
   12.0143  -19.6104   25.0277 C   0  0  0  0  0  0  0  0  0  0  0  0
   11.4392  -20.5030   24.3059 O   0  0  0  0  0  0  0  0  0  0  0  0
   10.2288  -18.3108   26.8278 C   0  0  0  0  0  0  0  0  0  0  0  0
   10.3412  -19.4878   27.1782 O   0  0  0  0  0  0  0  0  0  0  0  0
   12.9176  -20.0766   25.9480 O   0  0  0  0  0  0  0  0  0  0  0  0
   10.0317  -17.3188   27.7939 O   0  0  0  0  0  0  0  0  0  0  0  0
  2  1  1  6
  2  3  1  0
  2  9  1  0
  4  3  1  0
  4  5  2  0
  6  5  1  0
  7  6  1  0
  8  7  2  0
  8  4  1  0
  9 10  2  0
 12 11  1  0
 13 12  1  0
 15 14  1  1
 14 13  1  0
 16 15  1  0
 16  9  1  0
 17 18  2  0
 17 15  1  0
 19 17  1  0
 20 24  1  0
 20 19  1  0
 20 21  1  1
 22 23  2  0
 22 21  1  0
 24 27  1  0
 25 24  2  0
 26 22  1  0
M  END
$$$$
