HMD.pdb
     RDKit          3D

 27 27  0  0  1  0  0  0  0  0999 V2000
    7.8819  -16.7020   20.7555 N   0  0  0  0  0  0  0  0  0  0  0  0
    9.2243  -16.2895   21.0537 C   0  0  1  0  0  0  0  0  0  0  0  0
    9.7826  -15.2908   20.1008 C   0  0  0  0  0  0  0  0  0  0  0  0
    8.7921  -14.3704   19.5334 C   0  0  0  0  0  0  0  0  0  0  0  0
    7.8012  -14.5556   18.5951 C   0  0  0  0  0  0  0  0  0  0  0  0
    7.1396  -13.4121   18.3894 N   0  0  0  0  0  0  0  0  0  0  0  0
    7.7020  -12.4993   19.1904 C   0  0  0  0  0  0  0  0  0  0  0  0
    8.7038  -13.0743   19.8859 N   0  0  0  0  0  0  0  0  0  0  0  0
    9.3817  -15.8573   22.4654 C   0  0  0  0  0  0  0  0  0  0  0  0
   10.4960  -15.3761   22.8611 O   0  0  0  0  0  0  0  0  0  0  0  0
    6.6506  -10.8541   26.0187 C   0  0  0  0  0  0  0  0  0  0  0  0
    7.0178  -12.5469   26.4897 S   0  0  0  0  0  0  0  0  0  0  0  0
    7.2890  -13.6342   25.0677 C   0  0  0  0  0  0  0  0  0  0  0  0
    7.4748  -15.0641   25.4875 C   0  0  0  0  0  0  0  0  0  0  0  0
    8.6581  -15.7467   24.8741 C   0  0  2  0  0  0  0  0  0  0  0  0
    8.3705  -15.9352   23.4419 N   0  0  0  0  0  0  0  0  0  0  0  0
    9.0542  -17.0042   25.5088 C   0  0  0  0  0  0  0  0  0  0  0  0
    8.2207  -17.9178   25.6529 O   0  0  0  0  0  0  0  0  0  0  0  0
   10.3896  -17.1696   25.9552 N   0  0  0  0  0  0  0  0  0  0  0  0
   10.8551  -18.4103   26.6118 C   0  0  1  0  0  0  0  0  0  0  0  0
   12.3375  -18.5536   26.4529 C   0  0  0  0  0  0  0  0  0  0  0  0
   12.7169  -18.3111   25.0492 C   0  0  0  0  0  0  0  0  0  0  0  0
   12.1787  -19.0591   24.1551 O   0  0  0  0  0  0  0  0  0  0  0  0
   10.4368  -18.3779   28.0374 C   0  0  0  0  0  0  0  0  0  0  0  0
   10.4725  -19.3935   28.7361 O   0  0  0  0  0  0  0  0  0  0  0  0
   13.5949  -17.3646   24.5873 O   0  0  0  0  0  0  0  0  0  0  0  0
    9.9951  -17.1728   28.5932 O   0  0  0  0  0  0  0  0  0  0  0  0
  2  1  1  6
  2  3  1  0
  2  9  1  0
  4  3  1  0
  4  5  2  0
  6  5  1  0
  7  6  1  0
  8  7  2  0
  8  4  1  0
  9 10  2  0
 12 11  1  0
 13 12  1  0
 15 14  1  1
 14 13  1  0
 16 15  1  0
 16  9  1  0
 17 18  2  0
 17 15  1  0
 19 17  1  0
 20 24  1  0
 20 19  1  0
 20 21  1  1
 22 23  2  0
 22 21  1  0
 24 27  1  0
 25 24  2  0
 26 22  1  0
M  END
$$$$
