HMD.pdb
     RDKit          3D

 27 27  0  0  1  0  0  0  0  0999 V2000
    8.1210  -14.3996   19.4156 N   0  0  0  0  0  0  0  0  0  0  0  0
    7.6378  -14.9454   20.6525 C   0  0  1  0  0  0  0  0  0  0  0  0
    7.4925  -16.4273   20.6511 C   0  0  0  0  0  0  0  0  0  0  0  0
    7.5327  -17.0420   19.3204 C   0  0  0  0  0  0  0  0  0  0  0  0
    6.7031  -16.9174   18.2282 C   0  0  0  0  0  0  0  0  0  0  0  0
    7.1424  -17.6831   17.2241 N   0  0  0  0  0  0  0  0  0  0  0  0
    8.2465  -18.2950   17.6689 C   0  0  0  0  0  0  0  0  0  0  0  0
    8.4878  -17.9103   18.9385 N   0  0  0  0  0  0  0  0  0  0  0  0
    8.4147  -14.4655   21.8232 C   0  0  0  0  0  0  0  0  0  0  0  0
    8.9213  -13.2938   21.8114 O   0  0  0  0  0  0  0  0  0  0  0  0
    7.5343  -11.7705   27.5851 C   0  0  0  0  0  0  0  0  0  0  0  0
    7.0539  -12.0423   25.8770 S   0  0  0  0  0  0  0  0  0  0  0  0
    6.3724  -13.6946   25.5877 C   0  0  0  0  0  0  0  0  0  0  0  0
    6.8748  -14.2870   24.3025 C   0  0  0  0  0  0  0  0  0  0  0  0
    8.3125  -14.7051   24.3272 C   0  0  2  0  0  0  0  0  0  0  0  0
    8.6499  -15.2193   22.9889 N   0  0  0  0  0  0  0  0  0  0  0  0
    8.6675  -15.6651   25.3728 C   0  0  0  0  0  0  0  0  0  0  0  0
    8.5418  -15.3539   26.5717 O   0  0  0  0  0  0  0  0  0  0  0  0
    9.1533  -16.9460   25.0076 N   0  0  0  0  0  0  0  0  0  0  0  0
    9.5706  -17.9484   26.0117 C   0  0  1  0  0  0  0  0  0  0  0  0
    9.7492  -19.2863   25.3624 C   0  0  0  0  0  0  0  0  0  0  0  0
   10.2799  -20.2519   26.3418 C   0  0  0  0  0  0  0  0  0  0  0  0
    9.4625  -21.1216   26.8149 O   0  0  0  0  0  0  0  0  0  0  0  0
   10.8112  -17.4680   26.6740 C   0  0  0  0  0  0  0  0  0  0  0  0
   11.6365  -16.7843   26.0640 O   0  0  0  0  0  0  0  0  0  0  0  0
   11.5661  -20.3226   26.8116 O   0  0  0  0  0  0  0  0  0  0  0  0
   11.0437  -17.7993   28.0128 O   0  0  0  0  0  0  0  0  0  0  0  0
  2  1  1  6
  2  3  1  0
  2  9  1  0
  4  3  1  0
  4  5  2  0
  6  5  1  0
  7  6  1  0
  8  7  2  0
  8  4  1  0
  9 10  2  0
 12 11  1  0
 13 12  1  0
 15 14  1  6
 14 13  1  0
 16 15  1  0
 16  9  1  0
 17 18  2  0
 17 15  1  0
 19 17  1  0
 20 24  1  0
 20 19  1  0
 20 21  1  6
 22 23  2  0
 22 21  1  0
 24 27  1  0
 25 24  2  0
 26 22  1  0
M  END
$$$$
