HMD.pdb
     RDKit          3D

 27 27  0  0  1  0  0  0  0  0999 V2000
    7.9666  -16.2927   20.9435 N   0  0  0  0  0  0  0  0  0  0  0  0
    9.1395  -15.6258   21.4342 C   0  0  1  0  0  0  0  0  0  0  0  0
    9.4950  -14.3870   20.6884 C   0  0  0  0  0  0  0  0  0  0  0  0
    8.6537  -14.1182   19.5178 C   0  0  0  0  0  0  0  0  0  0  0  0
    7.6378  -14.8419   18.9341 C   0  0  0  0  0  0  0  0  0  0  0  0
    7.1591  -14.1907   17.8689 N   0  0  0  0  0  0  0  0  0  0  0  0
    7.8631  -13.0568   17.7698 C   0  0  0  0  0  0  0  0  0  0  0  0
    8.7700  -13.0074   18.7663 N   0  0  0  0  0  0  0  0  0  0  0  0
    9.0860  -15.3946   22.8998 C   0  0  0  0  0  0  0  0  0  0  0  0
   10.0820  -14.8621   23.4950 O   0  0  0  0  0  0  0  0  0  0  0  0
    6.7589  -10.9361   26.5601 C   0  0  0  0  0  0  0  0  0  0  0  0
    7.3191  -12.6415   26.5485 S   0  0  0  0  0  0  0  0  0  0  0  0
    6.3503  -13.6972   25.4417 C   0  0  0  0  0  0  0  0  0  0  0  0
    6.6704  -15.1514   25.6376 C   0  0  0  0  0  0  0  0  0  0  0  0
    8.0385  -15.5566   25.1833 C   0  0  2  0  0  0  0  0  0  0  0  0
    7.9907  -15.7242   23.7208 N   0  0  0  0  0  0  0  0  0  0  0  0
    8.5900  -16.7430   25.8386 C   0  0  0  0  0  0  0  0  0  0  0  0
    7.8332  -17.5357   26.4293 O   0  0  0  0  0  0  0  0  0  0  0  0
    9.9873  -16.9783   25.7937 N   0  0  0  0  0  0  0  0  0  0  0  0
   10.6041  -18.1875   26.3807 C   0  0  1  0  0  0  0  0  0  0  0  0
    9.9487  -19.4185   25.8344 C   0  0  0  0  0  0  0  0  0  0  0  0
    9.5210  -20.2922   26.9421 C   0  0  0  0  0  0  0  0  0  0  0  0
    8.8747  -19.7463   27.9079 O   0  0  0  0  0  0  0  0  0  0  0  0
   12.0649  -18.1536   26.1099 C   0  0  0  0  0  0  0  0  0  0  0  0
   12.8821  -18.0594   27.0286 O   0  0  0  0  0  0  0  0  0  0  0  0
    9.7430  -21.6403   27.0578 O   0  0  0  0  0  0  0  0  0  0  0  0
   12.5173  -18.2299   24.7886 O   0  0  0  0  0  0  0  0  0  0  0  0
  2  1  1  6
  2  3  1  0
  2  9  1  0
  4  3  1  0
  4  5  2  0
  6  5  1  0
  7  6  1  0
  8  7  2  0
  8  4  1  0
  9 10  2  0
 12 11  1  0
 13 12  1  0
 15 14  1  1
 14 13  1  0
 16 15  1  0
 16  9  1  0
 17 18  2  0
 17 15  1  0
 19 17  1  0
 20 24  1  0
 20 19  1  0
 20 21  1  6
 22 23  2  0
 22 21  1  0
 24 27  1  0
 25 24  2  0
 26 22  1  0
M  END
$$$$
