HMD.pdb
     RDKit          3D

 27 27  0  0  1  0  0  0  0  0999 V2000
    8.7390  -12.6471   19.2798 N   0  0  0  0  0  0  0  0  0  0  0  0
    8.1529  -13.8153   19.8740 C   0  0  1  0  0  0  0  0  0  0  0  0
    8.4222  -15.0783   19.1326 C   0  0  0  0  0  0  0  0  0  0  0  0
    7.9405  -15.0861   17.7476 C   0  0  0  0  0  0  0  0  0  0  0  0
    7.3988  -14.0944   16.9604 C   0  0  0  0  0  0  0  0  0  0  0  0
    7.1021  -14.5759   15.7489 N   0  0  0  0  0  0  0  0  0  0  0  0
    7.4509  -15.8679   15.7586 C   0  0  0  0  0  0  0  0  0  0  0  0
    7.9596  -16.1826   16.9670 N   0  0  0  0  0  0  0  0  0  0  0  0
    8.4794  -13.9391   21.3170 C   0  0  0  0  0  0  0  0  0  0  0  0
    9.6634  -13.6888   21.7235 O   0  0  0  0  0  0  0  0  0  0  0  0
    7.6171  -12.2611   28.4374 C   0  0  0  0  0  0  0  0  0  0  0  0
    7.3670  -12.2699   26.6599 S   0  0  0  0  0  0  0  0  0  0  0  0
    6.9342  -13.9051   26.0141 C   0  0  0  0  0  0  0  0  0  0  0  0
    6.7468  -13.8837   24.5242 C   0  0  0  0  0  0  0  0  0  0  0  0
    7.9312  -14.3551   23.7386 C   0  0  2  0  0  0  0  0  0  0  0  0
    7.5616  -14.3232   22.3133 N   0  0  0  0  0  0  0  0  0  0  0  0
    8.4572  -15.6650   24.1243 C   0  0  0  0  0  0  0  0  0  0  0  0
    7.7379  -16.6767   24.0291 O   0  0  0  0  0  0  0  0  0  0  0  0
    9.7870  -15.7685   24.6046 N   0  0  0  0  0  0  0  0  0  0  0  0
   10.3379  -17.0329   25.1386 C   0  0  1  0  0  0  0  0  0  0  0  0
   11.8320  -17.0301   25.0339 C   0  0  0  0  0  0  0  0  0  0  0  0
   12.2350  -16.9819   23.6166 C   0  0  0  0  0  0  0  0  0  0  0  0
   13.2190  -16.2166   23.3090 O   0  0  0  0  0  0  0  0  0  0  0  0
    9.8666  -17.2018   26.5378 C   0  0  0  0  0  0  0  0  0  0  0  0
    9.3489  -16.2674   27.1539 O   0  0  0  0  0  0  0  0  0  0  0  0
   11.6655  -17.6707   22.5767 O   0  0  0  0  0  0  0  0  0  0  0  0
   10.0147  -18.4437   27.1639 O   0  0  0  0  0  0  0  0  0  0  0  0
  2  1  1  6
  2  3  1  0
  2  9  1  0
  4  3  1  0
  4  5  2  0
  6  5  1  0
  7  6  1  0
  8  7  2  0
  8  4  1  0
  9 10  2  0
 12 11  1  0
 13 12  1  0
 15 14  1  1
 14 13  1  0
 16 15  1  0
 16  9  1  0
 17 18  2  0
 17 15  1  0
 19 17  1  0
 20 24  1  0
 20 19  1  0
 20 21  1  1
 22 23  2  0
 22 21  1  0
 24 27  1  0
 25 24  2  0
 26 22  1  0
M  END
$$$$
