HMD.pdb
     RDKit          3D

 27 27  0  0  1  0  0  0  0  0999 V2000
    8.1980  -16.7506   20.6014 N   0  0  0  0  0  0  0  0  0  0  0  0
    9.4126  -16.0951   20.9966 C   0  0  1  0  0  0  0  0  0  0  0  0
    9.9547  -15.1495   19.9821 C   0  0  0  0  0  0  0  0  0  0  0  0
    8.9350  -14.4721   19.1748 C   0  0  0  0  0  0  0  0  0  0  0  0
    8.0539  -13.4572   19.4751 C   0  0  0  0  0  0  0  0  0  0  0  0
    7.3029  -13.1658   18.4080 N   0  0  0  0  0  0  0  0  0  0  0  0
    7.6995  -13.9882   17.4295 C   0  0  0  0  0  0  0  0  0  0  0  0
    8.6882  -14.7819   17.8883 N   0  0  0  0  0  0  0  0  0  0  0  0
    9.3048  -15.4674   22.3378 C   0  0  0  0  0  0  0  0  0  0  0  0
   10.3242  -14.9010   22.8571 O   0  0  0  0  0  0  0  0  0  0  0  0
    6.7980  -11.4385   27.8677 C   0  0  0  0  0  0  0  0  0  0  0  0
    7.0495  -12.1220   26.2270 S   0  0  0  0  0  0  0  0  0  0  0  0
    6.4239  -13.8128   26.0611 C   0  0  0  0  0  0  0  0  0  0  0  0
    6.6765  -14.3679   24.6887 C   0  0  0  0  0  0  0  0  0  0  0  0
    8.0901  -14.7932   24.4373 C   0  0  2  0  0  0  0  0  0  0  0  0
    8.1315  -15.4420   23.1157 N   0  0  0  0  0  0  0  0  0  0  0  0
    8.6803  -15.6463   25.4692 C   0  0  0  0  0  0  0  0  0  0  0  0
    8.7296  -15.2518   26.6491 O   0  0  0  0  0  0  0  0  0  0  0  0
    9.1922  -16.9194   25.1128 N   0  0  0  0  0  0  0  0  0  0  0  0
    9.7502  -17.8548   26.1132 C   0  0  1  0  0  0  0  0  0  0  0  0
    9.4854  -19.2702   25.7007 C   0  0  0  0  0  0  0  0  0  0  0  0
   10.0461  -20.1969   26.7008 C   0  0  0  0  0  0  0  0  0  0  0  0
   10.2972  -19.7238   27.8677 O   0  0  0  0  0  0  0  0  0  0  0  0
   11.2003  -17.5706   26.2709 C   0  0  0  0  0  0  0  0  0  0  0  0
   11.8701  -17.1311   25.3334 O   0  0  0  0  0  0  0  0  0  0  0  0
   10.3356  -21.5248   26.5190 O   0  0  0  0  0  0  0  0  0  0  0  0
   11.8130  -17.8073   27.5058 O   0  0  0  0  0  0  0  0  0  0  0  0
  2  1  1  6
  2  3  1  0
  2  9  1  0
  4  3  1  0
  4  5  2  0
  6  5  1  0
  7  6  1  0
  8  7  2  0
  8  4  1  0
  9 10  2  0
 12 11  1  0
 13 12  1  0
 15 14  1  1
 14 13  1  0
 16 15  1  0
 16  9  1  0
 17 18  2  0
 17 15  1  0
 19 17  1  0
 20 24  1  0
 20 19  1  0
 20 21  1  6
 22 23  2  0
 22 21  1  0
 24 27  1  0
 25 24  2  0
 26 22  1  0
M  END
$$$$
