HFA.pdb
     RDKit          3D

 27 28  0  0  1  0  0  0  0  0999 V2000
   27.8624  -20.9574  -15.1875 N   0  0  0  0  0  0  0  0  0  0  0  0
   26.7396  -20.0620  -15.0570 C   0  0  1  0  0  0  0  0  0  0  0  0
   26.2800  -19.5376  -16.3951 C   0  0  0  0  0  0  0  0  0  0  0  0
   27.3715  -18.7298  -16.9657 C   0  0  0  0  0  0  0  0  0  0  0  0
   27.6985  -17.4548  -16.5890 C   0  0  0  0  0  0  0  0  0  0  0  0
   28.7468  -17.0530  -17.3355 N   0  0  0  0  0  0  0  0  0  0  0  0
   29.0796  -18.0525  -18.1699 C   0  0  0  0  0  0  0  0  0  0  0  0
   28.2200  -19.0865  -17.9313 N   0  0  0  0  0  0  0  0  0  0  0  0
   25.6599  -20.6597  -14.2614 C   0  0  0  0  0  0  0  0  0  0  0  0
   25.2829  -21.8282  -14.6017 O   0  0  0  0  0  0  0  0  0  0  0  0
   25.0391  -20.0073  -13.1626 N   0  0  0  0  0  0  0  0  0  0  0  0
   24.1105  -20.7277  -12.3605 C   0  0  1  0  0  0  0  0  0  0  0  0
   24.0706  -20.2702  -10.9271 C   0  0  0  0  0  0  0  0  0  0  0  0
   25.3435  -20.4495  -10.2094 C   0  0  0  0  0  0  0  0  0  0  0  0
   25.5699  -19.9968   -8.9336 C   0  0  0  0  0  0  0  0  0  0  0  0
   26.7902  -20.1878   -8.2925 C   0  0  0  0  0  0  0  0  0  0  0  0
   27.8243  -20.8442   -8.9213 C   0  0  0  0  0  0  0  0  0  0  0  0
   27.6063  -21.3024  -10.2025 C   0  0  0  0  0  0  0  0  0  0  0  0
   26.3863  -21.1058  -10.8300 C   0  0  0  0  0  0  0  0  0  0  0  0
   22.7960  -20.7702  -13.0254 C   0  0  0  0  0  0  0  0  0  0  0  0
   22.3016  -19.7476  -13.5778 O   0  0  0  0  0  0  0  0  0  0  0  0
   20.4559  -23.3655  -14.2439 C   0  0  0  0  0  0  0  0  0  0  0  0
   20.7465  -21.9438  -13.7611 C   0  0  2  0  0  0  0  0  0  0  0  0
   22.0228  -21.9630  -13.0794 N   0  0  0  0  0  0  0  0  0  0  0  0
   19.6944  -21.6046  -12.7874 C   0  0  0  0  0  0  0  0  0  0  0  0
   19.9564  -21.5912  -11.5784 O   0  0  0  0  0  0  0  0  0  0  0  0
   18.4205  -21.3020  -13.2253 O   0  0  0  0  0  0  0  0  0  0  0  0
  2  1  1  6
  2  9  1  0
  2  3  1  0
  3  4  1  0
  4  5  2  0
  5  6  1  0
  7  6  1  0
  8  4  1  0
  8  7  2  0
  9 10  2  0
 11  9  1  0
 11 12  1  0
 12 13  1  1
 13 14  1  0
 14 15  2  0
 15 16  1  0
 17 16  2  0
 18 17  1  0
 19 14  1  0
 19 18  2  0
 20 21  2  0
 20 12  1  0
 23 22  1  1
 23 25  1  0
 23 24  1  0
 24 20  1  0
 25 27  1  0
 26 25  2  0
M  END
$$$$
