HFA.pdb
     RDKit          3D

 27 28  0  0  1  0  0  0  0  0999 V2000
   32.8291  -29.8846  -17.9308 N   0  0  0  0  0  0  0  0  0  0  0  0
   32.0911  -30.2616  -19.1108 C   0  0  1  0  0  0  0  0  0  0  0  0
   32.8805  -31.1970  -19.9930 C   0  0  0  0  0  0  0  0  0  0  0  0
   34.0424  -30.4572  -20.5148 C   0  0  0  0  0  0  0  0  0  0  0  0
   34.0124  -29.5476  -21.5377 C   0  0  0  0  0  0  0  0  0  0  0  0
   35.2653  -29.0862  -21.7251 N   0  0  0  0  0  0  0  0  0  0  0  0
   36.0753  -29.6902  -20.8392 C   0  0  0  0  0  0  0  0  0  0  0  0
   35.3059  -30.5378  -20.0945 N   0  0  0  0  0  0  0  0  0  0  0  0
   30.7531  -30.7648  -18.7750 C   0  0  0  0  0  0  0  0  0  0  0  0
   30.6087  -31.2629  -17.6112 O   0  0  0  0  0  0  0  0  0  0  0  0
   29.6491  -30.7196  -19.6680 N   0  0  0  0  0  0  0  0  0  0  0  0
   28.3754  -31.1708  -19.2223 C   0  0  1  0  0  0  0  0  0  0  0  0
   27.3094  -30.1093  -19.2709 C   0  0  0  0  0  0  0  0  0  0  0  0
   27.3822  -29.1413  -18.1640 C   0  0  0  0  0  0  0  0  0  0  0  0
   28.3467  -28.1701  -18.0625 C   0  0  0  0  0  0  0  0  0  0  0  0
   28.3783  -27.2751  -16.9973 C   0  0  0  0  0  0  0  0  0  0  0  0
   27.4337  -27.3326  -15.9972 C   0  0  0  0  0  0  0  0  0  0  0  0
   26.4613  -28.3044  -16.0906 C   0  0  0  0  0  0  0  0  0  0  0  0
   26.4409  -29.1898  -17.1567 C   0  0  0  0  0  0  0  0  0  0  0  0
   28.0181  -32.4274  -19.9042 C   0  0  0  0  0  0  0  0  0  0  0  0
   28.2281  -32.5921  -21.1388 O   0  0  0  0  0  0  0  0  0  0  0  0
   26.6829  -35.7823  -18.9091 C   0  0  0  0  0  0  0  0  0  0  0  0
   27.1019  -34.7251  -19.9315 C   0  0  2  0  0  0  0  0  0  0  0  0
   27.4231  -33.5147  -19.2062 N   0  0  0  0  0  0  0  0  0  0  0  0
   25.9265  -34.4699  -20.7820 C   0  0  0  0  0  0  0  0  0  0  0  0
   25.8480  -34.9989  -21.8976 O   0  0  0  0  0  0  0  0  0  0  0  0
   24.9163  -33.6429  -20.3329 O   0  0  0  0  0  0  0  0  0  0  0  0
  2  1  1  1
  2  9  1  0
  2  3  1  0
  3  4  1  0
  4  5  2  0
  5  6  1  0
  7  6  1  0
  8  4  1  0
  8  7  2  0
  9 10  2  0
 11  9  1  0
 11 12  1  0
 12 13  1  6
 13 14  1  0
 14 15  2  0
 15 16  1  0
 17 16  2  0
 18 17  1  0
 19 14  1  0
 19 18  2  0
 20 21  2  0
 20 12  1  0
 23 22  1  1
 23 25  1  0
 23 24  1  0
 24 20  1  0
 25 27  1  0
 26 25  2  0
M  END
$$$$
