HFA.pdb
     RDKit          3D

 27 28  0  0  1  0  0  0  0  0999 V2000
   26.0909  -21.8749  -12.8528 N   0  0  0  0  0  0  0  0  0  0  0  0
   25.5687  -20.8314  -12.0055 C   0  0  1  0  0  0  0  0  0  0  0  0
   24.0814  -20.6521  -12.1858 C   0  0  0  0  0  0  0  0  0  0  0  0
   23.8640  -19.8643  -13.4112 C   0  0  0  0  0  0  0  0  0  0  0  0
   24.8456  -19.2798  -14.1658 C   0  0  0  0  0  0  0  0  0  0  0  0
   24.2578  -18.6494  -15.2025 N   0  0  0  0  0  0  0  0  0  0  0  0
   22.9294  -18.8295  -15.1089 C   0  0  0  0  0  0  0  0  0  0  0  0
   22.6975  -19.5842  -13.9945 N   0  0  0  0  0  0  0  0  0  0  0  0
   25.9692  -21.0195  -10.6054 C   0  0  0  0  0  0  0  0  0  0  0  0
   25.7232  -22.1594  -10.0920 O   0  0  0  0  0  0  0  0  0  0  0  0
   26.5997  -20.0130   -9.8260 N   0  0  0  0  0  0  0  0  0  0  0  0
   26.9780  -20.3061   -8.4860 C   0  0  1  0  0  0  0  0  0  0  0  0
   28.1070  -19.4503   -7.9777 C   0  0  0  0  0  0  0  0  0  0  0  0
   28.4143  -19.6551   -6.5525 C   0  0  0  0  0  0  0  0  0  0  0  0
   27.9486  -18.8443   -5.5478 C   0  0  0  0  0  0  0  0  0  0  0  0
   28.2648  -19.0746   -4.2123 C   0  0  0  0  0  0  0  0  0  0  0  0
   29.0641  -20.1347   -3.8475 C   0  0  0  0  0  0  0  0  0  0  0  0
   29.5364  -20.9543   -4.8494 C   0  0  0  0  0  0  0  0  0  0  0  0
   29.2142  -20.7142   -6.1758 C   0  0  0  0  0  0  0  0  0  0  0  0
   25.7871  -20.3253   -7.6182 C   0  0  0  0  0  0  0  0  0  0  0  0
   24.8986  -19.4309   -7.6955 O   0  0  0  0  0  0  0  0  0  0  0  0
   23.7732  -22.7287   -5.8684 C   0  0  0  0  0  0  0  0  0  0  0  0
   24.3794  -21.3249   -5.8466 C   0  0  2  0  0  0  0  0  0  0  0  0
   25.5793  -21.3513   -6.6550 N   0  0  0  0  0  0  0  0  0  0  0  0
   24.7554  -21.0483   -4.4494 C   0  0  0  0  0  0  0  0  0  0  0  0
   25.9450  -21.0915   -4.1125 O   0  0  0  0  0  0  0  0  0  0  0  0
   23.7813  -20.7411   -3.5205 O   0  0  0  0  0  0  0  0  0  0  0  0
  2  1  1  6
  2  9  1  0
  2  3  1  0
  3  4  1  0
  4  5  2  0
  5  6  1  0
  7  6  1  0
  8  4  1  0
  8  7  2  0
  9 10  2  0
 11  9  1  0
 11 12  1  0
 12 13  1  1
 13 14  1  0
 14 15  2  0
 15 16  1  0
 17 16  2  0
 18 17  1  0
 19 14  1  0
 19 18  2  0
 20 21  2  0
 20 12  1  0
 23 22  1  1
 23 25  1  0
 23 24  1  0
 24 20  1  0
 25 27  1  0
 26 25  2  0
M  END
$$$$
