HFA.pdb
     RDKit          3D

 27 28  0  0  1  0  0  0  0  0999 V2000
   27.4353  -19.8315  -17.6192 N   0  0  0  0  0  0  0  0  0  0  0  0
   26.9735  -19.2345  -16.3905 C   0  0  1  0  0  0  0  0  0  0  0  0
   26.4118  -17.8519  -16.6133 C   0  0  0  0  0  0  0  0  0  0  0  0
   27.5008  -16.9937  -17.1101 C   0  0  0  0  0  0  0  0  0  0  0  0
   27.7948  -16.7640  -18.4274 C   0  0  0  0  0  0  0  0  0  0  0  0
   28.8526  -15.9298  -18.4815 N   0  0  0  0  0  0  0  0  0  0  0  0
   29.2235  -15.6351  -17.2240 C   0  0  0  0  0  0  0  0  0  0  0  0
   28.3782  -16.3004  -16.3827 N   0  0  0  0  0  0  0  0  0  0  0  0
   26.0601  -20.1264  -15.6650 C   0  0  0  0  0  0  0  0  0  0  0  0
   25.1797  -20.7279  -16.3623 O   0  0  0  0  0  0  0  0  0  0  0  0
   26.1178  -20.3381  -14.2613 N   0  0  0  0  0  0  0  0  0  0  0  0
   25.2337  -21.2789  -13.6631 C   0  0  1  0  0  0  0  0  0  0  0  0
   25.8110  -21.9630  -12.4530 C   0  0  0  0  0  0  0  0  0  0  0  0
   25.6188  -21.2165  -11.1987 C   0  0  0  0  0  0  0  0  0  0  0  0
   26.4078  -20.1629  -10.8098 C   0  0  0  0  0  0  0  0  0  0  0  0
   26.1906  -19.4852   -9.6139 C   0  0  0  0  0  0  0  0  0  0  0  0
   25.1661  -19.8509   -8.7698 C   0  0  0  0  0  0  0  0  0  0  0  0
   24.3685  -20.9076   -9.1520 C   0  0  0  0  0  0  0  0  0  0  0  0
   24.5954  -21.5744  -10.3456 C   0  0  0  0  0  0  0  0  0  0  0  0
   23.9131  -20.6624  -13.4448 C   0  0  0  0  0  0  0  0  0  0  0  0
   23.7972  -19.5085  -12.9443 O   0  0  0  0  0  0  0  0  0  0  0  0
   20.5339  -20.8851  -14.7121 C   0  0  0  0  0  0  0  0  0  0  0  0
   21.4402  -20.7005  -13.4942 C   0  0  2  0  0  0  0  0  0  0  0  0
   22.7074  -21.3342  -13.7887 N   0  0  0  0  0  0  0  0  0  0  0  0
   20.8000  -21.4176  -12.3780 C   0  0  0  0  0  0  0  0  0  0  0  0
   21.2603  -22.5014  -11.9986 O   0  0  0  0  0  0  0  0  0  0  0  0
   19.6900  -20.8793  -11.7582 O   0  0  0  0  0  0  0  0  0  0  0  0
  2  1  1  6
  2  9  1  0
  2  3  1  0
  3  4  1  0
  4  5  2  0
  5  6  1  0
  7  6  1  0
  8  4  1  0
  8  7  2  0
  9 10  2  0
 11  9  1  0
 11 12  1  0
 12 13  1  1
 13 14  1  0
 14 15  2  0
 15 16  1  0
 17 16  2  0
 18 17  1  0
 19 14  1  0
 19 18  2  0
 20 21  2  0
 20 12  1  0
 23 22  1  6
 23 25  1  0
 23 24  1  0
 24 20  1  0
 25 27  1  0
 26 25  2  0
M  END
$$$$
