HFA.pdb
     RDKit          3D

 27 28  0  0  1  0  0  0  0  0999 V2000
   28.4631  -20.1511  -14.3142 N   0  0  0  0  0  0  0  0  0  0  0  0
   27.1552  -19.5712  -14.4950 C   0  0  1  0  0  0  0  0  0  0  0  0
   26.8373  -19.3438  -15.9523 C   0  0  0  0  0  0  0  0  0  0  0  0
   27.8289  -18.3974  -16.4913 C   0  0  0  0  0  0  0  0  0  0  0  0
   27.9604  -17.0859  -16.1207 C   0  0  0  0  0  0  0  0  0  0  0  0
   28.9727  -16.5491  -16.8312 N   0  0  0  0  0  0  0  0  0  0  0  0
   29.4747  -17.5001  -17.6370 C   0  0  0  0  0  0  0  0  0  0  0  0
   28.7575  -18.6414  -17.4174 N   0  0  0  0  0  0  0  0  0  0  0  0
   26.1217  -20.3338  -13.7835 C   0  0  0  0  0  0  0  0  0  0  0  0
   25.7408  -21.4207  -14.3285 O   0  0  0  0  0  0  0  0  0  0  0  0
   25.5482  -19.9208  -12.5511 N   0  0  0  0  0  0  0  0  0  0  0  0
   24.6001  -20.7646  -11.9078 C   0  0  1  0  0  0  0  0  0  0  0  0
   24.5230  -20.5587  -10.4188 C   0  0  0  0  0  0  0  0  0  0  0  0
   25.8242  -20.6539   -9.7365 C   0  0  0  0  0  0  0  0  0  0  0  0
   26.1999  -19.8435   -8.6944 C   0  0  0  0  0  0  0  0  0  0  0  0
   27.4414  -19.9679   -8.0783 C   0  0  0  0  0  0  0  0  0  0  0  0
   28.3463  -20.9179   -8.4961 C   0  0  0  0  0  0  0  0  0  0  0  0
   27.9778  -21.7363   -9.5417 C   0  0  0  0  0  0  0  0  0  0  0  0
   26.7382  -21.6022  -10.1469 C   0  0  0  0  0  0  0  0  0  0  0  0
   23.3031  -20.6885  -12.6033 C   0  0  0  0  0  0  0  0  0  0  0  0
   22.8386  -19.5891  -13.0168 O   0  0  0  0  0  0  0  0  0  0  0  0
   20.8034  -23.0431  -14.0370 C   0  0  0  0  0  0  0  0  0  0  0  0
   21.2023  -21.6946  -13.4361 C   0  0  2  0  0  0  0  0  0  0  0  0
   22.5141  -21.8472  -12.8446 N   0  0  0  0  0  0  0  0  0  0  0  0
   20.2314  -21.4042  -12.3669 C   0  0  0  0  0  0  0  0  0  0  0  0
   20.5715  -21.5092  -11.1821 O   0  0  0  0  0  0  0  0  0  0  0  0
   18.9463  -21.0154  -12.6887 O   0  0  0  0  0  0  0  0  0  0  0  0
  2  1  1  6
  2  9  1  0
  2  3  1  0
  3  4  1  0
  4  5  2  0
  5  6  1  0
  7  6  1  0
  8  4  1  0
  8  7  2  0
  9 10  2  0
 11  9  1  0
 11 12  1  0
 12 13  1  1
 13 14  1  0
 14 15  2  0
 15 16  1  0
 17 16  2  0
 18 17  1  0
 19 14  1  0
 19 18  2  0
 20 21  2  0
 20 12  1  0
 23 22  1  1
 23 25  1  0
 23 24  1  0
 24 20  1  0
 25 27  1  0
 26 25  2  0
M  END
$$$$
