HFA.pdb
     RDKit          3D

 27 28  0  0  1  0  0  0  0  0999 V2000
   24.8255  -20.9542  -14.4981 N   0  0  0  0  0  0  0  0  0  0  0  0
   24.1458  -20.3337  -13.3880 C   0  0  1  0  0  0  0  0  0  0  0  0
   22.6654  -20.6247  -13.4011 C   0  0  0  0  0  0  0  0  0  0  0  0
   22.0830  -19.9638  -14.5816 C   0  0  0  0  0  0  0  0  0  0  0  0
   21.4658  -20.5994  -15.6255 C   0  0  0  0  0  0  0  0  0  0  0  0
   21.0668  -19.6628  -16.5095 N   0  0  0  0  0  0  0  0  0  0  0  0
   21.4231  -18.4563  -16.0371 C   0  0  0  0  0  0  0  0  0  0  0  0
   22.0522  -18.6557  -14.8415 N   0  0  0  0  0  0  0  0  0  0  0  0
   24.7930  -20.6540  -12.1094 C   0  0  0  0  0  0  0  0  0  0  0  0
   25.1299  -21.8699  -11.9316 O   0  0  0  0  0  0  0  0  0  0  0  0
   25.0499  -19.6925  -11.0956 N   0  0  0  0  0  0  0  0  0  0  0  0
   25.7206  -20.0969   -9.9076 C   0  0  1  0  0  0  0  0  0  0  0  0
   26.7833  -19.1309   -9.4572 C   0  0  0  0  0  0  0  0  0  0  0  0
   27.4573  -19.5266   -8.2095 C   0  0  0  0  0  0  0  0  0  0  0  0
   28.3498  -20.5656   -8.1212 C   0  0  0  0  0  0  0  0  0  0  0  0
   28.9639  -20.9059   -6.9197 C   0  0  0  0  0  0  0  0  0  0  0  0
   28.6955  -20.2055   -5.7651 C   0  0  0  0  0  0  0  0  0  0  0  0
   27.8008  -19.1606   -5.8440 C   0  0  0  0  0  0  0  0  0  0  0  0
   27.1958  -18.8317   -7.0468 C   0  0  0  0  0  0  0  0  0  0  0  0
   24.7374  -20.4520   -8.8689 C   0  0  0  0  0  0  0  0  0  0  0  0
   23.7885  -19.6759   -8.5645 O   0  0  0  0  0  0  0  0  0  0  0  0
   24.1396  -20.8031   -6.0275 C   0  0  0  0  0  0  0  0  0  0  0  0
   23.9049  -21.9122   -7.0540 C   0  0  2  0  0  0  0  0  0  0  0  0
   24.8074  -21.6843   -8.1619 N   0  0  0  0  0  0  0  0  0  0  0  0
   22.5199  -21.7598   -7.5321 C   0  0  0  0  0  0  0  0  0  0  0  0
   21.5760  -21.9938   -6.7675 O   0  0  0  0  0  0  0  0  0  0  0  0
   22.2785  -21.3559   -8.8302 O   0  0  0  0  0  0  0  0  0  0  0  0
  2  1  1  6
  2  9  1  0
  2  3  1  0
  3  4  1  0
  4  5  2  0
  5  6  1  0
  7  6  1  0
  8  4  1  0
  8  7  2  0
  9 10  2  0
 11  9  1  0
 11 12  1  0
 12 13  1  1
 13 14  1  0
 14 15  2  0
 15 16  1  0
 17 16  2  0
 18 17  1  0
 19 14  1  0
 19 18  2  0
 20 21  2  0
 20 12  1  0
 23 22  1  1
 23 25  1  0
 23 24  1  0
 24 20  1  0
 25 27  1  0
 26 25  2  0
M  END
$$$$
