HFA.pdb
     RDKit          3D

 27 28  0  0  1  0  0  0  0  0999 V2000
   28.4751  -20.4324  -14.7792 N   0  0  0  0  0  0  0  0  0  0  0  0
   27.4039  -19.6426  -14.2242 C   0  0  1  0  0  0  0  0  0  0  0  0
   26.6799  -18.8516  -15.2858 C   0  0  0  0  0  0  0  0  0  0  0  0
   27.6157  -17.8488  -15.8225 C   0  0  0  0  0  0  0  0  0  0  0  0
   28.0883  -16.7579  -15.1435 C   0  0  0  0  0  0  0  0  0  0  0  0
   28.9175  -16.0809  -15.9632 N   0  0  0  0  0  0  0  0  0  0  0  0
   28.9709  -16.7284  -17.1396 C   0  0  0  0  0  0  0  0  0  0  0  0
   28.1599  -17.8226  -17.0402 N   0  0  0  0  0  0  0  0  0  0  0  0
   26.5099  -20.4538  -13.3884 C   0  0  0  0  0  0  0  0  0  0  0  0
   26.2916  -21.6462  -13.7806 O   0  0  0  0  0  0  0  0  0  0  0  0
   25.8985  -19.9768  -12.1980 N   0  0  0  0  0  0  0  0  0  0  0  0
   24.9842  -20.8156  -11.5015 C   0  0  1  0  0  0  0  0  0  0  0  0
   24.9389  -20.5575  -10.0194 C   0  0  0  0  0  0  0  0  0  0  0  0
   26.2648  -20.5219   -9.3804 C   0  0  0  0  0  0  0  0  0  0  0  0
   27.3219  -21.3042   -9.7734 C   0  0  0  0  0  0  0  0  0  0  0  0
   28.5593  -21.2385   -9.1400 C   0  0  0  0  0  0  0  0  0  0  0  0
   28.7694  -20.3779   -8.0859 C   0  0  0  0  0  0  0  0  0  0  0  0
   27.7137  -19.5885   -7.6843 C   0  0  0  0  0  0  0  0  0  0  0  0
   26.4863  -19.6634   -8.3236 C   0  0  0  0  0  0  0  0  0  0  0  0
   23.6694  -20.7908  -12.1668 C   0  0  0  0  0  0  0  0  0  0  0  0
   23.1101  -19.7039  -12.4846 O   0  0  0  0  0  0  0  0  0  0  0  0
   21.4000  -23.2650  -13.7827 C   0  0  0  0  0  0  0  0  0  0  0  0
   21.6954  -21.8971  -13.1660 C   0  0  2  0  0  0  0  0  0  0  0  0
   22.9690  -21.9873  -12.4849 N   0  0  0  0  0  0  0  0  0  0  0  0
   20.6412  -21.6465  -12.1681 C   0  0  0  0  0  0  0  0  0  0  0  0
   19.4883  -21.3964  -12.5408 O   0  0  0  0  0  0  0  0  0  0  0  0
   20.9411  -21.6918  -10.8212 O   0  0  0  0  0  0  0  0  0  0  0  0
  2  1  1  6
  2  9  1  0
  2  3  1  0
  3  4  1  0
  4  5  2  0
  5  6  1  0
  7  6  1  0
  8  4  1  0
  8  7  2  0
  9 10  2  0
 11  9  1  0
 11 12  1  0
 12 13  1  1
 13 14  1  0
 14 15  2  0
 15 16  1  0
 17 16  2  0
 18 17  1  0
 19 14  1  0
 19 18  2  0
 20 21  2  0
 20 12  1  0
 23 22  1  1
 23 25  1  0
 23 24  1  0
 24 20  1  0
 25 27  1  0
 26 25  2  0
M  END
$$$$
