HFA.pdb
     RDKit          3D

 27 28  0  0  1  0  0  0  0  0999 V2000
   19.0212  -11.8042  -15.9716 N   0  0  0  0  0  0  0  0  0  0  0  0
   18.6781  -10.6362  -16.7445 C   0  0  1  0  0  0  0  0  0  0  0  0
   17.3722  -10.8120  -17.4797 C   0  0  0  0  0  0  0  0  0  0  0  0
   17.5590  -11.8655  -18.4919 C   0  0  0  0  0  0  0  0  0  0  0  0
   17.9333  -11.6614  -19.7930 C   0  0  0  0  0  0  0  0  0  0  0  0
   17.9973  -12.8615  -20.4040 N   0  0  0  0  0  0  0  0  0  0  0  0
   17.6703  -13.8095  -19.5094 C   0  0  0  0  0  0  0  0  0  0  0  0
   17.4007  -13.1799  -18.3279 N   0  0  0  0  0  0  0  0  0  0  0  0
   18.7314   -9.4143  -15.9321 C   0  0  0  0  0  0  0  0  0  0  0  0
   18.1156   -9.4456  -14.8171 O   0  0  0  0  0  0  0  0  0  0  0  0
   19.4204   -8.2365  -16.3277 N   0  0  0  0  0  0  0  0  0  0  0  0
   19.5442   -7.1603  -15.4051 C   0  0  1  0  0  0  0  0  0  0  0  0
   20.9522   -6.9410  -14.9206 C   0  0  0  0  0  0  0  0  0  0  0  0
   21.4659   -8.0286  -14.0716 C   0  0  0  0  0  0  0  0  0  0  0  0
   21.0769   -8.2290  -12.7707 C   0  0  0  0  0  0  0  0  0  0  0  0
   21.5892   -9.2708  -12.0034 C   0  0  0  0  0  0  0  0  0  0  0  0
   22.5138  -10.1465  -12.5270 C   0  0  0  0  0  0  0  0  0  0  0  0
   22.9104   -9.9531  -13.8324 C   0  0  0  0  0  0  0  0  0  0  0  0
   22.3925   -8.9116  -14.5861 C   0  0  0  0  0  0  0  0  0  0  0  0
   18.8887   -5.9556  -15.9443 C   0  0  0  0  0  0  0  0  0  0  0  0
   19.1615   -5.5142  -17.0959 O   0  0  0  0  0  0  0  0  0  0  0  0
   16.1234   -3.6496  -14.9721 C   0  0  0  0  0  0  0  0  0  0  0  0
   17.4167   -3.9804  -15.7182 C   0  0  2  0  0  0  0  0  0  0  0  0
   17.9171   -5.2341  -15.1967 N   0  0  0  0  0  0  0  0  0  0  0  0
   18.3785   -2.9136  -15.3910 C   0  0  0  0  0  0  0  0  0  0  0  0
   19.2563   -3.1158  -14.5430 O   0  0  0  0  0  0  0  0  0  0  0  0
   18.2988   -1.6927  -16.0307 O   0  0  0  0  0  0  0  0  0  0  0  0
  2  1  1  1
  2  9  1  0
  2  3  1  0
  3  4  1  0
  4  5  2  0
  5  6  1  0
  7  6  1  0
  8  4  1  0
  8  7  2  0
  9 10  2  0
 11  9  1  0
 11 12  1  0
 12 13  1  6
 13 14  1  0
 14 15  2  0
 15 16  1  0
 17 16  2  0
 18 17  1  0
 19 14  1  0
 19 18  2  0
 20 21  2  0
 20 12  1  0
 23 22  1  1
 23 25  1  0
 23 24  1  0
 24 20  1  0
 25 27  1  0
 26 25  2  0
M  END
$$$$
