HFA.pdb
     RDKit          3D

 27 28  0  0  1  0  0  0  0  0999 V2000
   27.9939  -20.9482  -15.1646 N   0  0  0  0  0  0  0  0  0  0  0  0
   27.0593  -20.0078  -14.5977 C   0  0  1  0  0  0  0  0  0  0  0  0
   26.4375  -19.1270  -15.6533 C   0  0  0  0  0  0  0  0  0  0  0  0
   27.5094  -18.3197  -16.2605 C   0  0  0  0  0  0  0  0  0  0  0  0
   28.1452  -18.5997  -17.4403 C   0  0  0  0  0  0  0  0  0  0  0  0
   29.0609  -17.6354  -17.6622 N   0  0  0  0  0  0  0  0  0  0  0  0
   29.0083  -16.7599  -16.6440 C   0  0  0  0  0  0  0  0  0  0  0  0
   28.0429  -17.1947  -15.7815 N   0  0  0  0  0  0  0  0  0  0  0  0
   26.0732  -20.6753  -13.7386 C   0  0  0  0  0  0  0  0  0  0  0  0
   25.7111  -21.8448  -14.0914 O   0  0  0  0  0  0  0  0  0  0  0  0
   25.5248  -20.0873  -12.5674 N   0  0  0  0  0  0  0  0  0  0  0  0
   24.5823  -20.8230  -11.7959 C   0  0  1  0  0  0  0  0  0  0  0  0
   24.5993  -20.4747  -10.3317 C   0  0  0  0  0  0  0  0  0  0  0  0
   25.9299  -20.5791   -9.7104 C   0  0  0  0  0  0  0  0  0  0  0  0
   26.8633  -21.5223  -10.0608 C   0  0  0  0  0  0  0  0  0  0  0  0
   28.1102  -21.5852   -9.4460 C   0  0  0  0  0  0  0  0  0  0  0  0
   28.4555  -20.6946   -8.4544 C   0  0  0  0  0  0  0  0  0  0  0  0
   27.5247  -19.7439   -8.0958 C   0  0  0  0  0  0  0  0  0  0  0  0
   26.2863  -19.6918   -8.7159 C   0  0  0  0  0  0  0  0  0  0  0  0
   23.2515  -20.7540  -12.4252 C   0  0  0  0  0  0  0  0  0  0  0  0
   22.6789  -19.6489  -12.6404 O   0  0  0  0  0  0  0  0  0  0  0  0
   21.0086  -23.1423  -14.2092 C   0  0  0  0  0  0  0  0  0  0  0  0
   21.3165  -21.7890  -13.5671 C   0  0  2  0  0  0  0  0  0  0  0  0
   22.5497  -21.9258  -12.8223 N   0  0  0  0  0  0  0  0  0  0  0  0
   20.2211  -21.5100  -12.6226 C   0  0  0  0  0  0  0  0  0  0  0  0
   19.1325  -21.1023  -13.0461 O   0  0  0  0  0  0  0  0  0  0  0  0
   20.4108  -21.7044  -11.2689 O   0  0  0  0  0  0  0  0  0  0  0  0
  2  1  1  6
  2  9  1  0
  2  3  1  0
  3  4  1  0
  4  5  2  0
  5  6  1  0
  7  6  1  0
  8  4  1  0
  8  7  2  0
  9 10  2  0
 11  9  1  0
 11 12  1  0
 12 13  1  1
 13 14  1  0
 14 15  2  0
 15 16  1  0
 17 16  2  0
 18 17  1  0
 19 14  1  0
 19 18  2  0
 20 21  2  0
 20 12  1  0
 23 22  1  1
 23 25  1  0
 23 24  1  0
 24 20  1  0
 25 27  1  0
 26 25  2  0
M  END
$$$$
