NFN.pdb
     RDKit          3D

 28 28  0  0  1  0  0  0  0  0999 V2000
   33.2892  -32.7553  -17.8735 N   0  0  0  0  0  0  0  0  0  0  0  0
   34.4825  -33.5011  -18.0315 C   0  0  0  0  0  0  0  0  0  0  0  0
   34.7674  -33.9204  -19.1800 O   0  0  0  0  0  0  0  0  0  0  0  0
   35.4144  -33.8160  -16.9206 C   0  0  0  0  0  0  0  0  0  0  0  0
   34.8078  -33.3188  -15.6141 C   0  0  2  0  0  0  0  0  0  0  0  0
   33.4551  -33.8846  -15.5917 N   0  0  0  0  0  0  0  0  0  0  0  0
   34.6817  -31.8412  -15.6162 C   0  0  0  0  0  0  0  0  0  0  0  0
   33.5702  -31.2658  -15.7599 O   0  0  0  0  0  0  0  0  0  0  0  0
   35.8330  -31.0177  -15.4532 N   0  0  0  0  0  0  0  0  0  0  0  0
   35.7336  -29.5719  -15.3425 C   0  0  1  0  0  0  0  0  0  0  0  0
   36.8276  -29.0145  -14.4643 C   0  0  0  0  0  0  0  0  0  0  0  0
   36.6930  -27.5757  -14.1679 C   0  0  0  0  0  0  0  0  0  0  0  0
   37.5896  -26.7034  -14.7358 C   0  0  0  0  0  0  0  0  0  0  0  0
   37.4938  -25.3555  -14.4811 C   0  0  0  0  0  0  0  0  0  0  0  0
   36.4843  -24.8824  -13.6458 C   0  0  0  0  0  0  0  0  0  0  0  0
   35.5788  -25.7435  -13.0694 C   0  0  0  0  0  0  0  0  0  0  0  0
   35.6783  -27.0910  -13.3269 C   0  0  0  0  0  0  0  0  0  0  0  0
   35.6494  -28.9374  -16.6788 C   0  0  0  0  0  0  0  0  0  0  0  0
   36.3430  -29.3939  -17.6150 O   0  0  0  0  0  0  0  0  0  0  0  0
   31.0641  -27.7504  -18.0591 N   0  0  0  0  0  0  0  0  0  0  0  0
   32.3308  -27.7269  -18.7303 C   0  0  0  0  0  0  0  0  0  0  0  0
   32.5949  -28.6423  -19.5443 O   0  0  0  0  0  0  0  0  0  0  0  0
   33.3226  -26.6644  -18.4911 C   0  0  0  0  0  0  0  0  0  0  0  0
   34.6775  -27.2233  -18.2959 C   0  0  2  0  0  0  0  0  0  0  0  0
   34.8284  -27.8373  -16.9732 N   0  0  0  0  0  0  0  0  0  0  0  0
   35.6681  -26.0843  -18.3101 C   0  0  0  0  0  0  0  0  0  0  0  0
   35.4928  -24.9552  -17.5571 O   0  0  0  0  0  0  0  0  0  0  0  0
   36.7043  -26.1501  -19.0342 O   0  0  0  0  0  0  0  0  0  0  0  0
  2  1  1  0
  2  3  2  0
  4  5  1  0
  4  2  1  0
  5  7  1  0
  5  6  1  6
  7  8  2  0
  9  7  1  0
  9 10  1  0
 11 12  1  0
 10 11  1  6
 12 17  2  0
 13 14  2  0
 13 12  1  0
 14 15  1  0
 15 16  2  0
 17 16  1  0
 18 10  1  0
 18 19  2  0
 20 21  1  0
 21 23  1  0
 21 22  2  0
 24 23  1  1
 24 25  1  0
 24 26  1  0
 25 18  1  0
 26 27  1  0
 28 26  2  0
M  END
$$$$
