NFN.pdb
     RDKit          3D

 28 28  0  0  1  0  0  0  0  0999 V2000
   19.5056  -22.3687  -12.2357 N   0  0  0  0  0  0  0  0  0  0  0  0
   18.9583  -21.0886  -12.4945 C   0  0  0  0  0  0  0  0  0  0  0  0
   17.8145  -20.8348  -12.0436 O   0  0  0  0  0  0  0  0  0  0  0  0
   19.6564  -20.0312  -13.2667 C   0  0  0  0  0  0  0  0  0  0  0  0
   20.9446  -20.6098  -13.8391 C   0  0  2  0  0  0  0  0  0  0  0  0
   21.6383  -21.1900  -12.6846 N   0  0  0  0  0  0  0  0  0  0  0  0
   21.8064  -19.5386  -14.3951 C   0  0  0  0  0  0  0  0  0  0  0  0
   21.3253  -18.5122  -14.9450 O   0  0  0  0  0  0  0  0  0  0  0  0
   23.2255  -19.6422  -14.3217 N   0  0  0  0  0  0  0  0  0  0  0  0
   24.1002  -18.6726  -14.9598 C   0  0  1  0  0  0  0  0  0  0  0  0
   25.4162  -18.5596  -14.2290 C   0  0  0  0  0  0  0  0  0  0  0  0
   26.3877  -17.6508  -14.8666 C   0  0  0  0  0  0  0  0  0  0  0  0
   26.3340  -16.3134  -14.5572 C   0  0  0  0  0  0  0  0  0  0  0  0
   27.2242  -15.4376  -15.1331 C   0  0  0  0  0  0  0  0  0  0  0  0
   28.1776  -15.9149  -16.0297 C   0  0  0  0  0  0  0  0  0  0  0  0
   28.2439  -17.2515  -16.3498 C   0  0  0  0  0  0  0  0  0  0  0  0
   27.3516  -18.1240  -15.7714 C   0  0  0  0  0  0  0  0  0  0  0  0
   24.2360  -18.9468  -16.4095 C   0  0  0  0  0  0  0  0  0  0  0  0
   24.2836  -20.1336  -16.8034 O   0  0  0  0  0  0  0  0  0  0  0  0
   21.0416  -19.7022  -19.3608 N   0  0  0  0  0  0  0  0  0  0  0  0
   22.4422  -19.4745  -19.5659 C   0  0  0  0  0  0  0  0  0  0  0  0
   23.1745  -20.4530  -19.8424 O   0  0  0  0  0  0  0  0  0  0  0  0
   23.0394  -18.1320  -19.4612 C   0  0  0  0  0  0  0  0  0  0  0  0
   24.3789  -18.1831  -18.8373 C   0  0  2  0  0  0  0  0  0  0  0  0
   24.3161  -17.9469  -17.3918 N   0  0  0  0  0  0  0  0  0  0  0  0
   25.2009  -17.0399  -19.3818 C   0  0  0  0  0  0  0  0  0  0  0  0
   26.2113  -17.2327  -20.2844 O   0  0  0  0  0  0  0  0  0  0  0  0
   24.9687  -15.8533  -19.0074 O   0  0  0  0  0  0  0  0  0  0  0  0
  2  1  1  0
  2  3  2  0
  4  5  1  0
  4  2  1  0
  5  7  1  0
  5  6  1  1
  7  8  2  0
  9  7  1  0
  9 10  1  0
 11 12  1  0
 10 11  1  1
 12 17  2  0
 13 14  2  0
 13 12  1  0
 14 15  1  0
 15 16  2  0
 17 16  1  0
 18 10  1  0
 18 19  2  0
 20 21  1  0
 21 23  1  0
 21 22  2  0
 24 23  1  6
 24 25  1  0
 24 26  1  0
 25 18  1  0
 26 27  1  0
 28 26  2  0
M  END
$$$$
