NFN.pdb
     RDKit          3D

 28 28  0  0  1  0  0  0  0  0999 V2000
   27.9159  -20.9078  -19.7415 N   0  0  0  0  0  0  0  0  0  0  0  0
   27.0583  -22.0212  -19.5682 C   0  0  0  0  0  0  0  0  0  0  0  0
   26.5601  -22.5464  -20.5938 O   0  0  0  0  0  0  0  0  0  0  0  0
   26.7143  -22.6026  -18.2470 C   0  0  0  0  0  0  0  0  0  0  0  0
   27.4497  -21.8260  -17.1616 C   0  0  2  0  0  0  0  0  0  0  0  0
   28.7468  -22.4986  -17.0355 N   0  0  0  0  0  0  0  0  0  0  0  0
   26.7498  -21.9422  -15.8594 C   0  0  0  0  0  0  0  0  0  0  0  0
   26.6656  -23.0370  -15.2416 O   0  0  0  0  0  0  0  0  0  0  0  0
   26.1432  -20.8003  -15.2610 N   0  0  0  0  0  0  0  0  0  0  0  0
   25.5164  -20.8616  -13.9511 C   0  0  1  0  0  0  0  0  0  0  0  0
   26.0932  -19.8228  -13.0200 C   0  0  0  0  0  0  0  0  0  0  0  0
   27.0029  -20.3667  -11.9939 C   0  0  0  0  0  0  0  0  0  0  0  0
   26.4777  -20.7224  -10.7754 C   0  0  0  0  0  0  0  0  0  0  0  0
   27.2966  -21.2327   -9.7956 C   0  0  0  0  0  0  0  0  0  0  0  0
   28.6583  -21.3857  -10.0468 C   0  0  0  0  0  0  0  0  0  0  0  0
   29.1994  -21.0338  -11.2621 C   0  0  0  0  0  0  0  0  0  0  0  0
   28.3766  -20.5239  -12.2393 C   0  0  0  0  0  0  0  0  0  0  0  0
   24.0394  -20.8198  -14.0620 C   0  0  0  0  0  0  0  0  0  0  0  0
   23.5125  -20.0507  -14.8967 O   0  0  0  0  0  0  0  0  0  0  0  0
   18.9271  -23.6750  -13.4671 N   0  0  0  0  0  0  0  0  0  0  0  0
   19.6392  -22.6968  -12.6980 C   0  0  0  0  0  0  0  0  0  0  0  0
   18.9841  -21.8128  -12.0984 O   0  0  0  0  0  0  0  0  0  0  0  0
   21.1085  -22.7023  -12.5943 C   0  0  0  0  0  0  0  0  0  0  0  0
   21.7113  -21.6146  -13.3942 C   0  0  2  0  0  0  0  0  0  0  0  0
   23.1728  -21.5996  -13.2797 N   0  0  0  0  0  0  0  0  0  0  0  0
   21.2633  -20.2944  -12.8154 C   0  0  0  0  0  0  0  0  0  0  0  0
   20.3189  -19.5134  -13.4245 O   0  0  0  0  0  0  0  0  0  0  0  0
   21.7618  -19.8719  -11.7313 O   0  0  0  0  0  0  0  0  0  0  0  0
  2  1  1  0
  2  3  2  0
  4  5  1  0
  4  2  1  0
  5  7  1  0
  5  6  1  1
  7  8  2  0
  9  7  1  0
  9 10  1  0
 11 12  1  0
 10 11  1  1
 12 17  2  0
 13 14  2  0
 13 12  1  0
 14 15  1  0
 15 16  2  0
 17 16  1  0
 18 10  1  0
 18 19  2  0
 20 21  1  0
 21 23  1  0
 21 22  2  0
 24 23  1  1
 24 25  1  0
 24 26  1  0
 25 18  1  0
 26 27  1  0
 28 26  2  0
M  END
$$$$
