NFN.pdb
     RDKit          3D

 28 28  0  0  1  0  0  0  0  0999 V2000
   29.1040  -17.7941  -17.1763 N   0  0  0  0  0  0  0  0  0  0  0  0
   28.4295  -17.7492  -15.9321 C   0  0  0  0  0  0  0  0  0  0  0  0
   28.6812  -16.7920  -15.1597 O   0  0  0  0  0  0  0  0  0  0  0  0
   27.4442  -18.7660  -15.4881 C   0  0  0  0  0  0  0  0  0  0  0  0
   27.9904  -19.4738  -14.2541 C   0  0  2  0  0  0  0  0  0  0  0  0
   29.0687  -20.3287  -14.7612 N   0  0  0  0  0  0  0  0  0  0  0  0
   26.9614  -20.3528  -13.6476 C   0  0  0  0  0  0  0  0  0  0  0  0
   26.6359  -21.4550  -14.1639 O   0  0  0  0  0  0  0  0  0  0  0  0
   26.3016  -19.9690  -12.4446 N   0  0  0  0  0  0  0  0  0  0  0  0
   25.3510  -20.8431  -11.7777 C   0  0  1  0  0  0  0  0  0  0  0  0
   25.2556  -20.5245  -10.3052 C   0  0  0  0  0  0  0  0  0  0  0  0
   26.5176  -20.7055   -9.5628 C   0  0  0  0  0  0  0  0  0  0  0  0
   26.6515  -20.0939   -8.3401 C   0  0  0  0  0  0  0  0  0  0  0  0
   27.8142  -20.2409   -7.6207 C   0  0  0  0  0  0  0  0  0  0  0  0
   28.8520  -21.0122   -8.1393 C   0  0  0  0  0  0  0  0  0  0  0  0
   28.7331  -21.6309   -9.3627 C   0  0  0  0  0  0  0  0  0  0  0  0
   27.5683  -21.4811  -10.0787 C   0  0  0  0  0  0  0  0  0  0  0  0
   24.0463  -20.8500  -12.4799 C   0  0  0  0  0  0  0  0  0  0  0  0
   23.6095  -19.7823  -12.9647 O   0  0  0  0  0  0  0  0  0  0  0  0
   19.4202  -22.2248  -14.4559 N   0  0  0  0  0  0  0  0  0  0  0  0
   20.0842  -23.4260  -14.0413 C   0  0  0  0  0  0  0  0  0  0  0  0
   19.5068  -24.5232  -14.2223 O   0  0  0  0  0  0  0  0  0  0  0  0
   21.4165  -23.4057  -13.4132 C   0  0  0  0  0  0  0  0  0  0  0  0
   21.9325  -22.0261  -13.2840 C   0  0  2  0  0  0  0  0  0  0  0  0
   23.2505  -21.9951  -12.6426 N   0  0  0  0  0  0  0  0  0  0  0  0
   21.0267  -21.2656  -12.3459 C   0  0  0  0  0  0  0  0  0  0  0  0
   19.9324  -20.5736  -12.7893 O   0  0  0  0  0  0  0  0  0  0  0  0
   21.2644  -21.2510  -11.1028 O   0  0  0  0  0  0  0  0  0  0  0  0
  2  1  1  0
  2  3  2  0
  4  5  1  0
  4  2  1  0
  5  7  1  0
  5  6  1  6
  7  8  2  0
  9  7  1  0
  9 10  1  0
 11 12  1  0
 10 11  1  1
 12 17  2  0
 13 14  2  0
 13 12  1  0
 14 15  1  0
 15 16  2  0
 17 16  1  0
 18 10  1  0
 18 19  2  0
 20 21  1  0
 21 23  1  0
 21 22  2  0
 24 23  1  1
 24 25  1  0
 24 26  1  0
 25 18  1  0
 26 27  1  0
 28 26  2  0
M  END
$$$$
