NFN.pdb
     RDKit          3D

 28 28  0  0  1  0  0  0  0  0999 V2000
   29.2607  -21.0168  -17.1446 N   0  0  0  0  0  0  0  0  0  0  0  0
   28.0730  -20.2632  -17.3080 C   0  0  0  0  0  0  0  0  0  0  0  0
   28.0960  -19.2927  -18.1041 O   0  0  0  0  0  0  0  0  0  0  0  0
   26.8048  -20.5527  -16.5943 C   0  0  0  0  0  0  0  0  0  0  0  0
   27.0420  -21.6951  -15.6142 C   0  0  2  0  0  0  0  0  0  0  0  0
   27.0174  -22.9065  -16.4404 N   0  0  0  0  0  0  0  0  0  0  0  0
   25.9335  -21.7919  -14.6338 C   0  0  0  0  0  0  0  0  0  0  0  0
   24.8819  -22.4418  -14.8765 O   0  0  0  0  0  0  0  0  0  0  0  0
   26.0287  -21.1419  -13.3695 N   0  0  0  0  0  0  0  0  0  0  0  0
   24.8933  -21.0478  -12.4670 C   0  0  1  0  0  0  0  0  0  0  0  0
   25.3058  -20.4912  -11.1258 C   0  0  0  0  0  0  0  0  0  0  0  0
   24.1915  -20.3091  -10.1764 C   0  0  0  0  0  0  0  0  0  0  0  0
   24.1584  -21.0916   -9.0478 C   0  0  0  0  0  0  0  0  0  0  0  0
   23.1343  -20.9488   -8.1412 C   0  0  0  0  0  0  0  0  0  0  0  0
   22.1339  -20.0078   -8.3748 C   0  0  0  0  0  0  0  0  0  0  0  0
   22.1530  -19.2168   -9.5007 C   0  0  0  0  0  0  0  0  0  0  0  0
   23.1793  -19.3630  -10.4047 C   0  0  0  0  0  0  0  0  0  0  0  0
   23.7651  -20.3252  -13.0998 C   0  0  0  0  0  0  0  0  0  0  0  0
   23.9862  -19.2390  -13.6805 O   0  0  0  0  0  0  0  0  0  0  0  0
   20.2256  -19.2263  -17.2040 N   0  0  0  0  0  0  0  0  0  0  0  0
   20.1593  -19.6259  -15.8287 C   0  0  0  0  0  0  0  0  0  0  0  0
   19.1430  -19.3182  -15.1634 O   0  0  0  0  0  0  0  0  0  0  0  0
   21.2448  -20.3823  -15.1813 C   0  0  0  0  0  0  0  0  0  0  0  0
   21.3047  -20.1072  -13.7297 C   0  0  2  0  0  0  0  0  0  0  0  0
   22.4384  -20.7845  -13.0931 N   0  0  0  0  0  0  0  0  0  0  0  0
   20.0806  -20.7071  -13.0813 C   0  0  0  0  0  0  0  0  0  0  0  0
   18.9812  -19.9566  -12.7635 O   0  0  0  0  0  0  0  0  0  0  0  0
   20.0434  -21.9432  -12.8116 O   0  0  0  0  0  0  0  0  0  0  0  0
  2  1  1  0
  2  3  2  0
  4  5  1  0
  4  2  1  0
  5  7  1  0
  5  6  1  6
  7  8  2  0
  9  7  1  0
  9 10  1  0
 11 12  1  0
 10 11  1  1
 12 17  2  0
 13 14  2  0
 13 12  1  0
 14 15  1  0
 15 16  2  0
 17 16  1  0
 18 10  1  0
 18 19  2  0
 20 21  1  0
 21 23  1  0
 21 22  2  0
 24 23  1  6
 24 25  1  0
 24 26  1  0
 25 18  1  0
 26 27  1  0
 28 26  2  0
M  END
$$$$
