LEC.pdb
     RDKit          3D

 24 23  0  0  1  0  0  0  0  0999 V2000
    8.6024  -12.8827   18.5603 C   0  0  0  0  0  0  0  0  0  0  0  0
    7.5998  -13.5295   19.4929 C   0  0  2  0  0  0  0  0  0  0  0  0
    7.0758  -12.5057   20.4654 C   0  0  0  0  0  0  0  0  0  0  0  0
    8.1919  -14.7279   20.1824 C   0  0  0  0  0  0  0  0  0  0  0  0
    8.6531  -15.7481   19.1916 C   0  0  2  0  0  0  0  0  0  0  0  0
    7.5992  -16.5243   18.6173 N   0  0  0  0  0  0  0  0  0  0  0  0
    9.7272  -16.6033   19.8273 C   0  0  0  0  0  0  0  0  0  0  0  0
    9.3135  -17.5702   20.5084 O   0  0  0  0  0  0  0  0  0  0  0  0
   11.0809  -16.3371   19.6683 N   0  0  0  0  0  0  0  0  0  0  0  0
   12.1185  -17.1165   20.2788 C   0  0  1  0  0  0  0  0  0  0  0  0
   13.4220  -17.1549   19.5169 C   0  0  0  0  0  0  0  0  0  0  0  0
   14.5044  -17.9681   20.1508 C   0  0  0  0  0  0  0  0  0  0  0  0
   15.7757  -18.0089   19.3924 C   0  0  0  0  0  0  0  0  0  0  0  0
   16.8845  -17.9177   19.9400 O   0  0  0  0  0  0  0  0  0  0  0  0
   12.3070  -16.6891   21.6735 C   0  0  0  0  0  0  0  0  0  0  0  0
   12.8930  -15.6216   22.0011 O   0  0  0  0  0  0  0  0  0  0  0  0
   15.7377  -18.1546   18.0127 O   0  0  0  0  0  0  0  0  0  0  0  0
   11.8128  -17.4992   22.7509 N   0  0  0  0  0  0  0  0  0  0  0  0
   12.0103  -17.1728   24.1328 C   0  0  1  0  0  0  0  0  0  0  0  0
   10.6285  -17.2450   24.7947 C   0  0  0  0  0  0  0  0  0  0  0  0
    9.4595  -16.1411   23.9587 S   0  0  0  0  0  0  0  0  0  0  0  0
   12.8266  -18.2261   24.7757 C   0  0  0  0  0  0  0  0  0  0  0  0
   13.2926  -18.0378   26.0665 O   0  0  0  0  0  0  0  0  0  0  0  0
   13.1258  -19.3094   24.1957 O   0  0  0  0  0  0  0  0  0  0  0  0
  2  1  1  1
  3  2  1  0
  4  5  1  0
  4  2  1  0
  5  6  1  1
  7  5  1  0
  7  8  2  0
  9  7  1  0
 10  9  1  0
 11 12  1  0
 10 11  1  6
 12 13  1  0
 13 17  1  0
 13 14  2  0
 15 10  1  0
 16 15  2  0
 18 15  1  0
 19 18  1  0
 19 20  1  1
 20 21  1  0
 22 19  1  0
 23 22  1  0
 24 22  2  0
M  END
$$$$
