LEC.pdb
     RDKit          3D

 24 23  0  0  1  0  0  0  0  0999 V2000
    9.2526  -12.8675   19.0513 C   0  0  0  0  0  0  0  0  0  0  0  0
    7.8357  -13.3958   19.1327 C   0  0  2  0  0  0  0  0  0  0  0  0
    6.9159  -12.3104   19.6271 C   0  0  0  0  0  0  0  0  0  0  0  0
    7.7656  -14.6383   19.9771 C   0  0  0  0  0  0  0  0  0  0  0  0
    8.7343  -15.6719   19.4990 C   0  0  2  0  0  0  0  0  0  0  0  0
    8.2081  -16.5502   18.5017 N   0  0  0  0  0  0  0  0  0  0  0  0
    9.2937  -16.4140   20.6930 C   0  0  0  0  0  0  0  0  0  0  0  0
    8.4640  -17.0903   21.3444 O   0  0  0  0  0  0  0  0  0  0  0  0
   10.6355  -16.3519   21.0454 N   0  0  0  0  0  0  0  0  0  0  0  0
   11.1901  -17.0380   22.1761 C   0  0  1  0  0  0  0  0  0  0  0  0
   12.6661  -17.3428   22.0784 C   0  0  0  0  0  0  0  0  0  0  0  0
   13.2535  -18.0274   23.2705 C   0  0  0  0  0  0  0  0  0  0  0  0
   14.6816  -18.3953   23.1345 C   0  0  0  0  0  0  0  0  0  0  0  0
   15.6006  -17.6747   23.5515 O   0  0  0  0  0  0  0  0  0  0  0  0
   10.8572  -16.3121   23.4113 C   0  0  0  0  0  0  0  0  0  0  0  0
   11.3077  -15.1673   23.6886 O   0  0  0  0  0  0  0  0  0  0  0  0
   15.0176  -19.5920   22.5171 O   0  0  0  0  0  0  0  0  0  0  0  0
    9.9759  -16.9002   24.3801 N   0  0  0  0  0  0  0  0  0  0  0  0
    9.7651  -16.3482   25.6863 C   0  0  1  0  0  0  0  0  0  0  0  0
    8.3637  -15.7248   25.6699 C   0  0  0  0  0  0  0  0  0  0  0  0
    7.1134  -16.9703   25.2587 S   0  0  0  0  0  0  0  0  0  0  0  0
    9.7135  -17.4426   26.6808 C   0  0  0  0  0  0  0  0  0  0  0  0
    9.6525  -17.1377   28.0306 O   0  0  0  0  0  0  0  0  0  0  0  0
    9.7224  -18.6645   26.3547 O   0  0  0  0  0  0  0  0  0  0  0  0
  2  1  1  1
  3  2  1  0
  4  5  1  0
  4  2  1  0
  5  6  1  6
  7  5  1  0
  7  8  2  0
  9  7  1  0
 10  9  1  0
 11 12  1  0
 10 11  1  6
 12 13  1  0
 13 17  1  0
 13 14  2  0
 15 10  1  0
 16 15  2  0
 18 15  1  0
 19 18  1  0
 19 20  1  6
 20 21  1  0
 22 19  1  0
 23 22  1  0
 24 22  2  0
M  END
$$$$
