LEC.pdb
     RDKit          3D

 24 23  0  0  1  0  0  0  0  0999 V2000
    7.0656  -12.4247   24.6147 C   0  0  0  0  0  0  0  0  0  0  0  0
    6.1089  -12.8706   25.7007 C   0  0  2  0  0  0  0  0  0  0  0  0
    6.0506  -11.8284   26.7864 C   0  0  0  0  0  0  0  0  0  0  0  0
    6.4785  -14.2300   26.2273 C   0  0  0  0  0  0  0  0  0  0  0  0
    6.4980  -15.2469   25.1314 C   0  0  2  0  0  0  0  0  0  0  0  0
    5.3540  -16.1034   25.1076 N   0  0  0  0  0  0  0  0  0  0  0  0
    7.8000  -16.0150   25.1938 C   0  0  0  0  0  0  0  0  0  0  0  0
    7.9300  -16.7763   26.1805 O   0  0  0  0  0  0  0  0  0  0  0  0
    8.7862  -15.8870   24.2244 N   0  0  0  0  0  0  0  0  0  0  0  0
   10.0316  -16.5973   24.2627 C   0  0  1  0  0  0  0  0  0  0  0  0
   10.8008  -16.6100   22.9631 C   0  0  0  0  0  0  0  0  0  0  0  0
   12.0432  -17.4414   22.9685 C   0  0  0  0  0  0  0  0  0  0  0  0
   12.7991  -17.4370   21.6951 C   0  0  0  0  0  0  0  0  0  0  0  0
   14.0105  -17.1785   21.6371 O   0  0  0  0  0  0  0  0  0  0  0  0
   10.8493  -16.1082   25.3832 C   0  0  0  0  0  0  0  0  0  0  0  0
   11.7309  -15.2145   25.2632 O   0  0  0  0  0  0  0  0  0  0  0  0
   12.1361  -17.7325   20.5121 O   0  0  0  0  0  0  0  0  0  0  0  0
   10.6671  -16.6484   26.7008 N   0  0  0  0  0  0  0  0  0  0  0  0
   11.5280  -16.3349   27.8035 C   0  0  1  0  0  0  0  0  0  0  0  0
   10.6955  -15.4863   28.7728 C   0  0  0  0  0  0  0  0  0  0  0  0
    9.9930  -14.0479   27.9235 S   0  0  0  0  0  0  0  0  0  0  0  0
   11.8647  -17.5768   28.5338 C   0  0  0  0  0  0  0  0  0  0  0  0
   11.3750  -18.7908   28.0808 O   0  0  0  0  0  0  0  0  0  0  0  0
   12.5902  -17.5862   29.5697 O   0  0  0  0  0  0  0  0  0  0  0  0
  2  1  1  6
  3  2  1  0
  4  5  1  0
  4  2  1  0
  5  6  1  1
  7  5  1  0
  7  8  2  0
  9  7  1  0
 10  9  1  0
 11 12  1  0
 10 11  1  6
 12 13  1  0
 13 17  1  0
 13 14  2  0
 15 10  1  0
 16 15  2  0
 18 15  1  0
 19 18  1  0
 19 20  1  1
 20 21  1  0
 22 19  1  0
 23 22  1  0
 24 22  2  0
M  END
$$$$
