LEC.pdb
     RDKit          3D

 24 23  0  0  1  0  0  0  0  0999 V2000
    8.6666  -13.7692   18.8115 C   0  0  0  0  0  0  0  0  0  0  0  0
    7.5487  -13.7052   19.8311 C   0  0  2  0  0  0  0  0  0  0  0  0
    7.0603  -12.2864   19.9618 C   0  0  0  0  0  0  0  0  0  0  0  0
    7.9793  -14.2893   21.1484 C   0  0  0  0  0  0  0  0  0  0  0  0
    8.3593  -15.7280   21.0031 C   0  0  2  0  0  0  0  0  0  0  0  0
    7.2955  -16.5721   20.5575 N   0  0  0  0  0  0  0  0  0  0  0  0
    8.9810  -16.2073   22.2965 C   0  0  0  0  0  0  0  0  0  0  0  0
    8.1742  -16.4597   23.2214 O   0  0  0  0  0  0  0  0  0  0  0  0
   10.3529  -16.3585   22.4511 N   0  0  0  0  0  0  0  0  0  0  0  0
   10.9768  -16.7003   23.6963 C   0  0  1  0  0  0  0  0  0  0  0  0
   12.4191  -17.1357   23.5908 C   0  0  0  0  0  0  0  0  0  0  0  0
   13.4268  -16.0511   23.7979 C   0  0  0  0  0  0  0  0  0  0  0  0
   14.8385  -16.4882   23.7023 C   0  0  0  0  0  0  0  0  0  0  0  0
   15.6167  -16.4522   24.6670 O   0  0  0  0  0  0  0  0  0  0  0  0
   10.8009  -15.6024   24.6592 C   0  0  0  0  0  0  0  0  0  0  0  0
   10.8853  -14.3833   24.3475 O   0  0  0  0  0  0  0  0  0  0  0  0
   15.3218  -16.9589   22.4894 O   0  0  0  0  0  0  0  0  0  0  0  0
   10.5161  -15.8880   26.0370 N   0  0  0  0  0  0  0  0  0  0  0  0
   10.3902  -14.8709   27.0395 C   0  0  1  0  0  0  0  0  0  0  0  0
    8.9402  -14.3753   26.9712 C   0  0  0  0  0  0  0  0  0  0  0  0
    8.6069  -13.1856   28.2968 S   0  0  0  0  0  0  0  0  0  0  0  0
   10.5516  -15.4775   28.3793 C   0  0  0  0  0  0  0  0  0  0  0  0
   10.6211  -16.8555   28.5023 O   0  0  0  0  0  0  0  0  0  0  0  0
   10.6309  -14.7890   29.4372 O   0  0  0  0  0  0  0  0  0  0  0  0
  2  1  1  6
  3  2  1  0
  4  5  1  0
  4  2  1  0
  5  6  1  1
  7  5  1  0
  7  8  2  0
  9  7  1  0
 10  9  1  0
 11 12  1  0
 10 11  1  6
 12 13  1  0
 13 17  1  0
 13 14  2  0
 15 10  1  0
 16 15  2  0
 18 15  1  0
 19 18  1  0
 19 20  1  1
 20 21  1  0
 22 19  1  0
 23 22  1  0
 24 22  2  0
M  END
$$$$
