LEC.pdb
     RDKit          3D

 24 23  0  0  1  0  0  0  0  0999 V2000
    9.2688  -13.1398   18.9487 C   0  0  0  0  0  0  0  0  0  0  0  0
    7.9231  -13.4793   19.5548 C   0  0  2  0  0  0  0  0  0  0  0  0
    7.0686  -12.2408   19.6221 C   0  0  0  0  0  0  0  0  0  0  0  0
    8.0816  -14.1426   20.8952 C   0  0  0  0  0  0  0  0  0  0  0  0
    9.0248  -15.3001   20.8172 C   0  0  2  0  0  0  0  0  0  0  0  0
    8.6137  -16.3299   19.9153 N   0  0  0  0  0  0  0  0  0  0  0  0
    9.2863  -15.8188   22.2142 C   0  0  0  0  0  0  0  0  0  0  0  0
    8.5094  -15.3945   23.1010 O   0  0  0  0  0  0  0  0  0  0  0  0
   10.3169  -16.7056   22.4975 N   0  0  0  0  0  0  0  0  0  0  0  0
   10.5286  -17.2868   23.7913 C   0  0  1  0  0  0  0  0  0  0  0  0
   11.5567  -18.3922   23.8355 C   0  0  0  0  0  0  0  0  0  0  0  0
   11.7977  -18.9818   25.1879 C   0  0  0  0  0  0  0  0  0  0  0  0
   12.8665  -20.0057   25.2377 C   0  0  0  0  0  0  0  0  0  0  0  0
   13.8696  -19.8911   25.9577 O   0  0  0  0  0  0  0  0  0  0  0  0
   10.8140  -16.2283   24.7719 C   0  0  0  0  0  0  0  0  0  0  0  0
   11.6680  -15.3192   24.5858 O   0  0  0  0  0  0  0  0  0  0  0  0
   12.7525  -21.1435   24.4513 O   0  0  0  0  0  0  0  0  0  0  0  0
   10.1058  -16.1892   26.0201 N   0  0  0  0  0  0  0  0  0  0  0  0
   10.3702  -15.2195   27.0424 C   0  0  1  0  0  0  0  0  0  0  0  0
    9.1486  -14.2929   27.0842 C   0  0  0  0  0  0  0  0  0  0  0  0
    9.3703  -12.9967   28.3310 S   0  0  0  0  0  0  0  0  0  0  0  0
   10.4173  -15.8927   28.3592 C   0  0  0  0  0  0  0  0  0  0  0  0
   10.9145  -15.2116   29.4581 O   0  0  0  0  0  0  0  0  0  0  0  0
   10.0192  -17.0801   28.5353 O   0  0  0  0  0  0  0  0  0  0  0  0
  2  1  1  1
  3  2  1  0
  4  5  1  0
  4  2  1  0
  5  6  1  6
  7  5  1  0
  7  8  2  0
  9  7  1  0
 10  9  1  0
 11 12  1  0
 10 11  1  6
 12 13  1  0
 13 17  1  0
 13 14  2  0
 15 10  1  0
 16 15  2  0
 18 15  1  0
 19 18  1  0
 19 20  1  1
 20 21  1  0
 22 19  1  0
 23 22  1  0
 24 22  2  0
M  END
$$$$
