LEC.pdb
     RDKit          3D

 24 23  0  0  1  0  0  0  0  0999 V2000
    8.8524  -13.7690   18.8254 C   0  0  0  0  0  0  0  0  0  0  0  0
    7.7354  -13.6297   19.8384 C   0  0  2  0  0  0  0  0  0  0  0  0
    7.3900  -12.1747   20.0177 C   0  0  0  0  0  0  0  0  0  0  0  0
    8.0909  -14.3009   21.1365 C   0  0  0  0  0  0  0  0  0  0  0  0
    8.3810  -15.7532   20.9321 C   0  0  2  0  0  0  0  0  0  0  0  0
    7.2558  -16.5189   20.4953 N   0  0  0  0  0  0  0  0  0  0  0  0
    9.0141  -16.3117   22.1877 C   0  0  0  0  0  0  0  0  0  0  0  0
    8.2149  -16.6304   23.0985 O   0  0  0  0  0  0  0  0  0  0  0  0
   10.3880  -16.4622   22.3242 N   0  0  0  0  0  0  0  0  0  0  0  0
   11.0132  -17.0010   23.4970 C   0  0  1  0  0  0  0  0  0  0  0  0
   12.3524  -17.6588   23.2631 C   0  0  0  0  0  0  0  0  0  0  0  0
   13.0104  -18.2125   24.4859 C   0  0  0  0  0  0  0  0  0  0  0  0
   14.3154  -18.8699   24.2454 C   0  0  0  0  0  0  0  0  0  0  0  0
   14.4189  -19.9545   23.6534 O   0  0  0  0  0  0  0  0  0  0  0  0
   11.0802  -15.9698   24.5437 C   0  0  0  0  0  0  0  0  0  0  0  0
   11.7472  -14.9055   24.4303 O   0  0  0  0  0  0  0  0  0  0  0  0
   15.4763  -18.2574   24.6961 O   0  0  0  0  0  0  0  0  0  0  0  0
   10.3634  -16.1424   25.7756 N   0  0  0  0  0  0  0  0  0  0  0  0
   10.4875  -15.2467   26.8880 C   0  0  1  0  0  0  0  0  0  0  0  0
    9.1760  -14.4538   26.9516 C   0  0  0  0  0  0  0  0  0  0  0  0
    9.1992  -13.2877   28.3385 S   0  0  0  0  0  0  0  0  0  0  0  0
   10.5542  -16.0270   28.1434 C   0  0  0  0  0  0  0  0  0  0  0  0
   11.0240  -15.4246   29.2989 O   0  0  0  0  0  0  0  0  0  0  0  0
   10.1975  -17.2381   28.2160 O   0  0  0  0  0  0  0  0  0  0  0  0
  2  1  1  6
  3  2  1  0
  4  5  1  0
  4  2  1  0
  5  6  1  1
  7  5  1  0
  7  8  2  0
  9  7  1  0
 10  9  1  0
 11 12  1  0
 10 11  1  6
 12 13  1  0
 13 17  1  0
 13 14  2  0
 15 10  1  0
 16 15  2  0
 18 15  1  0
 19 18  1  0
 19 20  1  1
 20 21  1  0
 22 19  1  0
 23 22  1  0
 24 22  2  0
M  END
$$$$
