LEC.pdb
     RDKit          3D

 24 23  0  0  1  0  0  0  0  0999 V2000
    9.4645  -13.5760   19.2347 C   0  0  0  0  0  0  0  0  0  0  0  0
    7.9867  -13.5080   19.5583 C   0  0  2  0  0  0  0  0  0  0  0  0
    7.5507  -12.0690   19.6448 C   0  0  0  0  0  0  0  0  0  0  0  0
    7.6666  -14.2823   20.8073 C   0  0  0  0  0  0  0  0  0  0  0  0
    8.1490  -15.6939   20.7064 C   0  0  2  0  0  0  0  0  0  0  0  0
    7.2548  -16.5699   20.0167 N   0  0  0  0  0  0  0  0  0  0  0  0
    8.5042  -16.1942   22.0894 C   0  0  0  0  0  0  0  0  0  0  0  0
    7.5503  -16.2640   22.8989 O   0  0  0  0  0  0  0  0  0  0  0  0
    9.7990  -16.5528   22.4408 N   0  0  0  0  0  0  0  0  0  0  0  0
   10.1490  -17.1073   23.7163 C   0  0  1  0  0  0  0  0  0  0  0  0
   11.2484  -18.1422   23.6839 C   0  0  0  0  0  0  0  0  0  0  0  0
   11.5680  -18.7709   25.0021 C   0  0  0  0  0  0  0  0  0  0  0  0
   12.6633  -19.7669   24.9660 C   0  0  0  0  0  0  0  0  0  0  0  0
   13.4676  -19.9107   25.8987 O   0  0  0  0  0  0  0  0  0  0  0  0
   10.4391  -16.0235   24.6675 C   0  0  0  0  0  0  0  0  0  0  0  0
   11.3141  -15.1377   24.4673 O   0  0  0  0  0  0  0  0  0  0  0  0
   12.8058  -20.5778   23.8487 O   0  0  0  0  0  0  0  0  0  0  0  0
    9.7112  -15.9306   25.9014 N   0  0  0  0  0  0  0  0  0  0  0  0
    9.9712  -14.9278   26.8924 C   0  0  1  0  0  0  0  0  0  0  0  0
    8.6020  -14.4187   27.3602 C   0  0  0  0  0  0  0  0  0  0  0  0
    8.7896  -13.2276   28.7130 S   0  0  0  0  0  0  0  0  0  0  0  0
   10.5993  -15.5560   28.0756 C   0  0  0  0  0  0  0  0  0  0  0  0
   10.4145  -16.9084   28.3109 O   0  0  0  0  0  0  0  0  0  0  0  0
   11.3094  -14.9087   28.8980 O   0  0  0  0  0  0  0  0  0  0  0  0
  2  1  1  1
  3  2  1  0
  4  5  1  0
  4  2  1  0
  5  6  1  1
  7  5  1  0
  7  8  2  0
  9  7  1  0
 10  9  1  0
 11 12  1  0
 10 11  1  6
 12 13  1  0
 13 17  1  0
 13 14  2  0
 15 10  1  0
 16 15  2  0
 18 15  1  0
 19 18  1  0
 19 20  1  1
 20 21  1  0
 22 19  1  0
 23 22  1  0
 24 22  2  0
M  END
$$$$
