LEC.pdb
     RDKit          3D

 24 23  0  0  1  0  0  0  0  0999 V2000
    9.3326  -12.3100   19.4357 C   0  0  0  0  0  0  0  0  0  0  0  0
    8.2373  -13.3333   19.2201 C   0  0  2  0  0  0  0  0  0  0  0  0
    6.9574  -12.6359   18.8406 C   0  0  0  0  0  0  0  0  0  0  0  0
    8.0747  -14.2188   20.4248 C   0  0  0  0  0  0  0  0  0  0  0  0
    9.3903  -14.7724   20.8699 C   0  0  2  0  0  0  0  0  0  0  0  0
   10.0031  -15.6546   19.9270 N   0  0  0  0  0  0  0  0  0  0  0  0
    9.2241  -15.4027   22.2353 C   0  0  0  0  0  0  0  0  0  0  0  0
    8.4896  -14.7749   23.0331 O   0  0  0  0  0  0  0  0  0  0  0  0
    9.8423  -16.5965   22.5836 N   0  0  0  0  0  0  0  0  0  0  0  0
    9.6802  -17.2296   23.8602 C   0  0  1  0  0  0  0  0  0  0  0  0
    9.9830  -18.7090   23.8836 C   0  0  0  0  0  0  0  0  0  0  0  0
   11.1256  -19.1372   23.0199 C   0  0  0  0  0  0  0  0  0  0  0  0
   11.3736  -20.5970   22.9966 C   0  0  0  0  0  0  0  0  0  0  0  0
   10.6794  -21.4037   23.6330 O   0  0  0  0  0  0  0  0  0  0  0  0
   10.4423  -16.4941   24.8808 C   0  0  0  0  0  0  0  0  0  0  0  0
   11.6081  -16.0509   24.6938 O   0  0  0  0  0  0  0  0  0  0  0  0
   12.4224  -21.0944   22.2358 O   0  0  0  0  0  0  0  0  0  0  0  0
    9.8670  -16.2444   26.1722 N   0  0  0  0  0  0  0  0  0  0  0  0
   10.5463  -15.5222   27.2077 C   0  0  1  0  0  0  0  0  0  0  0  0
    9.5526  -14.4751   27.7263 C   0  0  0  0  0  0  0  0  0  0  0  0
   10.2967  -13.4864   29.0501 S   0  0  0  0  0  0  0  0  0  0  0  0
   10.8149  -16.4289   28.3456 C   0  0  0  0  0  0  0  0  0  0  0  0
   11.8178  -16.1152   29.2482 O   0  0  0  0  0  0  0  0  0  0  0  0
   10.1634  -17.4954   28.5393 O   0  0  0  0  0  0  0  0  0  0  0  0
  2  1  1  1
  3  2  1  0
  4  5  1  0
  4  2  1  0
  5  6  1  6
  7  5  1  0
  7  8  2  0
  9  7  1  0
 10  9  1  0
 11 12  1  0
 10 11  1  6
 12 13  1  0
 13 17  1  0
 13 14  2  0
 15 10  1  0
 16 15  2  0
 18 15  1  0
 19 18  1  0
 19 20  1  1
 20 21  1  0
 22 19  1  0
 23 22  1  0
 24 22  2  0
M  END
$$$$
