LEC.pdb
     RDKit          3D

 24 23  0  0  1  0  0  0  0  0999 V2000
    9.3192  -13.3942   19.0368 C   0  0  0  0  0  0  0  0  0  0  0  0
    7.8435  -13.4534   19.3717 C   0  0  2  0  0  0  0  0  0  0  0  0
    7.2624  -12.0639   19.3562 C   0  0  0  0  0  0  0  0  0  0  0  0
    7.6097  -14.1604   20.6784 C   0  0  0  0  0  0  0  0  0  0  0  0
    8.2524  -15.5103   20.6849 C   0  0  2  0  0  0  0  0  0  0  0  0
    7.6415  -16.4534   19.8017 N   0  0  0  0  0  0  0  0  0  0  0  0
    8.3315  -16.0125   22.1099 C   0  0  0  0  0  0  0  0  0  0  0  0
    7.2362  -16.3217   22.6341 O   0  0  0  0  0  0  0  0  0  0  0  0
    9.5353  -16.1244   22.7933 N   0  0  0  0  0  0  0  0  0  0  0  0
    9.6362  -16.5718   24.1521 C   0  0  1  0  0  0  0  0  0  0  0  0
   10.6886  -17.6258   24.4021 C   0  0  0  0  0  0  0  0  0  0  0  0
   11.3282  -18.1886   23.1737 C   0  0  0  0  0  0  0  0  0  0  0  0
   12.7864  -18.4223   23.2841 C   0  0  0  0  0  0  0  0  0  0  0  0
   13.6257  -17.6642   22.7756 O   0  0  0  0  0  0  0  0  0  0  0  0
    9.7906  -15.4147   25.0470 C   0  0  0  0  0  0  0  0  0  0  0  0
   10.8015  -14.6608   25.0415 O   0  0  0  0  0  0  0  0  0  0  0  0
   13.2444  -19.5310   23.9820 O   0  0  0  0  0  0  0  0  0  0  0  0
    8.7601  -15.0892   25.9921 N   0  0  0  0  0  0  0  0  0  0  0  0
    8.8974  -14.0585   26.9790 C   0  0  1  0  0  0  0  0  0  0  0  0
    7.4736  -13.6365   27.3628 C   0  0  0  0  0  0  0  0  0  0  0  0
    6.5039  -13.2365   25.8851 S   0  0  0  0  0  0  0  0  0  0  0  0
    9.4991  -14.6277   28.2050 C   0  0  0  0  0  0  0  0  0  0  0  0
    9.8694  -13.7849   29.2400 O   0  0  0  0  0  0  0  0  0  0  0  0
    9.6959  -15.8675   28.3586 O   0  0  0  0  0  0  0  0  0  0  0  0
  2  1  1  1
  3  2  1  0
  4  5  1  0
  4  2  1  0
  5  6  1  6
  7  5  1  0
  7  8  2  0
  9  7  1  0
 10  9  1  0
 11 12  1  0
 10 11  1  6
 12 13  1  0
 13 17  1  0
 13 14  2  0
 15 10  1  0
 16 15  2  0
 18 15  1  0
 19 18  1  0
 19 20  1  1
 20 21  1  0
 22 19  1  0
 23 22  1  0
 24 22  2  0
M  END
$$$$
