LEC.pdb
     RDKit          3D

 24 23  0  0  1  0  0  0  0  0999 V2000
    9.7008  -13.2291   19.4388 C   0  0  0  0  0  0  0  0  0  0  0  0
    8.1944  -13.3570   19.3508 C   0  0  2  0  0  0  0  0  0  0  0  0
    7.5675  -11.9876   19.3393 C   0  0  0  0  0  0  0  0  0  0  0  0
    7.6566  -14.2268   20.4537 C   0  0  0  0  0  0  0  0  0  0  0  0
    8.3600  -15.5455   20.4935 C   0  0  2  0  0  0  0  0  0  0  0  0
    7.8109  -16.5284   19.6130 N   0  0  0  0  0  0  0  0  0  0  0  0
    8.4330  -16.0229   21.9273 C   0  0  0  0  0  0  0  0  0  0  0  0
    7.3466  -16.3978   22.4266 O   0  0  0  0  0  0  0  0  0  0  0  0
    9.6223  -16.0456   22.6441 N   0  0  0  0  0  0  0  0  0  0  0  0
    9.7320  -16.5533   23.9809 C   0  0  1  0  0  0  0  0  0  0  0  0
   10.7899  -17.6130   24.1777 C   0  0  0  0  0  0  0  0  0  0  0  0
   10.9370  -18.1110   25.5796 C   0  0  0  0  0  0  0  0  0  0  0  0
   11.9530  -19.1735   25.7580 C   0  0  0  0  0  0  0  0  0  0  0  0
   12.2125  -19.6720   26.8633 O   0  0  0  0  0  0  0  0  0  0  0  0
    9.8864  -15.4371   24.9262 C   0  0  0  0  0  0  0  0  0  0  0  0
   10.8658  -14.6427   24.9110 O   0  0  0  0  0  0  0  0  0  0  0  0
   12.6495  -19.6383   24.6511 O   0  0  0  0  0  0  0  0  0  0  0  0
    8.8930  -15.2021   25.9357 N   0  0  0  0  0  0  0  0  0  0  0  0
    8.9856  -14.1417   26.8960 C   0  0  1  0  0  0  0  0  0  0  0  0
    7.5475  -13.8153   27.3179 C   0  0  0  0  0  0  0  0  0  0  0  0
    6.6678  -12.9587   25.9852 S   0  0  0  0  0  0  0  0  0  0  0  0
    9.6657  -14.6374   28.1129 C   0  0  0  0  0  0  0  0  0  0  0  0
   10.0513  -15.9657   28.1878 O   0  0  0  0  0  0  0  0  0  0  0  0
    9.9172  -13.8962   29.1062 O   0  0  0  0  0  0  0  0  0  0  0  0
  2  1  1  1
  3  2  1  0
  4  5  1  0
  4  2  1  0
  5  6  1  6
  7  5  1  0
  7  8  2  0
  9  7  1  0
 10  9  1  0
 11 12  1  0
 10 11  1  6
 12 13  1  0
 13 17  1  0
 13 14  2  0
 15 10  1  0
 16 15  2  0
 18 15  1  0
 19 18  1  0
 19 20  1  1
 20 21  1  0
 22 19  1  0
 23 22  1  0
 24 22  2  0
M  END
$$$$
