LEC.pdb
     RDKit          3D

 24 23  0  0  1  0  0  0  0  0999 V2000
    6.8007  -12.8172   26.7052 C   0  0  0  0  0  0  0  0  0  0  0  0
    7.2067  -13.7340   25.5703 C   0  0  2  0  0  0  0  0  0  0  0  0
    7.4480  -12.9239   24.3237 C   0  0  0  0  0  0  0  0  0  0  0  0
    6.1915  -14.8237   25.3609 C   0  0  0  0  0  0  0  0  0  0  0  0
    6.6308  -15.7734   24.2929 C   0  0  2  0  0  0  0  0  0  0  0  0
    5.6706  -16.7842   23.9777 N   0  0  0  0  0  0  0  0  0  0  0  0
    7.9798  -16.3472   24.6670 C   0  0  0  0  0  0  0  0  0  0  0  0
    8.0174  -16.9728   25.7520 O   0  0  0  0  0  0  0  0  0  0  0  0
    9.1023  -16.1927   23.8640 N   0  0  0  0  0  0  0  0  0  0  0  0
   10.3816  -16.7628   24.1726 C   0  0  1  0  0  0  0  0  0  0  0  0
   11.3252  -16.8891   23.0001 C   0  0  0  0  0  0  0  0  0  0  0  0
   12.6535  -17.4974   23.3166 C   0  0  0  0  0  0  0  0  0  0  0  0
   13.6000  -17.5490   22.1787 C   0  0  0  0  0  0  0  0  0  0  0  0
   14.7712  -17.9378   22.3000 O   0  0  0  0  0  0  0  0  0  0  0  0
   10.9922  -16.0366   25.2966 C   0  0  0  0  0  0  0  0  0  0  0  0
   11.6160  -14.9485   25.1653 O   0  0  0  0  0  0  0  0  0  0  0  0
   13.1707  -17.1485   20.9211 O   0  0  0  0  0  0  0  0  0  0  0  0
   10.8965  -16.5574   26.6310 N   0  0  0  0  0  0  0  0  0  0  0  0
   11.4105  -15.8712   27.7800 C   0  0  1  0  0  0  0  0  0  0  0  0
   10.3333  -14.8621   28.1972 C   0  0  0  0  0  0  0  0  0  0  0  0
   10.7856  -14.0487   29.7521 S   0  0  0  0  0  0  0  0  0  0  0  0
   11.5367  -16.8226   28.9061 C   0  0  0  0  0  0  0  0  0  0  0  0
   12.4685  -16.5831   29.9026 O   0  0  0  0  0  0  0  0  0  0  0  0
   10.8239  -17.8624   29.0065 O   0  0  0  0  0  0  0  0  0  0  0  0
  2  1  1  1
  3  2  1  0
  4  5  1  0
  4  2  1  0
  5  6  1  1
  7  5  1  0
  7  8  2  0
  9  7  1  0
 10  9  1  0
 11 12  1  0
 10 11  1  6
 12 13  1  0
 13 17  1  0
 13 14  2  0
 15 10  1  0
 16 15  2  0
 18 15  1  0
 19 18  1  0
 19 20  1  1
 20 21  1  0
 22 19  1  0
 23 22  1  0
 24 22  2  0
M  END
$$$$
