LEC.pdb
     RDKit          3D

 24 23  0  0  1  0  0  0  0  0999 V2000
    9.6920  -13.2463   19.7512 C   0  0  0  0  0  0  0  0  0  0  0  0
    8.1971  -13.4560   19.6312 C   0  0  2  0  0  0  0  0  0  0  0  0
    7.4824  -12.1443   19.8241 C   0  0  0  0  0  0  0  0  0  0  0  0
    7.7181  -14.5176   20.5828 C   0  0  0  0  0  0  0  0  0  0  0  0
    8.5190  -15.7721   20.4403 C   0  0  2  0  0  0  0  0  0  0  0  0
    7.8992  -16.7730   19.6298 N   0  0  0  0  0  0  0  0  0  0  0  0
    8.8870  -16.2818   21.8165 C   0  0  0  0  0  0  0  0  0  0  0  0
    7.9224  -16.5033   22.5850 O   0  0  0  0  0  0  0  0  0  0  0  0
   10.2039  -16.4912   22.2045 N   0  0  0  0  0  0  0  0  0  0  0  0
   10.5820  -16.9461   23.5109 C   0  0  1  0  0  0  0  0  0  0  0  0
   11.8438  -17.7747   23.5594 C   0  0  0  0  0  0  0  0  0  0  0  0
   12.1897  -18.3270   24.9047 C   0  0  0  0  0  0  0  0  0  0  0  0
   13.3993  -19.1809   24.9334 C   0  0  0  0  0  0  0  0  0  0  0  0
   13.7664  -19.7868   25.9511 O   0  0  0  0  0  0  0  0  0  0  0  0
   10.6346  -15.8062   24.4390 C   0  0  0  0  0  0  0  0  0  0  0  0
   11.3379  -14.7785   24.2399 O   0  0  0  0  0  0  0  0  0  0  0  0
   14.1612  -19.3161   23.7812 O   0  0  0  0  0  0  0  0  0  0  0  0
    9.8597  -15.8216   25.6475 N   0  0  0  0  0  0  0  0  0  0  0  0
    9.8870  -14.7603   26.6109 C   0  0  1  0  0  0  0  0  0  0  0  0
    8.4384  -14.2797   26.7641 C   0  0  0  0  0  0  0  0  0  0  0  0
    8.3200  -13.0000   28.0416 S   0  0  0  0  0  0  0  0  0  0  0  0
   10.2788  -15.3031   27.9304 C   0  0  0  0  0  0  0  0  0  0  0  0
   10.1936  -16.6661   28.1619 O   0  0  0  0  0  0  0  0  0  0  0  0
   10.6951  -14.5721   28.8747 O   0  0  0  0  0  0  0  0  0  0  0  0
  2  1  1  1
  3  2  1  0
  4  5  1  0
  4  2  1  0
  5  6  1  1
  7  5  1  0
  7  8  2  0
  9  7  1  0
 10  9  1  0
 11 12  1  0
 10 11  1  6
 12 13  1  0
 13 17  1  0
 13 14  2  0
 15 10  1  0
 16 15  2  0
 18 15  1  0
 19 18  1  0
 19 20  1  1
 20 21  1  0
 22 19  1  0
 23 22  1  0
 24 22  2  0
M  END
$$$$
