LEC.pdb
     RDKit          3D

 24 23  0  0  1  0  0  0  0  0999 V2000
    6.7955  -12.3606   24.1199 C   0  0  0  0  0  0  0  0  0  0  0  0
    6.2543  -12.9764   25.3931 C   0  0  2  0  0  0  0  0  0  0  0  0
    6.1336  -11.9184   26.4583 C   0  0  0  0  0  0  0  0  0  0  0  0
    7.0949  -14.1432   25.8336 C   0  0  0  0  0  0  0  0  0  0  0  0
    7.0319  -15.2596   24.8412 C   0  0  2  0  0  0  0  0  0  0  0  0
    5.7879  -15.9634   24.8305 N   0  0  0  0  0  0  0  0  0  0  0  0
    8.2178  -16.1751   25.0522 C   0  0  0  0  0  0  0  0  0  0  0  0
    8.1169  -16.9758   26.0108 O   0  0  0  0  0  0  0  0  0  0  0  0
    9.3434  -16.1334   24.2399 N   0  0  0  0  0  0  0  0  0  0  0  0
   10.5318  -16.8952   24.4930 C   0  0  1  0  0  0  0  0  0  0  0  0
   11.4655  -17.0346   23.3142 C   0  0  0  0  0  0  0  0  0  0  0  0
   10.9016  -17.7688   22.1405 C   0  0  0  0  0  0  0  0  0  0  0  0
   11.4255  -17.3338   20.8255 C   0  0  0  0  0  0  0  0  0  0  0  0
   12.5196  -16.7649   20.6963 O   0  0  0  0  0  0  0  0  0  0  0  0
   11.2185  -16.3663   25.6814 C   0  0  0  0  0  0  0  0  0  0  0  0
   11.7277  -15.2138   25.7354 O   0  0  0  0  0  0  0  0  0  0  0  0
   10.6706  -17.5666   19.6843 O   0  0  0  0  0  0  0  0  0  0  0  0
   11.3378  -17.1701   26.8649 N   0  0  0  0  0  0  0  0  0  0  0  0
   11.7945  -16.6533   28.1218 C   0  0  1  0  0  0  0  0  0  0  0  0
   10.7360  -15.6437   28.5832 C   0  0  0  0  0  0  0  0  0  0  0  0
   11.1997  -14.9119   30.1748 S   0  0  0  0  0  0  0  0  0  0  0  0
   11.7922  -17.7366   29.1296 C   0  0  0  0  0  0  0  0  0  0  0  0
   12.5547  -17.6036   30.2784 O   0  0  0  0  0  0  0  0  0  0  0  0
   11.1170  -18.7971   28.9927 O   0  0  0  0  0  0  0  0  0  0  0  0
  2  1  1  6
  3  2  1  0
  4  5  1  0
  4  2  1  0
  5  6  1  1
  7  5  1  0
  7  8  2  0
  9  7  1  0
 10  9  1  0
 11 12  1  0
 10 11  1  6
 12 13  1  0
 13 17  1  0
 13 14  2  0
 15 10  1  0
 16 15  2  0
 18 15  1  0
 19 18  1  0
 19 20  1  1
 20 21  1  0
 22 19  1  0
 23 22  1  0
 24 22  2  0
M  END
$$$$
