HRY.pdb
     RDKit          3D

 34 35  0  0  1  0  0  0  0  0999 V2000
   19.5065  -12.2155  -19.1602 N   0  0  0  0  0  0  0  0  0  0  0  0
   19.9452  -11.6808  -17.8927 C   0  0  1  0  0  0  0  0  0  0  0  0
   20.5466  -12.7909  -17.0628 C   0  0  0  0  0  0  0  0  0  0  0  0
   19.5126  -13.7731  -16.7339 C   0  0  0  0  0  0  0  0  0  0  0  0
   19.5216  -15.1112  -17.0636 C   0  0  0  0  0  0  0  0  0  0  0  0
   18.4011  -15.7028  -16.5924 N   0  0  0  0  0  0  0  0  0  0  0  0
   17.6930  -14.7536  -15.9734 C   0  0  0  0  0  0  0  0  0  0  0  0
   18.3596  -13.5921  -16.0573 N   0  0  0  0  0  0  0  0  0  0  0  0
   20.9111  -10.5886  -18.1451 C   0  0  0  0  0  0  0  0  0  0  0  0
   21.9384  -10.8198  -18.7903 O   0  0  0  0  0  0  0  0  0  0  0  0
   22.7652   -5.8159  -24.0084 N   0  0  0  0  0  0  0  0  0  0  0  0
   23.5926   -5.1720  -23.0467 C   0  0  0  0  0  0  0  0  0  0  0  0
   24.4338   -4.2910  -23.4845 N   0  0  0  0  0  0  0  0  0  0  0  0
   23.5178   -5.4660  -21.6574 N   0  0  0  0  0  0  0  0  0  0  0  0
   22.6037   -6.4845  -21.2367 C   0  0  0  0  0  0  0  0  0  0  0  0
   22.5537   -6.6313  -19.7274 C   0  0  0  0  0  0  0  0  0  0  0  0
   21.6192   -7.8191  -19.4585 C   0  0  0  0  0  0  0  0  0  0  0  0
   21.5345   -8.1268  -17.9957 C   0  0  2  0  0  0  0  0  0  0  0  0
   20.7169   -9.2645  -17.6769 N   0  0  0  0  0  0  0  0  0  0  0  0
   21.0963   -6.8977  -17.2894 C   0  0  0  0  0  0  0  0  0  0  0  0
   19.9077   -6.4830  -17.3711 O   0  0  0  0  0  0  0  0  0  0  0  0
   25.0833   -3.7780  -22.8716 O   0  0  0  0  0  0  0  0  0  0  0  0
   17.8185   -9.6427  -12.4924 C   0  0  0  0  0  0  0  0  0  0  0  0
   18.7948   -8.7417  -12.8937 C   0  0  0  0  0  0  0  0  0  0  0  0
   18.5076   -7.4136  -13.1112 C   0  0  0  0  0  0  0  0  0  0  0  0
   19.5210   -6.5622  -13.5101 C   0  0  0  0  0  0  0  0  0  0  0  0
   20.8130   -6.9966  -13.6988 C   0  0  0  0  0  0  0  0  0  0  0  0
   21.8944   -6.0875  -14.1276 C   0  0  2  0  0  0  0  0  0  0  0  0
   21.5881   -5.3261  -15.3882 N   0  0  0  0  0  0  0  0  0  0  0  0
   22.0276   -6.1682  -16.5035 C   0  0  0  0  0  0  0  0  0  0  0  0
   22.3206   -4.0425  -15.5011 O   0  0  0  0  0  0  0  0  0  0  0  0
   23.2820   -3.9154  -16.3105 C   0  0  0  0  0  0  0  0  0  0  0  0
   21.1011   -8.3469  -13.4768 C   0  0  0  0  0  0  0  0  0  0  0  0
   20.0787   -9.1942  -13.0767 O   0  0  0  0  0  0  0  0  0  0  0  0
  2  1  1  6
  2  9  1  0
  2  3  1  0
  4  3  1  0
  4  5  2  0
  6  5  1  0
  7  8  2  0
  7  6  1  0
  8  4  1  0
  9 19  1  0
  9 10  2  0
 11 12  1  0
 12 14  1  0
 13 12  2  0
 15 14  1  0
 16 17  1  0
 16 15  1  0
 18 17  1  6
 19 18  1  0
 20 29  1  0
 20 18  1  0
 21 20  2  0
 22 23  1  0
 23 24  2  0
 24 25  1  0
 26 27  1  0
 26 25  2  0
 28 27  1  6
 28 30  1  0
 28 29  1  0
 30 34  1  0
 31 30  2  0
 32 26  1  0
 33 32  2  0
 33 23  1  0
M  END
$$$$
