HRY.pdb
     RDKit          3D

 34 35  0  0  1  0  0  0  0  0999 V2000
   23.2986  -18.4323  -21.6305 N   0  0  0  0  0  0  0  0  0  0  0  0
   22.7382  -17.7054  -20.5159 C   0  0  1  0  0  0  0  0  0  0  0  0
   21.2921  -17.3788  -20.8081 C   0  0  0  0  0  0  0  0  0  0  0  0
   21.2122  -16.1084  -21.5302 C   0  0  0  0  0  0  0  0  0  0  0  0
   20.1397  -15.2430  -21.5459 C   0  0  0  0  0  0  0  0  0  0  0  0
   20.4299  -14.1737  -22.3207 N   0  0  0  0  0  0  0  0  0  0  0  0
   21.6677  -14.3591  -22.7887 C   0  0  0  0  0  0  0  0  0  0  0  0
   22.1402  -15.5222  -22.3145 N   0  0  0  0  0  0  0  0  0  0  0  0
   22.8879  -18.5220  -19.2910 C   0  0  0  0  0  0  0  0  0  0  0  0
   22.8446  -19.7536  -19.3699 O   0  0  0  0  0  0  0  0  0  0  0  0
   25.2841  -21.4532  -12.6667 N   0  0  0  0  0  0  0  0  0  0  0  0
   25.4526  -21.9595  -13.9856 C   0  0  0  0  0  0  0  0  0  0  0  0
   25.2624  -23.2277  -14.1616 N   0  0  0  0  0  0  0  0  0  0  0  0
   25.8143  -21.1283  -15.0811 N   0  0  0  0  0  0  0  0  0  0  0  0
   25.8296  -19.7121  -14.8708 C   0  0  0  0  0  0  0  0  0  0  0  0
   24.4393  -19.1420  -14.6607 C   0  0  0  0  0  0  0  0  0  0  0  0
   24.2118  -18.1681  -15.8252 C   0  0  0  0  0  0  0  0  0  0  0  0
   23.1659  -18.6783  -16.7673 C   0  0  2  0  0  0  0  0  0  0  0  0
   23.0823  -17.9553  -18.0061 N   0  0  0  0  0  0  0  0  0  0  0  0
   21.8710  -18.7160  -16.0439 C   0  0  0  0  0  0  0  0  0  0  0  0
   21.2014  -17.6658  -15.8429 O   0  0  0  0  0  0  0  0  0  0  0  0
   25.4171  -23.7014  -15.0629 O   0  0  0  0  0  0  0  0  0  0  0  0
   20.9603  -20.0406   -7.7736 C   0  0  0  0  0  0  0  0  0  0  0  0
   21.2371  -19.9516   -9.1306 C   0  0  0  0  0  0  0  0  0  0  0  0
   22.0542  -20.8604   -9.7631 C   0  0  0  0  0  0  0  0  0  0  0  0
   22.2942  -20.7217  -11.1173 C   0  0  0  0  0  0  0  0  0  0  0  0
   21.7431  -19.7026  -11.8598 C   0  0  0  0  0  0  0  0  0  0  0  0
   22.0019  -19.5532  -13.3056 C   0  0  2  0  0  0  0  0  0  0  0  0
   20.9125  -20.1087  -14.1816 N   0  0  0  0  0  0  0  0  0  0  0  0
   21.3683  -19.9551  -15.5654 C   0  0  0  0  0  0  0  0  0  0  0  0
   19.6269  -19.3800  -14.0668 O   0  0  0  0  0  0  0  0  0  0  0  0
   19.4885  -18.2292  -14.5690 C   0  0  0  0  0  0  0  0  0  0  0  0
   20.9131  -18.7810  -11.2137 C   0  0  0  0  0  0  0  0  0  0  0  0
   20.6775  -18.9274   -9.8550 O   0  0  0  0  0  0  0  0  0  0  0  0
  2  1  1  6
  2  9  1  0
  2  3  1  0
  4  3  1  0
  4  5  2  0
  6  5  1  0
  7  8  2  0
  7  6  1  0
  8  4  1  0
  9 19  1  0
  9 10  2  0
 11 12  1  0
 12 14  1  0
 13 12  2  0
 15 14  1  0
 16 17  1  0
 16 15  1  0
 18 17  1  1
 19 18  1  0
 20 29  1  0
 20 18  1  0
 21 20  2  0
 22 23  1  0
 23 24  2  0
 24 25  1  0
 26 27  1  0
 26 25  2  0
 28 27  1  1
 28 30  1  0
 28 29  1  0
 30 34  1  0
 31 30  2  0
 32 26  1  0
 33 32  2  0
 33 23  1  0
M  END
$$$$
