HRY.pdb
     RDKit          3D

 34 35  0  0  1  0  0  0  0  0999 V2000
   25.5254  -35.2117   -5.5171 N   0  0  0  0  0  0  0  0  0  0  0  0
   26.6661  -34.3984   -5.1677 C   0  0  1  0  0  0  0  0  0  0  0  0
   26.2824  -32.9391   -5.2450 C   0  0  0  0  0  0  0  0  0  0  0  0
   26.0345  -32.5701   -6.6393 C   0  0  0  0  0  0  0  0  0  0  0  0
   26.9383  -32.6421   -7.6772 C   0  0  0  0  0  0  0  0  0  0  0  0
   26.3529  -32.2181   -8.8197 N   0  0  0  0  0  0  0  0  0  0  0  0
   25.0971  -31.8825   -8.5101 C   0  0  0  0  0  0  0  0  0  0  0  0
   24.9034  -32.0934   -7.1991 N   0  0  0  0  0  0  0  0  0  0  0  0
   27.1279  -34.7817   -3.8151 C   0  0  0  0  0  0  0  0  0  0  0  0
   26.2997  -34.9752   -2.9197 O   0  0  0  0  0  0  0  0  0  0  0  0
   35.3683  -35.8661   -0.6573 N   0  0  0  0  0  0  0  0  0  0  0  0
   34.5540  -36.6049    0.2456 C   0  0  0  0  0  0  0  0  0  0  0  0
   35.1576  -37.2804    1.1702 N   0  0  0  0  0  0  0  0  0  0  0  0
   33.1348  -36.6171    0.1574 N   0  0  0  0  0  0  0  0  0  0  0  0
   32.5236  -35.8798   -0.9070 C   0  0  0  0  0  0  0  0  0  0  0  0
   31.0121  -36.0110   -0.9101 C   0  0  0  0  0  0  0  0  0  0  0  0
   30.5277  -35.1814   -2.1074 C   0  0  0  0  0  0  0  0  0  0  0  0
   29.0326  -35.1265   -2.1644 C   0  0  2  0  0  0  0  0  0  0  0  0
   28.4974  -34.9420   -3.4850 N   0  0  0  0  0  0  0  0  0  0  0  0
   28.5718  -34.0837   -1.2148 C   0  0  0  0  0  0  0  0  0  0  0  0
   28.3538  -32.9007   -1.5952 O   0  0  0  0  0  0  0  0  0  0  0  0
   34.6653  -37.9032    1.8262 O   0  0  0  0  0  0  0  0  0  0  0  0
   23.8270  -29.9402    4.5993 C   0  0  0  0  0  0  0  0  0  0  0  0
   24.4715  -30.7101    3.6412 C   0  0  0  0  0  0  0  0  0  0  0  0
   23.9905  -31.9417    3.2599 C   0  0  0  0  0  0  0  0  0  0  0  0
   24.6748  -32.6641    2.3003 C   0  0  0  0  0  0  0  0  0  0  0  0
   25.8253  -32.1942    1.7096 C   0  0  0  0  0  0  0  0  0  0  0  0
   26.5573  -32.9673    0.6868 C   0  0  1  0  0  0  0  0  0  0  0  0
   27.9270  -33.4120    1.1217 N   0  0  0  0  0  0  0  0  0  0  0  0
   28.3694  -34.4161    0.1511 C   0  0  0  0  0  0  0  0  0  0  0  0
   27.9468  -34.0608    2.4542 O   0  0  0  0  0  0  0  0  0  0  0  0
   27.8344  -35.3141    2.5651 C   0  0  0  0  0  0  0  0  0  0  0  0
   26.3111  -30.9421    2.0995 C   0  0  0  0  0  0  0  0  0  0  0  0
   25.6186  -30.2240    3.0627 O   0  0  0  0  0  0  0  0  0  0  0  0
  2  1  1  1
  2  9  1  0
  2  3  1  0
  4  3  1  0
  4  5  2  0
  6  5  1  0
  7  8  2  0
  7  6  1  0
  8  4  1  0
  9 19  1  0
  9 10  2  0
 11 12  1  0
 12 14  1  0
 13 12  2  0
 15 14  1  0
 16 17  1  0
 16 15  1  0
 18 17  1  6
 19 18  1  0
 20 29  1  0
 20 18  1  0
 21 20  2  0
 22 23  1  0
 23 24  2  0
 24 25  1  0
 26 27  1  0
 26 25  2  0
 28 27  1  6
 28 30  1  0
 28 29  1  0
 30 34  1  0
 31 30  2  0
 32 26  1  0
 33 32  2  0
 33 23  1  0
M  END
$$$$
