HRY.pdb
     RDKit          3D

 34 35  0  0  1  0  0  0  0  0999 V2000
   14.9723  -13.4369  -12.3214 N   0  0  0  0  0  0  0  0  0  0  0  0
   14.4540  -12.1045  -12.5236 C   0  0  1  0  0  0  0  0  0  0  0  0
   12.9698  -12.0969  -12.2403 C   0  0  0  0  0  0  0  0  0  0  0  0
   12.2703  -12.8708  -13.2667 C   0  0  0  0  0  0  0  0  0  0  0  0
   11.5187  -14.0079  -13.0629 C   0  0  0  0  0  0  0  0  0  0  0  0
   11.0266  -14.4450  -14.2438 N   0  0  0  0  0  0  0  0  0  0  0  0
   11.4600  -13.5974  -15.1815 C   0  0  0  0  0  0  0  0  0  0  0  0
   12.2083  -12.6498  -14.5961 N   0  0  0  0  0  0  0  0  0  0  0  0
   15.1926  -11.1680  -11.6478 C   0  0  0  0  0  0  0  0  0  0  0  0
   15.4285  -11.4845  -10.4776 O   0  0  0  0  0  0  0  0  0  0  0  0
   22.1257   -7.2193  -13.9451 N   0  0  0  0  0  0  0  0  0  0  0  0
   21.9389   -8.6269  -14.0329 C   0  0  0  0  0  0  0  0  0  0  0  0
   22.8546   -9.3087  -14.6430 N   0  0  0  0  0  0  0  0  0  0  0  0
   20.8031   -9.2813  -13.4819 N   0  0  0  0  0  0  0  0  0  0  0  0
   19.7475   -8.4660  -12.9614 C   0  0  0  0  0  0  0  0  0  0  0  0
   18.6236   -9.2878  -12.3584 C   0  0  0  0  0  0  0  0  0  0  0  0
   17.5123   -8.2838  -12.0217 C   0  0  0  0  0  0  0  0  0  0  0  0
   16.3794   -8.9451  -11.2997 C   0  0  2  0  0  0  0  0  0  0  0  0
   15.6534   -9.9017  -12.0885 N   0  0  0  0  0  0  0  0  0  0  0  0
   15.5023   -7.8842  -10.7457 C   0  0  0  0  0  0  0  0  0  0  0  0
   14.6450   -7.3009  -11.4642 O   0  0  0  0  0  0  0  0  0  0  0  0
   22.8065  -10.3294  -14.7711 O   0  0  0  0  0  0  0  0  0  0  0  0
   11.3669   -3.0179   -4.6349 C   0  0  0  0  0  0  0  0  0  0  0  0
   12.1678   -3.9398   -5.2943 C   0  0  0  0  0  0  0  0  0  0  0  0
   13.5207   -4.0231   -5.0565 C   0  0  0  0  0  0  0  0  0  0  0  0
   14.2685   -4.9613   -5.7432 C   0  0  0  0  0  0  0  0  0  0  0  0
   13.7065   -5.8192   -6.6606 C   0  0  0  0  0  0  0  0  0  0  0  0
   14.5060   -6.8192   -7.3959 C   0  0  1  0  0  0  0  0  0  0  0  0
   14.8231   -6.4255   -8.8127 N   0  0  0  0  0  0  0  0  0  0  0  0
   15.6241   -7.5128   -9.3804 C   0  0  0  0  0  0  0  0  0  0  0  0
   15.6344   -5.1897   -8.9195 O   0  0  0  0  0  0  0  0  0  0  0  0
   16.8909   -5.2281   -8.7955 C   0  0  0  0  0  0  0  0  0  0  0  0
   12.3314   -5.7316   -6.8996 C   0  0  0  0  0  0  0  0  0  0  0  0
   11.5886   -4.7878   -6.2065 O   0  0  0  0  0  0  0  0  0  0  0  0
  2  1  1  1
  2  9  1  0
  2  3  1  0
  4  3  1  0
  4  5  2  0
  6  5  1  0
  7  8  2  0
  7  6  1  0
  8  4  1  0
  9 19  1  0
  9 10  2  0
 11 12  1  0
 12 14  1  0
 13 12  2  0
 15 14  1  0
 16 17  1  0
 16 15  1  0
 18 17  1  6
 19 18  1  0
 20 29  1  0
 20 18  1  0
 21 20  2  0
 22 23  1  0
 23 24  2  0
 24 25  1  0
 26 27  1  0
 26 25  2  0
 28 27  1  6
 28 30  1  0
 28 29  1  0
 30 34  1  0
 31 30  2  0
 32 26  1  0
 33 32  2  0
 33 23  1  0
M  END
$$$$
