HRY.pdb
     RDKit          3D

 34 35  0  0  1  0  0  0  0  0999 V2000
   27.9852  -22.1498  -17.7157 N   0  0  0  0  0  0  0  0  0  0  0  0
   27.7458  -21.0622  -16.7966 C   0  0  1  0  0  0  0  0  0  0  0  0
   27.2059  -19.8739  -17.5577 C   0  0  0  0  0  0  0  0  0  0  0  0
   28.2792  -19.2675  -18.3465 C   0  0  0  0  0  0  0  0  0  0  0  0
   28.4328  -19.3447  -19.7139 C   0  0  0  0  0  0  0  0  0  0  0  0
   29.5388  -18.6621  -20.0862 N   0  0  0  0  0  0  0  0  0  0  0  0
   30.0777  -18.1601  -18.9712 C   0  0  0  0  0  0  0  0  0  0  0  0
   29.3217  -18.5230  -17.9236 N   0  0  0  0  0  0  0  0  0  0  0  0
   26.8100  -21.5229  -15.7470 C   0  0  0  0  0  0  0  0  0  0  0  0
   25.8525  -22.2394  -16.0551 O   0  0  0  0  0  0  0  0  0  0  0  0
   23.0589  -20.2683   -9.4295 N   0  0  0  0  0  0  0  0  0  0  0  0
   23.7994  -20.9665   -8.4353 C   0  0  0  0  0  0  0  0  0  0  0  0
   23.1426  -21.4150   -7.4140 N   0  0  0  0  0  0  0  0  0  0  0  0
   25.2022  -21.1759   -8.5359 N   0  0  0  0  0  0  0  0  0  0  0  0
   25.8896  -20.5858   -9.6446 C   0  0  0  0  0  0  0  0  0  0  0  0
   25.2733  -20.9658  -10.9779 C   0  0  0  0  0  0  0  0  0  0  0  0
   26.4398  -21.0106  -11.9747 C   0  0  0  0  0  0  0  0  0  0  0  0
   25.9678  -21.3592  -13.3522 C   0  0  2  0  0  0  0  0  0  0  0  0
   26.9562  -21.1791  -14.3793 N   0  0  0  0  0  0  0  0  0  0  0  0
   24.7242  -20.5960  -13.6216 C   0  0  0  0  0  0  0  0  0  0  0  0
   24.7005  -19.3364  -13.5549 O   0  0  0  0  0  0  0  0  0  0  0  0
   23.5851  -21.9353   -6.6433 O   0  0  0  0  0  0  0  0  0  0  0  0
   16.7386  -19.0092  -17.0415 C   0  0  0  0  0  0  0  0  0  0  0  0
   17.9440  -19.5733  -16.6480 C   0  0  0  0  0  0  0  0  0  0  0  0
   17.9941  -20.7565  -15.9472 C   0  0  0  0  0  0  0  0  0  0  0  0
   19.2240  -21.2710  -15.5817 C   0  0  0  0  0  0  0  0  0  0  0  0
   20.4060  -20.6398  -15.8947 C   0  0  0  0  0  0  0  0  0  0  0  0
   21.7193  -21.1883  -15.5017 C   0  0  1  0  0  0  0  0  0  0  0  0
   22.2900  -20.5716  -14.2540 N   0  0  0  0  0  0  0  0  0  0  0  0
   23.5329  -21.2900  -13.9623 C   0  0  0  0  0  0  0  0  0  0  0  0
   21.4170  -20.7177  -13.0651 O   0  0  0  0  0  0  0  0  0  0  0  0
   21.4717  -21.7548  -12.3460 C   0  0  0  0  0  0  0  0  0  0  0  0
   20.3512  -19.4377  -16.6070 C   0  0  0  0  0  0  0  0  0  0  0  0
   19.1134  -18.9285  -16.9698 O   0  0  0  0  0  0  0  0  0  0  0  0
  2  1  1  6
  2  9  1  0
  2  3  1  0
  4  3  1  0
  4  5  2  0
  6  5  1  0
  7  8  2  0
  7  6  1  0
  8  4  1  0
  9 19  1  0
  9 10  2  0
 11 12  1  0
 12 14  1  0
 13 12  2  0
 15 14  1  0
 16 17  1  0
 16 15  1  0
 18 17  1  1
 19 18  1  0
 20 29  1  0
 20 18  1  0
 21 20  2  0
 22 23  1  0
 23 24  2  0
 24 25  1  0
 26 27  1  0
 26 25  2  0
 28 27  1  6
 28 30  1  0
 28 29  1  0
 30 34  1  0
 31 30  2  0
 32 26  1  0
 33 32  2  0
 33 23  1  0
M  END
$$$$
