HRY.pdb
     RDKit          3D

 34 35  0  0  1  0  0  0  0  0999 V2000
   19.5884  -14.4434  -16.8842 N   0  0  0  0  0  0  0  0  0  0  0  0
   18.8474  -13.2087  -16.9913 C   0  0  1  0  0  0  0  0  0  0  0  0
   17.6899  -13.2343  -16.0206 C   0  0  0  0  0  0  0  0  0  0  0  0
   16.6947  -14.2090  -16.4692 C   0  0  0  0  0  0  0  0  0  0  0  0
   16.1304  -14.2828  -17.7244 C   0  0  0  0  0  0  0  0  0  0  0  0
   15.2530  -15.3104  -17.7686 N   0  0  0  0  0  0  0  0  0  0  0  0
   15.2615  -15.8790  -16.5594 C   0  0  0  0  0  0  0  0  0  0  0  0
   16.1279  -15.2182  -15.7762 N   0  0  0  0  0  0  0  0  0  0  0  0
   19.7661  -12.0779  -16.7324 C   0  0  0  0  0  0  0  0  0  0  0  0
   20.3733  -12.0187  -15.6587 O   0  0  0  0  0  0  0  0  0  0  0  0
   22.4036   -7.4854  -23.2547 N   0  0  0  0  0  0  0  0  0  0  0  0
   21.2070   -8.0714  -22.7558 C   0  0  0  0  0  0  0  0  0  0  0  0
   20.1394   -7.9419  -23.4762 N   0  0  0  0  0  0  0  0  0  0  0  0
   21.1596   -8.7749  -21.5210 N   0  0  0  0  0  0  0  0  0  0  0  0
   22.3849   -8.9456  -20.8001 C   0  0  0  0  0  0  0  0  0  0  0  0
   22.2154   -9.8107  -19.5652 C   0  0  0  0  0  0  0  0  0  0  0  0
   21.1302   -9.1232  -18.7248 C   0  0  0  0  0  0  0  0  0  0  0  0
   20.8380   -9.8936  -17.4747 C   0  0  2  0  0  0  0  0  0  0  0  0
   19.9914  -11.0380  -17.6694 N   0  0  0  0  0  0  0  0  0  0  0  0
   20.2938   -8.9503  -16.4670 C   0  0  0  0  0  0  0  0  0  0  0  0
   19.0741   -8.6281  -16.4620 O   0  0  0  0  0  0  0  0  0  0  0  0
   19.2300   -8.3484  -23.2148 O   0  0  0  0  0  0  0  0  0  0  0  0
   19.7862   -4.6373   -8.7816 C   0  0  0  0  0  0  0  0  0  0  0  0
   20.1441   -5.4400   -9.8557 C   0  0  0  0  0  0  0  0  0  0  0  0
   19.4654   -6.6005  -10.1490 C   0  0  0  0  0  0  0  0  0  0  0  0
   19.8670   -7.3602  -11.2318 C   0  0  0  0  0  0  0  0  0  0  0  0
   20.9263   -6.9963  -12.0311 C   0  0  0  0  0  0  0  0  0  0  0  0
   21.3567   -7.8094  -13.1859 C   0  0  2  0  0  0  0  0  0  0  0  0
   20.6569   -7.4628  -14.4715 N   0  0  0  0  0  0  0  0  0  0  0  0
   21.1567   -8.3950  -15.4851 C   0  0  0  0  0  0  0  0  0  0  0  0
   20.9519   -6.0947  -14.9596 O   0  0  0  0  0  0  0  0  0  0  0  0
   21.9397   -5.8768  -15.7160 C   0  0  0  0  0  0  0  0  0  0  0  0
   21.6137   -5.8162  -11.7301 C   0  0  0  0  0  0  0  0  0  0  0  0
   21.2043   -5.0601  -10.6422 O   0  0  0  0  0  0  0  0  0  0  0  0
  2  1  1  1
  2  9  1  0
  2  3  1  0
  4  3  1  0
  4  5  2  0
  6  5  1  0
  7  8  2  0
  7  6  1  0
  8  4  1  0
  9 19  1  0
  9 10  2  0
 11 12  1  0
 12 14  1  0
 13 12  2  0
 15 14  1  0
 16 17  1  0
 16 15  1  0
 18 17  1  6
 19 18  1  0
 20 29  1  0
 20 18  1  0
 21 20  2  0
 22 23  1  0
 23 24  2  0
 24 25  1  0
 26 27  1  0
 26 25  2  0
 28 27  1  1
 28 30  1  0
 28 29  1  0
 30 34  1  0
 31 30  2  0
 32 26  1  0
 33 32  2  0
 33 23  1  0
M  END
$$$$
