HRY.pdb
     RDKit          3D

 34 35  0  0  1  0  0  0  0  0999 V2000
   23.1233  -19.2908  -17.9411 N   0  0  0  0  0  0  0  0  0  0  0  0
   24.0995  -18.7500  -17.0249 C   0  0  1  0  0  0  0  0  0  0  0  0
   23.3999  -17.8874  -16.0004 C   0  0  0  0  0  0  0  0  0  0  0  0
   22.9092  -16.6661  -16.6401 C   0  0  0  0  0  0  0  0  0  0  0  0
   21.6683  -16.4842  -17.2115 C   0  0  0  0  0  0  0  0  0  0  0  0
   21.5736  -15.2280  -17.7021 N   0  0  0  0  0  0  0  0  0  0  0  0
   22.7372  -14.6233  -17.4454 C   0  0  0  0  0  0  0  0  0  0  0  0
   23.5420  -15.4864  -16.8067 N   0  0  0  0  0  0  0  0  0  0  0  0
   24.8372  -19.8698  -16.3992 C   0  0  0  0  0  0  0  0  0  0  0  0
   24.2170  -20.8570  -15.9920 O   0  0  0  0  0  0  0  0  0  0  0  0
   30.8077  -24.7803  -15.6001 N   0  0  0  0  0  0  0  0  0  0  0  0
   30.7083  -24.6635  -17.0145 C   0  0  0  0  0  0  0  0  0  0  0  0
   30.8574  -25.7451  -17.7098 N   0  0  0  0  0  0  0  0  0  0  0  0
   30.4562  -23.4225  -17.6614 N   0  0  0  0  0  0  0  0  0  0  0  0
   30.1255  -22.2955  -16.8425 C   0  0  0  0  0  0  0  0  0  0  0  0
   28.6632  -22.2816  -16.4381 C   0  0  0  0  0  0  0  0  0  0  0  0
   28.4302  -20.9159  -15.7772 C   0  0  0  0  0  0  0  0  0  0  0  0
   26.9981  -20.7401  -15.3773 C   0  0  2  0  0  0  0  0  0  0  0  0
   26.2459  -19.8705  -16.2389 N   0  0  0  0  0  0  0  0  0  0  0  0
   26.9644  -20.3023  -13.9600 C   0  0  0  0  0  0  0  0  0  0  0  0
   27.3270  -19.1418  -13.6234 O   0  0  0  0  0  0  0  0  0  0  0  0
   30.7464  -25.7774  -18.7331 O   0  0  0  0  0  0  0  0  0  0  0  0
   20.2134  -20.3943  -11.8208 C   0  0  0  0  0  0  0  0  0  0  0  0
   21.5856  -20.2024  -11.7400 C   0  0  0  0  0  0  0  0  0  0  0  0
   22.3747  -20.1414  -12.8656 C   0  0  0  0  0  0  0  0  0  0  0  0
   23.7361  -19.9485  -12.7238 C   0  0  0  0  0  0  0  0  0  0  0  0
   24.3341  -19.8146  -11.4917 C   0  0  0  0  0  0  0  0  0  0  0  0
   25.7886  -19.6113  -11.3406 C   0  0  1  0  0  0  0  0  0  0  0  0
   26.6032  -20.8610  -11.5344 N   0  0  0  0  0  0  0  0  0  0  0  0
   26.5159  -21.2017  -12.9565 C   0  0  0  0  0  0  0  0  0  0  0  0
   26.0912  -22.0283  -10.7781 O   0  0  0  0  0  0  0  0  0  0  0  0
   25.6621  -23.0521  -11.3810 C   0  0  0  0  0  0  0  0  0  0  0  0
   23.5289  -19.8771  -10.3500 C   0  0  0  0  0  0  0  0  0  0  0  0
   22.1641  -20.0708  -10.5011 O   0  0  0  0  0  0  0  0  0  0  0  0
  2  1  1  6
  2  9  1  0
  2  3  1  0
  4  3  1  0
  4  5  2  0
  6  5  1  0
  7  8  2  0
  7  6  1  0
  8  4  1  0
  9 19  1  0
  9 10  2  0
 11 12  1  0
 12 14  1  0
 13 12  2  0
 15 14  1  0
 16 17  1  0
 16 15  1  0
 18 17  1  6
 19 18  1  0
 20 29  1  0
 20 18  1  0
 21 20  2  0
 22 23  1  0
 23 24  2  0
 24 25  1  0
 26 27  1  0
 26 25  2  0
 28 27  1  6
 28 30  1  0
 28 29  1  0
 30 34  1  0
 31 30  2  0
 32 26  1  0
 33 32  2  0
 33 23  1  0
M  END
$$$$
