DGN.pdb
     RDKit          3D

 21 20  0  0  1  0  0  0  0  0999 V2000
   10.0332  -18.0753   17.5017 N   0  0  0  0  0  0  0  0  0  0  0  0
   11.1923  -18.6932   16.9116 C   0  0  1  0  0  0  0  0  0  0  0  0
   11.5186  -18.0879   15.5595 C   0  0  0  0  0  0  0  0  0  0  0  0
   10.4925  -18.3591   14.5562 C   0  0  0  0  0  0  0  0  0  0  0  0
    9.5705  -19.1728   14.8135 O   0  0  0  0  0  0  0  0  0  0  0  0
   12.3613  -18.4740   17.7973 C   0  0  0  0  0  0  0  0  0  0  0  0
   13.4729  -19.0225   17.5846 O   0  0  0  0  0  0  0  0  0  0  0  0
   10.4940  -17.7453   13.3176 O   0  0  0  0  0  0  0  0  0  0  0  0
   12.2754  -17.6270   18.9344 N   0  0  0  0  0  0  0  0  0  0  0  0
   13.4062  -17.4456   19.7753 C   0  0  0  0  0  0  0  0  0  0  0  0
   13.1958  -16.4449   20.8497 C   0  0  0  0  0  0  0  0  0  0  0  0
   12.0337  -16.0615   21.0930 O   0  0  0  0  0  0  0  0  0  0  0  0
   12.0164  -16.1627   24.5214 N   0  0  0  0  0  0  0  0  0  0  0  0
   12.7495  -17.3413   24.3163 C   0  0  0  0  0  0  0  0  0  0  0  0
   12.3764  -18.4851   24.7494 O   0  0  0  0  0  0  0  0  0  0  0  0
   14.0262  -17.2697   23.5586 C   0  0  0  0  0  0  0  0  0  0  0  0
   14.2769  -15.8501   23.0701 C   0  0  2  0  0  0  0  0  0  0  0  0
   14.2716  -15.9139   21.6022 N   0  0  0  0  0  0  0  0  0  0  0  0
   15.5145  -15.2588   23.5770 C   0  0  0  0  0  0  0  0  0  0  0  0
   15.5157  -14.3703   24.6395 O   0  0  0  0  0  0  0  0  0  0  0  0
   16.6708  -15.5120   23.0872 O   0  0  0  0  0  0  0  0  0  0  0  0
  2  3  1  0
  2  1  1  1
  3  4  1  0
  4  8  1  0
  4  5  2  0
  6  9  1  0
  6  2  1  0
  7  6  2  0
 10  9  1  0
 11 10  1  0
 11 18  1  0
 12 11  2  0
 13 14  1  0
 14 15  2  0
 14 16  1  0
 17 16  1  1
 17 18  1  0
 17 19  1  0
 19 21  2  0
 19 20  1  0
M  END
$$$$
