DGN.pdb
     RDKit          3D

 21 20  0  0  1  0  0  0  0  0999 V2000
    6.9157  -17.6297   18.2048 N   0  0  0  0  0  0  0  0  0  0  0  0
    8.2850  -17.2187   18.0334 C   0  0  1  0  0  0  0  0  0  0  0  0
    8.5023  -16.5519   16.6884 C   0  0  0  0  0  0  0  0  0  0  0  0
    8.3409  -17.4743   15.5676 C   0  0  0  0  0  0  0  0  0  0  0  0
    7.5054  -17.2169   14.6654 O   0  0  0  0  0  0  0  0  0  0  0  0
    8.6297  -16.2324   19.0860 C   0  0  0  0  0  0  0  0  0  0  0  0
    9.8124  -15.8547   19.2862 O   0  0  0  0  0  0  0  0  0  0  0  0
    9.0834  -18.6351   15.4572 O   0  0  0  0  0  0  0  0  0  0  0  0
    7.6295  -15.6663   19.9209 N   0  0  0  0  0  0  0  0  0  0  0  0
    7.9976  -14.8172   20.9989 C   0  0  0  0  0  0  0  0  0  0  0  0
    8.7052  -15.5201   22.0967 C   0  0  0  0  0  0  0  0  0  0  0  0
    8.2219  -16.5820   22.5386 O   0  0  0  0  0  0  0  0  0  0  0  0
   10.8952  -16.1024   26.8537 N   0  0  0  0  0  0  0  0  0  0  0  0
   10.1481  -16.8202   25.9077 C   0  0  0  0  0  0  0  0  0  0  0  0
    9.9590  -18.0831   25.9733 O   0  0  0  0  0  0  0  0  0  0  0  0
    9.5404  -16.0868   24.7667 C   0  0  0  0  0  0  0  0  0  0  0  0
   10.6121  -15.6729   23.7681 C   0  0  2  0  0  0  0  0  0  0  0  0
    9.9071  -15.0216   22.6555 N   0  0  0  0  0  0  0  0  0  0  0  0
   11.4458  -16.7795   23.3007 C   0  0  0  0  0  0  0  0  0  0  0  0
   10.9463  -17.7669   22.4679 O   0  0  0  0  0  0  0  0  0  0  0  0
   12.6788  -16.9186   23.6193 O   0  0  0  0  0  0  0  0  0  0  0  0
  2  3  1  0
  2  1  1  1
  3  4  1  0
  4  8  1  0
  4  5  2  0
  6  9  1  0
  6  2  1  0
  7  6  2  0
 10  9  1  0
 11 10  1  0
 11 18  1  0
 12 11  2  0
 13 14  1  0
 14 15  2  0
 14 16  1  0
 17 16  1  1
 17 18  1  0
 17 19  1  0
 19 21  2  0
 19 20  1  0
M  END
$$$$
