DGN.pdb
     RDKit          3D

 21 20  0  0  1  0  0  0  0  0999 V2000
    6.9014  -15.7274   17.0592 N   0  0  0  0  0  0  0  0  0  0  0  0
    8.1257  -14.9696   17.0733 C   0  0  1  0  0  0  0  0  0  0  0  0
    8.1082  -13.8635   16.0354 C   0  0  0  0  0  0  0  0  0  0  0  0
    8.1702  -14.3711   14.6673 C   0  0  0  0  0  0  0  0  0  0  0  0
    8.2004  -15.6105   14.4644 O   0  0  0  0  0  0  0  0  0  0  0  0
    8.2874  -14.3359   18.4043 C   0  0  0  0  0  0  0  0  0  0  0  0
    9.3836  -13.8507   18.7846 O   0  0  0  0  0  0  0  0  0  0  0  0
    8.1949  -13.5297   13.5708 O   0  0  0  0  0  0  0  0  0  0  0  0
    7.2010  -14.2486   19.3154 N   0  0  0  0  0  0  0  0  0  0  0  0
    7.4070  -13.7322   20.6229 C   0  0  0  0  0  0  0  0  0  0  0  0
    7.7890  -14.7636   21.6179 C   0  0  0  0  0  0  0  0  0  0  0  0
    6.9107  -15.5410   22.0432 O   0  0  0  0  0  0  0  0  0  0  0  0
   10.5232  -18.2440   21.2447 N   0  0  0  0  0  0  0  0  0  0  0  0
   11.0296  -16.9417   21.3715 C   0  0  0  0  0  0  0  0  0  0  0  0
   11.5437  -16.2899   20.3990 O   0  0  0  0  0  0  0  0  0  0  0  0
   10.9713  -16.2751   22.6987 C   0  0  0  0  0  0  0  0  0  0  0  0
    9.5342  -15.9222   23.0550 C   0  0  2  0  0  0  0  0  0  0  0  0
    9.1155  -14.8892   22.0976 N   0  0  0  0  0  0  0  0  0  0  0  0
    9.3584  -15.4764   24.4365 C   0  0  0  0  0  0  0  0  0  0  0  0
    9.2885  -16.3744   25.4886 O   0  0  0  0  0  0  0  0  0  0  0  0
    9.2576  -14.2447   24.7739 O   0  0  0  0  0  0  0  0  0  0  0  0
  2  3  1  0
  2  1  1  1
  3  4  1  0
  4  8  1  0
  4  5  2  0
  6  9  1  0
  6  2  1  0
  7  6  2  0
 10  9  1  0
 11 10  1  0
 11 18  1  0
 12 11  2  0
 13 14  1  0
 14 15  2  0
 14 16  1  0
 17 16  1  6
 17 18  1  0
 17 19  1  0
 19 21  2  0
 19 20  1  0
M  END
$$$$
