DGN.pdb
     RDKit          3D

 21 20  0  0  1  0  0  0  0  0999 V2000
    9.3893  -17.3913   19.3208 N   0  0  0  0  0  0  0  0  0  0  0  0
    8.0486  -17.0912   18.8899 C   0  0  1  0  0  0  0  0  0  0  0  0
    7.3015  -18.3457   18.4788 C   0  0  0  0  0  0  0  0  0  0  0  0
    7.9082  -19.0141   17.3306 C   0  0  0  0  0  0  0  0  0  0  0  0
    8.1418  -18.3616   16.2828 O   0  0  0  0  0  0  0  0  0  0  0  0
    7.3057  -16.4728   20.0147 C   0  0  0  0  0  0  0  0  0  0  0  0
    6.1173  -16.0794   19.8944 O   0  0  0  0  0  0  0  0  0  0  0  0
    8.2427  -20.3553   17.3521 O   0  0  0  0  0  0  0  0  0  0  0  0
    7.9100  -16.2969   21.2882 N   0  0  0  0  0  0  0  0  0  0  0  0
    7.1506  -15.7805   22.3723 C   0  0  0  0  0  0  0  0  0  0  0  0
    7.9326  -15.6122   23.6213 C   0  0  0  0  0  0  0  0  0  0  0  0
    9.1617  -15.8247   23.5926 O   0  0  0  0  0  0  0  0  0  0  0  0
    6.0080  -12.4718   25.6868 N   0  0  0  0  0  0  0  0  0  0  0  0
    7.1068  -12.8264   26.4838 C   0  0  0  0  0  0  0  0  0  0  0  0
    8.0456  -12.0133   26.7881 O   0  0  0  0  0  0  0  0  0  0  0  0
    7.1956  -14.2147   27.0070 C   0  0  0  0  0  0  0  0  0  0  0  0
    8.0674  -15.0712   26.0997 C   0  0  2  0  0  0  0  0  0  0  0  0
    7.3264  -15.2205   24.8397 N   0  0  0  0  0  0  0  0  0  0  0  0
    8.4212  -16.3698   26.6712 C   0  0  0  0  0  0  0  0  0  0  0  0
    9.5393  -16.5331   27.4721 O   0  0  0  0  0  0  0  0  0  0  0  0
    7.7377  -17.4361   26.4791 O   0  0  0  0  0  0  0  0  0  0  0  0
  2  3  1  0
  2  1  1  1
  3  4  1  0
  4  8  1  0
  4  5  2  0
  6  9  1  0
  6  2  1  0
  7  6  2  0
 10  9  1  0
 11 10  1  0
 11 18  1  0
 12 11  2  0
 13 14  1  0
 14 15  2  0
 14 16  1  0
 17 16  1  1
 17 18  1  0
 17 19  1  0
 19 21  2  0
 19 20  1  0
M  END
$$$$
