DGN.pdb
     RDKit          3D

 21 20  0  0  1  0  0  0  0  0999 V2000
    7.2294  -16.8921   21.1134 N   0  0  0  0  0  0  0  0  0  0  0  0
    8.6278  -16.5492   21.0923 C   0  0  1  0  0  0  0  0  0  0  0  0
    9.0167  -15.8760   19.7899 C   0  0  0  0  0  0  0  0  0  0  0  0
    9.1621  -16.8215   18.6862 C   0  0  0  0  0  0  0  0  0  0  0  0
    8.9401  -18.0428   18.8800 O   0  0  0  0  0  0  0  0  0  0  0  0
    8.9091  -15.5964   22.1934 C   0  0  0  0  0  0  0  0  0  0  0  0
   10.0707  -15.1800   22.4362 O   0  0  0  0  0  0  0  0  0  0  0  0
    9.5373  -16.4199   17.4179 O   0  0  0  0  0  0  0  0  0  0  0  0
    7.8690  -15.1082   23.0288 N   0  0  0  0  0  0  0  0  0  0  0  0
    8.1624  -14.1802   24.0638 C   0  0  0  0  0  0  0  0  0  0  0  0
    8.5346  -14.8191   25.3496 C   0  0  0  0  0  0  0  0  0  0  0  0
    7.7738  -15.6818   25.8330 O   0  0  0  0  0  0  0  0  0  0  0  0
   10.5093  -17.0099   25.5579 N   0  0  0  0  0  0  0  0  0  0  0  0
   11.6553  -16.5859   26.2472 C   0  0  0  0  0  0  0  0  0  0  0  0
   12.8134  -17.0967   26.0662 O   0  0  0  0  0  0  0  0  0  0  0  0
   11.5298  -15.4879   27.2412 C   0  0  0  0  0  0  0  0  0  0  0  0
   10.0813  -15.0338   27.3533 C   0  0  2  0  0  0  0  0  0  0  0  0
    9.7224  -14.4782   26.0413 N   0  0  0  0  0  0  0  0  0  0  0  0
    9.8437  -14.0704   28.4273 C   0  0  0  0  0  0  0  0  0  0  0  0
    9.7739  -14.4610   29.7542 O   0  0  0  0  0  0  0  0  0  0  0  0
    9.6848  -12.8150   28.2278 O   0  0  0  0  0  0  0  0  0  0  0  0
  2  3  1  0
  2  1  1  6
  3  4  1  0
  4  8  1  0
  4  5  2  0
  6  9  1  0
  6  2  1  0
  7  6  2  0
 10  9  1  0
 11 10  1  0
 11 18  1  0
 12 11  2  0
 13 14  1  0
 14 15  2  0
 14 16  1  0
 17 16  1  6
 17 18  1  0
 17 19  1  0
 19 21  2  0
 19 20  1  0
M  END
$$$$
