DGN.pdb
     RDKit          3D

 21 20  0  0  1  0  0  0  0  0999 V2000
   10.6708  -18.6808   20.9499 N   0  0  0  0  0  0  0  0  0  0  0  0
   10.1569  -17.4051   20.5233 C   0  0  1  0  0  0  0  0  0  0  0  0
    9.1400  -17.5589   19.4083 C   0  0  0  0  0  0  0  0  0  0  0  0
    9.7237  -18.0929   18.1806 C   0  0  0  0  0  0  0  0  0  0  0  0
   10.6452  -18.9441   18.2488 O   0  0  0  0  0  0  0  0  0  0  0  0
    9.4761  -16.7507   21.6668 C   0  0  0  0  0  0  0  0  0  0  0  0
    9.0042  -15.5877   21.5867 O   0  0  0  0  0  0  0  0  0  0  0  0
    9.2947  -17.6950   16.9282 O   0  0  0  0  0  0  0  0  0  0  0  0
    9.3260  -17.4154   22.9132 N   0  0  0  0  0  0  0  0  0  0  0  0
    8.7268  -16.7430   24.0120 C   0  0  0  0  0  0  0  0  0  0  0  0
    9.6982  -16.3016   25.0423 C   0  0  0  0  0  0  0  0  0  0  0  0
   10.9174  -16.3759   24.7881 O   0  0  0  0  0  0  0  0  0  0  0  0
    9.2046  -13.2925   25.9297 N   0  0  0  0  0  0  0  0  0  0  0  0
    8.9384  -13.2479   27.3064 C   0  0  0  0  0  0  0  0  0  0  0  0
    8.2548  -12.3199   27.8602 O   0  0  0  0  0  0  0  0  0  0  0  0
    9.4728  -14.3282   28.1761 C   0  0  0  0  0  0  0  0  0  0  0  0
   10.2188  -15.3618   27.3443 C   0  0  2  0  0  0  0  0  0  0  0  0
    9.2828  -15.8024   26.3008 N   0  0  0  0  0  0  0  0  0  0  0  0
   10.7279  -16.4917   28.1203 C   0  0  0  0  0  0  0  0  0  0  0  0
   10.1281  -17.7391   28.0705 O   0  0  0  0  0  0  0  0  0  0  0  0
   11.7482  -16.4167   28.8913 O   0  0  0  0  0  0  0  0  0  0  0  0
  2  3  1  0
  2  1  1  1
  3  4  1  0
  4  8  1  0
  4  5  2  0
  6  9  1  0
  6  2  1  0
  7  6  2  0
 10  9  1  0
 11 10  1  0
 11 18  1  0
 12 11  2  0
 13 14  1  0
 14 15  2  0
 14 16  1  0
 17 16  1  1
 17 18  1  0
 17 19  1  0
 19 21  2  0
 19 20  1  0
M  END
$$$$
