DGN.pdb
     RDKit          3D

 21 20  0  0  1  0  0  0  0  0999 V2000
    6.4071  -18.1699   22.7728 N   0  0  0  0  0  0  0  0  0  0  0  0
    6.2161  -17.5987   21.4649 C   0  0  1  0  0  0  0  0  0  0  0  0
    4.7444  -17.4162   21.1462 C   0  0  0  0  0  0  0  0  0  0  0  0
    4.0132  -18.6799   21.1089 C   0  0  0  0  0  0  0  0  0  0  0  0
    4.6452  -19.7654   21.1349 O   0  0  0  0  0  0  0  0  0  0  0  0
    6.8554  -16.2612   21.4229 C   0  0  0  0  0  0  0  0  0  0  0  0
    6.9363  -15.5924   20.3609 O   0  0  0  0  0  0  0  0  0  0  0  0
    2.6331  -18.7300   21.0478 O   0  0  0  0  0  0  0  0  0  0  0  0
    7.4086  -15.6721   22.5912 N   0  0  0  0  0  0  0  0  0  0  0  0
    7.9080  -14.3427   22.5511 C   0  0  0  0  0  0  0  0  0  0  0  0
    8.5180  -13.8962   23.8273 C   0  0  0  0  0  0  0  0  0  0  0  0
    8.9765  -12.7382   23.9000 O   0  0  0  0  0  0  0  0  0  0  0  0
    9.1419  -11.9215   27.5097 N   0  0  0  0  0  0  0  0  0  0  0  0
    8.3726  -13.0695   27.2674 C   0  0  0  0  0  0  0  0  0  0  0  0
    7.1166  -13.0363   27.0299 O   0  0  0  0  0  0  0  0  0  0  0  0
    9.0397  -14.3975   27.2849 C   0  0  0  0  0  0  0  0  0  0  0  0
    9.6894  -14.6852   25.9388 C   0  0  2  0  0  0  0  0  0  0  0  0
    8.5958  -14.7437   24.9592 N   0  0  0  0  0  0  0  0  0  0  0  0
   10.4944  -15.9057   25.9180 C   0  0  0  0  0  0  0  0  0  0  0  0
   10.2082  -16.9528   25.0578 O   0  0  0  0  0  0  0  0  0  0  0  0
   11.5070  -16.0971   26.6790 O   0  0  0  0  0  0  0  0  0  0  0  0
  2  3  1  0
  2  1  1  1
  3  4  1  0
  4  8  1  0
  4  5  2  0
  6  9  1  0
  6  2  1  0
  7  6  2  0
 10  9  1  0
 11 10  1  0
 11 18  1  0
 12 11  2  0
 13 14  1  0
 14 15  2  0
 14 16  1  0
 17 16  1  1
 17 18  1  0
 17 19  1  0
 19 21  2  0
 19 20  1  0
M  END
$$$$
