DGN.pdb
     RDKit          3D

 21 20  0  0  1  0  0  0  0  0999 V2000
    7.8914  -17.9160   19.5964 N   0  0  0  0  0  0  0  0  0  0  0  0
    8.4975  -16.6704   19.2034 C   0  0  1  0  0  0  0  0  0  0  0  0
    8.0377  -16.2379   17.8241 C   0  0  0  0  0  0  0  0  0  0  0  0
    8.8001  -16.8695   16.7503 C   0  0  0  0  0  0  0  0  0  0  0  0
   10.0040  -17.1752   16.9386 O   0  0  0  0  0  0  0  0  0  0  0  0
    8.0975  -15.6133   20.1636 C   0  0  0  0  0  0  0  0  0  0  0  0
    8.8945  -14.7163   20.5401 O   0  0  0  0  0  0  0  0  0  0  0  0
    8.2407  -17.1507   15.5178 O   0  0  0  0  0  0  0  0  0  0  0  0
    6.7846  -15.5677   20.7042 N   0  0  0  0  0  0  0  0  0  0  0  0
    6.4428  -14.5772   21.6637 C   0  0  0  0  0  0  0  0  0  0  0  0
    6.8735  -14.9100   23.0434 C   0  0  0  0  0  0  0  0  0  0  0  0
    6.5189  -14.1643   23.9787 O   0  0  0  0  0  0  0  0  0  0  0  0
    9.1121  -17.3277   27.0154 N   0  0  0  0  0  0  0  0  0  0  0  0
    8.4093  -18.2549   26.2314 C   0  0  0  0  0  0  0  0  0  0  0  0
    8.2290  -19.4730   26.5762 O   0  0  0  0  0  0  0  0  0  0  0  0
    7.8405  -17.8111   24.9320 C   0  0  0  0  0  0  0  0  0  0  0  0
    8.1894  -16.3532   24.6678 C   0  0  2  0  0  0  0  0  0  0  0  0
    7.6732  -16.0437   23.3274 N   0  0  0  0  0  0  0  0  0  0  0  0
    9.6173  -16.0568   24.7746 C   0  0  0  0  0  0  0  0  0  0  0  0
   10.2082  -15.7461   25.9881 O   0  0  0  0  0  0  0  0  0  0  0  0
   10.4166  -16.0616   23.7735 O   0  0  0  0  0  0  0  0  0  0  0  0
  2  3  1  0
  2  1  1  1
  3  4  1  0
  4  8  1  0
  4  5  2  0
  6  9  1  0
  6  2  1  0
  7  6  2  0
 10  9  1  0
 11 10  1  0
 11 18  1  0
 12 11  2  0
 13 14  1  0
 14 15  2  0
 14 16  1  0
 17 16  1  6
 17 18  1  0
 17 19  1  0
 19 21  2  0
 19 20  1  0
M  END
$$$$
