DGN.pdb
     RDKit          3D

 21 20  0  0  1  0  0  0  0  0999 V2000
    8.5249  -12.5073   18.2934 N   0  0  0  0  0  0  0  0  0  0  0  0
    7.2623  -13.1894   18.1749 C   0  0  1  0  0  0  0  0  0  0  0  0
    7.0230  -13.6763   16.7584 C   0  0  0  0  0  0  0  0  0  0  0  0
    8.1750  -14.3795   16.2002 C   0  0  0  0  0  0  0  0  0  0  0  0
    9.1684  -14.6233   16.9296 O   0  0  0  0  0  0  0  0  0  0  0  0
    7.2682  -14.3762   19.0642 C   0  0  0  0  0  0  0  0  0  0  0  0
    6.2924  -15.1670   19.1294 O   0  0  0  0  0  0  0  0  0  0  0  0
    8.2153  -14.7958   14.8826 O   0  0  0  0  0  0  0  0  0  0  0  0
    8.3865  -14.6739   19.8881 N   0  0  0  0  0  0  0  0  0  0  0  0
    8.3282  -15.7581   20.8044 C   0  0  0  0  0  0  0  0  0  0  0  0
    9.5912  -15.9763   21.5509 C   0  0  0  0  0  0  0  0  0  0  0  0
   10.6116  -15.3504   21.1990 O   0  0  0  0  0  0  0  0  0  0  0  0
   10.0640  -14.9699   24.7747 N   0  0  0  0  0  0  0  0  0  0  0  0
   10.0977  -16.1640   25.5104 C   0  0  0  0  0  0  0  0  0  0  0  0
    9.8004  -16.2329   26.7521 O   0  0  0  0  0  0  0  0  0  0  0  0
   10.4979  -17.4195   24.8229 C   0  0  0  0  0  0  0  0  0  0  0  0
   10.9129  -17.1317   23.3870 C   0  0  2  0  0  0  0  0  0  0  0  0
    9.6716  -16.8717   22.6451 N   0  0  0  0  0  0  0  0  0  0  0  0
   11.6928  -18.2033   22.7693 C   0  0  0  0  0  0  0  0  0  0  0  0
   11.0857  -19.3016   22.1835 O   0  0  0  0  0  0  0  0  0  0  0  0
   12.9730  -18.2089   22.7232 O   0  0  0  0  0  0  0  0  0  0  0  0
  2  3  1  0
  2  1  1  6
  3  4  1  0
  4  8  1  0
  4  5  2  0
  6  9  1  0
  6  2  1  0
  7  6  2  0
 10  9  1  0
 11 10  1  0
 11 18  1  0
 12 11  2  0
 13 14  1  0
 14 15  2  0
 14 16  1  0
 17 16  1  1
 17 18  1  0
 17 19  1  0
 19 21  2  0
 19 20  1  0
M  END
$$$$
