HQD.pdb
     RDKit          3D

 28 28  0  0  1  0  0  0  0  0999 V2000
    8.0133  -15.8557   20.1561 N   0  0  0  0  0  0  0  0  0  0  0  0
    9.1526  -14.9646   19.9656 C   0  0  1  0  0  0  0  0  0  0  0  0
    8.6840  -13.8310   19.0491 C   0  0  0  0  0  0  0  0  0  0  0  0
    8.4914  -14.3352   17.6618 C   0  0  0  0  0  0  0  0  0  0  0  0
    8.7792  -15.5709   17.1688 C   0  0  0  0  0  0  0  0  0  0  0  0
    8.4375  -15.5754   15.8564 N   0  0  0  0  0  0  0  0  0  0  0  0
    7.9434  -14.3584   15.5361 C   0  0  0  0  0  0  0  0  0  0  0  0
    7.9888  -13.6213   16.6603 N   0  0  0  0  0  0  0  0  0  0  0  0
    9.4745  -14.3246   21.2694 C   0  0  0  0  0  0  0  0  0  0  0  0
   10.4133  -13.5011   21.2941 O   0  0  0  0  0  0  0  0  0  0  0  0
    6.6519  -12.1175   26.3020 N   0  0  0  0  0  0  0  0  0  0  0  0
    6.2801  -13.4770   26.0802 C   0  0  0  0  0  0  0  0  0  0  0  0
    5.2957  -13.9145   26.7271 O   0  0  0  0  0  0  0  0  0  0  0  0
    7.0474  -14.3118   25.1171 C   0  0  0  0  0  0  0  0  0  0  0  0
    8.0234  -13.4231   24.4177 C   0  0  0  0  0  0  0  0  0  0  0  0
    9.1602  -14.1528   23.7653 C   0  0  2  0  0  0  0  0  0  0  0  0
    8.7680  -14.6075   22.4706 N   0  0  0  0  0  0  0  0  0  0  0  0
    9.7345  -15.2171   24.6186 C   0  0  0  0  0  0  0  0  0  0  0  0
   10.0516  -14.9768   25.8119 O   0  0  0  0  0  0  0  0  0  0  0  0
    9.9732  -16.5414   24.2044 N   0  0  0  0  0  0  0  0  0  0  0  0
   10.5168  -17.5787   24.9863 C   0  0  1  0  0  0  0  0  0  0  0  0
    9.6038  -18.5769   25.5818 C   0  0  0  0  0  0  0  0  0  0  0  0
    9.8070  -18.7392   27.0617 C   0  0  0  0  0  0  0  0  0  0  0  0
    8.8626  -19.0138   27.8453 O   0  0  0  0  0  0  0  0  0  0  0  0
   11.5624  -18.3010   24.2121 C   0  0  0  0  0  0  0  0  0  0  0  0
   12.5875  -18.9627   24.8740 O   0  0  0  0  0  0  0  0  0  0  0  0
   11.0570  -18.5937   27.6476 O   0  0  0  0  0  0  0  0  0  0  0  0
   11.5838  -18.3564   22.9550 O   0  0  0  0  0  0  0  0  0  0  0  0
  2  9  1  0
  2  1  1  1
  3  4  1  0
  3  2  1  0
  4  8  1  0
  5  6  1  0
  5  4  2  0
  6  7  1  0
  7  8  2  0
  9 17  1  0
 10  9  2  0
 12 14  1  0
 12 11  1  0
 13 12  2  0
 16 15  1  1
 15 14  1  0
 17 16  1  0
 18 20  1  0
 18 16  1  0
 19 18  2  0
 21 20  1  0
 21 22  1  6
 23 27  1  0
 23 22  1  0
 24 23  2  0
 25 21  1  0
 26 25  1  0
 28 25  2  0
M  END
$$$$
