HQD.pdb
     RDKit          3D

 28 28  0  0  1  0  0  0  0  0999 V2000
    8.5499  -12.4990   19.0680 N   0  0  0  0  0  0  0  0  0  0  0  0
    8.3359  -13.8761   19.4994 C   0  0  1  0  0  0  0  0  0  0  0  0
    9.2917  -14.7524   18.6851 C   0  0  0  0  0  0  0  0  0  0  0  0
    8.8184  -14.8627   17.2780 C   0  0  0  0  0  0  0  0  0  0  0  0
    7.7929  -14.1957   16.6811 C   0  0  0  0  0  0  0  0  0  0  0  0
    7.7287  -14.6158   15.3933 N   0  0  0  0  0  0  0  0  0  0  0  0
    8.7017  -15.5325   15.1907 C   0  0  0  0  0  0  0  0  0  0  0  0
    9.3516  -15.6627   16.3610 N   0  0  0  0  0  0  0  0  0  0  0  0
    8.7775  -14.0015   20.9144 C   0  0  0  0  0  0  0  0  0  0  0  0
    9.6510  -13.2067   21.3209 O   0  0  0  0  0  0  0  0  0  0  0  0
    5.8034  -17.2678   25.2610 N   0  0  0  0  0  0  0  0  0  0  0  0
    6.9193  -16.8285   26.0339 C   0  0  0  0  0  0  0  0  0  0  0  0
    6.8981  -17.0802   27.2648 O   0  0  0  0  0  0  0  0  0  0  0  0
    8.0423  -16.1063   25.3779 C   0  0  0  0  0  0  0  0  0  0  0  0
    7.6900  -15.9246   23.9375 C   0  0  0  0  0  0  0  0  0  0  0  0
    8.7225  -15.1821   23.1418 C   0  0  2  0  0  0  0  0  0  0  0  0
    8.2540  -14.9743   21.8097 N   0  0  0  0  0  0  0  0  0  0  0  0
   10.0647  -15.8021   23.2081 C   0  0  0  0  0  0  0  0  0  0  0  0
   10.6637  -15.9112   24.3088 O   0  0  0  0  0  0  0  0  0  0  0  0
   10.7745  -16.3083   22.1024 N   0  0  0  0  0  0  0  0  0  0  0  0
   12.0427  -16.9197   22.1296 C   0  0  1  0  0  0  0  0  0  0  0  0
   12.2063  -18.2511   21.5091 C   0  0  0  0  0  0  0  0  0  0  0  0
   11.1280  -19.2163   21.9135 C   0  0  0  0  0  0  0  0  0  0  0  0
   11.1337  -19.8062   23.0240 O   0  0  0  0  0  0  0  0  0  0  0  0
   13.0591  -16.0019   21.5475 C   0  0  0  0  0  0  0  0  0  0  0  0
   14.4048  -16.3408   21.5808 O   0  0  0  0  0  0  0  0  0  0  0  0
   10.0602  -19.5107   21.0768 O   0  0  0  0  0  0  0  0  0  0  0  0
   12.7751  -14.9009   21.0081 O   0  0  0  0  0  0  0  0  0  0  0  0
  2  9  1  0
  2  1  1  6
  3  4  1  0
  3  2  1  0
  4  8  1  0
  5  6  1  0
  5  4  2  0
  6  7  1  0
  7  8  2  0
  9 17  1  0
 10  9  2  0
 12 14  1  0
 12 11  1  0
 13 12  2  0
 16 15  1  1
 15 14  1  0
 17 16  1  0
 18 20  1  0
 18 16  1  0
 19 18  2  0
 21 20  1  0
 21 22  1  6
 23 27  1  0
 23 22  1  0
 24 23  2  0
 25 21  1  0
 26 25  1  0
 28 25  2  0
M  END
$$$$
