HQD.pdb
     RDKit          3D

 28 28  0  0  1  0  0  0  0  0999 V2000
    9.4770  -17.1402   19.9236 N   0  0  0  0  0  0  0  0  0  0  0  0
    9.1919  -16.3865   21.1397 C   0  0  1  0  0  0  0  0  0  0  0  0
    7.8703  -15.6486   20.9078 C   0  0  0  0  0  0  0  0  0  0  0  0
    8.1235  -14.3191   20.2878 C   0  0  0  0  0  0  0  0  0  0  0  0
    9.3163  -13.7768   19.9190 C   0  0  0  0  0  0  0  0  0  0  0  0
    9.0625  -12.5504   19.3989 N   0  0  0  0  0  0  0  0  0  0  0  0
    7.7291  -12.3316   19.4432 C   0  0  0  0  0  0  0  0  0  0  0  0
    7.1810  -13.4306   19.9918 N   0  0  0  0  0  0  0  0  0  0  0  0
    8.9296  -17.3505   22.2419 C   0  0  0  0  0  0  0  0  0  0  0  0
    7.8244  -17.9323   22.2515 O   0  0  0  0  0  0  0  0  0  0  0  0
   10.3056  -21.7244   20.7729 N   0  0  0  0  0  0  0  0  0  0  0  0
   10.4762  -22.2495   22.0885 C   0  0  0  0  0  0  0  0  0  0  0  0
   10.6988  -23.4821   22.1889 O   0  0  0  0  0  0  0  0  0  0  0  0
   10.3879  -21.3475   23.2683 C   0  0  0  0  0  0  0  0  0  0  0  0
   10.1618  -19.9587   22.7663 C   0  0  0  0  0  0  0  0  0  0  0  0
   10.0757  -18.9217   23.8469 C   0  0  2  0  0  0  0  0  0  0  0  0
    9.8711  -17.6325   23.2695 N   0  0  0  0  0  0  0  0  0  0  0  0
   11.2113  -18.9732   24.7946 C   0  0  0  0  0  0  0  0  0  0  0  0
   12.3674  -18.6444   24.4239 O   0  0  0  0  0  0  0  0  0  0  0  0
   11.1201  -19.3751   26.1410 N   0  0  0  0  0  0  0  0  0  0  0  0
   12.1833  -19.4778   27.0584 C   0  0  1  0  0  0  0  0  0  0  0  0
   11.8744  -19.6983   28.4869 C   0  0  0  0  0  0  0  0  0  0  0  0
   11.1882  -18.5212   29.1206 C   0  0  0  0  0  0  0  0  0  0  0  0
   10.9974  -17.4412   28.5055 O   0  0  0  0  0  0  0  0  0  0  0  0
   13.1339  -20.5334   26.6149 C   0  0  0  0  0  0  0  0  0  0  0  0
   14.3444  -20.7025   27.2729 O   0  0  0  0  0  0  0  0  0  0  0  0
   10.7249  -18.5632   30.4285 O   0  0  0  0  0  0  0  0  0  0  0  0
   12.9100  -21.3113   25.6513 O   0  0  0  0  0  0  0  0  0  0  0  0
  2  9  1  0
  2  1  1  6
  3  4  1  0
  3  2  1  0
  4  8  1  0
  5  6  1  0
  5  4  2  0
  6  7  1  0
  7  8  2  0
  9 17  1  0
 10  9  2  0
 12 14  1  0
 12 11  1  0
 13 12  2  0
 16 15  1  6
 15 14  1  0
 17 16  1  0
 18 20  1  0
 18 16  1  0
 19 18  2  0
 21 20  1  0
 21 22  1  1
 23 27  1  0
 23 22  1  0
 24 23  2  0
 25 21  1  0
 26 25  1  0
 28 25  2  0
M  END
$$$$
