HQD.pdb
     RDKit          3D

 28 28  0  0  1  0  0  0  0  0999 V2000
   12.9460  -16.2153   18.1619 N   0  0  0  0  0  0  0  0  0  0  0  0
   13.4968  -15.2437   19.1005 C   0  0  1  0  0  0  0  0  0  0  0  0
   13.9195  -14.0214   18.2808 C   0  0  0  0  0  0  0  0  0  0  0  0
   15.1196  -14.3406   17.4598 C   0  0  0  0  0  0  0  0  0  0  0  0
   15.3040  -15.3901   16.6128 C   0  0  0  0  0  0  0  0  0  0  0  0
   16.5475  -15.2733   16.0845 N   0  0  0  0  0  0  0  0  0  0  0  0
   17.1300  -14.1655   16.5957 C   0  0  0  0  0  0  0  0  0  0  0  0
   16.2328  -13.6159   17.4337 N   0  0  0  0  0  0  0  0  0  0  0  0
   12.4017  -14.7749   19.9915 C   0  0  0  0  0  0  0  0  0  0  0  0
   12.6935  -13.9503   20.8831 O   0  0  0  0  0  0  0  0  0  0  0  0
    8.6020  -11.8002   19.2270 N   0  0  0  0  0  0  0  0  0  0  0  0
    7.8781  -13.0119   19.4352 C   0  0  0  0  0  0  0  0  0  0  0  0
    6.7601  -12.9212   20.0015 O   0  0  0  0  0  0  0  0  0  0  0  0
    8.4526  -14.3094   18.9882 C   0  0  0  0  0  0  0  0  0  0  0  0
    8.6827  -15.1500   20.2015 C   0  0  0  0  0  0  0  0  0  0  0  0
   10.0315  -14.9633   20.8311 C   0  0  2  0  0  0  0  0  0  0  0  0
   11.0565  -15.2202   19.8718 N   0  0  0  0  0  0  0  0  0  0  0  0
   10.1954  -15.7218   22.0913 C   0  0  0  0  0  0  0  0  0  0  0  0
    9.4143  -15.5293   23.0583 O   0  0  0  0  0  0  0  0  0  0  0  0
   11.1917  -16.6885   22.3266 N   0  0  0  0  0  0  0  0  0  0  0  0
   11.3891  -17.4157   23.5161 C   0  0  1  0  0  0  0  0  0  0  0  0
   11.2772  -18.8890   23.4787 C   0  0  0  0  0  0  0  0  0  0  0  0
   11.5012  -19.5224   24.8227 C   0  0  0  0  0  0  0  0  0  0  0  0
   11.8130  -20.7336   24.9531 O   0  0  0  0  0  0  0  0  0  0  0  0
   12.7042  -17.0595   24.1144 C   0  0  0  0  0  0  0  0  0  0  0  0
   12.9739  -17.3695   25.4403 O   0  0  0  0  0  0  0  0  0  0  0  0
   11.3751  -18.7994   26.0009 O   0  0  0  0  0  0  0  0  0  0  0  0
   13.6220  -16.4762   23.4809 O   0  0  0  0  0  0  0  0  0  0  0  0
  2  9  1  0
  2  1  1  6
  3  4  1  0
  3  2  1  0
  4  8  1  0
  5  6  1  0
  5  4  2  0
  6  7  1  0
  7  8  2  0
  9 17  1  0
 10  9  2  0
 12 14  1  0
 12 11  1  0
 13 12  2  0
 16 15  1  6
 15 14  1  0
 17 16  1  0
 18 20  1  0
 18 16  1  0
 19 18  2  0
 21 20  1  0
 21 22  1  6
 23 27  1  0
 23 22  1  0
 24 23  2  0
 25 21  1  0
 26 25  1  0
 28 25  2  0
M  END
$$$$
