HQD.pdb
     RDKit          3D

 28 28  0  0  1  0  0  0  0  0999 V2000
   11.2227  -15.4692   15.7385 N   0  0  0  0  0  0  0  0  0  0  0  0
   12.5288  -15.8475   16.2671 C   0  0  1  0  0  0  0  0  0  0  0  0
   13.5752  -15.3628   15.2597 C   0  0  0  0  0  0  0  0  0  0  0  0
   13.4957  -16.1637   14.0074 C   0  0  0  0  0  0  0  0  0  0  0  0
   13.3929  -15.7139   12.7268 C   0  0  0  0  0  0  0  0  0  0  0  0
   13.3513  -16.8000   11.9158 N   0  0  0  0  0  0  0  0  0  0  0  0
   13.4271  -17.9119   12.6813 C   0  0  0  0  0  0  0  0  0  0  0  0
   13.5146  -17.4912   13.9559 N   0  0  0  0  0  0  0  0  0  0  0  0
   12.7763  -15.0729   17.5127 C   0  0  0  0  0  0  0  0  0  0  0  0
   12.5068  -13.8533   17.4993 O   0  0  0  0  0  0  0  0  0  0  0  0
   10.8462  -16.5403   22.4530 N   0  0  0  0  0  0  0  0  0  0  0  0
   10.4054  -16.5312   21.0961 C   0  0  0  0  0  0  0  0  0  0  0  0
    9.4249  -17.2620   20.8074 O   0  0  0  0  0  0  0  0  0  0  0  0
   11.1004  -15.6809   20.0924 C   0  0  0  0  0  0  0  0  0  0  0  0
   12.2621  -15.0305   20.7698 C   0  0  0  0  0  0  0  0  0  0  0  0
   13.4994  -14.9505   19.9252 C   0  0  2  0  0  0  0  0  0  0  0  0
   13.2991  -15.6548   18.7001 N   0  0  0  0  0  0  0  0  0  0  0  0
   14.7250  -15.3565   20.6488 C   0  0  0  0  0  0  0  0  0  0  0  0
   15.0346  -16.5716   20.7480 O   0  0  0  0  0  0  0  0  0  0  0  0
   15.6256  -14.4699   21.2695 N   0  0  0  0  0  0  0  0  0  0  0  0
   16.8131  -14.8168   21.9422 C   0  0  1  0  0  0  0  0  0  0  0  0
   17.9524  -13.8758   21.9098 C   0  0  0  0  0  0  0  0  0  0  0  0
   18.3600  -13.5059   20.5115 C   0  0  0  0  0  0  0  0  0  0  0  0
   18.1650  -14.2666   19.5295 O   0  0  0  0  0  0  0  0  0  0  0  0
   16.5129  -15.1424   23.3628 C   0  0  0  0  0  0  0  0  0  0  0  0
   17.5081  -15.6494   24.1871 O   0  0  0  0  0  0  0  0  0  0  0  0
   18.9781  -12.2960   20.2270 O   0  0  0  0  0  0  0  0  0  0  0  0
   15.3804  -14.9852   23.8886 O   0  0  0  0  0  0  0  0  0  0  0  0
  2  9  1  0
  2  1  1  6
  3  4  1  0
  3  2  1  0
  4  8  1  0
  5  6  1  0
  5  4  2  0
  6  7  1  0
  7  8  2  0
  9 17  1  0
 10  9  2  0
 12 14  1  0
 12 11  1  0
 13 12  2  0
 16 15  1  1
 15 14  1  0
 17 16  1  0
 18 20  1  0
 18 16  1  0
 19 18  2  0
 21 20  1  0
 21 22  1  1
 23 27  1  0
 23 22  1  0
 24 23  2  0
 25 21  1  0
 26 25  1  0
 28 25  2  0
M  END
$$$$
