HQD.pdb
     RDKit          3D

 28 28  0  0  1  0  0  0  0  0999 V2000
    8.8952  -12.4236   19.6908 N   0  0  0  0  0  0  0  0  0  0  0  0
    8.2241  -13.5521   20.3268 C   0  0  1  0  0  0  0  0  0  0  0  0
    8.8531  -14.8255   19.7546 C   0  0  0  0  0  0  0  0  0  0  0  0
    8.3573  -15.0699   18.3724 C   0  0  0  0  0  0  0  0  0  0  0  0
    8.4075  -14.2321   17.3007 C   0  0  0  0  0  0  0  0  0  0  0  0
    7.8373  -14.8769   16.2528 N   0  0  0  0  0  0  0  0  0  0  0  0
    7.4371  -16.1003   16.6663 C   0  0  0  0  0  0  0  0  0  0  0  0
    7.7684  -16.1897   17.9669 N   0  0  0  0  0  0  0  0  0  0  0  0
    8.5636  -13.5480   21.7751 C   0  0  0  0  0  0  0  0  0  0  0  0
    9.6354  -13.0055   22.1170 O   0  0  0  0  0  0  0  0  0  0  0  0
    5.6166  -11.9493   26.0074 N   0  0  0  0  0  0  0  0  0  0  0  0
    6.2621  -12.8335   26.9223 C   0  0  0  0  0  0  0  0  0  0  0  0
    6.2638  -12.5024   28.1344 O   0  0  0  0  0  0  0  0  0  0  0  0
    6.8958  -14.0853   26.4276 C   0  0  0  0  0  0  0  0  0  0  0  0
    6.7189  -14.1325   24.9449 C   0  0  0  0  0  0  0  0  0  0  0  0
    8.0039  -14.0964   24.1718 C   0  0  2  0  0  0  0  0  0  0  0  0
    7.7307  -14.1275   22.7712 N   0  0  0  0  0  0  0  0  0  0  0  0
    8.9752  -15.1238   24.6092 C   0  0  0  0  0  0  0  0  0  0  0  0
    9.3816  -15.1523   25.7993 O   0  0  0  0  0  0  0  0  0  0  0  0
    9.5176  -16.1250   23.7810 N   0  0  0  0  0  0  0  0  0  0  0  0
   10.4075  -17.1440   24.1714 C   0  0  1  0  0  0  0  0  0  0  0  0
    9.8982  -18.5256   24.2998 C   0  0  0  0  0  0  0  0  0  0  0  0
   10.2433  -19.1508   25.6219 C   0  0  0  0  0  0  0  0  0  0  0  0
   10.9420  -18.5602   26.4845 O   0  0  0  0  0  0  0  0  0  0  0  0
   11.5870  -17.1604   23.2643 C   0  0  0  0  0  0  0  0  0  0  0  0
   12.8433  -16.8218   23.7480 O   0  0  0  0  0  0  0  0  0  0  0  0
    9.8062  -20.4231   25.9643 O   0  0  0  0  0  0  0  0  0  0  0  0
   11.5240  -17.4705   22.0462 O   0  0  0  0  0  0  0  0  0  0  0  0
  2  9  1  0
  2  1  1  6
  3  4  1  0
  3  2  1  0
  4  8  1  0
  5  6  1  0
  5  4  2  0
  6  7  1  0
  7  8  2  0
  9 17  1  0
 10  9  2  0
 12 14  1  0
 12 11  1  0
 13 12  2  0
 16 15  1  1
 15 14  1  0
 17 16  1  0
 18 20  1  0
 18 16  1  0
 19 18  2  0
 21 20  1  0
 21 22  1  6
 23 27  1  0
 23 22  1  0
 24 23  2  0
 25 21  1  0
 26 25  1  0
 28 25  2  0
M  END
$$$$
