ERM.pdb
     RDKit          3D

 29 28  0  0  1  0  0  0  0  0999 V2000
    9.6016  -12.9674   19.0698 N   0  0  0  0  0  0  0  0  0  0  0  0
    8.2435  -13.3612   18.9916 C   0  0  1  0  0  0  0  0  0  0  0  0
    7.7373  -13.8619   17.6894 C   0  0  0  0  0  0  0  0  0  0  0  0
    8.6734  -14.6518   16.8531 C   0  0  0  0  0  0  0  0  0  0  0  0
    8.1300  -15.0404   15.5637 C   0  0  0  0  0  0  0  0  0  0  0  0
    7.4615  -14.1897   14.9146 O   0  0  0  0  0  0  0  0  0  0  0  0
    8.0019  -14.3557   20.1000 C   0  0  0  0  0  0  0  0  0  0  0  0
    6.8384  -14.7796   20.3785 O   0  0  0  0  0  0  0  0  0  0  0  0
    8.3206  -16.2940   15.0289 O   0  0  0  0  0  0  0  0  0  0  0  0
    9.1721  -21.6859   21.4209 N   0  0  0  0  0  0  0  0  0  0  0  0
    9.4950  -21.3795   20.0489 C   0  0  0  0  0  0  0  0  0  0  0  0
    9.2941  -22.2625   19.1280 N   0  0  0  0  0  0  0  0  0  0  0  0
   10.0300  -20.1206   19.7218 N   0  0  0  0  0  0  0  0  0  0  0  0
   10.2965  -19.1487   20.7524 C   0  0  0  0  0  0  0  0  0  0  0  0
    9.2733  -18.0054   20.7427 C   0  0  0  0  0  0  0  0  0  0  0  0
    9.6936  -17.0630   21.8284 C   0  0  0  0  0  0  0  0  0  0  0  0
    8.9008  -15.8145   21.9463 C   0  0  2  0  0  0  0  0  0  0  0  0
    9.0546  -14.8718   20.8911 N   0  0  0  0  0  0  0  0  0  0  0  0
    9.2512  -15.2159   23.2862 C   0  0  0  0  0  0  0  0  0  0  0  0
    9.7511  -14.0704   23.3005 O   0  0  0  0  0  0  0  0  0  0  0  0
    9.4837  -22.0246   18.1363 C   0  0  0  0  0  0  0  0  0  0  0  0
    6.6498  -10.9301   25.6916 S   0  0  0  0  0  0  0  0  0  0  0  0
    7.5438  -12.2324   26.6189 C   0  0  0  0  0  0  0  0  0  0  0  0
    6.6106  -13.7963   26.4169 C   0  0  0  0  0  0  0  0  0  0  0  0
    7.2057  -14.5244   25.2703 C   0  0  1  0  0  0  0  0  0  0  0  0
    8.5398  -15.1235   25.6486 N   0  0  0  0  0  0  0  0  0  0  0  0
    9.0332  -15.9017   24.4876 C   0  0  0  0  0  0  0  0  0  0  0  0
    8.3430  -16.0367   26.8003 O   0  0  0  0  0  0  0  0  0  0  0  0
    8.8242  -15.8380   28.0721 O   0  0  0  0  0  0  0  0  0  0  0  0
  2  7  1  0
  2  1  1  6
  3  2  1  0
  4  3  1  0
  4  5  1  0
  5  6  2  0
  5  9  1  0
  7  8  2  0
 10 11  1  0
 11 13  1  0
 12 11  2  0
 13 14  1  0
 14 15  1  0
 15 16  1  0
 17 19  1  0
 17 16  1  6
 18 17  1  0
 18  7  1  0
 19 26  1  0
 19 20  2  0
 22 21  1  0
 23 24  1  0
 23 22  1  0
 25 24  1  6
 26 25  1  0
 27 28  1  0
 27 25  1  0
 29 27  2  0
M  END
$$$$
