ERM.pdb
     RDKit          3D

 29 28  0  0  1  0  0  0  0  0999 V2000
   11.7817  -17.0353   19.6976 N   0  0  0  0  0  0  0  0  0  0  0  0
   12.6015  -15.9944   20.1977 C   0  0  1  0  0  0  0  0  0  0  0  0
   13.0091  -14.9175   19.2612 C   0  0  0  0  0  0  0  0  0  0  0  0
   14.4565  -14.7818   18.9679 C   0  0  0  0  0  0  0  0  0  0  0  0
   14.7749  -13.7024   18.0502 C   0  0  0  0  0  0  0  0  0  0  0  0
   14.4677  -13.8400   16.8342 O   0  0  0  0  0  0  0  0  0  0  0  0
   11.9183  -15.4360   21.4214 C   0  0  0  0  0  0  0  0  0  0  0  0
   12.4713  -14.5631   22.1583 O   0  0  0  0  0  0  0  0  0  0  0  0
   15.3928  -12.5427   18.4592 O   0  0  0  0  0  0  0  0  0  0  0  0
    7.6511  -12.4480   19.3900 N   0  0  0  0  0  0  0  0  0  0  0  0
    8.1527  -13.6731   18.8172 C   0  0  0  0  0  0  0  0  0  0  0  0
    8.4931  -13.7090   17.5718 N   0  0  0  0  0  0  0  0  0  0  0  0
    8.2658  -14.8235   19.6183 N   0  0  0  0  0  0  0  0  0  0  0  0
    7.3376  -15.0589   20.6957 C   0  0  0  0  0  0  0  0  0  0  0  0
    7.7679  -14.3549   21.9892 C   0  0  0  0  0  0  0  0  0  0  0  0
    8.4227  -15.4038   22.8346 C   0  0  0  0  0  0  0  0  0  0  0  0
    9.9017  -15.3319   22.9273 C   0  0  2  0  0  0  0  0  0  0  0  0
   10.6257  -15.8516   21.8175 N   0  0  0  0  0  0  0  0  0  0  0  0
   10.2790  -16.0234   24.2141 C   0  0  0  0  0  0  0  0  0  0  0  0
   10.9406  -17.0810   24.1358 O   0  0  0  0  0  0  0  0  0  0  0  0
    8.8760  -14.5841   17.1676 C   0  0  0  0  0  0  0  0  0  0  0  0
    8.9761  -12.4798   28.1196 S   0  0  0  0  0  0  0  0  0  0  0  0
   10.4582  -13.0708   29.0190 C   0  0  0  0  0  0  0  0  0  0  0  0
   11.1269  -14.5086   28.1008 C   0  0  0  0  0  0  0  0  0  0  0  0
   10.0077  -15.4566   27.8826 C   0  0  2  0  0  0  0  0  0  0  0  0
   10.2606  -16.3150   26.6656 N   0  0  0  0  0  0  0  0  0  0  0  0
    9.9114  -15.5165   25.4668 C   0  0  0  0  0  0  0  0  0  0  0  0
    9.3807  -17.5069   26.7318 O   0  0  0  0  0  0  0  0  0  0  0  0
    8.3464  -17.7884   25.8718 O   0  0  0  0  0  0  0  0  0  0  0  0
  2  7  1  0
  2  1  1  6
  3  2  1  0
  4  3  1  0
  4  5  1  0
  5  6  2  0
  5  9  1  0
  7  8  2  0
 10 11  1  0
 11 13  1  0
 12 11  2  0
 13 14  1  0
 14 15  1  0
 15 16  1  0
 17 19  1  0
 17 16  1  6
 18 17  1  0
 18  7  1  0
 19 26  1  0
 19 20  2  0
 22 21  1  0
 23 24  1  0
 23 22  1  0
 25 24  1  6
 26 25  1  0
 27 28  1  0
 27 25  1  0
 29 27  2  0
M  END
$$$$
