ERM.pdb
     RDKit          3D

 29 28  0  0  1  0  0  0  0  0999 V2000
   10.5219  -18.7582   20.2846 N   0  0  0  0  0  0  0  0  0  0  0  0
   11.6329  -18.0143   20.7514 C   0  0  1  0  0  0  0  0  0  0  0  0
   12.7890  -17.8411   19.8369 C   0  0  0  0  0  0  0  0  0  0  0  0
   12.5003  -17.4043   18.4493 C   0  0  0  0  0  0  0  0  0  0  0  0
   13.6690  -17.3590   17.5886 C   0  0  0  0  0  0  0  0  0  0  0  0
   14.3572  -18.4084   17.4577 O   0  0  0  0  0  0  0  0  0  0  0  0
   11.1087  -16.6868   21.2402 C   0  0  0  0  0  0  0  0  0  0  0  0
   11.8863  -15.7417   21.5763 O   0  0  0  0  0  0  0  0  0  0  0  0
   14.0463  -16.2203   16.9141 O   0  0  0  0  0  0  0  0  0  0  0  0
    7.9709  -15.5033   16.9879 N   0  0  0  0  0  0  0  0  0  0  0  0
    8.0991  -14.1428   16.5260 C   0  0  0  0  0  0  0  0  0  0  0  0
    8.4123  -13.9081   15.2952 N   0  0  0  0  0  0  0  0  0  0  0  0
    7.8849  -13.0787   17.4203 N   0  0  0  0  0  0  0  0  0  0  0  0
    7.6252  -13.3357   18.8146 C   0  0  0  0  0  0  0  0  0  0  0  0
    8.4787  -14.4906   19.3549 C   0  0  0  0  0  0  0  0  0  0  0  0
    8.0946  -14.6527   20.7936 C   0  0  0  0  0  0  0  0  0  0  0  0
    9.1583  -15.1592   21.6955 C   0  0  2  0  0  0  0  0  0  0  0  0
    9.7244  -16.4192   21.3522 N   0  0  0  0  0  0  0  0  0  0  0  0
    8.5656  -15.1722   23.0829 C   0  0  0  0  0  0  0  0  0  0  0  0
    7.3945  -15.5893   23.2132 O   0  0  0  0  0  0  0  0  0  0  0  0
    8.5645  -12.9317   14.9798 C   0  0  0  0  0  0  0  0  0  0  0  0
    7.2037  -10.9946   27.6222 S   0  0  0  0  0  0  0  0  0  0  0  0
    6.0424  -11.8744   26.5121 C   0  0  0  0  0  0  0  0  0  0  0  0
    6.5284  -13.6410   26.4895 C   0  0  0  0  0  0  0  0  0  0  0  0
    7.2647  -13.8836   25.2254 C   0  0  2  0  0  0  0  0  0  0  0  0
    8.5566  -14.6206   25.4894 N   0  0  0  0  0  0  0  0  0  0  0  0
    9.2840  -14.7360   24.2031 C   0  0  0  0  0  0  0  0  0  0  0  0
    8.2367  -15.9783   25.9929 O   0  0  0  0  0  0  0  0  0  0  0  0
    8.4827  -16.4406   27.2634 O   0  0  0  0  0  0  0  0  0  0  0  0
  2  7  1  0
  2  1  1  6
  3  2  1  0
  4  3  1  0
  4  5  1  0
  5  6  2  0
  5  9  1  0
  7  8  2  0
 10 11  1  0
 11 13  1  0
 12 11  2  0
 13 14  1  0
 14 15  1  0
 15 16  1  0
 17 19  1  0
 17 16  1  6
 18 17  1  0
 18  7  1  0
 19 26  1  0
 19 20  2  0
 22 21  1  0
 23 24  1  0
 23 22  1  0
 25 24  1  1
 26 25  1  0
 27 28  1  0
 27 25  1  0
 29 27  2  0
M  END
$$$$
