ERM.pdb
     RDKit          3D

 29 28  0  0  1  0  0  0  0  0999 V2000
    6.1362  -19.5504   24.6854 N   0  0  0  0  0  0  0  0  0  0  0  0
    7.3161  -20.3141   24.5113 C   0  0  1  0  0  0  0  0  0  0  0  0
    7.2034  -21.6224   23.8195 C   0  0  0  0  0  0  0  0  0  0  0  0
    6.4513  -21.6544   22.5417 C   0  0  0  0  0  0  0  0  0  0  0  0
    6.4626  -22.9477   21.8814 C   0  0  0  0  0  0  0  0  0  0  0  0
    7.1498  -23.8746   22.3918 O   0  0  0  0  0  0  0  0  0  0  0  0
    8.3329  -19.4204   23.8453 C   0  0  0  0  0  0  0  0  0  0  0  0
    9.5469  -19.7670   23.7151 O   0  0  0  0  0  0  0  0  0  0  0  0
    5.7525  -23.1952   20.7288 O   0  0  0  0  0  0  0  0  0  0  0  0
    8.9396  -12.6493   18.4465 N   0  0  0  0  0  0  0  0  0  0  0  0
    8.1095  -13.1817   19.4993 C   0  0  0  0  0  0  0  0  0  0  0  0
    7.7145  -12.4123   20.4585 N   0  0  0  0  0  0  0  0  0  0  0  0
    7.7369  -14.5377   19.4765 N   0  0  0  0  0  0  0  0  0  0  0  0
    6.8242  -15.0623   20.4610 C   0  0  0  0  0  0  0  0  0  0  0  0
    7.5212  -15.3442   21.7985 C   0  0  0  0  0  0  0  0  0  0  0  0
    8.4437  -16.4979   21.5507 C   0  0  0  0  0  0  0  0  0  0  0  0
    8.9124  -17.2240   22.7567 C   0  0  2  0  0  0  0  0  0  0  0  0
    7.9936  -18.1481   23.3291 N   0  0  0  0  0  0  0  0  0  0  0  0
    9.3346  -16.1685   23.7486 C   0  0  0  0  0  0  0  0  0  0  0  0
   10.3252  -15.4620   23.4624 O   0  0  0  0  0  0  0  0  0  0  0  0
    7.1703  -12.8101   21.2468 C   0  0  0  0  0  0  0  0  0  0  0  0
    7.0069  -11.0028   27.0900 S   0  0  0  0  0  0  0  0  0  0  0  0
    6.1716  -12.2821   26.0797 C   0  0  0  0  0  0  0  0  0  0  0  0
    7.4720  -13.3369   25.3355 C   0  0  0  0  0  0  0  0  0  0  0  0
    8.0733  -14.1391   26.4280 C   0  0  2  0  0  0  0  0  0  0  0  0
    9.2154  -14.9813   25.9100 N   0  0  0  0  0  0  0  0  0  0  0  0
    8.6551  -15.9682   24.9567 C   0  0  0  0  0  0  0  0  0  0  0  0
    9.8330  -15.7003   27.0505 O   0  0  0  0  0  0  0  0  0  0  0  0
   10.6156  -15.1324   28.0270 O   0  0  0  0  0  0  0  0  0  0  0  0
  2  7  1  0
  2  1  1  6
  3  2  1  0
  4  3  1  0
  4  5  1  0
  5  6  2  0
  5  9  1  0
  7  8  2  0
 10 11  1  0
 11 13  1  0
 12 11  2  0
 13 14  1  0
 14 15  1  0
 15 16  1  0
 17 19  1  0
 17 16  1  6
 18 17  1  0
 18  7  1  0
 19 26  1  0
 19 20  2  0
 22 21  1  0
 23 24  1  0
 23 22  1  0
 25 24  1  6
 26 25  1  0
 27 28  1  0
 27 25  1  0
 29 27  2  0
M  END
$$$$
