FKF.pdb
     RDKit          3D

 32 33  0  0  1  0  0  0  0  0999 V2000
   24.4566  -19.2863  -15.3570 N   0  0  0  0  0  0  0  0  0  0  0  0
   24.9487  -18.8961  -14.0537 C   0  0  1  0  0  0  0  0  0  0  0  0
   23.9334  -18.1687  -13.2356 C   0  0  0  0  0  0  0  0  0  0  0  0
   23.3519  -16.9837  -13.8445 C   0  0  0  0  0  0  0  0  0  0  0  0
   24.0928  -15.8985  -14.2636 C   0  0  0  0  0  0  0  0  0  0  0  0
   23.4941  -14.7837  -14.8403 C   0  0  0  0  0  0  0  0  0  0  0  0
   22.1389  -14.7267  -15.0120 C   0  0  0  0  0  0  0  0  0  0  0  0
   21.3825  -15.7941  -14.6026 C   0  0  0  0  0  0  0  0  0  0  0  0
   21.9880  -16.9047  -14.0272 C   0  0  0  0  0  0  0  0  0  0  0  0
   25.5272  -20.0929  -13.4107 C   0  0  0  0  0  0  0  0  0  0  0  0
   24.7930  -21.0611  -13.0639 O   0  0  0  0  0  0  0  0  0  0  0  0
   26.9248  -20.2548  -13.1350 N   0  0  0  0  0  0  0  0  0  0  0  0
   27.4482  -21.4435  -12.4801 C   0  0  1  0  0  0  0  0  0  0  0  0
   28.6623  -21.8614  -13.3258 C   0  0  0  0  0  0  0  0  0  0  0  0
   28.1727  -21.9626  -14.7640 C   0  0  0  0  0  0  0  0  0  0  0  0
   29.3128  -22.2864  -15.6985 C   0  0  0  0  0  0  0  0  0  0  0  0
   28.6965  -22.4408  -17.0923 C   0  0  0  0  0  0  0  0  0  0  0  0
   29.8107  -22.6535  -18.0189 N   0  0  0  0  0  0  0  0  0  0  0  0
   27.8028  -21.2498  -11.0820 C   0  0  0  0  0  0  0  0  0  0  0  0
   28.9908  -21.1178  -10.7040 O   0  0  0  0  0  0  0  0  0  0  0  0
   26.7866  -21.2053  -10.0943 N   0  0  0  0  0  0  0  0  0  0  0  0
   27.0709  -21.1235   -8.6754 C   0  0  1  0  0  0  0  0  0  0  0  0
   27.8286  -19.8539   -8.3356 C   0  0  0  0  0  0  0  0  0  0  0  0
   27.9839  -19.7131   -6.8671 C   0  0  0  0  0  0  0  0  0  0  0  0
   28.8934  -20.5247   -6.2086 C   0  0  0  0  0  0  0  0  0  0  0  0
   29.0503  -20.4048   -4.8331 C   0  0  0  0  0  0  0  0  0  0  0  0
   28.3308  -19.5027   -4.0916 C   0  0  0  0  0  0  0  0  0  0  0  0
   27.4239  -18.6912   -4.7372 C   0  0  0  0  0  0  0  0  0  0  0  0
   27.2735  -18.8166   -6.1067 C   0  0  0  0  0  0  0  0  0  0  0  0
   25.7984  -21.2052   -7.9270 C   0  0  0  0  0  0  0  0  0  0  0  0
   25.7341  -21.6976   -6.6301 O   0  0  0  0  0  0  0  0  0  0  0  0
   24.7260  -20.8238   -8.4573 O   0  0  0  0  0  0  0  0  0  0  0  0
  2  1  1  6
  2 10  1  0
  2  3  1  0
  3  4  1  0
  4  9  1  0
  4  5  2  0
  5  6  1  0
  6  7  2  0
  8  7  1  0
  9  8  2  0
 10 12  1  0
 10 11  2  0
 12 13  1  0
 13 19  1  0
 13 14  1  6
 15 14  1  0
 16 15  1  0
 17 16  1  0
 18 17  1  0
 19 20  2  0
 19 21  1  0
 21 22  1  0
 22 30  1  0
 22 23  1  6
 23 24  1  0
 24 25  2  0
 24 29  1  0
 25 26  1  0
 26 27  2  0
 28 27  1  0
 29 28  2  0
 30 31  1  0
 32 30  2  0
M  END
$$$$
