FKF.pdb
     RDKit          3D

 32 33  0  0  1  0  0  0  0  0999 V2000
   24.2069  -24.2085  -23.5449 N   0  0  0  0  0  0  0  0  0  0  0  0
   25.3753  -24.3458  -22.7029 C   0  0  1  0  0  0  0  0  0  0  0  0
   25.7082  -23.0993  -21.9515 C   0  0  0  0  0  0  0  0  0  0  0  0
   26.1290  -21.9625  -22.7540 C   0  0  0  0  0  0  0  0  0  0  0  0
   25.2891  -20.9299  -23.1152 C   0  0  0  0  0  0  0  0  0  0  0  0
   25.7342  -19.8616  -23.8862 C   0  0  0  0  0  0  0  0  0  0  0  0
   27.0308  -19.7997  -24.3151 C   0  0  0  0  0  0  0  0  0  0  0  0
   27.8836  -20.8153  -23.9679 C   0  0  0  0  0  0  0  0  0  0  0  0
   27.4315  -21.8796  -23.1972 C   0  0  0  0  0  0  0  0  0  0  0  0
   25.1923  -25.5488  -21.8663 C   0  0  0  0  0  0  0  0  0  0  0  0
   24.0453  -25.8839  -21.4553 O   0  0  0  0  0  0  0  0  0  0  0  0
   26.2636  -26.4119  -21.4630 N   0  0  0  0  0  0  0  0  0  0  0  0
   26.0564  -27.5184  -20.5418 C   0  0  1  0  0  0  0  0  0  0  0  0
   27.4450  -28.1544  -20.3658 C   0  0  0  0  0  0  0  0  0  0  0  0
   27.2276  -29.4701  -19.6307 C   0  0  0  0  0  0  0  0  0  0  0  0
   28.5410  -30.1718  -19.3846 C   0  0  0  0  0  0  0  0  0  0  0  0
   28.1949  -31.5249  -18.7554 C   0  0  0  0  0  0  0  0  0  0  0  0
   29.4593  -32.2478  -18.6013 N   0  0  0  0  0  0  0  0  0  0  0  0
   25.4709  -27.1339  -19.2662 C   0  0  0  0  0  0  0  0  0  0  0  0
   24.5016  -27.7483  -18.7615 O   0  0  0  0  0  0  0  0  0  0  0  0
   25.9979  -26.0294  -18.5504 N   0  0  0  0  0  0  0  0  0  0  0  0
   25.5267  -25.6472  -17.2341 C   0  0  1  0  0  0  0  0  0  0  0  0
   26.5286  -26.0212  -16.1580 C   0  0  0  0  0  0  0  0  0  0  0  0
   26.5493  -27.4894  -15.9484 C   0  0  0  0  0  0  0  0  0  0  0  0
   27.7306  -28.1806  -16.1643 C   0  0  0  0  0  0  0  0  0  0  0  0
   27.7659  -29.5564  -15.9722 C   0  0  0  0  0  0  0  0  0  0  0  0
   26.6630  -30.2668  -15.5720 C   0  0  0  0  0  0  0  0  0  0  0  0
   25.4836  -29.5886  -15.3548 C   0  0  0  0  0  0  0  0  0  0  0  0
   25.4566  -28.2191  -15.5482 C   0  0  0  0  0  0  0  0  0  0  0  0
   25.2503  -24.1946  -17.2280 C   0  0  0  0  0  0  0  0  0  0  0  0
   24.6950  -23.5527  -16.1290 O   0  0  0  0  0  0  0  0  0  0  0  0
   25.5167  -23.4950  -18.2360 O   0  0  0  0  0  0  0  0  0  0  0  0
  2  1  1  1
  2 10  1  0
  2  3  1  0
  3  4  1  0
  4  9  1  0
  4  5  2  0
  5  6  1  0
  6  7  2  0
  8  7  1  0
  9  8  2  0
 10 12  1  0
 10 11  2  0
 12 13  1  0
 13 19  1  0
 13 14  1  1
 15 14  1  0
 16 15  1  0
 17 16  1  0
 18 17  1  0
 19 20  2  0
 19 21  1  0
 21 22  1  0
 22 30  1  0
 22 23  1  1
 23 24  1  0
 24 25  2  0
 24 29  1  0
 25 26  1  0
 26 27  2  0
 28 27  1  0
 29 28  2  0
 30 31  1  0
 32 30  2  0
M  END
$$$$
