FKF.pdb
     RDKit          3D

 32 33  0  0  1  0  0  0  0  0999 V2000
   21.4475  -20.0109  -14.5810 N   0  0  0  0  0  0  0  0  0  0  0  0
   22.3804  -19.1567  -13.8787 C   0  0  1  0  0  0  0  0  0  0  0  0
   21.7236  -17.9967  -13.2064 C   0  0  0  0  0  0  0  0  0  0  0  0
   21.0248  -17.0653  -14.0768 C   0  0  0  0  0  0  0  0  0  0  0  0
   19.6593  -16.8734  -14.0508 C   0  0  0  0  0  0  0  0  0  0  0  0
   19.0317  -15.9720  -14.9037 C   0  0  0  0  0  0  0  0  0  0  0  0
   19.7547  -15.2399  -15.8040 C   0  0  0  0  0  0  0  0  0  0  0  0
   21.1137  -15.4144  -15.8473 C   0  0  0  0  0  0  0  0  0  0  0  0
   21.7338  -16.3171  -14.9919 C   0  0  0  0  0  0  0  0  0  0  0  0
   23.1984  -20.0099  -12.9936 C   0  0  0  0  0  0  0  0  0  0  0  0
   22.6675  -20.6614  -12.0500 O   0  0  0  0  0  0  0  0  0  0  0  0
   24.6171  -20.1685  -13.1250 N   0  0  0  0  0  0  0  0  0  0  0  0
   25.3876  -20.9972  -12.2109 C   0  0  1  0  0  0  0  0  0  0  0  0
   26.5787  -21.5033  -13.0411 C   0  0  0  0  0  0  0  0  0  0  0  0
   25.9913  -22.2987  -14.1990 C   0  0  0  0  0  0  0  0  0  0  0  0
   27.0603  -22.6558  -15.2029 C   0  0  0  0  0  0  0  0  0  0  0  0
   26.3554  -23.4164  -16.3303 C   0  0  0  0  0  0  0  0  0  0  0  0
   27.3866  -23.7502  -17.3153 N   0  0  0  0  0  0  0  0  0  0  0  0
   25.8217  -20.3119  -11.0026 C   0  0  0  0  0  0  0  0  0  0  0  0
   26.0365  -19.0771  -10.9730 O   0  0  0  0  0  0  0  0  0  0  0  0
   26.0152  -21.0449   -9.8046 N   0  0  0  0  0  0  0  0  0  0  0  0
   26.8699  -20.5837   -8.7288 C   0  0  1  0  0  0  0  0  0  0  0  0
   26.1360  -19.6222   -7.8131 C   0  0  0  0  0  0  0  0  0  0  0  0
   26.9800  -19.2601   -6.6483 C   0  0  0  0  0  0  0  0  0  0  0  0
   27.7916  -18.1402   -6.7312 C   0  0  0  0  0  0  0  0  0  0  0  0
   28.5881  -17.7879   -5.6484 C   0  0  0  0  0  0  0  0  0  0  0  0
   28.6029  -18.5147   -4.4852 C   0  0  0  0  0  0  0  0  0  0  0  0
   27.7995  -19.6299   -4.3930 C   0  0  0  0  0  0  0  0  0  0  0  0
   27.0094  -19.9740   -5.4753 C   0  0  0  0  0  0  0  0  0  0  0  0
   27.3741  -21.7561   -7.9821 C   0  0  0  0  0  0  0  0  0  0  0  0
   28.6629  -21.8059   -7.4674 O   0  0  0  0  0  0  0  0  0  0  0  0
   26.6341  -22.7526   -7.7928 O   0  0  0  0  0  0  0  0  0  0  0  0
  2  1  1  1
  2 10  1  0
  2  3  1  0
  3  4  1  0
  4  9  1  0
  4  5  2  0
  5  6  1  0
  6  7  2  0
  8  7  1  0
  9  8  2  0
 10 12  1  0
 10 11  2  0
 12 13  1  0
 13 19  1  0
 13 14  1  6
 15 14  1  0
 16 15  1  0
 17 16  1  0
 18 17  1  0
 19 20  2  0
 19 21  1  0
 21 22  1  0
 22 30  1  0
 22 23  1  1
 23 24  1  0
 24 25  2  0
 24 29  1  0
 25 26  1  0
 26 27  2  0
 28 27  1  0
 29 28  2  0
 30 31  1  0
 32 30  2  0
M  END
$$$$
