FKF.pdb
     RDKit          3D

 32 33  0  0  1  0  0  0  0  0999 V2000
   24.6311  -18.8821  -17.6853 N   0  0  0  0  0  0  0  0  0  0  0  0
   24.2561  -17.6633  -17.0019 C   0  0  1  0  0  0  0  0  0  0  0  0
   25.4171  -16.7699  -16.7138 C   0  0  0  0  0  0  0  0  0  0  0  0
   26.4888  -17.3501  -15.9212 C   0  0  0  0  0  0  0  0  0  0  0  0
   26.4841  -17.3893  -14.5426 C   0  0  0  0  0  0  0  0  0  0  0  0
   27.5326  -17.9534  -13.8240 C   0  0  0  0  0  0  0  0  0  0  0  0
   28.6121  -18.4924  -14.4669 C   0  0  0  0  0  0  0  0  0  0  0  0
   28.6381  -18.4644  -15.8372 C   0  0  0  0  0  0  0  0  0  0  0  0
   27.5866  -17.8990  -16.5484 C   0  0  0  0  0  0  0  0  0  0  0  0
   23.1592  -17.0348  -17.7650 C   0  0  0  0  0  0  0  0  0  0  0  0
   22.9358  -17.3598  -18.9655 O   0  0  0  0  0  0  0  0  0  0  0  0
   22.2819  -16.0365  -17.2274 N   0  0  0  0  0  0  0  0  0  0  0  0
   21.1268  -15.5482  -17.9646 C   0  0  1  0  0  0  0  0  0  0  0  0
   20.2337  -16.7830  -18.1676 C   0  0  0  0  0  0  0  0  0  0  0  0
   19.0702  -16.3358  -19.0420 C   0  0  0  0  0  0  0  0  0  0  0  0
   18.1582  -17.4960  -19.3582 C   0  0  0  0  0  0  0  0  0  0  0  0
   17.0160  -16.9273  -20.2058 C   0  0  0  0  0  0  0  0  0  0  0  0
   15.9147  -16.6430  -19.2831 N   0  0  0  0  0  0  0  0  0  0  0  0
   20.4116  -14.4644  -17.3075 C   0  0  0  0  0  0  0  0  0  0  0  0
   19.9597  -14.5689  -16.1428 O   0  0  0  0  0  0  0  0  0  0  0  0
   20.2061  -13.2377  -17.9881 N   0  0  0  0  0  0  0  0  0  0  0  0
   19.5831  -12.0867  -17.3654 C   0  0  1  0  0  0  0  0  0  0  0  0
   20.2574  -10.7957  -17.7900 C   0  0  0  0  0  0  0  0  0  0  0  0
   19.9910  -10.5112  -19.2212 C   0  0  0  0  0  0  0  0  0  0  0  0
   20.2871   -9.2533  -19.7208 C   0  0  0  0  0  0  0  0  0  0  0  0
   20.0432   -8.9714  -21.0594 C   0  0  0  0  0  0  0  0  0  0  0  0
   19.5140   -9.9016  -21.9173 C   0  0  0  0  0  0  0  0  0  0  0  0
   19.2162  -11.1553  -21.4301 C   0  0  0  0  0  0  0  0  0  0  0  0
   19.4619  -11.4281  -20.0964 C   0  0  0  0  0  0  0  0  0  0  0  0
   18.1446  -12.0779  -17.7072 C   0  0  0  0  0  0  0  0  0  0  0  0
   17.5777  -13.0313  -18.5426 O   0  0  0  0  0  0  0  0  0  0  0  0
   17.3881  -11.1909  -17.2406 O   0  0  0  0  0  0  0  0  0  0  0  0
  2  1  1  6
  2 10  1  0
  2  3  1  0
  3  4  1  0
  4  9  1  0
  4  5  2  0
  5  6  1  0
  6  7  2  0
  8  7  1  0
  9  8  2  0
 10 12  1  0
 10 11  2  0
 12 13  1  0
 13 19  1  0
 13 14  1  1
 15 14  1  0
 16 15  1  0
 17 16  1  0
 18 17  1  0
 19 20  2  0
 19 21  1  0
 21 22  1  0
 22 30  1  0
 22 23  1  6
 23 24  1  0
 24 25  2  0
 24 29  1  0
 25 26  1  0
 26 27  2  0
 28 27  1  0
 29 28  2  0
 30 31  1  0
 32 30  2  0
M  END
$$$$
