FKF.pdb
     RDKit          3D

 32 33  0  0  1  0  0  0  0  0999 V2000
   27.2736  -19.8279  -11.2858 N   0  0  0  0  0  0  0  0  0  0  0  0
   26.4293  -20.9063  -10.8196 C   0  0  1  0  0  0  0  0  0  0  0  0
   25.9307  -20.7025   -9.4271 C   0  0  0  0  0  0  0  0  0  0  0  0
   26.9211  -20.2851   -8.4482 C   0  0  0  0  0  0  0  0  0  0  0  0
   26.7657  -19.1908   -7.6233 C   0  0  0  0  0  0  0  0  0  0  0  0
   27.7409  -18.8264   -6.7013 C   0  0  0  0  0  0  0  0  0  0  0  0
   28.8960  -19.5479   -6.5815 C   0  0  0  0  0  0  0  0  0  0  0  0
   29.0719  -20.6398   -7.3915 C   0  0  0  0  0  0  0  0  0  0  0  0
   28.0929  -20.9977   -8.3105 C   0  0  0  0  0  0  0  0  0  0  0  0
   25.3782  -21.1294  -11.8325 C   0  0  0  0  0  0  0  0  0  0  0  0
   24.6281  -20.1840  -12.2070 O   0  0  0  0  0  0  0  0  0  0  0  0
   25.1276  -22.3947  -12.4582 N   0  0  0  0  0  0  0  0  0  0  0  0
   24.1281  -22.5529  -13.5031 C   0  0  1  0  0  0  0  0  0  0  0  0
   24.4448  -23.9093  -14.1541 C   0  0  0  0  0  0  0  0  0  0  0  0
   24.9050  -23.6099  -15.5744 C   0  0  0  0  0  0  0  0  0  0  0  0
   26.3829  -23.3054  -15.6078 C   0  0  0  0  0  0  0  0  0  0  0  0
   26.7210  -22.9718  -17.0640 C   0  0  0  0  0  0  0  0  0  0  0  0
   28.1405  -22.6121  -17.0899 N   0  0  0  0  0  0  0  0  0  0  0  0
   22.7530  -22.4863  -13.0314 C   0  0  0  0  0  0  0  0  0  0  0  0
   22.3558  -23.1293  -12.0311 O   0  0  0  0  0  0  0  0  0  0  0  0
   21.8110  -21.6728  -13.7103 N   0  0  0  0  0  0  0  0  0  0  0  0
   20.4231  -21.5700  -13.3055 C   0  0  1  0  0  0  0  0  0  0  0  0
   20.0387  -20.1327  -13.0088 C   0  0  0  0  0  0  0  0  0  0  0  0
   20.4346  -19.2426  -14.1274 C   0  0  0  0  0  0  0  0  0  0  0  0
   21.6658  -18.6092  -14.0762 C   0  0  0  0  0  0  0  0  0  0  0  0
   22.0509  -17.7722  -15.1165 C   0  0  0  0  0  0  0  0  0  0  0  0
   21.2498  -17.5452  -16.2064 C   0  0  0  0  0  0  0  0  0  0  0  0
   20.0237  -18.1704  -16.2666 C   0  0  0  0  0  0  0  0  0  0  0  0
   19.6476  -19.0021  -15.2271 C   0  0  0  0  0  0  0  0  0  0  0  0
   19.5708  -22.1446  -14.3683 C   0  0  0  0  0  0  0  0  0  0  0  0
   18.2042  -22.3261  -14.2023 O   0  0  0  0  0  0  0  0  0  0  0  0
   20.0732  -22.4881  -15.4666 O   0  0  0  0  0  0  0  0  0  0  0  0
  2  1  1  6
  2 10  1  0
  2  3  1  0
  3  4  1  0
  4  9  1  0
  4  5  2  0
  5  6  1  0
  6  7  2  0
  8  7  1  0
  9  8  2  0
 10 12  1  0
 10 11  2  0
 12 13  1  0
 13 19  1  0
 13 14  1  1
 15 14  1  0
 16 15  1  0
 17 16  1  0
 18 17  1  0
 19 20  2  0
 19 21  1  0
 21 22  1  0
 22 30  1  0
 22 23  1  6
 23 24  1  0
 24 25  2  0
 24 29  1  0
 25 26  1  0
 26 27  2  0
 28 27  1  0
 29 28  2  0
 30 31  1  0
 32 30  2  0
M  END
$$$$
