FKF.pdb
     RDKit          3D

 32 33  0  0  1  0  0  0  0  0999 V2000
   22.8867  -11.3681  -18.6052 N   0  0  0  0  0  0  0  0  0  0  0  0
   21.8116  -10.4346  -18.8617 C   0  0  1  0  0  0  0  0  0  0  0  0
   20.6110  -10.6711  -18.0062 C   0  0  0  0  0  0  0  0  0  0  0  0
   19.8893  -11.9100  -18.2462 C   0  0  0  0  0  0  0  0  0  0  0  0
   19.9594  -13.0081  -17.4147 C   0  0  0  0  0  0  0  0  0  0  0  0
   19.2523  -14.1749  -17.6841 C   0  0  0  0  0  0  0  0  0  0  0  0
   18.4573  -14.2722  -18.7921 C   0  0  0  0  0  0  0  0  0  0  0  0
   18.3726  -13.1927  -19.6328 C   0  0  0  0  0  0  0  0  0  0  0  0
   19.0822  -12.0301  -19.3570 C   0  0  0  0  0  0  0  0  0  0  0  0
   22.3699   -9.0694  -18.7900 C   0  0  0  0  0  0  0  0  0  0  0  0
   23.3957   -8.8246  -18.0939 O   0  0  0  0  0  0  0  0  0  0  0  0
   21.8159   -7.9425  -19.4816 N   0  0  0  0  0  0  0  0  0  0  0  0
   22.3696   -6.6046  -19.3422 C   0  0  1  0  0  0  0  0  0  0  0  0
   21.7661   -5.8013  -20.5060 C   0  0  0  0  0  0  0  0  0  0  0  0
   22.5676   -6.1701  -21.7470 C   0  0  0  0  0  0  0  0  0  0  0  0
   22.0189   -5.4732  -22.9682 C   0  0  0  0  0  0  0  0  0  0  0  0
   22.8696   -5.9447  -24.1516 C   0  0  0  0  0  0  0  0  0  0  0  0
   22.3554   -5.2526  -25.3356 N   0  0  0  0  0  0  0  0  0  0  0  0
   22.1040   -5.9776  -18.0560 C   0  0  0  0  0  0  0  0  0  0  0  0
   21.0039   -6.0972  -17.4668 O   0  0  0  0  0  0  0  0  0  0  0  0
   23.1088   -5.1996  -17.4276 N   0  0  0  0  0  0  0  0  0  0  0  0
   22.9090   -4.5345  -16.1554 C   0  0  1  0  0  0  0  0  0  0  0  0
   23.8455   -5.0793  -15.0935 C   0  0  0  0  0  0  0  0  0  0  0  0
   23.5025   -6.4840  -14.7627 C   0  0  0  0  0  0  0  0  0  0  0  0
   24.3300   -7.4998  -15.2135 C   0  0  0  0  0  0  0  0  0  0  0  0
   24.0220   -8.8209  -14.9117 C   0  0  0  0  0  0  0  0  0  0  0  0
   22.9167   -9.1636  -14.1755 C   0  0  0  0  0  0  0  0  0  0  0  0
   22.0877   -8.1608  -13.7228 C   0  0  0  0  0  0  0  0  0  0  0  0
   22.4011   -6.8482  -14.0273 C   0  0  0  0  0  0  0  0  0  0  0  0
   23.0972   -3.0798  -16.3412 C   0  0  0  0  0  0  0  0  0  0  0  0
   22.9131   -2.1726  -15.3061 O   0  0  0  0  0  0  0  0  0  0  0  0
   23.4345   -2.6226  -17.4610 O   0  0  0  0  0  0  0  0  0  0  0  0
  2  1  1  1
  2 10  1  0
  2  3  1  0
  3  4  1  0
  4  9  1  0
  4  5  2  0
  5  6  1  0
  6  7  2  0
  8  7  1  0
  9  8  2  0
 10 12  1  0
 10 11  2  0
 12 13  1  0
 13 19  1  0
 13 14  1  6
 15 14  1  0
 16 15  1  0
 17 16  1  0
 18 17  1  0
 19 20  2  0
 19 21  1  0
 21 22  1  0
 22 30  1  0
 22 23  1  1
 23 24  1  0
 24 25  2  0
 24 29  1  0
 25 26  1  0
 26 27  2  0
 28 27  1  0
 29 28  2  0
 30 31  1  0
 32 30  2  0
M  END
$$$$
