FKF.pdb
     RDKit          3D

 32 33  0  0  1  0  0  0  0  0999 V2000
   22.8113  -13.4633  -27.3766 N   0  0  0  0  0  0  0  0  0  0  0  0
   22.2988  -13.7505  -26.0545 C   0  0  1  0  0  0  0  0  0  0  0  0
   22.3547  -12.5760  -25.1344 C   0  0  0  0  0  0  0  0  0  0  0  0
   23.6767  -12.0303  -24.8742 C   0  0  0  0  0  0  0  0  0  0  0  0
   24.4221  -11.3522  -25.8158 C   0  0  0  0  0  0  0  0  0  0  0  0
   25.6846  -10.8478  -25.5235 C   0  0  0  0  0  0  0  0  0  0  0  0
   26.2331  -11.0094  -24.2817 C   0  0  0  0  0  0  0  0  0  0  0  0
   25.5100  -11.6805  -23.3298 C   0  0  0  0  0  0  0  0  0  0  0  0
   24.2489  -12.1816  -23.6293 C   0  0  0  0  0  0  0  0  0  0  0  0
   20.9624  -14.3595  -26.2088 C   0  0  0  0  0  0  0  0  0  0  0  0
   20.3975  -14.4048  -27.3381 O   0  0  0  0  0  0  0  0  0  0  0  0
   20.2166  -14.9336  -25.1274 N   0  0  0  0  0  0  0  0  0  0  0  0
   18.9626  -15.6381  -25.3449 C   0  0  1  0  0  0  0  0  0  0  0  0
   19.2885  -16.7155  -26.3923 C   0  0  0  0  0  0  0  0  0  0  0  0
   17.9772  -17.4226  -26.7071 C   0  0  0  0  0  0  0  0  0  0  0  0
   18.1927  -18.5368  -27.7021 C   0  0  0  0  0  0  0  0  0  0  0  0
   16.9018  -19.3613  -27.7115 C   0  0  0  0  0  0  0  0  0  0  0  0
   17.1165  -20.4600  -28.6559 N   0  0  0  0  0  0  0  0  0  0  0  0
   18.3813  -16.2118  -24.1404 C   0  0  0  0  0  0  0  0  0  0  0  0
   17.2499  -16.7518  -24.1341 O   0  0  0  0  0  0  0  0  0  0  0  0
   19.1005  -16.1707  -22.9193 N   0  0  0  0  0  0  0  0  0  0  0  0
   18.5660  -16.6829  -21.6732 C   0  0  1  0  0  0  0  0  0  0  0  0
   19.5547  -17.6051  -20.9851 C   0  0  0  0  0  0  0  0  0  0  0  0
   19.7988  -18.8173  -21.8043 C   0  0  0  0  0  0  0  0  0  0  0  0
   18.9610  -19.9100  -21.6503 C   0  0  0  0  0  0  0  0  0  0  0  0
   19.1767  -21.0530  -22.4106 C   0  0  0  0  0  0  0  0  0  0  0  0
   20.1999  -21.1435  -23.3196 C   0  0  0  0  0  0  0  0  0  0  0  0
   21.0384  -20.0623  -23.4800 C   0  0  0  0  0  0  0  0  0  0  0  0
   20.8170  -18.9281  -22.7195 C   0  0  0  0  0  0  0  0  0  0  0  0
   18.2014  -15.5433  -20.8046 C   0  0  0  0  0  0  0  0  0  0  0  0
   17.7140  -15.7222  -19.5166 O   0  0  0  0  0  0  0  0  0  0  0  0
   18.3266  -14.3650  -21.2198 O   0  0  0  0  0  0  0  0  0  0  0  0
  2  1  1  6
  2 10  1  0
  2  3  1  0
  3  4  1  0
  4  9  1  0
  4  5  2  0
  5  6  1  0
  6  7  2  0
  8  7  1  0
  9  8  2  0
 10 12  1  0
 10 11  2  0
 12 13  1  0
 13 19  1  0
 13 14  1  6
 15 14  1  0
 16 15  1  0
 17 16  1  0
 18 17  1  0
 19 20  2  0
 19 21  1  0
 21 22  1  0
 22 30  1  0
 22 23  1  1
 23 24  1  0
 24 25  2  0
 24 29  1  0
 25 26  1  0
 26 27  2  0
 28 27  1  0
 29 28  2  0
 30 31  1  0
 32 30  2  0
M  END
$$$$
