FKF.pdb
     RDKit          3D

 32 33  0  0  1  0  0  0  0  0999 V2000
   26.5229  -18.2860   -8.3097 N   0  0  0  0  0  0  0  0  0  0  0  0
   27.2252  -19.4503   -8.8038 C   0  0  1  0  0  0  0  0  0  0  0  0
   27.2773  -20.5686   -7.8160 C   0  0  0  0  0  0  0  0  0  0  0  0
   27.9426  -20.2783   -6.5565 C   0  0  0  0  0  0  0  0  0  0  0  0
   27.2729  -20.0733   -5.3684 C   0  0  0  0  0  0  0  0  0  0  0  0
   27.9504  -19.7963   -4.1860 C   0  0  0  0  0  0  0  0  0  0  0  0
   29.3151  -19.7174   -4.1627 C   0  0  0  0  0  0  0  0  0  0  0  0
   30.0016  -19.9177   -5.3323 C   0  0  0  0  0  0  0  0  0  0  0  0
   29.3176  -20.1941   -6.5099 C   0  0  0  0  0  0  0  0  0  0  0  0
   26.6492  -19.8037  -10.1169 C   0  0  0  0  0  0  0  0  0  0  0  0
   25.3988  -19.7969  -10.2989 O   0  0  0  0  0  0  0  0  0  0  0  0
   27.4325  -20.1712  -11.2599 N   0  0  0  0  0  0  0  0  0  0  0  0
   26.8283  -20.4258  -12.5584 C   0  0  1  0  0  0  0  0  0  0  0  0
   27.9930  -20.8691  -13.4588 C   0  0  0  0  0  0  0  0  0  0  0  0
   27.4038  -21.1044  -14.8430 C   0  0  0  0  0  0  0  0  0  0  0  0
   28.4348  -21.6966  -15.7727 C   0  0  0  0  0  0  0  0  0  0  0  0
   27.8237  -21.6537  -17.1766 C   0  0  0  0  0  0  0  0  0  0  0  0
   27.5661  -23.0433  -17.5611 N   0  0  0  0  0  0  0  0  0  0  0  0
   25.7554  -21.4087  -12.5372 C   0  0  0  0  0  0  0  0  0  0  0  0
   25.7991  -22.4329  -11.8155 O   0  0  0  0  0  0  0  0  0  0  0  0
   24.6103  -21.2235  -13.3524 N   0  0  0  0  0  0  0  0  0  0  0  0
   23.4261  -22.0525  -13.2466 C   0  0  1  0  0  0  0  0  0  0  0  0
   22.3799  -21.4108  -12.3549 C   0  0  0  0  0  0  0  0  0  0  0  0
   21.8737  -20.1549  -12.9605 C   0  0  0  0  0  0  0  0  0  0  0  0
   20.5718  -20.1160  -13.4330 C   0  0  0  0  0  0  0  0  0  0  0  0
   20.0830  -18.9468  -14.0030 C   0  0  0  0  0  0  0  0  0  0  0  0
   20.8486  -17.8145  -14.1181 C   0  0  0  0  0  0  0  0  0  0  0  0
   22.1444  -17.8432  -13.6513 C   0  0  0  0  0  0  0  0  0  0  0  0
   22.6236  -19.0109  -13.0851 C   0  0  0  0  0  0  0  0  0  0  0  0
   22.8941  -22.3023  -14.6034 C   0  0  0  0  0  0  0  0  0  0  0  0
   21.8737  -23.2137  -14.8407 O   0  0  0  0  0  0  0  0  0  0  0  0
   23.3620  -21.6839  -15.5910 O   0  0  0  0  0  0  0  0  0  0  0  0
  2  1  1  1
  2 10  1  0
  2  3  1  0
  3  4  1  0
  4  9  1  0
  4  5  2  0
  5  6  1  0
  6  7  2  0
  8  7  1  0
  9  8  2  0
 10 12  1  0
 10 11  2  0
 12 13  1  0
 13 19  1  0
 13 14  1  6
 15 14  1  0
 16 15  1  0
 17 16  1  0
 18 17  1  0
 19 20  2  0
 19 21  1  0
 21 22  1  0
 22 30  1  0
 22 23  1  1
 23 24  1  0
 24 25  2  0
 24 29  1  0
 25 26  1  0
 26 27  2  0
 28 27  1  0
 29 28  2  0
 30 31  1  0
 32 30  2  0
M  END
$$$$
