KLY.pdb
     RDKit          3D

 30 30  0  0  1  0  0  0  0  0999 V2000
    9.4481  -18.3218   18.1156 N   0  0  0  0  0  0  0  0  0  0  0  0
   10.7309  -18.0038   18.7715 C   0  0  1  0  0  0  0  0  0  0  0  0
   11.5951  -17.4586   17.6591 C   0  0  0  0  0  0  0  0  0  0  0  0
   12.2601  -18.5443   16.9005 C   0  0  0  0  0  0  0  0  0  0  0  0
   13.1222  -19.4215   17.8078 C   0  0  0  0  0  0  0  0  0  0  0  0
   13.8849  -20.4169   16.9951 C   0  0  0  0  0  0  0  0  0  0  0  0
   14.6267  -21.2653   17.9447 N   0  0  0  0  0  0  0  0  0  0  0  0
   10.5360  -16.9941   19.8137 C   0  0  0  0  0  0  0  0  0  0  0  0
   11.4509  -16.5597   20.5496 O   0  0  0  0  0  0  0  0  0  0  0  0
    6.1272  -13.1151   19.9547 C   0  0  0  0  0  0  0  0  0  0  0  0
    7.4972  -13.8244   19.8004 C   0  0  1  0  0  0  0  0  0  0  0  0
    8.5252  -12.6916   19.6556 C   0  0  0  0  0  0  0  0  0  0  0  0
    7.8049  -14.5983   21.0264 C   0  0  0  0  0  0  0  0  0  0  0  0
    9.0480  -15.4065   21.0531 C   0  0  2  0  0  0  0  0  0  0  0  0
    9.2321  -16.4099   20.0750 N   0  0  0  0  0  0  0  0  0  0  0  0
    9.2209  -15.8903   22.4573 C   0  0  0  0  0  0  0  0  0  0  0  0
    8.9079  -17.1134   22.6365 O   0  0  0  0  0  0  0  0  0  0  0  0
   10.4181  -15.9377   31.2491 O   0  0  0  0  0  0  0  0  0  0  0  0
   10.4161  -15.6203   29.9081 C   0  0  0  0  0  0  0  0  0  0  0  0
   11.0792  -16.4501   29.0109 C   0  0  0  0  0  0  0  0  0  0  0  0
   11.0701  -16.1183   27.6603 C   0  0  0  0  0  0  0  0  0  0  0  0
   10.4225  -14.9944   27.2011 C   0  0  0  0  0  0  0  0  0  0  0  0
   10.4271  -14.6552   25.7681 C   0  0  0  0  0  0  0  0  0  0  0  0
    9.6313  -15.5769   24.9059 C   0  0  2  0  0  0  0  0  0  0  0  0
    9.6876  -15.0966   23.5249 N   0  0  0  0  0  0  0  0  0  0  0  0
    8.2299  -15.7352   25.3055 C   0  0  0  0  0  0  0  0  0  0  0  0
    7.8783  -16.7444   26.1830 O   0  0  0  0  0  0  0  0  0  0  0  0
    9.7551  -14.1576   28.0944 C   0  0  0  0  0  0  0  0  0  0  0  0
    9.7701  -14.4962   29.4351 C   0  0  0  0  0  0  0  0  0  0  0  0
    7.2966  -14.9828   24.8824 O   0  0  0  0  0  0  0  0  0  0  0  0
  2  1  1  6
  3  2  1  0
  3  4  1  0
  5  4  1  0
  6  5  1  0
  7  6  1  0
  8  2  1  0
  8  9  2  0
 11 10  1  1
 11 13  1  0
 12 11  1  0
 14 13  1  1
 14 15  1  0
 15  8  1  0
 16 14  1  0
 17 16  2  0
 19 18  1  0
 20 19  2  0
 21 20  1  0
 22 28  1  0
 22 21  2  0
 23 22  1  0
 24 23  1  1
 24 25  1  0
 25 16  1  0
 26 24  1  0
 27 26  1  0
 28 29  2  0
 29 19  1  0
 30 26  2  0
M  END
$$$$
