KLY.pdb
     RDKit          3D

 30 30  0  0  1  0  0  0  0  0999 V2000
    6.8648  -16.1297   20.4430 N   0  0  0  0  0  0  0  0  0  0  0  0
    8.0161  -15.2349   20.2180 C   0  0  1  0  0  0  0  0  0  0  0  0
    7.5189  -14.2334   19.2025 C   0  0  0  0  0  0  0  0  0  0  0  0
    7.1858  -14.8817   17.9121 C   0  0  0  0  0  0  0  0  0  0  0  0
    7.3492  -13.9184   16.7369 C   0  0  0  0  0  0  0  0  0  0  0  0
    7.0354  -14.6108   15.4504 C   0  0  0  0  0  0  0  0  0  0  0  0
    7.2002  -13.6143   14.3774 N   0  0  0  0  0  0  0  0  0  0  0  0
    8.3920  -14.5621   21.4629 C   0  0  0  0  0  0  0  0  0  0  0  0
    9.4129  -13.8496   21.5947 O   0  0  0  0  0  0  0  0  0  0  0  0
    7.6284  -11.5257   25.7974 C   0  0  0  0  0  0  0  0  0  0  0  0
    7.3113  -13.0116   26.1061 C   0  0  1  0  0  0  0  0  0  0  0  0
    6.1145  -12.9782   27.0692 C   0  0  0  0  0  0  0  0  0  0  0  0
    6.9075  -13.7096   24.8625 C   0  0  0  0  0  0  0  0  0  0  0  0
    7.9606  -14.0528   23.8765 C   0  0  2  0  0  0  0  0  0  0  0  0
    7.5857  -14.6776   22.6654 N   0  0  0  0  0  0  0  0  0  0  0  0
    9.0356  -14.7754   24.6234 C   0  0  0  0  0  0  0  0  0  0  0  0
    9.3914  -14.2137   25.7115 O   0  0  0  0  0  0  0  0  0  0  0  0
   11.4446  -14.1218   30.8413 O   0  0  0  0  0  0  0  0  0  0  0  0
   11.0659  -14.8449   29.7310 C   0  0  0  0  0  0  0  0  0  0  0  0
   11.5021  -16.1579   29.5921 C   0  0  0  0  0  0  0  0  0  0  0  0
   11.1134  -16.8766   28.4666 C   0  0  0  0  0  0  0  0  0  0  0  0
   10.3124  -16.3165   27.4981 C   0  0  0  0  0  0  0  0  0  0  0  0
    9.9142  -17.0903   26.3101 C   0  0  0  0  0  0  0  0  0  0  0  0
   10.5949  -16.6866   25.0452 C   0  0  2  0  0  0  0  0  0  0  0  0
    9.6345  -15.9788   24.1982 N   0  0  0  0  0  0  0  0  0  0  0  0
   11.1858  -17.7923   24.2857 C   0  0  0  0  0  0  0  0  0  0  0  0
   12.2586  -18.4880   24.8121 O   0  0  0  0  0  0  0  0  0  0  0  0
    9.8707  -15.0008   27.6302 C   0  0  0  0  0  0  0  0  0  0  0  0
   10.2628  -14.2947   28.7528 C   0  0  0  0  0  0  0  0  0  0  0  0
   10.7611  -18.1576   23.1445 O   0  0  0  0  0  0  0  0  0  0  0  0
  2  1  1  1
  3  2  1  0
  3  4  1  0
  5  4  1  0
  6  5  1  0
  7  6  1  0
  8  2  1  0
  8  9  2  0
 11 10  1  6
 11 13  1  0
 12 11  1  0
 14 13  1  1
 14 15  1  0
 15  8  1  0
 16 14  1  0
 17 16  2  0
 19 18  1  0
 20 19  2  0
 21 20  1  0
 22 28  1  0
 22 21  2  0
 23 22  1  0
 24 23  1  1
 24 25  1  0
 25 16  1  0
 26 24  1  0
 27 26  1  0
 28 29  2  0
 29 19  1  0
 30 26  2  0
M  END
$$$$
