KLY.pdb
     RDKit          3D

 30 30  0  0  1  0  0  0  0  0999 V2000
    7.5517  -17.6383   20.9114 N   0  0  0  0  0  0  0  0  0  0  0  0
    8.9021  -17.0499   20.8269 C   0  0  1  0  0  0  0  0  0  0  0  0
    9.0861  -16.7443   19.3592 C   0  0  0  0  0  0  0  0  0  0  0  0
    8.2258  -17.6015   18.5096 C   0  0  0  0  0  0  0  0  0  0  0  0
    9.0430  -18.3696   17.4714 C   0  0  0  0  0  0  0  0  0  0  0  0
    8.1366  -19.0781   16.5178 C   0  0  0  0  0  0  0  0  0  0  0  0
    8.9940  -19.8903   15.6365 N   0  0  0  0  0  0  0  0  0  0  0  0
    8.9758  -15.8222   21.6213 C   0  0  0  0  0  0  0  0  0  0  0  0
    9.9533  -15.0402   21.6153 O   0  0  0  0  0  0  0  0  0  0  0  0
    7.2456  -11.5584   24.6189 C   0  0  0  0  0  0  0  0  0  0  0  0
    7.0860  -12.9376   25.3090 C   0  0  1  0  0  0  0  0  0  0  0  0
    5.8083  -12.8215   26.1545 C   0  0  0  0  0  0  0  0  0  0  0  0
    6.8912  -13.9929   24.2868 C   0  0  0  0  0  0  0  0  0  0  0  0
    8.0581  -14.4010   23.4676 C   0  0  2  0  0  0  0  0  0  0  0  0
    7.8908  -15.4144   22.4967 N   0  0  0  0  0  0  0  0  0  0  0  0
    9.1875  -14.6504   24.4151 C   0  0  0  0  0  0  0  0  0  0  0  0
    9.6756  -13.5975   24.9435 O   0  0  0  0  0  0  0  0  0  0  0  0
   12.1281  -16.7476   32.0987 O   0  0  0  0  0  0  0  0  0  0  0  0
   11.5209  -16.5315   30.8806 C   0  0  0  0  0  0  0  0  0  0  0  0
   11.3489  -15.2285   30.4270 C   0  0  0  0  0  0  0  0  0  0  0  0
   10.7342  -15.0240   29.1963 C   0  0  0  0  0  0  0  0  0  0  0  0
   10.2978  -16.0784   28.4274 C   0  0  0  0  0  0  0  0  0  0  0  0
    9.6443  -15.8437   27.1288 C   0  0  0  0  0  0  0  0  0  0  0  0
   10.4930  -16.1454   25.9393 C   0  0  2  0  0  0  0  0  0  0  0  0
    9.7023  -15.9251   24.7280 N   0  0  0  0  0  0  0  0  0  0  0  0
   11.0522  -17.5000   25.9114 C   0  0  0  0  0  0  0  0  0  0  0  0
   12.3861  -17.6963   26.2184 O   0  0  0  0  0  0  0  0  0  0  0  0
   10.4668  -17.3878   28.8752 C   0  0  0  0  0  0  0  0  0  0  0  0
   11.0791  -17.5805   30.1001 C   0  0  0  0  0  0  0  0  0  0  0  0
   10.3678  -18.5292   25.6136 O   0  0  0  0  0  0  0  0  0  0  0  0
  2  1  1  6
  3  2  1  0
  3  4  1  0
  5  4  1  0
  6  5  1  0
  7  6  1  0
  8  2  1  0
  8  9  2  0
 11 10  1  6
 11 13  1  0
 12 11  1  0
 14 13  1  1
 14 15  1  0
 15  8  1  0
 16 14  1  0
 17 16  2  0
 19 18  1  0
 20 19  2  0
 21 20  1  0
 22 28  1  0
 22 21  2  0
 23 22  1  0
 24 23  1  1
 24 25  1  0
 25 16  1  0
 26 24  1  0
 27 26  1  0
 28 29  2  0
 29 19  1  0
 30 26  2  0
M  END
$$$$
