KLY.pdb
     RDKit          3D

 30 30  0  0  1  0  0  0  0  0999 V2000
    6.8090  -17.2452   20.4089 N   0  0  0  0  0  0  0  0  0  0  0  0
    6.6844  -17.3319   21.8765 C   0  0  1  0  0  0  0  0  0  0  0  0
    7.4215  -18.5992   22.2404 C   0  0  0  0  0  0  0  0  0  0  0  0
    6.8433  -19.7829   21.5614 C   0  0  0  0  0  0  0  0  0  0  0  0
    5.5815  -20.2787   22.2670 C   0  0  0  0  0  0  0  0  0  0  0  0
    5.0155  -21.4607   21.5489 C   0  0  0  0  0  0  0  0  0  0  0  0
    3.7708  -21.8288   22.2465 N   0  0  0  0  0  0  0  0  0  0  0  0
    7.3109  -16.1715   22.5125 C   0  0  0  0  0  0  0  0  0  0  0  0
    8.4801  -15.7896   22.2792 O   0  0  0  0  0  0  0  0  0  0  0  0
    7.6896  -11.3310   24.8587 C   0  0  0  0  0  0  0  0  0  0  0  0
    7.1191  -12.3832   25.8441 C   0  0  1  0  0  0  0  0  0  0  0  0
    6.0840  -11.6257   26.6901 C   0  0  0  0  0  0  0  0  0  0  0  0
    6.4300  -13.4576   25.0908 C   0  0  0  0  0  0  0  0  0  0  0  0
    7.2394  -14.3145   24.1909 C   0  0  2  0  0  0  0  0  0  0  0  0
    6.6013  -15.3601   23.4860 N   0  0  0  0  0  0  0  0  0  0  0  0
    8.4375  -14.7527   24.9708 C   0  0  0  0  0  0  0  0  0  0  0  0
    8.2340  -14.8819   26.2230 O   0  0  0  0  0  0  0  0  0  0  0  0
   11.0078  -16.7540   31.5040 O   0  0  0  0  0  0  0  0  0  0  0  0
   10.8567  -16.7502   30.1342 C   0  0  0  0  0  0  0  0  0  0  0  0
   10.8380  -17.9592   29.4478 C   0  0  0  0  0  0  0  0  0  0  0  0
   10.6854  -17.9417   28.0655 C   0  0  0  0  0  0  0  0  0  0  0  0
   10.5535  -16.7603   27.3725 C   0  0  0  0  0  0  0  0  0  0  0  0
   10.3977  -16.7597   25.9081 C   0  0  0  0  0  0  0  0  0  0  0  0
   10.8130  -15.4936   25.2367 C   0  0  2  0  0  0  0  0  0  0  0  0
    9.7050  -15.0127   24.4108 N   0  0  0  0  0  0  0  0  0  0  0  0
   12.0190  -15.6031   24.4109 C   0  0  0  0  0  0  0  0  0  0  0  0
   12.0517  -16.5054   23.3635 O   0  0  0  0  0  0  0  0  0  0  0  0
   10.5709  -15.5440   28.0535 C   0  0  0  0  0  0  0  0  0  0  0  0
   10.7232  -15.5722   29.4277 C   0  0  0  0  0  0  0  0  0  0  0  0
   13.0615  -14.9021   24.6056 O   0  0  0  0  0  0  0  0  0  0  0  0
  2  1  1  6
  3  2  1  0
  3  4  1  0
  5  4  1  0
  6  5  1  0
  7  6  1  0
  8  2  1  0
  8  9  2  0
 11 10  1  6
 11 13  1  0
 12 11  1  0
 14 13  1  1
 14 15  1  0
 15  8  1  0
 16 14  1  0
 17 16  2  0
 19 18  1  0
 20 19  2  0
 21 20  1  0
 22 28  1  0
 22 21  2  0
 23 22  1  0
 24 23  1  6
 24 25  1  0
 25 16  1  0
 26 24  1  0
 27 26  1  0
 28 29  2  0
 29 19  1  0
 30 26  2  0
M  END
$$$$
