KLY.pdb
     RDKit          3D

 30 30  0  0  1  0  0  0  0  0999 V2000
    8.4284  -19.8986   20.3896 N   0  0  0  0  0  0  0  0  0  0  0  0
    9.7548  -19.5715   19.8326 C   0  0  1  0  0  0  0  0  0  0  0  0
    9.6518  -19.9495   18.3738 C   0  0  0  0  0  0  0  0  0  0  0  0
    9.6698  -21.4196   18.1868 C   0  0  0  0  0  0  0  0  0  0  0  0
    9.5775  -21.8025   16.7100 C   0  0  0  0  0  0  0  0  0  0  0  0
    9.5489  -23.2890   16.5599 C   0  0  0  0  0  0  0  0  0  0  0  0
    9.6078  -23.5738   15.1153 N   0  0  0  0  0  0  0  0  0  0  0  0
   10.0309  -18.1407   19.9751 C   0  0  0  0  0  0  0  0  0  0  0  0
   11.1194  -17.6025   19.6709 O   0  0  0  0  0  0  0  0  0  0  0  0
    6.8235  -12.9767   19.6598 C   0  0  0  0  0  0  0  0  0  0  0  0
    8.1646  -13.7529   19.6075 C   0  0  1  0  0  0  0  0  0  0  0  0
    9.2286  -12.7553   20.0908 C   0  0  0  0  0  0  0  0  0  0  0  0
    8.1200  -14.8995   20.5456 C   0  0  0  0  0  0  0  0  0  0  0  0
    9.2748  -15.8295   20.5731 C   0  0  2  0  0  0  0  0  0  0  0  0
    9.0346  -17.2201   20.4943 N   0  0  0  0  0  0  0  0  0  0  0  0
   10.1286  -15.4271   21.7326 C   0  0  0  0  0  0  0  0  0  0  0  0
   10.9225  -14.4584   21.4926 O   0  0  0  0  0  0  0  0  0  0  0  0
    6.1984  -11.4042   27.9167 O   0  0  0  0  0  0  0  0  0  0  0  0
    6.7211  -12.1936   26.9153 C   0  0  0  0  0  0  0  0  0  0  0  0
    6.0386  -13.3406   26.5260 C   0  0  0  0  0  0  0  0  0  0  0  0
    6.5771  -14.1289   25.5145 C   0  0  0  0  0  0  0  0  0  0  0  0
    7.7615  -13.7963   24.8983 C   0  0  0  0  0  0  0  0  0  0  0  0
    8.3201  -14.6450   23.8324 C   0  0  0  0  0  0  0  0  0  0  0  0
    9.6081  -15.3143   24.1777 C   0  0  2  0  0  0  0  0  0  0  0  0
   10.0929  -16.0386   23.0025 N   0  0  0  0  0  0  0  0  0  0  0  0
    9.5363  -16.2344   25.3165 C   0  0  0  0  0  0  0  0  0  0  0  0
    9.4979  -17.5984   25.0930 O   0  0  0  0  0  0  0  0  0  0  0  0
    8.4517  -12.6477   25.2828 C   0  0  0  0  0  0  0  0  0  0  0  0
    7.9080  -11.8707   26.2894 C   0  0  0  0  0  0  0  0  0  0  0  0
    9.5053  -15.8435   26.5258 O   0  0  0  0  0  0  0  0  0  0  0  0
  2  1  1  1
  3  2  1  0
  3  4  1  0
  5  4  1  0
  6  5  1  0
  7  6  1  0
  8  2  1  0
  8  9  2  0
 11 10  1  1
 11 13  1  0
 12 11  1  0
 14 13  1  1
 14 15  1  0
 15  8  1  0
 16 14  1  0
 17 16  2  0
 19 18  1  0
 20 19  2  0
 21 20  1  0
 22 28  1  0
 22 21  2  0
 23 22  1  0
 24 23  1  6
 24 25  1  0
 25 16  1  0
 26 24  1  0
 27 26  1  0
 28 29  2  0
 29 19  1  0
 30 26  2  0
M  END
$$$$
