KLY.pdb
     RDKit          3D

 30 30  0  0  1  0  0  0  0  0999 V2000
   10.2331  -18.2969   17.2948 N   0  0  0  0  0  0  0  0  0  0  0  0
    9.4832  -18.4117   18.5602 C   0  0  1  0  0  0  0  0  0  0  0  0
    9.9229  -19.7367   19.1370 C   0  0  0  0  0  0  0  0  0  0  0  0
   11.3574  -19.9996   18.8727 C   0  0  0  0  0  0  0  0  0  0  0  0
   11.7641  -21.4061   19.3111 C   0  0  0  0  0  0  0  0  0  0  0  0
   13.2165  -21.6337   19.0431 C   0  0  0  0  0  0  0  0  0  0  0  0
   13.5296  -22.9949   19.5132 N   0  0  0  0  0  0  0  0  0  0  0  0
    9.8345  -17.3149   19.4643 C   0  0  0  0  0  0  0  0  0  0  0  0
   10.9912  -16.8537   19.5915 O   0  0  0  0  0  0  0  0  0  0  0  0
    6.1710  -13.1575   21.1279 C   0  0  0  0  0  0  0  0  0  0  0  0
    7.3438  -13.9550   20.5015 C   0  0  1  0  0  0  0  0  0  0  0  0
    8.2462  -12.8987   19.8451 C   0  0  0  0  0  0  0  0  0  0  0  0
    8.1092  -14.6455   21.5664 C   0  0  0  0  0  0  0  0  0  0  0  0
    9.1714  -15.5982   21.1625 C   0  0  2  0  0  0  0  0  0  0  0  0
    8.8388  -16.6678   20.3007 N   0  0  0  0  0  0  0  0  0  0  0  0
    9.8715  -16.0234   22.4134 C   0  0  0  0  0  0  0  0  0  0  0  0
    9.4133  -17.0916   22.9378 O   0  0  0  0  0  0  0  0  0  0  0  0
   10.4347  -15.3145   30.7815 O   0  0  0  0  0  0  0  0  0  0  0  0
   10.3334  -15.2161   29.4107 C   0  0  0  0  0  0  0  0  0  0  0  0
   10.1229  -16.3667   28.6590 C   0  0  0  0  0  0  0  0  0  0  0  0
   10.0231  -16.2538   27.2764 C   0  0  0  0  0  0  0  0  0  0  0  0
   10.1275  -15.0353   26.6459 C   0  0  0  0  0  0  0  0  0  0  0  0
   10.0243  -14.9344   25.1803 C   0  0  0  0  0  0  0  0  0  0  0  0
   11.2199  -15.4257   24.4350 C   0  0  2  0  0  0  0  0  0  0  0  0
   10.9516  -15.3325   22.9997 N   0  0  0  0  0  0  0  0  0  0  0  0
   11.6277  -16.7951   24.7623 C   0  0  0  0  0  0  0  0  0  0  0  0
   11.7170  -17.7412   23.7579 O   0  0  0  0  0  0  0  0  0  0  0  0
   10.3383  -13.8770   27.3925 C   0  0  0  0  0  0  0  0  0  0  0  0
   10.4362  -13.9999   28.7665 C   0  0  0  0  0  0  0  0  0  0  0  0
   11.9098  -17.1736   25.9427 O   0  0  0  0  0  0  0  0  0  0  0  0
  2  1  1  6
  3  2  1  0
  3  4  1  0
  5  4  1  0
  6  5  1  0
  7  6  1  0
  8  2  1  0
  8  9  2  0
 11 10  1  1
 11 13  1  0
 12 11  1  0
 14 13  1  1
 14 15  1  0
 15  8  1  0
 16 14  1  0
 17 16  2  0
 19 18  1  0
 20 19  2  0
 21 20  1  0
 22 28  1  0
 22 21  2  0
 23 22  1  0
 24 23  1  1
 24 25  1  0
 25 16  1  0
 26 24  1  0
 27 26  1  0
 28 29  2  0
 29 19  1  0
 30 26  2  0
M  END
$$$$
