KLY.pdb
     RDKit          3D

 30 30  0  0  1  0  0  0  0  0999 V2000
    7.1310  -17.4590   21.3729 N   0  0  0  0  0  0  0  0  0  0  0  0
    8.3273  -16.7266   20.9154 C   0  0  1  0  0  0  0  0  0  0  0  0
    8.0343  -16.3965   19.4709 C   0  0  0  0  0  0  0  0  0  0  0  0
    7.7050  -17.6109   18.6877 C   0  0  0  0  0  0  0  0  0  0  0  0
    7.7828  -17.3516   17.1836 C   0  0  0  0  0  0  0  0  0  0  0  0
    7.3830  -18.5752   16.4245 C   0  0  0  0  0  0  0  0  0  0  0  0
    7.4851  -18.2421   14.9926 N   0  0  0  0  0  0  0  0  0  0  0  0
    8.5072  -15.5017   21.6970 C   0  0  0  0  0  0  0  0  0  0  0  0
    9.4278  -14.6755   21.5044 O   0  0  0  0  0  0  0  0  0  0  0  0
    7.0313  -11.2468   24.7122 C   0  0  0  0  0  0  0  0  0  0  0  0
    7.1437  -12.5447   25.5529 C   0  0  1  0  0  0  0  0  0  0  0  0
    6.0332  -12.4396   26.6097 C   0  0  0  0  0  0  0  0  0  0  0  0
    6.8807  -13.7247   24.6956 C   0  0  0  0  0  0  0  0  0  0  0  0
    7.8780  -14.0727   23.6547 C   0  0  2  0  0  0  0  0  0  0  0  0
    7.6063  -15.1495   22.7805 N   0  0  0  0  0  0  0  0  0  0  0  0
    9.2041  -14.1676   24.3388 C   0  0  0  0  0  0  0  0  0  0  0  0
    9.6539  -13.0569   24.7750 O   0  0  0  0  0  0  0  0  0  0  0  0
   11.7082  -16.9805   31.9303 O   0  0  0  0  0  0  0  0  0  0  0  0
   11.1907  -16.6804   30.6888 C   0  0  0  0  0  0  0  0  0  0  0  0
   10.7338  -17.7105   29.8743 C   0  0  0  0  0  0  0  0  0  0  0  0
   10.2144  -17.3944   28.6235 C   0  0  0  0  0  0  0  0  0  0  0  0
   10.1452  -16.0928   28.1826 C   0  0  0  0  0  0  0  0  0  0  0  0
    9.5968  -15.7761   26.8531 C   0  0  0  0  0  0  0  0  0  0  0  0
   10.6156  -15.6588   25.7693 C   0  0  2  0  0  0  0  0  0  0  0  0
    9.9321  -15.3628   24.5099 N   0  0  0  0  0  0  0  0  0  0  0  0
   11.4633  -16.8415   25.5925 C   0  0  0  0  0  0  0  0  0  0  0  0
   10.8891  -18.0483   25.2378 O   0  0  0  0  0  0  0  0  0  0  0  0
   10.6010  -15.0543   28.9935 C   0  0  0  0  0  0  0  0  0  0  0  0
   11.1157  -15.3791   30.2353 C   0  0  0  0  0  0  0  0  0  0  0  0
   12.7246  -16.8232   25.7506 O   0  0  0  0  0  0  0  0  0  0  0  0
  2  1  1  1
  3  2  1  0
  3  4  1  0
  5  4  1  0
  6  5  1  0
  7  6  1  0
  8  2  1  0
  8  9  2  0
 11 10  1  6
 11 13  1  0
 12 11  1  0
 14 13  1  1
 14 15  1  0
 15  8  1  0
 16 14  1  0
 17 16  2  0
 19 18  1  0
 20 19  2  0
 21 20  1  0
 22 28  1  0
 22 21  2  0
 23 22  1  0
 24 23  1  1
 24 25  1  0
 25 16  1  0
 26 24  1  0
 27 26  1  0
 28 29  2  0
 29 19  1  0
 30 26  2  0
M  END
$$$$
