PAD.pdb
     RDKit          3D

 21 21  0  0  1  0  0  0  0  0999 V2000
   26.9128  -18.3451  -14.7648 N   0  0  0  0  0  0  0  0  0  0  0  0
   27.8402  -17.5625  -15.5637 C   0  0  0  0  0  0  0  0  0  0  0  0
   29.1161  -18.3585  -15.5004 C   0  0  0  0  0  0  0  0  0  0  0  0
   28.7160  -19.7949  -15.2193 C   0  0  0  0  0  0  0  0  0  0  0  0
   27.2093  -19.6906  -15.1903 C   0  0  1  0  0  0  0  0  0  0  0  0
   26.5921  -20.6498  -14.2505 C   0  0  0  0  0  0  0  0  0  0  0  0
   26.6589  -21.9022  -14.4714 O   0  0  0  0  0  0  0  0  0  0  0  0
   25.5032  -20.6309  -10.7553 C   0  0  0  0  0  0  0  0  0  0  0  0
   25.2669  -21.1690  -12.1591 C   0  0  2  0  0  0  0  0  0  0  0  0
   25.9055  -20.2548  -13.0761 N   0  0  0  0  0  0  0  0  0  0  0  0
   23.8115  -21.2679  -12.3763 C   0  0  0  0  0  0  0  0  0  0  0  0
   23.1167  -22.0159  -11.6574 O   0  0  0  0  0  0  0  0  0  0  0  0
   23.2015  -20.5111  -13.4043 N   0  0  0  0  0  0  0  0  0  0  0  0
   21.7833  -20.4763  -13.6429 C   0  0  1  0  0  0  0  0  0  0  0  0
   21.0572  -19.8216  -12.5152 C   0  0  0  0  0  0  0  0  0  0  0  0
   19.8112  -20.4919  -12.1266 C   0  0  0  0  0  0  0  0  0  0  0  0
   19.3139  -21.4945  -12.6865 O   0  0  0  0  0  0  0  0  0  0  0  0
   21.4729  -19.8651  -14.9606 C   0  0  0  0  0  0  0  0  0  0  0  0
   22.2194  -18.9785  -15.4463 O   0  0  0  0  0  0  0  0  0  0  0  0
   19.1136  -19.9733  -11.0394 O   0  0  0  0  0  0  0  0  0  0  0  0
   20.3619  -20.2397  -15.7031 O   0  0  0  0  0  0  0  0  0  0  0  0
  2  1  1  0
  3  2  1  0
  4  3  1  0
  4  5  1  0
  5  1  1  0
  6 10  1  0
  5  6  1  1
  7  6  2  0
  9  8  1  1
  9 10  1  0
  9 11  1  0
 11 13  1  0
 12 11  2  0
 13 14  1  0
 14 18  1  0
 14 15  1  1
 16 20  1  0
 16 15  1  0
 17 16  2  0
 18 21  1  0
 19 18  2  0
M  END
$$$$
