PAD.pdb
     RDKit          3D

 21 21  0  0  1  0  0  0  0  0999 V2000
   24.6562  -11.9559  -15.6238 N   0  0  0  0  0  0  0  0  0  0  0  0
   25.3037  -13.1502  -16.1388 C   0  0  0  0  0  0  0  0  0  0  0  0
   24.2408  -13.7837  -16.9959 C   0  0  0  0  0  0  0  0  0  0  0  0
   23.3063  -12.6667  -17.4217 C   0  0  0  0  0  0  0  0  0  0  0  0
   23.9631  -11.4628  -16.7882 C   0  0  1  0  0  0  0  0  0  0  0  0
   22.9852  -10.4334  -16.3779 C   0  0  0  0  0  0  0  0  0  0  0  0
   22.3922   -9.7229  -17.2527 O   0  0  0  0  0  0  0  0  0  0  0  0
   21.3445   -9.4842  -13.1532 C   0  0  0  0  0  0  0  0  0  0  0  0
   21.7033   -9.1720  -14.5989 C   0  0  2  0  0  0  0  0  0  0  0  0
   22.6506  -10.1743  -15.0260 N   0  0  0  0  0  0  0  0  0  0  0  0
   22.2581   -7.8065  -14.6518 C   0  0  0  0  0  0  0  0  0  0  0  0
   23.4850   -7.6192  -14.5136 O   0  0  0  0  0  0  0  0  0  0  0  0
   21.3951   -6.7050  -14.8601 N   0  0  0  0  0  0  0  0  0  0  0  0
   21.8463   -5.3466  -15.0034 C   0  0  1  0  0  0  0  0  0  0  0  0
   21.8366   -4.9174  -16.4329 C   0  0  0  0  0  0  0  0  0  0  0  0
   22.2600   -3.5297  -16.6516 C   0  0  0  0  0  0  0  0  0  0  0  0
   23.1480   -2.9255  -16.0095 O   0  0  0  0  0  0  0  0  0  0  0  0
   21.0821   -4.4285  -14.1206 C   0  0  0  0  0  0  0  0  0  0  0  0
   21.4074   -3.2188  -14.0208 O   0  0  0  0  0  0  0  0  0  0  0  0
   21.6227   -2.8141  -17.6611 O   0  0  0  0  0  0  0  0  0  0  0  0
   19.9915   -4.8585  -13.3779 O   0  0  0  0  0  0  0  0  0  0  0  0
  2  1  1  0
  3  2  1  0
  4  3  1  0
  4  5  1  0
  5  1  1  0
  6 10  1  0
  5  6  1  1
  7  6  2  0
  9  8  1  1
  9 10  1  0
  9 11  1  0
 11 13  1  0
 12 11  2  0
 13 14  1  0
 14 18  1  0
 14 15  1  6
 16 20  1  0
 16 15  1  0
 17 16  2  0
 18 21  1  0
 19 18  2  0
M  END
$$$$
