PAD.pdb
     RDKit          3D

 21 21  0  0  1  0  0  0  0  0999 V2000
   19.5410  -10.6097  -15.3792 N   0  0  0  0  0  0  0  0  0  0  0  0
   19.4030  -11.6195  -16.4146 C   0  0  0  0  0  0  0  0  0  0  0  0
   19.0423  -10.8205  -17.6382 C   0  0  0  0  0  0  0  0  0  0  0  0
   19.5826   -9.4202  -17.4148 C   0  0  0  0  0  0  0  0  0  0  0  0
   20.2556   -9.5651  -16.0703 C   0  0  1  0  0  0  0  0  0  0  0  0
   20.2015   -8.3224  -15.2720 C   0  0  0  0  0  0  0  0  0  0  0  0
   19.1568   -8.0298  -14.6052 O   0  0  0  0  0  0  0  0  0  0  0  0
   22.6491   -5.6193  -14.4039 C   0  0  0  0  0  0  0  0  0  0  0  0
   21.2247   -6.1508  -14.4743 C   0  0  2  0  0  0  0  0  0  0  0  0
   21.2741   -7.4003  -15.1959 N   0  0  0  0  0  0  0  0  0  0  0  0
   20.3876   -5.1392  -15.1460 C   0  0  0  0  0  0  0  0  0  0  0  0
   20.2303   -5.1732  -16.3843 O   0  0  0  0  0  0  0  0  0  0  0  0
   19.7608   -4.1265  -14.3825 N   0  0  0  0  0  0  0  0  0  0  0  0
   18.9290   -3.0957  -14.9438 C   0  0  1  0  0  0  0  0  0  0  0  0
   17.7361   -2.8316  -14.0866 C   0  0  0  0  0  0  0  0  0  0  0  0
   16.8731   -1.7465  -14.5671 C   0  0  0  0  0  0  0  0  0  0  0  0
   17.0411   -1.0886  -15.6182 O   0  0  0  0  0  0  0  0  0  0  0  0
   19.7133   -1.8683  -15.2344 C   0  0  0  0  0  0  0  0  0  0  0  0
   19.1799   -0.8915  -15.8180 O   0  0  0  0  0  0  0  0  0  0  0  0
   15.7669   -1.4126  -13.7911 O   0  0  0  0  0  0  0  0  0  0  0  0
   21.0496   -1.7467  -14.8799 O   0  0  0  0  0  0  0  0  0  0  0  0
  2  1  1  0
  3  2  1  0
  4  3  1  0
  4  5  1  0
  5  1  1  0
  6 10  1  0
  5  6  1  1
  7  6  2  0
  9  8  1  6
  9 10  1  0
  9 11  1  0
 11 13  1  0
 12 11  2  0
 13 14  1  0
 14 18  1  0
 14 15  1  1
 16 20  1  0
 16 15  1  0
 17 16  2  0
 18 21  1  0
 19 18  2  0
M  END
$$$$
