PAD.pdb
     RDKit          3D

 21 21  0  0  1  0  0  0  0  0999 V2000
   26.2568  -11.4750  -17.3376 N   0  0  0  0  0  0  0  0  0  0  0  0
   26.8772  -12.7461  -17.0057 C   0  0  0  0  0  0  0  0  0  0  0  0
   28.0058  -12.3570  -16.0890 C   0  0  0  0  0  0  0  0  0  0  0  0
   27.6167  -11.0306  -15.4632 C   0  0  0  0  0  0  0  0  0  0  0  0
   26.2492  -10.8012  -16.0627 C   0  0  1  0  0  0  0  0  0  0  0  0
   25.9525   -9.3679  -16.2668 C   0  0  0  0  0  0  0  0  0  0  0  0
   25.9016   -8.5725  -15.2736 O   0  0  0  0  0  0  0  0  0  0  0  0
   25.6466   -7.0939  -19.2090 C   0  0  0  0  0  0  0  0  0  0  0  0
   25.3228   -7.4248  -17.7592 C   0  0  2  0  0  0  0  0  0  0  0  0
   25.7117   -8.7979  -17.5412 N   0  0  0  0  0  0  0  0  0  0  0  0
   23.8805   -7.2019  -17.5463 C   0  0  0  0  0  0  0  0  0  0  0  0
   23.0438   -8.0043  -18.0105 O   0  0  0  0  0  0  0  0  0  0  0  0
   23.4446   -6.0735  -16.8126 N   0  0  0  0  0  0  0  0  0  0  0  0
   22.0734   -5.8304  -16.4518 C   0  0  1  0  0  0  0  0  0  0  0  0
   21.5013   -6.9749  -15.6834 C   0  0  0  0  0  0  0  0  0  0  0  0
   20.1181   -6.7737  -15.2370 C   0  0  0  0  0  0  0  0  0  0  0  0
   19.7654   -6.3632  -14.1088 O   0  0  0  0  0  0  0  0  0  0  0  0
   21.9231   -4.5310  -15.7482 C   0  0  0  0  0  0  0  0  0  0  0  0
   20.7837   -4.0934  -15.4491 O   0  0  0  0  0  0  0  0  0  0  0  0
   19.1013   -7.0628  -16.1426 O   0  0  0  0  0  0  0  0  0  0  0  0
   23.0172   -3.7537  -15.3948 O   0  0  0  0  0  0  0  0  0  0  0  0
  2  1  1  0
  3  2  1  0
  4  3  1  0
  4  5  1  0
  5  1  1  0
  6 10  1  0
  5  6  1  6
  7  6  2  0
  9  8  1  6
  9 10  1  0
  9 11  1  0
 11 13  1  0
 12 11  2  0
 13 14  1  0
 14 18  1  0
 14 15  1  1
 16 20  1  0
 16 15  1  0
 17 16  2  0
 18 21  1  0
 19 18  2  0
M  END
$$$$
