PAD.pdb
     RDKit          3D

 21 21  0  0  1  0  0  0  0  0999 V2000
   18.6309  -12.9725  -15.5385 N   0  0  0  0  0  0  0  0  0  0  0  0
   18.4379  -14.4087  -15.6431 C   0  0  0  0  0  0  0  0  0  0  0  0
   18.3213  -14.6400  -17.1258 C   0  0  0  0  0  0  0  0  0  0  0  0
   19.0465  -13.4908  -17.8009 C   0  0  0  0  0  0  0  0  0  0  0  0
   19.5594  -12.7142  -16.6110 C   0  0  1  0  0  0  0  0  0  0  0  0
   19.6215  -11.2599  -16.8668 C   0  0  0  0  0  0  0  0  0  0  0  0
   20.5677  -10.7677  -17.5627 O   0  0  0  0  0  0  0  0  0  0  0  0
   17.2817   -8.3983  -16.4288 C   0  0  0  0  0  0  0  0  0  0  0  0
   18.7010   -8.9181  -16.6063 C   0  0  2  0  0  0  0  0  0  0  0  0
   18.6631  -10.3421  -16.3712 N   0  0  0  0  0  0  0  0  0  0  0  0
   19.5748   -8.2079  -15.6537 C   0  0  0  0  0  0  0  0  0  0  0  0
   19.7319   -8.6468  -14.4952 O   0  0  0  0  0  0  0  0  0  0  0  0
   20.2371   -7.0242  -16.0558 N   0  0  0  0  0  0  0  0  0  0  0  0
   21.0818   -6.2431  -15.1921 C   0  0  1  0  0  0  0  0  0  0  0  0
   21.9032   -5.2690  -15.9693 C   0  0  0  0  0  0  0  0  0  0  0  0
   22.7069   -4.3601  -15.1441 C   0  0  0  0  0  0  0  0  0  0  0  0
   22.8999   -4.4674  -13.9124 O   0  0  0  0  0  0  0  0  0  0  0  0
   20.2965   -5.5993  -14.1081 C   0  0  0  0  0  0  0  0  0  0  0  0
   19.2003   -5.0383  -14.3588 O   0  0  0  0  0  0  0  0  0  0  0  0
   23.3122   -3.2798  -15.7796 O   0  0  0  0  0  0  0  0  0  0  0  0
   20.7313   -5.5884  -12.7902 O   0  0  0  0  0  0  0  0  0  0  0  0
  2  1  1  0
  3  2  1  0
  4  3  1  0
  4  5  1  0
  5  1  1  0
  6 10  1  0
  5  6  1  6
  7  6  2  0
  9  8  1  1
  9 10  1  0
  9 11  1  0
 11 13  1  0
 12 11  2  0
 13 14  1  0
 14 18  1  0
 14 15  1  6
 16 20  1  0
 16 15  1  0
 17 16  2  0
 18 21  1  0
 19 18  2  0
M  END
$$$$
