PAD.pdb
     RDKit          3D

 21 21  0  0  1  0  0  0  0  0999 V2000
   18.0006  -12.9689  -16.5678 N   0  0  0  0  0  0  0  0  0  0  0  0
   17.6301  -14.3737  -16.5716 C   0  0  0  0  0  0  0  0  0  0  0  0
   18.8185  -15.0484  -17.2026 C   0  0  0  0  0  0  0  0  0  0  0  0
   20.0093  -14.1389  -16.9634 C   0  0  0  0  0  0  0  0  0  0  0  0
   19.3830  -13.0229  -16.1608 C   0  0  1  0  0  0  0  0  0  0  0  0
   20.0209  -11.7142  -16.4152 C   0  0  0  0  0  0  0  0  0  0  0  0
   21.2384  -11.5180  -16.0974 O   0  0  0  0  0  0  0  0  0  0  0  0
   19.0981   -8.6596  -18.3445 C   0  0  0  0  0  0  0  0  0  0  0  0
   19.9452   -9.3369  -17.2768 C   0  0  2  0  0  0  0  0  0  0  0  0
   19.3434  -10.6222  -17.0112 N   0  0  0  0  0  0  0  0  0  0  0  0
   19.9719   -8.4652  -16.0875 C   0  0  0  0  0  0  0  0  0  0  0  0
   19.1287   -8.6135  -15.1786 O   0  0  0  0  0  0  0  0  0  0  0  0
   20.9581   -7.4568  -15.9775 N   0  0  0  0  0  0  0  0  0  0  0  0
   21.0442   -6.5337  -14.8775 C   0  0  1  0  0  0  0  0  0  0  0  0
   22.3708   -5.8505  -14.8424 C   0  0  0  0  0  0  0  0  0  0  0  0
   22.4824   -4.7960  -13.8283 C   0  0  0  0  0  0  0  0  0  0  0  0
   22.3722   -4.9547  -12.5919 O   0  0  0  0  0  0  0  0  0  0  0  0
   19.9049   -5.5806  -14.8828 C   0  0  0  0  0  0  0  0  0  0  0  0
   19.4751   -5.1034  -15.9629 O   0  0  0  0  0  0  0  0  0  0  0  0
   22.7330   -3.5007  -14.2720 O   0  0  0  0  0  0  0  0  0  0  0  0
   19.2737   -5.1806  -13.7134 O   0  0  0  0  0  0  0  0  0  0  0  0
  2  1  1  0
  3  2  1  0
  4  3  1  0
  4  5  1  0
  5  1  1  0
  6 10  1  0
  5  6  1  6
  7  6  2  0
  9  8  1  6
  9 10  1  0
  9 11  1  0
 11 13  1  0
 12 11  2  0
 13 14  1  0
 14 18  1  0
 14 15  1  6
 16 20  1  0
 16 15  1  0
 17 16  2  0
 18 21  1  0
 19 18  2  0
M  END
$$$$
