CGT.pdb
     RDKit          3D

 18 17  0  0  1  0  0  0  0  0999 V2000
    5.6761  -18.2345   24.1878 N   0  0  0  0  0  0  0  0  0  0  0  0
    6.6494  -18.6270   23.1919 C   0  0  1  0  0  0  0  0  0  0  0  0
    6.0384  -19.4826   22.1240 C   0  0  0  0  0  0  0  0  0  0  0  0
    4.5836  -20.3535   22.7303 S   0  0  0  0  0  0  0  0  0  0  0  0
    7.3605  -17.4505   22.6245 C   0  0  0  0  0  0  0  0  0  0  0  0
    8.4239  -17.6144   21.9743 O   0  0  0  0  0  0  0  0  0  0  0  0
    6.8843  -16.1176   22.7858 N   0  0  0  0  0  0  0  0  0  0  0  0
    7.6711  -14.9630   22.4635 C   0  0  0  0  0  0  0  0  0  0  0  0
    8.0452  -14.1664   23.6493 C   0  0  0  0  0  0  0  0  0  0  0  0
    8.7931  -13.1636   23.5774 O   0  0  0  0  0  0  0  0  0  0  0  0
    6.4251  -11.8760   25.7599 C   0  0  0  0  0  0  0  0  0  0  0  0
    6.7176  -13.0672   26.6474 C   0  0  1  0  0  0  0  0  0  0  0  0
    5.6206  -13.9149   26.7092 O   0  0  0  0  0  0  0  0  0  0  0  0
    7.9459  -13.8077   26.1060 C   0  0  2  0  0  0  0  0  0  0  0  0
    7.5463  -14.5395   24.9226 N   0  0  0  0  0  0  0  0  0  0  0  0
    8.5005  -14.6935   27.1484 C   0  0  0  0  0  0  0  0  0  0  0  0
    8.6123  -15.9167   26.9785 O   0  0  0  0  0  0  0  0  0  0  0  0
    8.9040  -14.1341   28.3449 O   0  0  0  0  0  0  0  0  0  0  0  0
  2  1  1  1
  2  3  1  0
  3  4  1  0
  5  6  2  0
  5  2  1  0
  7  5  1  0
  8  7  1  0
  9  8  1  0
  9 15  1  0
 10  9  2  0
 12 14  1  0
 12 11  1  6
 13 12  1  0
 14 15  1  6
 14 16  1  0
 16 17  2  0
 16 18  1  0
M  END
$$$$
