CGT.pdb
     RDKit          3D

 18 17  0  0  1  0  0  0  0  0999 V2000
    7.8603  -15.5831   17.8488 N   0  0  0  0  0  0  0  0  0  0  0  0
    8.6280  -15.3582   19.0544 C   0  0  1  0  0  0  0  0  0  0  0  0
    9.1701  -13.9625   19.1163 C   0  0  0  0  0  0  0  0  0  0  0  0
    7.8540  -12.7544   19.3417 S   0  0  0  0  0  0  0  0  0  0  0  0
    7.8521  -15.7093   20.2736 C   0  0  0  0  0  0  0  0  0  0  0  0
    6.7716  -16.3432   20.1682 O   0  0  0  0  0  0  0  0  0  0  0  0
    8.2838  -15.3542   21.5840 N   0  0  0  0  0  0  0  0  0  0  0  0
    7.7847  -15.9884   22.7692 C   0  0  0  0  0  0  0  0  0  0  0  0
    8.3132  -15.3924   24.0126 C   0  0  0  0  0  0  0  0  0  0  0  0
    9.4713  -15.6249   24.4307 O   0  0  0  0  0  0  0  0  0  0  0  0
    6.7923  -11.7878   25.6711 C   0  0  0  0  0  0  0  0  0  0  0  0
    6.8973  -13.0106   26.5575 C   0  0  1  0  0  0  0  0  0  0  0  0
    5.6773  -13.6676   26.6348 O   0  0  0  0  0  0  0  0  0  0  0  0
    7.9810  -13.9421   26.0027 C   0  0  2  0  0  0  0  0  0  0  0  0
    7.4897  -14.5228   24.7710 N   0  0  0  0  0  0  0  0  0  0  0  0
    8.3243  -14.9695   27.0054 C   0  0  0  0  0  0  0  0  0  0  0  0
    8.0155  -16.1612   26.8558 O   0  0  0  0  0  0  0  0  0  0  0  0
    9.0095  -14.5826   28.1403 O   0  0  0  0  0  0  0  0  0  0  0  0
  2  1  1  6
  2  3  1  0
  3  4  1  0
  5  6  2  0
  5  2  1  0
  7  5  1  0
  8  7  1  0
  9  8  1  0
  9 15  1  0
 10  9  2  0
 12 14  1  0
 12 11  1  6
 13 12  1  0
 14 15  1  6
 14 16  1  0
 16 17  2  0
 16 18  1  0
M  END
$$$$
