CGT.pdb
     RDKit          3D

 18 17  0  0  1  0  0  0  0  0999 V2000
    5.8080  -14.8522   25.4798 N   0  0  0  0  0  0  0  0  0  0  0  0
    6.4647  -13.8494   24.6698 C   0  0  1  0  0  0  0  0  0  0  0  0
    6.4721  -12.5095   25.3410 C   0  0  0  0  0  0  0  0  0  0  0  0
    5.0653  -12.3205   26.4489 S   0  0  0  0  0  0  0  0  0  0  0  0
    7.8303  -14.2775   24.2651 C   0  0  0  0  0  0  0  0  0  0  0  0
    8.6129  -13.4524   23.7292 O   0  0  0  0  0  0  0  0  0  0  0  0
    8.3046  -15.6066   24.4597 N   0  0  0  0  0  0  0  0  0  0  0  0
    9.6170  -16.0324   24.0692 C   0  0  0  0  0  0  0  0  0  0  0  0
   10.5556  -16.1343   25.2047 C   0  0  0  0  0  0  0  0  0  0  0  0
   11.7732  -16.3866   25.0504 O   0  0  0  0  0  0  0  0  0  0  0  0
   10.8903  -13.7173   28.1798 C   0  0  0  0  0  0  0  0  0  0  0  0
   10.6008  -15.0999   28.7245 C   0  0  1  0  0  0  0  0  0  0  0  0
    9.2700  -15.2104   29.1022 O   0  0  0  0  0  0  0  0  0  0  0  0
   10.9507  -16.1438   27.6578 C   0  0  2  0  0  0  0  0  0  0  0  0
   10.0738  -15.9416   26.5239 N   0  0  0  0  0  0  0  0  0  0  0  0
   10.8278  -17.5021   28.2224 C   0  0  0  0  0  0  0  0  0  0  0  0
   10.0001  -18.3191   27.7920 O   0  0  0  0  0  0  0  0  0  0  0  0
   11.6636  -17.8645   29.2604 O   0  0  0  0  0  0  0  0  0  0  0  0
  2  1  1  1
  2  3  1  0
  3  4  1  0
  5  6  2  0
  5  2  1  0
  7  5  1  0
  8  7  1  0
  9  8  1  0
  9 15  1  0
 10  9  2  0
 12 14  1  0
 12 11  1  6
 13 12  1  0
 14 15  1  6
 14 16  1  0
 16 17  2  0
 16 18  1  0
M  END
$$$$
