CGT.pdb
     RDKit          3D

 18 17  0  0  1  0  0  0  0  0999 V2000
    8.2690  -12.8355   17.8043 N   0  0  0  0  0  0  0  0  0  0  0  0
    7.6538  -13.9452   18.4996 C   0  0  1  0  0  0  0  0  0  0  0  0
    8.1602  -15.2642   18.0000 C   0  0  0  0  0  0  0  0  0  0  0  0
    7.9556  -15.4156   16.2174 S   0  0  0  0  0  0  0  0  0  0  0  0
    7.7954  -13.8162   19.9744 C   0  0  0  0  0  0  0  0  0  0  0  0
    8.8048  -13.2454   20.4597 O   0  0  0  0  0  0  0  0  0  0  0  0
    6.8209  -14.3194   20.8836 N   0  0  0  0  0  0  0  0  0  0  0  0
    6.9824  -14.2702   22.3075 C   0  0  0  0  0  0  0  0  0  0  0  0
    7.7018  -15.4400   22.8506 C   0  0  0  0  0  0  0  0  0  0  0  0
    7.2144  -16.1760   23.7398 O   0  0  0  0  0  0  0  0  0  0  0  0
   11.4649  -18.5641   22.2645 C   0  0  0  0  0  0  0  0  0  0  0  0
   10.6782  -17.3745   21.7568 C   0  0  1  0  0  0  0  0  0  0  0  0
   10.0008  -17.6956   20.5889 O   0  0  0  0  0  0  0  0  0  0  0  0
    9.6988  -16.9184   22.8443 C   0  0  2  0  0  0  0  0  0  0  0  0
    8.9928  -15.7528   22.3558 N   0  0  0  0  0  0  0  0  0  0  0  0
   10.4292  -16.6433   24.0973 C   0  0  0  0  0  0  0  0  0  0  0  0
   10.3425  -17.3889   25.0844 O   0  0  0  0  0  0  0  0  0  0  0  0
   11.2302  -15.5202   24.1624 O   0  0  0  0  0  0  0  0  0  0  0  0
  2  1  1  6
  2  3  1  0
  3  4  1  0
  5  6  2  0
  5  2  1  0
  7  5  1  0
  8  7  1  0
  9  8  1  0
  9 15  1  0
 10  9  2  0
 12 14  1  0
 12 11  1  1
 13 12  1  0
 14 15  1  6
 14 16  1  0
 16 17  2  0
 16 18  1  0
M  END
$$$$
