CGT.pdb
     RDKit          3D

 18 17  0  0  1  0  0  0  0  0999 V2000
    7.9405  -15.1080   18.0043 N   0  0  0  0  0  0  0  0  0  0  0  0
    8.2951  -14.3598   19.1907 C   0  0  1  0  0  0  0  0  0  0  0  0
    7.9492  -12.9078   19.0568 C   0  0  0  0  0  0  0  0  0  0  0  0
    8.8010  -12.1542   17.6608 S   0  0  0  0  0  0  0  0  0  0  0  0
    7.7069  -14.9621   20.4167 C   0  0  0  0  0  0  0  0  0  0  0  0
    6.7849  -15.8109   20.3177 O   0  0  0  0  0  0  0  0  0  0  0  0
    8.1475  -14.6158   21.7264 N   0  0  0  0  0  0  0  0  0  0  0  0
    7.6595  -15.2610   22.9104 C   0  0  0  0  0  0  0  0  0  0  0  0
    8.2209  -14.6944   24.1532 C   0  0  0  0  0  0  0  0  0  0  0  0
    9.4505  -14.6876   24.3940 O   0  0  0  0  0  0  0  0  0  0  0  0
    6.5224  -11.4780   26.0845 C   0  0  0  0  0  0  0  0  0  0  0  0
    6.7787  -12.6839   26.9631 C   0  0  1  0  0  0  0  0  0  0  0  0
    5.6162  -13.4218   27.1360 O   0  0  0  0  0  0  0  0  0  0  0  0
    7.8779  -13.5436   26.3285 C   0  0  2  0  0  0  0  0  0  0  0  0
    7.3467  -14.1340   25.1182 N   0  0  0  0  0  0  0  0  0  0  0  0
    8.3385  -14.5638   27.2908 C   0  0  0  0  0  0  0  0  0  0  0  0
    8.1330  -15.7737   27.1128 O   0  0  0  0  0  0  0  0  0  0  0  0
    9.0174  -14.1488   28.4196 O   0  0  0  0  0  0  0  0  0  0  0  0
  2  1  1  6
  2  3  1  0
  3  4  1  0
  5  6  2  0
  5  2  1  0
  7  5  1  0
  8  7  1  0
  9  8  1  0
  9 15  1  0
 10  9  2  0
 12 14  1  0
 12 11  1  6
 13 12  1  0
 14 15  1  6
 14 16  1  0
 16 17  2  0
 16 18  1  0
M  END
$$$$
