CGT.pdb
     RDKit          3D

 18 17  0  0  1  0  0  0  0  0999 V2000
    8.2141  -15.6438   18.4156 N   0  0  0  0  0  0  0  0  0  0  0  0
    8.5368  -14.7398   19.4981 C   0  0  1  0  0  0  0  0  0  0  0  0
    7.9428  -13.3808   19.2836 C   0  0  0  0  0  0  0  0  0  0  0  0
    8.3144  -12.2758   20.6560 S   0  0  0  0  0  0  0  0  0  0  0  0
    8.1625  -15.3093   20.8199 C   0  0  0  0  0  0  0  0  0  0  0  0
    6.9529  -15.5141   21.0945 O   0  0  0  0  0  0  0  0  0  0  0  0
    9.1298  -15.6413   21.8117 N   0  0  0  0  0  0  0  0  0  0  0  0
    8.7778  -16.1294   23.1133 C   0  0  0  0  0  0  0  0  0  0  0  0
    9.4757  -15.4229   24.2062 C   0  0  0  0  0  0  0  0  0  0  0  0
   10.3690  -14.5704   23.9935 O   0  0  0  0  0  0  0  0  0  0  0  0
    9.3884  -13.2474   28.3585 C   0  0  0  0  0  0  0  0  0  0  0  0
    8.7237  -14.0747   27.2788 C   0  0  1  0  0  0  0  0  0  0  0  0
    8.1365  -13.2561   26.3243 O   0  0  0  0  0  0  0  0  0  0  0  0
    9.7679  -14.9949   26.6362 C   0  0  2  0  0  0  0  0  0  0  0  0
    9.1315  -15.7108   25.5508 N   0  0  0  0  0  0  0  0  0  0  0  0
   10.3293  -15.9069   27.6521 C   0  0  0  0  0  0  0  0  0  0  0  0
    9.8990  -17.0593   27.8086 O   0  0  0  0  0  0  0  0  0  0  0  0
   11.3640  -15.4543   28.4470 O   0  0  0  0  0  0  0  0  0  0  0  0
  2  1  1  6
  2  3  1  0
  3  4  1  0
  5  6  2  0
  5  2  1  0
  7  5  1  0
  8  7  1  0
  9  8  1  0
  9 15  1  0
 10  9  2  0
 12 14  1  0
 12 11  1  1
 13 12  1  0
 14 15  1  6
 14 16  1  0
 16 17  2  0
 16 18  1  0
M  END
$$$$
