CGT.pdb
     RDKit          3D

 18 17  0  0  1  0  0  0  0  0999 V2000
    8.7313  -15.0803   19.2031 N   0  0  0  0  0  0  0  0  0  0  0  0
    8.1070  -14.4851   20.3647 C   0  0  1  0  0  0  0  0  0  0  0  0
    7.3814  -13.2203   20.0194 C   0  0  0  0  0  0  0  0  0  0  0  0
    8.5016  -11.9812   19.3468 S   0  0  0  0  0  0  0  0  0  0  0  0
    7.2306  -15.4543   21.0749 C   0  0  0  0  0  0  0  0  0  0  0  0
    6.7973  -16.4677   20.4701 O   0  0  0  0  0  0  0  0  0  0  0  0
    6.8501  -15.2860   22.4374 N   0  0  0  0  0  0  0  0  0  0  0  0
    5.9873  -16.2012   23.1259 C   0  0  0  0  0  0  0  0  0  0  0  0
    6.7147  -17.1196   24.0250 C   0  0  0  0  0  0  0  0  0  0  0  0
    6.1265  -17.9329   24.7750 O   0  0  0  0  0  0  0  0  0  0  0  0
    9.0787  -19.5949   22.9717 C   0  0  0  0  0  0  0  0  0  0  0  0
    9.8532  -18.7815   23.9869 C   0  0  1  0  0  0  0  0  0  0  0  0
   10.7206  -17.9026   23.3535 O   0  0  0  0  0  0  0  0  0  0  0  0
    8.8665  -18.0210   24.8801 C   0  0  2  0  0  0  0  0  0  0  0  0
    8.1317  -17.0899   24.0501 N   0  0  0  0  0  0  0  0  0  0  0  0
    9.5938  -17.3418   25.9704 C   0  0  0  0  0  0  0  0  0  0  0  0
    9.7061  -16.1076   26.0149 O   0  0  0  0  0  0  0  0  0  0  0  0
   10.1626  -18.1121   26.9656 O   0  0  0  0  0  0  0  0  0  0  0  0
  2  1  1  6
  2  3  1  0
  3  4  1  0
  5  6  2  0
  5  2  1  0
  7  5  1  0
  8  7  1  0
  9  8  1  0
  9 15  1  0
 10  9  2  0
 12 14  1  0
 12 11  1  6
 13 12  1  0
 14 15  1  6
 14 16  1  0
 16 17  2  0
 16 18  1  0
M  END
$$$$
