YFN.pdb
     RDKit          3D

 32 33  0  0  1  0  0  0  0  0999 V2000
    7.4085  -13.9486   15.2214 O   0  0  0  0  0  0  0  0  0  0  0  0
    7.7455  -14.5346   16.4211 C   0  0  0  0  0  0  0  0  0  0  0  0
    8.0660  -13.8198   17.5556 C   0  0  0  0  0  0  0  0  0  0  0  0
    8.3947  -14.4652   18.7263 C   0  0  0  0  0  0  0  0  0  0  0  0
    8.4119  -15.8402   18.7946 C   0  0  0  0  0  0  0  0  0  0  0  0
    8.7739  -16.5400   20.0837 C   0  0  0  0  0  0  0  0  0  0  0  0
   10.0005  -15.8420   20.6267 C   0  0  2  0  0  0  0  0  0  0  0  0
   11.1424  -16.7302   20.5339 N   0  0  0  0  0  0  0  0  0  0  0  0
    9.8420  -15.4250   22.0279 C   0  0  0  0  0  0  0  0  0  0  0  0
   10.7566  -15.6267   22.8706 O   0  0  0  0  0  0  0  0  0  0  0  0
    8.0937  -16.5583   17.6684 C   0  0  0  0  0  0  0  0  0  0  0  0
    7.7655  -15.9125   16.4995 C   0  0  0  0  0  0  0  0  0  0  0  0
    8.6749  -14.7789   22.5265 N   0  0  0  0  0  0  0  0  0  0  0  0
    8.5871  -14.2632   23.8904 C   0  0  1  0  0  0  0  0  0  0  0  0
    7.4493  -13.2731   24.0102 C   0  0  0  0  0  0  0  0  0  0  0  0
    7.2793  -12.7246   25.3715 C   0  0  0  0  0  0  0  0  0  0  0  0
    6.2648  -13.2192   26.1873 C   0  0  0  0  0  0  0  0  0  0  0  0
    6.0710  -12.7313   27.4622 C   0  0  0  0  0  0  0  0  0  0  0  0
    6.8710  -11.7367   27.9803 C   0  0  0  0  0  0  0  0  0  0  0  0
    7.8781  -11.2387   27.1835 C   0  0  0  0  0  0  0  0  0  0  0  0
    8.0682  -11.7346   25.8995 C   0  0  0  0  0  0  0  0  0  0  0  0
    8.5648  -15.3366   24.9034 C   0  0  0  0  0  0  0  0  0  0  0  0
    8.8134  -14.9713   26.1034 O   0  0  0  0  0  0  0  0  0  0  0  0
    6.5185  -19.1390   22.8809 N   0  0  0  0  0  0  0  0  0  0  0  0
    6.5332  -18.8225   24.2636 C   0  0  0  0  0  0  0  0  0  0  0  0
    5.4863  -18.3595   24.7487 O   0  0  0  0  0  0  0  0  0  0  0  0
    7.7271  -19.0235   25.1165 C   0  0  0  0  0  0  0  0  0  0  0  0
    8.2190  -17.7136   25.6979 C   0  0  2  0  0  0  0  0  0  0  0  0
    8.2981  -16.6902   24.6764 N   0  0  0  0  0  0  0  0  0  0  0  0
    9.5258  -18.0221   26.3236 C   0  0  0  0  0  0  0  0  0  0  0  0
   10.5452  -17.4477   25.9146 O   0  0  0  0  0  0  0  0  0  0  0  0
    9.6069  -18.9356   27.3467 O   0  0  0  0  0  0  0  0  0  0  0  0
  2  3  2  0
  2  1  1  0
  4  3  1  0
  5  4  2  0
  6  5  1  0
  7  8  1  1
  7  6  1  0
  9  7  1  0
 10  9  2  0
 11  5  1  0
 11 12  2  0
 12  2  1  0
 13  9  1  0
 14 15  1  6
 14 13  1  0
 16 17  2  0
 16 15  1  0
 18 17  1  0
 19 18  2  0
 20 19  1  0
 20 21  2  0
 21 16  1  0
 22 14  1  0
 23 22  2  0
 25 24  1  0
 26 25  2  0
 27 25  1  0
 28 27  1  6
 28 29  1  0
 29 22  1  0
 30 28  1  0
 30 32  1  0
 31 30  2  0
M  END
$$$$
