YFN.pdb
     RDKit          3D

 32 33  0  0  1  0  0  0  0  0999 V2000
    7.9895  -14.5634   14.1051 O   0  0  0  0  0  0  0  0  0  0  0  0
    8.3595  -14.2850   15.4021 C   0  0  0  0  0  0  0  0  0  0  0  0
    9.6234  -14.5177   15.9012 C   0  0  0  0  0  0  0  0  0  0  0  0
    9.9314  -14.2173   17.2088 C   0  0  0  0  0  0  0  0  0  0  0  0
    8.9861  -13.6771   18.0516 C   0  0  0  0  0  0  0  0  0  0  0  0
    9.3332  -13.3505   19.4852 C   0  0  0  0  0  0  0  0  0  0  0  0
    9.4815  -14.6709   20.2073 C   0  0  2  0  0  0  0  0  0  0  0  0
    8.3316  -15.5073   19.9255 N   0  0  0  0  0  0  0  0  0  0  0  0
    9.6002  -14.5102   21.6641 C   0  0  0  0  0  0  0  0  0  0  0  0
   10.5329  -13.8280   22.1662 O   0  0  0  0  0  0  0  0  0  0  0  0
    7.7253  -13.4427   17.5609 C   0  0  0  0  0  0  0  0  0  0  0  0
    7.4187  -13.7432   16.2545 C   0  0  0  0  0  0  0  0  0  0  0  0
    8.6952  -15.0972   22.5940 N   0  0  0  0  0  0  0  0  0  0  0  0
    8.5520  -14.6082   23.9631 C   0  0  1  0  0  0  0  0  0  0  0  0
    7.1346  -14.1421   24.2136 C   0  0  0  0  0  0  0  0  0  0  0  0
    6.9337  -13.5398   25.5476 C   0  0  0  0  0  0  0  0  0  0  0  0
    7.5408  -12.3231   25.8482 C   0  0  0  0  0  0  0  0  0  0  0  0
    7.3810  -11.7302   27.0827 C   0  0  0  0  0  0  0  0  0  0  0  0
    6.6161  -12.3156   28.0674 C   0  0  0  0  0  0  0  0  0  0  0  0
    6.0101  -13.5195   27.7830 C   0  0  0  0  0  0  0  0  0  0  0  0
    6.1751  -14.1118   26.5369 C   0  0  0  0  0  0  0  0  0  0  0  0
    9.0602  -15.5661   24.9646 C   0  0  0  0  0  0  0  0  0  0  0  0
    9.8791  -15.0882   25.8227 O   0  0  0  0  0  0  0  0  0  0  0  0
   11.8015  -18.8024   23.1564 N   0  0  0  0  0  0  0  0  0  0  0  0
   11.6900  -18.7768   24.5702 C   0  0  0  0  0  0  0  0  0  0  0  0
   12.1607  -19.7451   25.1920 O   0  0  0  0  0  0  0  0  0  0  0  0
   11.0472  -17.6605   25.3009 C   0  0  0  0  0  0  0  0  0  0  0  0
    9.5910  -17.9578   25.5960 C   0  0  2  0  0  0  0  0  0  0  0  0
    8.7318  -16.9216   25.0619 N   0  0  0  0  0  0  0  0  0  0  0  0
    9.5035  -18.0931   27.0686 C   0  0  0  0  0  0  0  0  0  0  0  0
    8.7542  -17.3373   27.7040 O   0  0  0  0  0  0  0  0  0  0  0  0
   10.2452  -19.0466   27.7231 O   0  0  0  0  0  0  0  0  0  0  0  0
  2  3  2  0
  2  1  1  0
  4  3  1  0
  5  4  2  0
  6  5  1  0
  7  8  1  1
  7  6  1  0
  9  7  1  0
 10  9  2  0
 11  5  1  0
 11 12  2  0
 12  2  1  0
 13  9  1  0
 14 15  1  1
 14 13  1  0
 16 17  2  0
 16 15  1  0
 18 17  1  0
 19 18  2  0
 20 19  1  0
 20 21  2  0
 21 16  1  0
 22 14  1  0
 23 22  2  0
 25 24  1  0
 26 25  2  0
 27 25  1  0
 28 27  1  1
 28 29  1  0
 29 22  1  0
 30 28  1  0
 30 32  1  0
 31 30  2  0
M  END
$$$$
