YFN.pdb
     RDKit          3D

 32 33  0  0  1  0  0  0  0  0999 V2000
    6.8650  -12.5086   17.5269 O   0  0  0  0  0  0  0  0  0  0  0  0
    7.9040  -13.1872   18.1238 C   0  0  0  0  0  0  0  0  0  0  0  0
    8.7509  -12.6210   19.0528 C   0  0  0  0  0  0  0  0  0  0  0  0
    9.7726  -13.3530   19.6141 C   0  0  0  0  0  0  0  0  0  0  0  0
    9.9753  -14.6688   19.2627 C   0  0  0  0  0  0  0  0  0  0  0  0
   11.0992  -15.4645   19.8839 C   0  0  0  0  0  0  0  0  0  0  0  0
   10.4636  -16.4095   20.8787 C   0  0  2  0  0  0  0  0  0  0  0  0
    9.2188  -16.9166   20.3357 N   0  0  0  0  0  0  0  0  0  0  0  0
   10.1853  -15.7680   22.1723 C   0  0  0  0  0  0  0  0  0  0  0  0
   11.1041  -15.2087   22.8283 O   0  0  0  0  0  0  0  0  0  0  0  0
    9.1356  -15.2390   18.3380 C   0  0  0  0  0  0  0  0  0  0  0  0
    8.1152  -14.5066   17.7779 C   0  0  0  0  0  0  0  0  0  0  0  0
    8.8917  -15.7307   22.7668 N   0  0  0  0  0  0  0  0  0  0  0  0
    8.6145  -14.9875   23.9935 C   0  0  1  0  0  0  0  0  0  0  0  0
    7.2561  -14.3258   23.9165 C   0  0  0  0  0  0  0  0  0  0  0  0
    6.9308  -13.4969   25.0955 C   0  0  0  0  0  0  0  0  0  0  0  0
    6.1175  -14.0203   26.0974 C   0  0  0  0  0  0  0  0  0  0  0  0
    5.7878  -13.2776   27.2113 C   0  0  0  0  0  0  0  0  0  0  0  0
    6.2482  -11.9902   27.3786 C   0  0  0  0  0  0  0  0  0  0  0  0
    7.0536  -11.4605   26.3948 C   0  0  0  0  0  0  0  0  0  0  0  0
    7.3822  -12.2141   25.2745 C   0  0  0  0  0  0  0  0  0  0  0  0
    8.8249  -15.7984   25.2089 C   0  0  0  0  0  0  0  0  0  0  0  0
    8.6163  -15.1980   26.3185 O   0  0  0  0  0  0  0  0  0  0  0  0
   10.6730  -19.0293   24.1950 N   0  0  0  0  0  0  0  0  0  0  0  0
    9.8385  -19.8537   24.9927 C   0  0  0  0  0  0  0  0  0  0  0  0
    9.6570  -21.0201   24.6024 O   0  0  0  0  0  0  0  0  0  0  0  0
    9.1985  -19.3745   26.2392 C   0  0  0  0  0  0  0  0  0  0  0  0
    9.4623  -17.8997   26.4654 C   0  0  2  0  0  0  0  0  0  0  0  0
    9.2204  -17.1386   25.2574 N   0  0  0  0  0  0  0  0  0  0  0  0
   10.8618  -17.8149   26.9436 C   0  0  0  0  0  0  0  0  0  0  0  0
   11.1750  -18.3717   28.0058 O   0  0  0  0  0  0  0  0  0  0  0  0
   11.8028  -17.1261   26.2171 O   0  0  0  0  0  0  0  0  0  0  0  0
  2  3  2  0
  2  1  1  0
  4  3  1  0
  5  4  2  0
  6  5  1  0
  7  8  1  6
  7  6  1  0
  9  7  1  0
 10  9  2  0
 11  5  1  0
 11 12  2  0
 12  2  1  0
 13  9  1  0
 14 15  1  6
 14 13  1  0
 16 17  2  0
 16 15  1  0
 18 17  1  0
 19 18  2  0
 20 19  1  0
 20 21  2  0
 21 16  1  0
 22 14  1  0
 23 22  2  0
 25 24  1  0
 26 25  2  0
 27 25  1  0
 28 27  1  6
 28 29  1  0
 29 22  1  0
 30 28  1  0
 30 32  1  0
 31 30  2  0
M  END
$$$$
