YFN.pdb
     RDKit          3D

 32 33  0  0  1  0  0  0  0  0999 V2000
    8.1037  -14.0188   14.6604 O   0  0  0  0  0  0  0  0  0  0  0  0
    8.1098  -14.4531   15.9672 C   0  0  0  0  0  0  0  0  0  0  0  0
    8.1540  -13.6045   17.0527 C   0  0  0  0  0  0  0  0  0  0  0  0
    8.1577  -14.1012   18.3366 C   0  0  0  0  0  0  0  0  0  0  0  0
    8.1174  -15.4576   18.5697 C   0  0  0  0  0  0  0  0  0  0  0  0
    8.1217  -15.9938   19.9821 C   0  0  0  0  0  0  0  0  0  0  0  0
    9.4034  -15.5133   20.6248 C   0  0  2  0  0  0  0  0  0  0  0  0
   10.4512  -16.4899   20.4017 N   0  0  0  0  0  0  0  0  0  0  0  0
    9.2648  -15.2950   22.0723 C   0  0  0  0  0  0  0  0  0  0  0  0
    9.9392  -15.9688   22.8960 O   0  0  0  0  0  0  0  0  0  0  0  0
    8.0732  -16.3086   17.4931 C   0  0  0  0  0  0  0  0  0  0  0  0
    8.0695  -15.8111   16.2110 C   0  0  0  0  0  0  0  0  0  0  0  0
    8.3820  -14.3318   22.6390 N   0  0  0  0  0  0  0  0  0  0  0  0
    8.3151  -14.0806   24.0765 C   0  0  1  0  0  0  0  0  0  0  0  0
    7.2977  -13.0025   24.3791 C   0  0  0  0  0  0  0  0  0  0  0  0
    7.1399  -12.7216   25.8210 C   0  0  0  0  0  0  0  0  0  0  0  0
    5.8999  -12.9145   26.4247 C   0  0  0  0  0  0  0  0  0  0  0  0
    5.7109  -12.6603   27.7666 C   0  0  0  0  0  0  0  0  0  0  0  0
    6.7384  -12.2061   28.5636 C   0  0  0  0  0  0  0  0  0  0  0  0
    7.9702  -12.0109   27.9788 C   0  0  0  0  0  0  0  0  0  0  0  0
    8.1542  -12.2689   26.6259 C   0  0  0  0  0  0  0  0  0  0  0  0
    8.1380  -15.3178   24.8619 C   0  0  0  0  0  0  0  0  0  0  0  0
    8.5162  -15.2584   26.0821 O   0  0  0  0  0  0  0  0  0  0  0  0
    6.8623  -20.1020   26.5820 N   0  0  0  0  0  0  0  0  0  0  0  0
    6.5814  -20.0492   25.1926 C   0  0  0  0  0  0  0  0  0  0  0  0
    6.0982  -21.0709   24.6744 O   0  0  0  0  0  0  0  0  0  0  0  0
    6.8412  -18.8454   24.3701 C   0  0  0  0  0  0  0  0  0  0  0  0
    7.3996  -17.7128   25.2074 C   0  0  2  0  0  0  0  0  0  0  0  0
    7.6014  -16.5249   24.4041 N   0  0  0  0  0  0  0  0  0  0  0  0
    8.6494  -18.2384   25.8044 C   0  0  0  0  0  0  0  0  0  0  0  0
    9.6321  -18.4393   25.0761 O   0  0  0  0  0  0  0  0  0  0  0  0
    8.7184  -18.5003   27.1513 O   0  0  0  0  0  0  0  0  0  0  0  0
  2  3  2  0
  2  1  1  0
  4  3  1  0
  5  4  2  0
  6  5  1  0
  7  8  1  1
  7  6  1  0
  9  7  1  0
 10  9  2  0
 11  5  1  0
 11 12  2  0
 12  2  1  0
 13  9  1  0
 14 15  1  6
 14 13  1  0
 16 17  2  0
 16 15  1  0
 18 17  1  0
 19 18  2  0
 20 19  1  0
 20 21  2  0
 21 16  1  0
 22 14  1  0
 23 22  2  0
 25 24  1  0
 26 25  2  0
 27 25  1  0
 28 27  1  6
 28 29  1  0
 29 22  1  0
 30 28  1  0
 30 32  1  0
 31 30  2  0
M  END
$$$$
