YFN.pdb
     RDKit          3D

 32 33  0  0  1  0  0  0  0  0999 V2000
    7.3809  -15.0613   14.2807 O   0  0  0  0  0  0  0  0  0  0  0  0
    7.9032  -14.8464   15.5367 C   0  0  0  0  0  0  0  0  0  0  0  0
    8.4674  -15.8399   16.3082 C   0  0  0  0  0  0  0  0  0  0  0  0
    8.9730  -15.5608   17.5579 C   0  0  0  0  0  0  0  0  0  0  0  0
    8.9283  -14.2833   18.0693 C   0  0  0  0  0  0  0  0  0  0  0  0
    9.4856  -13.9862   19.4418 C   0  0  0  0  0  0  0  0  0  0  0  0
    9.4879  -15.2938   20.2014 C   0  0  2  0  0  0  0  0  0  0  0  0
    8.2810  -16.0345   19.8914 N   0  0  0  0  0  0  0  0  0  0  0  0
    9.5615  -15.1034   21.6576 C   0  0  0  0  0  0  0  0  0  0  0  0
   10.6323  -14.7329   22.2086 O   0  0  0  0  0  0  0  0  0  0  0  0
    8.3677  -13.2890   17.3062 C   0  0  0  0  0  0  0  0  0  0  0  0
    7.8630  -13.5689   16.0579 C   0  0  0  0  0  0  0  0  0  0  0  0
    8.4588  -15.3172   22.5331 N   0  0  0  0  0  0  0  0  0  0  0  0
    8.4153  -14.7692   23.8866 C   0  0  1  0  0  0  0  0  0  0  0  0
    7.2448  -13.8225   24.0374 C   0  0  0  0  0  0  0  0  0  0  0  0
    7.1789  -13.1643   25.3585 C   0  0  0  0  0  0  0  0  0  0  0  0
    8.0918  -12.1597   25.6695 C   0  0  0  0  0  0  0  0  0  0  0  0
    8.0657  -11.5237   26.8926 C   0  0  0  0  0  0  0  0  0  0  0  0
    7.1378  -11.8551   27.8552 C   0  0  0  0  0  0  0  0  0  0  0  0
    6.2291  -12.8474   27.5602 C   0  0  0  0  0  0  0  0  0  0  0  0
    6.2606  -13.4845   26.3258 C   0  0  0  0  0  0  0  0  0  0  0  0
    8.4858  -15.8153   24.9257 C   0  0  0  0  0  0  0  0  0  0  0  0
    8.5011  -15.3962   26.1337 O   0  0  0  0  0  0  0  0  0  0  0  0
   11.8877  -19.9773   25.0202 N   0  0  0  0  0  0  0  0  0  0  0  0
   12.0153  -18.5930   24.7380 C   0  0  0  0  0  0  0  0  0  0  0  0
   13.1445  -18.0905   24.8726 O   0  0  0  0  0  0  0  0  0  0  0  0
   10.8729  -17.7581   24.3009 C   0  0  0  0  0  0  0  0  0  0  0  0
    9.6229  -18.0686   25.0990 C   0  0  2  0  0  0  0  0  0  0  0  0
    8.5325  -17.1966   24.7146 N   0  0  0  0  0  0  0  0  0  0  0  0
   10.0142  -17.9291   26.5210 C   0  0  0  0  0  0  0  0  0  0  0  0
   10.1074  -18.9436   27.2271 O   0  0  0  0  0  0  0  0  0  0  0  0
   10.2711  -16.6881   27.0514 O   0  0  0  0  0  0  0  0  0  0  0  0
  2  3  2  0
  2  1  1  0
  4  3  1  0
  5  4  2  0
  6  5  1  0
  7  8  1  1
  7  6  1  0
  9  7  1  0
 10  9  2  0
 11  5  1  0
 11 12  2  0
 12  2  1  0
 13  9  1  0
 14 15  1  6
 14 13  1  0
 16 17  2  0
 16 15  1  0
 18 17  1  0
 19 18  2  0
 20 19  1  0
 20 21  2  0
 21 16  1  0
 22 14  1  0
 23 22  2  0
 25 24  1  0
 26 25  2  0
 27 25  1  0
 28 27  1  6
 28 29  1  0
 29 22  1  0
 30 28  1  0
 30 32  1  0
 31 30  2  0
M  END
$$$$
