YFN.pdb
     RDKit          3D

 32 33  0  0  1  0  0  0  0  0999 V2000
    6.0846  -22.5270   29.2757 O   0  0  0  0  0  0  0  0  0  0  0  0
    6.5465  -21.6499   28.3198 C   0  0  0  0  0  0  0  0  0  0  0  0
    7.4167  -22.0086   27.3125 C   0  0  0  0  0  0  0  0  0  0  0  0
    7.8423  -21.0839   26.3857 C   0  0  0  0  0  0  0  0  0  0  0  0
    7.4102  -19.7777   26.4407 C   0  0  0  0  0  0  0  0  0  0  0  0
    7.8825  -18.7696   25.4193 C   0  0  0  0  0  0  0  0  0  0  0  0
    6.7814  -18.6461   24.3903 C   0  0  2  0  0  0  0  0  0  0  0  0
    6.6444  -19.9003   23.6764 N   0  0  0  0  0  0  0  0  0  0  0  0
    7.0344  -17.5752   23.4148 C   0  0  0  0  0  0  0  0  0  0  0  0
    7.4929  -17.8369   22.2708 O   0  0  0  0  0  0  0  0  0  0  0  0
    6.5434  -19.4137   27.4414 C   0  0  0  0  0  0  0  0  0  0  0  0
    6.1190  -20.3383   28.3666 C   0  0  0  0  0  0  0  0  0  0  0  0
    6.7876  -16.1980   23.6806 N   0  0  0  0  0  0  0  0  0  0  0  0
    7.6656  -15.1367   23.1941 C   0  0  1  0  0  0  0  0  0  0  0  0
    6.9997  -13.7867   23.3468 C   0  0  0  0  0  0  0  0  0  0  0  0
    6.7679  -13.3935   24.7520 C   0  0  0  0  0  0  0  0  0  0  0  0
    5.5764  -13.7538   25.3763 C   0  0  0  0  0  0  0  0  0  0  0  0
    5.3205  -13.4029   26.6849 C   0  0  0  0  0  0  0  0  0  0  0  0
    6.2309  -12.6831   27.4270 C   0  0  0  0  0  0  0  0  0  0  0  0
    7.4135  -12.3204   26.8212 C   0  0  0  0  0  0  0  0  0  0  0  0
    7.6654  -12.6771   25.5020 C   0  0  0  0  0  0  0  0  0  0  0  0
    9.0218  -15.2116   23.7719 C   0  0  0  0  0  0  0  0  0  0  0  0
    9.8731  -14.3841   23.2967 O   0  0  0  0  0  0  0  0  0  0  0  0
   12.4009  -15.1427   28.2549 N   0  0  0  0  0  0  0  0  0  0  0  0
   11.8072  -16.2989   27.6865 C   0  0  0  0  0  0  0  0  0  0  0  0
   12.4230  -17.3714   27.8141 O   0  0  0  0  0  0  0  0  0  0  0  0
   10.5130  -16.2611   26.9677 C   0  0  0  0  0  0  0  0  0  0  0  0
   10.7081  -15.9902   25.4898 C   0  0  2  0  0  0  0  0  0  0  0  0
    9.4523  -16.0854   24.7751 N   0  0  0  0  0  0  0  0  0  0  0  0
   11.7193  -16.9729   25.0355 C   0  0  0  0  0  0  0  0  0  0  0  0
   12.8914  -16.8607   25.4228 O   0  0  0  0  0  0  0  0  0  0  0  0
   11.3614  -17.9980   24.1937 O   0  0  0  0  0  0  0  0  0  0  0  0
  2  3  2  0
  2  1  1  0
  4  3  1  0
  5  4  2  0
  6  5  1  0
  7  8  1  6
  7  6  1  0
  9  7  1  0
 10  9  2  0
 11  5  1  0
 11 12  2  0
 12  2  1  0
 13  9  1  0
 14 15  1  1
 14 13  1  0
 16 17  2  0
 16 15  1  0
 18 17  1  0
 19 18  2  0
 20 19  1  0
 20 21  2  0
 21 16  1  0
 22 14  1  0
 23 22  2  0
 25 24  1  0
 26 25  2  0
 27 25  1  0
 28 27  1  1
 28 29  1  0
 29 22  1  0
 30 28  1  0
 30 32  1  0
 31 30  2  0
M  END
$$$$
