YFN.pdb
     RDKit          3D

 32 33  0  0  1  0  0  0  0  0999 V2000
    9.4457  -21.6174   16.8195 O   0  0  0  0  0  0  0  0  0  0  0  0
    9.7015  -20.8501   17.9340 C   0  0  0  0  0  0  0  0  0  0  0  0
   10.9511  -20.3642   18.2549 C   0  0  0  0  0  0  0  0  0  0  0  0
   11.1424  -19.6015   19.3849 C   0  0  0  0  0  0  0  0  0  0  0  0
   10.0915  -19.3045   20.2234 C   0  0  0  0  0  0  0  0  0  0  0  0
   10.3107  -18.4667   21.4613 C   0  0  0  0  0  0  0  0  0  0  0  0
   10.1903  -17.0212   21.0340 C   0  0  2  0  0  0  0  0  0  0  0  0
   11.3766  -16.6354   20.2956 N   0  0  0  0  0  0  0  0  0  0  0  0
   10.0266  -16.1051   22.1726 C   0  0  0  0  0  0  0  0  0  0  0  0
   11.0256  -15.5617   22.7148 O   0  0  0  0  0  0  0  0  0  0  0  0
    8.8442  -19.7852   19.9097 C   0  0  0  0  0  0  0  0  0  0  0  0
    8.6543  -20.5470   18.7806 C   0  0  0  0  0  0  0  0  0  0  0  0
    8.7614  -15.7708   22.7344 N   0  0  0  0  0  0  0  0  0  0  0  0
    8.6272  -14.9021   23.9012 C   0  0  1  0  0  0  0  0  0  0  0  0
    7.2630  -14.2482   23.9207 C   0  0  0  0  0  0  0  0  0  0  0  0
    7.0355  -13.3823   25.0960 C   0  0  0  0  0  0  0  0  0  0  0  0
    7.6749  -12.1475   25.1712 C   0  0  0  0  0  0  0  0  0  0  0  0
    7.4917  -11.3123   26.2527 C   0  0  0  0  0  0  0  0  0  0  0  0
    6.6704  -11.6639   27.3012 C   0  0  0  0  0  0  0  0  0  0  0  0
    6.0319  -12.8829   27.2393 C   0  0  0  0  0  0  0  0  0  0  0  0
    6.2208  -13.7201   26.1465 C   0  0  0  0  0  0  0  0  0  0  0  0
    8.9911  -15.5814   25.1602 C   0  0  0  0  0  0  0  0  0  0  0  0
    9.0898  -14.8272   26.1882 O   0  0  0  0  0  0  0  0  0  0  0  0
    6.8579  -19.2581   25.2268 N   0  0  0  0  0  0  0  0  0  0  0  0
    7.5258  -19.0928   26.4672 C   0  0  0  0  0  0  0  0  0  0  0  0
    6.8155  -18.9959   27.4831 O   0  0  0  0  0  0  0  0  0  0  0  0
    9.0013  -19.0347   26.5786 C   0  0  0  0  0  0  0  0  0  0  0  0
    9.4996  -17.6038   26.5926 C   0  0  2  0  0  0  0  0  0  0  0  0
    9.2297  -16.9486   25.3297 N   0  0  0  0  0  0  0  0  0  0  0  0
   10.9431  -17.6886   26.9144 C   0  0  0  0  0  0  0  0  0  0  0  0
   11.7716  -17.2358   26.1112 O   0  0  0  0  0  0  0  0  0  0  0  0
   11.3592  -18.2632   28.0910 O   0  0  0  0  0  0  0  0  0  0  0  0
  2  3  2  0
  2  1  1  0
  4  3  1  0
  5  4  2  0
  6  5  1  0
  7  8  1  1
  7  6  1  0
  9  7  1  0
 10  9  2  0
 11  5  1  0
 11 12  2  0
 12  2  1  0
 13  9  1  0
 14 15  1  1
 14 13  1  0
 16 17  2  0
 16 15  1  0
 18 17  1  0
 19 18  2  0
 20 19  1  0
 20 21  2  0
 21 16  1  0
 22 14  1  0
 23 22  2  0
 25 24  1  0
 26 25  2  0
 27 25  1  0
 28 27  1  6
 28 29  1  0
 29 22  1  0
 30 28  1  0
 30 32  1  0
 31 30  2  0
M  END
$$$$
