RNM.pdb
     RDKit          3D

 28 27  0  0  1  0  0  0  0  0999 V2000
   26.5796  -19.9031  -20.4660 N   0  0  0  0  0  0  0  0  0  0  0  0
   25.6028  -20.8888  -20.1868 C   0  0  0  0  0  0  0  0  0  0  0  0
   25.6012  -21.9831  -20.8540 N   0  0  0  0  0  0  0  0  0  0  0  0
   24.6527  -20.6267  -19.1690 N   0  0  0  0  0  0  0  0  0  0  0  0
   24.5949  -19.3501  -18.4940 C   0  0  0  0  0  0  0  0  0  0  0  0
   25.9559  -18.8519  -18.1112 C   0  0  0  0  0  0  0  0  0  0  0  0
   26.0534  -18.4683  -16.6666 C   0  0  0  0  0  0  0  0  0  0  0  0
   26.8905  -19.4462  -15.9124 C   0  0  2  0  0  0  0  0  0  0  0  0
   27.5865  -20.2942  -16.8349 N   0  0  0  0  0  0  0  0  0  0  0  0
   26.1096  -20.2173  -14.9082 C   0  0  0  0  0  0  0  0  0  0  0  0
   25.6790  -21.3718  -15.1560 O   0  0  0  0  0  0  0  0  0  0  0  0
   24.8949  -22.7173  -20.7582 N   0  0  0  0  0  0  0  0  0  0  0  0
   25.2861  -22.1008   -9.8418 C   0  0  0  0  0  0  0  0  0  0  0  0
   24.7472  -20.8624  -10.2486 O   0  0  0  0  0  0  0  0  0  0  0  0
   23.6826  -20.4875   -9.6851 C   0  0  0  0  0  0  0  0  0  0  0  0
   25.4454  -20.0999  -11.2838 C   0  0  1  0  0  0  0  0  0  0  0  0
   24.9899  -20.4155  -12.6870 N   0  0  0  0  0  0  0  0  0  0  0  0
   25.8022  -19.7059  -13.6177 C   0  0  0  0  0  0  0  0  0  0  0  0
   23.5582  -20.2353  -12.8351 O   0  0  0  0  0  0  0  0  0  0  0  0
   23.0180  -19.1220  -13.0077 C   0  0  0  0  0  0  0  0  0  0  0  0
   18.6246  -25.2421  -12.5256 S   0  0  0  0  0  0  0  0  0  0  0  0
   18.3425  -24.0044  -13.7853 C   0  0  0  0  0  0  0  0  0  0  0  0
   19.1482  -22.4408  -13.4711 C   0  0  0  0  0  0  0  0  0  0  0  0
   20.6403  -22.5441  -13.3196 C   0  0  1  0  0  0  0  0  0  0  0  0
   21.2844  -21.2250  -12.9480 N   0  0  0  0  0  0  0  0  0  0  0  0
   22.7120  -21.3697  -12.7838 C   0  0  0  0  0  0  0  0  0  0  0  0
   20.7096  -20.8063  -11.6553 O   0  0  0  0  0  0  0  0  0  0  0  0
   19.6793  -19.8900  -11.5756 O   0  0  0  0  0  0  0  0  0  0  0  0
  1  2  1  0
  2  4  1  0
  3  2  2  0
  4  5  1  0
  5  6  1  0
  6  7  1  0
  8 10  1  0
  8  9  1  6
  8  7  1  0
 10 11  2  0
 13 12  1  0
 13 15  1  0
 14 13  2  0
 16 15  1  6
 16 18  1  0
 17 16  1  0
 17 10  1  0
 18 19  2  0
 18 25  1  0
 20 21  1  0
 21 22  1  0
 22 23  1  0
 24 23  1  6
 24 26  1  0
 25 24  1  0
 26 28  2  0
 26 27  1  0
M  END
$$$$
