RNM.pdb
     RDKit          3D

 28 27  0  0  1  0  0  0  0  0999 V2000
   18.9297  -14.9562  -18.3687 N   0  0  0  0  0  0  0  0  0  0  0  0
   17.8146  -14.1436  -18.6846 C   0  0  0  0  0  0  0  0  0  0  0  0
   16.6825  -14.6923  -18.9297 N   0  0  0  0  0  0  0  0  0  0  0  0
   17.9927  -12.7385  -18.7186 N   0  0  0  0  0  0  0  0  0  0  0  0
   19.0612  -12.0902  -17.9928 C   0  0  0  0  0  0  0  0  0  0  0  0
   19.1759  -12.5957  -16.5863 C   0  0  0  0  0  0  0  0  0  0  0  0
   20.1936  -11.8508  -15.7782 C   0  0  0  0  0  0  0  0  0  0  0  0
   21.3225  -11.3912  -16.6385 C   0  0  2  0  0  0  0  0  0  0  0  0
   22.4103  -12.3194  -16.5394 N   0  0  0  0  0  0  0  0  0  0  0  0
   21.7380   -9.9937  -16.3437 C   0  0  0  0  0  0  0  0  0  0  0  0
   21.8662   -9.5813  -15.1634 O   0  0  0  0  0  0  0  0  0  0  0  0
   15.8197  -14.1766  -19.1212 N   0  0  0  0  0  0  0  0  0  0  0  0
   24.8587   -6.8141  -19.3294 C   0  0  0  0  0  0  0  0  0  0  0  0
   23.6409   -7.5158  -19.2095 O   0  0  0  0  0  0  0  0  0  0  0  0
   23.5411   -8.6029  -19.8417 C   0  0  0  0  0  0  0  0  0  0  0  0
   22.5841   -6.9483  -18.3720 C   0  0  2  0  0  0  0  0  0  0  0  0
   22.3639   -7.6925  -17.0783 N   0  0  0  0  0  0  0  0  0  0  0  0
   22.0142   -9.0435  -17.3647 C   0  0  0  0  0  0  0  0  0  0  0  0
   21.4548   -6.9789  -16.2018 O   0  0  0  0  0  0  0  0  0  0  0  0
   20.2137   -7.1190  -16.2346 C   0  0  0  0  0  0  0  0  0  0  0  0
   19.2079   -5.1834   -9.1693 S   0  0  0  0  0  0  0  0  0  0  0  0
   20.2808   -6.0009  -10.3434 C   0  0  0  0  0  0  0  0  0  0  0  0
   20.2694   -5.2756  -11.9765 C   0  0  0  0  0  0  0  0  0  0  0  0
   21.0588   -6.0522  -12.9932 C   0  0  1  0  0  0  0  0  0  0  0  0
   21.1066   -5.3695  -14.3441 N   0  0  0  0  0  0  0  0  0  0  0  0
   21.9835   -6.0711  -15.2522 C   0  0  0  0  0  0  0  0  0  0  0  0
   21.6491   -4.0143  -14.1303 O   0  0  0  0  0  0  0  0  0  0  0  0
   22.9454   -3.6831  -14.4728 O   0  0  0  0  0  0  0  0  0  0  0  0
  1  2  1  0
  2  4  1  0
  3  2  2  0
  4  5  1  0
  5  6  1  0
  6  7  1  0
  8 10  1  0
  8  9  1  1
  8  7  1  0
 10 11  2  0
 13 12  1  0
 13 15  1  0
 14 13  2  0
 16 15  1  1
 16 18  1  0
 17 16  1  0
 17 10  1  0
 18 19  2  0
 18 25  1  0
 20 21  1  0
 21 22  1  0
 22 23  1  0
 24 23  1  6
 24 26  1  0
 25 24  1  0
 26 28  2  0
 26 27  1  0
M  END
$$$$
