RNM.pdb
     RDKit          3D

 28 27  0  0  1  0  0  0  0  0999 V2000
   21.7565  -16.5204  -14.2057 N   0  0  0  0  0  0  0  0  0  0  0  0
   20.3803  -16.4061  -14.5170 C   0  0  0  0  0  0  0  0  0  0  0  0
   19.5187  -16.3756  -13.5686 N   0  0  0  0  0  0  0  0  0  0  0  0
   20.0019  -16.3289  -15.8801 N   0  0  0  0  0  0  0  0  0  0  0  0
   20.9781  -16.3886  -16.9442 C   0  0  0  0  0  0  0  0  0  0  0  0
   21.3633  -17.7982  -17.2782 C   0  0  0  0  0  0  0  0  0  0  0  0
   22.4166  -17.8808  -18.3400 C   0  0  0  0  0  0  0  0  0  0  0  0
   22.7035  -19.3013  -18.6946 C   0  0  2  0  0  0  0  0  0  0  0  0
   21.4846  -19.9598  -19.0624 N   0  0  0  0  0  0  0  0  0  0  0  0
   23.4401  -20.0238  -17.6231 C   0  0  0  0  0  0  0  0  0  0  0  0
   22.8415  -20.7439  -16.7849 O   0  0  0  0  0  0  0  0  0  0  0  0
   18.5070  -16.3132  -13.7087 N   0  0  0  0  0  0  0  0  0  0  0  0
   27.1124  -22.4159  -15.0304 C   0  0  0  0  0  0  0  0  0  0  0  0
   27.8013  -21.5641  -15.9190 O   0  0  0  0  0  0  0  0  0  0  0  0
   29.0606  -21.6390  -15.9247 C   0  0  0  0  0  0  0  0  0  0  0  0
   27.0248  -20.6594  -16.7669 C   0  0  2  0  0  0  0  0  0  0  0  0
   25.5522  -20.6293  -16.4403 N   0  0  0  0  0  0  0  0  0  0  0  0
   24.8524  -19.9487  -17.4779 C   0  0  0  0  0  0  0  0  0  0  0  0
   25.3151  -20.1407  -15.0952 O   0  0  0  0  0  0  0  0  0  0  0  0
   25.4611  -18.9459  -14.7604 C   0  0  0  0  0  0  0  0  0  0  0  0
   20.6945  -19.8007   -8.9692 S   0  0  0  0  0  0  0  0  0  0  0  0
   21.1562  -20.5696  -10.5164 C   0  0  0  0  0  0  0  0  0  0  0  0
   22.8420  -20.2546  -11.0181 C   0  0  0  0  0  0  0  0  0  0  0  0
   23.1588  -20.7169  -12.4131 C   0  0  1  0  0  0  0  0  0  0  0  0
   24.6292  -20.5913  -12.7524 N   0  0  0  0  0  0  0  0  0  0  0  0
   24.8957  -21.0515  -14.0952 C   0  0  0  0  0  0  0  0  0  0  0  0
   25.3703  -21.4531  -11.8117 O   0  0  0  0  0  0  0  0  0  0  0  0
   25.7773  -21.0016  -10.5716 O   0  0  0  0  0  0  0  0  0  0  0  0
  1  2  1  0
  2  4  1  0
  3  2  2  0
  4  5  1  0
  5  6  1  0
  6  7  1  0
  8 10  1  0
  8  9  1  1
  8  7  1  0
 10 11  2  0
 13 12  1  0
 13 15  1  0
 14 13  2  0
 16 15  1  6
 16 18  1  0
 17 16  1  0
 17 10  1  0
 18 19  2  0
 18 25  1  0
 20 21  1  0
 21 22  1  0
 22 23  1  0
 24 23  1  6
 24 26  1  0
 25 24  1  0
 26 28  2  0
 26 27  1  0
M  END
$$$$
