RNM.pdb
     RDKit          3D

 28 27  0  0  1  0  0  0  0  0999 V2000
   31.3839  -23.7084  -17.7868 N   0  0  0  0  0  0  0  0  0  0  0  0
   30.8984  -24.0981  -16.5155 C   0  0  0  0  0  0  0  0  0  0  0  0
   31.5729  -24.9282  -15.8093 N   0  0  0  0  0  0  0  0  0  0  0  0
   29.6718  -23.5503  -16.0657 N   0  0  0  0  0  0  0  0  0  0  0  0
   28.9793  -22.5237  -16.8109 C   0  0  0  0  0  0  0  0  0  0  0  0
   28.9193  -21.2263  -16.0626 C   0  0  0  0  0  0  0  0  0  0  0  0
   27.5414  -20.8931  -15.5789 C   0  0  0  0  0  0  0  0  0  0  0  0
   26.6724  -22.1058  -15.5737 C   0  0  2  0  0  0  0  0  0  0  0  0
   26.3933  -22.5021  -16.9227 N   0  0  0  0  0  0  0  0  0  0  0  0
   25.4362  -21.9238  -14.7665 C   0  0  0  0  0  0  0  0  0  0  0  0
   24.3040  -21.8470  -15.3067 O   0  0  0  0  0  0  0  0  0  0  0  0
   31.2607  -25.3120  -14.9136 N   0  0  0  0  0  0  0  0  0  0  0  0
   26.3528  -20.6262  -10.1652 C   0  0  0  0  0  0  0  0  0  0  0  0
   24.9738  -20.8730  -10.3304 O   0  0  0  0  0  0  0  0  0  0  0  0
   24.1769  -20.0760   -9.7638 C   0  0  0  0  0  0  0  0  0  0  0  0
   24.5586  -22.0210  -11.1367 C   0  0  1  0  0  0  0  0  0  0  0  0
   24.2642  -21.6816  -12.5769 N   0  0  0  0  0  0  0  0  0  0  0  0
   25.4533  -21.8257  -13.3482 C   0  0  0  0  0  0  0  0  0  0  0  0
   23.5878  -20.4039  -12.6952 O   0  0  0  0  0  0  0  0  0  0  0  0
   24.1884  -19.3129  -12.7948 C   0  0  0  0  0  0  0  0  0  0  0  0
   22.6157  -20.4257  -18.1771 S   0  0  0  0  0  0  0  0  0  0  0  0
   22.2053  -18.7675  -17.6479 C   0  0  0  0  0  0  0  0  0  0  0  0
   21.4924  -18.6747  -16.0120 C   0  0  0  0  0  0  0  0  0  0  0  0
   22.1520  -19.5785  -15.0080 C   0  0  2  0  0  0  0  0  0  0  0  0
   21.4621  -19.5597  -13.6602 N   0  0  0  0  0  0  0  0  0  0  0  0
   22.1720  -20.3716  -12.6996 C   0  0  0  0  0  0  0  0  0  0  0  0
   20.1169  -20.1354  -13.8493 O   0  0  0  0  0  0  0  0  0  0  0  0
   19.9094  -21.4985  -13.9288 O   0  0  0  0  0  0  0  0  0  0  0  0
  1  2  1  0
  2  4  1  0
  3  2  2  0
  4  5  1  0
  5  6  1  0
  6  7  1  0
  8 10  1  0
  8  9  1  6
  8  7  1  0
 10 11  2  0
 13 12  1  0
 13 15  1  0
 14 13  2  0
 16 15  1  6
 16 18  1  0
 17 16  1  0
 17 10  1  0
 18 19  2  0
 18 25  1  0
 20 21  1  0
 21 22  1  0
 22 23  1  0
 24 23  1  1
 24 26  1  0
 25 24  1  0
 26 28  2  0
 26 27  1  0
M  END
$$$$
