RNM.pdb
     RDKit          3D

 28 27  0  0  1  0  0  0  0  0999 V2000
   17.3874  -18.7961  -12.9237 N   0  0  0  0  0  0  0  0  0  0  0  0
   16.7920  -19.6701  -13.8646 C   0  0  0  0  0  0  0  0  0  0  0  0
   15.5429  -19.5575  -14.1290 N   0  0  0  0  0  0  0  0  0  0  0  0
   17.6074  -20.6478  -14.4863 N   0  0  0  0  0  0  0  0  0  0  0  0
   19.0175  -20.7613  -14.1900 C   0  0  0  0  0  0  0  0  0  0  0  0
   19.8719  -20.4282  -15.3757 C   0  0  0  0  0  0  0  0  0  0  0  0
   20.7787  -19.2607  -15.1338 C   0  0  0  0  0  0  0  0  0  0  0  0
   21.6599  -19.0190  -16.3131 C   0  0  2  0  0  0  0  0  0  0  0  0
   21.1529  -19.7357  -17.4461 N   0  0  0  0  0  0  0  0  0  0  0  0
   23.0884  -19.3282  -16.0364 C   0  0  0  0  0  0  0  0  0  0  0  0
   23.5963  -20.4317  -16.3587 O   0  0  0  0  0  0  0  0  0  0  0  0
   15.0406  -20.1387  -14.8048 N   0  0  0  0  0  0  0  0  0  0  0  0
   28.3969  -18.0028  -15.9894 C   0  0  0  0  0  0  0  0  0  0  0  0
   27.5771  -17.7234  -14.8760 O   0  0  0  0  0  0  0  0  0  0  0  0
   28.1354  -17.6977  -13.7451 C   0  0  0  0  0  0  0  0  0  0  0  0
   26.1509  -17.4840  -15.0978 C   0  0  1  0  0  0  0  0  0  0  0  0
   25.3090  -18.7354  -15.0647 N   0  0  0  0  0  0  0  0  0  0  0  0
   23.9630  -18.4076  -15.3968 C   0  0  0  0  0  0  0  0  0  0  0  0
   25.4916  -19.4673  -13.8257 O   0  0  0  0  0  0  0  0  0  0  0  0
   24.7911  -19.2841  -12.8075 C   0  0  0  0  0  0  0  0  0  0  0  0
   25.2960  -19.3880   -8.3770 S   0  0  0  0  0  0  0  0  0  0  0  0
   26.6606  -20.5310   -8.5489 C   0  0  0  0  0  0  0  0  0  0  0  0
   26.6784  -21.4253  -10.0958 C   0  0  0  0  0  0  0  0  0  0  0  0
   26.6315  -20.5412  -11.3108 C   0  0  1  0  0  0  0  0  0  0  0  0
   26.5958  -21.3259  -12.6055 N   0  0  0  0  0  0  0  0  0  0  0  0
   26.5131  -20.4450  -13.7470 C   0  0  0  0  0  0  0  0  0  0  0  0
   25.3806  -22.1622  -12.5767 O   0  0  0  0  0  0  0  0  0  0  0  0
   25.4328  -23.5196  -12.3279 O   0  0  0  0  0  0  0  0  0  0  0  0
  1  2  1  0
  2  4  1  0
  3  2  2  0
  4  5  1  0
  5  6  1  0
  6  7  1  0
  8 10  1  0
  8  9  1  6
  8  7  1  0
 10 11  2  0
 13 12  1  0
 13 15  1  0
 14 13  2  0
 16 15  1  6
 16 18  1  0
 17 16  1  0
 17 10  1  0
 18 19  2  0
 18 25  1  0
 20 21  1  0
 21 22  1  0
 22 23  1  0
 24 23  1  6
 24 26  1  0
 25 24  1  0
 26 28  2  0
 26 27  1  0
M  END
$$$$
