RNM.pdb
     RDKit          3D

 28 27  0  0  1  0  0  0  0  0999 V2000
   22.5130  -20.7140  -13.7947 N   0  0  0  0  0  0  0  0  0  0  0  0
   21.7799  -19.5115  -13.9373 C   0  0  0  0  0  0  0  0  0  0  0  0
   22.0611  -18.7105  -14.8976 N   0  0  0  0  0  0  0  0  0  0  0  0
   20.7513  -19.2345  -13.0033 N   0  0  0  0  0  0  0  0  0  0  0  0
   20.2766  -20.2367  -12.0764 C   0  0  0  0  0  0  0  0  0  0  0  0
   18.8423  -20.5973  -12.3208 C   0  0  0  0  0  0  0  0  0  0  0  0
   18.2834  -21.5137  -11.2761 C   0  0  0  0  0  0  0  0  0  0  0  0
   18.6931  -22.9251  -11.5329 C   0  0  2  0  0  0  0  0  0  0  0  0
   18.2956  -23.3071  -12.8561 N   0  0  0  0  0  0  0  0  0  0  0  0
   18.1948  -23.8665  -10.4946 C   0  0  0  0  0  0  0  0  0  0  0  0
   17.0251  -23.7863  -10.0418 O   0  0  0  0  0  0  0  0  0  0  0  0
   21.6528  -17.7792  -15.0117 N   0  0  0  0  0  0  0  0  0  0  0  0
   20.7288  -27.8985  -10.9910 C   0  0  0  0  0  0  0  0  0  0  0  0
   19.4496  -27.7187  -10.4241 O   0  0  0  0  0  0  0  0  0  0  0  0
   18.4604  -28.0968  -11.1097 C   0  0  0  0  0  0  0  0  0  0  0  0
   19.3501  -27.1138   -9.0958 C   0  0  2  0  0  0  0  0  0  0  0  0
   18.4826  -25.8804   -9.0496 N   0  0  0  0  0  0  0  0  0  0  0  0
   18.9984  -24.9065   -9.9523 C   0  0  0  0  0  0  0  0  0  0  0  0
   18.2728  -25.4279   -7.6875 O   0  0  0  0  0  0  0  0  0  0  0  0
   19.1341  -24.8098   -7.0263 C   0  0  0  0  0  0  0  0  0  0  0  0
   12.9958  -22.3166   -5.2097 S   0  0  0  0  0  0  0  0  0  0  0  0
   13.3799  -23.5863   -4.0103 C   0  0  0  0  0  0  0  0  0  0  0  0
   15.0140  -24.2884   -4.1828 C   0  0  0  0  0  0  0  0  0  0  0  0
   15.3639  -24.6776   -5.5921 C   0  0  1  0  0  0  0  0  0  0  0  0
   16.7752  -25.2114   -5.7195 N   0  0  0  0  0  0  0  0  0  0  0  0
   17.0324  -25.6916   -7.0571 C   0  0  0  0  0  0  0  0  0  0  0  0
   16.8986  -26.3484   -4.7874 O   0  0  0  0  0  0  0  0  0  0  0  0
   17.2800  -26.1769   -3.4712 O   0  0  0  0  0  0  0  0  0  0  0  0
  1  2  1  0
  2  4  1  0
  3  2  2  0
  4  5  1  0
  5  6  1  0
  6  7  1  0
  8 10  1  0
  8  9  1  6
  8  7  1  0
 10 11  2  0
 13 12  1  0
 13 15  1  0
 14 13  2  0
 16 15  1  6
 16 18  1  0
 17 16  1  0
 17 10  1  0
 18 19  2  0
 18 25  1  0
 20 21  1  0
 21 22  1  0
 22 23  1  0
 24 23  1  6
 24 26  1  0
 25 24  1  0
 26 28  2  0
 26 27  1  0
M  END
$$$$
