AWV.pdb
     RDKit          3D

 27 28  0  0  1  0  0  0  0  0999 V2000
   26.4486  -23.9629  -17.9802 C   0  0  0  0  0  0  0  0  0  0  0  0
   27.3808  -23.2675  -17.0115 C   0  0  2  0  0  0  0  0  0  0  0  0
   28.5414  -24.0708  -16.7130 N   0  0  0  0  0  0  0  0  0  0  0  0
   26.6890  -22.9328  -15.7441 C   0  0  0  0  0  0  0  0  0  0  0  0
   26.2881  -23.7977  -14.9282 O   0  0  0  0  0  0  0  0  0  0  0  0
   26.4594  -21.5751  -15.4170 N   0  0  0  0  0  0  0  0  0  0  0  0
   26.0229  -21.2367  -14.0220 C   0  0  1  0  0  0  0  0  0  0  0  0
   26.9002  -20.1828  -13.5087 C   0  0  0  0  0  0  0  0  0  0  0  0
   27.7201  -20.5201  -12.3223 C   0  0  0  0  0  0  0  0  0  0  0  0
   29.0344  -20.7095  -12.1289 C   0  0  0  0  0  0  0  0  0  0  0  0
   29.2872  -20.9218  -10.8210 N   0  0  0  0  0  0  0  0  0  0  0  0
   28.1522  -20.8785  -10.1141 C   0  0  0  0  0  0  0  0  0  0  0  0
   27.8738  -21.0333   -8.7517 C   0  0  0  0  0  0  0  0  0  0  0  0
   26.5682  -20.9313   -8.3267 C   0  0  0  0  0  0  0  0  0  0  0  0
   25.5636  -20.6814   -9.2310 C   0  0  0  0  0  0  0  0  0  0  0  0
   25.8594  -20.5288  -10.5919 C   0  0  0  0  0  0  0  0  0  0  0  0
   27.1654  -20.6312  -11.0165 C   0  0  0  0  0  0  0  0  0  0  0  0
   24.6037  -20.8484  -14.2949 C   0  0  0  0  0  0  0  0  0  0  0  0
   24.4814  -20.1426  -15.3690 O   0  0  0  0  0  0  0  0  0  0  0  0
   21.8047  -22.7441  -15.4058 C   0  0  0  0  0  0  0  0  0  0  0  0
   21.2148  -21.8052  -14.3521 C   0  0  1  0  0  0  0  0  0  0  0  0
   20.8665  -22.6708  -13.1685 C   0  0  0  0  0  0  0  0  0  0  0  0
   22.1605  -20.6882  -14.0461 C   0  0  2  0  0  0  0  0  0  0  0  0
   23.4623  -21.1264  -13.5722 N   0  0  0  0  0  0  0  0  0  0  0  0
   21.5843  -19.7902  -13.0002 C   0  0  0  0  0  0  0  0  0  0  0  0
   20.4770  -19.0187  -13.2563 O   0  0  0  0  0  0  0  0  0  0  0  0
   22.1091  -19.7386  -11.8841 O   0  0  0  0  0  0  0  0  0  0  0  0
  2  1  1  6
  3  2  1  0
  4  2  1  0
  4  5  2  0
  6  4  1  0
  7  6  1  0
  7  8  1  6
  9  8  1  0
  9 17  1  0
 10 11  1  0
 10  9  2  0
 11 12  1  0
 12 13  1  0
 12 17  2  0
 13 14  2  0
 14 15  1  0
 16 15  2  0
 17 16  1  0
 18  7  1  0
 19 18  2  0
 21 20  1  6
 21 23  1  0
 22 21  1  0
 23 25  1  0
 23 24  1  1
 24 18  1  0
 25 26  1  0
 27 25  2  0
M  END
$$$$
