AWV.pdb
     RDKit          3D

 27 28  0  0  1  0  0  0  0  0999 V2000
   27.6721  -19.4928  -15.2568 C   0  0  0  0  0  0  0  0  0  0  0  0
   28.4799  -20.4060  -14.3600 C   0  0  2  0  0  0  0  0  0  0  0  0
   28.9965  -21.5449  -15.0792 N   0  0  0  0  0  0  0  0  0  0  0  0
   27.6729  -20.8871  -13.2137 C   0  0  0  0  0  0  0  0  0  0  0  0
   27.1177  -22.0120  -13.1851 O   0  0  0  0  0  0  0  0  0  0  0  0
   27.5077  -20.0522  -12.0829 N   0  0  0  0  0  0  0  0  0  0  0  0
   26.7911  -20.6005  -10.8842 C   0  0  1  0  0  0  0  0  0  0  0  0
   27.1804  -19.8103   -9.7146 C   0  0  0  0  0  0  0  0  0  0  0  0
   26.5973  -20.2156   -8.4149 C   0  0  0  0  0  0  0  0  0  0  0  0
   25.4586  -20.8323   -8.0633 C   0  0  0  0  0  0  0  0  0  0  0  0
   25.4355  -21.0446   -6.7314 N   0  0  0  0  0  0  0  0  0  0  0  0
   26.5540  -20.5772   -6.1658 C   0  0  0  0  0  0  0  0  0  0  0  0
   27.0114  -20.5494   -4.8438 C   0  0  0  0  0  0  0  0  0  0  0  0
   28.2374  -19.9818   -4.5787 C   0  0  0  0  0  0  0  0  0  0  0  0
   28.9914  -19.4550   -5.6002 C   0  0  0  0  0  0  0  0  0  0  0  0
   28.5189  -19.4909   -6.9187 C   0  0  0  0  0  0  0  0  0  0  0  0
   27.2924  -20.0585   -7.1831 C   0  0  0  0  0  0  0  0  0  0  0  0
   25.3775  -20.4483  -11.3509 C   0  0  0  0  0  0  0  0  0  0  0  0
   25.1800  -19.3372  -11.9780 O   0  0  0  0  0  0  0  0  0  0  0  0
   21.3650  -21.9770  -13.5233 C   0  0  0  0  0  0  0  0  0  0  0  0
   22.6967  -22.2452  -12.8201 C   0  0  1  0  0  0  0  0  0  0  0  0
   23.6896  -22.5586  -13.9098 C   0  0  0  0  0  0  0  0  0  0  0  0
   23.0783  -21.0932  -11.9466 C   0  0  2  0  0  0  0  0  0  0  0  0
   24.3040  -21.3001  -11.1943 N   0  0  0  0  0  0  0  0  0  0  0  0
   21.9931  -20.8057  -10.9608 C   0  0  0  0  0  0  0  0  0  0  0  0
   20.8135  -20.2204  -11.3517 O   0  0  0  0  0  0  0  0  0  0  0  0
   22.1550  -21.0989   -9.7726 O   0  0  0  0  0  0  0  0  0  0  0  0
  2  1  1  6
  3  2  1  0
  4  2  1  0
  4  5  2  0
  6  4  1  0
  7  6  1  0
  7  8  1  1
  9  8  1  0
  9 17  1  0
 10 11  1  0
 10  9  2  0
 11 12  1  0
 12 13  1  0
 12 17  2  0
 13 14  2  0
 14 15  1  0
 16 15  2  0
 17 16  1  0
 18  7  1  0
 19 18  2  0
 21 20  1  6
 21 23  1  0
 22 21  1  0
 23 25  1  0
 23 24  1  1
 24 18  1  0
 25 26  1  0
 27 25  2  0
M  END
$$$$
