AWV.pdb
     RDKit          3D

 27 28  0  0  1  0  0  0  0  0999 V2000
   27.6668  -18.9727  -14.6855 C   0  0  0  0  0  0  0  0  0  0  0  0
   28.3779  -19.9814  -13.8093 C   0  0  2  0  0  0  0  0  0  0  0  0
   29.1112  -20.9480  -14.5899 N   0  0  0  0  0  0  0  0  0  0  0  0
   27.4243  -20.6979  -12.9294 C   0  0  0  0  0  0  0  0  0  0  0  0
   26.9746  -21.8408  -13.1862 O   0  0  0  0  0  0  0  0  0  0  0  0
   26.9863  -20.0809  -11.7334 N   0  0  0  0  0  0  0  0  0  0  0  0
   26.0743  -20.8482  -10.8220 C   0  0  1  0  0  0  0  0  0  0  0  0
   26.2811  -20.3682   -9.4543 C   0  0  0  0  0  0  0  0  0  0  0  0
   27.5446  -20.7690   -8.7934 C   0  0  0  0  0  0  0  0  0  0  0  0
   28.5903  -21.5192   -9.1732 C   0  0  0  0  0  0  0  0  0  0  0  0
   29.5414  -21.5114   -8.2167 N   0  0  0  0  0  0  0  0  0  0  0  0
   29.1543  -20.7583   -7.1810 C   0  0  0  0  0  0  0  0  0  0  0  0
   29.7608  -20.4319   -5.9631 C   0  0  0  0  0  0  0  0  0  0  0  0
   29.0860  -19.6134   -5.0854 C   0  0  0  0  0  0  0  0  0  0  0  0
   27.8404  -19.1302   -5.4083 C   0  0  0  0  0  0  0  0  0  0  0  0
   27.2471  -19.4664   -6.6321 C   0  0  0  0  0  0  0  0  0  0  0  0
   27.9223  -20.2854   -7.5095 C   0  0  0  0  0  0  0  0  0  0  0  0
   24.7586  -20.5164  -11.4531 C   0  0  0  0  0  0  0  0  0  0  0  0
   24.5969  -19.2467  -11.6223 O   0  0  0  0  0  0  0  0  0  0  0  0
   23.2682  -22.9842  -13.9421 C   0  0  0  0  0  0  0  0  0  0  0  0
   22.6384  -21.5946  -14.0523 C   0  0  1  0  0  0  0  0  0  0  0  0
   21.2469  -21.8074  -14.5908 C   0  0  0  0  0  0  0  0  0  0  0  0
   22.6925  -20.8805  -12.7398 C   0  0  2  0  0  0  0  0  0  0  0  0
   23.7378  -21.3552  -11.8492 N   0  0  0  0  0  0  0  0  0  0  0  0
   21.3927  -21.0212  -12.0167 C   0  0  0  0  0  0  0  0  0  0  0  0
   20.2412  -20.4545  -12.5063 O   0  0  0  0  0  0  0  0  0  0  0  0
   21.3482  -21.6584  -10.9604 O   0  0  0  0  0  0  0  0  0  0  0  0
  2  1  1  6
  3  2  1  0
  4  2  1  0
  4  5  2  0
  6  4  1  0
  7  6  1  0
  7  8  1  1
  9  8  1  0
  9 17  1  0
 10 11  1  0
 10  9  2  0
 11 12  1  0
 12 13  1  0
 12 17  2  0
 13 14  2  0
 14 15  1  0
 16 15  2  0
 17 16  1  0
 18  7  1  0
 19 18  2  0
 21 20  1  1
 21 23  1  0
 22 21  1  0
 23 25  1  0
 23 24  1  1
 24 18  1  0
 25 26  1  0
 27 25  2  0
M  END
$$$$
