AWV.pdb
     RDKit          3D

 27 28  0  0  1  0  0  0  0  0999 V2000
   28.9276  -22.0959  -15.2594 C   0  0  0  0  0  0  0  0  0  0  0  0
   27.6908  -21.2261  -15.1921 C   0  0  2  0  0  0  0  0  0  0  0  0
   28.0240  -19.8266  -15.0838 N   0  0  0  0  0  0  0  0  0  0  0  0
   26.8274  -21.6046  -14.0484 C   0  0  0  0  0  0  0  0  0  0  0  0
   26.3826  -22.7650  -13.8747 O   0  0  0  0  0  0  0  0  0  0  0  0
   26.4751  -20.6237  -13.0910 N   0  0  0  0  0  0  0  0  0  0  0  0
   25.6255  -21.0322  -11.9238 C   0  0  1  0  0  0  0  0  0  0  0  0
   26.0729  -20.2861  -10.7461 C   0  0  0  0  0  0  0  0  0  0  0  0
   27.2920  -20.7836  -10.0680 C   0  0  0  0  0  0  0  0  0  0  0  0
   28.3240  -21.5460  -10.4610 C   0  0  0  0  0  0  0  0  0  0  0  0
   29.2341  -21.6450   -9.4704 N   0  0  0  0  0  0  0  0  0  0  0  0
   28.8327  -20.9532   -8.3981 C   0  0  0  0  0  0  0  0  0  0  0  0
   29.3998  -20.7396   -7.1370 C   0  0  0  0  0  0  0  0  0  0  0  0
   28.7202  -19.9598   -6.2284 C   0  0  0  0  0  0  0  0  0  0  0  0
   27.5078  -19.4050   -6.5630 C   0  0  0  0  0  0  0  0  0  0  0  0
   26.9537  -19.6285   -7.8302 C   0  0  0  0  0  0  0  0  0  0  0  0
   27.6339  -20.4089   -8.7384 C   0  0  0  0  0  0  0  0  0  0  0  0
   24.2761  -20.6774  -12.4647 C   0  0  0  0  0  0  0  0  0  0  0  0
   24.2412  -19.4888  -12.9677 O   0  0  0  0  0  0  0  0  0  0  0  0
   22.6395  -21.4541  -15.4297 C   0  0  0  0  0  0  0  0  0  0  0  0
   21.5358  -21.5981  -14.3805 C   0  0  1  0  0  0  0  0  0  0  0  0
   21.2922  -23.0777  -14.2297 C   0  0  0  0  0  0  0  0  0  0  0  0
   21.9124  -20.8997  -13.1132 C   0  0  2  0  0  0  0  0  0  0  0  0
   23.1141  -21.4203  -12.4839 N   0  0  0  0  0  0  0  0  0  0  0  0
   20.8060  -21.0013  -12.1143 C   0  0  0  0  0  0  0  0  0  0  0  0
   19.5842  -20.4170  -12.3439 O   0  0  0  0  0  0  0  0  0  0  0  0
   20.9887  -21.6218  -11.0628 O   0  0  0  0  0  0  0  0  0  0  0  0
  2  1  1  1
  3  2  1  0
  4  2  1  0
  4  5  2  0
  6  4  1  0
  7  6  1  0
  7  8  1  1
  9  8  1  0
  9 17  1  0
 10 11  1  0
 10  9  2  0
 11 12  1  0
 12 13  1  0
 12 17  2  0
 13 14  2  0
 14 15  1  0
 16 15  2  0
 17 16  1  0
 18  7  1  0
 19 18  2  0
 21 20  1  6
 21 23  1  0
 22 21  1  0
 23 25  1  0
 23 24  1  1
 24 18  1  0
 25 26  1  0
 27 25  2  0
M  END
$$$$
