AWV.pdb
     RDKit          3D

 27 28  0  0  1  0  0  0  0  0999 V2000
   12.5176  -20.1101    2.8879 C   0  0  0  0  0  0  0  0  0  0  0  0
   13.5397  -20.0098    1.7762 C   0  0  2  0  0  0  0  0  0  0  0  0
   13.3736  -21.0573    0.7982 N   0  0  0  0  0  0  0  0  0  0  0  0
   14.9219  -20.0639    2.3085 C   0  0  0  0  0  0  0  0  0  0  0  0
   15.5370  -21.1366    2.5222 O   0  0  0  0  0  0  0  0  0  0  0  0
   15.6020  -18.8566    2.5965 N   0  0  0  0  0  0  0  0  0  0  0  0
   17.0252  -18.9286    3.0658 C   0  0  1  0  0  0  0  0  0  0  0  0
   17.7968  -17.9096    2.3517 C   0  0  0  0  0  0  0  0  0  0  0  0
   18.8462  -18.3974    1.4273 C   0  0  0  0  0  0  0  0  0  0  0  0
   18.8832  -19.3621    0.4953 C   0  0  0  0  0  0  0  0  0  0  0  0
   20.0737  -19.3520   -0.1389 N   0  0  0  0  0  0  0  0  0  0  0  0
   20.8552  -18.3840    0.3527 C   0  0  0  0  0  0  0  0  0  0  0  0
   22.1547  -17.9640    0.0481 C   0  0  0  0  0  0  0  0  0  0  0  0
   22.6931  -16.9113    0.7533 C   0  0  0  0  0  0  0  0  0  0  0  0
   21.9601  -16.2900    1.7363 C   0  0  0  0  0  0  0  0  0  0  0  0
   20.6601  -16.7227    2.0289 C   0  0  0  0  0  0  0  0  0  0  0  0
   20.1222  -17.7760    1.3234 C   0  0  0  0  0  0  0  0  0  0  0  0
   16.8141  -18.7007    4.5297 C   0  0  0  0  0  0  0  0  0  0  0  0
   16.1952  -17.5943    4.7742 O   0  0  0  0  0  0  0  0  0  0  0  0
   18.1373  -20.9961    7.9137 C   0  0  0  0  0  0  0  0  0  0  0  0
   16.8306  -20.2013    7.9428 C   0  0  1  0  0  0  0  0  0  0  0  0
   16.6312  -19.7762    9.3749 C   0  0  0  0  0  0  0  0  0  0  0  0
   16.8721  -19.0737    6.9616 C   0  0  2  0  0  0  0  0  0  0  0  0
   17.1891  -19.4810    5.6034 N   0  0  0  0  0  0  0  0  0  0  0  0
   17.8918  -18.0625    7.3736 C   0  0  0  0  0  0  0  0  0  0  0  0
   17.5590  -17.0073    8.1875 O   0  0  0  0  0  0  0  0  0  0  0  0
   19.0560  -18.1744    6.9785 O   0  0  0  0  0  0  0  0  0  0  0  0
  2  1  1  1
  3  2  1  0
  4  2  1  0
  4  5  2  0
  6  4  1  0
  7  6  1  0
  7  8  1  6
  9  8  1  0
  9 17  1  0
 10 11  1  0
 10  9  2  0
 11 12  1  0
 12 13  1  0
 12 17  2  0
 13 14  2  0
 14 15  1  0
 16 15  2  0
 17 16  1  0
 18  7  1  0
 19 18  2  0
 21 20  1  1
 21 23  1  0
 22 21  1  0
 23 25  1  0
 23 24  1  6
 24 18  1  0
 25 26  1  0
 27 25  2  0
M  END
$$$$
