AWV.pdb
     RDKit          3D

 27 28  0  0  1  0  0  0  0  0999 V2000
   29.2044  -20.7045  -18.8784 C   0  0  0  0  0  0  0  0  0  0  0  0
   28.7002  -21.5054  -17.6973 C   0  0  2  0  0  0  0  0  0  0  0  0
   27.9930  -22.6913  -18.1154 N   0  0  0  0  0  0  0  0  0  0  0  0
   27.8087  -20.6926  -16.8362 C   0  0  0  0  0  0  0  0  0  0  0  0
   28.1552  -19.6031  -16.3191 O   0  0  0  0  0  0  0  0  0  0  0  0
   26.4955  -21.1489  -16.5713 N   0  0  0  0  0  0  0  0  0  0  0  0
   25.5653  -20.2543  -15.8061 C   0  0  1  0  0  0  0  0  0  0  0  0
   24.2597  -20.2744  -16.4685 C   0  0  0  0  0  0  0  0  0  0  0  0
   23.2474  -19.3145  -15.9710 C   0  0  0  0  0  0  0  0  0  0  0  0
   23.2397  -17.9837  -15.7989 C   0  0  0  0  0  0  0  0  0  0  0  0
   22.0230  -17.5743  -15.3849 N   0  0  0  0  0  0  0  0  0  0  0  0
   21.1937  -18.6180  -15.2723 C   0  0  0  0  0  0  0  0  0  0  0  0
   19.8532  -18.7305  -14.8874 C   0  0  0  0  0  0  0  0  0  0  0  0
   19.2707  -19.9779  -14.8727 C   0  0  0  0  0  0  0  0  0  0  0  0
   20.0000  -21.0864  -15.2314 C   0  0  0  0  0  0  0  0  0  0  0  0
   21.3414  -20.9565  -15.6144 C   0  0  0  0  0  0  0  0  0  0  0  0
   21.9236  -19.7086  -15.6287 C   0  0  0  0  0  0  0  0  0  0  0  0
   25.6416  -20.9100  -14.4631 C   0  0  0  0  0  0  0  0  0  0  0  0
   25.6770  -22.1981  -14.5424 O   0  0  0  0  0  0  0  0  0  0  0  0
   28.2078  -20.9276  -11.9324 C   0  0  0  0  0  0  0  0  0  0  0  0
   26.9031  -20.8847  -11.1350 C   0  0  1  0  0  0  0  0  0  0  0  0
   26.8657  -19.5346  -10.4661 C   0  0  0  0  0  0  0  0  0  0  0  0
   25.7308  -21.1717  -12.0176 C   0  0  2  0  0  0  0  0  0  0  0  0
   25.6667  -20.3400  -13.2074 N   0  0  0  0  0  0  0  0  0  0  0  0
   24.4539  -20.9756  -11.2671 C   0  0  0  0  0  0  0  0  0  0  0  0
   23.5721  -19.9801  -11.6111 O   0  0  0  0  0  0  0  0  0  0  0  0
   24.1820  -21.7203  -10.3209 O   0  0  0  0  0  0  0  0  0  0  0  0
  2  1  1  6
  3  2  1  0
  4  2  1  0
  4  5  2  0
  6  4  1  0
  7  6  1  0
  7  8  1  6
  9  8  1  0
  9 17  1  0
 10 11  1  0
 10  9  2  0
 11 12  1  0
 12 13  1  0
 12 17  2  0
 13 14  2  0
 14 15  1  0
 16 15  2  0
 17 16  1  0
 18  7  1  0
 19 18  2  0
 21 20  1  6
 21 23  1  0
 22 21  1  0
 23 25  1  0
 23 24  1  6
 24 18  1  0
 25 26  1  0
 27 25  2  0
M  END
$$$$
