AWV.pdb
     RDKit          3D

 27 28  0  0  1  0  0  0  0  0999 V2000
   29.2389  -21.8527  -14.3386 C   0  0  0  0  0  0  0  0  0  0  0  0
   28.0409  -20.9334  -14.2361 C   0  0  2  0  0  0  0  0  0  0  0  0
   28.4321  -19.5459  -14.1815 N   0  0  0  0  0  0  0  0  0  0  0  0
   27.2202  -21.2488  -13.0429 C   0  0  0  0  0  0  0  0  0  0  0  0
   26.7107  -22.3764  -12.8349 O   0  0  0  0  0  0  0  0  0  0  0  0
   26.9874  -20.2422  -12.0755 N   0  0  0  0  0  0  0  0  0  0  0  0
   26.2273  -20.6025  -10.8332 C   0  0  1  0  0  0  0  0  0  0  0  0
   26.8130  -19.8717   -9.7077 C   0  0  0  0  0  0  0  0  0  0  0  0
   26.4811  -20.3640   -8.3509 C   0  0  0  0  0  0  0  0  0  0  0  0
   25.5980  -21.2585   -7.8811 C   0  0  0  0  0  0  0  0  0  0  0  0
   25.7490  -21.4072   -6.5490 N   0  0  0  0  0  0  0  0  0  0  0  0
   26.7328  -20.6193   -6.1009 C   0  0  0  0  0  0  0  0  0  0  0  0
   27.2738  -20.4035   -4.8287 C   0  0  0  0  0  0  0  0  0  0  0  0
   28.3064  -19.5032   -4.6919 C   0  0  0  0  0  0  0  0  0  0  0  0
   28.7907  -18.8337   -5.7904 C   0  0  0  0  0  0  0  0  0  0  0  0
   28.2379  -19.0613   -7.0574 C   0  0  0  0  0  0  0  0  0  0  0  0
   27.2048  -19.9617   -7.1935 C   0  0  0  0  0  0  0  0  0  0  0  0
   24.8532  -20.1865  -11.2553 C   0  0  0  0  0  0  0  0  0  0  0  0
   24.8375  -19.0212  -11.8108 O   0  0  0  0  0  0  0  0  0  0  0  0
   23.1782  -21.0644  -14.0408 C   0  0  0  0  0  0  0  0  0  0  0  0
   22.0598  -21.1063  -12.9981 C   0  0  1  0  0  0  0  0  0  0  0  0
   21.7567  -22.5646  -12.7679 C   0  0  0  0  0  0  0  0  0  0  0  0
   22.4517  -20.3530  -11.7673 C   0  0  2  0  0  0  0  0  0  0  0  0
   23.6536  -20.8543  -11.1228 N   0  0  0  0  0  0  0  0  0  0  0  0
   21.3520  -20.3982  -10.7570 C   0  0  0  0  0  0  0  0  0  0  0  0
   20.1259  -19.8347  -11.0142 O   0  0  0  0  0  0  0  0  0  0  0  0
   21.5441  -20.9522   -9.6707 O   0  0  0  0  0  0  0  0  0  0  0  0
  2  1  1  1
  3  2  1  0
  4  2  1  0
  4  5  2  0
  6  4  1  0
  7  6  1  0
  7  8  1  1
  9  8  1  0
  9 17  1  0
 10 11  1  0
 10  9  2  0
 11 12  1  0
 12 13  1  0
 12 17  2  0
 13 14  2  0
 14 15  1  0
 16 15  2  0
 17 16  1  0
 18  7  1  0
 19 18  2  0
 21 20  1  6
 21 23  1  0
 22 21  1  0
 23 25  1  0
 23 24  1  1
 24 18  1  0
 25 26  1  0
 27 25  2  0
M  END
$$$$
