ATK.pdb
     RDKit          3D

 22 21  0  0  1  0  0  0  0  0999 V2000
   26.4921  -13.1757  -15.6804 C   0  0  0  0  0  0  0  0  0  0  0  0
   25.2267  -14.0017  -15.5909 C   0  0  2  0  0  0  0  0  0  0  0  0
   25.5186  -15.2893  -16.2185 N   0  0  0  0  0  0  0  0  0  0  0  0
   24.1084  -13.3203  -16.2927 C   0  0  0  0  0  0  0  0  0  0  0  0
   24.0177  -13.4936  -17.5260 O   0  0  0  0  0  0  0  0  0  0  0  0
   20.8126  -14.0065  -16.4738 C   0  0  0  0  0  0  0  0  0  0  0  0
   20.8171  -12.6104  -15.8594 C   0  0  1  0  0  0  0  0  0  0  0  0
   20.4731  -12.7743  -14.5390 O   0  0  0  0  0  0  0  0  0  0  0  0
   22.0458  -11.8369  -16.1383 C   0  0  2  0  0  0  0  0  0  0  0  0
   23.1853  -12.5122  -15.6070 N   0  0  0  0  0  0  0  0  0  0  0  0
   22.0267  -10.4082  -15.7861 C   0  0  0  0  0  0  0  0  0  0  0  0
   22.5248  -10.0274  -14.7084 O   0  0  0  0  0  0  0  0  0  0  0  0
   21.4689   -9.3843  -16.5982 N   0  0  0  0  0  0  0  0  0  0  0  0
   21.4879   -7.9826  -16.2164 C   0  0  1  0  0  0  0  0  0  0  0  0
   20.8790   -7.1786  -17.3241 C   0  0  0  0  0  0  0  0  0  0  0  0
   20.8943   -5.7104  -17.1136 C   0  0  0  0  0  0  0  0  0  0  0  0
   20.3516   -4.9114  -18.2638 C   0  0  0  0  0  0  0  0  0  0  0  0
   20.4684   -3.4144  -18.0210 C   0  0  0  0  0  0  0  0  0  0  0  0
   21.8612   -3.0268  -18.1487 N   0  0  0  0  0  0  0  0  0  0  0  0
   20.8033   -7.7647  -14.9185 C   0  0  0  0  0  0  0  0  0  0  0  0
   19.6022   -8.4005  -14.6328 O   0  0  0  0  0  0  0  0  0  0  0  0
   21.2693   -7.0077  -14.0314 O   0  0  0  0  0  0  0  0  0  0  0  0
  2  1  1  6
  2  3  1  0
  4  2  1  0
  4  5  2  0
  7  9  1  0
  7  6  1  1
  8  7  1  0
  9 10  1  1
  9 11  1  0
 10  4  1  0
 11 13  1  0
 12 11  2  0
 13 14  1  0
 14 15  1  6
 15 16  1  0
 17 16  1  0
 18 19  1  0
 18 17  1  0
 20 14  1  0
 20 21  1  0
 22 20  2  0
M  END
$$$$
