ATK.pdb
     RDKit          3D

 22 21  0  0  1  0  0  0  0  0999 V2000
   22.8777  -20.9439  -10.7042 C   0  0  0  0  0  0  0  0  0  0  0  0
   24.3794  -20.9943  -10.5196 C   0  0  2  0  0  0  0  0  0  0  0  0
   24.6494  -20.5759   -9.1452 N   0  0  0  0  0  0  0  0  0  0  0  0
   25.0541  -20.0872  -11.4837 C   0  0  0  0  0  0  0  0  0  0  0  0
   25.1591  -18.8857  -11.1603 O   0  0  0  0  0  0  0  0  0  0  0  0
   28.4984  -20.2855  -12.7994 C   0  0  0  0  0  0  0  0  0  0  0  0
   27.5551  -20.3550  -13.9960 C   0  0  1  0  0  0  0  0  0  0  0  0
   27.6127  -21.6504  -14.4515 O   0  0  0  0  0  0  0  0  0  0  0  0
   26.2107  -19.7990  -13.7326 C   0  0  2  0  0  0  0  0  0  0  0  0
   25.5570  -20.5514  -12.7112 N   0  0  0  0  0  0  0  0  0  0  0  0
   25.3452  -19.5697  -14.9005 C   0  0  0  0  0  0  0  0  0  0  0  0
   24.5534  -20.4586  -15.2709 O   0  0  0  0  0  0  0  0  0  0  0  0
   25.3317  -18.3773  -15.6731 N   0  0  0  0  0  0  0  0  0  0  0  0
   24.4864  -18.2101  -16.8428 C   0  0  1  0  0  0  0  0  0  0  0  0
   23.8667  -16.8472  -16.7922 C   0  0  0  0  0  0  0  0  0  0  0  0
   22.9111  -16.5528  -17.8878 C   0  0  0  0  0  0  0  0  0  0  0  0
   22.4060  -15.1385  -17.9095 C   0  0  0  0  0  0  0  0  0  0  0  0
   21.4595  -14.8909  -19.0741 C   0  0  0  0  0  0  0  0  0  0  0  0
   21.0353  -13.5033  -19.0457 N   0  0  0  0  0  0  0  0  0  0  0  0
   25.2446  -18.4392  -18.0971 C   0  0  0  0  0  0  0  0  0  0  0  0
   24.5902  -18.7999  -19.2676 O   0  0  0  0  0  0  0  0  0  0  0  0
   26.4932  -18.3199  -18.1592 O   0  0  0  0  0  0  0  0  0  0  0  0
  2  1  1  6
  2  3  1  0
  4  2  1  0
  4  5  2  0
  7  9  1  0
  7  6  1  1
  8  7  1  0
  9 10  1  1
  9 11  1  0
 10  4  1  0
 11 13  1  0
 12 11  2  0
 13 14  1  0
 14 15  1  6
 15 16  1  0
 17 16  1  0
 18 19  1  0
 18 17  1  0
 20 14  1  0
 20 21  1  0
 22 20  2  0
M  END
$$$$
