ATK.pdb
     RDKit          3D

 22 21  0  0  1  0  0  0  0  0999 V2000
   19.5139  -13.4794  -19.2519 C   0  0  0  0  0  0  0  0  0  0  0  0
   18.9429  -13.7835  -17.8833 C   0  0  2  0  0  0  0  0  0  0  0  0
   18.1960  -15.0340  -18.0065 N   0  0  0  0  0  0  0  0  0  0  0  0
   18.0502  -12.6839  -17.4346 C   0  0  0  0  0  0  0  0  0  0  0  0
   16.9167  -12.6199  -17.9547 O   0  0  0  0  0  0  0  0  0  0  0  0
   16.7576   -9.4381  -14.0243 C   0  0  0  0  0  0  0  0  0  0  0  0
   17.4875  -10.6562  -14.5811 C   0  0  1  0  0  0  0  0  0  0  0  0
   16.7893  -11.7539  -14.1380 O   0  0  0  0  0  0  0  0  0  0  0  0
   17.7609  -10.5797  -16.0320 C   0  0  2  0  0  0  0  0  0  0  0  0
   18.4542  -11.7492  -16.4658 N   0  0  0  0  0  0  0  0  0  0  0  0
   18.3852   -9.3424  -16.5269 C   0  0  0  0  0  0  0  0  0  0  0  0
   19.5716   -9.0878  -16.2407 O   0  0  0  0  0  0  0  0  0  0  0  0
   17.7291   -8.3746  -17.3344 N   0  0  0  0  0  0  0  0  0  0  0  0
   18.3383   -7.1033  -17.6859 C   0  0  1  0  0  0  0  0  0  0  0  0
   17.4160   -6.3733  -18.6136 C   0  0  0  0  0  0  0  0  0  0  0  0
   17.8816   -5.0272  -19.0281 C   0  0  0  0  0  0  0  0  0  0  0  0
   16.8860   -4.2468  -19.8379 C   0  0  0  0  0  0  0  0  0  0  0  0
   17.4359   -2.8943  -20.2643 C   0  0  0  0  0  0  0  0  0  0  0  0
   16.3615   -2.1169  -20.8540 N   0  0  0  0  0  0  0  0  0  0  0  0
   18.6697   -6.3083  -16.4781 C   0  0  0  0  0  0  0  0  0  0  0  0
   19.9254   -5.7349  -16.3271 O   0  0  0  0  0  0  0  0  0  0  0  0
   17.8446   -6.1192  -15.5505 O   0  0  0  0  0  0  0  0  0  0  0  0
  2  1  1  6
  2  3  1  0
  4  2  1  0
  4  5  2  0
  7  9  1  0
  7  6  1  6
  8  7  1  0
  9 10  1  1
  9 11  1  0
 10  4  1  0
 11 13  1  0
 12 11  2  0
 13 14  1  0
 14 15  1  6
 15 16  1  0
 17 16  1  0
 18 19  1  0
 18 17  1  0
 20 14  1  0
 20 21  1  0
 22 20  2  0
M  END
$$$$
