ATK.pdb
     RDKit          3D

 22 21  0  0  1  0  0  0  0  0999 V2000
   27.5767  -21.4469  -10.5933 C   0  0  0  0  0  0  0  0  0  0  0  0
   27.3955  -21.2118  -12.0777 C   0  0  2  0  0  0  0  0  0  0  0  0
   28.5225  -20.3897  -12.5149 N   0  0  0  0  0  0  0  0  0  0  0  0
   26.1089  -20.5175  -12.3425 C   0  0  0  0  0  0  0  0  0  0  0  0
   26.1386  -19.2721  -12.4270 O   0  0  0  0  0  0  0  0  0  0  0  0
   24.8320  -18.9502  -14.3116 C   0  0  0  0  0  0  0  0  0  0  0  0
   23.8324  -20.1023  -14.3042 C   0  0  1  0  0  0  0  0  0  0  0  0
   24.1962  -20.9287  -15.3403 O   0  0  0  0  0  0  0  0  0  0  0  0
   23.6539  -20.7324  -12.9787 C   0  0  2  0  0  0  0  0  0  0  0  0
   24.9029  -21.2233  -12.4934 N   0  0  0  0  0  0  0  0  0  0  0  0
   22.5751  -21.7256  -12.8543 C   0  0  0  0  0  0  0  0  0  0  0  0
   22.7930  -22.9187  -13.1428 O   0  0  0  0  0  0  0  0  0  0  0  0
   21.2553  -21.4329  -12.4165 N   0  0  0  0  0  0  0  0  0  0  0  0
   20.2863  -22.4681  -12.0998 C   0  0  1  0  0  0  0  0  0  0  0  0
   20.0872  -22.4963  -10.6153 C   0  0  0  0  0  0  0  0  0  0  0  0
   19.1995  -23.5781  -10.1232 C   0  0  0  0  0  0  0  0  0  0  0  0
   18.9467  -23.5503   -8.6430 C   0  0  0  0  0  0  0  0  0  0  0  0
   17.9858  -24.6470   -8.2099 C   0  0  0  0  0  0  0  0  0  0  0  0
   17.8137  -24.5770   -6.7706 N   0  0  0  0  0  0  0  0  0  0  0  0
   19.0148  -22.2642  -12.8362 C   0  0  0  0  0  0  0  0  0  0  0  0
   18.1934  -23.3398  -13.1475 O   0  0  0  0  0  0  0  0  0  0  0  0
   18.6271  -21.1287  -13.2068 O   0  0  0  0  0  0  0  0  0  0  0  0
  2  1  1  1
  2  3  1  0
  4  2  1  0
  4  5  2  0
  7  9  1  0
  7  6  1  1
  8  7  1  0
  9 10  1  6
  9 11  1  0
 10  4  1  0
 11 13  1  0
 12 11  2  0
 13 14  1  0
 14 15  1  1
 15 16  1  0
 17 16  1  0
 18 19  1  0
 18 17  1  0
 20 14  1  0
 20 21  1  0
 22 20  2  0
M  END
$$$$
