ATK.pdb
     RDKit          3D

 22 21  0  0  1  0  0  0  0  0999 V2000
   25.7197  -21.7091  -15.2391 C   0  0  0  0  0  0  0  0  0  0  0  0
   24.7946  -22.2139  -14.1523 C   0  0  2  0  0  0  0  0  0  0  0  0
   25.0063  -23.6571  -14.0555 N   0  0  0  0  0  0  0  0  0  0  0  0
   23.3793  -21.9153  -14.4918 C   0  0  0  0  0  0  0  0  0  0  0  0
   22.8308  -22.6429  -15.3455 O   0  0  0  0  0  0  0  0  0  0  0  0
   20.4030  -22.3594  -12.7133 C   0  0  0  0  0  0  0  0  0  0  0  0
   20.4886  -20.8535  -12.9403 C   0  0  1  0  0  0  0  0  0  0  0  0
   20.8220  -20.3036  -11.7257 O   0  0  0  0  0  0  0  0  0  0  0  0
   21.3224  -20.4686  -14.0990 C   0  0  2  0  0  0  0  0  0  0  0  0
   22.6777  -20.8603  -13.8835 N   0  0  0  0  0  0  0  0  0  0  0  0
   21.2088  -19.0782  -14.5675 C   0  0  0  0  0  0  0  0  0  0  0  0
   21.8139  -18.1688  -13.9663 O   0  0  0  0  0  0  0  0  0  0  0  0
   20.4405  -18.6647  -15.6889 N   0  0  0  0  0  0  0  0  0  0  0  0
   20.2504  -17.2671  -16.0373 C   0  0  1  0  0  0  0  0  0  0  0  0
   20.3747  -17.1252  -17.5235 C   0  0  0  0  0  0  0  0  0  0  0  0
   20.3060  -15.7318  -18.0273 C   0  0  0  0  0  0  0  0  0  0  0  0
   20.4274  -15.6028  -19.5188 C   0  0  0  0  0  0  0  0  0  0  0  0
   20.3611  -14.1521  -19.9709 C   0  0  0  0  0  0  0  0  0  0  0  0
   20.4704  -14.1072  -21.4174 N   0  0  0  0  0  0  0  0  0  0  0  0
   18.9560  -16.7522  -15.5274 C   0  0  0  0  0  0  0  0  0  0  0  0
   18.7999  -15.4087  -15.2125 O   0  0  0  0  0  0  0  0  0  0  0  0
   17.9568  -17.4940  -15.3590 O   0  0  0  0  0  0  0  0  0  0  0  0
  2  1  1  6
  2  3  1  0
  4  2  1  0
  4  5  2  0
  7  9  1  0
  7  6  1  1
  8  7  1  0
  9 10  1  1
  9 11  1  0
 10  4  1  0
 11 13  1  0
 12 11  2  0
 13 14  1  0
 14 15  1  6
 15 16  1  0
 17 16  1  0
 18 19  1  0
 18 17  1  0
 20 14  1  0
 20 21  1  0
 22 20  2  0
M  END
$$$$
