ATK.pdb
     RDKit          3D

 22 21  0  0  1  0  0  0  0  0999 V2000
   19.6201  -11.9799  -17.0060 C   0  0  0  0  0  0  0  0  0  0  0  0
   18.4577  -11.6544  -16.0926 C   0  0  2  0  0  0  0  0  0  0  0  0
   17.2379  -11.9693  -16.8342 N   0  0  0  0  0  0  0  0  0  0  0  0
   18.4807  -10.2188  -15.7104 C   0  0  0  0  0  0  0  0  0  0  0  0
   18.2300   -9.3852  -16.6057 O   0  0  0  0  0  0  0  0  0  0  0  0
   18.2234   -7.1130  -11.8235 C   0  0  0  0  0  0  0  0  0  0  0  0
   18.2805   -8.4931  -12.4705 C   0  0  1  0  0  0  0  0  0  0  0  0
   17.0596   -9.0769  -12.2308 O   0  0  0  0  0  0  0  0  0  0  0  0
   18.7501   -8.4790  -13.8723 C   0  0  2  0  0  0  0  0  0  0  0  0
   18.7713   -9.8052  -14.3990 N   0  0  0  0  0  0  0  0  0  0  0  0
   19.9960   -7.7463  -14.1490 C   0  0  0  0  0  0  0  0  0  0  0  0
   21.0883   -8.2135  -13.7710 O   0  0  0  0  0  0  0  0  0  0  0  0
   20.0663   -6.5048  -14.8365 N   0  0  0  0  0  0  0  0  0  0  0  0
   21.3230   -5.8266  -15.1044 C   0  0  1  0  0  0  0  0  0  0  0  0
   21.1978   -5.0855  -16.4003 C   0  0  0  0  0  0  0  0  0  0  0  0
   22.3610   -4.2339  -16.7494 C   0  0  0  0  0  0  0  0  0  0  0  0
   22.2077   -3.4663  -18.0313 C   0  0  0  0  0  0  0  0  0  0  0  0
   23.4526   -2.6573  -18.3616 C   0  0  0  0  0  0  0  0  0  0  0  0
   23.2235   -1.9284  -19.5955 N   0  0  0  0  0  0  0  0  0  0  0  0
   21.7100   -4.9382  -13.9812 C   0  0  0  0  0  0  0  0  0  0  0  0
   20.7439   -4.3268  -13.1931 O   0  0  0  0  0  0  0  0  0  0  0  0
   22.9094   -4.7008  -13.6944 O   0  0  0  0  0  0  0  0  0  0  0  0
  2  1  1  6
  2  3  1  0
  4  2  1  0
  4  5  2  0
  7  9  1  0
  7  6  1  6
  8  7  1  0
  9 10  1  1
  9 11  1  0
 10  4  1  0
 11 13  1  0
 12 11  2  0
 13 14  1  0
 14 15  1  6
 15 16  1  0
 17 16  1  0
 18 19  1  0
 18 17  1  0
 20 14  1  0
 20 21  1  0
 22 20  2  0
M  END
$$$$
