ATK.pdb
     RDKit          3D

 22 21  0  0  1  0  0  0  0  0999 V2000
   23.1122  -17.8702  -17.8512 C   0  0  0  0  0  0  0  0  0  0  0  0
   24.5344  -18.3006  -18.1400 C   0  0  2  0  0  0  0  0  0  0  0  0
   24.5420  -18.8482  -19.4954 N   0  0  0  0  0  0  0  0  0  0  0  0
   24.9783  -19.3256  -17.1602 C   0  0  0  0  0  0  0  0  0  0  0  0
   24.5741  -20.4943  -17.3332 O   0  0  0  0  0  0  0  0  0  0  0  0
   28.2255  -20.3555  -16.8806 C   0  0  0  0  0  0  0  0  0  0  0  0
   27.8943  -19.9837  -15.4389 C   0  0  1  0  0  0  0  0  0  0  0  0
   28.6498  -18.8729  -15.1490 O   0  0  0  0  0  0  0  0  0  0  0  0
   26.4450  -19.8970  -15.1601 C   0  0  2  0  0  0  0  0  0  0  0  0
   25.8181  -19.0041  -16.0801 N   0  0  0  0  0  0  0  0  0  0  0  0
   26.0503  -19.6343  -13.7670 C   0  0  0  0  0  0  0  0  0  0  0  0
   25.8336  -18.4649  -13.3928 O   0  0  0  0  0  0  0  0  0  0  0  0
   25.8874  -20.6354  -12.7719 N   0  0  0  0  0  0  0  0  0  0  0  0
   25.4543  -20.3330  -11.4185 C   0  0  1  0  0  0  0  0  0  0  0  0
   24.0441  -19.8302  -11.4705 C   0  0  0  0  0  0  0  0  0  0  0  0
   23.0346  -20.8381  -11.8771 C   0  0  0  0  0  0  0  0  0  0  0  0
   21.6309  -20.3115  -11.9671 C   0  0  0  0  0  0  0  0  0  0  0  0
   20.6500  -21.3826  -12.4187 C   0  0  0  0  0  0  0  0  0  0  0  0
   19.3083  -20.8301  -12.3913 N   0  0  0  0  0  0  0  0  0  0  0  0
   25.6018  -21.5090  -10.5263 C   0  0  0  0  0  0  0  0  0  0  0  0
   25.4055  -21.3912   -9.1566 O   0  0  0  0  0  0  0  0  0  0  0  0
   25.9059  -22.6477  -10.9598 O   0  0  0  0  0  0  0  0  0  0  0  0
  2  1  1  1
  2  3  1  0
  4  2  1  0
  4  5  2  0
  7  9  1  0
  7  6  1  6
  8  7  1  0
  9 10  1  6
  9 11  1  0
 10  4  1  0
 11 13  1  0
 12 11  2  0
 13 14  1  0
 14 15  1  6
 15 16  1  0
 17 16  1  0
 18 19  1  0
 18 17  1  0
 20 14  1  0
 20 21  1  0
 22 20  2  0
M  END
$$$$
