ATK.pdb
     RDKit          3D

 22 21  0  0  1  0  0  0  0  0999 V2000
   21.1355  -12.6648  -19.3318 C   0  0  0  0  0  0  0  0  0  0  0  0
   22.1315  -12.0145  -18.3955 C   0  0  2  0  0  0  0  0  0  0  0  0
   22.9266  -13.0929  -17.8109 N   0  0  0  0  0  0  0  0  0  0  0  0
   21.4271  -11.2503  -17.3337 C   0  0  0  0  0  0  0  0  0  0  0  0
   20.3921  -11.7590  -16.8547 O   0  0  0  0  0  0  0  0  0  0  0  0
   22.4483  -10.5897  -14.0528 C   0  0  0  0  0  0  0  0  0  0  0  0
   22.2523   -9.2055  -14.6629 C   0  0  1  0  0  0  0  0  0  0  0  0
   23.5118   -8.6827  -14.8335 O   0  0  0  0  0  0  0  0  0  0  0  0
   21.3580   -9.1905  -15.8401 C   0  0  2  0  0  0  0  0  0  0  0  0
   21.8972  -10.0061  -16.8798 N   0  0  0  0  0  0  0  0  0  0  0  0
   20.9251   -7.8720  -16.3298 C   0  0  0  0  0  0  0  0  0  0  0  0
   21.6102   -7.2694  -17.1794 O   0  0  0  0  0  0  0  0  0  0  0  0
   19.7485   -7.1992  -15.9032 N   0  0  0  0  0  0  0  0  0  0  0  0
   19.3615   -5.8954  -16.4141 C   0  0  1  0  0  0  0  0  0  0  0  0
   17.8660   -5.8311  -16.4727 C   0  0  0  0  0  0  0  0  0  0  0  0
   17.3147   -4.5694  -17.0243 C   0  0  0  0  0  0  0  0  0  0  0  0
   15.8147   -4.5198  -17.0846 C   0  0  0  0  0  0  0  0  0  0  0  0
   15.3162   -3.2892  -17.8266 C   0  0  0  0  0  0  0  0  0  0  0  0
   13.8720   -3.2201  -17.7013 N   0  0  0  0  0  0  0  0  0  0  0  0
   19.9422   -4.7996  -15.6000 C   0  0  0  0  0  0  0  0  0  0  0  0
   20.2822   -3.5854  -16.1816 O   0  0  0  0  0  0  0  0  0  0  0  0
   20.1504   -4.9160  -14.3670 O   0  0  0  0  0  0  0  0  0  0  0  0
  2  1  1  6
  2  3  1  0
  4  2  1  0
  4  5  2  0
  7  9  1  0
  7  6  1  6
  8  7  1  0
  9 10  1  6
  9 11  1  0
 10  4  1  0
 11 13  1  0
 12 11  2  0
 13 14  1  0
 14 15  1  1
 15 16  1  0
 17 16  1  0
 18 19  1  0
 18 17  1  0
 20 14  1  0
 20 21  1  0
 22 20  2  0
M  END
$$$$
