ATK.pdb
     RDKit          3D

 22 21  0  0  1  0  0  0  0  0999 V2000
   20.7419  -13.7016  -18.4989 C   0  0  0  0  0  0  0  0  0  0  0  0
   21.7360  -12.7421  -17.8804 C   0  0  2  0  0  0  0  0  0  0  0  0
   21.9924  -13.2182  -16.5222 N   0  0  0  0  0  0  0  0  0  0  0  0
   21.1834  -11.3632  -17.8548 C   0  0  0  0  0  0  0  0  0  0  0  0
   21.0630  -10.7755  -18.9499 O   0  0  0  0  0  0  0  0  0  0  0  0
   17.8752  -10.3223  -16.5067 C   0  0  0  0  0  0  0  0  0  0  0  0
   18.9506   -9.5442  -15.7553 C   0  0  1  0  0  0  0  0  0  0  0  0
   18.9942  -10.0796  -14.4903 O   0  0  0  0  0  0  0  0  0  0  0  0
   20.2342   -9.4417  -16.4817 C   0  0  2  0  0  0  0  0  0  0  0  0
   20.8085  -10.7368  -16.6538 N   0  0  0  0  0  0  0  0  0  0  0  0
   21.2074   -8.4598  -15.9773 C   0  0  0  0  0  0  0  0  0  0  0  0
   22.1277   -8.8292  -15.2217 O   0  0  0  0  0  0  0  0  0  0  0  0
   21.1899   -7.0735  -16.2882 N   0  0  0  0  0  0  0  0  0  0  0  0
   22.1605   -6.1364  -15.7490 C   0  0  1  0  0  0  0  0  0  0  0  0
   22.3030   -4.9937  -16.7072 C   0  0  0  0  0  0  0  0  0  0  0  0
   23.2181   -3.9142  -16.2626 C   0  0  0  0  0  0  0  0  0  0  0  0
   23.2117   -2.6936  -17.1378 C   0  0  0  0  0  0  0  0  0  0  0  0
   24.2204   -1.6550  -16.6716 C   0  0  0  0  0  0  0  0  0  0  0  0
   24.2634   -0.5760  -17.6413 N   0  0  0  0  0  0  0  0  0  0  0  0
   21.7819   -5.6871  -14.3869 C   0  0  0  0  0  0  0  0  0  0  0  0
   22.7536   -5.3512  -13.4534 O   0  0  0  0  0  0  0  0  0  0  0  0
   20.5849   -5.5907  -14.0193 O   0  0  0  0  0  0  0  0  0  0  0  0
  2  1  1  1
  2  3  1  0
  4  2  1  0
  4  5  2  0
  7  9  1  0
  7  6  1  6
  8  7  1  0
  9 10  1  1
  9 11  1  0
 10  4  1  0
 11 13  1  0
 12 11  2  0
 13 14  1  0
 14 15  1  6
 15 16  1  0
 17 16  1  0
 18 19  1  0
 18 17  1  0
 20 14  1  0
 20 21  1  0
 22 20  2  0
M  END
$$$$
