ATK.pdb
     RDKit          3D

 22 21  0  0  1  0  0  0  0  0999 V2000
   14.4038  -14.3630  -14.6926 C   0  0  0  0  0  0  0  0  0  0  0  0
   15.6139  -13.5092  -15.0063 C   0  0  2  0  0  0  0  0  0  0  0  0
   16.6858  -13.9545  -14.1176 N   0  0  0  0  0  0  0  0  0  0  0  0
   15.3112  -12.0723  -14.7802 C   0  0  0  0  0  0  0  0  0  0  0  0
   14.4136  -11.5603  -15.4812 O   0  0  0  0  0  0  0  0  0  0  0  0
   16.7434  -10.5769  -11.1929 C   0  0  0  0  0  0  0  0  0  0  0  0
   15.6206   -9.8787  -11.9534 C   0  0  1  0  0  0  0  0  0  0  0  0
   15.5186   -8.6201  -11.4109 O   0  0  0  0  0  0  0  0  0  0  0  0
   15.7494   -9.9637  -13.4238 C   0  0  2  0  0  0  0  0  0  0  0  0
   16.0001  -11.3115  -13.8201 N   0  0  0  0  0  0  0  0  0  0  0  0
   16.6676   -9.0105  -14.0672 C   0  0  0  0  0  0  0  0  0  0  0  0
   17.8908   -9.2497  -14.0965 O   0  0  0  0  0  0  0  0  0  0  0  0
   16.2668   -7.7940  -14.6825 N   0  0  0  0  0  0  0  0  0  0  0  0
   17.2034   -6.9084  -15.3529 C   0  0  1  0  0  0  0  0  0  0  0  0
   16.4876   -6.2175  -16.4730 C   0  0  0  0  0  0  0  0  0  0  0  0
   17.3440   -5.3608  -17.3291 C   0  0  0  0  0  0  0  0  0  0  0  0
   16.6112   -4.6558  -18.4345 C   0  0  0  0  0  0  0  0  0  0  0  0
   17.5616   -3.9256  -19.3710 C   0  0  0  0  0  0  0  0  0  0  0  0
   16.8010   -3.3879  -20.4839 N   0  0  0  0  0  0  0  0  0  0  0  0
   17.8206   -5.9516  -14.4020 C   0  0  0  0  0  0  0  0  0  0  0  0
   17.1378   -5.5385  -13.2655 O   0  0  0  0  0  0  0  0  0  0  0  0
   18.9703   -5.4775  -14.5765 O   0  0  0  0  0  0  0  0  0  0  0  0
  2  1  1  1
  2  3  1  0
  4  2  1  0
  4  5  2  0
  7  9  1  0
  7  6  1  1
  8  7  1  0
  9 10  1  1
  9 11  1  0
 10  4  1  0
 11 13  1  0
 12 11  2  0
 13 14  1  0
 14 15  1  6
 15 16  1  0
 17 16  1  0
 18 19  1  0
 18 17  1  0
 20 14  1  0
 20 21  1  0
 22 20  2  0
M  END
$$$$
