ATK.pdb
     RDKit          3D

 22 21  0  0  1  0  0  0  0  0999 V2000
   24.5553  -13.6548  -19.6478 C   0  0  0  0  0  0  0  0  0  0  0  0
   25.5666  -13.4814  -18.5348 C   0  0  2  0  0  0  0  0  0  0  0  0
   25.9050  -14.8220  -18.0602 N   0  0  0  0  0  0  0  0  0  0  0  0
   24.9942  -12.6662  -17.4324 C   0  0  0  0  0  0  0  0  0  0  0  0
   24.1824  -13.2285  -16.6681 O   0  0  0  0  0  0  0  0  0  0  0  0
   26.9701  -10.9512  -14.8781 C   0  0  0  0  0  0  0  0  0  0  0  0
   26.0660   -9.8837  -15.4861 C   0  0  1  0  0  0  0  0  0  0  0  0
   26.8941   -9.0319  -16.1772 O   0  0  0  0  0  0  0  0  0  0  0  0
   24.9052  -10.4292  -16.2215 C   0  0  2  0  0  0  0  0  0  0  0  0
   25.3447  -11.3177  -17.2482 N   0  0  0  0  0  0  0  0  0  0  0  0
   23.9104   -9.4598  -16.7075 C   0  0  0  0  0  0  0  0  0  0  0  0
   24.0320   -8.9619  -17.8440 O   0  0  0  0  0  0  0  0  0  0  0  0
   22.7788   -9.0247  -15.9665 N   0  0  0  0  0  0  0  0  0  0  0  0
   21.8689   -8.0016  -16.4526 C   0  0  1  0  0  0  0  0  0  0  0  0
   20.4999   -8.5982  -16.5703 C   0  0  0  0  0  0  0  0  0  0  0  0
   19.4560   -7.6746  -17.0778 C   0  0  0  0  0  0  0  0  0  0  0  0
   18.0722   -8.2578  -17.1110 C   0  0  0  0  0  0  0  0  0  0  0  0
   17.0634   -7.2931  -17.7154 C   0  0  0  0  0  0  0  0  0  0  0  0
   15.7791   -7.9614  -17.8163 N   0  0  0  0  0  0  0  0  0  0  0  0
   21.8884   -6.8005  -15.5822 C   0  0  0  0  0  0  0  0  0  0  0  0
   22.4393   -6.8545  -14.3086 O   0  0  0  0  0  0  0  0  0  0  0  0
   21.4156   -5.6965  -15.9493 O   0  0  0  0  0  0  0  0  0  0  0  0
  2  1  1  6
  2  3  1  0
  4  2  1  0
  4  5  2  0
  7  9  1  0
  7  6  1  6
  8  7  1  0
  9 10  1  6
  9 11  1  0
 10  4  1  0
 11 13  1  0
 12 11  2  0
 13 14  1  0
 14 15  1  1
 15 16  1  0
 17 16  1  0
 18 19  1  0
 18 17  1  0
 20 14  1  0
 20 21  1  0
 22 20  2  0
M  END
$$$$
