TRA.pdb
     RDKit          3D

 24 23  0  0  1  0  0  0  0  0999 V2000
    1.0308  -20.6020   23.0648 C   0  0  0  0  0  0  0  0  0  0  0  0
    2.4571  -20.0935   23.0039 C   0  0  1  0  0  0  0  0  0  0  0  0
    3.3185  -20.9570   23.6466 O   0  0  0  0  0  0  0  0  0  0  0  0
    2.8729  -19.7050   21.6166 C   0  0  2  0  0  0  0  0  0  0  0  0
    2.7559  -20.8721   20.7704 N   0  0  0  0  0  0  0  0  0  0  0  0
    4.2115  -19.0689   21.5708 C   0  0  0  0  0  0  0  0  0  0  0  0
    5.1576  -19.7695   21.1653 O   0  0  0  0  0  0  0  0  0  0  0  0
    9.8070  -12.7996   20.6700 N   0  0  0  0  0  0  0  0  0  0  0  0
    9.0755  -13.0530   19.4560 C   0  0  0  0  0  0  0  0  0  0  0  0
    9.6232  -12.8987   18.3078 N   0  0  0  0  0  0  0  0  0  0  0  0
    7.7138  -13.4842   19.5230 N   0  0  0  0  0  0  0  0  0  0  0  0
    7.0436  -13.6444   20.7995 C   0  0  0  0  0  0  0  0  0  0  0  0
    7.0801  -15.1171   21.2309 C   0  0  0  0  0  0  0  0  0  0  0  0
    5.6737  -15.6151   21.4905 C   0  0  0  0  0  0  0  0  0  0  0  0
    5.7292  -17.0529   21.8242 C   0  0  2  0  0  0  0  0  0  0  0  0
    4.4947  -17.7500   21.9452 N   0  0  0  0  0  0  0  0  0  0  0  0
    6.4917  -17.2409   23.0816 C   0  0  0  0  0  0  0  0  0  0  0  0
    5.9770  -16.7425   24.1341 O   0  0  0  0  0  0  0  0  0  0  0  0
    9.0843  -13.0861   17.4513 C   0  0  0  0  0  0  0  0  0  0  0  0
    8.9862  -19.3609   24.6942 C   0  0  1  0  0  0  0  0  0  0  0  0
    8.4115  -17.9682   24.4432 N   0  0  0  0  0  0  0  0  0  0  0  0
    7.7278  -17.9281   23.1609 C   0  0  0  0  0  0  0  0  0  0  0  0
    9.5411  -16.9960   24.3929 O   0  0  0  0  0  0  0  0  0  0  0  0
    9.8311  -16.3997   23.3011 O   0  0  0  0  0  0  0  0  0  0  0  0
  2  1  1  6
  2  3  1  0
  4  2  1  0
  4  6  1  0
  4  5  1  6
  6  7  2  0
  8  9  1  0
  9 11  1  0
 10  9  2  0
 11 12  1  0
 12 13  1  0
 13 14  1  0
 15 14  1  1
 16  6  1  0
 16 15  1  0
 17 21  1  0
 17 15  1  0
 18 17  2  0
 20 21  1  0
 20 19  1  1
 22 20  1  0
 22 24  1  0
 23 22  2  0
M  END
$$$$
