TRA.pdb
     RDKit          3D

 24 23  0  0  1  0  0  0  0  0999 V2000
    9.7693  -12.1725   20.0991 C   0  0  0  0  0  0  0  0  0  0  0  0
    8.9669  -12.2951   18.8194 C   0  0  1  0  0  0  0  0  0  0  0  0
    9.5180  -11.5293   17.8142 O   0  0  0  0  0  0  0  0  0  0  0  0
    8.6899  -13.7206   18.4458 C   0  0  2  0  0  0  0  0  0  0  0  0
    7.9613  -13.7230   17.1963 N   0  0  0  0  0  0  0  0  0  0  0  0
    8.0191  -14.4820   19.5270 C   0  0  0  0  0  0  0  0  0  0  0  0
    6.7854  -14.3493   19.6313 O   0  0  0  0  0  0  0  0  0  0  0  0
    9.3727  -18.5033   15.9837 N   0  0  0  0  0  0  0  0  0  0  0  0
    9.8742  -19.1437   17.1718 C   0  0  0  0  0  0  0  0  0  0  0  0
   11.1147  -19.4420   17.2905 N   0  0  0  0  0  0  0  0  0  0  0  0
    8.9796  -19.4563   18.2427 N   0  0  0  0  0  0  0  0  0  0  0  0
    8.2820  -18.4078   18.9625 C   0  0  0  0  0  0  0  0  0  0  0  0
    9.1483  -17.9020   20.1244 C   0  0  0  0  0  0  0  0  0  0  0  0
    8.2794  -17.6158   21.3311 C   0  0  0  0  0  0  0  0  0  0  0  0
    8.0628  -16.1579   21.4298 C   0  0  2  0  0  0  0  0  0  0  0  0
    8.6592  -15.3338   20.4350 N   0  0  0  0  0  0  0  0  0  0  0  0
    8.5133  -15.6788   22.7584 C   0  0  0  0  0  0  0  0  0  0  0  0
    9.7543  -15.4180   22.8738 O   0  0  0  0  0  0  0  0  0  0  0  0
   11.4561  -19.8896   18.1521 C   0  0  0  0  0  0  0  0  0  0  0  0
    7.1095  -14.3432   25.9539 C   0  0  1  0  0  0  0  0  0  0  0  0
    8.2121  -14.9596   25.0953 N   0  0  0  0  0  0  0  0  0  0  0  0
    7.6519  -15.5042   23.8693 C   0  0  0  0  0  0  0  0  0  0  0  0
    8.8287  -16.0829   25.8579 O   0  0  0  0  0  0  0  0  0  0  0  0
    8.6615  -17.2905   25.4762 O   0  0  0  0  0  0  0  0  0  0  0  0
  2  1  1  1
  2  3  1  0
  4  2  1  0
  4  6  1  0
  4  5  1  6
  6  7  2  0
  8  9  1  0
  9 11  1  0
 10  9  2  0
 11 12  1  0
 12 13  1  0
 13 14  1  0
 15 14  1  6
 16  6  1  0
 16 15  1  0
 17 21  1  0
 17 15  1  0
 18 17  2  0
 20 21  1  0
 20 19  1  6
 22 20  1  0
 22 24  1  0
 23 22  2  0
M  END
$$$$
