TRA.pdb
     RDKit          3D

 24 23  0  0  1  0  0  0  0  0999 V2000
   12.6892  -19.3508   24.5726 C   0  0  0  0  0  0  0  0  0  0  0  0
   13.6876  -18.8272   23.5599 C   0  0  1  0  0  0  0  0  0  0  0  0
   14.4422  -19.8534   23.0324 O   0  0  0  0  0  0  0  0  0  0  0  0
   13.0586  -17.9210   22.5442 C   0  0  2  0  0  0  0  0  0  0  0  0
   14.0846  -17.5157   21.6087 N   0  0  0  0  0  0  0  0  0  0  0  0
   12.3292  -16.7843   23.1562 C   0  0  0  0  0  0  0  0  0  0  0  0
   13.0089  -15.8089   23.5261 O   0  0  0  0  0  0  0  0  0  0  0  0
    7.7521  -12.1690   20.8623 N   0  0  0  0  0  0  0  0  0  0  0  0
    7.6480  -13.3316   20.0193 C   0  0  0  0  0  0  0  0  0  0  0  0
    8.1242  -13.3323   18.8296 N   0  0  0  0  0  0  0  0  0  0  0  0
    7.0033  -14.5101   20.5094 N   0  0  0  0  0  0  0  0  0  0  0  0
    7.1343  -14.9099   21.8977 C   0  0  0  0  0  0  0  0  0  0  0  0
    8.6177  -14.9847   22.2853 C   0  0  0  0  0  0  0  0  0  0  0  0
    8.7615  -15.5855   23.6679 C   0  0  0  0  0  0  0  0  0  0  0  0
   10.1978  -15.6955   23.9948 C   0  0  2  0  0  0  0  0  0  0  0  0
   10.9441  -16.7211   23.3501 N   0  0  0  0  0  0  0  0  0  0  0  0
   10.3619  -15.8549   25.4595 C   0  0  0  0  0  0  0  0  0  0  0  0
   10.5383  -17.0430   25.8820 O   0  0  0  0  0  0  0  0  0  0  0  0
    8.0835  -14.1882   18.2596 C   0  0  0  0  0  0  0  0  0  0  0  0
   10.4833  -13.7864   28.6115 C   0  0  1  0  0  0  0  0  0  0  0  0
   10.5701  -15.0675   27.7844 N   0  0  0  0  0  0  0  0  0  0  0  0
   10.3320  -14.7784   26.3797 C   0  0  0  0  0  0  0  0  0  0  0  0
    9.5034  -16.0000   28.2494 O   0  0  0  0  0  0  0  0  0  0  0  0
    8.4077  -16.1019   27.6007 O   0  0  0  0  0  0  0  0  0  0  0  0
  2  1  1  6
  2  3  1  0
  4  2  1  0
  4  6  1  0
  4  5  1  6
  6  7  2  0
  8  9  1  0
  9 11  1  0
 10  9  2  0
 11 12  1  0
 12 13  1  0
 13 14  1  0
 15 14  1  1
 16  6  1  0
 16 15  1  0
 17 21  1  0
 17 15  1  0
 18 17  2  0
 20 21  1  0
 20 19  1  6
 22 20  1  0
 22 24  1  0
 23 22  2  0
M  END
$$$$
