TRA.pdb
     RDKit          3D

 24 23  0  0  1  0  0  0  0  0999 V2000
   11.0044  -13.9851   20.6465 C   0  0  0  0  0  0  0  0  0  0  0  0
   10.1400  -13.1268   19.7449 C   0  0  1  0  0  0  0  0  0  0  0  0
   10.7911  -12.8363   18.5649 O   0  0  0  0  0  0  0  0  0  0  0  0
    8.7539  -13.6749   19.5814 C   0  0  2  0  0  0  0  0  0  0  0  0
    8.0373  -12.8153   18.6651 N   0  0  0  0  0  0  0  0  0  0  0  0
    8.0566  -13.8793   20.8739 C   0  0  0  0  0  0  0  0  0  0  0  0
    7.5772  -12.8705   21.4242 O   0  0  0  0  0  0  0  0  0  0  0  0
   10.2213  -20.5914   20.7247 N   0  0  0  0  0  0  0  0  0  0  0  0
    8.8571  -20.4217   21.1528 C   0  0  0  0  0  0  0  0  0  0  0  0
    7.8812  -20.5944   20.3405 N   0  0  0  0  0  0  0  0  0  0  0  0
    8.5769  -20.0539   22.5060 N   0  0  0  0  0  0  0  0  0  0  0  0
    7.4847  -19.1538   22.8238 C   0  0  0  0  0  0  0  0  0  0  0  0
    7.9358  -17.6972   22.6476 C   0  0  0  0  0  0  0  0  0  0  0  0
    6.8099  -16.7576   23.0254 C   0  0  0  0  0  0  0  0  0  0  0  0
    7.2344  -15.3690   22.7545 C   0  0  2  0  0  0  0  0  0  0  0  0
    7.8951  -15.1101   21.5212 N   0  0  0  0  0  0  0  0  0  0  0  0
    8.1062  -14.8935   23.8551 C   0  0  0  0  0  0  0  0  0  0  0  0
    9.3613  -14.9880   23.6625 O   0  0  0  0  0  0  0  0  0  0  0  0
    6.9250  -20.3401   20.6236 C   0  0  0  0  0  0  0  0  0  0  0  0
    8.0521  -12.7256   26.8450 C   0  0  1  0  0  0  0  0  0  0  0  0
    8.5870  -13.9281   26.0700 N   0  0  0  0  0  0  0  0  0  0  0  0
    7.6202  -14.3563   25.0724 C   0  0  0  0  0  0  0  0  0  0  0  0
    8.7881  -15.0529   27.0282 O   0  0  0  0  0  0  0  0  0  0  0  0
    9.6105  -14.9346   27.9985 O   0  0  0  0  0  0  0  0  0  0  0  0
  2  1  1  6
  2  3  1  0
  4  2  1  0
  4  6  1  0
  4  5  1  6
  6  7  2  0
  8  9  1  0
  9 11  1  0
 10  9  2  0
 11 12  1  0
 12 13  1  0
 13 14  1  0
 15 14  1  1
 16  6  1  0
 16 15  1  0
 17 21  1  0
 17 15  1  0
 18 17  2  0
 20 21  1  0
 20 19  1  6
 22 20  1  0
 22 24  1  0
 23 22  2  0
M  END
$$$$
