TRA.pdb
     RDKit          3D

 24 23  0  0  1  0  0  0  0  0999 V2000
    9.5387  -22.1792   20.8488 C   0  0  0  0  0  0  0  0  0  0  0  0
    9.7455  -21.9551   19.3643 C   0  0  1  0  0  0  0  0  0  0  0  0
    9.3510  -23.0581   18.6374 O   0  0  0  0  0  0  0  0  0  0  0  0
    9.1741  -20.6518   18.8919 C   0  0  2  0  0  0  0  0  0  0  0  0
    9.3573  -20.5752   17.4592 N   0  0  0  0  0  0  0  0  0  0  0  0
    9.7175  -19.4826   19.6243 C   0  0  0  0  0  0  0  0  0  0  0  0
   10.9200  -19.2125   19.4469 O   0  0  0  0  0  0  0  0  0  0  0  0
    7.5816  -11.9015   18.8250 N   0  0  0  0  0  0  0  0  0  0  0  0
    8.6081  -12.5186   19.6241 C   0  0  0  0  0  0  0  0  0  0  0  0
    9.5466  -11.8224   20.1502 N   0  0  0  0  0  0  0  0  0  0  0  0
    8.5884  -13.9321   19.8393 N   0  0  0  0  0  0  0  0  0  0  0  0
    7.3950  -14.5959   20.3286 C   0  0  0  0  0  0  0  0  0  0  0  0
    7.6117  -16.1153   20.3537 C   0  0  0  0  0  0  0  0  0  0  0  0
    8.4208  -16.5024   21.5739 C   0  0  0  0  0  0  0  0  0  0  0  0
    9.4380  -17.4975   21.1776 C   0  0  2  0  0  0  0  0  0  0  0  0
    8.9898  -18.6626   20.4949 N   0  0  0  0  0  0  0  0  0  0  0  0
   10.2030  -17.9271   22.3725 C   0  0  0  0  0  0  0  0  0  0  0  0
    9.6439  -18.7932   23.1198 O   0  0  0  0  0  0  0  0  0  0  0  0
   10.3061  -12.2883   20.6652 C   0  0  0  0  0  0  0  0  0  0  0  0
   13.6069  -17.5190   23.9279 C   0  0  1  0  0  0  0  0  0  0  0  0
   12.1533  -17.9853   23.8764 N   0  0  0  0  0  0  0  0  0  0  0  0
   11.4869  -17.4321   22.7087 C   0  0  0  0  0  0  0  0  0  0  0  0
   11.4532  -17.4754   25.0903 O   0  0  0  0  0  0  0  0  0  0  0  0
   10.5707  -16.5574   24.9883 O   0  0  0  0  0  0  0  0  0  0  0  0
  2  1  1  1
  2  3  1  0
  4  2  1  0
  4  6  1  0
  4  5  1  6
  6  7  2  0
  8  9  1  0
  9 11  1  0
 10  9  2  0
 11 12  1  0
 12 13  1  0
 13 14  1  0
 15 14  1  1
 16  6  1  0
 16 15  1  0
 17 21  1  0
 17 15  1  0
 18 17  2  0
 20 21  1  0
 20 19  1  6
 22 20  1  0
 22 24  1  0
 23 22  2  0
M  END
$$$$
