TRA.pdb
     RDKit          3D

 24 23  0  0  1  0  0  0  0  0999 V2000
    3.3396  -17.4724   22.0203 C   0  0  0  0  0  0  0  0  0  0  0  0
    3.0866  -18.9623   21.9073 C   0  0  1  0  0  0  0  0  0  0  0  0
    1.8016  -19.2150   21.4767 O   0  0  0  0  0  0  0  0  0  0  0  0
    4.1600  -19.6736   21.1390 C   0  0  2  0  0  0  0  0  0  0  0  0
    3.7913  -21.0688   21.0408 N   0  0  0  0  0  0  0  0  0  0  0  0
    5.5149  -19.4546   21.7003 C   0  0  0  0  0  0  0  0  0  0  0  0
    5.8127  -20.0940   22.7264 O   0  0  0  0  0  0  0  0  0  0  0  0
    8.1794  -13.2689   20.9924 N   0  0  0  0  0  0  0  0  0  0  0  0
    7.9183  -13.2582   19.5765 C   0  0  0  0  0  0  0  0  0  0  0  0
    7.3779  -12.2438   19.0099 N   0  0  0  0  0  0  0  0  0  0  0  0
    8.2641  -14.3950   18.7810 N   0  0  0  0  0  0  0  0  0  0  0  0
    8.9489  -15.5333   19.3638 C   0  0  0  0  0  0  0  0  0  0  0  0
    8.0246  -16.2500   20.3579 C   0  0  0  0  0  0  0  0  0  0  0  0
    8.6929  -17.5082   20.8710 C   0  0  0  0  0  0  0  0  0  0  0  0
    7.7405  -18.2390   21.7316 C   0  0  2  0  0  0  0  0  0  0  0  0
    6.4809  -18.5906   21.1709 N   0  0  0  0  0  0  0  0  0  0  0  0
    7.4949  -17.4623   22.9702 C   0  0  0  0  0  0  0  0  0  0  0  0
    6.7372  -16.4451   22.8581 O   0  0  0  0  0  0  0  0  0  0  0  0
    7.2694  -12.2232   17.9867 C   0  0  0  0  0  0  0  0  0  0  0  0
    6.8906  -17.3735   26.3469 C   0  0  2  0  0  0  0  0  0  0  0  0
    7.8896  -16.8416   25.3213 N   0  0  0  0  0  0  0  0  0  0  0  0
    8.0484  -17.7911   24.2319 C   0  0  0  0  0  0  0  0  0  0  0  0
    9.2125  -16.6851   25.9916 O   0  0  0  0  0  0  0  0  0  0  0  0
   10.2097  -17.3941   25.6244 O   0  0  0  0  0  0  0  0  0  0  0  0
  2  1  1  6
  2  3  1  0
  4  2  1  0
  4  6  1  0
  4  5  1  1
  6  7  2  0
  8  9  1  0
  9 11  1  0
 10  9  2  0
 11 12  1  0
 12 13  1  0
 13 14  1  0
 15 14  1  6
 16  6  1  0
 16 15  1  0
 17 21  1  0
 17 15  1  0
 18 17  2  0
 20 21  1  0
 20 19  1  6
 22 20  1  0
 22 24  1  0
 23 22  2  0
M  END
$$$$
