TRA.pdb
     RDKit          3D

 24 23  0  0  1  0  0  0  0  0999 V2000
    8.5342  -12.0174   19.9248 C   0  0  0  0  0  0  0  0  0  0  0  0
    7.8793  -12.9087   18.8888 C   0  0  1  0  0  0  0  0  0  0  0  0
    7.9522  -12.3444   17.6330 O   0  0  0  0  0  0  0  0  0  0  0  0
    8.3502  -14.3300   18.9693 C   0  0  2  0  0  0  0  0  0  0  0  0
    7.7055  -15.0763   17.9111 N   0  0  0  0  0  0  0  0  0  0  0  0
    8.1653  -14.9253   20.3147 C   0  0  0  0  0  0  0  0  0  0  0  0
    7.0356  -15.3735   20.5850 O   0  0  0  0  0  0  0  0  0  0  0  0
   14.9685  -14.7693   23.1245 N   0  0  0  0  0  0  0  0  0  0  0  0
   14.4602  -15.3974   21.9328 C   0  0  0  0  0  0  0  0  0  0  0  0
   14.7083  -14.9149   20.7719 N   0  0  0  0  0  0  0  0  0  0  0  0
   13.6635  -16.5803   22.0369 N   0  0  0  0  0  0  0  0  0  0  0  0
   12.6893  -16.7328   23.1008 C   0  0  0  0  0  0  0  0  0  0  0  0
   11.4938  -15.8015   22.8560 C   0  0  0  0  0  0  0  0  0  0  0  0
   10.2030  -16.5914   22.9114 C   0  0  0  0  0  0  0  0  0  0  0  0
    9.0814  -15.7011   22.5486 C   0  0  2  0  0  0  0  0  0  0  0  0
    9.1551  -15.0229   21.3000 N   0  0  0  0  0  0  0  0  0  0  0  0
    8.8875  -14.6888   23.6142 C   0  0  0  0  0  0  0  0  0  0  0  0
    9.6594  -13.6768   23.5790 O   0  0  0  0  0  0  0  0  0  0  0  0
   14.3314  -15.3752   19.9320 C   0  0  0  0  0  0  0  0  0  0  0  0
    6.3159  -13.3376   25.7830 C   0  0  2  0  0  0  0  0  0  0  0  0
    7.7865  -13.6979   25.5825 N   0  0  0  0  0  0  0  0  0  0  0  0
    7.9130  -14.7946   24.6367 C   0  0  0  0  0  0  0  0  0  0  0  0
    8.3414  -14.1517   26.8901 O   0  0  0  0  0  0  0  0  0  0  0  0
    8.6948  -15.3684   27.0537 O   0  0  0  0  0  0  0  0  0  0  0  0
  2  1  1  1
  2  3  1  0
  4  2  1  0
  4  6  1  0
  4  5  1  6
  6  7  2  0
  8  9  1  0
  9 11  1  0
 10  9  2  0
 11 12  1  0
 12 13  1  0
 13 14  1  0
 15 14  1  1
 16  6  1  0
 16 15  1  0
 17 21  1  0
 17 15  1  0
 18 17  2  0
 20 21  1  0
 20 19  1  6
 22 20  1  0
 22 24  1  0
 23 22  2  0
M  END
$$$$
