TRA.pdb
     RDKit          3D

 24 23  0  0  1  0  0  0  0  0999 V2000
    6.9407  -14.3251   16.2096 C   0  0  0  0  0  0  0  0  0  0  0  0
    7.8573  -14.5812   17.3889 C   0  0  1  0  0  0  0  0  0  0  0  0
    9.1671  -14.7112   16.9787 O   0  0  0  0  0  0  0  0  0  0  0  0
    7.6415  -13.6090   18.5099 C   0  0  2  0  0  0  0  0  0  0  0  0
    7.8906  -12.2776   18.0026 N   0  0  0  0  0  0  0  0  0  0  0  0
    8.4282  -13.9403   19.7223 C   0  0  0  0  0  0  0  0  0  0  0  0
    9.5038  -13.3340   19.8824 O   0  0  0  0  0  0  0  0  0  0  0  0
    7.7551  -19.4833   26.9177 N   0  0  0  0  0  0  0  0  0  0  0  0
    8.9002  -18.6266   27.0845 C   0  0  0  0  0  0  0  0  0  0  0  0
    9.5785  -18.6310   28.1716 N   0  0  0  0  0  0  0  0  0  0  0  0
    9.2945  -17.7520   26.0240 N   0  0  0  0  0  0  0  0  0  0  0  0
    8.4179  -17.5059   24.8947 C   0  0  0  0  0  0  0  0  0  0  0  0
    9.0464  -16.4640   23.9589 C   0  0  0  0  0  0  0  0  0  0  0  0
    8.0867  -16.1319   22.8356 C   0  0  0  0  0  0  0  0  0  0  0  0
    8.7564  -15.2166   21.8891 C   0  0  2  0  0  0  0  0  0  0  0  0
    8.0594  -14.8758   20.6964 N   0  0  0  0  0  0  0  0  0  0  0  0
   10.0765  -15.7745   21.5102 C   0  0  0  0  0  0  0  0  0  0  0  0
   10.0604  -16.8407   20.8142 O   0  0  0  0  0  0  0  0  0  0  0  0
   10.4156  -18.0386   28.2582 C   0  0  0  0  0  0  0  0  0  0  0  0
   13.4313  -14.8345   20.7014 C   0  0  1  0  0  0  0  0  0  0  0  0
   12.5378  -15.8381   21.4276 N   0  0  0  0  0  0  0  0  0  0  0  0
   11.3149  -15.1927   21.8765 C   0  0  0  0  0  0  0  0  0  0  0  0
   13.2667  -16.3307   22.6317 O   0  0  0  0  0  0  0  0  0  0  0  0
   12.7864  -16.1393   23.7998 O   0  0  0  0  0  0  0  0  0  0  0  0
  2  1  1  6
  2  3  1  0
  4  2  1  0
  4  6  1  0
  4  5  1  6
  6  7  2  0
  8  9  1  0
  9 11  1  0
 10  9  2  0
 11 12  1  0
 12 13  1  0
 13 14  1  0
 15 14  1  6
 16  6  1  0
 16 15  1  0
 17 21  1  0
 17 15  1  0
 18 17  2  0
 20 21  1  0
 20 19  1  6
 22 20  1  0
 22 24  1  0
 23 22  2  0
M  END
$$$$
