TRA.pdb
     RDKit          3D

 24 23  0  0  1  0  0  0  0  0999 V2000
    9.5299  -13.2306   18.8872 C   0  0  0  0  0  0  0  0  0  0  0  0
    8.7804  -13.3622   20.1978 C   0  0  1  0  0  0  0  0  0  0  0  0
    8.0591  -12.2199   20.4724 O   0  0  0  0  0  0  0  0  0  0  0  0
    7.9988  -14.6385   20.2904 C   0  0  2  0  0  0  0  0  0  0  0  0
    7.0502  -14.6633   19.1987 N   0  0  0  0  0  0  0  0  0  0  0  0
    7.3788  -14.8418   21.6218 C   0  0  0  0  0  0  0  0  0  0  0  0
    6.2340  -14.3816   21.7894 O   0  0  0  0  0  0  0  0  0  0  0  0
    9.6016  -20.4605   23.9534 N   0  0  0  0  0  0  0  0  0  0  0  0
    8.3405  -20.9001   23.4155 C   0  0  0  0  0  0  0  0  0  0  0  0
    8.2892  -21.7191   22.4312 N   0  0  0  0  0  0  0  0  0  0  0  0
    7.1190  -20.4195   23.9827 N   0  0  0  0  0  0  0  0  0  0  0  0
    7.1217  -19.3542   24.9673 C   0  0  0  0  0  0  0  0  0  0  0  0
    6.7744  -18.0179   24.2966 C   0  0  0  0  0  0  0  0  0  0  0  0
    7.7788  -16.9594   24.7013 C   0  0  0  0  0  0  0  0  0  0  0  0
    7.4493  -15.6973   24.0082 C   0  0  2  0  0  0  0  0  0  0  0  0
    7.9751  -15.5067   22.6999 N   0  0  0  0  0  0  0  0  0  0  0  0
    7.8666  -14.5480   24.8465 C   0  0  0  0  0  0  0  0  0  0  0  0
    9.0890  -14.2016   24.7619 O   0  0  0  0  0  0  0  0  0  0  0  0
    7.3781  -22.0347   22.0714 C   0  0  0  0  0  0  0  0  0  0  0  0
    6.4179  -11.7585   26.8579 C   0  0  1  0  0  0  0  0  0  0  0  0
    7.5335  -12.7283   26.4732 N   0  0  0  0  0  0  0  0  0  0  0  0
    6.9936  -13.8412   25.7096 C   0  0  0  0  0  0  0  0  0  0  0  0
    8.1318  -13.2761   27.7245 O   0  0  0  0  0  0  0  0  0  0  0  0
    7.9603  -14.5024   28.0385 O   0  0  0  0  0  0  0  0  0  0  0  0
  2  1  1  6
  2  3  1  0
  4  2  1  0
  4  6  1  0
  4  5  1  6
  6  7  2  0
  8  9  1  0
  9 11  1  0
 10  9  2  0
 11 12  1  0
 12 13  1  0
 13 14  1  0
 15 14  1  1
 16  6  1  0
 16 15  1  0
 17 21  1  0
 17 15  1  0
 18 17  2  0
 20 21  1  0
 20 19  1  6
 22 20  1  0
 22 24  1  0
 23 22  2  0
M  END
$$$$
