TRA.pdb
     RDKit          3D

 24 23  0  0  1  0  0  0  0  0999 V2000
    9.2202  -22.1987   21.0466 C   0  0  0  0  0  0  0  0  0  0  0  0
    9.6166  -20.7394   21.1463 C   0  0  1  0  0  0  0  0  0  0  0  0
   10.4819  -20.5323   22.1994 O   0  0  0  0  0  0  0  0  0  0  0  0
   10.0734  -20.1742   19.8347 C   0  0  2  0  0  0  0  0  0  0  0  0
   11.1903  -20.9670   19.3698 N   0  0  0  0  0  0  0  0  0  0  0  0
   10.3616  -18.7212   19.9000 C   0  0  0  0  0  0  0  0  0  0  0  0
   11.5372  -18.3674   19.6920 O   0  0  0  0  0  0  0  0  0  0  0  0
    7.1930  -14.8902   17.4951 N   0  0  0  0  0  0  0  0  0  0  0  0
    7.5781  -13.5326   17.2094 C   0  0  0  0  0  0  0  0  0  0  0  0
    7.7121  -13.1216   16.0030 N   0  0  0  0  0  0  0  0  0  0  0  0
    7.8178  -12.6202   18.2840 N   0  0  0  0  0  0  0  0  0  0  0  0
    7.7611  -13.0618   19.6646 C   0  0  0  0  0  0  0  0  0  0  0  0
    8.9413  -13.9957   19.9664 C   0  0  0  0  0  0  0  0  0  0  0  0
    8.4802  -15.4379   19.9375 C   0  0  0  0  0  0  0  0  0  0  0  0
    9.6327  -16.3146   20.2293 C   0  0  2  0  0  0  0  0  0  0  0  0
    9.4219  -17.7207   20.1753 N   0  0  0  0  0  0  0  0  0  0  0  0
   10.1843  -15.9804   21.5641 C   0  0  0  0  0  0  0  0  0  0  0  0
   10.6221  -14.7940   21.7133 O   0  0  0  0  0  0  0  0  0  0  0  0
    7.9598  -12.1399   15.8185 C   0  0  0  0  0  0  0  0  0  0  0  0
    9.8901  -16.8650   25.0666 C   0  0  2  0  0  0  0  0  0  0  0  0
   10.7869  -16.4262   23.9107 N   0  0  0  0  0  0  0  0  0  0  0  0
   10.2441  -16.8932   22.6455 C   0  0  0  0  0  0  0  0  0  0  0  0
   12.1287  -17.0503   24.0941 O   0  0  0  0  0  0  0  0  0  0  0  0
   12.5412  -17.9443   23.2802 O   0  0  0  0  0  0  0  0  0  0  0  0
  2  1  1  6
  2  3  1  0
  4  2  1  0
  4  6  1  0
  4  5  1  1
  6  7  2  0
  8  9  1  0
  9 11  1  0
 10  9  2  0
 11 12  1  0
 12 13  1  0
 13 14  1  0
 15 14  1  1
 16  6  1  0
 16 15  1  0
 17 21  1  0
 17 15  1  0
 18 17  2  0
 20 21  1  0
 20 19  1  6
 22 20  1  0
 22 24  1  0
 23 22  2  0
M  END
$$$$
