TRA.pdb
     RDKit          3D

 24 23  0  0  1  0  0  0  0  0999 V2000
    8.6843  -12.2022   20.3030 C   0  0  0  0  0  0  0  0  0  0  0  0
    7.9619  -12.7478   19.0876 C   0  0  1  0  0  0  0  0  0  0  0  0
    7.8036  -11.7722   18.1264 O   0  0  0  0  0  0  0  0  0  0  0  0
    8.5562  -14.0316   18.5907 C   0  0  2  0  0  0  0  0  0  0  0  0
    7.8784  -14.3946   17.3656 N   0  0  0  0  0  0  0  0  0  0  0  0
    8.5516  -15.1051   19.6135 C   0  0  0  0  0  0  0  0  0  0  0  0
    7.5112  -15.7806   19.7205 O   0  0  0  0  0  0  0  0  0  0  0  0
   14.4828  -19.1340   19.4420 N   0  0  0  0  0  0  0  0  0  0  0  0
   13.5303  -19.3260   18.3795 C   0  0  0  0  0  0  0  0  0  0  0  0
   13.9078  -19.4077   17.1576 N   0  0  0  0  0  0  0  0  0  0  0  0
   12.1367  -19.4280   18.6835 N   0  0  0  0  0  0  0  0  0  0  0  0
   11.6651  -19.3625   20.0537 C   0  0  0  0  0  0  0  0  0  0  0  0
   10.5333  -18.3321   20.1712 C   0  0  0  0  0  0  0  0  0  0  0  0
   10.7858  -17.4188   21.3525 C   0  0  0  0  0  0  0  0  0  0  0  0
    9.6803  -16.4437   21.4481 C   0  0  2  0  0  0  0  0  0  0  0  0
    9.6188  -15.4181   20.4639 N   0  0  0  0  0  0  0  0  0  0  0  0
    9.6997  -15.8021   22.7844 C   0  0  0  0  0  0  0  0  0  0  0  0
   10.7670  -15.1828   23.0981 O   0  0  0  0  0  0  0  0  0  0  0  0
   13.2326  -19.6712   16.4270 C   0  0  0  0  0  0  0  0  0  0  0  0
    7.4140  -14.7161   25.5036 C   0  0  2  0  0  0  0  0  0  0  0  0
    8.7723  -15.1778   24.9796 N   0  0  0  0  0  0  0  0  0  0  0  0
    8.6181  -15.8464   23.6980 C   0  0  0  0  0  0  0  0  0  0  0  0
    9.3390  -16.1615   25.9464 O   0  0  0  0  0  0  0  0  0  0  0  0
    9.4409  -17.3944   25.6275 O   0  0  0  0  0  0  0  0  0  0  0  0
  2  1  1  1
  2  3  1  0
  4  2  1  0
  4  6  1  0
  4  5  1  6
  6  7  2  0
  8  9  1  0
  9 11  1  0
 10  9  2  0
 11 12  1  0
 12 13  1  0
 13 14  1  0
 15 14  1  6
 16  6  1  0
 16 15  1  0
 17 21  1  0
 17 15  1  0
 18 17  2  0
 20 21  1  0
 20 19  1  6
 22 20  1  0
 22 24  1  0
 23 22  2  0
M  END
$$$$
