WVK.pdb
     RDKit          3D

 31 32  0  0  1  0  0  0  0  0999 V2000
    6.0141  -18.2382   25.0581 N   0  0  0  0  0  0  0  0  0  0  0  0
    6.4773  -16.9016   24.7428 C   0  0  1  0  0  0  0  0  0  0  0  0
    7.1324  -16.3396   25.9663 C   0  0  0  0  0  0  0  0  0  0  0  0
    6.4070  -15.0897   26.3148 C   0  0  0  0  0  0  0  0  0  0  0  0
    5.0768  -14.9388   26.6200 C   0  0  0  0  0  0  0  0  0  0  0  0
    4.7887  -13.6558   26.8786 N   0  0  0  0  0  0  0  0  0  0  0  0
    5.9183  -12.9427   26.7489 C   0  0  0  0  0  0  0  0  0  0  0  0
    6.2482  -11.6112   26.8844 C   0  0  0  0  0  0  0  0  0  0  0  0
    7.5135  -11.1229   26.6920 C   0  0  0  0  0  0  0  0  0  0  0  0
    8.5092  -12.0062   26.3450 C   0  0  0  0  0  0  0  0  0  0  0  0
    8.2473  -13.3568   26.1920 C   0  0  0  0  0  0  0  0  0  0  0  0
    6.9600  -13.8062   26.3952 C   0  0  0  0  0  0  0  0  0  0  0  0
    7.3513  -16.8877   23.5441 C   0  0  0  0  0  0  0  0  0  0  0  0
    8.1599  -17.8067   23.2772 O   0  0  0  0  0  0  0  0  0  0  0  0
    9.0354  -14.1314   19.6941 C   0  0  0  0  0  0  0  0  0  0  0  0
    8.0613  -14.3034   20.8368 C   0  0  1  0  0  0  0  0  0  0  0  0
    6.6573  -14.2195   20.3070 C   0  0  0  0  0  0  0  0  0  0  0  0
    8.3167  -15.5424   21.6334 C   0  0  2  0  0  0  0  0  0  0  0  0
    7.3008  -15.8044   22.6345 N   0  0  0  0  0  0  0  0  0  0  0  0
    9.6695  -15.4316   22.2432 C   0  0  0  0  0  0  0  0  0  0  0  0
    9.9115  -14.7038   23.2327 O   0  0  0  0  0  0  0  0  0  0  0  0
   10.7088  -16.1863   21.6679 N   0  0  0  0  0  0  0  0  0  0  0  0
   12.0008  -16.4151   22.4488 C   0  0  1  0  0  0  0  0  0  0  0  0
   11.7276  -17.6685   23.1965 C   0  0  0  0  0  0  0  0  0  0  0  0
   12.2321  -17.9422   24.5325 C   0  0  0  0  0  0  0  0  0  0  0  0
   11.8672  -19.2082   25.1821 C   0  0  0  0  0  0  0  0  0  0  0  0
   12.6954  -19.2564   26.5019 C   0  0  0  0  0  0  0  0  0  0  0  0
   12.1455  -20.3233   27.2934 N   0  0  0  0  0  0  0  0  0  0  0  0
   13.0465  -16.4820   21.4126 C   0  0  0  0  0  0  0  0  0  0  0  0
   14.2699  -16.2244   21.7640 O   0  0  0  0  0  0  0  0  0  0  0  0
   12.8755  -16.7994   20.0889 O   0  0  0  0  0  0  0  0  0  0  0  0
  2  1  1  1
  2  3  1  0
  3  4  1  0
  4  5  2  0
  5  6  1  0
  7  6  1  0
  8  7  2  0
  9  8  1  0
 10 11  1  0
 10  9  2  0
 11 12  2  0
 12  4  1  0
 12  7  1  0
 13  2  1  0
 13 19  1  0
 14 13  2  0
 16 15  1  6
 17 16  1  0
 18 19  1  1
 18 16  1  0
 20 18  1  0
 21 20  2  0
 22 20  1  0
 23 29  1  0
 23 22  1  0
 23 24  1  6
 25 24  1  0
 25 26  1  0
 26 27  1  0
 27 28  1  0
 29 31  1  0
 30 29  2  0
M  END
$$$$
