WVK.pdb
     RDKit          3D

 31 32  0  0  1  0  0  0  0  0999 V2000
   13.8870  -13.9334   18.0714 N   0  0  0  0  0  0  0  0  0  0  0  0
   12.9737  -15.0432   18.2576 C   0  0  1  0  0  0  0  0  0  0  0  0
   13.7874  -16.2924   18.3956 C   0  0  0  0  0  0  0  0  0  0  0  0
   14.3564  -16.5931   17.0555 C   0  0  0  0  0  0  0  0  0  0  0  0
   15.5751  -16.2156   16.5481 C   0  0  0  0  0  0  0  0  0  0  0  0
   15.7352  -16.6742   15.2991 N   0  0  0  0  0  0  0  0  0  0  0  0
   14.6304  -17.3583   14.9637 C   0  0  0  0  0  0  0  0  0  0  0  0
   14.2146  -18.0439   13.8424 C   0  0  0  0  0  0  0  0  0  0  0  0
   13.0031  -18.6765   13.7495 C   0  0  0  0  0  0  0  0  0  0  0  0
   12.1548  -18.6262   14.8312 C   0  0  0  0  0  0  0  0  0  0  0  0
   12.5092  -17.9548   15.9887 C   0  0  0  0  0  0  0  0  0  0  0  0
   13.7379  -17.3319   16.0400 C   0  0  0  0  0  0  0  0  0  0  0  0
   12.0470  -14.8120   19.3929 C   0  0  0  0  0  0  0  0  0  0  0  0
   12.4353  -14.6865   20.5774 O   0  0  0  0  0  0  0  0  0  0  0  0
    7.3667  -13.7184   20.8069 C   0  0  0  0  0  0  0  0  0  0  0  0
    8.3575  -14.0045   19.7020 C   0  0  1  0  0  0  0  0  0  0  0  0
    8.4589  -12.8028   18.8050 C   0  0  0  0  0  0  0  0  0  0  0  0
    9.6821  -14.4672   20.2181 C   0  0  2  0  0  0  0  0  0  0  0  0
   10.6519  -14.7232   19.1708 N   0  0  0  0  0  0  0  0  0  0  0  0
    9.4565  -15.6726   21.0608 C   0  0  0  0  0  0  0  0  0  0  0  0
    9.1364  -16.7851   20.5842 O   0  0  0  0  0  0  0  0  0  0  0  0
    9.6153  -15.5352   22.4525 N   0  0  0  0  0  0  0  0  0  0  0  0
    9.4549  -16.7546   23.3573 C   0  0  1  0  0  0  0  0  0  0  0  0
   10.3401  -16.4421   24.5077 C   0  0  0  0  0  0  0  0  0  0  0  0
   10.4817  -17.2945   25.6771 C   0  0  0  0  0  0  0  0  0  0  0  0
   11.4653  -16.9294   26.7052 C   0  0  0  0  0  0  0  0  0  0  0  0
   11.2954  -17.9831   27.8414 C   0  0  0  0  0  0  0  0  0  0  0  0
   12.3315  -17.7210   28.8032 N   0  0  0  0  0  0  0  0  0  0  0  0
    8.0093  -16.8140   23.6369 C   0  0  0  0  0  0  0  0  0  0  0  0
    7.3185  -15.7217   23.5093 O   0  0  0  0  0  0  0  0  0  0  0  0
    7.2887  -17.9172   24.0189 O   0  0  0  0  0  0  0  0  0  0  0  0
  2  1  1  1
  2  3  1  0
  3  4  1  0
  4  5  2  0
  5  6  1  0
  7  6  1  0
  8  7  2  0
  9  8  1  0
 10 11  1  0
 10  9  2  0
 11 12  2  0
 12  4  1  0
 12  7  1  0
 13  2  1  0
 13 19  1  0
 14 13  2  0
 16 15  1  1
 17 16  1  0
 18 19  1  6
 18 16  1  0
 20 18  1  0
 21 20  2  0
 22 20  1  0
 23 29  1  0
 23 22  1  0
 23 24  1  1
 25 24  1  0
 25 26  1  0
 26 27  1  0
 27 28  1  0
 29 31  1  0
 30 29  2  0
M  END
$$$$
