WVK.pdb
     RDKit          3D

 31 32  0  0  1  0  0  0  0  0999 V2000
    5.8972  -17.9969   24.6201 N   0  0  0  0  0  0  0  0  0  0  0  0
    6.6145  -16.7573   24.3984 C   0  0  1  0  0  0  0  0  0  0  0  0
    7.6657  -16.6365   25.4578 C   0  0  0  0  0  0  0  0  0  0  0  0
    7.1820  -15.6308   26.4400 C   0  0  0  0  0  0  0  0  0  0  0  0
    6.5902  -15.8530   27.6589 C   0  0  0  0  0  0  0  0  0  0  0  0
    6.2878  -14.6947   28.2612 N   0  0  0  0  0  0  0  0  0  0  0  0
    6.6733  -13.6943   27.4538 C   0  0  0  0  0  0  0  0  0  0  0  0
    6.6297  -12.3183   27.5222 C   0  0  0  0  0  0  0  0  0  0  0  0
    7.1052  -11.4972   26.5341 C   0  0  0  0  0  0  0  0  0  0  0  0
    7.6555  -12.0742   25.4133 C   0  0  0  0  0  0  0  0  0  0  0  0
    7.7308  -13.4499   25.2794 C   0  0  0  0  0  0  0  0  0  0  0  0
    7.2406  -14.2395   26.2976 C   0  0  0  0  0  0  0  0  0  0  0  0
    7.1522  -16.6687   23.0184 C   0  0  0  0  0  0  0  0  0  0  0  0
    7.3577  -17.6738   22.2993 O   0  0  0  0  0  0  0  0  0  0  0  0
    8.4709  -13.7134   19.1976 C   0  0  0  0  0  0  0  0  0  0  0  0
    7.8087  -13.8895   20.5448 C   0  0  1  0  0  0  0  0  0  0  0  0
    6.3487  -13.5529   20.4261 C   0  0  0  0  0  0  0  0  0  0  0  0
    8.0551  -15.2391   21.1387 C   0  0  2  0  0  0  0  0  0  0  0  0
    7.4607  -15.4095   22.4504 N   0  0  0  0  0  0  0  0  0  0  0  0
    9.5247  -15.4711   21.1702 C   0  0  0  0  0  0  0  0  0  0  0  0
   10.2623  -15.2941   20.1742 O   0  0  0  0  0  0  0  0  0  0  0  0
   10.0908  -15.9082   22.3824 N   0  0  0  0  0  0  0  0  0  0  0  0
   11.6051  -16.0661   22.4977 C   0  0  1  0  0  0  0  0  0  0  0  0
   11.7869  -16.5969   23.8724 C   0  0  0  0  0  0  0  0  0  0  0  0
   11.4885  -15.8426   25.0792 C   0  0  0  0  0  0  0  0  0  0  0  0
   11.6804  -16.4888   26.3843 C   0  0  0  0  0  0  0  0  0  0  0  0
   11.3060  -15.4101   27.4456 C   0  0  0  0  0  0  0  0  0  0  0  0
   11.4649  -16.0285   28.7338 N   0  0  0  0  0  0  0  0  0  0  0  0
   11.9630  -16.9706   21.3908 C   0  0  0  0  0  0  0  0  0  0  0  0
   13.1920  -16.9636   20.9712 O   0  0  0  0  0  0  0  0  0  0  0  0
   11.1308  -17.8460   20.7402 O   0  0  0  0  0  0  0  0  0  0  0  0
  2  1  1  6
  2  3  1  0
  3  4  1  0
  4  5  2  0
  5  6  1  0
  7  6  1  0
  8  7  2  0
  9  8  1  0
 10 11  1  0
 10  9  2  0
 11 12  2  0
 12  4  1  0
 12  7  1  0
 13  2  1  0
 13 19  1  0
 14 13  2  0
 16 15  1  6
 17 16  1  0
 18 19  1  1
 18 16  1  0
 20 18  1  0
 21 20  2  0
 22 20  1  0
 23 29  1  0
 23 22  1  0
 23 24  1  1
 25 24  1  0
 25 26  1  0
 26 27  1  0
 27 28  1  0
 29 31  1  0
 30 29  2  0
M  END
$$$$
