WVK.pdb
     RDKit          3D

 31 32  0  0  1  0  0  0  0  0999 V2000
    6.2853  -17.9640   24.9692 N   0  0  0  0  0  0  0  0  0  0  0  0
    6.7739  -16.6651   24.5514 C   0  0  1  0  0  0  0  0  0  0  0  0
    7.4922  -16.0475   25.7109 C   0  0  0  0  0  0  0  0  0  0  0  0
    6.6282  -14.9534   26.2270 C   0  0  0  0  0  0  0  0  0  0  0  0
    5.3213  -15.0293   26.6411 C   0  0  0  0  0  0  0  0  0  0  0  0
    4.8760  -13.8296   27.0392 N   0  0  0  0  0  0  0  0  0  0  0  0
    5.8767  -12.9470   26.8950 C   0  0  0  0  0  0  0  0  0  0  0  0
    6.0233  -11.5967   27.1303 C   0  0  0  0  0  0  0  0  0  0  0  0
    7.1846  -10.9100   26.8929 C   0  0  0  0  0  0  0  0  0  0  0  0
    8.2628  -11.6025   26.3929 C   0  0  0  0  0  0  0  0  0  0  0  0
    8.1845  -12.9599   26.1334 C   0  0  0  0  0  0  0  0  0  0  0  0
    6.9968  -13.6125   26.3870 C   0  0  0  0  0  0  0  0  0  0  0  0
    7.6004  -16.7544   23.3226 C   0  0  0  0  0  0  0  0  0  0  0  0
    8.3519  -17.7254   23.0734 O   0  0  0  0  0  0  0  0  0  0  0  0
    6.8963  -14.4029   19.8492 C   0  0  0  0  0  0  0  0  0  0  0  0
    8.2943  -14.3821   20.4234 C   0  0  1  0  0  0  0  0  0  0  0  0
    8.5398  -13.0527   21.0800 C   0  0  0  0  0  0  0  0  0  0  0  0
    8.5670  -15.5432   21.3248 C   0  0  2  0  0  0  0  0  0  0  0  0
    7.5681  -15.7155   22.3618 N   0  0  0  0  0  0  0  0  0  0  0  0
    9.9289  -15.3744   21.9002 C   0  0  0  0  0  0  0  0  0  0  0  0
   10.1504  -14.7132   22.9399 O   0  0  0  0  0  0  0  0  0  0  0  0
   11.0015  -15.9934   21.2314 N   0  0  0  0  0  0  0  0  0  0  0  0
   12.2162  -16.4683   22.0251 C   0  0  1  0  0  0  0  0  0  0  0  0
   11.6802  -17.6026   22.8193 C   0  0  0  0  0  0  0  0  0  0  0  0
   12.4763  -18.3928   23.7445 C   0  0  0  0  0  0  0  0  0  0  0  0
   11.8424  -19.5205   24.4404 C   0  0  0  0  0  0  0  0  0  0  0  0
   12.9573  -20.1409   25.3360 C   0  0  0  0  0  0  0  0  0  0  0  0
   12.3832  -20.3196   26.6420 N   0  0  0  0  0  0  0  0  0  0  0  0
   13.2173  -16.8010   20.9961 C   0  0  0  0  0  0  0  0  0  0  0  0
   14.4263  -16.3545   21.1552 O   0  0  0  0  0  0  0  0  0  0  0  0
   13.0180  -17.5517   19.8652 O   0  0  0  0  0  0  0  0  0  0  0  0
  2  1  1  1
  2  3  1  0
  3  4  1  0
  4  5  2  0
  5  6  1  0
  7  6  1  0
  8  7  2  0
  9  8  1  0
 10 11  1  0
 10  9  2  0
 11 12  2  0
 12  4  1  0
 12  7  1  0
 13  2  1  0
 13 19  1  0
 14 13  2  0
 16 15  1  1
 17 16  1  0
 18 19  1  1
 18 16  1  0
 20 18  1  0
 21 20  2  0
 22 20  1  0
 23 29  1  0
 23 22  1  0
 23 24  1  6
 25 24  1  0
 25 26  1  0
 26 27  1  0
 27 28  1  0
 29 31  1  0
 30 29  2  0
M  END
$$$$
