WVK.pdb
     RDKit          3D

 31 32  0  0  1  0  0  0  0  0999 V2000
    6.7659  -16.7835   25.7794 N   0  0  0  0  0  0  0  0  0  0  0  0
    7.3140  -15.7337   24.9439 C   0  0  1  0  0  0  0  0  0  0  0  0
    8.5797  -15.2502   25.5811 C   0  0  0  0  0  0  0  0  0  0  0  0
    8.1904  -14.3334   26.6846 C   0  0  0  0  0  0  0  0  0  0  0  0
    8.5522  -14.3979   28.0076 C   0  0  0  0  0  0  0  0  0  0  0  0
    8.0005  -13.3940   28.7031 N   0  0  0  0  0  0  0  0  0  0  0  0
    7.2694  -12.6544   27.8547 C   0  0  0  0  0  0  0  0  0  0  0  0
    6.4901  -11.5236   27.9744 C   0  0  0  0  0  0  0  0  0  0  0  0
    5.8280  -10.9474   26.9226 C   0  0  0  0  0  0  0  0  0  0  0  0
    5.9455  -11.5263   25.6804 C   0  0  0  0  0  0  0  0  0  0  0  0
    6.7118  -12.6631   25.4894 C   0  0  0  0  0  0  0  0  0  0  0  0
    7.3617  -13.2105   26.5750 C   0  0  0  0  0  0  0  0  0  0  0  0
    7.4910  -16.1800   23.5401 C   0  0  0  0  0  0  0  0  0  0  0  0
    7.5236  -17.3869   23.2056 O   0  0  0  0  0  0  0  0  0  0  0  0
    6.6628  -13.8831   20.0506 C   0  0  0  0  0  0  0  0  0  0  0  0
    8.0711  -14.4043   20.2223 C   0  0  1  0  0  0  0  0  0  0  0  0
    8.9806  -13.2629   20.5814 C   0  0  0  0  0  0  0  0  0  0  0  0
    8.1522  -15.5464   21.1834 C   0  0  2  0  0  0  0  0  0  0  0  0
    7.6336  -15.2303   22.5002 N   0  0  0  0  0  0  0  0  0  0  0  0
    9.5683  -15.9993   21.2478 C   0  0  0  0  0  0  0  0  0  0  0  0
   10.3935  -15.5360   22.0672 O   0  0  0  0  0  0  0  0  0  0  0  0
    9.9777  -16.9932   20.3392 N   0  0  0  0  0  0  0  0  0  0  0  0
   11.2668  -17.7699   20.5964 C   0  0  1  0  0  0  0  0  0  0  0  0
   10.8690  -19.1788   20.3486 C   0  0  0  0  0  0  0  0  0  0  0  0
   11.7990  -20.2966   20.3514 C   0  0  0  0  0  0  0  0  0  0  0  0
   11.2738  -21.6557   20.1645 C   0  0  0  0  0  0  0  0  0  0  0  0
   12.5158  -22.5963   20.2175 C   0  0  0  0  0  0  0  0  0  0  0  0
   12.2266  -23.6038   21.2015 N   0  0  0  0  0  0  0  0  0  0  0  0
   12.2388  -17.1857   19.6554 C   0  0  0  0  0  0  0  0  0  0  0  0
   11.7964  -16.7486   18.5153 O   0  0  0  0  0  0  0  0  0  0  0  0
   13.5889  -17.0395   19.8506 O   0  0  0  0  0  0  0  0  0  0  0  0
  2  1  1  1
  2  3  1  0
  3  4  1  0
  4  5  2  0
  5  6  1  0
  7  6  1  0
  8  7  2  0
  9  8  1  0
 10 11  1  0
 10  9  2  0
 11 12  2  0
 12  4  1  0
 12  7  1  0
 13  2  1  0
 13 19  1  0
 14 13  2  0
 16 15  1  1
 17 16  1  0
 18 19  1  1
 18 16  1  0
 20 18  1  0
 21 20  2  0
 22 20  1  0
 23 29  1  0
 23 22  1  0
 23 24  1  6
 25 24  1  0
 25 26  1  0
 26 27  1  0
 27 28  1  0
 29 31  1  0
 30 29  2  0
M  END
$$$$
