WVK.pdb
     RDKit          3D

 31 32  0  0  1  0  0  0  0  0999 V2000
    6.2279  -17.5759   24.7138 N   0  0  0  0  0  0  0  0  0  0  0  0
    6.8063  -16.3111   24.3063 C   0  0  1  0  0  0  0  0  0  0  0  0
    7.7934  -15.8965   25.3529 C   0  0  0  0  0  0  0  0  0  0  0  0
    7.0670  -15.0320   26.3199 C   0  0  0  0  0  0  0  0  0  0  0  0
    6.2339  -15.4171   27.3413 C   0  0  0  0  0  0  0  0  0  0  0  0
    5.7606  -14.3501   27.9996 N   0  0  0  0  0  0  0  0  0  0  0  0
    6.2711  -13.2491   27.4264 C   0  0  0  0  0  0  0  0  0  0  0  0
    6.1573  -11.8940   27.6520 C   0  0  0  0  0  0  0  0  0  0  0  0
    6.8021  -10.9463   26.9019 C   0  0  0  0  0  0  0  0  0  0  0  0
    7.6062  -11.3669   25.8681 C   0  0  0  0  0  0  0  0  0  0  0  0
    7.7651  -12.7128   25.5862 C   0  0  0  0  0  0  0  0  0  0  0  0
    7.0981  -13.6333   26.3661 C   0  0  0  0  0  0  0  0  0  0  0  0
    7.3850  -16.3818   22.9419 C   0  0  0  0  0  0  0  0  0  0  0  0
    7.9475  -17.4061   22.4904 O   0  0  0  0  0  0  0  0  0  0  0  0
    8.3738  -12.7648   20.8514 C   0  0  0  0  0  0  0  0  0  0  0  0
    7.7623  -13.9060   20.0715 C   0  0  1  0  0  0  0  0  0  0  0  0
    8.3108  -13.8987   18.6722 C   0  0  0  0  0  0  0  0  0  0  0  0
    7.9180  -15.2248   20.7579 C   0  0  2  0  0  0  0  0  0  0  0  0
    7.3200  -15.2621   22.0785 N   0  0  0  0  0  0  0  0  0  0  0  0
    9.3681  -15.5554   20.8050 C   0  0  0  0  0  0  0  0  0  0  0  0
   10.1317  -15.1377   21.7048 O   0  0  0  0  0  0  0  0  0  0  0  0
    9.8843  -16.3752   19.7840 N   0  0  0  0  0  0  0  0  0  0  0  0
   11.2258  -17.0770   19.9815 C   0  0  1  0  0  0  0  0  0  0  0  0
   10.9656  -18.4520   19.4852 C   0  0  0  0  0  0  0  0  0  0  0  0
   12.0088  -19.4296   19.2203 C   0  0  0  0  0  0  0  0  0  0  0  0
   11.6396  -20.7098   18.6017 C   0  0  0  0  0  0  0  0  0  0  0  0
   12.9693  -21.5135   18.4752 C   0  0  0  0  0  0  0  0  0  0  0  0
   13.1703  -22.1764   19.7352 N   0  0  0  0  0  0  0  0  0  0  0  0
   12.1797  -16.2665   19.2038 C   0  0  0  0  0  0  0  0  0  0  0  0
   13.4236  -16.2647   19.5768 O   0  0  0  0  0  0  0  0  0  0  0  0
   11.9016  -15.5004   18.1003 O   0  0  0  0  0  0  0  0  0  0  0  0
  2  1  1  1
  2  3  1  0
  3  4  1  0
  4  5  2  0
  5  6  1  0
  7  6  1  0
  8  7  2  0
  9  8  1  0
 10 11  1  0
 10  9  2  0
 11 12  2  0
 12  4  1  0
 12  7  1  0
 13  2  1  0
 13 19  1  0
 14 13  2  0
 16 15  1  1
 17 16  1  0
 18 19  1  1
 18 16  1  0
 20 18  1  0
 21 20  2  0
 22 20  1  0
 23 29  1  0
 23 22  1  0
 23 24  1  6
 25 24  1  0
 25 26  1  0
 26 27  1  0
 27 28  1  0
 29 31  1  0
 30 29  2  0
M  END
$$$$
