WVK.pdb
     RDKit          3D

 31 32  0  0  1  0  0  0  0  0999 V2000
    6.4740  -18.2816   24.9587 N   0  0  0  0  0  0  0  0  0  0  0  0
    6.8184  -16.9137   24.6259 C   0  0  1  0  0  0  0  0  0  0  0  0
    7.5654  -16.3308   25.7852 C   0  0  0  0  0  0  0  0  0  0  0  0
    6.7858  -15.1581   26.2617 C   0  0  0  0  0  0  0  0  0  0  0  0
    5.4735  -15.1195   26.6637 C   0  0  0  0  0  0  0  0  0  0  0  0
    5.1206  -13.8778   27.0237 N   0  0  0  0  0  0  0  0  0  0  0  0
    6.1889  -13.0808   26.8661 C   0  0  0  0  0  0  0  0  0  0  0  0
    6.4393  -11.7401   27.0656 C   0  0  0  0  0  0  0  0  0  0  0  0
    7.6530  -11.1536   26.8218 C   0  0  0  0  0  0  0  0  0  0  0  0
    8.6776  -11.9424   26.3527 C   0  0  0  0  0  0  0  0  0  0  0  0
    8.4949  -13.2963   26.1299 C   0  0  0  0  0  0  0  0  0  0  0  0
    7.2575  -13.8462   26.3886 C   0  0  0  0  0  0  0  0  0  0  0  0
    7.5564  -16.8261   23.3419 C   0  0  0  0  0  0  0  0  0  0  0  0
    8.2343  -17.7718   22.8774 O   0  0  0  0  0  0  0  0  0  0  0  0
    8.7007  -13.9975   19.3534 C   0  0  0  0  0  0  0  0  0  0  0  0
    7.9909  -14.1367   20.6805 C   0  0  1  0  0  0  0  0  0  0  0  0
    6.5208  -13.8943   20.4831 C   0  0  0  0  0  0  0  0  0  0  0  0
    8.2873  -15.4338   21.3620 C   0  0  2  0  0  0  0  0  0  0  0  0
    7.5195  -15.6368   22.5753 N   0  0  0  0  0  0  0  0  0  0  0  0
    9.7507  -15.4968   21.6241 C   0  0  0  0  0  0  0  0  0  0  0  0
   10.3321  -14.7270   22.4220 O   0  0  0  0  0  0  0  0  0  0  0  0
   10.4960  -16.4718   20.9350 N   0  0  0  0  0  0  0  0  0  0  0  0
   11.9546  -16.7178   21.3134 C   0  0  1  0  0  0  0  0  0  0  0  0
   11.9616  -18.1435   21.7280 C   0  0  0  0  0  0  0  0  0  0  0  0
   11.6513  -18.5984   23.0737 C   0  0  0  0  0  0  0  0  0  0  0  0
   11.6620  -20.0403   23.3544 C   0  0  0  0  0  0  0  0  0  0  0  0
   11.1610  -20.1854   24.8234 C   0  0  0  0  0  0  0  0  0  0  0  0
   11.0648  -21.5954   25.0874 N   0  0  0  0  0  0  0  0  0  0  0  0
   12.7097  -16.3840   20.0928 C   0  0  0  0  0  0  0  0  0  0  0  0
   12.0953  -16.4746   18.9523 O   0  0  0  0  0  0  0  0  0  0  0  0
   14.0161  -15.9717   20.0191 O   0  0  0  0  0  0  0  0  0  0  0  0
  2  1  1  1
  2  3  1  0
  3  4  1  0
  4  5  2  0
  5  6  1  0
  7  6  1  0
  8  7  2  0
  9  8  1  0
 10 11  1  0
 10  9  2  0
 11 12  2  0
 12  4  1  0
 12  7  1  0
 13  2  1  0
 13 19  1  0
 14 13  2  0
 16 15  1  6
 17 16  1  0
 18 19  1  1
 18 16  1  0
 20 18  1  0
 21 20  2  0
 22 20  1  0
 23 29  1  0
 23 22  1  0
 23 24  1  6
 25 24  1  0
 25 26  1  0
 26 27  1  0
 27 28  1  0
 29 31  1  0
 30 29  2  0
M  END
$$$$
