WVK.pdb
     RDKit          3D

 31 32  0  0  1  0  0  0  0  0999 V2000
    7.4992  -18.9512   21.5227 N   0  0  0  0  0  0  0  0  0  0  0  0
    8.3820  -17.9676   22.1175 C   0  0  1  0  0  0  0  0  0  0  0  0
    7.5606  -17.0908   23.0111 C   0  0  0  0  0  0  0  0  0  0  0  0
    6.8356  -16.1325   22.1358 C   0  0  0  0  0  0  0  0  0  0  0  0
    5.5172  -16.1643   21.7537 C   0  0  0  0  0  0  0  0  0  0  0  0
    5.2263  -15.1280   20.9553 N   0  0  0  0  0  0  0  0  0  0  0  0
    6.3423  -14.3992   20.7984 C   0  0  0  0  0  0  0  0  0  0  0  0
    6.6632  -13.2490   20.1099 C   0  0  0  0  0  0  0  0  0  0  0  0
    7.9144  -12.6912   20.1121 C   0  0  0  0  0  0  0  0  0  0  0  0
    8.9046  -13.3101   20.8392 C   0  0  0  0  0  0  0  0  0  0  0  0
    8.6512  -14.4684   21.5536 C   0  0  0  0  0  0  0  0  0  0  0  0
    7.3779  -14.9961   21.5243 C   0  0  0  0  0  0  0  0  0  0  0  0
    9.5327  -18.6022   22.8061 C   0  0  0  0  0  0  0  0  0  0  0  0
    9.4579  -19.7137   23.3793 O   0  0  0  0  0  0  0  0  0  0  0  0
   14.4912  -18.5394   23.5085 C   0  0  0  0  0  0  0  0  0  0  0  0
   13.2500  -17.8847   22.9469 C   0  0  1  0  0  0  0  0  0  0  0  0
   13.3696  -17.7988   21.4512 C   0  0  0  0  0  0  0  0  0  0  0  0
   11.9899  -18.5496   23.3995 C   0  0  2  0  0  0  0  0  0  0  0  0
   10.7911  -17.9550   22.8408 N   0  0  0  0  0  0  0  0  0  0  0  0
   11.9654  -18.5343   24.8873 C   0  0  0  0  0  0  0  0  0  0  0  0
   11.9677  -17.4762   25.5564 O   0  0  0  0  0  0  0  0  0  0  0  0
   11.9385  -19.7744   25.5525 N   0  0  0  0  0  0  0  0  0  0  0  0
   11.9844  -19.8168   27.0780 C   0  0  1  0  0  0  0  0  0  0  0  0
   11.3276  -21.1085   27.4014 C   0  0  0  0  0  0  0  0  0  0  0  0
    9.9748  -21.4544   26.9956 C   0  0  0  0  0  0  0  0  0  0  0  0
    9.4605  -22.7934   27.3127 C   0  0  0  0  0  0  0  0  0  0  0  0
    8.0151  -22.8363   26.7303 C   0  0  0  0  0  0  0  0  0  0  0  0
    7.1489  -23.2283   27.8088 N   0  0  0  0  0  0  0  0  0  0  0  0
   13.4176  -19.7082   27.4032 C   0  0  0  0  0  0  0  0  0  0  0  0
   14.2653  -20.3209   26.6334 O   0  0  0  0  0  0  0  0  0  0  0  0
   13.9754  -19.0123   28.4457 O   0  0  0  0  0  0  0  0  0  0  0  0
  2  1  1  1
  2  3  1  0
  3  4  1  0
  4  5  2  0
  5  6  1  0
  7  6  1  0
  8  7  2  0
  9  8  1  0
 10 11  1  0
 10  9  2  0
 11 12  2  0
 12  4  1  0
 12  7  1  0
 13  2  1  0
 13 19  1  0
 14 13  2  0
 16 15  1  6
 17 16  1  0
 18 19  1  6
 18 16  1  0
 20 18  1  0
 21 20  2  0
 22 20  1  0
 23 29  1  0
 23 22  1  0
 23 24  1  6
 25 24  1  0
 25 26  1  0
 26 27  1  0
 27 28  1  0
 29 31  1  0
 30 29  2  0
M  END
$$$$
