WVK.pdb
     RDKit          3D

 31 32  0  0  1  0  0  0  0  0999 V2000
    6.0434  -18.1082   24.8279 N   0  0  0  0  0  0  0  0  0  0  0  0
    6.5552  -16.7764   24.5735 C   0  0  1  0  0  0  0  0  0  0  0  0
    7.2661  -16.3118   25.8067 C   0  0  0  0  0  0  0  0  0  0  0  0
    6.5401  -15.1136   26.3038 C   0  0  0  0  0  0  0  0  0  0  0  0
    5.2303  -15.0225   26.7058 C   0  0  0  0  0  0  0  0  0  0  0  0
    4.9339  -13.7727   27.0879 N   0  0  0  0  0  0  0  0  0  0  0  0
    6.0376  -13.0225   26.9451 C   0  0  0  0  0  0  0  0  0  0  0  0
    6.3485  -11.6983   27.1689 C   0  0  0  0  0  0  0  0  0  0  0  0
    7.5879  -11.1634   26.9362 C   0  0  0  0  0  0  0  0  0  0  0  0
    8.5762  -11.9895   26.4535 C   0  0  0  0  0  0  0  0  0  0  0  0
    8.3323  -13.3295   26.2063 C   0  0  0  0  0  0  0  0  0  0  0  0
    7.0708  -13.8271   26.4545 C   0  0  0  0  0  0  0  0  0  0  0  0
    7.3971  -16.7314   23.3527 C   0  0  0  0  0  0  0  0  0  0  0  0
    8.1290  -17.6821   22.9918 O   0  0  0  0  0  0  0  0  0  0  0  0
    8.9051  -14.0013   19.4134 C   0  0  0  0  0  0  0  0  0  0  0  0
    8.0827  -14.1073   20.6771 C   0  0  1  0  0  0  0  0  0  0  0  0
    6.6419  -13.8260   20.3548 C   0  0  0  0  0  0  0  0  0  0  0  0
    8.2836  -15.4053   21.3910 C   0  0  2  0  0  0  0  0  0  0  0  0
    7.4031  -15.5797   22.5300 N   0  0  0  0  0  0  0  0  0  0  0  0
    9.7149  -15.5008   21.7869 C   0  0  0  0  0  0  0  0  0  0  0  0
   10.2048  -14.8396   22.7304 O   0  0  0  0  0  0  0  0  0  0  0  0
   10.5371  -16.3787   21.0561 N   0  0  0  0  0  0  0  0  0  0  0  0
   11.9617  -16.6544   21.5313 C   0  0  1  0  0  0  0  0  0  0  0  0
   11.9140  -18.0821   21.9359 C   0  0  0  0  0  0  0  0  0  0  0  0
   13.0835  -18.8556   22.3209 C   0  0  0  0  0  0  0  0  0  0  0  0
   12.9399  -20.3032   22.5249 C   0  0  0  0  0  0  0  0  0  0  0  0
   14.3549  -20.8111   22.9375 C   0  0  0  0  0  0  0  0  0  0  0  0
   14.2004  -22.1865   23.3267 N   0  0  0  0  0  0  0  0  0  0  0  0
   12.8043  -16.3285   20.3671 C   0  0  0  0  0  0  0  0  0  0  0  0
   14.0447  -16.0100   20.5826 O   0  0  0  0  0  0  0  0  0  0  0  0
   12.4240  -16.3291   19.0490 O   0  0  0  0  0  0  0  0  0  0  0  0
  2  1  1  1
  2  3  1  0
  3  4  1  0
  4  5  2  0
  5  6  1  0
  7  6  1  0
  8  7  2  0
  9  8  1  0
 10 11  1  0
 10  9  2  0
 11 12  2  0
 12  4  1  0
 12  7  1  0
 13  2  1  0
 13 19  1  0
 14 13  2  0
 16 15  1  6
 17 16  1  0
 18 19  1  1
 18 16  1  0
 20 18  1  0
 21 20  2  0
 22 20  1  0
 23 29  1  0
 23 22  1  0
 23 24  1  6
 25 24  1  0
 25 26  1  0
 26 27  1  0
 27 28  1  0
 29 31  1  0
 30 29  2  0
M  END
$$$$
