QRY.pdb
     RDKit          3D

 33 33  0  0  1  0  0  0  0  0999 V2000
   13.8850  -17.5413   16.8409 N   0  0  0  0  0  0  0  0  0  0  0  0
   13.5140  -18.8037   17.3392 C   0  0  0  0  0  0  0  0  0  0  0  0
   13.7600  -19.8440   16.6745 O   0  0  0  0  0  0  0  0  0  0  0  0
   12.8231  -18.9740   18.6542 C   0  0  0  0  0  0  0  0  0  0  0  0
   12.6087  -17.6645   19.3320 C   0  0  0  0  0  0  0  0  0  0  0  0
   11.6112  -17.7266   20.3995 C   0  0  2  0  0  0  0  0  0  0  0  0
   10.6606  -18.8172   20.2308 N   0  0  0  0  0  0  0  0  0  0  0  0
   11.0661  -16.5219   20.9958 C   0  0  0  0  0  0  0  0  0  0  0  0
   11.8110  -15.9027   21.8617 O   0  0  0  0  0  0  0  0  0  0  0  0
    8.0021  -14.8079   15.8796 N   0  0  0  0  0  0  0  0  0  0  0  0
    7.5034  -13.6855   16.5911 C   0  0  0  0  0  0  0  0  0  0  0  0
    7.9437  -12.5013   16.3427 N   0  0  0  0  0  0  0  0  0  0  0  0
    6.5088  -13.8448   17.5878 N   0  0  0  0  0  0  0  0  0  0  0  0
    6.7088  -13.6216   19.0025 C   0  0  0  0  0  0  0  0  0  0  0  0
    7.9384  -14.2943   19.5226 C   0  0  0  0  0  0  0  0  0  0  0  0
    8.1887  -14.0877   20.9662 C   0  0  0  0  0  0  0  0  0  0  0  0
    9.3768  -14.7393   21.5687 C   0  0  2  0  0  0  0  0  0  0  0  0
    9.8188  -15.8982   20.7873 N   0  0  0  0  0  0  0  0  0  0  0  0
    9.0834  -15.1348   22.9656 C   0  0  0  0  0  0  0  0  0  0  0  0
    8.0904  -14.6253   23.5288 O   0  0  0  0  0  0  0  0  0  0  0  0
    7.6403  -11.7127   16.9503 O   0  0  0  0  0  0  0  0  0  0  0  0
   10.4876  -14.4861   31.3541 C   0  0  0  0  0  0  0  0  0  0  0  0
   10.1402  -14.7333   30.0346 C   0  0  0  0  0  0  0  0  0  0  0  0
   10.1769  -16.0112   29.5245 C   0  0  0  0  0  0  0  0  0  0  0  0
    9.8358  -16.2783   28.2164 C   0  0  0  0  0  0  0  0  0  0  0  0
    9.4354  -15.2619   27.3425 C   0  0  0  0  0  0  0  0  0  0  0  0
    9.0762  -15.5393   25.9375 C   0  0  1  0  0  0  0  0  0  0  0  0
   10.2791  -15.7144   25.0546 N   0  0  0  0  0  0  0  0  0  0  0  0
    9.8667  -16.0565   23.6912 C   0  0  0  0  0  0  0  0  0  0  0  0
   11.1451  -16.7870   25.5503 O   0  0  0  0  0  0  0  0  0  0  0  0
   11.3778  -17.9174   24.7950 C   0  0  0  0  0  0  0  0  0  0  0  0
    9.4076  -13.9873   27.8827 C   0  0  0  0  0  0  0  0  0  0  0  0
    9.7469  -13.7211   29.1847 O   0  0  0  0  0  0  0  0  0  0  0  0
  2  3  2  0
  2  1  1  0
  4  2  1  0
  5  6  1  0
  5  4  1  0
  6  8  1  0
  6  7  1  6
  8 18  1  0
  8  9  2  0
 10 11  1  0
 11 12  2  0
 13 11  1  0
 14 13  1  0
 15 14  1  0
 16 15  1  0
 17 19  1  0
 17 16  1  6
 18 17  1  0
 19 20  2  0
 21 22  1  0
 22 23  2  0
 22 32  1  0
 23 24  1  0
 24 25  2  0
 25 26  1  0
 27 26  1  6
 27 28  1  0
 28 19  1  0
 29 27  1  0
 30 29  1  0
 31 25  1  0
 32 31  2  0
 33 29  2  0
M  END
$$$$
