QRY.pdb
     RDKit          3D

 33 33  0  0  1  0  0  0  0  0999 V2000
    6.5772  -15.2977   16.1880 N   0  0  0  0  0  0  0  0  0  0  0  0
    7.6312  -14.4332   15.8398 C   0  0  0  0  0  0  0  0  0  0  0  0
    7.9543  -14.2830   14.6325 O   0  0  0  0  0  0  0  0  0  0  0  0
    8.4068  -13.6644   16.8611 C   0  0  0  0  0  0  0  0  0  0  0  0
    7.9035  -13.9253   18.2391 C   0  0  0  0  0  0  0  0  0  0  0  0
    8.9635  -13.9301   19.2466 C   0  0  2  0  0  0  0  0  0  0  0  0
   10.2222  -13.3868   18.7545 N   0  0  0  0  0  0  0  0  0  0  0  0
    9.0926  -15.0129   20.2029 C   0  0  0  0  0  0  0  0  0  0  0  0
    8.0145  -15.3801   20.8280 O   0  0  0  0  0  0  0  0  0  0  0  0
   10.8118  -20.3426   17.4435 N   0  0  0  0  0  0  0  0  0  0  0  0
   12.1773  -19.9561   17.4147 C   0  0  0  0  0  0  0  0  0  0  0  0
   12.8436  -19.9787   16.3131 N   0  0  0  0  0  0  0  0  0  0  0  0
   12.8348  -19.5350   18.5972 N   0  0  0  0  0  0  0  0  0  0  0  0
   12.2515  -19.5485   19.9204 C   0  0  0  0  0  0  0  0  0  0  0  0
   11.1895  -18.5103   20.0913 C   0  0  0  0  0  0  0  0  0  0  0  0
   11.1926  -17.8382   21.4095 C   0  0  0  0  0  0  0  0  0  0  0  0
   10.2040  -16.7582   21.6445 C   0  0  2  0  0  0  0  0  0  0  0  0
   10.2338  -15.7500   20.5808 N   0  0  0  0  0  0  0  0  0  0  0  0
   10.4448  -16.1299   22.9640 C   0  0  0  0  0  0  0  0  0  0  0  0
   11.1502  -15.0987   23.0086 O   0  0  0  0  0  0  0  0  0  0  0  0
   13.8386  -19.6733   16.3192 O   0  0  0  0  0  0  0  0  0  0  0  0
    6.0990  -11.2388   28.4047 C   0  0  0  0  0  0  0  0  0  0  0  0
    6.6786  -12.0894   27.4755 C   0  0  0  0  0  0  0  0  0  0  0  0
    5.9945  -12.4642   26.3414 C   0  0  0  0  0  0  0  0  0  0  0  0
    6.5521  -13.3085   25.4058 C   0  0  0  0  0  0  0  0  0  0  0  0
    7.8421  -13.8262   25.5641 C   0  0  0  0  0  0  0  0  0  0  0  0
    8.4430  -14.7376   24.5700 C   0  0  1  0  0  0  0  0  0  0  0  0
    9.4304  -15.6918   25.1796 N   0  0  0  0  0  0  0  0  0  0  0  0
    9.9185  -16.6355   24.1710 C   0  0  0  0  0  0  0  0  0  0  0  0
    8.8180  -16.4623   26.2647 O   0  0  0  0  0  0  0  0  0  0  0  0
    9.1335  -16.2061   27.5828 C   0  0  0  0  0  0  0  0  0  0  0  0
    8.5062  -13.4322   26.7134 C   0  0  0  0  0  0  0  0  0  0  0  0
    7.9516  -12.5918   27.6448 O   0  0  0  0  0  0  0  0  0  0  0  0
  2  3  2  0
  2  1  1  0
  4  2  1  0
  5  6  1  0
  5  4  1  0
  6  8  1  0
  6  7  1  6
  8 18  1  0
  8  9  2  0
 10 11  1  0
 11 12  2  0
 13 11  1  0
 14 13  1  0
 15 14  1  0
 16 15  1  0
 17 19  1  0
 17 16  1  6
 18 17  1  0
 19 20  2  0
 21 22  1  0
 22 23  2  0
 22 32  1  0
 23 24  1  0
 24 25  2  0
 25 26  1  0
 27 26  1  6
 27 28  1  0
 28 19  1  0
 29 27  1  0
 30 29  1  0
 31 25  1  0
 32 31  2  0
 33 29  2  0
M  END
$$$$
