QRY.pdb
     RDKit          3D

 33 33  0  0  1  0  0  0  0  0999 V2000
    7.8626  -18.9127   25.3254 N   0  0  0  0  0  0  0  0  0  0  0  0
    6.8656  -19.8387   24.9679 C   0  0  0  0  0  0  0  0  0  0  0  0
    6.0573  -20.2647   25.8339 O   0  0  0  0  0  0  0  0  0  0  0  0
    6.7156  -20.3553   23.5728 C   0  0  0  0  0  0  0  0  0  0  0  0
    6.2186  -19.2970   22.6492 C   0  0  0  0  0  0  0  0  0  0  0  0
    7.0511  -19.1369   21.4576 C   0  0  2  0  0  0  0  0  0  0  0  0
    7.4922  -20.4055   20.8939 N   0  0  0  0  0  0  0  0  0  0  0  0
    8.0016  -18.0477   21.3402 C   0  0  0  0  0  0  0  0  0  0  0  0
    9.2595  -18.3663   21.2752 O   0  0  0  0  0  0  0  0  0  0  0  0
    7.3605  -14.8446   15.5019 N   0  0  0  0  0  0  0  0  0  0  0  0
    7.3799  -13.5406   16.0622 C   0  0  0  0  0  0  0  0  0  0  0  0
    7.8495  -12.5451   15.3940 N   0  0  0  0  0  0  0  0  0  0  0  0
    6.8807  -13.3069   17.3676 N   0  0  0  0  0  0  0  0  0  0  0  0
    6.9157  -14.2623   18.4525 C   0  0  0  0  0  0  0  0  0  0  0  0
    8.2987  -14.4932   18.9711 C   0  0  0  0  0  0  0  0  0  0  0  0
    8.4171  -14.4560   20.4455 C   0  0  0  0  0  0  0  0  0  0  0  0
    8.8653  -15.6868   21.1408 C   0  0  2  0  0  0  0  0  0  0  0  0
    7.7763  -16.6567   21.2904 N   0  0  0  0  0  0  0  0  0  0  0  0
    9.4396  -15.3413   22.4617 C   0  0  0  0  0  0  0  0  0  0  0  0
    9.1211  -14.2483   22.9780 O   0  0  0  0  0  0  0  0  0  0  0  0
    7.8022  -11.5918   15.8091 O   0  0  0  0  0  0  0  0  0  0  0  0
   10.7413  -14.2889   30.7789 C   0  0  0  0  0  0  0  0  0  0  0  0
   10.4391  -14.6145   29.4653 C   0  0  0  0  0  0  0  0  0  0  0  0
   10.2771  -13.6313   28.5157 C   0  0  0  0  0  0  0  0  0  0  0  0
    9.9765  -13.9335   27.2052 C   0  0  0  0  0  0  0  0  0  0  0  0
    9.8210  -15.2560   26.7764 C   0  0  0  0  0  0  0  0  0  0  0  0
    9.4910  -15.5870   25.3759 C   0  0  1  0  0  0  0  0  0  0  0  0
   10.7116  -15.8192   24.5313 N   0  0  0  0  0  0  0  0  0  0  0  0
   10.3262  -16.1828   23.1655 C   0  0  0  0  0  0  0  0  0  0  0  0
   11.5313  -16.9042   25.0765 O   0  0  0  0  0  0  0  0  0  0  0  0
   12.2977  -16.7149   26.2076 C   0  0  0  0  0  0  0  0  0  0  0  0
    9.9898  -16.2234   27.7526 C   0  0  0  0  0  0  0  0  0  0  0  0
   10.2891  -15.9231   29.0570 O   0  0  0  0  0  0  0  0  0  0  0  0
  2  3  2  0
  2  1  1  0
  4  2  1  0
  5  6  1  0
  5  4  1  0
  6  8  1  0
  6  7  1  1
  8 18  1  0
  8  9  2  0
 10 11  1  0
 11 12  2  0
 13 11  1  0
 14 13  1  0
 15 14  1  0
 16 15  1  0
 17 19  1  0
 17 16  1  1
 18 17  1  0
 19 20  2  0
 21 22  1  0
 22 23  2  0
 22 32  1  0
 23 24  1  0
 24 25  2  0
 25 26  1  0
 27 26  1  6
 27 28  1  0
 28 19  1  0
 29 27  1  0
 30 29  1  0
 31 25  1  0
 32 31  2  0
 33 29  2  0
M  END
$$$$
