QRY.pdb
     RDKit          3D

 33 33  0  0  1  0  0  0  0  0999 V2000
    7.0068  -23.0821   19.4253 N   0  0  0  0  0  0  0  0  0  0  0  0
    5.9990  -22.8673   20.3833 C   0  0  0  0  0  0  0  0  0  0  0  0
    4.9424  -23.5509   20.3549 O   0  0  0  0  0  0  0  0  0  0  0  0
    6.1253  -21.8391   21.4615 C   0  0  0  0  0  0  0  0  0  0  0  0
    7.4043  -21.0832   21.3480 C   0  0  0  0  0  0  0  0  0  0  0  0
    7.5511  -20.0457   22.3682 C   0  0  2  0  0  0  0  0  0  0  0  0
    6.5398  -20.1249   23.4135 N   0  0  0  0  0  0  0  0  0  0  0  0
    7.9770  -18.7025   22.0246 C   0  0  0  0  0  0  0  0  0  0  0  0
    8.9895  -18.5925   21.2178 O   0  0  0  0  0  0  0  0  0  0  0  0
    8.4799  -13.4837   16.7431 N   0  0  0  0  0  0  0  0  0  0  0  0
    8.3464  -12.9533   18.0529 C   0  0  0  0  0  0  0  0  0  0  0  0
    9.1252  -12.0140   18.4641 N   0  0  0  0  0  0  0  0  0  0  0  0
    7.3517  -13.4450   18.9343 N   0  0  0  0  0  0  0  0  0  0  0  0
    7.2036  -13.0545   20.3187 C   0  0  0  0  0  0  0  0  0  0  0  0
    8.0244  -13.8942   21.2441 C   0  0  0  0  0  0  0  0  0  0  0  0
    7.3577  -15.1314   21.7067 C   0  0  0  0  0  0  0  0  0  0  0  0
    8.2018  -16.2043   22.2858 C   0  0  2  0  0  0  0  0  0  0  0  0
    7.4596  -17.4588   22.4414 N   0  0  0  0  0  0  0  0  0  0  0  0
    8.7586  -15.7643   23.5859 C   0  0  0  0  0  0  0  0  0  0  0  0
    8.4789  -14.6152   23.9909 O   0  0  0  0  0  0  0  0  0  0  0  0
    9.0180  -11.6595   19.4368 O   0  0  0  0  0  0  0  0  0  0  0  0
    5.7853  -11.2309   26.1575 C   0  0  0  0  0  0  0  0  0  0  0  0
    6.5230  -12.3995   26.2724 C   0  0  0  0  0  0  0  0  0  0  0  0
    5.9381  -13.6258   26.0514 C   0  0  0  0  0  0  0  0  0  0  0  0
    6.6531  -14.7987   26.1605 C   0  0  0  0  0  0  0  0  0  0  0  0
    8.0099  -14.7996   26.5017 C   0  0  0  0  0  0  0  0  0  0  0  0
    8.7804  -16.0526   26.6283 C   0  0  2  0  0  0  0  0  0  0  0  0
    9.9743  -16.0944   25.7173 N   0  0  0  0  0  0  0  0  0  0  0  0
    9.5869  -16.5757   24.3890 C   0  0  0  0  0  0  0  0  0  0  0  0
   11.0070  -16.9910   26.2425 O   0  0  0  0  0  0  0  0  0  0  0  0
   11.6199  -16.7361   27.4516 C   0  0  0  0  0  0  0  0  0  0  0  0
    8.5714  -13.5525   26.7178 C   0  0  0  0  0  0  0  0  0  0  0  0
    7.8601  -12.3848   26.6092 O   0  0  0  0  0  0  0  0  0  0  0  0
  2  3  2  0
  2  1  1  0
  4  2  1  0
  5  6  1  0
  5  4  1  0
  6  8  1  0
  6  7  1  6
  8 18  1  0
  8  9  2  0
 10 11  1  0
 11 12  2  0
 13 11  1  0
 14 13  1  0
 15 14  1  0
 16 15  1  0
 17 19  1  0
 17 16  1  1
 18 17  1  0
 19 20  2  0
 21 22  1  0
 22 23  2  0
 22 32  1  0
 23 24  1  0
 24 25  2  0
 25 26  1  0
 27 26  1  6
 27 28  1  0
 28 19  1  0
 29 27  1  0
 30 29  1  0
 31 25  1  0
 32 31  2  0
 33 29  2  0
M  END
$$$$
