QRY.pdb
     RDKit          3D

 33 33  0  0  1  0  0  0  0  0999 V2000
   14.6225  -13.3038   19.5286 N   0  0  0  0  0  0  0  0  0  0  0  0
   15.3830  -14.2067   18.7631 C   0  0  0  0  0  0  0  0  0  0  0  0
   16.3813  -13.8009   18.1126 O   0  0  0  0  0  0  0  0  0  0  0  0
   15.0539  -15.6630   18.6822 C   0  0  0  0  0  0  0  0  0  0  0  0
   15.1671  -16.3231   20.0132 C   0  0  0  0  0  0  0  0  0  0  0  0
   13.9354  -16.9930   20.4290 C   0  0  2  0  0  0  0  0  0  0  0  0
   13.4516  -17.9579   19.4510 N   0  0  0  0  0  0  0  0  0  0  0  0
   12.9011  -16.2874   21.1610 C   0  0  0  0  0  0  0  0  0  0  0  0
   13.2105  -15.8474   22.3437 O   0  0  0  0  0  0  0  0  0  0  0  0
    7.2545  -12.2420   18.5426 N   0  0  0  0  0  0  0  0  0  0  0  0
    7.1803  -13.6594   18.5288 C   0  0  0  0  0  0  0  0  0  0  0  0
    7.2235  -14.3089   17.4178 N   0  0  0  0  0  0  0  0  0  0  0  0
    7.0595  -14.3890   19.7375 N   0  0  0  0  0  0  0  0  0  0  0  0
    7.1463  -13.8182   21.0632 C   0  0  0  0  0  0  0  0  0  0  0  0
    8.2971  -14.3604   21.8486 C   0  0  0  0  0  0  0  0  0  0  0  0
    9.4028  -14.9001   21.0267 C   0  0  0  0  0  0  0  0  0  0  0  0
   10.5971  -15.4321   21.7266 C   0  0  2  0  0  0  0  0  0  0  0  0
   11.5720  -15.9982   20.7895 N   0  0  0  0  0  0  0  0  0  0  0  0
   10.1883  -16.4447   22.7272 C   0  0  0  0  0  0  0  0  0  0  0  0
   10.7095  -17.5794   22.6679 O   0  0  0  0  0  0  0  0  0  0  0  0
    7.2999  -15.3466   17.4429 O   0  0  0  0  0  0  0  0  0  0  0  0
   10.8364  -13.5216   29.7531 C   0  0  0  0  0  0  0  0  0  0  0  0
   10.7067  -14.4523   28.7334 C   0  0  0  0  0  0  0  0  0  0  0  0
   10.3054  -15.7410   29.0034 C   0  0  0  0  0  0  0  0  0  0  0  0
   10.1703  -16.6810   28.0048 C   0  0  0  0  0  0  0  0  0  0  0  0
   10.4354  -16.3704   26.6667 C   0  0  0  0  0  0  0  0  0  0  0  0
   10.3007  -17.3744   25.5926 C   0  0  1  0  0  0  0  0  0  0  0  0
    9.0436  -17.1994   24.7888 N   0  0  0  0  0  0  0  0  0  0  0  0
    9.2421  -16.1933   23.7425 C   0  0  0  0  0  0  0  0  0  0  0  0
    7.9325  -16.7605   25.6368 O   0  0  0  0  0  0  0  0  0  0  0  0
    7.2455  -15.5969   25.3603 C   0  0  0  0  0  0  0  0  0  0  0  0
   10.8367  -15.0674   26.4250 C   0  0  0  0  0  0  0  0  0  0  0  0
   10.9711  -14.1315   27.4186 O   0  0  0  0  0  0  0  0  0  0  0  0
  2  3  2  0
  2  1  1  0
  4  2  1  0
  5  6  1  0
  5  4  1  0
  6  8  1  0
  6  7  1  6
  8 18  1  0
  8  9  2  0
 10 11  1  0
 11 12  2  0
 13 11  1  0
 14 13  1  0
 15 14  1  0
 16 15  1  0
 17 19  1  0
 17 16  1  6
 18 17  1  0
 19 20  2  0
 21 22  1  0
 22 23  2  0
 22 32  1  0
 23 24  1  0
 24 25  2  0
 25 26  1  0
 27 26  1  6
 27 28  1  0
 28 19  1  0
 29 27  1  0
 30 29  1  0
 31 25  1  0
 32 31  2  0
 33 29  2  0
M  END
$$$$
