QRY.pdb
     RDKit          3D

 33 33  0  0  1  0  0  0  0  0999 V2000
    4.4119  -22.9687   21.3889 N   0  0  0  0  0  0  0  0  0  0  0  0
    3.7429  -21.8029   21.8047 C   0  0  0  0  0  0  0  0  0  0  0  0
    2.5057  -21.8310   22.0348 O   0  0  0  0  0  0  0  0  0  0  0  0
    4.4487  -20.4981   21.9910 C   0  0  0  0  0  0  0  0  0  0  0  0
    5.8893  -20.5992   21.6241 C   0  0  0  0  0  0  0  0  0  0  0  0
    6.7469  -19.7170   22.4146 C   0  0  2  0  0  0  0  0  0  0  0  0
    6.1413  -19.3106   23.6754 N   0  0  0  0  0  0  0  0  0  0  0  0
    7.5873  -18.7166   21.7849 C   0  0  0  0  0  0  0  0  0  0  0  0
    8.4934  -19.1429   20.9571 O   0  0  0  0  0  0  0  0  0  0  0  0
    7.3047  -12.3895   16.3282 N   0  0  0  0  0  0  0  0  0  0  0  0
    7.8690  -13.6896   16.4056 C   0  0  0  0  0  0  0  0  0  0  0  0
    7.9428  -14.4372   15.3598 N   0  0  0  0  0  0  0  0  0  0  0  0
    8.3650  -14.1907   17.6347 N   0  0  0  0  0  0  0  0  0  0  0  0
    8.2916  -13.4992   18.9026 C   0  0  0  0  0  0  0  0  0  0  0  0
    8.8910  -14.2870   20.0229 C   0  0  0  0  0  0  0  0  0  0  0  0
    7.9878  -15.2975   20.6165 C   0  0  0  0  0  0  0  0  0  0  0  0
    8.5981  -16.4544   21.3152 C   0  0  2  0  0  0  0  0  0  0  0  0
    7.5853  -17.3144   21.9345 N   0  0  0  0  0  0  0  0  0  0  0  0
    9.5679  -15.9794   22.3289 C   0  0  0  0  0  0  0  0  0  0  0  0
    9.8685  -14.7660   22.3376 O   0  0  0  0  0  0  0  0  0  0  0  0
    8.4099  -15.3644   15.4346 O   0  0  0  0  0  0  0  0  0  0  0  0
   10.4526  -13.9363   30.5587 C   0  0  0  0  0  0  0  0  0  0  0  0
   10.2035  -14.2941   29.2424 C   0  0  0  0  0  0  0  0  0  0  0  0
   10.6437  -15.4999   28.7453 C   0  0  0  0  0  0  0  0  0  0  0  0
   10.4069  -15.8745   27.4404 C   0  0  0  0  0  0  0  0  0  0  0  0
    9.7069  -15.0459   26.5568 C   0  0  0  0  0  0  0  0  0  0  0  0
    9.4564  -15.4369   25.1554 C   0  0  1  0  0  0  0  0  0  0  0  0
   10.5695  -16.2626   24.5754 N   0  0  0  0  0  0  0  0  0  0  0  0
   10.1682  -16.8262   23.2840 C   0  0  0  0  0  0  0  0  0  0  0  0
   10.9222  -17.3715   25.4655 O   0  0  0  0  0  0  0  0  0  0  0  0
   10.7703  -18.6815   25.0616 C   0  0  0  0  0  0  0  0  0  0  0  0
    9.2763  -13.8402   27.0841 C   0  0  0  0  0  0  0  0  0  0  0  0
    9.5116  -13.4671   28.3828 O   0  0  0  0  0  0  0  0  0  0  0  0
  2  3  2  0
  2  1  1  0
  4  2  1  0
  5  6  1  0
  5  4  1  0
  6  8  1  0
  6  7  1  1
  8 18  1  0
  8  9  2  0
 10 11  1  0
 11 12  2  0
 13 11  1  0
 14 13  1  0
 15 14  1  0
 16 15  1  0
 17 19  1  0
 17 16  1  1
 18 17  1  0
 19 20  2  0
 21 22  1  0
 22 23  2  0
 22 32  1  0
 23 24  1  0
 24 25  2  0
 25 26  1  0
 27 26  1  6
 27 28  1  0
 28 19  1  0
 29 27  1  0
 30 29  1  0
 31 25  1  0
 32 31  2  0
 33 29  2  0
M  END
$$$$
