NQA.pdb
     RDKit          3D

 23 22  0  0  1  0  0  0  0  0999 V2000
    7.7419  -12.3687   17.8968 N   0  0  0  0  0  0  0  0  0  0  0  0
    7.6986  -13.7865   18.0742 C   0  0  0  0  0  0  0  0  0  0  0  0
    7.9830  -14.5401   17.1125 O   0  0  0  0  0  0  0  0  0  0  0  0
    7.3086  -14.2706   19.4233 C   0  0  0  0  0  0  0  0  0  0  0  0
    8.5693  -14.4300   20.2376 C   0  0  2  0  0  0  0  0  0  0  0  0
    9.4859  -15.3616   19.6285 N   0  0  0  0  0  0  0  0  0  0  0  0
    8.2838  -14.8072   21.6424 C   0  0  0  0  0  0  0  0  0  0  0  0
    7.4021  -14.1466   22.2685 O   0  0  0  0  0  0  0  0  0  0  0  0
   10.8569  -19.6224   24.4261 N   0  0  0  0  0  0  0  0  0  0  0  0
   10.1893  -19.1179   25.5620 C   0  0  0  0  0  0  0  0  0  0  0  0
   10.3281  -19.7009   26.6536 O   0  0  0  0  0  0  0  0  0  0  0  0
    9.3444  -17.9150   25.4314 C   0  0  0  0  0  0  0  0  0  0  0  0
    9.4302  -17.4195   24.0232 C   0  0  0  0  0  0  0  0  0  0  0  0
    8.6681  -16.1506   23.7441 C   0  0  2  0  0  0  0  0  0  0  0  0
    8.9142  -15.8445   22.3435 N   0  0  0  0  0  0  0  0  0  0  0  0
    8.9597  -15.0347   24.6326 C   0  0  0  0  0  0  0  0  0  0  0  0
   10.1152  -14.5865   24.7313 O   0  0  0  0  0  0  0  0  0  0  0  0
    6.8887  -12.5145   26.4821 C   0  0  0  0  0  0  0  0  0  0  0  0
    8.1739  -13.2830   26.2613 C   0  0  2  0  0  0  0  0  0  0  0  0
    7.9410  -14.4359   25.4018 N   0  0  0  0  0  0  0  0  0  0  0  0
    8.6879  -13.6792   27.5844 C   0  0  0  0  0  0  0  0  0  0  0  0
    8.8191  -15.0087   27.9102 O   0  0  0  0  0  0  0  0  0  0  0  0
    9.0039  -12.8028   28.4090 O   0  0  0  0  0  0  0  0  0  0  0  0
  1  2  1  0
  2  3  2  0
  4  2  1  0
  4  5  1  0
  5  6  1  6
  7  8  2  0
  7  5  1  0
 10  9  1  0
 10 12  1  0
 11 10  2  0
 14 13  1  1
 13 12  1  0
 14 15  1  0
 15  7  1  0
 16 14  1  0
 17 16  2  0
 19 18  1  1
 19 20  1  0
 20 16  1  0
 21 19  1  0
 22 21  1  0
 23 21  2  0
M  END
$$$$
