NQA.pdb
     RDKit          3D

 23 22  0  0  1  0  0  0  0  0999 V2000
   15.2595  -16.4358   16.7200 N   0  0  0  0  0  0  0  0  0  0  0  0
   14.8286  -15.1883   16.1707 C   0  0  0  0  0  0  0  0  0  0  0  0
   15.4955  -14.6520   15.2537 O   0  0  0  0  0  0  0  0  0  0  0  0
   13.5881  -14.6079   16.7461 C   0  0  0  0  0  0  0  0  0  0  0  0
   13.0977  -15.5447   17.8229 C   0  0  2  0  0  0  0  0  0  0  0  0
   12.1818  -16.5282   17.3006 N   0  0  0  0  0  0  0  0  0  0  0  0
   12.4999  -14.8170   18.9676 C   0  0  0  0  0  0  0  0  0  0  0  0
   13.2421  -14.0266   19.6234 O   0  0  0  0  0  0  0  0  0  0  0  0
    6.8834  -12.8418   19.4151 N   0  0  0  0  0  0  0  0  0  0  0  0
    7.8035  -12.9841   18.3551 C   0  0  0  0  0  0  0  0  0  0  0  0
    7.4367  -12.7157   17.1958 O   0  0  0  0  0  0  0  0  0  0  0  0
    9.1751  -13.4462   18.6431 C   0  0  0  0  0  0  0  0  0  0  0  0
    9.3033  -13.6799   20.1144 C   0  0  0  0  0  0  0  0  0  0  0  0
   10.6213  -14.2588   20.5578 C   0  0  2  0  0  0  0  0  0  0  0  0
   11.1680  -14.9312   19.3896 N   0  0  0  0  0  0  0  0  0  0  0  0
   10.5674  -15.1128   21.7357 C   0  0  0  0  0  0  0  0  0  0  0  0
    9.4925  -15.6145   22.1079 O   0  0  0  0  0  0  0  0  0  0  0  0
   11.1888  -17.6511   23.2351 C   0  0  0  0  0  0  0  0  0  0  0  0
   11.7391  -16.2958   23.6241 C   0  0  2  0  0  0  0  0  0  0  0  0
   11.7307  -15.3916   22.4821 N   0  0  0  0  0  0  0  0  0  0  0  0
   13.0999  -16.5031   24.1506 C   0  0  0  0  0  0  0  0  0  0  0  0
   13.2966  -17.2204   25.3072 O   0  0  0  0  0  0  0  0  0  0  0  0
   14.0741  -16.0246   23.5424 O   0  0  0  0  0  0  0  0  0  0  0  0
  1  2  1  0
  2  3  2  0
  4  2  1  0
  4  5  1  0
  5  6  1  6
  7  8  2  0
  7  5  1  0
 10  9  1  0
 10 12  1  0
 11 10  2  0
 14 13  1  6
 13 12  1  0
 14 15  1  0
 15  7  1  0
 16 14  1  0
 17 16  2  0
 19 18  1  6
 19 20  1  0
 20 16  1  0
 21 19  1  0
 22 21  1  0
 23 21  2  0
M  END
$$$$
