NQA.pdb
     RDKit          3D

 23 22  0  0  1  0  0  0  0  0999 V2000
    2.6040  -19.3236   20.5073 N   0  0  0  0  0  0  0  0  0  0  0  0
    3.8908  -19.5826   21.0735 C   0  0  0  0  0  0  0  0  0  0  0  0
    4.7382  -20.2314   20.4146 O   0  0  0  0  0  0  0  0  0  0  0  0
    4.1305  -19.0471   22.4383 C   0  0  0  0  0  0  0  0  0  0  0  0
    5.2276  -18.0152   22.3419 C   0  0  2  0  0  0  0  0  0  0  0  0
    6.3121  -18.4634   21.5040 N   0  0  0  0  0  0  0  0  0  0  0  0
    5.7234  -17.5998   23.6756 C   0  0  0  0  0  0  0  0  0  0  0  0
    4.8692  -17.2747   24.5533 O   0  0  0  0  0  0  0  0  0  0  0  0
   10.7544  -19.2957   26.5495 N   0  0  0  0  0  0  0  0  0  0  0  0
   11.0775  -18.3327   25.5705 C   0  0  0  0  0  0  0  0  0  0  0  0
   12.2509  -18.2576   25.1601 O   0  0  0  0  0  0  0  0  0  0  0  0
   10.0215  -17.4391   25.0564 C   0  0  0  0  0  0  0  0  0  0  0  0
    8.7272  -17.7994   25.7127 C   0  0  0  0  0  0  0  0  0  0  0  0
    7.5457  -16.9609   25.3005 C   0  0  2  0  0  0  0  0  0  0  0  0
    7.0725  -17.5359   24.0511 N   0  0  0  0  0  0  0  0  0  0  0  0
    7.7924  -15.5286   25.2132 C   0  0  0  0  0  0  0  0  0  0  0  0
    8.5535  -15.0669   24.3452 O   0  0  0  0  0  0  0  0  0  0  0  0
    6.1646  -12.4078   26.1109 C   0  0  0  0  0  0  0  0  0  0  0  0
    7.4534  -13.2015   26.1119 C   0  0  2  0  0  0  0  0  0  0  0  0
    7.1754  -14.6314   26.1089 N   0  0  0  0  0  0  0  0  0  0  0  0
    8.2251  -12.7946   27.2998 C   0  0  0  0  0  0  0  0  0  0  0  0
    8.5441  -13.7144   28.2708 O   0  0  0  0  0  0  0  0  0  0  0  0
    8.5883  -11.6108   27.4213 O   0  0  0  0  0  0  0  0  0  0  0  0
  1  2  1  0
  2  3  2  0
  4  2  1  0
  4  5  1  0
  5  6  1  6
  7  8  2  0
  7  5  1  0
 10  9  1  0
 10 12  1  0
 11 10  2  0
 14 13  1  6
 13 12  1  0
 14 15  1  0
 15  7  1  0
 16 14  1  0
 17 16  2  0
 19 18  1  1
 19 20  1  0
 20 16  1  0
 21 19  1  0
 22 21  1  0
 23 21  2  0
M  END
$$$$
