NQA.pdb
     RDKit          3D

 23 22  0  0  1  0  0  0  0  0999 V2000
    7.0800  -12.9663   17.4314 N   0  0  0  0  0  0  0  0  0  0  0  0
    8.3573  -13.4842   17.8105 C   0  0  0  0  0  0  0  0  0  0  0  0
    9.3902  -13.0700   17.2317 O   0  0  0  0  0  0  0  0  0  0  0  0
    8.3614  -14.5025   18.8920 C   0  0  0  0  0  0  0  0  0  0  0  0
    9.1137  -15.7090   18.3858 C   0  0  2  0  0  0  0  0  0  0  0  0
    8.4387  -16.3336   17.2752 N   0  0  0  0  0  0  0  0  0  0  0  0
    9.3856  -16.6908   19.4625 C   0  0  0  0  0  0  0  0  0  0  0  0
    8.4113  -17.3627   19.9151 O   0  0  0  0  0  0  0  0  0  0  0  0
   14.5161  -20.1996   22.8709 N   0  0  0  0  0  0  0  0  0  0  0  0
   13.8906  -19.8822   21.6469 C   0  0  0  0  0  0  0  0  0  0  0  0
   14.5981  -19.6333   20.6527 O   0  0  0  0  0  0  0  0  0  0  0  0
   12.4170  -19.8524   21.5723 C   0  0  0  0  0  0  0  0  0  0  0  0
   12.0068  -18.7728   20.6225 C   0  0  0  0  0  0  0  0  0  0  0  0
   10.8818  -17.8930   21.1012 C   0  0  2  0  0  0  0  0  0  0  0  0
   10.6438  -16.9407   20.0279 N   0  0  0  0  0  0  0  0  0  0  0  0
   11.0891  -17.2567   22.3942 C   0  0  0  0  0  0  0  0  0  0  0  0
   11.9331  -16.3539   22.5299 O   0  0  0  0  0  0  0  0  0  0  0  0
    9.1755  -16.9559   25.5555 C   0  0  0  0  0  0  0  0  0  0  0  0
   10.5031  -17.0318   24.8324 C   0  0  2  0  0  0  0  0  0  0  0  0
   10.3393  -17.6478   23.5225 N   0  0  0  0  0  0  0  0  0  0  0  0
   11.4312  -17.7947   25.6859 C   0  0  0  0  0  0  0  0  0  0  0  0
   11.8489  -17.2817   26.8914 O   0  0  0  0  0  0  0  0  0  0  0  0
   11.8370  -18.9092   25.3103 O   0  0  0  0  0  0  0  0  0  0  0  0
  1  2  1  0
  2  3  2  0
  4  2  1  0
  4  5  1  0
  5  6  1  6
  7  8  2  0
  7  5  1  0
 10  9  1  0
 10 12  1  0
 11 10  2  0
 14 13  1  6
 13 12  1  0
 14 15  1  0
 15  7  1  0
 16 14  1  0
 17 16  2  0
 19 18  1  1
 19 20  1  0
 20 16  1  0
 21 19  1  0
 22 21  1  0
 23 21  2  0
M  END
$$$$
