NQA.pdb
     RDKit          3D

 23 22  0  0  1  0  0  0  0  0999 V2000
    8.0250  -17.0545   13.2881 N   0  0  0  0  0  0  0  0  0  0  0  0
    7.2654  -16.3235   14.2536 C   0  0  0  0  0  0  0  0  0  0  0  0
    6.6689  -15.2756   13.9079 O   0  0  0  0  0  0  0  0  0  0  0  0
    7.2414  -16.8786   15.6312 C   0  0  0  0  0  0  0  0  0  0  0  0
    8.1488  -18.0843   15.6578 C   0  0  2  0  0  0  0  0  0  0  0  0
    7.5545  -19.2164   14.9914 N   0  0  0  0  0  0  0  0  0  0  0  0
    8.5682  -18.4383   17.0347 C   0  0  0  0  0  0  0  0  0  0  0  0
    7.6886  -18.4249   17.9467 O   0  0  0  0  0  0  0  0  0  0  0  0
   14.2603  -20.4568   20.6353 N   0  0  0  0  0  0  0  0  0  0  0  0
   13.2666  -21.0171   19.8053 C   0  0  0  0  0  0  0  0  0  0  0  0
   13.6027  -21.8287   18.9227 O   0  0  0  0  0  0  0  0  0  0  0  0
   11.8559  -20.6301   20.0011 C   0  0  0  0  0  0  0  0  0  0  0  0
   11.2997  -20.1677   18.6924 C   0  0  0  0  0  0  0  0  0  0  0  0
   10.2720  -19.0705   18.7860 C   0  0  2  0  0  0  0  0  0  0  0  0
    9.8703  -18.7905   17.4163 N   0  0  0  0  0  0  0  0  0  0  0  0
   10.6887  -17.8804   19.5139 C   0  0  0  0  0  0  0  0  0  0  0  0
   11.4439  -17.0452   18.9865 O   0  0  0  0  0  0  0  0  0  0  0  0
    9.6682  -16.2303   22.7367 C   0  0  0  0  0  0  0  0  0  0  0  0
   10.6371  -16.4702   21.5988 C   0  0  2  0  0  0  0  0  0  0  0  0
   10.2472  -17.6459   20.8322 N   0  0  0  0  0  0  0  0  0  0  0  0
   11.9818  -16.6170   22.1836 C   0  0  0  0  0  0  0  0  0  0  0  0
   12.6258  -15.5312   22.7286 O   0  0  0  0  0  0  0  0  0  0  0  0
   12.5346  -17.7316   22.1824 O   0  0  0  0  0  0  0  0  0  0  0  0
  1  2  1  0
  2  3  2  0
  4  2  1  0
  4  5  1  0
  5  6  1  1
  7  8  2  0
  7  5  1  0
 10  9  1  0
 10 12  1  0
 11 10  2  0
 14 13  1  6
 13 12  1  0
 14 15  1  0
 15  7  1  0
 16 14  1  0
 17 16  2  0
 19 18  1  1
 19 20  1  0
 20 16  1  0
 21 19  1  0
 22 21  1  0
 23 21  2  0
M  END
$$$$
