MDN.pdb
     RDKit          3D

 25 24  0  0  1  0  0  0  0  0999 V2000
    8.2188  -12.1002   20.0410 C   0  0  0  0  0  0  0  0  0  0  0  0
    7.0223  -13.3407   19.4497 S   0  0  0  0  0  0  0  0  0  0  0  0
    7.3916  -14.9000   20.2985 C   0  0  0  0  0  0  0  0  0  0  0  0
    6.4277  -16.0018   19.8410 C   0  0  0  0  0  0  0  0  0  0  0  0
    6.6981  -17.2740   20.5954 C   0  0  2  0  0  0  0  0  0  0  0  0
    6.7302  -16.9354   22.0204 N   0  0  0  0  0  0  0  0  0  0  0  0
    7.9554  -17.9235   20.2435 C   0  0  0  0  0  0  0  0  0  0  0  0
    7.9801  -19.1493   19.9780 O   0  0  0  0  0  0  0  0  0  0  0  0
    9.2087  -17.2360   20.1768 N   0  0  0  0  0  0  0  0  0  0  0  0
   10.4732  -17.8632   19.9224 C   0  0  1  0  0  0  0  0  0  0  0  0
   11.3229  -17.0636   18.9470 C   0  0  0  0  0  0  0  0  0  0  0  0
   10.6829  -17.0525   17.6074 C   0  0  0  0  0  0  0  0  0  0  0  0
   10.4534  -18.1449   17.0258 O   0  0  0  0  0  0  0  0  0  0  0  0
   11.2101  -18.1997   21.1552 C   0  0  0  0  0  0  0  0  0  0  0  0
   12.4228  -18.5651   21.0545 O   0  0  0  0  0  0  0  0  0  0  0  0
   10.3535  -15.8445   17.0268 O   0  0  0  0  0  0  0  0  0  0  0  0
   12.6003  -15.7864   23.6046 N   0  0  0  0  0  0  0  0  0  0  0  0
   11.6274  -16.0341   24.5946 C   0  0  0  0  0  0  0  0  0  0  0  0
   11.2934  -15.1288   25.3977 O   0  0  0  0  0  0  0  0  0  0  0  0
   10.9924  -17.3489   24.6956 C   0  0  0  0  0  0  0  0  0  0  0  0
   11.4325  -18.3550   23.6604 C   0  0  2  0  0  0  0  0  0  0  0  0
   10.6337  -18.1363   22.4452 N   0  0  0  0  0  0  0  0  0  0  0  0
   11.1253  -19.7085   24.1597 C   0  0  0  0  0  0  0  0  0  0  0  0
    9.9941  -20.2166   23.8452 O   0  0  0  0  0  0  0  0  0  0  0  0
   11.9249  -20.5020   24.9363 O   0  0  0  0  0  0  0  0  0  0  0  0
  1  2  1  0
  2  3  1  0
  4  3  1  0
  5  4  1  0
  5  7  1  0
  5  6  1  1
  7  9  1  0
  8  7  2  0
  9 10  1  0
 10 14  1  0
 10 11  1  6
 12 11  1  0
 13 12  2  0
 14 15  2  0
 16 12  1  0
 18 17  1  0
 18 20  1  0
 19 18  2  0
 21 20  1  1
 21 23  1  0
 22 14  1  0
 22 21  1  0
 23 24  2  0
 23 25  1  0
M  END
$$$$
