MDN.pdb
     RDKit          3D

 25 24  0  0  1  0  0  0  0  0999 V2000
    5.5379  -11.8473   27.1715 C   0  0  0  0  0  0  0  0  0  0  0  0
    6.9893  -12.5252   26.3033 S   0  0  0  0  0  0  0  0  0  0  0  0
    6.4097  -13.2082   24.7267 C   0  0  0  0  0  0  0  0  0  0  0  0
    5.8737  -14.6318   24.9228 C   0  0  0  0  0  0  0  0  0  0  0  0
    7.0144  -15.5985   25.0811 C   0  0  2  0  0  0  0  0  0  0  0  0
    7.8990  -15.0605   26.1176 N   0  0  0  0  0  0  0  0  0  0  0  0
    7.7946  -15.8084   23.8671 C   0  0  0  0  0  0  0  0  0  0  0  0
    7.3077  -16.4532   22.9073 O   0  0  0  0  0  0  0  0  0  0  0  0
    9.1246  -15.3123   23.6865 N   0  0  0  0  0  0  0  0  0  0  0  0
   10.2470  -16.1087   23.2828 C   0  0  1  0  0  0  0  0  0  0  0  0
   10.9973  -15.4898   22.1138 C   0  0  0  0  0  0  0  0  0  0  0  0
   12.0772  -16.4035   21.6630 C   0  0  0  0  0  0  0  0  0  0  0  0
   13.2758  -16.1078   21.9080 O   0  0  0  0  0  0  0  0  0  0  0  0
   11.1455  -16.4507   24.4017 C   0  0  0  0  0  0  0  0  0  0  0  0
   12.3897  -16.5577   24.1675 O   0  0  0  0  0  0  0  0  0  0  0  0
   11.7446  -17.5580   20.9838 O   0  0  0  0  0  0  0  0  0  0  0  0
   10.5529  -14.5683   29.4627 N   0  0  0  0  0  0  0  0  0  0  0  0
   10.5882  -14.9744   28.1129 C   0  0  0  0  0  0  0  0  0  0  0  0
    9.5745  -14.8446   27.3837 O   0  0  0  0  0  0  0  0  0  0  0  0
   11.8085  -15.5488   27.5446 C   0  0  0  0  0  0  0  0  0  0  0  0
   11.6271  -16.8706   26.8391 C   0  0  2  0  0  0  0  0  0  0  0  0
   10.6911  -16.6661   25.7236 N   0  0  0  0  0  0  0  0  0  0  0  0
   11.0034  -17.8227   27.7773 C   0  0  0  0  0  0  0  0  0  0  0  0
    9.7968  -18.1807   27.5477 O   0  0  0  0  0  0  0  0  0  0  0  0
   11.5755  -18.3802   28.8881 O   0  0  0  0  0  0  0  0  0  0  0  0
  1  2  1  0
  2  3  1  0
  4  3  1  0
  5  4  1  0
  5  7  1  0
  5  6  1  1
  7  9  1  0
  8  7  2  0
  9 10  1  0
 10 14  1  0
 10 11  1  6
 12 11  1  0
 13 12  2  0
 14 15  2  0
 16 12  1  0
 18 17  1  0
 18 20  1  0
 19 18  2  0
 21 20  1  1
 21 23  1  0
 22 14  1  0
 22 21  1  0
 23 24  2  0
 23 25  1  0
M  END
$$$$
