MDN.pdb
     RDKit          3D

 25 24  0  0  1  0  0  0  0  0999 V2000
    9.0009  -12.0640   19.7415 C   0  0  0  0  0  0  0  0  0  0  0  0
    7.3690  -12.6332   19.1647 S   0  0  0  0  0  0  0  0  0  0  0  0
    7.5142  -14.3993   18.7795 C   0  0  0  0  0  0  0  0  0  0  0  0
    8.2920  -15.1274   19.8828 C   0  0  0  0  0  0  0  0  0  0  0  0
    8.5135  -16.5643   19.4997 C   0  0  2  0  0  0  0  0  0  0  0  0
    7.1936  -17.1774   19.3315 N   0  0  0  0  0  0  0  0  0  0  0  0
    9.2634  -17.3376   20.4827 C   0  0  0  0  0  0  0  0  0  0  0  0
    8.6597  -17.9688   21.3833 O   0  0  0  0  0  0  0  0  0  0  0  0
   10.6913  -17.4312   20.4925 N   0  0  0  0  0  0  0  0  0  0  0  0
   11.4628  -18.0589   21.5258 C   0  0  1  0  0  0  0  0  0  0  0  0
   12.7479  -18.6702   20.9895 C   0  0  0  0  0  0  0  0  0  0  0  0
   13.5755  -17.6229   20.3396 C   0  0  0  0  0  0  0  0  0  0  0  0
   14.4166  -16.9880   21.0279 O   0  0  0  0  0  0  0  0  0  0  0  0
   11.7075  -17.1759   22.6819 C   0  0  0  0  0  0  0  0  0  0  0  0
   11.8267  -15.9279   22.4756 O   0  0  0  0  0  0  0  0  0  0  0  0
   13.4050  -17.3663   18.9943 O   0  0  0  0  0  0  0  0  0  0  0  0
    9.3251  -15.8256   26.9695 N   0  0  0  0  0  0  0  0  0  0  0  0
    8.8466  -16.0524   25.6628 C   0  0  0  0  0  0  0  0  0  0  0  0
    7.6785  -15.7179   25.3470 O   0  0  0  0  0  0  0  0  0  0  0  0
    9.7074  -16.6773   24.6575 C   0  0  0  0  0  0  0  0  0  0  0  0
   11.1061  -17.0013   25.1227 C   0  0  2  0  0  0  0  0  0  0  0  0
   11.8166  -17.6494   24.0102 N   0  0  0  0  0  0  0  0  0  0  0  0
   11.0206  -17.9757   26.2267 C   0  0  0  0  0  0  0  0  0  0  0  0
   10.8357  -17.5217   27.4084 O   0  0  0  0  0  0  0  0  0  0  0  0
   11.1176  -19.3374   26.1339 O   0  0  0  0  0  0  0  0  0  0  0  0
  1  2  1  0
  2  3  1  0
  4  3  1  0
  5  4  1  0
  5  7  1  0
  5  6  1  1
  7  9  1  0
  8  7  2  0
  9 10  1  0
 10 14  1  0
 10 11  1  6
 12 11  1  0
 13 12  2  0
 14 15  2  0
 16 12  1  0
 18 17  1  0
 18 20  1  0
 19 18  2  0
 21 20  1  6
 21 23  1  0
 22 14  1  0
 22 21  1  0
 23 24  2  0
 23 25  1  0
M  END
$$$$
