MDN.pdb
     RDKit          3D

 25 24  0  0  1  0  0  0  0  0999 V2000
    7.7866  -11.1296   25.6270 C   0  0  0  0  0  0  0  0  0  0  0  0
    6.3864  -12.2531   25.9388 S   0  0  0  0  0  0  0  0  0  0  0  0
    6.9039  -13.9181   25.4403 C   0  0  0  0  0  0  0  0  0  0  0  0
    6.7782  -14.0872   23.9211 C   0  0  0  0  0  0  0  0  0  0  0  0
    7.0012  -15.5242   23.5388 C   0  0  2  0  0  0  0  0  0  0  0  0
    6.5424  -16.3481   24.6599 N   0  0  0  0  0  0  0  0  0  0  0  0
    8.3914  -15.8595   23.2538 C   0  0  0  0  0  0  0  0  0  0  0  0
    8.8513  -15.7143   22.0957 O   0  0  0  0  0  0  0  0  0  0  0  0
    9.3016  -16.3604   24.2380 N   0  0  0  0  0  0  0  0  0  0  0  0
   10.7023  -16.5787   24.0209 C   0  0  1  0  0  0  0  0  0  0  0  0
   11.3218  -15.4979   23.1486 C   0  0  0  0  0  0  0  0  0  0  0  0
   11.3696  -15.9516   21.7358 C   0  0  0  0  0  0  0  0  0  0  0  0
   11.0683  -15.1432   20.8192 O   0  0  0  0  0  0  0  0  0  0  0  0
   11.4564  -16.7831   25.2722 C   0  0  0  0  0  0  0  0  0  0  0  0
   12.7258  -16.7584   25.2246 O   0  0  0  0  0  0  0  0  0  0  0  0
   11.7426  -17.2507   21.4563 O   0  0  0  0  0  0  0  0  0  0  0  0
   11.0465  -14.3720   27.7808 N   0  0  0  0  0  0  0  0  0  0  0  0
   10.5319  -15.1471   28.8403 C   0  0  0  0  0  0  0  0  0  0  0  0
    9.8442  -14.6114   29.7437 O   0  0  0  0  0  0  0  0  0  0  0  0
   10.7904  -16.5865   28.8976 C   0  0  0  0  0  0  0  0  0  0  0  0
   11.6194  -17.1352   27.7620 C   0  0  2  0  0  0  0  0  0  0  0  0
   10.8366  -17.0060   26.5238 N   0  0  0  0  0  0  0  0  0  0  0  0
   11.8479  -18.5731   27.9985 C   0  0  0  0  0  0  0  0  0  0  0  0
   11.1645  -19.4058   27.3084 O   0  0  0  0  0  0  0  0  0  0  0  0
   12.7235  -19.1333   28.8881 O   0  0  0  0  0  0  0  0  0  0  0  0
  1  2  1  0
  2  3  1  0
  4  3  1  0
  5  4  1  0
  5  7  1  0
  5  6  1  1
  7  9  1  0
  8  7  2  0
  9 10  1  0
 10 14  1  0
 10 11  1  1
 12 11  1  0
 13 12  2  0
 14 15  2  0
 16 12  1  0
 18 17  1  0
 18 20  1  0
 19 18  2  0
 21 20  1  1
 21 23  1  0
 22 14  1  0
 22 21  1  0
 23 24  2  0
 23 25  1  0
M  END
$$$$
