MDN.pdb
     RDKit          3D

 25 24  0  0  1  0  0  0  0  0999 V2000
    7.3239  -12.4600   27.3518 C   0  0  0  0  0  0  0  0  0  0  0  0
    7.1669  -11.7998   25.6608 S   0  0  0  0  0  0  0  0  0  0  0  0
    6.4765  -13.1181   24.6245 C   0  0  0  0  0  0  0  0  0  0  0  0
    7.2648  -14.4198   24.8157 C   0  0  0  0  0  0  0  0  0  0  0  0
    7.7370  -14.9404   23.4865 C   0  0  2  0  0  0  0  0  0  0  0  0
    6.5480  -15.3382   22.7286 N   0  0  0  0  0  0  0  0  0  0  0  0
    8.6355  -16.0855   23.5766 C   0  0  0  0  0  0  0  0  0  0  0  0
    8.1846  -17.2209   23.8619 O   0  0  0  0  0  0  0  0  0  0  0  0
   10.0466  -16.0025   23.3538 N   0  0  0  0  0  0  0  0  0  0  0  0
   11.0002  -16.9886   23.7723 C   0  0  1  0  0  0  0  0  0  0  0  0
   12.3732  -16.7524   23.1625 C   0  0  0  0  0  0  0  0  0  0  0  0
   12.2576  -16.6193   21.6883 C   0  0  0  0  0  0  0  0  0  0  0  0
   11.5075  -17.4079   21.0561 O   0  0  0  0  0  0  0  0  0  0  0  0
   11.0626  -17.1473   25.2376 C   0  0  0  0  0  0  0  0  0  0  0  0
   11.7505  -16.3153   25.9075 O   0  0  0  0  0  0  0  0  0  0  0  0
   12.9756  -15.6341   21.0412 O   0  0  0  0  0  0  0  0  0  0  0  0
    6.9225  -19.0349   26.7526 N   0  0  0  0  0  0  0  0  0  0  0  0
    7.9331  -18.2604   27.3583 C   0  0  0  0  0  0  0  0  0  0  0  0
    7.8007  -17.0169   27.4680 O   0  0  0  0  0  0  0  0  0  0  0  0
    9.1474  -18.8977   27.8697 C   0  0  0  0  0  0  0  0  0  0  0  0
   10.4422  -18.2796   27.4015 C   0  0  2  0  0  0  0  0  0  0  0  0
   10.3947  -18.1807   25.9350 N   0  0  0  0  0  0  0  0  0  0  0  0
   11.5506  -19.1872   27.7528 C   0  0  0  0  0  0  0  0  0  0  0  0
   11.7643  -19.4133   28.9937 O   0  0  0  0  0  0  0  0  0  0  0  0
   12.3952  -19.8298   26.8892 O   0  0  0  0  0  0  0  0  0  0  0  0
  1  2  1  0
  2  3  1  0
  4  3  1  0
  5  4  1  0
  5  7  1  0
  5  6  1  6
  7  9  1  0
  8  7  2  0
  9 10  1  0
 10 14  1  0
 10 11  1  1
 12 11  1  0
 13 12  2  0
 14 15  2  0
 16 12  1  0
 18 17  1  0
 18 20  1  0
 19 18  2  0
 21 20  1  6
 21 23  1  0
 22 14  1  0
 22 21  1  0
 23 24  2  0
 23 25  1  0
M  END
$$$$
