MDN.pdb
     RDKit          3D

 25 24  0  0  1  0  0  0  0  0999 V2000
    7.0813  -12.1254   22.3730 C   0  0  0  0  0  0  0  0  0  0  0  0
    7.7711  -12.5834   20.7499 S   0  0  0  0  0  0  0  0  0  0  0  0
    7.5859  -14.3781   20.5674 C   0  0  0  0  0  0  0  0  0  0  0  0
    8.1591  -14.8430   19.2228 C   0  0  0  0  0  0  0  0  0  0  0  0
    8.1475  -16.3445   19.1453 C   0  0  2  0  0  0  0  0  0  0  0  0
    6.7452  -16.7680   19.1322 N   0  0  0  0  0  0  0  0  0  0  0  0
    8.8228  -17.0069   20.2552 C   0  0  0  0  0  0  0  0  0  0  0  0
    8.1726  -17.7271   21.0505 O   0  0  0  0  0  0  0  0  0  0  0  0
   10.2261  -16.8896   20.5101 N   0  0  0  0  0  0  0  0  0  0  0  0
   10.9261  -17.5693   21.5612 C   0  0  1  0  0  0  0  0  0  0  0  0
   12.4329  -17.5406   21.3575 C   0  0  0  0  0  0  0  0  0  0  0  0
   13.0640  -18.6756   22.0770 C   0  0  0  0  0  0  0  0  0  0  0  0
   12.5700  -19.0639   23.1676 O   0  0  0  0  0  0  0  0  0  0  0  0
   10.5383  -17.1070   22.9074 C   0  0  0  0  0  0  0  0  0  0  0  0
   10.9403  -15.9655   23.2942 O   0  0  0  0  0  0  0  0  0  0  0  0
   14.1799  -19.2811   21.5357 O   0  0  0  0  0  0  0  0  0  0  0  0
    6.1954  -17.8156   23.6137 N   0  0  0  0  0  0  0  0  0  0  0  0
    6.9375  -17.0991   24.5750 C   0  0  0  0  0  0  0  0  0  0  0  0
    6.7424  -15.8702   24.7414 O   0  0  0  0  0  0  0  0  0  0  0  0
    7.9419  -17.7805   25.3930 C   0  0  0  0  0  0  0  0  0  0  0  0
    9.3706  -17.3753   25.1241 C   0  0  2  0  0  0  0  0  0  0  0  0
    9.7408  -17.8717   23.7903 N   0  0  0  0  0  0  0  0  0  0  0  0
   10.2422  -18.0445   26.1081 C   0  0  0  0  0  0  0  0  0  0  0  0
   10.8877  -19.0803   25.7242 O   0  0  0  0  0  0  0  0  0  0  0  0
   10.4464  -17.6801   27.4110 O   0  0  0  0  0  0  0  0  0  0  0  0
  1  2  1  0
  2  3  1  0
  4  3  1  0
  5  4  1  0
  5  7  1  0
  5  6  1  1
  7  9  1  0
  8  7  2  0
  9 10  1  0
 10 14  1  0
 10 11  1  6
 12 11  1  0
 13 12  2  0
 14 15  2  0
 16 12  1  0
 18 17  1  0
 18 20  1  0
 19 18  2  0
 21 20  1  1
 21 23  1  0
 22 14  1  0
 22 21  1  0
 23 24  2  0
 23 25  1  0
M  END
$$$$
