MDN.pdb
     RDKit          3D

 25 24  0  0  1  0  0  0  0  0999 V2000
    7.7344  -12.3547   20.0620 C   0  0  0  0  0  0  0  0  0  0  0  0
    7.5211  -13.4040   21.5363 S   0  0  0  0  0  0  0  0  0  0  0  0
    7.3222  -15.1129   20.9630 C   0  0  0  0  0  0  0  0  0  0  0  0
    7.9022  -15.2772   19.5527 C   0  0  0  0  0  0  0  0  0  0  0  0
    8.2454  -16.7186   19.2974 C   0  0  2  0  0  0  0  0  0  0  0  0
    7.7048  -17.4981   20.4138 N   0  0  0  0  0  0  0  0  0  0  0  0
    9.6754  -16.9847   19.1940 C   0  0  0  0  0  0  0  0  0  0  0  0
   10.3639  -16.4050   18.3200 O   0  0  0  0  0  0  0  0  0  0  0  0
   10.3745  -17.8931   20.0507 N   0  0  0  0  0  0  0  0  0  0  0  0
   11.7986  -17.9296   20.2163 C   0  0  1  0  0  0  0  0  0  0  0  0
   12.5312  -17.4114   18.9886 C   0  0  0  0  0  0  0  0  0  0  0  0
   13.0268  -18.5502   18.1751 C   0  0  0  0  0  0  0  0  0  0  0  0
   14.0190  -18.3810   17.4193 O   0  0  0  0  0  0  0  0  0  0  0  0
   12.2537  -17.2700   21.4549 C   0  0  0  0  0  0  0  0  0  0  0  0
   13.4984  -17.2528   21.7090 O   0  0  0  0  0  0  0  0  0  0  0  0
   12.3889  -19.7709   18.2636 O   0  0  0  0  0  0  0  0  0  0  0  0
   10.5354  -16.3996   26.6300 N   0  0  0  0  0  0  0  0  0  0  0  0
   10.0447  -16.3257   25.3102 C   0  0  0  0  0  0  0  0  0  0  0  0
    9.0594  -17.0198   24.9589 O   0  0  0  0  0  0  0  0  0  0  0  0
   10.6761  -15.4359   24.3347 C   0  0  0  0  0  0  0  0  0  0  0  0
   11.8627  -16.0199   23.6075 C   0  0  2  0  0  0  0  0  0  0  0  0
   11.3729  -16.6553   22.3750 N   0  0  0  0  0  0  0  0  0  0  0  0
   12.4570  -17.0754   24.4490 C   0  0  0  0  0  0  0  0  0  0  0  0
   13.3277  -16.7241   25.3181 O   0  0  0  0  0  0  0  0  0  0  0  0
   12.1809  -18.4149   24.4089 O   0  0  0  0  0  0  0  0  0  0  0  0
  1  2  1  0
  2  3  1  0
  4  3  1  0
  5  4  1  0
  5  7  1  0
  5  6  1  1
  7  9  1  0
  8  7  2  0
  9 10  1  0
 10 14  1  0
 10 11  1  6
 12 11  1  0
 13 12  2  0
 14 15  2  0
 16 12  1  0
 18 17  1  0
 18 20  1  0
 19 18  2  0
 21 20  1  1
 21 23  1  0
 22 14  1  0
 22 21  1  0
 23 24  2  0
 23 25  1  0
M  END
$$$$
