MDN.pdb
     RDKit          3D

 25 24  0  0  1  0  0  0  0  0999 V2000
    7.4693  -11.5942   26.2380 C   0  0  0  0  0  0  0  0  0  0  0  0
    6.2929  -12.9380   26.5989 S   0  0  0  0  0  0  0  0  0  0  0  0
    6.8897  -14.4254   25.7503 C   0  0  0  0  0  0  0  0  0  0  0  0
    6.6417  -14.3181   24.2405 C   0  0  0  0  0  0  0  0  0  0  0  0
    6.6750  -15.6831   23.6110 C   0  0  2  0  0  0  0  0  0  0  0  0
    6.0934  -16.6204   24.5751 N   0  0  0  0  0  0  0  0  0  0  0  0
    8.0116  -16.1481   23.2589 C   0  0  0  0  0  0  0  0  0  0  0  0
    8.3092  -16.3644   22.0596 O   0  0  0  0  0  0  0  0  0  0  0  0
    9.0455  -16.3831   24.2200 N   0  0  0  0  0  0  0  0  0  0  0  0
   10.4064  -16.6998   23.8965 C   0  0  1  0  0  0  0  0  0  0  0  0
   10.9673  -15.7831   22.8205 C   0  0  0  0  0  0  0  0  0  0  0  0
   12.0363  -16.4829   22.0644 C   0  0  0  0  0  0  0  0  0  0  0  0
   12.8965  -15.8047   21.4445 O   0  0  0  0  0  0  0  0  0  0  0  0
   11.2820  -16.7664   25.0819 C   0  0  0  0  0  0  0  0  0  0  0  0
   12.5322  -16.9058   24.9035 O   0  0  0  0  0  0  0  0  0  0  0  0
   12.0645  -17.8628   22.0560 O   0  0  0  0  0  0  0  0  0  0  0  0
    9.3083  -14.4584   28.5345 N   0  0  0  0  0  0  0  0  0  0  0  0
   10.6622  -14.7578   28.2787 C   0  0  0  0  0  0  0  0  0  0  0  0
   11.3980  -13.9244   27.6957 O   0  0  0  0  0  0  0  0  0  0  0  0
   11.2270  -16.0428   28.6933 C   0  0  0  0  0  0  0  0  0  0  0  0
   11.6688  -16.9432   27.5655 C   0  0  2  0  0  0  0  0  0  0  0  0
   10.7991  -16.6831   26.4086 N   0  0  0  0  0  0  0  0  0  0  0  0
   11.4617  -18.3452   27.9743 C   0  0  0  0  0  0  0  0  0  0  0  0
   10.5782  -19.0243   27.3458 O   0  0  0  0  0  0  0  0  0  0  0  0
   12.1173  -19.0197   28.9680 O   0  0  0  0  0  0  0  0  0  0  0  0
  1  2  1  0
  2  3  1  0
  4  3  1  0
  5  4  1  0
  5  7  1  0
  5  6  1  1
  7  9  1  0
  8  7  2  0
  9 10  1  0
 10 14  1  0
 10 11  1  6
 12 11  1  0
 13 12  2  0
 14 15  2  0
 16 12  1  0
 18 17  1  0
 18 20  1  0
 19 18  2  0
 21 20  1  1
 21 23  1  0
 22 14  1  0
 22 21  1  0
 23 24  2  0
 23 25  1  0
M  END
$$$$
