TDW.pdb
     RDKit          3D

 30 31  0  0  1  0  0  0  0  0999 V2000
   26.7292  -21.2158  -18.8131 C   0  0  0  0  0  0  0  0  0  0  0  0
   27.9178  -20.3132  -18.6538 C   0  0  1  0  0  0  0  0  0  0  0  0
   28.6809  -20.1816  -19.8037 O   0  0  0  0  0  0  0  0  0  0  0  0
   27.5476  -18.9831  -18.0277 C   0  0  2  0  0  0  0  0  0  0  0  0
   28.7643  -18.2092  -17.8744 N   0  0  0  0  0  0  0  0  0  0  0  0
   26.8248  -19.1309  -16.7437 C   0  0  0  0  0  0  0  0  0  0  0  0
   27.5545  -19.3254  -15.7125 O   0  0  0  0  0  0  0  0  0  0  0  0
   25.4166  -19.0719  -16.5912 N   0  0  0  0  0  0  0  0  0  0  0  0
   24.8390  -19.2302  -15.2977 C   0  0  1  0  0  0  0  0  0  0  0  0
   23.3389  -18.9041  -15.3153 C   0  0  0  0  0  0  0  0  0  0  0  0
   23.2169  -17.4321  -15.3328 C   0  0  0  0  0  0  0  0  0  0  0  0
   24.1841  -16.7486  -14.9136 O   0  0  0  0  0  0  0  0  0  0  0  0
   24.9812  -20.5946  -14.7410 C   0  0  0  0  0  0  0  0  0  0  0  0
   24.6842  -21.6442  -15.3614 O   0  0  0  0  0  0  0  0  0  0  0  0
   22.1075  -16.7429  -15.7805 O   0  0  0  0  0  0  0  0  0  0  0  0
   25.4894  -20.7230  -13.4133 N   0  0  0  0  0  0  0  0  0  0  0  0
   25.7432  -21.9743  -12.7772 C   0  0  1  0  0  0  0  0  0  0  0  0
   26.8326  -21.9341  -11.7403 C   0  0  0  0  0  0  0  0  0  0  0  0
   26.4510  -21.1091  -10.5666 C   0  0  0  0  0  0  0  0  0  0  0  0
   25.2404  -20.5205  -10.2616 C   0  0  0  0  0  0  0  0  0  0  0  0
   25.3057  -19.8559   -9.0936 N   0  0  0  0  0  0  0  0  0  0  0  0
   26.5681  -19.9878   -8.5924 C   0  0  0  0  0  0  0  0  0  0  0  0
   27.1379  -19.4977   -7.4331 C   0  0  0  0  0  0  0  0  0  0  0  0
   28.4654  -19.7954   -7.1785 C   0  0  0  0  0  0  0  0  0  0  0  0
   29.1880  -20.5676   -8.0769 C   0  0  0  0  0  0  0  0  0  0  0  0
   28.5957  -21.0442   -9.2260 C   0  0  0  0  0  0  0  0  0  0  0  0
   27.2726  -20.7570   -9.4959 C   0  0  0  0  0  0  0  0  0  0  0  0
   24.4913  -22.4597  -12.1542 C   0  0  0  0  0  0  0  0  0  0  0  0
   23.4036  -21.6379  -11.9120 O   0  0  0  0  0  0  0  0  0  0  0  0
   24.4055  -23.6643  -11.8302 O   0  0  0  0  0  0  0  0  0  0  0  0
  2  1  1  6
  2  3  1  0
  4  2  1  0
  4  5  1  1
  6  7  2  0
  6  4  1  0
  8  6  1  0
  9 13  1  0
  9  8  1  0
  9 10  1  6
 11 15  1  0
 11 10  1  0
 12 11  2  0
 13 14  2  0
 16 17  1  0
 16 13  1  0
 17 18  1  1
 19 18  1  0
 20 19  2  0
 21 20  1  0
 22 21  1  0
 22 27  2  0
 23 24  2  0
 23 22  1  0
 24 25  1  0
 25 26  2  0
 27 26  1  0
 27 19  1  0
 28 17  1  0
 28 29  1  0
 30 28  2  0
M  END
$$$$
