TDW.pdb
     RDKit          3D

 30 31  0  0  1  0  0  0  0  0999 V2000
   16.4549  -13.1621  -20.9676 C   0  0  0  0  0  0  0  0  0  0  0  0
   17.0742  -11.8171  -20.7219 C   0  0  1  0  0  0  0  0  0  0  0  0
   16.4915  -10.7898  -21.4477 O   0  0  0  0  0  0  0  0  0  0  0  0
   17.2014  -11.5060  -19.2436 C   0  0  2  0  0  0  0  0  0  0  0  0
   15.8710  -11.5310  -18.6674 N   0  0  0  0  0  0  0  0  0  0  0  0
   17.8900  -10.2216  -18.9813 C   0  0  0  0  0  0  0  0  0  0  0  0
   19.1504  -10.2115  -19.1936 O   0  0  0  0  0  0  0  0  0  0  0  0
   17.2580   -9.0381  -18.5233 N   0  0  0  0  0  0  0  0  0  0  0  0
   18.0367   -7.8678  -18.2867 C   0  0  1  0  0  0  0  0  0  0  0  0
   17.1417   -6.6526  -18.0046 C   0  0  0  0  0  0  0  0  0  0  0  0
   16.2033   -6.5345  -19.1391 C   0  0  0  0  0  0  0  0  0  0  0  0
   14.9759   -6.6819  -18.9155 O   0  0  0  0  0  0  0  0  0  0  0  0
   18.9737   -7.9919  -17.1475 C   0  0  0  0  0  0  0  0  0  0  0  0
   18.6275   -8.2876  -15.9781 O   0  0  0  0  0  0  0  0  0  0  0  0
   16.5776   -6.2712  -20.4417 O   0  0  0  0  0  0  0  0  0  0  0  0
   20.3601   -7.7606  -17.3966 N   0  0  0  0  0  0  0  0  0  0  0  0
   21.3882   -7.9798  -16.4323 C   0  0  1  0  0  0  0  0  0  0  0  0
   22.6006   -8.6915  -16.9681 C   0  0  0  0  0  0  0  0  0  0  0  0
   23.5022   -9.1473  -15.8803 C   0  0  0  0  0  0  0  0  0  0  0  0
   23.2122   -9.4422  -14.5635 C   0  0  0  0  0  0  0  0  0  0  0  0
   24.3166   -9.8291  -13.8994 N   0  0  0  0  0  0  0  0  0  0  0  0
   25.3720   -9.8000  -14.7641 C   0  0  0  0  0  0  0  0  0  0  0  0
   26.7064  -10.1036  -14.5745 C   0  0  0  0  0  0  0  0  0  0  0  0
   27.5663   -9.9797  -15.6520 C   0  0  0  0  0  0  0  0  0  0  0  0
   27.0810   -9.5599  -16.8824 C   0  0  0  0  0  0  0  0  0  0  0  0
   25.7453   -9.2634  -17.0446 C   0  0  0  0  0  0  0  0  0  0  0  0
   24.8734   -9.3815  -15.9808 C   0  0  0  0  0  0  0  0  0  0  0  0
   21.7972   -6.6771  -15.8609 C   0  0  0  0  0  0  0  0  0  0  0  0
   21.9546   -6.4680  -14.5012 O   0  0  0  0  0  0  0  0  0  0  0  0
   22.0120   -5.7188  -16.6348 O   0  0  0  0  0  0  0  0  0  0  0  0
  2  1  1  1
  2  3  1  0
  4  2  1  0
  4  5  1  6
  6  7  2  0
  6  4  1  0
  8  6  1  0
  9 13  1  0
  9  8  1  0
  9 10  1  1
 11 15  1  0
 11 10  1  0
 12 11  2  0
 13 14  2  0
 16 17  1  0
 16 13  1  0
 17 18  1  6
 19 18  1  0
 20 19  2  0
 21 20  1  0
 22 21  1  0
 22 27  2  0
 23 24  2  0
 23 22  1  0
 24 25  1  0
 25 26  2  0
 27 26  1  0
 27 19  1  0
 28 17  1  0
 28 29  1  0
 30 28  2  0
M  END
$$$$
