TDW.pdb
     RDKit          3D

 30 31  0  0  1  0  0  0  0  0999 V2000
   28.1107  -23.3985  -20.0509 C   0  0  0  0  0  0  0  0  0  0  0  0
   27.6226  -22.8755  -18.7314 C   0  0  1  0  0  0  0  0  0  0  0  0
   26.5535  -23.5853  -18.2070 O   0  0  0  0  0  0  0  0  0  0  0  0
   28.7521  -22.6783  -17.7397 C   0  0  2  0  0  0  0  0  0  0  0  0
   29.3555  -23.9728  -17.4890 N   0  0  0  0  0  0  0  0  0  0  0  0
   28.3118  -22.0250  -16.4858 C   0  0  0  0  0  0  0  0  0  0  0  0
   28.7209  -22.5656  -15.4023 O   0  0  0  0  0  0  0  0  0  0  0  0
   27.4899  -20.8722  -16.4142 N   0  0  0  0  0  0  0  0  0  0  0  0
   27.2114  -20.2809  -15.1474 C   0  0  1  0  0  0  0  0  0  0  0  0
   26.7884  -18.8130  -15.3002 C   0  0  0  0  0  0  0  0  0  0  0  0
   27.8454  -18.1378  -16.0804 C   0  0  0  0  0  0  0  0  0  0  0  0
   28.9451  -17.9061  -15.5189 O   0  0  0  0  0  0  0  0  0  0  0  0
   26.1402  -20.9657  -14.3892 C   0  0  0  0  0  0  0  0  0  0  0  0
   25.0870  -21.4136  -14.9039 O   0  0  0  0  0  0  0  0  0  0  0  0
   27.7145  -17.7375  -17.3953 O   0  0  0  0  0  0  0  0  0  0  0  0
   26.3182  -21.1269  -12.9820 N   0  0  0  0  0  0  0  0  0  0  0  0
   25.4367  -21.8795  -12.1506 C   0  0  1  0  0  0  0  0  0  0  0  0
   26.0660  -22.3954  -10.8850 C   0  0  0  0  0  0  0  0  0  0  0  0
   26.2629  -21.3169   -9.8840 C   0  0  0  0  0  0  0  0  0  0  0  0
   25.3773  -20.3549   -9.4421 C   0  0  0  0  0  0  0  0  0  0  0  0
   25.9468  -19.5609   -8.5171 N   0  0  0  0  0  0  0  0  0  0  0  0
   27.2311  -19.9788   -8.3218 C   0  0  0  0  0  0  0  0  0  0  0  0
   28.2220  -19.5001   -7.4865 C   0  0  0  0  0  0  0  0  0  0  0  0
   29.4528  -20.1331   -7.4996 C   0  0  0  0  0  0  0  0  0  0  0  0
   29.6659  -21.2187   -8.3373 C   0  0  0  0  0  0  0  0  0  0  0  0
   28.6606  -21.6763   -9.1607 C   0  0  0  0  0  0  0  0  0  0  0  0
   27.4267  -21.0571   -9.1605 C   0  0  0  0  0  0  0  0  0  0  0  0
   24.2652  -21.0418  -11.8092 C   0  0  0  0  0  0  0  0  0  0  0  0
   23.0362  -21.5742  -11.4579 O   0  0  0  0  0  0  0  0  0  0  0  0
   24.3838  -19.7974  -11.8372 O   0  0  0  0  0  0  0  0  0  0  0  0
  2  1  1  6
  2  3  1  0
  4  2  1  0
  4  5  1  1
  6  7  2  0
  6  4  1  0
  8  6  1  0
  9 13  1  0
  9  8  1  0
  9 10  1  6
 11 15  1  0
 11 10  1  0
 12 11  2  0
 13 14  2  0
 16 17  1  0
 16 13  1  0
 17 18  1  1
 19 18  1  0
 20 19  2  0
 21 20  1  0
 22 21  1  0
 22 27  2  0
 23 24  2  0
 23 22  1  0
 24 25  1  0
 25 26  2  0
 27 26  1  0
 27 19  1  0
 28 17  1  0
 28 29  1  0
 30 28  2  0
M  END
$$$$
