TDW.pdb
     RDKit          3D

 30 31  0  0  1  0  0  0  0  0999 V2000
   31.5406  -30.8725    9.1459 C   0  0  0  0  0  0  0  0  0  0  0  0
   32.9944  -31.1413    9.4048 C   0  0  1  0  0  0  0  0  0  0  0  0
   33.3504  -32.4749    9.2759 O   0  0  0  0  0  0  0  0  0  0  0  0
   33.8978  -30.2045    8.6274 C   0  0  2  0  0  0  0  0  0  0  0  0
   35.2096  -30.8170    8.5456 N   0  0  0  0  0  0  0  0  0  0  0  0
   33.9611  -28.8458    9.2128 C   0  0  0  0  0  0  0  0  0  0  0  0
   32.9456  -28.0994    8.9999 O   0  0  0  0  0  0  0  0  0  0  0  0
   35.0448  -28.3364    9.9717 N   0  0  0  0  0  0  0  0  0  0  0  0
   35.0483  -26.9667   10.3666 C   0  0  1  0  0  0  0  0  0  0  0  0
   35.9307  -26.7474   11.6038 C   0  0  0  0  0  0  0  0  0  0  0  0
   35.3026  -27.4853   12.7186 C   0  0  0  0  0  0  0  0  0  0  0  0
   35.8621  -28.5317   13.1313 O   0  0  0  0  0  0  0  0  0  0  0  0
   35.5329  -26.0419    9.3172 C   0  0  0  0  0  0  0  0  0  0  0  0
   36.1712  -26.4026    8.2988 O   0  0  0  0  0  0  0  0  0  0  0  0
   34.1337  -27.1072   13.3488 O   0  0  0  0  0  0  0  0  0  0  0  0
   35.2550  -24.6506    9.4748 N   0  0  0  0  0  0  0  0  0  0  0  0
   35.1898  -23.7255    8.3909 C   0  0  1  0  0  0  0  0  0  0  0  0
   34.2491  -24.1272    7.2875 C   0  0  0  0  0  0  0  0  0  0  0  0
   34.3293  -23.2047    6.1271 C   0  0  0  0  0  0  0  0  0  0  0  0
   35.2740  -23.1343    5.1234 C   0  0  0  0  0  0  0  0  0  0  0  0
   34.9802  -22.1540    4.2498 N   0  0  0  0  0  0  0  0  0  0  0  0
   33.8272  -21.5467    4.6550 C   0  0  0  0  0  0  0  0  0  0  0  0
   33.1162  -20.4965    4.1070 C   0  0  0  0  0  0  0  0  0  0  0  0
   31.9603  -20.0833    4.7464 C   0  0  0  0  0  0  0  0  0  0  0  0
   31.5434  -20.7203    5.9065 C   0  0  0  0  0  0  0  0  0  0  0  0
   32.2710  -21.7654    6.4322 C   0  0  0  0  0  0  0  0  0  0  0  0
   33.4264  -22.1908    5.8077 C   0  0  0  0  0  0  0  0  0  0  0  0
   34.7935  -22.3989    8.9142 C   0  0  0  0  0  0  0  0  0  0  0  0
   35.3761  -21.2173    8.4881 O   0  0  0  0  0  0  0  0  0  0  0  0
   33.8931  -22.3353    9.7794 O   0  0  0  0  0  0  0  0  0  0  0  0
  2  1  1  6
  2  3  1  0
  4  2  1  0
  4  5  1  1
  6  7  2  0
  6  4  1  0
  8  6  1  0
  9 13  1  0
  9  8  1  0
  9 10  1  1
 11 15  1  0
 11 10  1  0
 12 11  2  0
 13 14  2  0
 16 17  1  0
 16 13  1  0
 17 18  1  6
 19 18  1  0
 20 19  2  0
 21 20  1  0
 22 21  1  0
 22 27  2  0
 23 24  2  0
 23 22  1  0
 24 25  1  0
 25 26  2  0
 27 26  1  0
 27 19  1  0
 28 17  1  0
 28 29  1  0
 30 28  2  0
M  END
$$$$
