TDW.pdb
     RDKit          3D

 30 31  0  0  1  0  0  0  0  0999 V2000
   29.4411  -20.1740  -13.4596 C   0  0  0  0  0  0  0  0  0  0  0  0
   29.1677  -19.1234  -14.4962 C   0  0  1  0  0  0  0  0  0  0  0  0
   30.2096  -18.9327  -15.3905 O   0  0  0  0  0  0  0  0  0  0  0  0
   27.8272  -19.3234  -15.1752 C   0  0  2  0  0  0  0  0  0  0  0  0
   27.6585  -18.2619  -16.1485 N   0  0  0  0  0  0  0  0  0  0  0  0
   26.6979  -19.3767  -14.2187 C   0  0  0  0  0  0  0  0  0  0  0  0
   26.2340  -18.2472  -13.8407 O   0  0  0  0  0  0  0  0  0  0  0  0
   26.1167  -20.5660  -13.7114 N   0  0  0  0  0  0  0  0  0  0  0  0
   25.0592  -20.4848  -12.7590 C   0  0  1  0  0  0  0  0  0  0  0  0
   23.7925  -21.1826  -13.2744 C   0  0  0  0  0  0  0  0  0  0  0  0
   22.6971  -20.8282  -12.3490 C   0  0  0  0  0  0  0  0  0  0  0  0
   22.4513  -19.6117  -12.1541 O   0  0  0  0  0  0  0  0  0  0  0  0
   25.3862  -21.0894  -11.4479 C   0  0  0  0  0  0  0  0  0  0  0  0
   25.9531  -22.1997  -11.3045 O   0  0  0  0  0  0  0  0  0  0  0  0
   21.9139  -21.7435  -11.6745 O   0  0  0  0  0  0  0  0  0  0  0  0
   25.0338  -20.3612  -10.2717 N   0  0  0  0  0  0  0  0  0  0  0  0
   25.3298  -20.7998   -8.9471 C   0  0  1  0  0  0  0  0  0  0  0  0
   26.0471  -19.7825   -8.1019 C   0  0  0  0  0  0  0  0  0  0  0  0
   27.4243  -20.2181   -7.7591 C   0  0  0  0  0  0  0  0  0  0  0  0
   28.3108  -20.9855   -8.4874 C   0  0  0  0  0  0  0  0  0  0  0  0
   29.4682  -21.1512   -7.8216 N   0  0  0  0  0  0  0  0  0  0  0  0
   29.3773  -20.4945   -6.6288 C   0  0  0  0  0  0  0  0  0  0  0  0
   30.2859  -20.3623   -5.5964 C   0  0  0  0  0  0  0  0  0  0  0  0
   29.9134  -19.6251   -4.4858 C   0  0  0  0  0  0  0  0  0  0  0  0
   28.6555  -19.0421   -4.4299 C   0  0  0  0  0  0  0  0  0  0  0  0
   27.7680  -19.1894   -5.4734 C   0  0  0  0  0  0  0  0  0  0  0  0
   28.1227  -19.9211   -6.5889 C   0  0  0  0  0  0  0  0  0  0  0  0
   24.0693  -21.1920   -8.2775 C   0  0  0  0  0  0  0  0  0  0  0  0
   22.8195  -20.9224   -8.8090 O   0  0  0  0  0  0  0  0  0  0  0  0
   24.1287  -21.7941   -7.1832 O   0  0  0  0  0  0  0  0  0  0  0  0
  2  1  1  6
  2  3  1  0
  4  2  1  0
  4  5  1  6
  6  7  2  0
  6  4  1  0
  8  6  1  0
  9 13  1  0
  9  8  1  0
  9 10  1  6
 11 15  1  0
 11 10  1  0
 12 11  2  0
 13 14  2  0
 16 17  1  0
 16 13  1  0
 17 18  1  1
 19 18  1  0
 20 19  2  0
 21 20  1  0
 22 21  1  0
 22 27  2  0
 23 24  2  0
 23 22  1  0
 24 25  1  0
 25 26  2  0
 27 26  1  0
 27 19  1  0
 28 17  1  0
 28 29  1  0
 30 28  2  0
M  END
$$$$
