MVT.pdb
     RDKit          3D

 23 22  0  0  1  0  0  0  0  0999 V2000
   21.2167  -17.2608  -18.6226 C   0  0  0  0  0  0  0  0  0  0  0  0
   19.4585  -17.5503  -18.5233 S   0  0  0  0  0  0  0  0  0  0  0  0
   18.5223  -16.3678  -17.5825 C   0  0  0  0  0  0  0  0  0  0  0  0
   19.1158  -15.0176  -17.4243 C   0  0  0  0  0  0  0  0  0  0  0  0
   18.3090  -14.1243  -16.5519 C   0  0  2  0  0  0  0  0  0  0  0  0
   16.9044  -14.3774  -16.7317 N   0  0  0  0  0  0  0  0  0  0  0  0
   18.5353  -12.6668  -16.9073 C   0  0  0  0  0  0  0  0  0  0  0  0
   19.3543  -12.3574  -17.8015 O   0  0  0  0  0  0  0  0  0  0  0  0
   16.5238   -8.1475  -16.9324 C   0  0  0  0  0  0  0  0  0  0  0  0
   16.6710   -9.6315  -16.9735 C   0  0  1  0  0  0  0  0  0  0  0  0
   16.1105  -10.3060  -18.1819 C   0  0  0  0  0  0  0  0  0  0  0  0
   17.9640  -10.2031  -16.5560 C   0  0  2  0  0  0  0  0  0  0  0  0
   17.8392  -11.6377  -16.2496 N   0  0  0  0  0  0  0  0  0  0  0  0
   18.7574   -9.5083  -15.5532 C   0  0  0  0  0  0  0  0  0  0  0  0
   18.3311   -9.5362  -14.3435 O   0  0  0  0  0  0  0  0  0  0  0  0
   22.1381   -9.9696  -14.1088 C   0  0  0  0  0  0  0  0  0  0  0  0
   22.1038   -8.5474  -14.6175 C   0  0  1  0  0  0  0  0  0  0  0  0
   22.7102   -8.5782  -15.8925 O   0  0  0  0  0  0  0  0  0  0  0  0
   20.6685   -8.0956  -14.7135 C   0  0  2  0  0  0  0  0  0  0  0  0
   19.9367   -8.8098  -15.7470 N   0  0  0  0  0  0  0  0  0  0  0  0
   20.6596   -6.6677  -15.0665 C   0  0  0  0  0  0  0  0  0  0  0  0
   20.2135   -6.2412  -16.2993 O   0  0  0  0  0  0  0  0  0  0  0  0
   21.0594   -5.8197  -14.2468 O   0  0  0  0  0  0  0  0  0  0  0  0
  2  1  1  0
  3  2  1  0
  4  3  1  0
  5  4  1  0
  5  7  1  0
  5  6  1  6
  7 13  1  0
  7  8  2  0
 10  9  1  6
 10 11  1  0
 12 10  1  0
 12 13  1  1
 14 12  1  0
 14 15  2  0
 17 16  1  6
 17 19  1  0
 18 17  1  0
 19 20  1  6
 20 14  1  0
 21 19  1  0
 22 21  1  0
 23 21  2  0
M  END
$$$$
