MVT.pdb
     RDKit          3D

 23 22  0  0  1  0  0  0  0  0999 V2000
   27.4845  -18.6278   -5.7332 C   0  0  0  0  0  0  0  0  0  0  0  0
   28.6084  -19.9947   -5.9645 S   0  0  0  0  0  0  0  0  0  0  0  0
   28.4951  -20.8468   -7.5203 C   0  0  0  0  0  0  0  0  0  0  0  0
   27.5699  -20.2768   -8.5299 C   0  0  0  0  0  0  0  0  0  0  0  0
   27.4748  -21.0995   -9.7645 C   0  0  2  0  0  0  0  0  0  0  0  0
   28.7721  -21.2601  -10.3650 N   0  0  0  0  0  0  0  0  0  0  0  0
   26.5980  -20.4244  -10.8024 C   0  0  0  0  0  0  0  0  0  0  0  0
   26.9857  -19.3778  -11.3684 O   0  0  0  0  0  0  0  0  0  0  0  0
   26.5813  -19.6550  -13.5636 C   0  0  0  0  0  0  0  0  0  0  0  0
   25.3762  -20.5344  -13.5470 C   0  0  1  0  0  0  0  0  0  0  0  0
   25.5613  -21.8996  -14.1226 C   0  0  0  0  0  0  0  0  0  0  0  0
   24.5519  -20.5433  -12.3252 C   0  0  2  0  0  0  0  0  0  0  0  0
   25.3419  -20.9503  -11.1514 N   0  0  0  0  0  0  0  0  0  0  0  0
   23.2525  -21.1981  -12.3494 C   0  0  0  0  0  0  0  0  0  0  0  0
   23.2163  -22.4440  -12.0455 O   0  0  0  0  0  0  0  0  0  0  0  0
   20.2895  -20.8210  -10.2196 C   0  0  0  0  0  0  0  0  0  0  0  0
   19.7976  -20.6220  -11.6342 C   0  0  1  0  0  0  0  0  0  0  0  0
   19.7917  -19.2263  -11.8486 O   0  0  0  0  0  0  0  0  0  0  0  0
   20.7453  -21.3098  -12.5840 C   0  0  2  0  0  0  0  0  0  0  0  0
   22.0291  -20.6322  -12.6644 N   0  0  0  0  0  0  0  0  0  0  0  0
   20.1450  -21.2887  -13.9266 C   0  0  0  0  0  0  0  0  0  0  0  0
   18.9800  -21.9745  -14.1972 O   0  0  0  0  0  0  0  0  0  0  0  0
   20.6886  -20.6443  -14.8432 O   0  0  0  0  0  0  0  0  0  0  0  0
  2  1  1  0
  3  2  1  0
  4  3  1  0
  5  4  1  0
  5  7  1  0
  5  6  1  6
  7 13  1  0
  7  8  2  0
 10  9  1  1
 10 11  1  0
 12 10  1  0
 12 13  1  1
 14 12  1  0
 14 15  2  0
 17 16  1  1
 17 19  1  0
 18 17  1  0
 19 20  1  6
 20 14  1  0
 21 19  1  0
 22 21  1  0
 23 21  2  0
M  END
$$$$
