MVT.pdb
     RDKit          3D

 23 22  0  0  1  0  0  0  0  0999 V2000
   27.7968  -18.3612   -6.7523 C   0  0  0  0  0  0  0  0  0  0  0  0
   26.7247  -19.7700   -6.5262 S   0  0  0  0  0  0  0  0  0  0  0  0
   26.4842  -20.8072   -7.9495 C   0  0  0  0  0  0  0  0  0  0  0  0
   26.2715  -20.1229   -9.2482 C   0  0  0  0  0  0  0  0  0  0  0  0
   26.1068  -21.0667  -10.3849 C   0  0  2  0  0  0  0  0  0  0  0  0
   27.2496  -21.9340  -10.4904 N   0  0  0  0  0  0  0  0  0  0  0  0
   26.0067  -20.3204  -11.7021 C   0  0  0  0  0  0  0  0  0  0  0  0
   27.0108  -19.7424  -12.1752 O   0  0  0  0  0  0  0  0  0  0  0  0
   25.4572  -21.3732  -16.0015 C   0  0  0  0  0  0  0  0  0  0  0  0
   25.5685  -21.1975  -14.5242 C   0  0  1  0  0  0  0  0  0  0  0  0
   26.9576  -21.1649  -13.9774 C   0  0  0  0  0  0  0  0  0  0  0  0
   24.6859  -20.2054  -13.8843 C   0  0  2  0  0  0  0  0  0  0  0  0
   24.7981  -20.2591  -12.4172 N   0  0  0  0  0  0  0  0  0  0  0  0
   23.2984  -20.1081  -14.3121 C   0  0  0  0  0  0  0  0  0  0  0  0
   22.4750  -20.9700  -13.8378 O   0  0  0  0  0  0  0  0  0  0  0  0
   20.6846  -17.6813  -13.6246 C   0  0  0  0  0  0  0  0  0  0  0  0
   20.7409  -17.7646  -15.1321 C   0  0  1  0  0  0  0  0  0  0  0  0
   21.5646  -16.6955  -15.5478 O   0  0  0  0  0  0  0  0  0  0  0  0
   21.3383  -19.0913  -15.5277 C   0  0  2  0  0  0  0  0  0  0  0  0
   22.7476  -19.1831  -15.1823 N   0  0  0  0  0  0  0  0  0  0  0  0
   21.2272  -19.2274  -16.9880 C   0  0  0  0  0  0  0  0  0  0  0  0
   19.9969  -19.3132  -17.6042 O   0  0  0  0  0  0  0  0  0  0  0  0
   22.2545  -19.2670  -17.6910 O   0  0  0  0  0  0  0  0  0  0  0  0
  2  1  1  0
  3  2  1  0
  4  3  1  0
  5  4  1  0
  5  7  1  0
  5  6  1  6
  7 13  1  0
  7  8  2  0
 10  9  1  6
 10 11  1  0
 12 10  1  0
 12 13  1  1
 14 12  1  0
 14 15  2  0
 17 16  1  1
 17 19  1  0
 18 17  1  0
 19 20  1  6
 20 14  1  0
 21 19  1  0
 22 21  1  0
 23 21  2  0
M  END
$$$$
