MVT.pdb
     RDKit          3D

 23 22  0  0  1  0  0  0  0  0999 V2000
   18.2360  -18.6038  -12.0919 C   0  0  0  0  0  0  0  0  0  0  0  0
   18.4266  -20.3587  -11.8286 S   0  0  0  0  0  0  0  0  0  0  0  0
   19.9056  -20.8675  -10.9840 C   0  0  0  0  0  0  0  0  0  0  0  0
   21.1447  -20.1118  -11.2899 C   0  0  0  0  0  0  0  0  0  0  0  0
   22.3432  -20.6502  -10.5943 C   0  0  2  0  0  0  0  0  0  0  0  0
   22.3832  -20.1929   -9.2309 N   0  0  0  0  0  0  0  0  0  0  0  0
   23.6200  -20.1617  -11.2523 C   0  0  0  0  0  0  0  0  0  0  0  0
   24.1872  -19.1276  -10.8340 O   0  0  0  0  0  0  0  0  0  0  0  0
   27.7680  -21.1027  -13.6303 C   0  0  0  0  0  0  0  0  0  0  0  0
   26.5266  -21.3188  -12.8315 C   0  0  1  0  0  0  0  0  0  0  0  0
   26.7303  -21.6024  -11.3798 C   0  0  0  0  0  0  0  0  0  0  0  0
   25.3888  -20.4144  -13.0764 C   0  0  2  0  0  0  0  0  0  0  0  0
   24.1926  -20.8494  -12.3364 N   0  0  0  0  0  0  0  0  0  0  0  0
   25.0643  -20.0345  -14.4432 C   0  0  0  0  0  0  0  0  0  0  0  0
   23.8788  -20.2934  -14.8597 O   0  0  0  0  0  0  0  0  0  0  0  0
   23.4147  -17.8893  -15.4942 C   0  0  0  0  0  0  0  0  0  0  0  0
   24.6462  -17.5053  -16.2808 C   0  0  1  0  0  0  0  0  0  0  0  0
   25.3737  -16.6222  -15.4531 O   0  0  0  0  0  0  0  0  0  0  0  0
   25.4458  -18.7488  -16.5774 C   0  0  2  0  0  0  0  0  0  0  0  0
   25.8914  -19.4165  -15.3652 N   0  0  0  0  0  0  0  0  0  0  0  0
   26.6431  -18.3544  -17.3352 C   0  0  0  0  0  0  0  0  0  0  0  0
   26.5414  -17.8300  -18.6062 O   0  0  0  0  0  0  0  0  0  0  0  0
   27.7738  -18.4917  -16.8315 O   0  0  0  0  0  0  0  0  0  0  0  0
  2  1  1  0
  3  2  1  0
  4  3  1  0
  5  4  1  0
  5  7  1  0
  5  6  1  1
  7 13  1  0
  7  8  2  0
 10  9  1  1
 10 11  1  0
 12 10  1  0
 12 13  1  6
 14 12  1  0
 14 15  2  0
 17 16  1  1
 17 19  1  0
 18 17  1  0
 19 20  1  1
 20 14  1  0
 21 19  1  0
 22 21  1  0
 23 21  2  0
M  END
$$$$
