MVT.pdb
     RDKit          3D

 23 22  0  0  1  0  0  0  0  0999 V2000
   27.0206  -15.9925  -14.8489 C   0  0  0  0  0  0  0  0  0  0  0  0
   28.4308  -16.7745  -15.6137 S   0  0  0  0  0  0  0  0  0  0  0  0
   28.0901  -18.2194  -16.5914 C   0  0  0  0  0  0  0  0  0  0  0  0
   27.1656  -19.2208  -16.0062 C   0  0  0  0  0  0  0  0  0  0  0  0
   27.7956  -20.0435  -14.9402 C   0  0  2  0  0  0  0  0  0  0  0  0
   28.6006  -21.0867  -15.5172 N   0  0  0  0  0  0  0  0  0  0  0  0
   26.7437  -20.7294  -14.0887 C   0  0  0  0  0  0  0  0  0  0  0  0
   26.3247  -21.8663  -14.4016 O   0  0  0  0  0  0  0  0  0  0  0  0
   24.5061  -20.8332   -9.6166 C   0  0  0  0  0  0  0  0  0  0  0  0
   25.5433  -20.4982  -10.6353 C   0  0  1  0  0  0  0  0  0  0  0  0
   26.9343  -20.9348  -10.3129 C   0  0  0  0  0  0  0  0  0  0  0  0
   25.2011  -20.7041  -12.0542 C   0  0  2  0  0  0  0  0  0  0  0  0
   26.2182  -20.1133  -12.9396 N   0  0  0  0  0  0  0  0  0  0  0  0
   23.8528  -20.4020  -12.5110 C   0  0  0  0  0  0  0  0  0  0  0  0
   23.5216  -19.1650  -12.5882 O   0  0  0  0  0  0  0  0  0  0  0  0
   22.0447  -20.7665  -15.6934 C   0  0  0  0  0  0  0  0  0  0  0  0
   21.1920  -21.4796  -14.6701 C   0  0  1  0  0  0  0  0  0  0  0  0
   21.5280  -22.8473  -14.7725 O   0  0  0  0  0  0  0  0  0  0  0  0
   21.5209  -20.9444  -13.2994 C   0  0  2  0  0  0  0  0  0  0  0  0
   22.8666  -21.3006  -12.8799 N   0  0  0  0  0  0  0  0  0  0  0  0
   20.5815  -21.5397  -12.3369 C   0  0  0  0  0  0  0  0  0  0  0  0
   19.2475  -21.1914  -12.3344 O   0  0  0  0  0  0  0  0  0  0  0  0
   20.9854  -22.3736  -11.5047 O   0  0  0  0  0  0  0  0  0  0  0  0
  2  1  1  0
  3  2  1  0
  4  3  1  0
  5  4  1  0
  5  7  1  0
  5  6  1  6
  7 13  1  0
  7  8  2  0
 10  9  1  1
 10 11  1  0
 12 10  1  0
 12 13  1  6
 14 12  1  0
 14 15  2  0
 17 16  1  6
 17 19  1  0
 18 17  1  0
 19 20  1  1
 20 14  1  0
 21 19  1  0
 22 21  1  0
 23 21  2  0
M  END
$$$$
