MVT.pdb
     RDKit          3D

 23 22  0  0  1  0  0  0  0  0999 V2000
   19.6940  -19.2588  -19.2844 C   0  0  0  0  0  0  0  0  0  0  0  0
   19.9825  -17.5023  -19.1555 S   0  0  0  0  0  0  0  0  0  0  0  0
   21.4457  -17.0119  -18.2732 C   0  0  0  0  0  0  0  0  0  0  0  0
   22.2642  -18.0969  -17.6790 C   0  0  0  0  0  0  0  0  0  0  0  0
   23.7097  -17.9837  -18.0072 C   0  0  2  0  0  0  0  0  0  0  0  0
   23.9597  -18.4386  -19.3488 N   0  0  0  0  0  0  0  0  0  0  0  0
   24.5460  -18.8573  -17.0911 C   0  0  0  0  0  0  0  0  0  0  0  0
   24.5721  -20.0975  -17.2561 O   0  0  0  0  0  0  0  0  0  0  0  0
   28.4242  -19.0338  -14.0098 C   0  0  0  0  0  0  0  0  0  0  0  0
   27.5376  -18.6235  -15.1374 C   0  0  1  0  0  0  0  0  0  0  0  0
   28.1365  -18.7194  -16.5018 C   0  0  0  0  0  0  0  0  0  0  0  0
   26.1342  -19.0730  -15.1034 C   0  0  2  0  0  0  0  0  0  0  0  0
   25.3045  -18.3033  -16.0452 N   0  0  0  0  0  0  0  0  0  0  0  0
   25.4721  -19.2387  -13.8182 C   0  0  0  0  0  0  0  0  0  0  0  0
   25.0282  -18.1805  -13.2447 O   0  0  0  0  0  0  0  0  0  0  0  0
   22.3448  -20.5603  -12.6188 C   0  0  0  0  0  0  0  0  0  0  0  0
   23.3802  -21.3127  -11.8159 C   0  0  1  0  0  0  0  0  0  0  0  0
   23.5570  -22.5489  -12.4750 O   0  0  0  0  0  0  0  0  0  0  0  0
   24.6624  -20.5194  -11.8038 C   0  0  2  0  0  0  0  0  0  0  0  0
   25.2574  -20.4184  -13.1265 N   0  0  0  0  0  0  0  0  0  0  0  0
   25.6237  -21.2145  -10.9342 C   0  0  0  0  0  0  0  0  0  0  0  0
   25.3869  -21.3609   -9.5840 O   0  0  0  0  0  0  0  0  0  0  0  0
   26.6733  -21.6833  -11.4136 O   0  0  0  0  0  0  0  0  0  0  0  0
  2  1  1  0
  3  2  1  0
  4  3  1  0
  5  4  1  0
  5  7  1  0
  5  6  1  6
  7 13  1  0
  7  8  2  0
 10  9  1  1
 10 11  1  0
 12 10  1  0
 12 13  1  6
 14 12  1  0
 14 15  2  0
 17 16  1  6
 17 19  1  0
 18 17  1  0
 19 20  1  6
 20 14  1  0
 21 19  1  0
 22 21  1  0
 23 21  2  0
M  END
$$$$
