MVT.pdb
     RDKit          3D

 23 22  0  0  1  0  0  0  0  0999 V2000
   15.6843  -14.3526  -20.9932 C   0  0  0  0  0  0  0  0  0  0  0  0
   16.3203  -13.3597  -19.6534 S   0  0  0  0  0  0  0  0  0  0  0  0
   17.6423  -14.0774  -18.7063 C   0  0  0  0  0  0  0  0  0  0  0  0
   18.3410  -13.1852  -17.7493 C   0  0  0  0  0  0  0  0  0  0  0  0
   19.4512  -13.8599  -17.0265 C   0  0  2  0  0  0  0  0  0  0  0  0
   18.9419  -14.9137  -16.1901 N   0  0  0  0  0  0  0  0  0  0  0  0
   20.1728  -12.8900  -16.1097 C   0  0  0  0  0  0  0  0  0  0  0  0
   19.6875  -12.6008  -14.9931 O   0  0  0  0  0  0  0  0  0  0  0  0
   24.5525  -10.9397  -14.8538 C   0  0  0  0  0  0  0  0  0  0  0  0
   23.5721  -11.8559  -15.5060 C   0  0  1  0  0  0  0  0  0  0  0  0
   23.6527  -13.2897  -15.0973 C   0  0  0  0  0  0  0  0  0  0  0  0
   22.1822  -11.3850  -15.6443 C   0  0  2  0  0  0  0  0  0  0  0  0
   21.3908  -12.2977  -16.4859 N   0  0  0  0  0  0  0  0  0  0  0  0
   21.9345   -9.9921  -15.9851 C   0  0  0  0  0  0  0  0  0  0  0  0
   22.4769   -9.5438  -17.0578 O   0  0  0  0  0  0  0  0  0  0  0  0
   19.1657   -8.2593  -17.3064 C   0  0  0  0  0  0  0  0  0  0  0  0
   19.4864   -7.4645  -16.0622 C   0  0  1  0  0  0  0  0  0  0  0  0
   18.6181   -7.9491  -15.0595 O   0  0  0  0  0  0  0  0  0  0  0  0
   20.9278   -7.7004  -15.6879 C   0  0  2  0  0  0  0  0  0  0  0  0
   21.1713   -9.0753  -15.2827 N   0  0  0  0  0  0  0  0  0  0  0  0
   21.2524   -6.8343  -14.5442 C   0  0  0  0  0  0  0  0  0  0  0  0
   21.4631   -7.3619  -13.2880 O   0  0  0  0  0  0  0  0  0  0  0  0
   21.3413   -5.6019  -14.7001 O   0  0  0  0  0  0  0  0  0  0  0  0
  2  1  1  0
  3  2  1  0
  4  3  1  0
  5  4  1  0
  5  7  1  0
  5  6  1  1
  7 13  1  0
  7  8  2  0
 10  9  1  1
 10 11  1  0
 12 10  1  0
 12 13  1  6
 14 12  1  0
 14 15  2  0
 17 16  1  6
 17 19  1  0
 18 17  1  0
 19 20  1  1
 20 14  1  0
 21 19  1  0
 22 21  1  0
 23 21  2  0
M  END
$$$$
