YDE.pdb
     RDKit          3D

 30 30  0  0  1  0  0  0  0  0999 V2000
   20.6644  -19.0823  -15.7801 O   0  0  0  0  0  0  0  0  0  0  0  0
   20.4863  -17.7619  -16.2100 C   0  0  0  0  0  0  0  0  0  0  0  0
   21.4595  -16.8031  -16.0477 C   0  0  0  0  0  0  0  0  0  0  0  0
   21.2234  -15.5228  -16.4911 C   0  0  0  0  0  0  0  0  0  0  0  0
   20.0414  -15.1316  -17.1043 C   0  0  0  0  0  0  0  0  0  0  0  0
   19.8594  -13.7255  -17.5508 C   0  0  0  0  0  0  0  0  0  0  0  0
   19.7312  -12.8687  -16.3005 C   0  0  2  0  0  0  0  0  0  0  0  0
   18.5280  -13.2418  -15.5540 N   0  0  0  0  0  0  0  0  0  0  0  0
   19.4751  -11.4880  -16.7914 C   0  0  0  0  0  0  0  0  0  0  0  0
   20.2139  -10.8822  -17.6041 O   0  0  0  0  0  0  0  0  0  0  0  0
   19.0757  -16.0985  -17.2614 C   0  0  0  0  0  0  0  0  0  0  0  0
   19.2926  -17.3938  -16.8220 C   0  0  0  0  0  0  0  0  0  0  0  0
   18.3109  -10.8240  -16.2965 N   0  0  0  0  0  0  0  0  0  0  0  0
   18.0744   -9.4712  -16.6994 C   0  0  1  0  0  0  0  0  0  0  0  0
   16.6448   -9.2481  -17.1611 C   0  0  0  0  0  0  0  0  0  0  0  0
   16.4766   -7.8599  -17.6460 C   0  0  0  0  0  0  0  0  0  0  0  0
   17.1820   -7.2973  -18.5027 O   0  0  0  0  0  0  0  0  0  0  0  0
   18.2897   -8.5841  -15.5222 C   0  0  0  0  0  0  0  0  0  0  0  0
   17.8157   -8.8323  -14.3867 O   0  0  0  0  0  0  0  0  0  0  0  0
   15.4250   -7.1407  -17.0738 O   0  0  0  0  0  0  0  0  0  0  0  0
   19.0698   -7.4224  -15.7443 N   0  0  0  0  0  0  0  0  0  0  0  0
   19.4037   -6.4914  -14.6200 C   0  0  1  0  0  0  0  0  0  0  0  0
   20.7567   -5.9800  -15.0096 C   0  0  0  0  0  0  0  0  0  0  0  0
   21.3709   -4.8950  -14.2305 C   0  0  0  0  0  0  0  0  0  0  0  0
   22.6406   -4.4283  -14.7974 C   0  0  0  0  0  0  0  0  0  0  0  0
   23.0486   -3.2636  -14.5457 O   0  0  0  0  0  0  0  0  0  0  0  0
   18.3106   -5.5430  -14.5712 C   0  0  0  0  0  0  0  0  0  0  0  0
   17.7660   -5.2333  -13.4896 O   0  0  0  0  0  0  0  0  0  0  0  0
   23.4187   -5.2314  -15.6059 O   0  0  0  0  0  0  0  0  0  0  0  0
   17.8162   -4.9348  -15.7059 O   0  0  0  0  0  0  0  0  0  0  0  0
  2  1  1  0
  2 12  2  0
  3  2  1  0
  4  3  2  0
  4  5  1  0
  5 11  2  0
  6  5  1  0
  7  6  1  0
  7  8  1  1
  9  7  1  0
 10  9  2  0
 11 12  1  0
 13  9  1  0
 14 13  1  0
 14 15  1  1
 16 15  1  0
 17 16  2  0
 18 14  1  0
 18 19  2  0
 20 16  1  0
 21 18  1  0
 22 21  1  0
 22 23  1  6
 23 24  1  0
 24 25  1  0
 25 29  1  0
 26 25  2  0
 27 22  1  0
 28 27  2  0
 30 27  1  0
M  END
$$$$
