YDE.pdb
     RDKit          3D

 30 30  0  0  1  0  0  0  0  0999 V2000
   30.3276  -21.4955   -9.1124 O   0  0  0  0  0  0  0  0  0  0  0  0
   29.4740  -21.0511  -10.1292 C   0  0  0  0  0  0  0  0  0  0  0  0
   28.1050  -21.1336  -10.0219 C   0  0  0  0  0  0  0  0  0  0  0  0
   27.3203  -20.6801  -11.0564 C   0  0  0  0  0  0  0  0  0  0  0  0
   27.8349  -20.1335  -12.2237 C   0  0  0  0  0  0  0  0  0  0  0  0
   26.9202  -19.6710  -13.3003 C   0  0  0  0  0  0  0  0  0  0  0  0
   26.4426  -20.9068  -14.0477 C   0  0  2  0  0  0  0  0  0  0  0  0
   27.4938  -21.3921  -14.9442 N   0  0  0  0  0  0  0  0  0  0  0  0
   25.3532  -20.4319  -14.9424 C   0  0  0  0  0  0  0  0  0  0  0  0
   25.5394  -19.7351  -15.9686 O   0  0  0  0  0  0  0  0  0  0  0  0
   29.2048  -20.0558  -12.3198 C   0  0  0  0  0  0  0  0  0  0  0  0
   30.0136  -20.5069  -11.2901 C   0  0  0  0  0  0  0  0  0  0  0  0
   24.0168  -20.8011  -14.5975 N   0  0  0  0  0  0  0  0  0  0  0  0
   22.9648  -20.4909  -15.5171 C   0  0  1  0  0  0  0  0  0  0  0  0
   22.4178  -21.7284  -16.2070 C   0  0  0  0  0  0  0  0  0  0  0  0
   23.3663  -22.1957  -17.2425 C   0  0  0  0  0  0  0  0  0  0  0  0
   23.8706  -21.4943  -18.1379 O   0  0  0  0  0  0  0  0  0  0  0  0
   21.8353  -19.8883  -14.7553 C   0  0  0  0  0  0  0  0  0  0  0  0
   21.6276  -20.1289  -13.5410 O   0  0  0  0  0  0  0  0  0  0  0  0
   23.7082  -23.5487  -17.1859 O   0  0  0  0  0  0  0  0  0  0  0  0
   20.9866  -19.0124  -15.4765 N   0  0  0  0  0  0  0  0  0  0  0  0
   19.7568  -18.4370  -14.8451 C   0  0  1  0  0  0  0  0  0  0  0  0
   19.3146  -17.4228  -15.8548 C   0  0  0  0  0  0  0  0  0  0  0  0
   18.0111  -16.7624  -15.6926 C   0  0  0  0  0  0  0  0  0  0  0  0
   17.6952  -15.8383  -16.7869 C   0  0  0  0  0  0  0  0  0  0  0  0
   16.6485  -16.0068  -17.4668 O   0  0  0  0  0  0  0  0  0  0  0  0
   18.8881  -19.5689  -14.5983 C   0  0  0  0  0  0  0  0  0  0  0  0
   18.8730  -20.5562  -15.3647 O   0  0  0  0  0  0  0  0  0  0  0  0
   18.5127  -14.7721  -17.1017 O   0  0  0  0  0  0  0  0  0  0  0  0
   18.0387  -19.6185  -13.5131 O   0  0  0  0  0  0  0  0  0  0  0  0
  2  1  1  0
  2 12  2  0
  3  2  1  0
  4  3  2  0
  4  5  1  0
  5 11  2  0
  6  5  1  0
  7  6  1  0
  7  8  1  6
  9  7  1  0
 10  9  2  0
 11 12  1  0
 13  9  1  0
 14 13  1  0
 14 15  1  1
 16 15  1  0
 17 16  2  0
 18 14  1  0
 18 19  2  0
 20 16  1  0
 21 18  1  0
 22 21  1  0
 22 23  1  6
 23 24  1  0
 24 25  1  0
 25 29  1  0
 26 25  2  0
 27 22  1  0
 28 27  2  0
 30 27  1  0
M  END
$$$$
