YDE.pdb
     RDKit          3D

 30 30  0  0  1  0  0  0  0  0999 V2000
   20.9906  -19.6109  -15.6497 O   0  0  0  0  0  0  0  0  0  0  0  0
   21.5013  -18.3248  -15.8617 C   0  0  0  0  0  0  0  0  0  0  0  0
   21.9855  -17.9235  -17.0853 C   0  0  0  0  0  0  0  0  0  0  0  0
   22.4747  -16.6462  -17.2293 C   0  0  0  0  0  0  0  0  0  0  0  0
   22.5100  -15.7198  -16.1965 C   0  0  0  0  0  0  0  0  0  0  0  0
   23.0608  -14.3590  -16.4301 C   0  0  0  0  0  0  0  0  0  0  0  0
   21.8831  -13.4385  -16.7123 C   0  0  2  0  0  0  0  0  0  0  0  0
   21.2493  -13.8041  -17.9807 N   0  0  0  0  0  0  0  0  0  0  0  0
   22.4777  -12.0949  -16.9446 C   0  0  0  0  0  0  0  0  0  0  0  0
   23.2620  -11.5257  -16.1483 O   0  0  0  0  0  0  0  0  0  0  0  0
   22.0232  -16.1320  -14.9779 C   0  0  0  0  0  0  0  0  0  0  0  0
   21.5262  -17.4137  -14.8108 C   0  0  0  0  0  0  0  0  0  0  0  0
   22.1231  -11.4238  -18.1551 N   0  0  0  0  0  0  0  0  0  0  0  0
   22.5826  -10.0825  -18.3509 C   0  0  1  0  0  0  0  0  0  0  0  0
   22.9924   -9.8170  -19.7890 C   0  0  0  0  0  0  0  0  0  0  0  0
   23.5119   -8.4379  -19.9246 C   0  0  0  0  0  0  0  0  0  0  0  0
   24.2008   -7.8333  -19.0832 O   0  0  0  0  0  0  0  0  0  0  0  0
   21.4616   -9.1507  -18.0439 C   0  0  0  0  0  0  0  0  0  0  0  0
   20.3827   -9.1484  -18.6855 O   0  0  0  0  0  0  0  0  0  0  0  0
   23.1845   -7.7803  -21.1124 O   0  0  0  0  0  0  0  0  0  0  0  0
   21.6703   -8.2469  -16.9729 N   0  0  0  0  0  0  0  0  0  0  0  0
   20.5787   -7.3304  -16.5137 C   0  0  1  0  0  0  0  0  0  0  0  0
   19.5716   -8.2811  -15.9432 C   0  0  0  0  0  0  0  0  0  0  0  0
   18.4289   -7.7533  -15.1836 C   0  0  0  0  0  0  0  0  0  0  0  0
   17.5742   -8.8066  -14.6256 C   0  0  0  0  0  0  0  0  0  0  0  0
   17.8697  -10.0169  -14.8105 O   0  0  0  0  0  0  0  0  0  0  0  0
   21.2175   -6.3983  -15.6082 C   0  0  0  0  0  0  0  0  0  0  0  0
   22.4353   -6.4837  -15.3394 O   0  0  0  0  0  0  0  0  0  0  0  0
   16.4428   -8.5164  -13.8908 O   0  0  0  0  0  0  0  0  0  0  0  0
   20.5229   -5.3742  -14.9996 O   0  0  0  0  0  0  0  0  0  0  0  0
  2  1  1  0
  2 12  2  0
  3  2  1  0
  4  3  2  0
  4  5  1  0
  5 11  2  0
  6  5  1  0
  7  6  1  0
  7  8  1  6
  9  7  1  0
 10  9  2  0
 11 12  1  0
 13  9  1  0
 14 13  1  0
 14 15  1  6
 16 15  1  0
 17 16  2  0
 18 14  1  0
 18 19  2  0
 20 16  1  0
 21 18  1  0
 22 21  1  0
 22 23  1  1
 23 24  1  0
 24 25  1  0
 25 29  1  0
 26 25  2  0
 27 22  1  0
 28 27  2  0
 30 27  1  0
M  END
$$$$
