YDE.pdb
     RDKit          3D

 30 30  0  0  1  0  0  0  0  0999 V2000
   16.6173  -17.3050  -15.0682 O   0  0  0  0  0  0  0  0  0  0  0  0
   16.9566  -15.9596  -15.2543 C   0  0  0  0  0  0  0  0  0  0  0  0
   16.0473  -15.0332  -15.7103 C   0  0  0  0  0  0  0  0  0  0  0  0
   16.4425  -13.7259  -15.8730 C   0  0  0  0  0  0  0  0  0  0  0  0
   17.7266  -13.2756  -15.5997 C   0  0  0  0  0  0  0  0  0  0  0  0
   18.0785  -11.8464  -15.8073 C   0  0  0  0  0  0  0  0  0  0  0  0
   18.2146  -11.6291  -17.3067 C   0  0  2  0  0  0  0  0  0  0  0  0
   19.4559  -12.2340  -17.7938 N   0  0  0  0  0  0  0  0  0  0  0  0
   18.3995  -10.1631  -17.4790 C   0  0  0  0  0  0  0  0  0  0  0  0
   19.5091   -9.5819  -17.4157 O   0  0  0  0  0  0  0  0  0  0  0  0
   18.6269  -14.2104  -15.1443 C   0  0  0  0  0  0  0  0  0  0  0  0
   18.2501  -15.5320  -14.9735 C   0  0  0  0  0  0  0  0  0  0  0  0
   17.2299   -9.3824  -17.7318 N   0  0  0  0  0  0  0  0  0  0  0  0
   17.3728   -7.9648  -17.8683 C   0  0  1  0  0  0  0  0  0  0  0  0
   16.1977   -7.3336  -18.5945 C   0  0  0  0  0  0  0  0  0  0  0  0
   16.4493   -5.8918  -18.8143 C   0  0  0  0  0  0  0  0  0  0  0  0
   15.6105   -4.9802  -18.6978 O   0  0  0  0  0  0  0  0  0  0  0  0
   17.4114   -7.3616  -16.5067 C   0  0  0  0  0  0  0  0  0  0  0  0
   16.6707   -7.7475  -15.5696 O   0  0  0  0  0  0  0  0  0  0  0  0
   17.7526   -5.5529  -19.1845 O   0  0  0  0  0  0  0  0  0  0  0  0
   18.3408   -6.3102  -16.3106 N   0  0  0  0  0  0  0  0  0  0  0  0
   18.5239   -5.6846  -14.9625 C   0  0  1  0  0  0  0  0  0  0  0  0
   20.0110   -5.7179  -14.7858 C   0  0  0  0  0  0  0  0  0  0  0  0
   20.6106   -5.1049  -13.5916 C   0  0  0  0  0  0  0  0  0  0  0  0
   22.0769   -5.0939  -13.6262 C   0  0  0  0  0  0  0  0  0  0  0  0
   22.7245   -5.9926  -13.0267 O   0  0  0  0  0  0  0  0  0  0  0  0
   17.8822   -4.3896  -15.0514 C   0  0  0  0  0  0  0  0  0  0  0  0
   17.3278   -3.8690  -14.0594 O   0  0  0  0  0  0  0  0  0  0  0  0
   22.7843   -4.1227  -14.3047 O   0  0  0  0  0  0  0  0  0  0  0  0
   17.8493   -3.6665  -16.2252 O   0  0  0  0  0  0  0  0  0  0  0  0
  2  1  1  0
  2 12  2  0
  3  2  1  0
  4  3  2  0
  4  5  1  0
  5 11  2  0
  6  5  1  0
  7  6  1  0
  7  8  1  1
  9  7  1  0
 10  9  2  0
 11 12  1  0
 13  9  1  0
 14 13  1  0
 14 15  1  6
 16 15  1  0
 17 16  2  0
 18 14  1  0
 18 19  2  0
 20 16  1  0
 21 18  1  0
 22 21  1  0
 22 23  1  6
 23 24  1  0
 24 25  1  0
 25 29  1  0
 26 25  2  0
 27 22  1  0
 28 27  2  0
 30 27  1  0
M  END
$$$$
