YDE.pdb
     RDKit          3D

 30 30  0  0  1  0  0  0  0  0999 V2000
   28.0728  -21.1218   -8.9680 O   0  0  0  0  0  0  0  0  0  0  0  0
   27.9628  -20.6135  -10.2678 C   0  0  0  0  0  0  0  0  0  0  0  0
   26.7488  -20.2753  -10.8196 C   0  0  0  0  0  0  0  0  0  0  0  0
   26.7069  -19.7812  -12.1025 C   0  0  0  0  0  0  0  0  0  0  0  0
   27.8358  -19.5991  -12.8890 C   0  0  0  0  0  0  0  0  0  0  0  0
   27.7075  -19.0653  -14.2704 C   0  0  0  0  0  0  0  0  0  0  0  0
   27.5688  -20.2586  -15.2035 C   0  0  2  0  0  0  0  0  0  0  0  0
   28.6445  -20.2502  -16.1969 N   0  0  0  0  0  0  0  0  0  0  0  0
   26.3209  -20.0145  -15.9755 C   0  0  0  0  0  0  0  0  0  0  0  0
   26.2608  -19.3084  -17.0104 O   0  0  0  0  0  0  0  0  0  0  0  0
   29.0439  -19.9404  -12.3269 C   0  0  0  0  0  0  0  0  0  0  0  0
   29.1087  -20.4399  -11.0369 C   0  0  0  0  0  0  0  0  0  0  0  0
   25.1243  -20.6297  -15.4948 N   0  0  0  0  0  0  0  0  0  0  0  0
   23.9230  -20.4721  -16.2567 C   0  0  1  0  0  0  0  0  0  0  0  0
   23.5203  -21.7508  -16.9704 C   0  0  0  0  0  0  0  0  0  0  0  0
   22.3695  -21.4943  -17.8649 C   0  0  0  0  0  0  0  0  0  0  0  0
   21.8243  -20.3917  -18.0522 O   0  0  0  0  0  0  0  0  0  0  0  0
   22.8134  -20.1330  -15.3225 C   0  0  0  0  0  0  0  0  0  0  0  0
   22.7465  -20.5830  -14.1526 O   0  0  0  0  0  0  0  0  0  0  0  0
   21.8713  -22.6067  -18.5468 O   0  0  0  0  0  0  0  0  0  0  0  0
   21.8143  -19.2615  -15.8224 N   0  0  0  0  0  0  0  0  0  0  0  0
   20.7024  -18.7785  -14.9434 C   0  0  1  0  0  0  0  0  0  0  0  0
   20.3048  -17.4906  -15.5967 C   0  0  0  0  0  0  0  0  0  0  0  0
   19.1933  -16.7088  -15.0357 C   0  0  0  0  0  0  0  0  0  0  0  0
   18.9271  -15.4730  -15.7796 C   0  0  0  0  0  0  0  0  0  0  0  0
   19.6782  -15.1428  -16.7352 O   0  0  0  0  0  0  0  0  0  0  0  0
   19.7340  -19.8549  -14.9253 C   0  0  0  0  0  0  0  0  0  0  0  0
   19.6111  -20.6355  -15.8938 O   0  0  0  0  0  0  0  0  0  0  0  0
   17.8657  -14.6477  -15.4691 O   0  0  0  0  0  0  0  0  0  0  0  0
   18.9029  -20.0756  -13.8472 O   0  0  0  0  0  0  0  0  0  0  0  0
  2  1  1  0
  2 12  2  0
  3  2  1  0
  4  3  2  0
  4  5  1  0
  5 11  2  0
  6  5  1  0
  7  6  1  0
  7  8  1  6
  9  7  1  0
 10  9  2  0
 11 12  1  0
 13  9  1  0
 14 13  1  0
 14 15  1  1
 16 15  1  0
 17 16  2  0
 18 14  1  0
 18 19  2  0
 20 16  1  0
 21 18  1  0
 22 21  1  0
 22 23  1  6
 23 24  1  0
 24 25  1  0
 25 29  1  0
 26 25  2  0
 27 22  1  0
 28 27  2  0
 30 27  1  0
M  END
$$$$
