YDE.pdb
     RDKit          3D

 30 30  0  0  1  0  0  0  0  0999 V2000
   29.7148  -19.9328   -3.7854 O   0  0  0  0  0  0  0  0  0  0  0  0
   28.9198  -19.9484   -4.9377 C   0  0  0  0  0  0  0  0  0  0  0  0
   28.7345  -18.8269   -5.7126 C   0  0  0  0  0  0  0  0  0  0  0  0
   27.9407  -18.9068   -6.8330 C   0  0  0  0  0  0  0  0  0  0  0  0
   27.3038  -20.0717   -7.2375 C   0  0  0  0  0  0  0  0  0  0  0  0
   26.4562  -20.0760   -8.4587 C   0  0  0  0  0  0  0  0  0  0  0  0
   27.0148  -21.1401   -9.3911 C   0  0  2  0  0  0  0  0  0  0  0  0
   28.4343  -20.8902   -9.6494 N   0  0  0  0  0  0  0  0  0  0  0  0
   26.3347  -20.9197  -10.6957 C   0  0  0  0  0  0  0  0  0  0  0  0
   26.5708  -19.9514  -11.4571 O   0  0  0  0  0  0  0  0  0  0  0  0
   27.4965  -21.1865   -6.4552 C   0  0  0  0  0  0  0  0  0  0  0  0
   28.2915  -21.1282   -5.3228 C   0  0  0  0  0  0  0  0  0  0  0  0
   25.3538  -21.8801  -11.0915 N   0  0  0  0  0  0  0  0  0  0  0  0
   24.6804  -21.6919  -12.3404 C   0  0  1  0  0  0  0  0  0  0  0  0
   24.6354  -22.9638  -13.1692 C   0  0  0  0  0  0  0  0  0  0  0  0
   24.0102  -22.6940  -14.4832 C   0  0  0  0  0  0  0  0  0  0  0  0
   23.9384  -21.5843  -15.0413 O   0  0  0  0  0  0  0  0  0  0  0  0
   23.2678  -21.3099  -12.0615 C   0  0  0  0  0  0  0  0  0  0  0  0
   22.6224  -21.7560  -11.0816 O   0  0  0  0  0  0  0  0  0  0  0  0
   23.4597  -23.8015  -15.1320 O   0  0  0  0  0  0  0  0  0  0  0  0
   22.6708  -20.4013  -12.9701 N   0  0  0  0  0  0  0  0  0  0  0  0
   21.2545  -19.9496  -12.7899 C   0  0  1  0  0  0  0  0  0  0  0  0
   21.1775  -18.7500  -13.6836 C   0  0  0  0  0  0  0  0  0  0  0  0
   20.0971  -17.7722  -13.4892 C   0  0  0  0  0  0  0  0  0  0  0  0
   19.9617  -16.8351  -14.6094 C   0  0  0  0  0  0  0  0  0  0  0  0
   20.7722  -16.8881  -15.5720 O   0  0  0  0  0  0  0  0  0  0  0  0
   20.4406  -21.0984  -13.1284 C   0  0  0  0  0  0  0  0  0  0  0  0
   20.8094  -21.9255  -13.9900 O   0  0  0  0  0  0  0  0  0  0  0  0
   18.9616  -15.8853  -14.6505 O   0  0  0  0  0  0  0  0  0  0  0  0
   19.2255  -21.3403  -12.5228 O   0  0  0  0  0  0  0  0  0  0  0  0
  2  1  1  0
  2 12  2  0
  3  2  1  0
  4  3  2  0
  4  5  1  0
  5 11  2  0
  6  5  1  0
  7  6  1  0
  7  8  1  6
  9  7  1  0
 10  9  2  0
 11 12  1  0
 13  9  1  0
 14 13  1  0
 14 15  1  6
 16 15  1  0
 17 16  2  0
 18 14  1  0
 18 19  2  0
 20 16  1  0
 21 18  1  0
 22 21  1  0
 22 23  1  6
 23 24  1  0
 24 25  1  0
 25 29  1  0
 26 25  2  0
 27 22  1  0
 28 27  2  0
 30 27  1  0
M  END
$$$$
