QNL.pdb
     RDKit          3D

 26 25  0  0  1  0  0  0  0  0999 V2000
    8.6518  -12.8693   16.7077 N   0  0  0  0  0  0  0  0  0  0  0  0
    8.0959  -14.1143   17.0755 C   0  0  0  0  0  0  0  0  0  0  0  0
    7.8705  -14.9678   16.1930 O   0  0  0  0  0  0  0  0  0  0  0  0
    7.7857  -14.4050   18.4770 C   0  0  0  0  0  0  0  0  0  0  0  0
    7.7631  -15.8669   18.7972 C   0  0  0  0  0  0  0  0  0  0  0  0
    7.4568  -15.9973   20.2867 C   0  0  2  0  0  0  0  0  0  0  0  0
    6.8947  -14.7682   20.8041 N   0  0  0  0  0  0  0  0  0  0  0  0
    8.7327  -16.2552   20.9978 C   0  0  0  0  0  0  0  0  0  0  0  0
    9.3676  -17.3294   20.7996 O   0  0  0  0  0  0  0  0  0  0  0  0
   12.3392  -13.7137   20.0772 N   0  0  0  0  0  0  0  0  0  0  0  0
   12.1890  -14.7770   20.9862 C   0  0  0  0  0  0  0  0  0  0  0  0
   12.6177  -15.9154   20.7084 O   0  0  0  0  0  0  0  0  0  0  0  0
   11.5166  -14.5365   22.2794 C   0  0  0  0  0  0  0  0  0  0  0  0
   10.5046  -15.6114   22.6182 C   0  0  2  0  0  0  0  0  0  0  0  0
    9.2776  -15.3270   21.9076 N   0  0  0  0  0  0  0  0  0  0  0  0
   10.2038  -15.5380   24.0888 C   0  0  0  0  0  0  0  0  0  0  0  0
   11.1519  -15.5408   24.9094 O   0  0  0  0  0  0  0  0  0  0  0  0
    8.6587  -12.3647   26.6147 C   0  0  0  0  0  0  0  0  0  0  0  0
    7.6598  -13.1958   25.8135 C   0  0  2  0  0  0  0  0  0  0  0  0
    6.3177  -12.5226   25.8763 C   0  0  0  0  0  0  0  0  0  0  0  0
    7.5501  -14.5754   26.3711 C   0  0  0  0  0  0  0  0  0  0  0  0
    8.6288  -15.5245   25.9973 C   0  0  2  0  0  0  0  0  0  0  0  0
    8.8672  -15.4661   24.5522 N   0  0  0  0  0  0  0  0  0  0  0  0
    8.4358  -16.9219   26.4346 C   0  0  0  0  0  0  0  0  0  0  0  0
    8.4036  -17.9930   25.5843 O   0  0  0  0  0  0  0  0  0  0  0  0
    8.2883  -17.1679   27.6612 O   0  0  0  0  0  0  0  0  0  0  0  0
  2  1  1  0
  2  3  2  0
  4  5  1  0
  4  2  1  0
  6  7  1  1
  6  5  1  0
  8  6  1  0
  9  8  2  0
 11 13  1  0
 11 10  1  0
 12 11  2  0
 14 13  1  6
 14 15  1  0
 15  8  1  0
 16 14  1  0
 16 17  2  0
 19 18  1  1
 19 21  1  0
 20 19  1  0
 22 21  1  6
 22 23  1  0
 22 24  1  0
 23 16  1  0
 24 26  2  0
 24 25  1  0
M  END
$$$$
