QNL.pdb
     RDKit          3D

 26 25  0  0  1  0  0  0  0  0999 V2000
    6.6581  -14.5324   16.1064 N   0  0  0  0  0  0  0  0  0  0  0  0
    7.8079  -13.7149   16.1687 C   0  0  0  0  0  0  0  0  0  0  0  0
    8.2650  -13.2215   15.1171 O   0  0  0  0  0  0  0  0  0  0  0  0
    8.4605  -13.4463   17.4520 C   0  0  0  0  0  0  0  0  0  0  0  0
    7.8063  -14.1269   18.6135 C   0  0  0  0  0  0  0  0  0  0  0  0
    8.5332  -13.6658   19.8738 C   0  0  2  0  0  0  0  0  0  0  0  0
    9.9672  -13.7060   19.6824 N   0  0  0  0  0  0  0  0  0  0  0  0
    8.1890  -14.6018   20.9718 C   0  0  0  0  0  0  0  0  0  0  0  0
    6.9803  -14.8233   21.2657 O   0  0  0  0  0  0  0  0  0  0  0  0
   12.0874  -17.3963   23.2087 N   0  0  0  0  0  0  0  0  0  0  0  0
   11.0520  -17.1477   22.2892 C   0  0  0  0  0  0  0  0  0  0  0  0
   11.3059  -16.7007   21.1523 O   0  0  0  0  0  0  0  0  0  0  0  0
    9.6537  -17.4207   22.6799 C   0  0  0  0  0  0  0  0  0  0  0  0
    8.8264  -16.1578   22.8027 C   0  0  2  0  0  0  0  0  0  0  0  0
    9.1808  -15.2696   21.7178 N   0  0  0  0  0  0  0  0  0  0  0  0
    9.1917  -15.4706   24.0884 C   0  0  0  0  0  0  0  0  0  0  0  0
   10.3469  -15.0028   24.2268 O   0  0  0  0  0  0  0  0  0  0  0  0
    8.0486  -11.7376   25.3882 C   0  0  0  0  0  0  0  0  0  0  0  0
    7.0605  -12.8393   25.7632 C   0  0  2  0  0  0  0  0  0  0  0  0
    5.8009  -12.1989   26.2747 C   0  0  0  0  0  0  0  0  0  0  0  0
    7.6308  -13.7263   26.8188 C   0  0  0  0  0  0  0  0  0  0  0  0
    8.6702  -14.6904   26.3780 C   0  0  2  0  0  0  0  0  0  0  0  0
    8.2482  -15.3477   25.1377 N   0  0  0  0  0  0  0  0  0  0  0  0
    9.0843  -15.6926   27.3806 C   0  0  0  0  0  0  0  0  0  0  0  0
    9.7381  -15.3882   28.5430 O   0  0  0  0  0  0  0  0  0  0  0  0
    8.8322  -16.9095   27.1745 O   0  0  0  0  0  0  0  0  0  0  0  0
  2  1  1  0
  2  3  2  0
  4  5  1  0
  4  2  1  0
  6  7  1  6
  6  5  1  0
  8  6  1  0
  9  8  2  0
 11 13  1  0
 11 10  1  0
 12 11  2  0
 14 13  1  6
 14 15  1  0
 15  8  1  0
 16 14  1  0
 16 17  2  0
 19 18  1  1
 19 21  1  0
 20 19  1  0
 22 21  1  1
 22 23  1  0
 22 24  1  0
 23 16  1  0
 24 26  2  0
 24 25  1  0
M  END
$$$$
