QNL.pdb
     RDKit          3D

 26 25  0  0  1  0  0  0  0  0999 V2000
    6.7526  -18.7492   16.7702 N   0  0  0  0  0  0  0  0  0  0  0  0
    6.4092  -19.3466   18.0028 C   0  0  0  0  0  0  0  0  0  0  0  0
    5.3094  -19.9262   18.1159 O   0  0  0  0  0  0  0  0  0  0  0  0
    7.3311  -19.2890   19.1394 C   0  0  0  0  0  0  0  0  0  0  0  0
    8.6172  -18.5864   18.8355 C   0  0  0  0  0  0  0  0  0  0  0  0
    9.2831  -18.2675   20.1712 C   0  0  2  0  0  0  0  0  0  0  0  0
    8.5616  -18.8839   21.2639 N   0  0  0  0  0  0  0  0  0  0  0  0
    9.2444  -16.7975   20.3651 C   0  0  0  0  0  0  0  0  0  0  0  0
    9.2367  -16.0225   19.3674 O   0  0  0  0  0  0  0  0  0  0  0  0
    7.8764  -12.0331   20.4725 N   0  0  0  0  0  0  0  0  0  0  0  0
    7.3757  -12.9800   21.3847 C   0  0  0  0  0  0  0  0  0  0  0  0
    6.6653  -12.6220   22.3460 O   0  0  0  0  0  0  0  0  0  0  0  0
    7.6978  -14.4094   21.1967 C   0  0  0  0  0  0  0  0  0  0  0  0
    9.0232  -14.7944   21.8206 C   0  0  2  0  0  0  0  0  0  0  0  0
    9.2151  -16.2176   21.6493 N   0  0  0  0  0  0  0  0  0  0  0  0
    8.9537  -14.5213   23.2968 C   0  0  0  0  0  0  0  0  0  0  0  0
    8.8786  -13.3357   23.6981 O   0  0  0  0  0  0  0  0  0  0  0  0
    8.3959  -12.3832   26.5238 C   0  0  0  0  0  0  0  0  0  0  0  0
    7.4521  -13.1069   25.5666 C   0  0  2  0  0  0  0  0  0  0  0  0
    6.0626  -12.5714   25.7684 C   0  0  0  0  0  0  0  0  0  0  0  0
    7.4603  -14.5766   25.8241 C   0  0  0  0  0  0  0  0  0  0  0  0
    8.7618  -15.2688   25.6479 C   0  0  2  0  0  0  0  0  0  0  0  0
    8.9720  -15.5849   24.2321 N   0  0  0  0  0  0  0  0  0  0  0  0
    8.9702  -16.4688   26.4832 C   0  0  0  0  0  0  0  0  0  0  0  0
    9.1735  -17.7252   25.9816 O   0  0  0  0  0  0  0  0  0  0  0  0
    8.9632  -16.3540   27.7376 O   0  0  0  0  0  0  0  0  0  0  0  0
  2  1  1  0
  2  3  2  0
  4  5  1  0
  4  2  1  0
  6  7  1  1
  6  5  1  0
  8  6  1  0
  9  8  2  0
 11 13  1  0
 11 10  1  0
 12 11  2  0
 14 13  1  6
 14 15  1  0
 15  8  1  0
 16 14  1  0
 16 17  2  0
 19 18  1  1
 19 21  1  0
 20 19  1  0
 22 21  1  6
 22 23  1  0
 22 24  1  0
 23 16  1  0
 24 26  2  0
 24 25  1  0
M  END
$$$$
