QNL.pdb
     RDKit          3D

 26 25  0  0  1  0  0  0  0  0999 V2000
    8.6237  -12.1021   19.0901 N   0  0  0  0  0  0  0  0  0  0  0  0
    8.0535  -13.3281   18.6825 C   0  0  0  0  0  0  0  0  0  0  0  0
    7.7392  -13.4880   17.4851 O   0  0  0  0  0  0  0  0  0  0  0  0
    7.8315  -14.4035   19.6517 C   0  0  0  0  0  0  0  0  0  0  0  0
    8.1055  -15.7702   19.1068 C   0  0  0  0  0  0  0  0  0  0  0  0
    7.7873  -16.7696   20.2156 C   0  0  2  0  0  0  0  0  0  0  0  0
    6.6479  -16.3290   20.9915 N   0  0  0  0  0  0  0  0  0  0  0  0
    8.9603  -16.8415   21.1205 C   0  0  0  0  0  0  0  0  0  0  0  0
    9.1262  -17.8440   21.8714 O   0  0  0  0  0  0  0  0  0  0  0  0
   12.5927  -14.0528   19.3864 N   0  0  0  0  0  0  0  0  0  0  0  0
   12.6063  -15.0896   20.3374 C   0  0  0  0  0  0  0  0  0  0  0  0
   13.0745  -16.2097   20.0492 O   0  0  0  0  0  0  0  0  0  0  0  0
   12.0598  -14.8428   21.6875 C   0  0  0  0  0  0  0  0  0  0  0  0
   11.0330  -15.8781   22.0980 C   0  0  2  0  0  0  0  0  0  0  0  0
    9.9201  -15.8110   21.1769 N   0  0  0  0  0  0  0  0  0  0  0  0
   10.5139  -15.5212   23.4624 C   0  0  0  0  0  0  0  0  0  0  0  0
   11.2969  -15.5439   24.4416 O   0  0  0  0  0  0  0  0  0  0  0  0
    5.4274  -13.0750   25.9567 C   0  0  0  0  0  0  0  0  0  0  0  0
    6.9175  -13.3619   26.1233 C   0  0  2  0  0  0  0  0  0  0  0  0
    7.6086  -12.0885   26.5222 C   0  0  0  0  0  0  0  0  0  0  0  0
    7.5057  -13.8681   24.8488 C   0  0  0  0  0  0  0  0  0  0  0  0
    8.7413  -14.6821   24.9713 C   0  0  2  0  0  0  0  0  0  0  0  0
    9.1567  -15.1618   23.6501 N   0  0  0  0  0  0  0  0  0  0  0  0
    8.6814  -15.8009   25.9336 C   0  0  0  0  0  0  0  0  0  0  0  0
    9.1066  -15.7187   27.2312 O   0  0  0  0  0  0  0  0  0  0  0  0
    8.2153  -16.9098   25.5595 O   0  0  0  0  0  0  0  0  0  0  0  0
  2  1  1  0
  2  3  2  0
  4  5  1  0
  4  2  1  0
  6  7  1  1
  6  5  1  0
  8  6  1  0
  9  8  2  0
 11 13  1  0
 11 10  1  0
 12 11  2  0
 14 13  1  6
 14 15  1  0
 15  8  1  0
 16 14  1  0
 16 17  2  0
 19 18  1  6
 19 21  1  0
 20 19  1  0
 22 21  1  6
 22 23  1  0
 22 24  1  0
 23 16  1  0
 24 26  2  0
 24 25  1  0
M  END
$$$$
