QNL.pdb
     RDKit          3D

 26 25  0  0  1  0  0  0  0  0999 V2000
    8.8191  -11.8261   19.0011 N   0  0  0  0  0  0  0  0  0  0  0  0
    8.1684  -12.9931   18.5438 C   0  0  0  0  0  0  0  0  0  0  0  0
    8.1615  -13.2504   17.3224 O   0  0  0  0  0  0  0  0  0  0  0  0
    7.5071  -13.8947   19.4897 C   0  0  0  0  0  0  0  0  0  0  0  0
    7.5256  -15.3300   19.0657 C   0  0  0  0  0  0  0  0  0  0  0  0
    7.4166  -16.1754   20.3317 C   0  0  2  0  0  0  0  0  0  0  0  0
    7.0999  -15.3472   21.4755 N   0  0  0  0  0  0  0  0  0  0  0  0
    8.7342  -16.8117   20.5748 C   0  0  0  0  0  0  0  0  0  0  0  0
    9.3859  -17.3151   19.6166 O   0  0  0  0  0  0  0  0  0  0  0  0
   12.2777  -16.1607   19.6980 N   0  0  0  0  0  0  0  0  0  0  0  0
   11.9512  -15.0475   20.4939 C   0  0  0  0  0  0  0  0  0  0  0  0
   12.7540  -14.1008   20.6219 O   0  0  0  0  0  0  0  0  0  0  0  0
   10.6444  -15.0054   21.1816 C   0  0  0  0  0  0  0  0  0  0  0  0
   10.4850  -16.1176   22.1974 C   0  0  2  0  0  0  0  0  0  0  0  0
    9.3013  -16.8783   21.8633 N   0  0  0  0  0  0  0  0  0  0  0  0
   10.2606  -15.5012   23.5495 C   0  0  0  0  0  0  0  0  0  0  0  0
   11.2126  -14.9228   24.1253 O   0  0  0  0  0  0  0  0  0  0  0  0
    5.6852  -12.7668   26.3455 C   0  0  0  0  0  0  0  0  0  0  0  0
    7.1631  -13.1387   26.4361 C   0  0  2  0  0  0  0  0  0  0  0  0
    7.9694  -11.8747   26.5387 C   0  0  0  0  0  0  0  0  0  0  0  0
    7.5918  -13.9049   25.2297 C   0  0  0  0  0  0  0  0  0  0  0  0
    8.7759  -14.7852   25.3951 C   0  0  2  0  0  0  0  0  0  0  0  0
    8.9912  -15.5677   24.1745 N   0  0  0  0  0  0  0  0  0  0  0  0
    8.7612  -15.6668   26.5799 C   0  0  0  0  0  0  0  0  0  0  0  0
    8.9060  -17.0260   26.5251 O   0  0  0  0  0  0  0  0  0  0  0  0
    8.6058  -15.1594   27.7224 O   0  0  0  0  0  0  0  0  0  0  0  0
  2  1  1  0
  2  3  2  0
  4  5  1  0
  4  2  1  0
  6  7  1  1
  6  5  1  0
  8  6  1  0
  9  8  2  0
 11 13  1  0
 11 10  1  0
 12 11  2  0
 14 13  1  6
 14 15  1  0
 15  8  1  0
 16 14  1  0
 16 17  2  0
 19 18  1  6
 19 21  1  0
 20 19  1  0
 22 21  1  6
 22 23  1  0
 22 24  1  0
 23 16  1  0
 24 26  2  0
 24 25  1  0
M  END
$$$$
