QNL.pdb
     RDKit          3D

 26 25  0  0  1  0  0  0  0  0999 V2000
    7.0439  -13.2616   16.4443 N   0  0  0  0  0  0  0  0  0  0  0  0
    8.1410  -14.1411   16.5754 C   0  0  0  0  0  0  0  0  0  0  0  0
    8.3908  -14.9480   15.6564 O   0  0  0  0  0  0  0  0  0  0  0  0
    8.9795  -14.1099   17.7758 C   0  0  0  0  0  0  0  0  0  0  0  0
    8.4706  -13.1903   18.8413 C   0  0  0  0  0  0  0  0  0  0  0  0
    9.4239  -13.3038   20.0277 C   0  0  2  0  0  0  0  0  0  0  0  0
   10.7536  -13.6637   19.5843 N   0  0  0  0  0  0  0  0  0  0  0  0
    8.9268  -14.3831   20.9155 C   0  0  0  0  0  0  0  0  0  0  0  0
    7.6963  -14.4674   21.1897 O   0  0  0  0  0  0  0  0  0  0  0  0
    8.5755  -18.8358   20.7218 N   0  0  0  0  0  0  0  0  0  0  0  0
    9.8335  -18.2505   20.9548 C   0  0  0  0  0  0  0  0  0  0  0  0
   10.7204  -18.2807   20.0776 O   0  0  0  0  0  0  0  0  0  0  0  0
   10.1000  -17.5958   22.2521 C   0  0  0  0  0  0  0  0  0  0  0  0
    9.3103  -16.3158   22.4312 C   0  0  2  0  0  0  0  0  0  0  0  0
    9.7937  -15.3410   21.4785 N   0  0  0  0  0  0  0  0  0  0  0  0
    9.5805  -15.7764   23.8077 C   0  0  0  0  0  0  0  0  0  0  0  0
   10.4169  -14.8532   23.9511 O   0  0  0  0  0  0  0  0  0  0  0  0
    7.6097  -12.3182   25.5378 C   0  0  0  0  0  0  0  0  0  0  0  0
    7.6436  -13.8348   25.7091 C   0  0  2  0  0  0  0  0  0  0  0  0
    6.5466  -14.2344   26.6552 C   0  0  0  0  0  0  0  0  0  0  0  0
    8.9587  -14.2771   26.2581 C   0  0  0  0  0  0  0  0  0  0  0  0
    9.2155  -15.7394   26.2548 C   0  0  2  0  0  0  0  0  0  0  0  0
    8.9028  -16.2987   24.9365 N   0  0  0  0  0  0  0  0  0  0  0  0
    8.5432  -16.5127   27.3185 C   0  0  0  0  0  0  0  0  0  0  0  0
    8.7890  -16.3515   28.6545 O   0  0  0  0  0  0  0  0  0  0  0  0
    7.6879  -17.3811   27.0007 O   0  0  0  0  0  0  0  0  0  0  0  0
  2  1  1  0
  2  3  2  0
  4  5  1  0
  4  2  1  0
  6  7  1  6
  6  5  1  0
  8  6  1  0
  9  8  2  0
 11 13  1  0
 11 10  1  0
 12 11  2  0
 14 13  1  6
 14 15  1  0
 15  8  1  0
 16 14  1  0
 16 17  2  0
 19 18  1  1
 19 21  1  0
 20 19  1  0
 22 21  1  6
 22 23  1  0
 22 24  1  0
 23 16  1  0
 24 26  2  0
 24 25  1  0
M  END
$$$$
