FWD.pdb
     RDKit          3D

 34 36  0  0  1  0  0  0  0  0999 V2000
   26.2352  -18.3986   -7.8604 N   0  0  0  0  0  0  0  0  0  0  0  0
   26.5037  -19.7236   -8.3750 C   0  0  1  0  0  0  0  0  0  0  0  0
   26.3933  -20.8232   -7.3719 C   0  0  0  0  0  0  0  0  0  0  0  0
   27.3477  -20.5311   -6.2465 C   0  0  0  0  0  0  0  0  0  0  0  0
   28.6885  -20.9227   -6.3013 C   0  0  0  0  0  0  0  0  0  0  0  0
   29.5893  -20.6757   -5.3131 C   0  0  0  0  0  0  0  0  0  0  0  0
   29.1666  -19.9955   -4.1741 C   0  0  0  0  0  0  0  0  0  0  0  0
   27.8454  -19.5909   -4.0799 C   0  0  0  0  0  0  0  0  0  0  0  0
   26.9629  -19.8612   -5.1056 C   0  0  0  0  0  0  0  0  0  0  0  0
   25.8462  -19.9625   -9.6688 C   0  0  0  0  0  0  0  0  0  0  0  0
   24.6002  -19.8891   -9.7880 O   0  0  0  0  0  0  0  0  0  0  0  0
   26.6230  -20.2985  -10.8596 N   0  0  0  0  0  0  0  0  0  0  0  0
   25.9992  -20.1623  -12.1497 C   0  0  1  0  0  0  0  0  0  0  0  0
   26.8668  -20.2005  -13.3443 C   0  0  0  0  0  0  0  0  0  0  0  0
   26.2145  -20.0235  -14.6610 C   0  0  0  0  0  0  0  0  0  0  0  0
   25.8839  -18.8005  -15.2612 C   0  0  0  0  0  0  0  0  0  0  0  0
   25.3393  -19.0005  -16.4701 N   0  0  0  0  0  0  0  0  0  0  0  0
   25.2893  -20.3322  -16.7108 C   0  0  0  0  0  0  0  0  0  0  0  0
   24.8002  -21.0346  -17.8056 C   0  0  0  0  0  0  0  0  0  0  0  0
   24.8524  -22.4091  -17.7820 C   0  0  0  0  0  0  0  0  0  0  0  0
   25.3877  -23.0369  -16.6731 C   0  0  0  0  0  0  0  0  0  0  0  0
   25.8748  -22.3543  -15.5829 C   0  0  0  0  0  0  0  0  0  0  0  0
   25.8299  -20.9748  -15.5945 C   0  0  0  0  0  0  0  0  0  0  0  0
   24.9390  -21.2434  -12.2911 C   0  0  0  0  0  0  0  0  0  0  0  0
   24.8731  -22.2326  -11.5259 O   0  0  0  0  0  0  0  0  0  0  0  0
   23.9914  -21.1179  -13.3263 N   0  0  0  0  0  0  0  0  0  0  0  0
   22.5769  -21.4723  -13.0814 C   0  0  1  0  0  0  0  0  0  0  0  0
   22.1370  -20.8469  -11.8024 C   0  0  0  0  0  0  0  0  0  0  0  0
   20.7686  -21.2685  -11.4697 C   0  0  0  0  0  0  0  0  0  0  0  0
   20.5699  -22.4490  -11.0581 O   0  0  0  0  0  0  0  0  0  0  0  0
   21.7563  -21.1487  -14.2621 C   0  0  0  0  0  0  0  0  0  0  0  0
   20.7988  -21.9774  -14.7711 O   0  0  0  0  0  0  0  0  0  0  0  0
   19.7014  -20.4152  -11.5924 O   0  0  0  0  0  0  0  0  0  0  0  0
   21.9529  -20.0276  -14.8434 O   0  0  0  0  0  0  0  0  0  0  0  0
  2  1  1  1
  3  2  1  0
  4  3  1  0
  4  5  2  0
  6  5  1  0
  7  6  2  0
  8  9  2  0
  8  7  1  0
  9  4  1  0
 10  2  1  0
 10 11  2  0
 12 10  1  0
 13 12  1  0
 13 14  1  6
 15 14  1  0
 16 15  2  0
 17 18  1  0
 17 16  1  0
 18 23  2  0
 19 20  2  0
 19 18  1  0
 20 21  1  0
 21 22  2  0
 23 22  1  0
 23 15  1  0
 24 13  1  0
 25 24  2  0
 26 24  1  0
 27 26  1  0
 27 31  1  0
 27 28  1  1
 28 29  1  0
 29 30  2  0
 31 32  1  0
 33 29  1  0
 34 31  2  0
M  END
$$$$
