FWD.pdb
     RDKit          3D

 34 36  0  0  1  0  0  0  0  0999 V2000
   27.8017  -20.8685  -14.9412 N   0  0  0  0  0  0  0  0  0  0  0  0
   27.1319  -19.8483  -14.1646 C   0  0  1  0  0  0  0  0  0  0  0  0
   26.1543  -19.0170  -14.9267 C   0  0  0  0  0  0  0  0  0  0  0  0
   26.9149  -18.2082  -15.9416 C   0  0  0  0  0  0  0  0  0  0  0  0
   26.9642  -18.5799  -17.2882 C   0  0  0  0  0  0  0  0  0  0  0  0
   27.6322  -17.8781  -18.2423 C   0  0  0  0  0  0  0  0  0  0  0  0
   28.3122  -16.7210  -17.8719 C   0  0  0  0  0  0  0  0  0  0  0  0
   28.2892  -16.3185  -16.5469 C   0  0  0  0  0  0  0  0  0  0  0  0
   27.5988  -17.0592  -15.6094 C   0  0  0  0  0  0  0  0  0  0  0  0
   26.6720  -20.3523  -12.8616 C   0  0  0  0  0  0  0  0  0  0  0  0
   26.0358  -21.4288  -12.7689 O   0  0  0  0  0  0  0  0  0  0  0  0
   26.9372  -19.6128  -11.6300 N   0  0  0  0  0  0  0  0  0  0  0  0
   26.4112  -20.1256  -10.3920 C   0  0  1  0  0  0  0  0  0  0  0  0
   26.9025  -19.5300   -9.1330 C   0  0  0  0  0  0  0  0  0  0  0  0
   26.5263  -20.2067   -7.8717 C   0  0  0  0  0  0  0  0  0  0  0  0
   25.5598  -21.2123   -7.7302 C   0  0  0  0  0  0  0  0  0  0  0  0
   25.4981  -21.6315   -6.4581 N   0  0  0  0  0  0  0  0  0  0  0  0
   26.4000  -20.9358   -5.7256 C   0  0  0  0  0  0  0  0  0  0  0  0
   26.6990  -20.9926   -4.3697 C   0  0  0  0  0  0  0  0  0  0  0  0
   27.6606  -20.1440   -3.8721 C   0  0  0  0  0  0  0  0  0  0  0  0
   28.2905  -19.2696   -4.7376 C   0  0  0  0  0  0  0  0  0  0  0  0
   28.0042  -19.2026   -6.0812 C   0  0  0  0  0  0  0  0  0  0  0  0
   27.0425  -20.0499   -6.5936 C   0  0  0  0  0  0  0  0  0  0  0  0
   24.8958  -20.0029  -10.4225 C   0  0  0  0  0  0  0  0  0  0  0  0
   24.3041  -18.8996  -10.3895 O   0  0  0  0  0  0  0  0  0  0  0  0
   24.1316  -21.1844  -10.4952 N   0  0  0  0  0  0  0  0  0  0  0  0
   22.6754  -21.1098  -10.7413 C   0  0  1  0  0  0  0  0  0  0  0  0
   22.2585  -22.2997  -11.5356 C   0  0  0  0  0  0  0  0  0  0  0  0
   21.7297  -21.8839  -12.8426 C   0  0  0  0  0  0  0  0  0  0  0  0
   21.6210  -20.6491  -13.0995 O   0  0  0  0  0  0  0  0  0  0  0  0
   21.9517  -20.9067   -9.4736 C   0  0  0  0  0  0  0  0  0  0  0  0
   21.0634  -19.8928   -9.2609 O   0  0  0  0  0  0  0  0  0  0  0  0
   21.3522  -22.7995  -13.7920 O   0  0  0  0  0  0  0  0  0  0  0  0
   22.1690  -21.7270   -8.5179 O   0  0  0  0  0  0  0  0  0  0  0  0
  2  1  1  6
  3  2  1  0
  4  3  1  0
  4  5  2  0
  6  5  1  0
  7  6  2  0
  8  9  2  0
  8  7  1  0
  9  4  1  0
 10  2  1  0
 10 11  2  0
 12 10  1  0
 13 12  1  0
 13 14  1  1
 15 14  1  0
 16 15  2  0
 17 18  1  0
 17 16  1  0
 18 23  2  0
 19 20  2  0
 19 18  1  0
 20 21  1  0
 21 22  2  0
 23 22  1  0
 23 15  1  0
 24 13  1  0
 25 24  2  0
 26 24  1  0
 27 26  1  0
 27 31  1  0
 27 28  1  1
 28 29  1  0
 29 30  2  0
 31 32  1  0
 33 29  1  0
 34 31  2  0
M  END
$$$$
