FWD.pdb
     RDKit          3D

 34 36  0  0  1  0  0  0  0  0999 V2000
   25.4078  -19.2715  -14.1711 N   0  0  0  0  0  0  0  0  0  0  0  0
   24.1494  -19.9318  -14.4408 C   0  0  1  0  0  0  0  0  0  0  0  0
   23.4333  -20.4399  -13.2338 C   0  0  0  0  0  0  0  0  0  0  0  0
   24.4216  -21.1862  -12.3799 C   0  0  0  0  0  0  0  0  0  0  0  0
   24.9634  -20.6217  -11.2215 C   0  0  0  0  0  0  0  0  0  0  0  0
   25.8537  -21.2590  -10.4150 C   0  0  0  0  0  0  0  0  0  0  0  0
   26.2596  -22.5480  -10.7498 C   0  0  0  0  0  0  0  0  0  0  0  0
   25.7470  -23.1431  -11.8905 C   0  0  0  0  0  0  0  0  0  0  0  0
   24.8450  -22.4620  -12.6821 C   0  0  0  0  0  0  0  0  0  0  0  0
   23.3298  -19.1931  -15.4134 C   0  0  0  0  0  0  0  0  0  0  0  0
   22.9216  -18.0326  -15.1709 O   0  0  0  0  0  0  0  0  0  0  0  0
   22.9592  -19.7887  -16.6948 N   0  0  0  0  0  0  0  0  0  0  0  0
   22.1308  -19.0283  -17.5936 C   0  0  1  0  0  0  0  0  0  0  0  0
   22.3004  -19.2496  -19.0440 C   0  0  0  0  0  0  0  0  0  0  0  0
   21.5617  -18.3494  -19.9574 C   0  0  0  0  0  0  0  0  0  0  0  0
   22.0473  -17.1579  -20.5140 C   0  0  0  0  0  0  0  0  0  0  0  0
   21.1325  -16.6101  -21.3270 N   0  0  0  0  0  0  0  0  0  0  0  0
   20.0320  -17.3992  -21.3394 C   0  0  0  0  0  0  0  0  0  0  0  0
   18.8221  -17.2517  -22.0070 C   0  0  0  0  0  0  0  0  0  0  0  0
   17.8485  -18.2059  -21.8225 C   0  0  0  0  0  0  0  0  0  0  0  0
   18.1104  -19.2717  -20.9823 C   0  0  0  0  0  0  0  0  0  0  0  0
   19.3028  -19.4298  -20.3154 C   0  0  0  0  0  0  0  0  0  0  0  0
   20.2888  -18.4803  -20.4930 C   0  0  0  0  0  0  0  0  0  0  0  0
   20.6738  -19.2778  -17.2367 C   0  0  0  0  0  0  0  0  0  0  0  0
   20.2189  -20.4211  -17.0037 O   0  0  0  0  0  0  0  0  0  0  0  0
   19.8056  -18.1705  -17.1624 N   0  0  0  0  0  0  0  0  0  0  0  0
   18.5084  -18.2931  -16.4633 C   0  0  1  0  0  0  0  0  0  0  0  0
   18.7480  -18.8201  -15.0902 C   0  0  0  0  0  0  0  0  0  0  0  0
   17.4836  -18.9028  -14.3450 C   0  0  0  0  0  0  0  0  0  0  0  0
   16.4473  -19.3291  -14.9340 O   0  0  0  0  0  0  0  0  0  0  0  0
   17.7659  -17.0220  -16.5354 C   0  0  0  0  0  0  0  0  0  0  0  0
   18.2162  -15.9165  -17.1968 O   0  0  0  0  0  0  0  0  0  0  0  0
   17.3977  -18.5310  -13.0272 O   0  0  0  0  0  0  0  0  0  0  0  0
   16.6353  -16.9504  -15.9436 O   0  0  0  0  0  0  0  0  0  0  0  0
  2  1  1  1
  3  2  1  0
  4  3  1  0
  4  5  2  0
  6  5  1  0
  7  6  2  0
  8  9  2  0
  8  7  1  0
  9  4  1  0
 10  2  1  0
 10 11  2  0
 12 10  1  0
 13 12  1  0
 13 14  1  6
 15 14  1  0
 16 15  2  0
 17 18  1  0
 17 16  1  0
 18 23  2  0
 19 20  2  0
 19 18  1  0
 20 21  1  0
 21 22  2  0
 23 22  1  0
 23 15  1  0
 24 13  1  0
 25 24  2  0
 26 24  1  0
 27 26  1  0
 27 31  1  0
 27 28  1  1
 28 29  1  0
 29 30  2  0
 31 32  1  0
 33 29  1  0
 34 31  2  0
M  END
$$$$
