FWD.pdb
     RDKit          3D

 34 36  0  0  1  0  0  0  0  0999 V2000
   27.8227  -22.8098  -17.5474 N   0  0  0  0  0  0  0  0  0  0  0  0
   27.3170  -21.5859  -16.9652 C   0  0  1  0  0  0  0  0  0  0  0  0
   26.2994  -20.8699  -17.7895 C   0  0  0  0  0  0  0  0  0  0  0  0
   26.9555  -20.4305  -19.0698 C   0  0  0  0  0  0  0  0  0  0  0  0
   27.8256  -19.3371  -19.1106 C   0  0  0  0  0  0  0  0  0  0  0  0
   28.4467  -18.9070  -20.2412 C   0  0  0  0  0  0  0  0  0  0  0  0
   28.2116  -19.5835  -21.4352 C   0  0  0  0  0  0  0  0  0  0  0  0
   27.3550  -20.6718  -21.4380 C   0  0  0  0  0  0  0  0  0  0  0  0
   26.7447  -21.0764  -20.2684 C   0  0  0  0  0  0  0  0  0  0  0  0
   26.9990  -21.7381  -15.5373 C   0  0  0  0  0  0  0  0  0  0  0  0
   26.2657  -22.6703  -15.1305 O   0  0  0  0  0  0  0  0  0  0  0  0
   27.5236  -20.8046  -14.5435 N   0  0  0  0  0  0  0  0  0  0  0  0
   26.9865  -20.8462  -13.2086 C   0  0  1  0  0  0  0  0  0  0  0  0
   27.6268  -20.0023  -12.1794 C   0  0  0  0  0  0  0  0  0  0  0  0
   27.0832  -20.0807  -10.8052 C   0  0  0  0  0  0  0  0  0  0  0  0
   25.7365  -19.9443  -10.4406 C   0  0  0  0  0  0  0  0  0  0  0  0
   25.5870  -20.1082   -9.1182 N   0  0  0  0  0  0  0  0  0  0  0  0
   26.8004  -20.3535   -8.5694 C   0  0  0  0  0  0  0  0  0  0  0  0
   27.1663  -20.5712   -7.2465 C   0  0  0  0  0  0  0  0  0  0  0  0
   28.4952  -20.7770   -6.9569 C   0  0  0  0  0  0  0  0  0  0  0  0
   29.4131  -20.7592   -7.9902 C   0  0  0  0  0  0  0  0  0  0  0  0
   29.0650  -20.5447   -9.3034 C   0  0  0  0  0  0  0  0  0  0  0  0
   27.7346  -20.3385   -9.6078 C   0  0  0  0  0  0  0  0  0  0  0  0
   25.5092  -20.4911  -13.2702 C   0  0  0  0  0  0  0  0  0  0  0  0
   25.0932  -19.3942  -13.7085 O   0  0  0  0  0  0  0  0  0  0  0  0
   24.5742  -21.4431  -12.8174 N   0  0  0  0  0  0  0  0  0  0  0  0
   23.1260  -21.1943  -12.9825 C   0  0  1  0  0  0  0  0  0  0  0  0
   22.5335  -22.3043  -13.7809 C   0  0  0  0  0  0  0  0  0  0  0  0
   21.7420  -21.7671  -14.8970 C   0  0  0  0  0  0  0  0  0  0  0  0
   21.5836  -20.5149  -14.9944 O   0  0  0  0  0  0  0  0  0  0  0  0
   22.4965  -20.9472  -11.6730 C   0  0  0  0  0  0  0  0  0  0  0  0
   21.3737  -20.1906  -11.5015 O   0  0  0  0  0  0  0  0  0  0  0  0
   21.1714  -22.5877  -15.8368 O   0  0  0  0  0  0  0  0  0  0  0  0
   23.0333  -21.4710  -10.6381 O   0  0  0  0  0  0  0  0  0  0  0  0
  2  1  1  6
  3  2  1  0
  4  3  1  0
  4  5  2  0
  6  5  1  0
  7  6  2  0
  8  9  2  0
  8  7  1  0
  9  4  1  0
 10  2  1  0
 10 11  2  0
 12 10  1  0
 13 12  1  0
 13 14  1  1
 15 14  1  0
 16 15  2  0
 17 18  1  0
 17 16  1  0
 18 23  2  0
 19 20  2  0
 19 18  1  0
 20 21  1  0
 21 22  2  0
 23 22  1  0
 23 15  1  0
 24 13  1  0
 25 24  2  0
 26 24  1  0
 27 26  1  0
 27 31  1  0
 27 28  1  1
 28 29  1  0
 29 30  2  0
 31 32  1  0
 33 29  1  0
 34 31  2  0
M  END
$$$$
