FWD.pdb
     RDKit          3D

 34 36  0  0  1  0  0  0  0  0999 V2000
   26.9111  -24.2352  -15.9458 N   0  0  0  0  0  0  0  0  0  0  0  0
   26.2971  -22.9326  -15.8095 C   0  0  1  0  0  0  0  0  0  0  0  0
   25.2197  -22.6374  -16.7993 C   0  0  0  0  0  0  0  0  0  0  0  0
   25.8372  -22.6020  -18.1704 C   0  0  0  0  0  0  0  0  0  0  0  0
   26.5381  -21.4836  -18.6307 C   0  0  0  0  0  0  0  0  0  0  0  0
   27.1186  -21.4074  -19.8580 C   0  0  0  0  0  0  0  0  0  0  0  0
   27.0163  -22.4978  -20.7178 C   0  0  0  0  0  0  0  0  0  0  0  0
   26.3291  -23.6255  -20.3004 C   0  0  0  0  0  0  0  0  0  0  0  0
   25.7546  -23.6624  -19.0463 C   0  0  0  0  0  0  0  0  0  0  0  0
   25.9934  -22.6037  -14.4084 C   0  0  0  0  0  0  0  0  0  0  0  0
   25.5382  -23.4678  -13.6220 O   0  0  0  0  0  0  0  0  0  0  0  0
   26.2075  -21.2565  -13.8858 N   0  0  0  0  0  0  0  0  0  0  0  0
   25.7315  -20.9473  -12.5629 C   0  0  1  0  0  0  0  0  0  0  0  0
   26.5398  -20.0299  -11.7345 C   0  0  0  0  0  0  0  0  0  0  0  0
   27.5530  -20.6374  -10.8430 C   0  0  0  0  0  0  0  0  0  0  0  0
   28.6252  -21.4474  -11.2424 C   0  0  0  0  0  0  0  0  0  0  0  0
   29.3717  -21.7968  -10.1848 N   0  0  0  0  0  0  0  0  0  0  0  0
   28.8349  -21.2449   -9.0708 C   0  0  0  0  0  0  0  0  0  0  0  0
   29.2300  -21.3280   -7.7411 C   0  0  0  0  0  0  0  0  0  0  0  0
   28.4793  -20.6767   -6.7899 C   0  0  0  0  0  0  0  0  0  0  0  0
   27.3638  -19.9668   -7.1924 C   0  0  0  0  0  0  0  0  0  0  0  0
   26.9613  -19.8765   -8.5044 C   0  0  0  0  0  0  0  0  0  0  0  0
   27.7067  -20.5240   -9.4690 C   0  0  0  0  0  0  0  0  0  0  0  0
   24.3249  -20.3802  -12.6752 C   0  0  0  0  0  0  0  0  0  0  0  0
   23.8958  -19.8324  -13.7164 O   0  0  0  0  0  0  0  0  0  0  0  0
   23.4726  -20.4829  -11.5580 N   0  0  0  0  0  0  0  0  0  0  0  0
   22.0247  -20.7129  -11.7507 C   0  0  1  0  0  0  0  0  0  0  0  0
   21.8354  -21.9619  -12.5412 C   0  0  0  0  0  0  0  0  0  0  0  0
   21.1783  -21.6633  -13.8218 C   0  0  0  0  0  0  0  0  0  0  0  0
   20.2996  -20.7533  -13.8668 O   0  0  0  0  0  0  0  0  0  0  0  0
   21.3223  -20.6680  -10.4559 C   0  0  0  0  0  0  0  0  0  0  0  0
   20.1342  -20.0261  -10.2588 O   0  0  0  0  0  0  0  0  0  0  0  0
   21.4937  -22.3447  -14.9701 O   0  0  0  0  0  0  0  0  0  0  0  0
   21.8569  -21.2640   -9.4596 O   0  0  0  0  0  0  0  0  0  0  0  0
  2  1  1  1
  3  2  1  0
  4  3  1  0
  4  5  2  0
  6  5  1  0
  7  6  2  0
  8  9  2  0
  8  7  1  0
  9  4  1  0
 10  2  1  0
 10 11  2  0
 12 10  1  0
 13 12  1  0
 13 14  1  6
 15 14  1  0
 16 15  2  0
 17 18  1  0
 17 16  1  0
 18 23  2  0
 19 20  2  0
 19 18  1  0
 20 21  1  0
 21 22  2  0
 23 22  1  0
 23 15  1  0
 24 13  1  0
 25 24  2  0
 26 24  1  0
 27 26  1  0
 27 31  1  0
 27 28  1  1
 28 29  1  0
 29 30  2  0
 31 32  1  0
 33 29  1  0
 34 31  2  0
M  END
$$$$
