FWD.pdb
     RDKit          3D

 34 36  0  0  1  0  0  0  0  0999 V2000
   16.1150  -18.6777    2.2805 N   0  0  0  0  0  0  0  0  0  0  0  0
   16.8359  -19.2186    3.4120 C   0  0  1  0  0  0  0  0  0  0  0  0
   17.5033  -20.5305    3.1649 C   0  0  0  0  0  0  0  0  0  0  0  0
   16.4554  -21.5161    2.7253 C   0  0  0  0  0  0  0  0  0  0  0  0
   16.2896  -21.8596    1.3805 C   0  0  0  0  0  0  0  0  0  0  0  0
   15.3619  -22.7491    0.9362 C   0  0  0  0  0  0  0  0  0  0  0  0
   14.5205  -23.3602    1.8619 C   0  0  0  0  0  0  0  0  0  0  0  0
   14.6514  -23.0464    3.2045 C   0  0  0  0  0  0  0  0  0  0  0  0
   15.6062  -22.1383    3.6141 C   0  0  0  0  0  0  0  0  0  0  0  0
   17.6490  -18.1997    4.0932 C   0  0  0  0  0  0  0  0  0  0  0  0
   18.6618  -17.7034    3.5452 O   0  0  0  0  0  0  0  0  0  0  0  0
   17.3067  -17.7338    5.4348 N   0  0  0  0  0  0  0  0  0  0  0  0
   18.1744  -16.7801    6.0748 C   0  0  1  0  0  0  0  0  0  0  0  0
   17.5859  -15.5012    6.5214 C   0  0  0  0  0  0  0  0  0  0  0  0
   18.1912  -14.2571    5.9961 C   0  0  0  0  0  0  0  0  0  0  0  0
   17.6920  -13.4754    4.9449 C   0  0  0  0  0  0  0  0  0  0  0  0
   18.4641  -12.3963    4.7518 N   0  0  0  0  0  0  0  0  0  0  0  0
   19.4803  -12.4215    5.6465 C   0  0  0  0  0  0  0  0  0  0  0  0
   20.5408  -11.5433    5.8340 C   0  0  0  0  0  0  0  0  0  0  0  0
   21.4602  -11.8229    6.8184 C   0  0  0  0  0  0  0  0  0  0  0  0
   21.2943  -12.9638    7.5808 C   0  0  0  0  0  0  0  0  0  0  0  0
   20.2500  -13.8415    7.4057 C   0  0  0  0  0  0  0  0  0  0  0  0
   19.3195  -13.5718    6.4225 C   0  0  0  0  0  0  0  0  0  0  0  0
   18.8313  -17.4505    7.2714 C   0  0  0  0  0  0  0  0  0  0  0  0
   18.2368  -18.2839    7.9925 O   0  0  0  0  0  0  0  0  0  0  0  0
   20.1670  -17.1182    7.5727 N   0  0  0  0  0  0  0  0  0  0  0  0
   20.8124  -17.6723    8.7822 C   0  0  1  0  0  0  0  0  0  0  0  0
   22.2915  -17.5798    8.6256 C   0  0  0  0  0  0  0  0  0  0  0  0
   22.9681  -18.1655    9.7918 C   0  0  0  0  0  0  0  0  0  0  0  0
   22.3385  -18.9850   10.5229 O   0  0  0  0  0  0  0  0  0  0  0  0
   20.2609  -17.0382    9.9929 C   0  0  0  0  0  0  0  0  0  0  0  0
   19.7773  -17.7356   11.0617 O   0  0  0  0  0  0  0  0  0  0  0  0
   24.2648  -17.8479   10.1077 O   0  0  0  0  0  0  0  0  0  0  0  0
   20.2332  -15.7615   10.0449 O   0  0  0  0  0  0  0  0  0  0  0  0
  2  1  1  6
  3  2  1  0
  4  3  1  0
  4  5  2  0
  6  5  1  0
  7  6  2  0
  8  9  2  0
  8  7  1  0
  9  4  1  0
 10  2  1  0
 10 11  2  0
 12 10  1  0
 13 12  1  0
 13 14  1  1
 15 14  1  0
 16 15  2  0
 17 18  1  0
 17 16  1  0
 18 23  2  0
 19 20  2  0
 19 18  1  0
 20 21  1  0
 21 22  2  0
 23 22  1  0
 23 15  1  0
 24 13  1  0
 25 24  2  0
 26 24  1  0
 27 26  1  0
 27 31  1  0
 27 28  1  6
 28 29  1  0
 29 30  2  0
 31 32  1  0
 33 29  1  0
 34 31  2  0
M  END
$$$$
