FWD.pdb
     RDKit          3D

 34 36  0  0  1  0  0  0  0  0999 V2000
   13.8628  -11.4792  -12.1997 N   0  0  0  0  0  0  0  0  0  0  0  0
   14.7977  -11.0976  -11.1640 C   0  0  1  0  0  0  0  0  0  0  0  0
   16.0097  -11.9623  -11.0597 C   0  0  0  0  0  0  0  0  0  0  0  0
   15.5585  -13.3918  -10.9351 C   0  0  0  0  0  0  0  0  0  0  0  0
   15.9157  -14.3589  -11.8792 C   0  0  0  0  0  0  0  0  0  0  0  0
   15.5380  -15.6631  -11.8057 C   0  0  0  0  0  0  0  0  0  0  0  0
   14.7487  -16.0741  -10.7349 C   0  0  0  0  0  0  0  0  0  0  0  0
   14.3719  -15.1465   -9.7779 C   0  0  0  0  0  0  0  0  0  0  0  0
   14.7768  -13.8321   -9.8894 C   0  0  0  0  0  0  0  0  0  0  0  0
   15.0365   -9.6465  -11.1362 C   0  0  0  0  0  0  0  0  0  0  0  0
   15.1408   -8.9846  -12.1960 O   0  0  0  0  0  0  0  0  0  0  0  0
   15.1651   -8.9268   -9.8714 N   0  0  0  0  0  0  0  0  0  0  0  0
   15.3457   -7.4991   -9.9068 C   0  0  1  0  0  0  0  0  0  0  0  0
   14.9381   -6.7213   -8.7193 C   0  0  0  0  0  0  0  0  0  0  0  0
   14.8613   -5.2507   -8.8667 C   0  0  0  0  0  0  0  0  0  0  0  0
   14.6160   -4.5515  -10.0567 C   0  0  0  0  0  0  0  0  0  0  0  0
   14.5746   -3.2310   -9.8279 N   0  0  0  0  0  0  0  0  0  0  0  0
   14.7861   -3.0103   -8.5086 C   0  0  0  0  0  0  0  0  0  0  0  0
   14.8540   -1.8223   -7.7908 C   0  0  0  0  0  0  0  0  0  0  0  0
   15.1073   -1.8834   -6.4401 C   0  0  0  0  0  0  0  0  0  0  0  0
   15.2843   -3.1209   -5.8504 C   0  0  0  0  0  0  0  0  0  0  0  0
   15.2201   -4.3041   -6.5486 C   0  0  0  0  0  0  0  0  0  0  0  0
   14.9649   -4.2569   -7.9043 C   0  0  0  0  0  0  0  0  0  0  0  0
   16.8092   -7.2037  -10.1956 C   0  0  0  0  0  0  0  0  0  0  0  0
   17.7472   -7.7475   -9.5690 O   0  0  0  0  0  0  0  0  0  0  0  0
   17.1154   -6.2812  -11.2158 N   0  0  0  0  0  0  0  0  0  0  0  0
   18.5242   -6.0317  -11.5892 C   0  0  1  0  0  0  0  0  0  0  0  0
   19.1958   -7.3381  -11.8399 C   0  0  0  0  0  0  0  0  0  0  0  0
   20.5578   -7.1247  -12.3500 C   0  0  0  0  0  0  0  0  0  0  0  0
   21.2487   -6.1719  -11.8839 O   0  0  0  0  0  0  0  0  0  0  0  0
   18.5965   -5.0580  -12.6932 C   0  0  0  0  0  0  0  0  0  0  0  0
   19.7551   -4.4721  -13.1137 O   0  0  0  0  0  0  0  0  0  0  0  0
   21.1001   -7.9323  -13.3174 O   0  0  0  0  0  0  0  0  0  0  0  0
   17.5115   -4.7435  -13.2910 O   0  0  0  0  0  0  0  0  0  0  0  0
  2  1  1  6
  3  2  1  0
  4  3  1  0
  4  5  2  0
  6  5  1  0
  7  6  2  0
  8  9  2  0
  8  7  1  0
  9  4  1  0
 10  2  1  0
 10 11  2  0
 12 10  1  0
 13 12  1  0
 13 14  1  1
 15 14  1  0
 16 15  2  0
 17 18  1  0
 17 16  1  0
 18 23  2  0
 19 20  2  0
 19 18  1  0
 20 21  1  0
 21 22  2  0
 23 22  1  0
 23 15  1  0
 24 13  1  0
 25 24  2  0
 26 24  1  0
 27 26  1  0
 27 31  1  0
 27 28  1  6
 28 29  1  0
 29 30  2  0
 31 32  1  0
 33 29  1  0
 34 31  2  0
M  END
$$$$
