DIS.pdb
     RDKit          3D

 23 22  0  0  1  0  0  0  0  0999 V2000
    8.5579  -16.4365   21.3011 N   0  0  0  0  0  0  0  0  0  0  0  0
    9.8066  -16.5826   21.9826 C   0  0  1  0  0  0  0  0  0  0  0  0
   10.9130  -16.0450   21.1048 C   0  0  0  0  0  0  0  0  0  0  0  0
   11.1810  -16.8055   19.8964 C   0  0  0  0  0  0  0  0  0  0  0  0
   10.4501  -17.7492   19.5309 O   0  0  0  0  0  0  0  0  0  0  0  0
    9.8703  -15.8181   23.2513 C   0  0  0  0  0  0  0  0  0  0  0  0
   11.0083  -15.5624   23.7752 O   0  0  0  0  0  0  0  0  0  0  0  0
   12.2848  -16.4663   19.1308 O   0  0  0  0  0  0  0  0  0  0  0  0
    6.8876  -11.6580   26.6748 C   0  0  0  0  0  0  0  0  0  0  0  0
    7.9058  -12.7666   26.6241 C   0  0  0  0  0  0  0  0  0  0  0  0
    7.8168  -13.6091   25.4136 C   0  0  2  0  0  0  0  0  0  0  0  0
    6.4030  -14.2176   25.3857 C   0  0  0  0  0  0  0  0  0  0  0  0
    8.8195  -14.6866   25.2382 C   0  0  2  0  0  0  0  0  0  0  0  0
    8.7336  -15.3396   23.9396 N   0  0  0  0  0  0  0  0  0  0  0  0
    8.8217  -15.6496   26.3621 C   0  0  0  0  0  0  0  0  0  0  0  0
    7.8784  -16.4525   26.5748 O   0  0  0  0  0  0  0  0  0  0  0  0
   12.2394  -17.3484   27.4349 O   0  0  0  0  0  0  0  0  0  0  0  0
   10.9910  -17.8767   27.8303 C   0  0  0  0  0  0  0  0  0  0  0  0
   10.0689  -16.7712   28.2548 C   0  0  2  0  0  0  0  0  0  0  0  0
    9.9063  -15.7344   27.2959 N   0  0  0  0  0  0  0  0  0  0  0  0
   10.6778  -16.1578   29.4875 C   0  0  0  0  0  0  0  0  0  0  0  0
   10.8824  -14.7790   29.4280 O   0  0  0  0  0  0  0  0  0  0  0  0
   10.9843  -16.8107   30.4964 O   0  0  0  0  0  0  0  0  0  0  0  0
  2  1  1  6
  3  2  1  0
  3  4  1  0
  4  8  1  0
  5  4  2  0
  6  2  1  0
  6  7  2  0
  9 10  1  0
 10 11  1  0
 11 13  1  0
 11 12  1  1
 13 14  1  6
 13 15  1  0
 14  6  1  0
 15 20  1  0
 15 16  2  0
 18 17  1  0
 19 18  1  6
 20 19  1  0
 21 22  1  0
 21 19  1  0
 23 21  2  0
M  END
$$$$
