DIS.pdb
     RDKit          3D

 23 22  0  0  1  0  0  0  0  0999 V2000
    8.1824  -14.6415   20.3018 N   0  0  0  0  0  0  0  0  0  0  0  0
    7.5554  -15.3713   21.3598 C   0  0  1  0  0  0  0  0  0  0  0  0
    7.7029  -16.8513   21.0925 C   0  0  0  0  0  0  0  0  0  0  0  0
    7.1152  -17.3266   19.8519 C   0  0  0  0  0  0  0  0  0  0  0  0
    7.7345  -18.0764   19.0692 O   0  0  0  0  0  0  0  0  0  0  0  0
    8.1729  -15.1218   22.6845 C   0  0  0  0  0  0  0  0  0  0  0  0
    9.4445  -15.1764   22.8061 O   0  0  0  0  0  0  0  0  0  0  0  0
    5.8259  -16.9305   19.5347 O   0  0  0  0  0  0  0  0  0  0  0  0
    5.8913  -11.5298   26.0663 C   0  0  0  0  0  0  0  0  0  0  0  0
    6.9635  -12.2852   25.3258 C   0  0  0  0  0  0  0  0  0  0  0  0
    7.3392  -13.5675   25.9562 C   0  0  2  0  0  0  0  0  0  0  0  0
    8.1650  -13.2327   27.2116 C   0  0  0  0  0  0  0  0  0  0  0  0
    8.0728  -14.5600   25.1353 C   0  0  2  0  0  0  0  0  0  0  0  0
    7.4368  -14.8197   23.8514 N   0  0  0  0  0  0  0  0  0  0  0  0
    8.3784  -15.8008   25.8821 C   0  0  0  0  0  0  0  0  0  0  0  0
    7.4879  -16.5329   26.3829 O   0  0  0  0  0  0  0  0  0  0  0  0
   12.2537  -17.3616   25.7635 O   0  0  0  0  0  0  0  0  0  0  0  0
   11.1861  -18.2341   26.0679 C   0  0  0  0  0  0  0  0  0  0  0  0
   10.0696  -17.4797   26.7287 C   0  0  2  0  0  0  0  0  0  0  0  0
    9.7211  -16.2582   26.0905 N   0  0  0  0  0  0  0  0  0  0  0  0
   10.5439  -17.1465   28.1182 C   0  0  0  0  0  0  0  0  0  0  0  0
   10.8641  -18.2441   28.9177 O   0  0  0  0  0  0  0  0  0  0  0  0
   10.6507  -15.9869   28.5448 O   0  0  0  0  0  0  0  0  0  0  0  0
  2  1  1  6
  3  2  1  0
  3  4  1  0
  4  8  1  0
  5  4  2  0
  6  2  1  0
  6  7  2  0
  9 10  1  0
 10 11  1  0
 11 13  1  0
 11 12  1  1
 13 14  1  6
 13 15  1  0
 14  6  1  0
 15 20  1  0
 15 16  2  0
 18 17  1  0
 19 18  1  6
 20 19  1  0
 21 22  1  0
 21 19  1  0
 23 21  2  0
M  END
$$$$
