DIS.pdb
     RDKit          3D

 23 22  0  0  1  0  0  0  0  0999 V2000
    8.0268  -15.7907   21.1354 N   0  0  0  0  0  0  0  0  0  0  0  0
    9.1789  -16.3883   21.7358 C   0  0  1  0  0  0  0  0  0  0  0  0
   10.4044  -16.0062   20.9384 C   0  0  0  0  0  0  0  0  0  0  0  0
   10.3333  -16.2727   19.5121 C   0  0  0  0  0  0  0  0  0  0  0  0
   10.2180  -15.3572   18.6712 O   0  0  0  0  0  0  0  0  0  0  0  0
    9.4202  -15.9229   23.1226 C   0  0  0  0  0  0  0  0  0  0  0  0
   10.6163  -15.8790   23.5722 O   0  0  0  0  0  0  0  0  0  0  0  0
   10.3962  -17.5875   19.0795 O   0  0  0  0  0  0  0  0  0  0  0  0
    6.3260  -12.1294   25.5942 C   0  0  0  0  0  0  0  0  0  0  0  0
    7.4903  -12.9632   25.1276 C   0  0  0  0  0  0  0  0  0  0  0  0
    7.7296  -14.1711   25.9442 C   0  0  2  0  0  0  0  0  0  0  0  0
    8.2442  -13.6984   27.3160 C   0  0  0  0  0  0  0  0  0  0  0  0
    8.6433  -15.2070   25.4065 C   0  0  2  0  0  0  0  0  0  0  0  0
    8.3959  -15.5135   24.0046 N   0  0  0  0  0  0  0  0  0  0  0  0
    8.6919  -16.4183   26.2555 C   0  0  0  0  0  0  0  0  0  0  0  0
    7.6879  -17.1441   26.4672 O   0  0  0  0  0  0  0  0  0  0  0  0
   11.8944  -18.7195   26.3151 O   0  0  0  0  0  0  0  0  0  0  0  0
   10.7002  -19.1765   26.9142 C   0  0  0  0  0  0  0  0  0  0  0  0
   10.0241  -18.0556   27.6484 C   0  0  2  0  0  0  0  0  0  0  0  0
    9.8952  -16.8520   26.9030 N   0  0  0  0  0  0  0  0  0  0  0  0
   10.8798  -17.7556   28.8502 C   0  0  0  0  0  0  0  0  0  0  0  0
   11.0520  -18.8172   29.7390 O   0  0  0  0  0  0  0  0  0  0  0  0
   11.4051  -16.6514   29.0575 O   0  0  0  0  0  0  0  0  0  0  0  0
  2  1  1  6
  3  2  1  0
  3  4  1  0
  4  8  1  0
  5  4  2  0
  6  2  1  0
  6  7  2  0
  9 10  1  0
 10 11  1  0
 11 13  1  0
 11 12  1  1
 13 14  1  6
 13 15  1  0
 14  6  1  0
 15 20  1  0
 15 16  2  0
 18 17  1  0
 19 18  1  6
 20 19  1  0
 21 22  1  0
 21 19  1  0
 23 21  2  0
M  END
$$$$
