DIS.pdb
     RDKit          3D

 23 22  0  0  1  0  0  0  0  0999 V2000
    8.9440  -14.9409   20.4233 N   0  0  0  0  0  0  0  0  0  0  0  0
    7.8251  -15.2555   21.2564 C   0  0  1  0  0  0  0  0  0  0  0  0
    7.4235  -16.6931   21.0202 C   0  0  0  0  0  0  0  0  0  0  0  0
    6.9393  -16.9981   19.6849 C   0  0  0  0  0  0  0  0  0  0  0  0
    7.2757  -16.3263   18.6879 O   0  0  0  0  0  0  0  0  0  0  0  0
    8.1254  -15.1373   22.7035 C   0  0  0  0  0  0  0  0  0  0  0  0
    9.2506  -15.5508   23.1482 O   0  0  0  0  0  0  0  0  0  0  0  0
    6.0771  -18.0702   19.5213 O   0  0  0  0  0  0  0  0  0  0  0  0
    5.8278  -11.1445   25.8514 C   0  0  0  0  0  0  0  0  0  0  0  0
    6.7628  -12.1063   25.1664 C   0  0  0  0  0  0  0  0  0  0  0  0
    6.7948  -13.4511   25.7775 C   0  0  2  0  0  0  0  0  0  0  0  0
    7.3577  -13.2907   27.2014 C   0  0  0  0  0  0  0  0  0  0  0  0
    7.5398  -14.5206   25.0718 C   0  0  2  0  0  0  0  0  0  0  0  0
    7.2337  -14.5857   23.6497 N   0  0  0  0  0  0  0  0  0  0  0  0
    7.4195  -15.8347   25.7421 C   0  0  0  0  0  0  0  0  0  0  0  0
    6.3153  -16.4015   25.9398 O   0  0  0  0  0  0  0  0  0  0  0  0
    9.9673  -18.7946   25.2724 O   0  0  0  0  0  0  0  0  0  0  0  0
    8.7833  -18.9999   26.0137 C   0  0  0  0  0  0  0  0  0  0  0  0
    8.5034  -17.8120   26.8871 C   0  0  2  0  0  0  0  0  0  0  0  0
    8.5615  -16.5586   26.2189 N   0  0  0  0  0  0  0  0  0  0  0  0
    9.5659  -17.8071   27.9537 C   0  0  0  0  0  0  0  0  0  0  0  0
   10.3308  -16.6427   28.0276 O   0  0  0  0  0  0  0  0  0  0  0  0
    9.7663  -18.7583   28.7240 O   0  0  0  0  0  0  0  0  0  0  0  0
  2  1  1  6
  3  2  1  0
  3  4  1  0
  4  8  1  0
  5  4  2  0
  6  2  1  0
  6  7  2  0
  9 10  1  0
 10 11  1  0
 11 13  1  0
 11 12  1  1
 13 14  1  6
 13 15  1  0
 14  6  1  0
 15 20  1  0
 15 16  2  0
 18 17  1  0
 19 18  1  6
 20 19  1  0
 21 22  1  0
 21 19  1  0
 23 21  2  0
M  END
$$$$
