DIS.pdb
     RDKit          3D

 23 22  0  0  1  0  0  0  0  0999 V2000
    9.8781  -17.2079   16.6236 N   0  0  0  0  0  0  0  0  0  0  0  0
   11.0845  -16.9347   17.3412 C   0  0  1  0  0  0  0  0  0  0  0  0
   12.0067  -16.1208   16.4631 C   0  0  0  0  0  0  0  0  0  0  0  0
   12.3215  -16.7061   15.1713 C   0  0  0  0  0  0  0  0  0  0  0  0
   11.7251  -16.3693   14.1276 O   0  0  0  0  0  0  0  0  0  0  0  0
   10.8627  -16.1348   18.5696 C   0  0  0  0  0  0  0  0  0  0  0  0
   11.8675  -15.7567   19.2641 O   0  0  0  0  0  0  0  0  0  0  0  0
   13.3165  -17.6679   15.1040 O   0  0  0  0  0  0  0  0  0  0  0  0
    7.1850  -12.1435   19.1790 C   0  0  0  0  0  0  0  0  0  0  0  0
    8.4338  -12.9739   19.3183 C   0  0  0  0  0  0  0  0  0  0  0  0
    8.3174  -14.0740   20.2977 C   0  0  2  0  0  0  0  0  0  0  0  0
    8.1891  -13.4314   21.6908 C   0  0  0  0  0  0  0  0  0  0  0  0
    9.3876  -15.0992   20.3258 C   0  0  2  0  0  0  0  0  0  0  0  0
    9.5871  -15.7505   19.0388 N   0  0  0  0  0  0  0  0  0  0  0  0
    9.2204  -16.0654   21.4344 C   0  0  0  0  0  0  0  0  0  0  0  0
    8.4265  -17.0382   21.3781 O   0  0  0  0  0  0  0  0  0  0  0  0
   11.6458  -19.0714   23.6452 O   0  0  0  0  0  0  0  0  0  0  0  0
   11.2619  -18.0405   22.7599 C   0  0  0  0  0  0  0  0  0  0  0  0
   10.3628  -17.0626   23.4583 C   0  0  2  0  0  0  0  0  0  0  0  0
    9.9553  -15.9586   22.6608 N   0  0  0  0  0  0  0  0  0  0  0  0
   11.1479  -16.5169   24.6212 C   0  0  0  0  0  0  0  0  0  0  0  0
   11.4618  -17.4437   25.6156 O   0  0  0  0  0  0  0  0  0  0  0  0
   11.5021  -15.3317   24.7115 O   0  0  0  0  0  0  0  0  0  0  0  0
  2  1  1  6
  3  2  1  0
  3  4  1  0
  4  8  1  0
  5  4  2  0
  6  2  1  0
  6  7  2  0
  9 10  1  0
 10 11  1  0
 11 13  1  0
 11 12  1  1
 13 14  1  6
 13 15  1  0
 14  6  1  0
 15 20  1  0
 15 16  2  0
 18 17  1  0
 19 18  1  6
 20 19  1  0
 21 22  1  0
 21 19  1  0
 23 21  2  0
M  END
$$$$
