DIS.pdb
     RDKit          3D

 23 22  0  0  1  0  0  0  0  0999 V2000
    8.9797  -15.1869   20.4706 N   0  0  0  0  0  0  0  0  0  0  0  0
    8.0708  -15.5875   21.4993 C   0  0  1  0  0  0  0  0  0  0  0  0
    7.8548  -17.0807   21.4121 C   0  0  0  0  0  0  0  0  0  0  0  0
    7.2569  -17.5571   20.1769 C   0  0  0  0  0  0  0  0  0  0  0  0
    7.8925  -18.2518   19.3571 O   0  0  0  0  0  0  0  0  0  0  0  0
    8.5814  -15.3177   22.8648 C   0  0  0  0  0  0  0  0  0  0  0  0
    9.8365  -15.3996   23.0946 O   0  0  0  0  0  0  0  0  0  0  0  0
    5.9388  -17.2258   19.9075 O   0  0  0  0  0  0  0  0  0  0  0  0
    6.0110  -11.7398   26.0777 C   0  0  0  0  0  0  0  0  0  0  0  0
    7.1500  -12.4736   25.4199 C   0  0  0  0  0  0  0  0  0  0  0  0
    7.4957  -13.7539   26.0713 C   0  0  2  0  0  0  0  0  0  0  0  0
    8.2407  -13.4146   27.3750 C   0  0  0  0  0  0  0  0  0  0  0  0
    8.2852  -14.7402   25.2961 C   0  0  2  0  0  0  0  0  0  0  0  0
    7.7584  -14.9671   23.9577 N   0  0  0  0  0  0  0  0  0  0  0  0
    8.5116  -15.9989   26.0411 C   0  0  0  0  0  0  0  0  0  0  0  0
    7.5740  -16.7417   26.4269 O   0  0  0  0  0  0  0  0  0  0  0  0
   12.3218  -17.6303   26.0590 O   0  0  0  0  0  0  0  0  0  0  0  0
   11.2240  -18.4846   26.3016 C   0  0  0  0  0  0  0  0  0  0  0  0
   10.1110  -17.7267   26.9643 C   0  0  2  0  0  0  0  0  0  0  0  0
    9.8252  -16.4627   26.3800 N   0  0  0  0  0  0  0  0  0  0  0  0
   10.5480  -17.4819   28.3840 C   0  0  0  0  0  0  0  0  0  0  0  0
   10.8359  -18.6285   29.1249 O   0  0  0  0  0  0  0  0  0  0  0  0
   10.6524  -16.3510   28.8822 O   0  0  0  0  0  0  0  0  0  0  0  0
  2  1  1  6
  3  2  1  0
  3  4  1  0
  4  8  1  0
  5  4  2  0
  6  2  1  0
  6  7  2  0
  9 10  1  0
 10 11  1  0
 11 13  1  0
 11 12  1  1
 13 14  1  6
 13 15  1  0
 14  6  1  0
 15 20  1  0
 15 16  2  0
 18 17  1  0
 19 18  1  6
 20 19  1  0
 21 22  1  0
 21 19  1  0
 23 21  2  0
M  END
$$$$
