YTG.pdb
     RDKit          3D

 24 24  0  0  1  0  0  0  0  0999 V2000
    5.6516  -10.5104   27.1969 O   0  0  0  0  0  0  0  0  0  0  0  0
    6.1291  -11.8126   26.9780 C   0  0  0  0  0  0  0  0  0  0  0  0
    7.4719  -12.0644   26.7890 C   0  0  0  0  0  0  0  0  0  0  0  0
    7.9741  -13.3247   26.5723 C   0  0  0  0  0  0  0  0  0  0  0  0
    7.1171  -14.4080   26.5371 C   0  0  0  0  0  0  0  0  0  0  0  0
    7.5862  -15.7840   26.2738 C   0  0  0  0  0  0  0  0  0  0  0  0
    6.8984  -16.3879   25.1091 C   0  0  2  0  0  0  0  0  0  0  0  0
    6.4339  -17.7260   25.5683 N   0  0  0  0  0  0  0  0  0  0  0  0
    7.7041  -16.6294   23.9030 C   0  0  0  0  0  0  0  0  0  0  0  0
    8.4513  -17.6611   23.8833 O   0  0  0  0  0  0  0  0  0  0  0  0
    5.7807  -14.1774   26.7230 C   0  0  0  0  0  0  0  0  0  0  0  0
    5.2935  -12.9069   26.9391 C   0  0  0  0  0  0  0  0  0  0  0  0
    6.6116  -14.9143   20.3677 C   0  0  0  0  0  0  0  0  0  0  0  0
    8.0873  -15.2345   20.3634 C   0  0  1  0  0  0  0  0  0  0  0  0
    8.7872  -14.0412   20.2282 O   0  0  0  0  0  0  0  0  0  0  0  0
    8.4938  -16.0206   21.5590 C   0  0  2  0  0  0  0  0  0  0  0  0
    7.7214  -15.8065   22.7392 N   0  0  0  0  0  0  0  0  0  0  0  0
    9.9714  -16.0065   21.8097 C   0  0  0  0  0  0  0  0  0  0  0  0
   10.3794  -15.3217   22.7760 O   0  0  0  0  0  0  0  0  0  0  0  0
   10.8793  -16.7182   21.0149 N   0  0  0  0  0  0  0  0  0  0  0  0
   12.2978  -16.6357   21.3728 C   0  0  0  0  0  0  0  0  0  0  0  0
   13.1315  -17.3677   20.3852 C   0  0  0  0  0  0  0  0  0  0  0  0
   12.5733  -17.9603   19.4346 O   0  0  0  0  0  0  0  0  0  0  0  0
   14.4991  -17.3836   20.5292 O   0  0  0  0  0  0  0  0  0  0  0  0
  2 12  2  0
  2  1  1  0
  3  2  1  0
  4  5  1  0
  4  3  2  0
  5 11  2  0
  6  5  1  0
  7  8  1  1
  7  6  1  0
  9  7  1  0
 10  9  2  0
 11 12  1  0
 14 13  1  1
 15 14  1  0
 16 17  1  1
 16 14  1  0
 17  9  1  0
 18 16  1  0
 19 18  2  0
 20 18  1  0
 21 20  1  0
 22 24  1  0
 22 21  1  0
 23 22  2  0
M  END
$$$$
