YTG.pdb
     RDKit          3D

 24 24  0  0  1  0  0  0  0  0999 V2000
   10.0612  -14.5674   30.9149 O   0  0  0  0  0  0  0  0  0  0  0  0
    9.9243  -14.7332   29.5273 C   0  0  0  0  0  0  0  0  0  0  0  0
   10.3349  -15.8890   28.8967 C   0  0  0  0  0  0  0  0  0  0  0  0
   10.2166  -16.0854   27.5421 C   0  0  0  0  0  0  0  0  0  0  0  0
    9.6645  -15.0961   26.7511 C   0  0  0  0  0  0  0  0  0  0  0  0
    9.5403  -15.2281   25.2849 C   0  0  0  0  0  0  0  0  0  0  0  0
    8.1628  -15.5910   24.8784 C   0  0  2  0  0  0  0  0  0  0  0  0
    7.8806  -16.8946   25.5403 N   0  0  0  0  0  0  0  0  0  0  0  0
    7.9185  -15.8024   23.4439 C   0  0  0  0  0  0  0  0  0  0  0  0
    7.4156  -16.9162   23.0838 O   0  0  0  0  0  0  0  0  0  0  0  0
    9.2509  -13.9419   27.3596 C   0  0  0  0  0  0  0  0  0  0  0  0
    9.3770  -13.7610   28.7197 C   0  0  0  0  0  0  0  0  0  0  0  0
    7.7484  -12.7256   20.3591 C   0  0  0  0  0  0  0  0  0  0  0  0
    7.2740  -14.1531   20.2270 C   0  0  1  0  0  0  0  0  0  0  0  0
    7.2080  -14.4621   18.8735 O   0  0  0  0  0  0  0  0  0  0  0  0
    8.1195  -15.0988   21.0040 C   0  0  2  0  0  0  0  0  0  0  0  0
    8.1926  -14.8614   22.4089 N   0  0  0  0  0  0  0  0  0  0  0  0
    9.4568  -15.3573   20.3786 C   0  0  0  0  0  0  0  0  0  0  0  0
   10.4188  -14.6638   20.7820 O   0  0  0  0  0  0  0  0  0  0  0  0
    9.6516  -16.3254   19.3849 N   0  0  0  0  0  0  0  0  0  0  0  0
   11.0075  -16.4814   18.8519 C   0  0  0  0  0  0  0  0  0  0  0  0
   11.0367  -17.5160   17.7866 C   0  0  0  0  0  0  0  0  0  0  0  0
    9.9969  -18.1669   17.5386 O   0  0  0  0  0  0  0  0  0  0  0  0
   12.2012  -17.7428   17.0910 O   0  0  0  0  0  0  0  0  0  0  0  0
  2 12  2  0
  2  1  1  0
  3  2  1  0
  4  5  1  0
  4  3  2  0
  5 11  2  0
  6  5  1  0
  7  8  1  1
  7  6  1  0
  9  7  1  0
 10  9  2  0
 11 12  1  0
 14 13  1  6
 15 14  1  0
 16 17  1  1
 16 14  1  0
 17  9  1  0
 18 16  1  0
 19 18  2  0
 20 18  1  0
 21 20  1  0
 22 24  1  0
 22 21  1  0
 23 22  2  0
M  END
$$$$
