YTG.pdb
     RDKit          3D

 24 24  0  0  1  0  0  0  0  0999 V2000
    5.4639  -10.5412   28.5102 O   0  0  0  0  0  0  0  0  0  0  0  0
    6.1295  -11.4281   27.6487 C   0  0  0  0  0  0  0  0  0  0  0  0
    7.2771  -12.0857   28.0394 C   0  0  0  0  0  0  0  0  0  0  0  0
    7.9539  -12.9596   27.2234 C   0  0  0  0  0  0  0  0  0  0  0  0
    7.4856  -13.2096   25.9477 C   0  0  0  0  0  0  0  0  0  0  0  0
    8.1840  -14.1100   25.0073 C   0  0  0  0  0  0  0  0  0  0  0  0
    7.2560  -15.0787   24.3791 C   0  0  2  0  0  0  0  0  0  0  0  0
    6.9807  -16.1039   25.4232 N   0  0  0  0  0  0  0  0  0  0  0  0
    7.7466  -15.8160   23.2053 C   0  0  0  0  0  0  0  0  0  0  0  0
    8.2756  -16.9587   23.3987 O   0  0  0  0  0  0  0  0  0  0  0  0
    6.3475  -12.5660   25.5425 C   0  0  0  0  0  0  0  0  0  0  0  0
    5.6808  -11.6924   26.3736 C   0  0  0  0  0  0  0  0  0  0  0  0
    8.6622  -16.1077   18.2728 C   0  0  0  0  0  0  0  0  0  0  0  0
    8.0320  -15.3388   19.4094 C   0  0  1  0  0  0  0  0  0  0  0  0
    6.6660  -15.2536   19.1672 O   0  0  0  0  0  0  0  0  0  0  0  0
    8.3568  -15.9310   20.7348 C   0  0  2  0  0  0  0  0  0  0  0  0
    7.6790  -15.3643   21.8550 N   0  0  0  0  0  0  0  0  0  0  0  0
    9.8268  -16.1127   20.9642 C   0  0  0  0  0  0  0  0  0  0  0  0
   10.4833  -15.0964   21.2887 O   0  0  0  0  0  0  0  0  0  0  0  0
   10.4649  -17.3525   20.8291 N   0  0  0  0  0  0  0  0  0  0  0  0
   11.8661  -17.4390   21.2487 C   0  0  0  0  0  0  0  0  0  0  0  0
   12.6952  -18.0597   20.1840 C   0  0  0  0  0  0  0  0  0  0  0  0
   12.1314  -18.6789   19.2538 O   0  0  0  0  0  0  0  0  0  0  0  0
   14.0648  -17.9455   20.2356 O   0  0  0  0  0  0  0  0  0  0  0  0
  2 12  2  0
  2  1  1  0
  3  2  1  0
  4  5  1  0
  4  3  2  0
  5 11  2  0
  6  5  1  0
  7  8  1  1
  7  6  1  0
  9  7  1  0
 10  9  2  0
 11 12  1  0
 14 13  1  6
 15 14  1  0
 16 17  1  1
 16 14  1  0
 17  9  1  0
 18 16  1  0
 19 18  2  0
 20 18  1  0
 21 20  1  0
 22 24  1  0
 22 21  1  0
 23 22  2  0
M  END
$$$$
