YTG.pdb
     RDKit          3D

 24 24  0  0  1  0  0  0  0  0999 V2000
    5.0318  -10.5326   28.0782 O   0  0  0  0  0  0  0  0  0  0  0  0
    5.8152  -11.5126   27.4475 C   0  0  0  0  0  0  0  0  0  0  0  0
    6.9606  -12.0067   28.0357 C   0  0  0  0  0  0  0  0  0  0  0  0
    7.7507  -12.9648   27.4479 C   0  0  0  0  0  0  0  0  0  0  0  0
    7.4054  -13.4743   26.2108 C   0  0  0  0  0  0  0  0  0  0  0  0
    8.2288  -14.4794   25.5076 C   0  0  0  0  0  0  0  0  0  0  0  0
    7.3948  -15.4721   24.7912 C   0  0  2  0  0  0  0  0  0  0  0  0
    6.9364  -16.4344   25.8308 N   0  0  0  0  0  0  0  0  0  0  0  0
    8.0526  -16.2789   23.7527 C   0  0  0  0  0  0  0  0  0  0  0  0
    8.4158  -17.4611   24.0586 O   0  0  0  0  0  0  0  0  0  0  0  0
    6.2715  -12.9959   25.6117 C   0  0  0  0  0  0  0  0  0  0  0  0
    5.4903  -12.0346   26.2150 C   0  0  0  0  0  0  0  0  0  0  0  0
    7.2212  -16.0783   19.8871 C   0  0  0  0  0  0  0  0  0  0  0  0
    8.6998  -16.3510   20.0278 C   0  0  1  0  0  0  0  0  0  0  0  0
    9.3900  -15.3201   19.4011 O   0  0  0  0  0  0  0  0  0  0  0  0
    9.1009  -16.5478   21.4466 C   0  0  2  0  0  0  0  0  0  0  0  0
    8.3196  -15.8544   22.4183 N   0  0  0  0  0  0  0  0  0  0  0  0
   10.5767  -16.4184   21.6741 C   0  0  0  0  0  0  0  0  0  0  0  0
   10.9953  -15.3124   22.0873 O   0  0  0  0  0  0  0  0  0  0  0  0
   11.4717  -17.4711   21.4433 N   0  0  0  0  0  0  0  0  0  0  0  0
   12.8919  -17.2170   21.6991 C   0  0  0  0  0  0  0  0  0  0  0  0
   13.7172  -18.3765   21.2738 C   0  0  0  0  0  0  0  0  0  0  0  0
   14.9649  -18.2851   21.3127 O   0  0  0  0  0  0  0  0  0  0  0  0
   13.1010  -19.5288   20.8452 O   0  0  0  0  0  0  0  0  0  0  0  0
  2 12  2  0
  2  1  1  0
  3  2  1  0
  4  5  1  0
  4  3  2  0
  5 11  2  0
  6  5  1  0
  7  8  1  1
  7  6  1  0
  9  7  1  0
 10  9  2  0
 11 12  1  0
 14 13  1  1
 15 14  1  0
 16 17  1  1
 16 14  1  0
 17  9  1  0
 18 16  1  0
 19 18  2  0
 20 18  1  0
 21 20  1  0
 22 24  1  0
 22 21  1  0
 23 22  2  0
M  END
$$$$
