YTG.pdb
     RDKit          3D

 24 24  0  0  1  0  0  0  0  0999 V2000
    7.0913  -13.0332   17.2677 O   0  0  0  0  0  0  0  0  0  0  0  0
    7.3537  -13.3838   18.6019 C   0  0  0  0  0  0  0  0  0  0  0  0
    8.0523  -12.5429   19.4428 C   0  0  0  0  0  0  0  0  0  0  0  0
    8.3271  -12.8532   20.7526 C   0  0  0  0  0  0  0  0  0  0  0  0
    7.8958  -14.0562   21.2778 C   0  0  0  0  0  0  0  0  0  0  0  0
    8.1874  -14.4671   22.6666 C   0  0  0  0  0  0  0  0  0  0  0  0
    8.6427  -15.8747   22.7413 C   0  0  2  0  0  0  0  0  0  0  0  0
    7.5025  -16.6336   23.3252 N   0  0  0  0  0  0  0  0  0  0  0  0
    9.8029  -16.1618   23.5979 C   0  0  0  0  0  0  0  0  0  0  0  0
    9.5831  -16.4623   24.8163 O   0  0  0  0  0  0  0  0  0  0  0  0
    7.2005  -14.9037   20.4579 C   0  0  0  0  0  0  0  0  0  0  0  0
    6.9334  -14.5771   19.1463 C   0  0  0  0  0  0  0  0  0  0  0  0
   10.9843  -18.5105   24.9641 C   0  0  0  0  0  0  0  0  0  0  0  0
   12.2214  -18.1358   24.1833 C   0  0  1  0  0  0  0  0  0  0  0  0
   12.2658  -18.9256   23.0405 O   0  0  0  0  0  0  0  0  0  0  0  0
   12.2800  -16.6783   23.8917 C   0  0  2  0  0  0  0  0  0  0  0  0
   11.1662  -16.1382   23.1823 N   0  0  0  0  0  0  0  0  0  0  0  0
   13.6017  -16.2308   23.3448 C   0  0  0  0  0  0  0  0  0  0  0  0
   13.6089  -15.7615   22.1834 O   0  0  0  0  0  0  0  0  0  0  0  0
   14.7922  -16.3213   24.0776 N   0  0  0  0  0  0  0  0  0  0  0  0
   16.0100  -15.7982   23.4529 C   0  0  0  0  0  0  0  0  0  0  0  0
   17.1877  -16.0233   24.3296 C   0  0  0  0  0  0  0  0  0  0  0  0
   17.0144  -16.4935   25.4765 O   0  0  0  0  0  0  0  0  0  0  0  0
   18.4463  -15.7131   23.8703 O   0  0  0  0  0  0  0  0  0  0  0  0
  2 12  2  0
  2  1  1  0
  3  2  1  0
  4  5  1  0
  4  3  2  0
  5 11  2  0
  6  5  1  0
  7  8  1  1
  7  6  1  0
  9  7  1  0
 10  9  2  0
 11 12  1  0
 14 13  1  6
 15 14  1  0
 16 17  1  6
 16 14  1  0
 17  9  1  0
 18 16  1  0
 19 18  2  0
 20 18  1  0
 21 20  1  0
 22 24  1  0
 22 21  1  0
 23 22  2  0
M  END
$$$$
