YTG.pdb
     RDKit          3D

 24 24  0  0  1  0  0  0  0  0999 V2000
    4.8320  -10.5614   28.1721 O   0  0  0  0  0  0  0  0  0  0  0  0
    5.6327  -11.5255   27.5387 C   0  0  0  0  0  0  0  0  0  0  0  0
    6.9931  -11.5875   27.7572 C   0  0  0  0  0  0  0  0  0  0  0  0
    7.8066  -12.5165   27.1550 C   0  0  0  0  0  0  0  0  0  0  0  0
    7.2634  -13.4433   26.2859 C   0  0  0  0  0  0  0  0  0  0  0  0
    8.0858  -14.4461   25.5782 C   0  0  0  0  0  0  0  0  0  0  0  0
    7.2508  -15.4328   24.8547 C   0  0  2  0  0  0  0  0  0  0  0  0
    6.8754  -16.4581   25.8670 N   0  0  0  0  0  0  0  0  0  0  0  0
    7.8833  -16.1666   23.7485 C   0  0  0  0  0  0  0  0  0  0  0  0
    8.4990  -17.2469   24.0262 O   0  0  0  0  0  0  0  0  0  0  0  0
    5.9147  -13.3973   26.0569 C   0  0  0  0  0  0  0  0  0  0  0  0
    5.1130  -12.4587   26.6691 C   0  0  0  0  0  0  0  0  0  0  0  0
    6.7711  -15.6026   19.9028 C   0  0  0  0  0  0  0  0  0  0  0  0
    8.2170  -16.0362   19.9456 C   0  0  1  0  0  0  0  0  0  0  0  0
    8.9758  -15.0722   19.2923 O   0  0  0  0  0  0  0  0  0  0  0  0
    8.6803  -16.3063   21.3331 C   0  0  2  0  0  0  0  0  0  0  0  0
    7.8658  -15.7763   22.3777 N   0  0  0  0  0  0  0  0  0  0  0  0
   10.1426  -16.0482   21.5359 C   0  0  0  0  0  0  0  0  0  0  0  0
   10.4636  -14.9422   22.0288 O   0  0  0  0  0  0  0  0  0  0  0  0
   11.1289  -16.9842   21.1987 N   0  0  0  0  0  0  0  0  0  0  0  0
   12.5225  -16.6239   21.4728 C   0  0  0  0  0  0  0  0  0  0  0  0
   13.4372  -17.7233   21.0718 C   0  0  0  0  0  0  0  0  0  0  0  0
   12.9541  -18.7852   20.6186 O   0  0  0  0  0  0  0  0  0  0  0  0
   14.7963  -17.5590   21.2037 O   0  0  0  0  0  0  0  0  0  0  0  0
  2 12  2  0
  2  1  1  0
  3  2  1  0
  4  5  1  0
  4  3  2  0
  5 11  2  0
  6  5  1  0
  7  8  1  1
  7  6  1  0
  9  7  1  0
 10  9  2  0
 11 12  1  0
 14 13  1  1
 15 14  1  0
 16 17  1  1
 16 14  1  0
 17  9  1  0
 18 16  1  0
 19 18  2  0
 20 18  1  0
 21 20  1  0
 22 24  1  0
 22 21  1  0
 23 22  2  0
M  END
$$$$
