YTG.pdb
     RDKit          3D

 24 24  0  0  1  0  0  0  0  0999 V2000
    5.6402  -11.1725   28.5683 O   0  0  0  0  0  0  0  0  0  0  0  0
    6.2643  -11.8837   27.5308 C   0  0  0  0  0  0  0  0  0  0  0  0
    5.9839  -11.6190   26.2066 C   0  0  0  0  0  0  0  0  0  0  0  0
    6.5750  -12.2945   25.1665 C   0  0  0  0  0  0  0  0  0  0  0  0
    7.4965  -13.2897   25.4304 C   0  0  0  0  0  0  0  0  0  0  0  0
    8.1424  -14.0783   24.3610 C   0  0  0  0  0  0  0  0  0  0  0  0
    7.1549  -14.8509   23.5723 C   0  0  2  0  0  0  0  0  0  0  0  0
    6.8038  -16.0282   24.4136 N   0  0  0  0  0  0  0  0  0  0  0  0
    7.6021  -15.3935   22.2808 C   0  0  0  0  0  0  0  0  0  0  0  0
    7.9063  -16.6295   22.2279 O   0  0  0  0  0  0  0  0  0  0  0  0
    7.7877  -13.5662   26.7390 C   0  0  0  0  0  0  0  0  0  0  0  0
    7.1856  -12.8792   27.7704 C   0  0  0  0  0  0  0  0  0  0  0  0
    7.2089  -12.9875   19.0287 C   0  0  0  0  0  0  0  0  0  0  0  0
    7.8866  -14.2772   18.6316 C   0  0  1  0  0  0  0  0  0  0  0  0
    9.0427  -13.9584   17.9290 O   0  0  0  0  0  0  0  0  0  0  0  0
    8.1360  -15.1624   19.8008 C   0  0  2  0  0  0  0  0  0  0  0  0
    7.7230  -14.6539   21.0682 N   0  0  0  0  0  0  0  0  0  0  0  0
    9.5141  -15.7513   19.8215 C   0  0  0  0  0  0  0  0  0  0  0  0
   10.3634  -15.1898   20.5513 O   0  0  0  0  0  0  0  0  0  0  0  0
    9.8650  -16.8792   19.0684 N   0  0  0  0  0  0  0  0  0  0  0  0
   11.2589  -17.3263   19.1330 C   0  0  0  0  0  0  0  0  0  0  0  0
   11.5085  -18.4100   18.1484 C   0  0  0  0  0  0  0  0  0  0  0  0
   10.5574  -18.8369   17.4558 O   0  0  0  0  0  0  0  0  0  0  0  0
   12.7759  -18.9264   18.0126 O   0  0  0  0  0  0  0  0  0  0  0  0
  2 12  2  0
  2  1  1  0
  3  2  1  0
  4  5  1  0
  4  3  2  0
  5 11  2  0
  6  5  1  0
  7  8  1  1
  7  6  1  0
  9  7  1  0
 10  9  2  0
 11 12  1  0
 14 13  1  1
 15 14  1  0
 16 17  1  1
 16 14  1  0
 17  9  1  0
 18 16  1  0
 19 18  2  0
 20 18  1  0
 21 20  1  0
 22 24  1  0
 22 21  1  0
 23 22  2  0
M  END
$$$$
