YTG.pdb
     RDKit          3D

 24 24  0  0  1  0  0  0  0  0999 V2000
    4.8743  -10.8637   28.5373 O   0  0  0  0  0  0  0  0  0  0  0  0
    5.6014  -11.6843   27.6601 C   0  0  0  0  0  0  0  0  0  0  0  0
    6.8319  -12.1997   28.0102 C   0  0  0  0  0  0  0  0  0  0  0  0
    7.5705  -13.0052   27.1778 C   0  0  0  0  0  0  0  0  0  0  0  0
    7.0823  -13.3301   25.9266 C   0  0  0  0  0  0  0  0  0  0  0  0
    7.8403  -14.1619   24.9694 C   0  0  0  0  0  0  0  0  0  0  0  0
    6.9739  -15.1577   24.2972 C   0  0  2  0  0  0  0  0  0  0  0  0
    6.7904  -16.2586   25.2827 N   0  0  0  0  0  0  0  0  0  0  0  0
    7.4963  -15.7885   23.0760 C   0  0  0  0  0  0  0  0  0  0  0  0
    8.1936  -16.8469   23.2046 O   0  0  0  0  0  0  0  0  0  0  0  0
    5.8623  -12.8279   25.5618 C   0  0  0  0  0  0  0  0  0  0  0  0
    5.1343  -12.0211   26.4089 C   0  0  0  0  0  0  0  0  0  0  0  0
    8.0877  -13.3012   19.5869 C   0  0  0  0  0  0  0  0  0  0  0  0
    7.8174  -14.7745   19.3952 C   0  0  1  0  0  0  0  0  0  0  0  0
    8.5227  -15.2002   18.2758 O   0  0  0  0  0  0  0  0  0  0  0  0
    8.1247  -15.5645   20.6176 C   0  0  2  0  0  0  0  0  0  0  0  0
    7.2870  -15.3197   21.7462 N   0  0  0  0  0  0  0  0  0  0  0  0
    9.5835  -15.5926   20.9601 C   0  0  0  0  0  0  0  0  0  0  0  0
    9.9907  -14.7482   21.7910 O   0  0  0  0  0  0  0  0  0  0  0  0
   10.4753  -16.5113   20.3918 N   0  0  0  0  0  0  0  0  0  0  0  0
   11.8648  -16.4778   20.8557 C   0  0  0  0  0  0  0  0  0  0  0  0
   12.6789  -17.4992   20.1485 C   0  0  0  0  0  0  0  0  0  0  0  0
   12.1329  -18.2283   19.2901 O   0  0  0  0  0  0  0  0  0  0  0  0
   14.0154  -17.6285   20.4459 O   0  0  0  0  0  0  0  0  0  0  0  0
  2 12  2  0
  2  1  1  0
  3  2  1  0
  4  5  1  0
  4  3  2  0
  5 11  2  0
  6  5  1  0
  7  8  1  1
  7  6  1  0
  9  7  1  0
 10  9  2  0
 11 12  1  0
 14 13  1  1
 15 14  1  0
 16 17  1  1
 16 14  1  0
 17  9  1  0
 18 16  1  0
 19 18  2  0
 20 18  1  0
 21 20  1  0
 22 24  1  0
 22 21  1  0
 23 22  2  0
M  END
$$$$
