YTG.pdb
     RDKit          3D

 24 24  0  0  1  0  0  0  0  0999 V2000
   11.3989  -15.0669   30.0120 O   0  0  0  0  0  0  0  0  0  0  0  0
   10.3404  -14.9674   29.0947 C   0  0  0  0  0  0  0  0  0  0  0  0
    9.7630  -16.0891   28.5377 C   0  0  0  0  0  0  0  0  0  0  0  0
    8.7267  -16.0293   27.6376 C   0  0  0  0  0  0  0  0  0  0  0  0
    8.2203  -14.8019   27.2551 C   0  0  0  0  0  0  0  0  0  0  0  0
    7.1315  -14.6650   26.2659 C   0  0  0  0  0  0  0  0  0  0  0  0
    6.8793  -15.9336   25.5440 C   0  0  2  0  0  0  0  0  0  0  0  0
    7.1067  -17.0144   26.5427 N   0  0  0  0  0  0  0  0  0  0  0  0
    7.7541  -16.2439   24.4035 C   0  0  0  0  0  0  0  0  0  0  0  0
    8.4707  -17.2950   24.4719 O   0  0  0  0  0  0  0  0  0  0  0  0
    8.7808  -13.6773   27.7979 C   0  0  0  0  0  0  0  0  0  0  0  0
    9.8198  -13.7550   28.6994 C   0  0  0  0  0  0  0  0  0  0  0  0
    6.4966  -15.7243   20.7052 C   0  0  0  0  0  0  0  0  0  0  0  0
    7.9755  -15.4215   20.7448 C   0  0  1  0  0  0  0  0  0  0  0  0
    8.1479  -14.0745   20.4488 O   0  0  0  0  0  0  0  0  0  0  0  0
    8.5953  -15.8222   22.0363 C   0  0  2  0  0  0  0  0  0  0  0  0
    7.8705  -15.4683   23.2131 N   0  0  0  0  0  0  0  0  0  0  0  0
   10.0564  -15.5001   22.1236 C   0  0  0  0  0  0  0  0  0  0  0  0
   10.3831  -14.5198   22.8318 O   0  0  0  0  0  0  0  0  0  0  0  0
   11.0356  -16.2450   21.4537 N   0  0  0  0  0  0  0  0  0  0  0  0
   12.4296  -15.8220   21.6106 C   0  0  0  0  0  0  0  0  0  0  0  0
   13.3386  -16.7187   20.8517 C   0  0  0  0  0  0  0  0  0  0  0  0
   12.9015  -17.8099   20.4220 O   0  0  0  0  0  0  0  0  0  0  0  0
   14.6421  -16.3385   20.6332 O   0  0  0  0  0  0  0  0  0  0  0  0
  2 12  2  0
  2  1  1  0
  3  2  1  0
  4  5  1  0
  4  3  2  0
  5 11  2  0
  6  5  1  0
  7  8  1  1
  7  6  1  0
  9  7  1  0
 10  9  2  0
 11 12  1  0
 14 13  1  1
 15 14  1  0
 16 17  1  1
 16 14  1  0
 17  9  1  0
 18 16  1  0
 19 18  2  0
 20 18  1  0
 21 20  1  0
 22 24  1  0
 22 21  1  0
 23 22  2  0
M  END
$$$$
