YTG.pdb
     RDKit          3D

 24 24  0  0  1  0  0  0  0  0999 V2000
    7.7699  -14.6611   14.9032 O   0  0  0  0  0  0  0  0  0  0  0  0
    7.9803  -14.4790   16.2795 C   0  0  0  0  0  0  0  0  0  0  0  0
    8.4816  -15.4912   17.0710 C   0  0  0  0  0  0  0  0  0  0  0  0
    8.6998  -15.3485   18.4199 C   0  0  0  0  0  0  0  0  0  0  0  0
    8.4126  -14.1465   19.0380 C   0  0  0  0  0  0  0  0  0  0  0  0
    8.5902  -13.9372   20.4896 C   0  0  0  0  0  0  0  0  0  0  0  0
    7.7516  -14.8619   21.2870 C   0  0  2  0  0  0  0  0  0  0  0  0
    6.3564  -14.3624   21.1424 N   0  0  0  0  0  0  0  0  0  0  0  0
    8.0115  -14.9284   22.7327 C   0  0  0  0  0  0  0  0  0  0  0  0
    7.9502  -13.8441   23.3988 O   0  0  0  0  0  0  0  0  0  0  0  0
    7.9144  -13.1302   18.2682 C   0  0  0  0  0  0  0  0  0  0  0  0
    7.7014  -13.2901   16.9164 C   0  0  0  0  0  0  0  0  0  0  0  0
    6.6225  -14.7144   25.4405 C   0  0  0  0  0  0  0  0  0  0  0  0
    7.3198  -16.0242   25.7207 C   0  0  1  0  0  0  0  0  0  0  0  0
    6.3897  -17.0471   25.5776 O   0  0  0  0  0  0  0  0  0  0  0  0
    8.5288  -16.2080   24.8738 C   0  0  2  0  0  0  0  0  0  0  0  0
    8.3250  -16.1105   23.4651 N   0  0  0  0  0  0  0  0  0  0  0  0
    9.3619  -17.3894   25.2695 C   0  0  0  0  0  0  0  0  0  0  0  0
    9.6566  -18.2072   24.3676 O   0  0  0  0  0  0  0  0  0  0  0  0
    9.8055  -17.5952   26.5822 N   0  0  0  0  0  0  0  0  0  0  0  0
   10.6351  -18.7759   26.8364 C   0  0  0  0  0  0  0  0  0  0  0  0
   11.0393  -18.8357   28.2644 C   0  0  0  0  0  0  0  0  0  0  0  0
   10.6335  -17.9513   29.0516 O   0  0  0  0  0  0  0  0  0  0  0  0
   11.8502  -19.8578   28.6992 O   0  0  0  0  0  0  0  0  0  0  0  0
  2 12  2  0
  2  1  1  0
  3  2  1  0
  4  5  1  0
  4  3  2  0
  5 11  2  0
  6  5  1  0
  7  8  1  1
  7  6  1  0
  9  7  1  0
 10  9  2  0
 11 12  1  0
 14 13  1  6
 15 14  1  0
 16 17  1  6
 16 14  1  0
 17  9  1  0
 18 16  1  0
 19 18  2  0
 20 18  1  0
 21 20  1  0
 22 24  1  0
 22 21  1  0
 23 22  2  0
M  END
$$$$
