YTG.pdb
     RDKit          3D

 24 24  0  0  1  0  0  0  0  0999 V2000
    5.3568  -10.4915   28.4330 O   0  0  0  0  0  0  0  0  0  0  0  0
    6.0342  -11.5001   27.7292 C   0  0  0  0  0  0  0  0  0  0  0  0
    5.4506  -12.1487   26.6611 C   0  0  0  0  0  0  0  0  0  0  0  0
    6.0833  -13.1395   25.9502 C   0  0  0  0  0  0  0  0  0  0  0  0
    7.3637  -13.5238   26.2997 C   0  0  0  0  0  0  0  0  0  0  0  0
    8.0873  -14.6056   25.6004 C   0  0  0  0  0  0  0  0  0  0  0  0
    7.1627  -15.5138   24.8832 C   0  0  2  0  0  0  0  0  0  0  0  0
    6.9264  -16.6564   25.8081 N   0  0  0  0  0  0  0  0  0  0  0  0
    7.6409  -16.1029   23.6236 C   0  0  0  0  0  0  0  0  0  0  0  0
    8.2635  -17.2127   23.6844 O   0  0  0  0  0  0  0  0  0  0  0  0
    7.9593  -12.8910   27.3573 C   0  0  0  0  0  0  0  0  0  0  0  0
    7.3104  -11.8991   28.0598 C   0  0  0  0  0  0  0  0  0  0  0  0
    8.0580  -13.7035   19.9506 C   0  0  0  0  0  0  0  0  0  0  0  0
    7.7731  -15.1856   19.8999 C   0  0  1  0  0  0  0  0  0  0  0  0
    8.3729  -15.7012   18.7571 O   0  0  0  0  0  0  0  0  0  0  0  0
    8.1926  -15.8800   21.1468 C   0  0  2  0  0  0  0  0  0  0  0  0
    7.4648  -15.5401   22.3259 N   0  0  0  0  0  0  0  0  0  0  0  0
    9.6770  -15.8940   21.3527 C   0  0  0  0  0  0  0  0  0  0  0  0
   10.1650  -14.9741   22.0491 O   0  0  0  0  0  0  0  0  0  0  0  0
   10.5067  -16.8797   20.8028 N   0  0  0  0  0  0  0  0  0  0  0  0
   11.9497  -16.7437   21.0180 C   0  0  0  0  0  0  0  0  0  0  0  0
   12.6943  -17.7737   20.2493 C   0  0  0  0  0  0  0  0  0  0  0  0
   12.3716  -18.0013   19.0616 O   0  0  0  0  0  0  0  0  0  0  0  0
   13.7232  -18.4594   20.8513 O   0  0  0  0  0  0  0  0  0  0  0  0
  2 12  2  0
  2  1  1  0
  3  2  1  0
  4  5  1  0
  4  3  2  0
  5 11  2  0
  6  5  1  0
  7  8  1  1
  7  6  1  0
  9  7  1  0
 10  9  2  0
 11 12  1  0
 14 13  1  1
 15 14  1  0
 16 17  1  1
 16 14  1  0
 17  9  1  0
 18 16  1  0
 19 18  2  0
 20 18  1  0
 21 20  1  0
 22 24  1  0
 22 21  1  0
 23 22  2  0
M  END
$$$$
