YTG.pdb
     RDKit          3D

 24 24  0  0  1  0  0  0  0  0999 V2000
   -0.1542  -20.7389   23.5446 O   0  0  0  0  0  0  0  0  0  0  0  0
    1.1671  -20.3953   23.2160 C   0  0  0  0  0  0  0  0  0  0  0  0
    2.1386  -21.3583   23.0403 C   0  0  0  0  0  0  0  0  0  0  0  0
    3.4403  -21.0587   22.7188 C   0  0  0  0  0  0  0  0  0  0  0  0
    3.8213  -19.7403   22.5581 C   0  0  0  0  0  0  0  0  0  0  0  0
    5.2111  -19.3470   22.2475 C   0  0  0  0  0  0  0  0  0  0  0  0
    5.2640  -18.2216   21.2858 C   0  0  2  0  0  0  0  0  0  0  0  0
    4.7229  -18.7613   20.0080 N   0  0  0  0  0  0  0  0  0  0  0  0
    6.5899  -17.6723   20.9657 C   0  0  0  0  0  0  0  0  0  0  0  0
    6.9577  -17.6780   19.7459 O   0  0  0  0  0  0  0  0  0  0  0  0
    2.8703  -18.7706   22.7284 C   0  0  0  0  0  0  0  0  0  0  0  0
    1.5690  -19.0883   23.0509 C   0  0  0  0  0  0  0  0  0  0  0  0
    6.9580  -15.2500   19.8354 C   0  0  0  0  0  0  0  0  0  0  0  0
    7.8726  -14.8650   20.9736 C   0  0  1  0  0  0  0  0  0  0  0  0
    7.1757  -14.0062   21.8153 O   0  0  0  0  0  0  0  0  0  0  0  0
    8.4248  -16.0544   21.6759 C   0  0  2  0  0  0  0  0  0  0  0  0
    7.5093  -17.1239   21.9069 N   0  0  0  0  0  0  0  0  0  0  0  0
    9.2457  -15.7091   22.8813 C   0  0  0  0  0  0  0  0  0  0  0  0
    8.6362  -15.2460   23.8729 O   0  0  0  0  0  0  0  0  0  0  0  0
   10.6347  -15.8862   22.9254 N   0  0  0  0  0  0  0  0  0  0  0  0
   11.3174  -15.5543   24.1786 C   0  0  0  0  0  0  0  0  0  0  0  0
   12.7853  -15.7343   24.0401 C   0  0  0  0  0  0  0  0  0  0  0  0
   13.2430  -16.2305   22.9862 O   0  0  0  0  0  0  0  0  0  0  0  0
   13.6167  -15.3547   25.0677 O   0  0  0  0  0  0  0  0  0  0  0  0
  2 12  2  0
  2  1  1  0
  3  2  1  0
  4  5  1  0
  4  3  2  0
  5 11  2  0
  6  5  1  0
  7  8  1  6
  7  6  1  0
  9  7  1  0
 10  9  2  0
 11 12  1  0
 14 13  1  6
 15 14  1  0
 16 17  1  1
 16 14  1  0
 17  9  1  0
 18 16  1  0
 19 18  2  0
 20 18  1  0
 21 20  1  0
 22 24  1  0
 22 21  1  0
 23 22  2  0
M  END
$$$$
