YTG.pdb
     RDKit          3D

 24 24  0  0  1  0  0  0  0  0999 V2000
    5.0781  -10.5220   27.9173 O   0  0  0  0  0  0  0  0  0  0  0  0
    5.8409  -11.5408   27.3242 C   0  0  0  0  0  0  0  0  0  0  0  0
    6.1536  -12.6968   28.0083 C   0  0  0  0  0  0  0  0  0  0  0  0
    6.8973  -13.7135   27.4598 C   0  0  0  0  0  0  0  0  0  0  0  0
    7.3664  -13.5990   26.1652 C   0  0  0  0  0  0  0  0  0  0  0  0
    8.2005  -14.6384   25.5276 C   0  0  0  0  0  0  0  0  0  0  0  0
    7.3805  -15.6323   24.7969 C   0  0  2  0  0  0  0  0  0  0  0  0
    7.0430  -16.6841   25.7953 N   0  0  0  0  0  0  0  0  0  0  0  0
    8.0163  -16.3308   23.6700 C   0  0  0  0  0  0  0  0  0  0  0  0
    8.6573  -17.4031   23.9198 O   0  0  0  0  0  0  0  0  0  0  0  0
    7.0657  -12.4585   25.4705 C   0  0  0  0  0  0  0  0  0  0  0  0
    6.3186  -11.4482   26.0357 C   0  0  0  0  0  0  0  0  0  0  0  0
    6.7540  -15.9982   19.7819 C   0  0  0  0  0  0  0  0  0  0  0  0
    8.2579  -16.1098   19.8603 C   0  0  1  0  0  0  0  0  0  0  0  0
    8.8035  -14.9203   19.3922 O   0  0  0  0  0  0  0  0  0  0  0  0
    8.7226  -16.4706   21.2265 C   0  0  2  0  0  0  0  0  0  0  0  0
    7.9759  -15.9142   22.3074 N   0  0  0  0  0  0  0  0  0  0  0  0
   10.2052  -16.3442   21.4064 C   0  0  0  0  0  0  0  0  0  0  0  0
   10.6229  -15.3218   21.9974 O   0  0  0  0  0  0  0  0  0  0  0  0
   11.1073  -17.3113   20.9445 N   0  0  0  0  0  0  0  0  0  0  0  0
   12.5341  -17.0647   21.1694 C   0  0  0  0  0  0  0  0  0  0  0  0
   13.3583  -18.0998   20.4945 C   0  0  0  0  0  0  0  0  0  0  0  0
   12.7969  -19.1101   20.0143 O   0  0  0  0  0  0  0  0  0  0  0  0
   14.7207  -17.9337   20.4075 O   0  0  0  0  0  0  0  0  0  0  0  0
  2 12  2  0
  2  1  1  0
  3  2  1  0
  4  5  1  0
  4  3  2  0
  5 11  2  0
  6  5  1  0
  7  8  1  1
  7  6  1  0
  9  7  1  0
 10  9  2  0
 11 12  1  0
 14 13  1  1
 15 14  1  0
 16 17  1  1
 16 14  1  0
 17  9  1  0
 18 16  1  0
 19 18  2  0
 20 18  1  0
 21 20  1  0
 22 24  1  0
 22 21  1  0
 23 22  2  0
M  END
$$$$
