SKI.pdb
     RDKit          3D

 24 23  0  0  1  0  0  0  0  0999 V2000
    9.2303  -14.7947   20.3059 O   0  0  0  0  0  0  0  0  0  0  0  0
    8.5044  -15.8872   19.8810 C   0  0  0  0  0  0  0  0  0  0  0  0
    7.0554  -15.8263   20.3116 C   0  0  2  0  0  0  0  0  0  0  0  0
    6.4215  -14.6514   19.7483 N   0  0  0  0  0  0  0  0  0  0  0  0
    6.8933  -15.8851   21.7809 C   0  0  0  0  0  0  0  0  0  0  0  0
    6.5625  -14.8348   22.3783 O   0  0  0  0  0  0  0  0  0  0  0  0
    7.1061  -17.0936   22.4904 N   0  0  0  0  0  0  0  0  0  0  0  0
    6.9443  -17.2008   23.9256 C   0  0  1  0  0  0  0  0  0  0  0  0
    7.1262  -18.6521   24.3131 C   0  0  0  0  0  0  0  0  0  0  0  0
    6.9522  -18.8435   25.8088 C   0  0  0  0  0  0  0  0  0  0  0  0
    7.2403  -20.2577   26.2267 C   0  0  0  0  0  0  0  0  0  0  0  0
    7.0817  -20.2989   27.7515 C   0  0  0  0  0  0  0  0  0  0  0  0
    7.3868  -21.6340   28.2365 N   0  0  0  0  0  0  0  0  0  0  0  0
    7.9467  -16.3719   24.6665 C   0  0  0  0  0  0  0  0  0  0  0  0
    9.1441  -16.3216   24.3316 O   0  0  0  0  0  0  0  0  0  0  0  0
    6.2400  -11.5157   26.1242 C   0  0  0  0  0  0  0  0  0  0  0  0
    7.1605  -12.6405   25.7220 C   0  0  0  0  0  0  0  0  0  0  0  0
    7.5797  -13.4515   26.9410 C   0  0  2  0  0  0  0  0  0  0  0  0
    8.6445  -12.5843   27.6346 C   0  0  0  0  0  0  0  0  0  0  0  0
    8.2545  -14.7513   26.5755 C   0  0  2  0  0  0  0  0  0  0  0  0
    7.4684  -15.6471   25.7673 N   0  0  0  0  0  0  0  0  0  0  0  0
    8.9503  -15.3674   27.6913 C   0  0  0  0  0  0  0  0  0  0  0  0
    9.8734  -14.8502   28.3578 O   0  0  0  0  0  0  0  0  0  0  0  0
    8.5719  -16.6660   28.0807 O   0  0  0  0  0  0  0  0  0  0  0  0
  2  1  1  0
  3  2  1  0
  3  4  1  1
  5  6  2  0
  5  3  1  0
  7  5  1  0
  8  7  1  0
  9 10  1  0
  8  9  1  1
 10 11  1  0
 12 11  1  0
 13 12  1  0
 14 21  1  0
 14  8  1  0
 15 14  2  0
 17 16  1  0
 18 17  1  0
 18 19  1  1
 20 18  1  0
 20 21  1  1
 22 20  1  0
 23 22  2  0
 24 22  1  0
M  END
$$$$
