SKI.pdb
     RDKit          3D

 24 23  0  0  1  0  0  0  0  0999 V2000
    9.1653  -13.0937   19.9071 O   0  0  0  0  0  0  0  0  0  0  0  0
    8.1665  -13.5703   19.0848 C   0  0  0  0  0  0  0  0  0  0  0  0
    7.9989  -15.0707   19.1822 C   0  0  2  0  0  0  0  0  0  0  0  0
    7.0133  -15.5213   18.2202 N   0  0  0  0  0  0  0  0  0  0  0  0
    7.6723  -15.5211   20.5530 C   0  0  0  0  0  0  0  0  0  0  0  0
    6.4941  -15.3777   20.9538 O   0  0  0  0  0  0  0  0  0  0  0  0
    8.6631  -16.0974   21.3869 N   0  0  0  0  0  0  0  0  0  0  0  0
    8.4085  -16.4797   22.7603 C   0  0  1  0  0  0  0  0  0  0  0  0
    9.0344  -17.8372   22.9952 C   0  0  0  0  0  0  0  0  0  0  0  0
    8.7086  -18.3552   24.3843 C   0  0  0  0  0  0  0  0  0  0  0  0
    9.2841  -19.7235   24.6176 C   0  0  0  0  0  0  0  0  0  0  0  0
    8.8751  -20.1279   26.0393 C   0  0  0  0  0  0  0  0  0  0  0  0
    9.3954  -21.4513   26.3373 N   0  0  0  0  0  0  0  0  0  0  0  0
    8.9922  -15.5021   23.7321 C   0  0  0  0  0  0  0  0  0  0  0  0
   10.1788  -15.1323   23.6702 O   0  0  0  0  0  0  0  0  0  0  0  0
    5.3792  -12.0585   26.7536 C   0  0  0  0  0  0  0  0  0  0  0  0
    6.1480  -13.2649   26.2761 C   0  0  0  0  0  0  0  0  0  0  0  0
    7.5558  -12.8690   25.8509 C   0  0  2  0  0  0  0  0  0  0  0  0
    7.3855  -12.3022   24.4308 C   0  0  0  0  0  0  0  0  0  0  0  0
    8.4862  -14.0518   25.7336 C   0  0  2  0  0  0  0  0  0  0  0  0
    8.1305  -15.0173   24.7262 N   0  0  0  0  0  0  0  0  0  0  0  0
    8.8705  -14.6062   27.0195 C   0  0  0  0  0  0  0  0  0  0  0  0
    9.3512  -13.9676   27.9812 O   0  0  0  0  0  0  0  0  0  0  0  0
    8.6972  -15.9869   27.2313 O   0  0  0  0  0  0  0  0  0  0  0  0
  2  1  1  0
  3  2  1  0
  3  4  1  6
  5  6  2  0
  5  3  1  0
  7  5  1  0
  8  7  1  0
  9 10  1  0
  8  9  1  1
 10 11  1  0
 12 11  1  0
 13 12  1  0
 14 21  1  0
 14  8  1  0
 15 14  2  0
 17 16  1  0
 18 17  1  0
 18 19  1  6
 20 18  1  0
 20 21  1  6
 22 20  1  0
 23 22  2  0
 24 22  1  0
M  END
$$$$
