SKI.pdb
     RDKit          3D

 24 23  0  0  1  0  0  0  0  0999 V2000
    5.6957  -20.6111   24.8585 O   0  0  0  0  0  0  0  0  0  0  0  0
    4.8246  -20.0021   23.9804 C   0  0  0  0  0  0  0  0  0  0  0  0
    5.4784  -19.6498   22.6623 C   0  0  2  0  0  0  0  0  0  0  0  0
    5.9405  -20.8543   22.0026 N   0  0  0  0  0  0  0  0  0  0  0  0
    6.5638  -18.6556   22.8110 C   0  0  0  0  0  0  0  0  0  0  0  0
    7.6978  -19.0691   23.1465 O   0  0  0  0  0  0  0  0  0  0  0  0
    6.3270  -17.2772   22.5804 N   0  0  0  0  0  0  0  0  0  0  0  0
    7.3262  -16.2573   22.8226 C   0  0  1  0  0  0  0  0  0  0  0  0
    6.9197  -15.0108   22.0673 C   0  0  0  0  0  0  0  0  0  0  0  0
    7.9447  -14.6579   21.0048 C   0  0  0  0  0  0  0  0  0  0  0  0
    7.5373  -13.4435   20.2194 C   0  0  0  0  0  0  0  0  0  0  0  0
    8.6164  -13.2388   19.1490 C   0  0  0  0  0  0  0  0  0  0  0  0
    8.2724  -12.0931   18.3244 N   0  0  0  0  0  0  0  0  0  0  0  0
    7.4475  -15.9249   24.2771 C   0  0  0  0  0  0  0  0  0  0  0  0
    6.4743  -15.5492   24.9556 O   0  0  0  0  0  0  0  0  0  0  0  0
    7.8703  -19.0359   27.9666 C   0  0  0  0  0  0  0  0  0  0  0  0
    7.7526  -17.7774   27.1439 C   0  0  0  0  0  0  0  0  0  0  0  0
    9.0809  -17.0332   27.1106 C   0  0  2  0  0  0  0  0  0  0  0  0
    9.2771  -16.5282   28.5506 C   0  0  0  0  0  0  0  0  0  0  0  0
    9.0445  -15.8100   26.2268 C   0  0  2  0  0  0  0  0  0  0  0  0
    8.7222  -16.0579   24.8454 N   0  0  0  0  0  0  0  0  0  0  0  0
   10.1592  -14.9076   26.4540 C   0  0  0  0  0  0  0  0  0  0  0  0
   11.0813  -14.6604   25.6462 O   0  0  0  0  0  0  0  0  0  0  0  0
   10.2347  -14.2352   27.6883 O   0  0  0  0  0  0  0  0  0  0  0  0
  2  1  1  0
  3  2  1  0
  3  4  1  1
  5  6  2  0
  5  3  1  0
  7  5  1  0
  8  7  1  0
  9 10  1  0
  8  9  1  6
 10 11  1  0
 12 11  1  0
 13 12  1  0
 14 21  1  0
 14  8  1  0
 15 14  2  0
 17 16  1  0
 18 17  1  0
 18 19  1  1
 20 18  1  0
 20 21  1  6
 22 20  1  0
 23 22  2  0
 24 22  1  0
M  END
$$$$
