SKI.pdb
     RDKit          3D

 24 23  0  0  1  0  0  0  0  0999 V2000
    5.1102  -18.0600   24.2725 O   0  0  0  0  0  0  0  0  0  0  0  0
    5.3461  -19.2169   23.5605 C   0  0  0  0  0  0  0  0  0  0  0  0
    5.7689  -18.9459   22.1333 C   0  0  2  0  0  0  0  0  0  0  0  0
    6.1844  -20.1803   21.4983 N   0  0  0  0  0  0  0  0  0  0  0  0
    6.8118  -17.9012   22.0352 C   0  0  0  0  0  0  0  0  0  0  0  0
    7.9756  -18.1971   22.3920 O   0  0  0  0  0  0  0  0  0  0  0  0
    6.5026  -16.6050   21.5519 N   0  0  0  0  0  0  0  0  0  0  0  0
    7.4326  -15.4972   21.6243 C   0  0  1  0  0  0  0  0  0  0  0  0
    7.1067  -14.5345   20.5034 C   0  0  0  0  0  0  0  0  0  0  0  0
    8.1903  -13.4819   20.3557 C   0  0  0  0  0  0  0  0  0  0  0  0
    7.8307  -12.4536   19.3209 C   0  0  0  0  0  0  0  0  0  0  0  0
    9.1364  -12.0849   18.6057 C   0  0  0  0  0  0  0  0  0  0  0  0
    9.5087  -13.1517   17.6923 N   0  0  0  0  0  0  0  0  0  0  0  0
    7.3390  -14.7707   22.9298 C   0  0  0  0  0  0  0  0  0  0  0  0
    6.5571  -13.8186   23.1052 O   0  0  0  0  0  0  0  0  0  0  0  0
    6.6421  -12.3431   27.7234 C   0  0  0  0  0  0  0  0  0  0  0  0
    7.8315  -12.9745   27.0444 C   0  0  0  0  0  0  0  0  0  0  0  0
    7.3839  -13.8302   25.8667 C   0  0  2  0  0  0  0  0  0  0  0  0
    6.5942  -14.9853   26.5064 C   0  0  0  0  0  0  0  0  0  0  0  0
    8.5401  -14.4575   25.1263 C   0  0  2  0  0  0  0  0  0  0  0  0
    8.1825  -15.2176   23.9567 N   0  0  0  0  0  0  0  0  0  0  0  0
    9.5080  -15.0875   26.0065 C   0  0  0  0  0  0  0  0  0  0  0  0
    9.8224  -16.2979   26.0071 O   0  0  0  0  0  0  0  0  0  0  0  0
   10.1688  -14.2864   26.9567 O   0  0  0  0  0  0  0  0  0  0  0  0
  2  1  1  0
  3  2  1  0
  3  4  1  1
  5  6  2  0
  5  3  1  0
  7  5  1  0
  8  7  1  0
  9 10  1  0
  8  9  1  6
 10 11  1  0
 12 11  1  0
 13 12  1  0
 14 21  1  0
 14  8  1  0
 15 14  2  0
 17 16  1  0
 18 17  1  0
 18 19  1  1
 20 18  1  0
 20 21  1  6
 22 20  1  0
 23 22  2  0
 24 22  1  0
M  END
$$$$
