SKI.pdb
     RDKit          3D

 24 23  0  0  1  0  0  0  0  0999 V2000
    9.5806  -13.2287   19.0608 O   0  0  0  0  0  0  0  0  0  0  0  0
    9.2434  -14.4585   19.5852 C   0  0  0  0  0  0  0  0  0  0  0  0
    7.7474  -14.6487   19.7071 C   0  0  2  0  0  0  0  0  0  0  0  0
    7.0577  -13.4795   19.2000 N   0  0  0  0  0  0  0  0  0  0  0  0
    7.3243  -14.9795   21.0856 C   0  0  0  0  0  0  0  0  0  0  0  0
    6.9336  -14.0437   21.8211 O   0  0  0  0  0  0  0  0  0  0  0  0
    7.3602  -16.3152   21.5588 N   0  0  0  0  0  0  0  0  0  0  0  0
    7.0741  -16.6693   22.9336 C   0  0  1  0  0  0  0  0  0  0  0  0
    7.1233  -18.1770   23.0517 C   0  0  0  0  0  0  0  0  0  0  0  0
    6.8521  -18.6219   24.4774 C   0  0  0  0  0  0  0  0  0  0  0  0
    7.0143  -20.1070   24.6380 C   0  0  0  0  0  0  0  0  0  0  0  0
    6.7077  -20.4190   26.1079 C   0  0  0  0  0  0  0  0  0  0  0  0
    7.9169  -20.2701   26.8993 N   0  0  0  0  0  0  0  0  0  0  0  0
    8.0668  -16.0760   23.8839 C   0  0  0  0  0  0  0  0  0  0  0  0
    9.2915  -16.2645   23.7681 O   0  0  0  0  0  0  0  0  0  0  0  0
    6.1174  -11.6493   27.0247 C   0  0  0  0  0  0  0  0  0  0  0  0
    6.4754  -13.0803   26.7106 C   0  0  0  0  0  0  0  0  0  0  0  0
    7.9030  -13.1731   26.1886 C   0  0  2  0  0  0  0  0  0  0  0  0
    7.8662  -12.4490   24.8317 C   0  0  0  0  0  0  0  0  0  0  0  0
    8.3322  -14.5927   25.9074 C   0  0  2  0  0  0  0  0  0  0  0  0
    7.5471  -15.2895   24.9217 N   0  0  0  0  0  0  0  0  0  0  0  0
    8.6337  -15.3475   27.1108 C   0  0  0  0  0  0  0  0  0  0  0  0
    8.1273  -16.4433   27.4373 O   0  0  0  0  0  0  0  0  0  0  0  0
    9.5792  -14.8214   28.0111 O   0  0  0  0  0  0  0  0  0  0  0  0
  2  1  1  0
  3  2  1  0
  3  4  1  1
  5  6  2  0
  5  3  1  0
  7  5  1  0
  8  7  1  0
  9 10  1  0
  8  9  1  6
 10 11  1  0
 12 11  1  0
 13 12  1  0
 14 21  1  0
 14  8  1  0
 15 14  2  0
 17 16  1  0
 18 17  1  0
 18 19  1  6
 20 18  1  0
 20 21  1  1
 22 20  1  0
 23 22  2  0
 24 22  1  0
M  END
$$$$
