SKI.pdb
     RDKit          3D

 24 23  0  0  1  0  0  0  0  0999 V2000
   10.4879  -12.8900   19.0939 O   0  0  0  0  0  0  0  0  0  0  0  0
    9.9258  -14.1287   19.3186 C   0  0  0  0  0  0  0  0  0  0  0  0
    8.4155  -14.0777   19.3923 C   0  0  2  0  0  0  0  0  0  0  0  0
    7.9482  -12.7521   19.0401 N   0  0  0  0  0  0  0  0  0  0  0  0
    7.8928  -14.5118   20.7064 C   0  0  0  0  0  0  0  0  0  0  0  0
    7.3551  -13.6497   21.4391 O   0  0  0  0  0  0  0  0  0  0  0  0
    7.9976  -15.8627   21.1229 N   0  0  0  0  0  0  0  0  0  0  0  0
    7.5131  -16.3289   22.4056 C   0  0  1  0  0  0  0  0  0  0  0  0
    7.6394  -17.8365   22.4372 C   0  0  0  0  0  0  0  0  0  0  0  0
    7.1083  -18.4013   23.7421 C   0  0  0  0  0  0  0  0  0  0  0  0
    7.2338  -19.8977   23.7935 C   0  0  0  0  0  0  0  0  0  0  0  0
    6.6830  -20.3314   25.1575 C   0  0  0  0  0  0  0  0  0  0  0  0
    6.8247  -21.7698   25.3044 N   0  0  0  0  0  0  0  0  0  0  0  0
    8.2961  -15.7530   23.5440 C   0  0  0  0  0  0  0  0  0  0  0  0
    9.5390  -15.6928   23.5318 O   0  0  0  0  0  0  0  0  0  0  0  0
    5.5819  -11.8064   26.3296 C   0  0  0  0  0  0  0  0  0  0  0  0
    6.6626  -12.5902   25.6279 C   0  0  0  0  0  0  0  0  0  0  0  0
    7.1906  -13.6990   26.5285 C   0  0  2  0  0  0  0  0  0  0  0  0
    8.0472  -12.9696   27.5779 C   0  0  0  0  0  0  0  0  0  0  0  0
    8.1131  -14.6505   25.8059 C   0  0  2  0  0  0  0  0  0  0  0  0
    7.5558  -15.2794   24.6365 N   0  0  0  0  0  0  0  0  0  0  0  0
    8.8391  -15.5332   26.7016 C   0  0  0  0  0  0  0  0  0  0  0  0
    9.8597  -15.2351   27.3599 O   0  0  0  0  0  0  0  0  0  0  0  0
    8.3741  -16.8518   26.8635 O   0  0  0  0  0  0  0  0  0  0  0  0
  2  1  1  0
  3  2  1  0
  3  4  1  1
  5  6  2  0
  5  3  1  0
  7  5  1  0
  8  7  1  0
  9 10  1  0
  8  9  1  6
 10 11  1  0
 12 11  1  0
 13 12  1  0
 14 21  1  0
 14  8  1  0
 15 14  2  0
 17 16  1  0
 18 17  1  0
 18 19  1  1
 20 18  1  0
 20 21  1  6
 22 20  1  0
 23 22  2  0
 24 22  1  0
M  END
$$$$
