SKI.pdb
     RDKit          3D

 24 23  0  0  1  0  0  0  0  0999 V2000
    9.7352  -14.4615   19.9009 O   0  0  0  0  0  0  0  0  0  0  0  0
    9.2100  -15.5978   19.3232 C   0  0  0  0  0  0  0  0  0  0  0  0
    7.7167  -15.7202   19.5325 C   0  0  2  0  0  0  0  0  0  0  0  0
    7.0309  -14.6499   18.8369 N   0  0  0  0  0  0  0  0  0  0  0  0
    7.3428  -15.7718   20.9630 C   0  0  0  0  0  0  0  0  0  0  0  0
    6.6637  -14.8272   21.4275 O   0  0  0  0  0  0  0  0  0  0  0  0
    7.7414  -16.8577   21.7823 N   0  0  0  0  0  0  0  0  0  0  0  0
    7.4217  -16.9362   23.1926 C   0  0  1  0  0  0  0  0  0  0  0  0
    7.7692  -18.3267   23.6777 C   0  0  0  0  0  0  0  0  0  0  0  0
    7.3927  -18.5054   25.1372 C   0  0  0  0  0  0  0  0  0  0  0  0
    7.7120  -19.8886   25.6296 C   0  0  0  0  0  0  0  0  0  0  0  0
    7.1628  -19.9765   27.0587 C   0  0  0  0  0  0  0  0  0  0  0  0
    7.3255  -21.3304   27.5601 N   0  0  0  0  0  0  0  0  0  0  0  0
    8.1900  -15.9357   23.9985 C   0  0  0  0  0  0  0  0  0  0  0  0
    9.3647  -15.6265   23.7280 O   0  0  0  0  0  0  0  0  0  0  0  0
    6.6376  -10.7592   26.7937 C   0  0  0  0  0  0  0  0  0  0  0  0
    7.6534  -11.8654   26.6562 C   0  0  0  0  0  0  0  0  0  0  0  0
    7.0476  -13.0620   25.9346 C   0  0  2  0  0  0  0  0  0  0  0  0
    5.8781  -13.5027   26.8317 C   0  0  0  0  0  0  0  0  0  0  0  0
    7.9930  -14.2358   25.8524 C   0  0  2  0  0  0  0  0  0  0  0  0
    7.5173  -15.3569   25.0839 N   0  0  0  0  0  0  0  0  0  0  0  0
    8.6029  -14.5688   27.1275 C   0  0  0  0  0  0  0  0  0  0  0  0
    8.5200  -15.6686   27.7171 O   0  0  0  0  0  0  0  0  0  0  0  0
    9.3630  -13.5823   27.7833 O   0  0  0  0  0  0  0  0  0  0  0  0
  2  1  1  0
  3  2  1  0
  3  4  1  1
  5  6  2  0
  5  3  1  0
  7  5  1  0
  8  7  1  0
  9 10  1  0
  8  9  1  1
 10 11  1  0
 12 11  1  0
 13 12  1  0
 14 21  1  0
 14  8  1  0
 15 14  2  0
 17 16  1  0
 18 17  1  0
 18 19  1  1
 20 18  1  0
 20 21  1  1
 22 20  1  0
 23 22  2  0
 24 22  1  0
M  END
$$$$
