SKI.pdb
     RDKit          3D

 24 23  0  0  1  0  0  0  0  0999 V2000
   10.7067  -13.1539   19.9367 O   0  0  0  0  0  0  0  0  0  0  0  0
   10.0336  -14.0059   19.0869 C   0  0  0  0  0  0  0  0  0  0  0  0
    8.5352  -13.8004   19.1236 C   0  0  2  0  0  0  0  0  0  0  0  0
    8.2140  -12.4379   18.7496 N   0  0  0  0  0  0  0  0  0  0  0  0
    7.9406  -14.1651   20.4283 C   0  0  0  0  0  0  0  0  0  0  0  0
    7.4901  -13.2434   21.1472 O   0  0  0  0  0  0  0  0  0  0  0  0
    7.8827  -15.5169   20.8511 N   0  0  0  0  0  0  0  0  0  0  0  0
    7.2823  -15.9225   22.1050 C   0  0  1  0  0  0  0  0  0  0  0  0
    7.0959  -17.4239   22.0741 C   0  0  0  0  0  0  0  0  0  0  0  0
    6.1145  -17.8297   20.9896 C   0  0  0  0  0  0  0  0  0  0  0  0
    6.0680  -19.3208   20.8101 C   0  0  0  0  0  0  0  0  0  0  0  0
    4.9861  -19.5962   19.7586 C   0  0  0  0  0  0  0  0  0  0  0  0
    4.9966  -21.0060   19.4075 N   0  0  0  0  0  0  0  0  0  0  0  0
    8.1391  -15.5645   23.2790 C   0  0  0  0  0  0  0  0  0  0  0  0
    9.3804  -15.6464   23.2446 O   0  0  0  0  0  0  0  0  0  0  0  0
    6.2613  -11.3806   26.2756 C   0  0  0  0  0  0  0  0  0  0  0  0
    7.0981  -12.3841   25.5225 C   0  0  0  0  0  0  0  0  0  0  0  0
    7.3962  -13.5957   26.3957 C   0  0  2  0  0  0  0  0  0  0  0  0
    8.3822  -13.0749   27.4557 C   0  0  0  0  0  0  0  0  0  0  0  0
    8.1100  -14.6951   25.6472 C   0  0  2  0  0  0  0  0  0  0  0  0
    7.4708  -15.1279   24.4316 N   0  0  0  0  0  0  0  0  0  0  0  0
    8.5873  -15.7590   26.5128 C   0  0  0  0  0  0  0  0  0  0  0  0
    8.1398  -16.9258   26.5586 O   0  0  0  0  0  0  0  0  0  0  0  0
    9.6507  -15.4799   27.3917 O   0  0  0  0  0  0  0  0  0  0  0  0
  2  1  1  0
  3  2  1  0
  3  4  1  1
  5  6  2  0
  5  3  1  0
  7  5  1  0
  8  7  1  0
  9 10  1  0
  8  9  1  6
 10 11  1  0
 12 11  1  0
 13 12  1  0
 14 21  1  0
 14  8  1  0
 15 14  2  0
 17 16  1  0
 18 17  1  0
 18 19  1  1
 20 18  1  0
 20 21  1  6
 22 20  1  0
 23 22  2  0
 24 22  1  0
M  END
$$$$
