VPI.pdb
     RDKit          3D

 23 23  0  0  1  0  0  0  0  0999 V2000
   25.8174  -15.6141  -17.1833 C   0  0  0  0  0  0  0  0  0  0  0  0
   25.5399  -16.6708  -16.1300 C   0  0  2  0  0  0  0  0  0  0  0  0
   26.2222  -16.2234  -14.8427 C   0  0  0  0  0  0  0  0  0  0  0  0
   26.2363  -17.9594  -16.5791 C   0  0  2  0  0  0  0  0  0  0  0  0
   25.5594  -18.3265  -17.8145 N   0  0  0  0  0  0  0  0  0  0  0  0
   26.1130  -19.0335  -15.5610 C   0  0  0  0  0  0  0  0  0  0  0  0
   24.9876  -19.5525  -15.3671 O   0  0  0  0  0  0  0  0  0  0  0  0
   27.2129  -19.5002  -14.7982 N   0  0  0  0  0  0  0  0  0  0  0  0
   28.5868  -19.0634  -15.0678 C   0  0  0  0  0  0  0  0  0  0  0  0
   29.3601  -20.3493  -14.7677 C   0  0  0  0  0  0  0  0  0  0  0  0
   28.7131  -20.7155  -13.4268 C   0  0  0  0  0  0  0  0  0  0  0  0
   27.2752  -20.4136  -13.6824 C   0  0  1  0  0  0  0  0  0  0  0  0
   26.5020  -19.9790  -12.5157 C   0  0  0  0  0  0  0  0  0  0  0  0
   26.5611  -18.7312  -12.2092 O   0  0  0  0  0  0  0  0  0  0  0  0
   21.5582  -20.3686  -11.9795 C   0  0  0  0  0  0  0  0  0  0  0  0
   23.0247  -19.9556  -11.8660 C   0  0  0  0  0  0  0  0  0  0  0  0
   23.5741  -20.6293  -10.6419 C   0  0  2  0  0  0  0  0  0  0  0  0
   22.8909  -20.1648   -9.3802 C   0  0  0  0  0  0  0  0  0  0  0  0
   25.0609  -20.4331  -10.4767 C   0  0  2  0  0  0  0  0  0  0  0  0
   25.7150  -20.8039  -11.7187 N   0  0  0  0  0  0  0  0  0  0  0  0
   25.6411  -21.1249   -9.3195 C   0  0  0  0  0  0  0  0  0  0  0  0
   25.4498  -20.5160   -8.0468 O   0  0  0  0  0  0  0  0  0  0  0  0
   26.2858  -22.1912   -9.3357 O   0  0  0  0  0  0  0  0  0  0  0  0
  2  1  1  6
  2  3  1  0
  4  2  1  0
  4  5  1  6
  6  4  1  0
  6  8  1  0
  7  6  2  0
  8 12  1  0
  9  8  1  0
 10  9  1  0
 10 11  1  0
 12 11  1  0
 13 20  1  0
 12 13  1  1
 14 13  2  0
 16 15  1  0
 17 16  1  0
 17 18  1  1
 19 17  1  0
 19 20  1  6
 21 22  1  0
 21 19  1  0
 23 21  2  0
M  END
$$$$
