VPI.pdb
     RDKit          3D

 23 23  0  0  1  0  0  0  0  0999 V2000
   24.1515  -19.7228  -14.6081 C   0  0  0  0  0  0  0  0  0  0  0  0
   24.7393  -19.8044  -13.2114 C   0  0  2  0  0  0  0  0  0  0  0  0
   25.6823  -18.6191  -13.0421 C   0  0  0  0  0  0  0  0  0  0  0  0
   25.5994  -21.0708  -13.1494 C   0  0  2  0  0  0  0  0  0  0  0  0
   24.6764  -22.1523  -13.4615 N   0  0  0  0  0  0  0  0  0  0  0  0
   26.2079  -21.2559  -11.8075 C   0  0  0  0  0  0  0  0  0  0  0  0
   25.4675  -21.5921  -10.8522 O   0  0  0  0  0  0  0  0  0  0  0  0
   27.5909  -21.0709  -11.5578 N   0  0  0  0  0  0  0  0  0  0  0  0
   28.5131  -20.6054  -12.5990 C   0  0  0  0  0  0  0  0  0  0  0  0
   29.7704  -21.4029  -12.2452 C   0  0  0  0  0  0  0  0  0  0  0  0
   29.8110  -21.1369  -10.7358 C   0  0  0  0  0  0  0  0  0  0  0  0
   28.3730  -21.2595  -10.3595 C   0  0  1  0  0  0  0  0  0  0  0  0
   27.9404  -20.4297   -9.2317 C   0  0  0  0  0  0  0  0  0  0  0  0
   27.4611  -19.2694   -9.5119 O   0  0  0  0  0  0  0  0  0  0  0  0
   25.0192  -21.8543   -5.0230 C   0  0  0  0  0  0  0  0  0  0  0  0
   25.6427  -21.0200   -6.1406 C   0  0  0  0  0  0  0  0  0  0  0  0
   27.0335  -20.6680   -5.6980 C   0  0  2  0  0  0  0  0  0  0  0  0
   27.0389  -19.8511   -4.4304 C   0  0  0  0  0  0  0  0  0  0  0  0
   27.8161  -19.9196   -6.7487 C   0  0  2  0  0  0  0  0  0  0  0  0
   28.0072  -20.7951   -7.8911 N   0  0  0  0  0  0  0  0  0  0  0  0
   29.0820  -19.3488   -6.2731 C   0  0  0  0  0  0  0  0  0  0  0  0
   29.0161  -18.0646   -5.6619 O   0  0  0  0  0  0  0  0  0  0  0  0
   30.2103  -19.8722   -6.3500 O   0  0  0  0  0  0  0  0  0  0  0  0
  2  1  1  6
  2  3  1  0
  4  2  1  0
  4  5  1  1
  6  4  1  0
  6  8  1  0
  7  6  2  0
  8 12  1  0
  9  8  1  0
 10  9  1  0
 10 11  1  0
 12 11  1  0
 13 20  1  0
 12 13  1  1
 14 13  2  0
 16 15  1  0
 17 16  1  0
 17 18  1  1
 19 17  1  0
 19 20  1  6
 21 22  1  0
 21 19  1  0
 23 21  2  0
M  END
$$$$
