VPI.pdb
     RDKit          3D

 23 23  0  0  1  0  0  0  0  0999 V2000
   25.8125  -16.0973  -14.1036 C   0  0  0  0  0  0  0  0  0  0  0  0
   26.8280  -16.7846  -14.9978 C   0  0  2  0  0  0  0  0  0  0  0  0
   26.9980  -15.9228  -16.2433 C   0  0  0  0  0  0  0  0  0  0  0  0
   26.2127  -18.1114  -15.4543 C   0  0  2  0  0  0  0  0  0  0  0  0
   24.9610  -17.7309  -16.0925 N   0  0  0  0  0  0  0  0  0  0  0  0
   25.9742  -19.0281  -14.3106 C   0  0  0  0  0  0  0  0  0  0  0  0
   24.9091  -18.9118  -13.6582 O   0  0  0  0  0  0  0  0  0  0  0  0
   26.8975  -20.0315  -13.9235 N   0  0  0  0  0  0  0  0  0  0  0  0
   28.0839  -20.3472  -14.7260 C   0  0  0  0  0  0  0  0  0  0  0  0
   28.1723  -21.8614  -14.5229 C   0  0  0  0  0  0  0  0  0  0  0  0
   27.9994  -21.9137  -13.0004 C   0  0  0  0  0  0  0  0  0  0  0  0
   26.9247  -20.9046  -12.7744 C   0  0  1  0  0  0  0  0  0  0  0  0
   26.9797  -20.1968  -11.4924 C   0  0  0  0  0  0  0  0  0  0  0  0
   28.1164  -19.7033  -11.1473 O   0  0  0  0  0  0  0  0  0  0  0  0
   28.0798  -18.6827   -7.2635 C   0  0  0  0  0  0  0  0  0  0  0  0
   27.7007  -19.6491   -8.3843 C   0  0  0  0  0  0  0  0  0  0  0  0
   26.2310  -19.9228   -8.2457 C   0  0  2  0  0  0  0  0  0  0  0  0
   25.9013  -20.6261   -6.9531 C   0  0  0  0  0  0  0  0  0  0  0  0
   25.6717  -20.7375   -9.3859 C   0  0  2  0  0  0  0  0  0  0  0  0
   25.9071  -20.0180  -10.6248 N   0  0  0  0  0  0  0  0  0  0  0  0
   24.2630  -21.1183   -9.2281 C   0  0  0  0  0  0  0  0  0  0  0  0
   23.9550  -22.0046   -8.1572 O   0  0  0  0  0  0  0  0  0  0  0  0
   23.3073  -20.7464   -9.9360 O   0  0  0  0  0  0  0  0  0  0  0  0
  2  1  1  1
  2  3  1  0
  4  2  1  0
  4  5  1  1
  6  4  1  0
  6  8  1  0
  7  6  2  0
  8 12  1  0
  9  8  1  0
 10  9  1  0
 10 11  1  0
 12 11  1  0
 13 20  1  0
 12 13  1  1
 14 13  2  0
 16 15  1  0
 17 16  1  0
 17 18  1  1
 19 17  1  0
 19 20  1  6
 21 22  1  0
 21 19  1  0
 23 21  2  0
M  END
$$$$
