VPI.pdb
     RDKit          3D

 23 23  0  0  1  0  0  0  0  0999 V2000
   20.9042  -20.7040  -14.7658 C   0  0  0  0  0  0  0  0  0  0  0  0
   21.3751  -21.9587  -14.0537 C   0  0  2  0  0  0  0  0  0  0  0  0
   20.1503  -22.8316  -13.8071 C   0  0  0  0  0  0  0  0  0  0  0  0
   21.9043  -21.5346  -12.6798 C   0  0  2  0  0  0  0  0  0  0  0  0
   20.7612  -20.9141  -12.0261 N   0  0  0  0  0  0  0  0  0  0  0  0
   23.0366  -20.5812  -12.7982 C   0  0  0  0  0  0  0  0  0  0  0  0
   22.7893  -19.3515  -12.8084 O   0  0  0  0  0  0  0  0  0  0  0  0
   24.3872  -20.9997  -12.8988 N   0  0  0  0  0  0  0  0  0  0  0  0
   24.7778  -22.4060  -12.7545 C   0  0  0  0  0  0  0  0  0  0  0  0
   26.1209  -22.2579  -12.0361 C   0  0  0  0  0  0  0  0  0  0  0  0
   26.7493  -21.1707  -12.9158 C   0  0  0  0  0  0  0  0  0  0  0  0
   25.5970  -20.2522  -13.1461 C   0  0  1  0  0  0  0  0  0  0  0  0
   25.6021  -19.5380  -14.4258 C   0  0  0  0  0  0  0  0  0  0  0  0
   24.9191  -20.0557  -15.3850 O   0  0  0  0  0  0  0  0  0  0  0  0
   25.9439  -13.8086  -16.2903 C   0  0  0  0  0  0  0  0  0  0  0  0
   26.1720  -15.2360  -16.7846 C   0  0  0  0  0  0  0  0  0  0  0  0
   26.1309  -16.1274  -15.5771 C   0  0  2  0  0  0  0  0  0  0  0  0
   27.2063  -15.7835  -14.5775 C   0  0  0  0  0  0  0  0  0  0  0  0
   26.2516  -17.5919  -15.9196 C   0  0  2  0  0  0  0  0  0  0  0  0
   26.2832  -18.3527  -14.6835 N   0  0  0  0  0  0  0  0  0  0  0  0
   27.3802  -17.9203  -16.7987 C   0  0  0  0  0  0  0  0  0  0  0  0
   27.1356  -17.8725  -18.2004 O   0  0  0  0  0  0  0  0  0  0  0  0
   28.5320  -18.2381  -16.4445 O   0  0  0  0  0  0  0  0  0  0  0  0
  2  1  1  6
  2  3  1  0
  4  2  1  0
  4  5  1  1
  6  4  1  0
  6  8  1  0
  7  6  2  0
  8 12  1  0
  9  8  1  0
 10  9  1  0
 10 11  1  0
 12 11  1  0
 13 20  1  0
 12 13  1  6
 14 13  2  0
 16 15  1  0
 17 16  1  0
 17 18  1  1
 19 17  1  0
 19 20  1  1
 21 22  1  0
 21 19  1  0
 23 21  2  0
M  END
$$$$
