VPI.pdb
     RDKit          3D

 23 23  0  0  1  0  0  0  0  0999 V2000
   23.9509  -19.8731  -13.8048 C   0  0  0  0  0  0  0  0  0  0  0  0
   24.6214  -20.0722  -12.4579 C   0  0  2  0  0  0  0  0  0  0  0  0
   25.4790  -18.8416  -12.1877 C   0  0  0  0  0  0  0  0  0  0  0  0
   25.5779  -21.2612  -12.5936 C   0  0  2  0  0  0  0  0  0  0  0  0
   24.7380  -22.3506  -13.0698 N   0  0  0  0  0  0  0  0  0  0  0  0
   26.2154  -21.6035  -11.2968 C   0  0  0  0  0  0  0  0  0  0  0  0
   25.4978  -22.0628  -10.3761 O   0  0  0  0  0  0  0  0  0  0  0  0
   27.6017  -21.4355  -11.0531 N   0  0  0  0  0  0  0  0  0  0  0  0
   28.5360  -21.0473  -12.1150 C   0  0  0  0  0  0  0  0  0  0  0  0
   29.7747  -21.8517  -11.7146 C   0  0  0  0  0  0  0  0  0  0  0  0
   29.8181  -21.5056  -10.2216 C   0  0  0  0  0  0  0  0  0  0  0  0
   28.3771  -21.5762   -9.8438 C   0  0  1  0  0  0  0  0  0  0  0  0
   27.9606  -20.6774   -8.7638 C   0  0  0  0  0  0  0  0  0  0  0  0
   27.3674  -19.5890   -9.1075 O   0  0  0  0  0  0  0  0  0  0  0  0
   27.9962  -22.4649   -3.4975 C   0  0  0  0  0  0  0  0  0  0  0  0
   27.4524  -21.7823   -4.7513 C   0  0  0  0  0  0  0  0  0  0  0  0
   28.3436  -20.6063   -5.0290 C   0  0  2  0  0  0  0  0  0  0  0  0
   28.2816  -19.5724   -3.9329 C   0  0  0  0  0  0  0  0  0  0  0  0
   28.0343  -19.9273   -6.3404 C   0  0  2  0  0  0  0  0  0  0  0  0
   28.1552  -20.9065   -7.4056 N   0  0  0  0  0  0  0  0  0  0  0  0
   28.8306  -18.7231   -6.6050 C   0  0  0  0  0  0  0  0  0  0  0  0
   28.2194  -17.4724   -6.3063 O   0  0  0  0  0  0  0  0  0  0  0  0
   29.9878  -18.6819   -7.0655 O   0  0  0  0  0  0  0  0  0  0  0  0
  2  1  1  6
  2  3  1  0
  4  2  1  0
  4  5  1  1
  6  4  1  0
  6  8  1  0
  7  6  2  0
  8 12  1  0
  9  8  1  0
 10  9  1  0
 10 11  1  0
 12 11  1  0
 13 20  1  0
 12 13  1  1
 14 13  2  0
 16 15  1  0
 17 16  1  0
 17 18  1  1
 19 17  1  0
 19 20  1  6
 21 22  1  0
 21 19  1  0
 23 21  2  0
M  END
$$$$
