VPI.pdb
     RDKit          3D

 23 23  0  0  1  0  0  0  0  0999 V2000
   22.9965  -20.5758  -13.7854 C   0  0  0  0  0  0  0  0  0  0  0  0
   23.7544  -20.7185  -12.4784 C   0  0  2  0  0  0  0  0  0  0  0  0
   24.1983  -19.3241  -12.0525 C   0  0  0  0  0  0  0  0  0  0  0  0
   25.0261  -21.5211  -12.7715 C   0  0  2  0  0  0  0  0  0  0  0  0
   24.5416  -22.8025  -13.2638 N   0  0  0  0  0  0  0  0  0  0  0  0
   25.8584  -21.6948  -11.5539 C   0  0  0  0  0  0  0  0  0  0  0  0
   25.3724  -22.3116  -10.5757 O   0  0  0  0  0  0  0  0  0  0  0  0
   27.1807  -21.1951  -11.4483 N   0  0  0  0  0  0  0  0  0  0  0  0
   27.8352  -20.4886  -12.5546 C   0  0  0  0  0  0  0  0  0  0  0  0
   29.2767  -20.9760  -12.3926 C   0  0  0  0  0  0  0  0  0  0  0  0
   29.4390  -20.7596  -10.8834 C   0  0  0  0  0  0  0  0  0  0  0  0
   28.1260  -21.2331  -10.3582 C   0  0  1  0  0  0  0  0  0  0  0  0
   27.6542  -20.5688   -9.1401 C   0  0  0  0  0  0  0  0  0  0  0  0
   26.6952  -19.7217   -9.2722 O   0  0  0  0  0  0  0  0  0  0  0  0
   28.7104  -20.9707   -3.0649 C   0  0  0  0  0  0  0  0  0  0  0  0
   27.8972  -20.2655   -4.1489 C   0  0  0  0  0  0  0  0  0  0  0  0
   28.3955  -20.7766   -5.4698 C   0  0  2  0  0  0  0  0  0  0  0  0
   29.8919  -20.6468   -5.6038 C   0  0  0  0  0  0  0  0  0  0  0  0
   27.7517  -20.0909   -6.6495 C   0  0  2  0  0  0  0  0  0  0  0  0
   28.1584  -20.7801   -7.8609 N   0  0  0  0  0  0  0  0  0  0  0  0
   28.0029  -18.6468   -6.7255 C   0  0  0  0  0  0  0  0  0  0  0  0
   29.0748  -18.2262   -7.5629 O   0  0  0  0  0  0  0  0  0  0  0  0
   27.3748  -17.7494   -6.1313 O   0  0  0  0  0  0  0  0  0  0  0  0
  2  1  1  6
  2  3  1  0
  4  2  1  0
  4  5  1  1
  6  4  1  0
  6  8  1  0
  7  6  2  0
  8 12  1  0
  9  8  1  0
 10  9  1  0
 10 11  1  0
 12 11  1  0
 13 20  1  0
 12 13  1  1
 14 13  2  0
 16 15  1  0
 17 16  1  0
 17 18  1  1
 19 17  1  0
 19 20  1  6
 21 22  1  0
 21 19  1  0
 23 21  2  0
M  END
$$$$
