VPI.pdb
     RDKit          3D

 23 23  0  0  1  0  0  0  0  0999 V2000
   26.1058  -16.1250  -14.3838 C   0  0  0  0  0  0  0  0  0  0  0  0
   27.0480  -16.6417  -15.4554 C   0  0  2  0  0  0  0  0  0  0  0  0
   27.1476  -15.5684  -16.5329 C   0  0  0  0  0  0  0  0  0  0  0  0
   26.3828  -17.8614  -16.1011 C   0  0  2  0  0  0  0  0  0  0  0  0
   25.1720  -17.3335  -16.7130 N   0  0  0  0  0  0  0  0  0  0  0  0
   26.0634  -18.9081  -15.0972 C   0  0  0  0  0  0  0  0  0  0  0  0
   24.9511  -18.8675  -14.5186 O   0  0  0  0  0  0  0  0  0  0  0  0
   26.9605  -19.9539  -14.7643 N   0  0  0  0  0  0  0  0  0  0  0  0
   28.2035  -20.1783  -15.5097 C   0  0  0  0  0  0  0  0  0  0  0  0
   28.2835  -21.7062  -15.4798 C   0  0  0  0  0  0  0  0  0  0  0  0
   28.0004  -21.9359  -13.9905 C   0  0  0  0  0  0  0  0  0  0  0  0
   26.9077  -20.9559  -13.7266 C   0  0  1  0  0  0  0  0  0  0  0  0
   26.8661  -20.4035  -12.3699 C   0  0  0  0  0  0  0  0  0  0  0  0
   27.8763  -19.7008  -11.9954 O   0  0  0  0  0  0  0  0  0  0  0  0
   27.6797  -19.3556   -7.1715 C   0  0  0  0  0  0  0  0  0  0  0  0
   26.9979  -20.5207   -7.8868 C   0  0  0  0  0  0  0  0  0  0  0  0
   26.7792  -20.0915   -9.3089 C   0  0  2  0  0  0  0  0  0  0  0  0
   26.1301  -18.7334   -9.4012 C   0  0  0  0  0  0  0  0  0  0  0  0
   25.9472  -21.0704  -10.1001 C   0  0  2  0  0  0  0  0  0  0  0  0
   25.8277  -20.5784  -11.4609 N   0  0  0  0  0  0  0  0  0  0  0  0
   24.6399  -21.3765   -9.5072 C   0  0  0  0  0  0  0  0  0  0  0  0
   23.4941  -21.1045  -10.3073 O   0  0  0  0  0  0  0  0  0  0  0  0
   24.4286  -21.8496   -8.3739 O   0  0  0  0  0  0  0  0  0  0  0  0
  2  1  1  1
  2  3  1  0
  4  2  1  0
  4  5  1  1
  6  4  1  0
  6  8  1  0
  7  6  2  0
  8 12  1  0
  9  8  1  0
 10  9  1  0
 10 11  1  0
 12 11  1  0
 13 20  1  0
 12 13  1  1
 14 13  2  0
 16 15  1  0
 17 16  1  0
 17 18  1  1
 19 17  1  0
 19 20  1  6
 21 22  1  0
 21 19  1  0
 23 21  2  0
M  END
$$$$
