AVS.pdb
     RDKit          3D

 19 18  0  0  1  0  0  0  0  0999 V2000
   25.8557  -11.1212  -15.3705 C   0  0  0  0  0  0  0  0  0  0  0  0
   24.5360  -11.8065  -15.6321 C   0  0  2  0  0  0  0  0  0  0  0  0
   24.6312  -12.7831  -16.6961 N   0  0  0  0  0  0  0  0  0  0  0  0
   23.4931  -10.7895  -15.9444 C   0  0  0  0  0  0  0  0  0  0  0  0
   23.4670  -10.2851  -17.0964 O   0  0  0  0  0  0  0  0  0  0  0  0
   19.0505   -9.0191  -15.3093 C   0  0  0  0  0  0  0  0  0  0  0  0
   20.1537  -10.0232  -15.0887 C   0  0  1  0  0  0  0  0  0  0  0  0
   19.9864  -11.1659  -16.0641 C   0  0  0  0  0  0  0  0  0  0  0  0
   21.5135   -9.3719  -15.2405 C   0  0  2  0  0  0  0  0  0  0  0  0
   22.5216  -10.3591  -15.0005 N   0  0  0  0  0  0  0  0  0  0  0  0
   21.6542   -8.1531  -14.4509 C   0  0  0  0  0  0  0  0  0  0  0  0
   22.4773   -8.1526  -13.4983 O   0  0  0  0  0  0  0  0  0  0  0  0
   23.2514   -4.2152  -14.3726 O   0  0  0  0  0  0  0  0  0  0  0  0
   22.7764   -5.4255  -14.9194 C   0  0  0  0  0  0  0  0  0  0  0  0
   21.4031   -5.6426  -14.2903 C   0  0  2  0  0  0  0  0  0  0  0  0
   20.9269   -6.9560  -14.6769 N   0  0  0  0  0  0  0  0  0  0  0  0
   20.4727   -4.5705  -14.6616 C   0  0  0  0  0  0  0  0  0  0  0  0
   19.8657   -4.6225  -15.7571 O   0  0  0  0  0  0  0  0  0  0  0  0
   20.2364   -3.4867  -13.8344 O   0  0  0  0  0  0  0  0  0  0  0  0
  2  3  1  0
  2  1  1  6
  4  2  1  0
  5  4  2  0
  7  6  1  6
  7  8  1  0
  7  9  1  0
  9 10  1  1
 10  4  1  0
 11  9  1  0
 11 16  1  0
 12 11  2  0
 13 14  1  0
 15 14  1  6
 16 15  1  0
 17 15  1  0
 18 17  2  0
 19 17  1  0
M  END
$$$$
