AVS.pdb
     RDKit          3D

 19 18  0  0  1  0  0  0  0  0999 V2000
   18.3346  -12.3521  -17.9168 C   0  0  0  0  0  0  0  0  0  0  0  0
   19.1782  -11.1501  -18.2677 C   0  0  2  0  0  0  0  0  0  0  0  0
   20.2310  -11.4788  -19.2050 N   0  0  0  0  0  0  0  0  0  0  0  0
   19.7473  -10.5538  -17.0267 C   0  0  0  0  0  0  0  0  0  0  0  0
   18.9611  -10.2025  -16.1098 O   0  0  0  0  0  0  0  0  0  0  0  0
   23.9841  -10.5060  -16.4354 C   0  0  0  0  0  0  0  0  0  0  0  0
   22.9832  -10.5285  -15.3078 C   0  0  1  0  0  0  0  0  0  0  0  0
   23.6269   -9.9638  -14.0622 C   0  0  0  0  0  0  0  0  0  0  0  0
   21.7369   -9.7500  -15.6779 C   0  0  2  0  0  0  0  0  0  0  0  0
   21.1412  -10.3615  -16.8266 N   0  0  0  0  0  0  0  0  0  0  0  0
   21.9761   -8.3165  -15.8061 C   0  0  0  0  0  0  0  0  0  0  0  0
   22.6854   -7.9147  -16.7655 O   0  0  0  0  0  0  0  0  0  0  0  0
   19.4587   -5.5547  -14.7262 O   0  0  0  0  0  0  0  0  0  0  0  0
   20.5021   -5.2299  -15.6180 C   0  0  0  0  0  0  0  0  0  0  0  0
   21.7443   -5.9139  -15.0540 C   0  0  2  0  0  0  0  0  0  0  0  0
   21.4652   -7.3304  -14.9231 N   0  0  0  0  0  0  0  0  0  0  0  0
   22.1615   -5.2993  -13.7887 C   0  0  0  0  0  0  0  0  0  0  0  0
   22.1119   -5.9627  -12.7263 O   0  0  0  0  0  0  0  0  0  0  0  0
   22.6150   -3.9936  -13.7232 O   0  0  0  0  0  0  0  0  0  0  0  0
  2  3  1  0
  2  1  1  1
  4  2  1  0
  5  4  2  0
  7  6  1  6
  7  8  1  0
  7  9  1  0
  9 10  1  6
 10  4  1  0
 11  9  1  0
 11 16  1  0
 12 11  2  0
 13 14  1  0
 15 14  1  1
 16 15  1  0
 17 15  1  0
 18 17  2  0
 19 17  1  0
M  END
$$$$
