AVS.pdb
     RDKit          3D

 19 18  0  0  1  0  0  0  0  0999 V2000
   16.5079   -9.5305  -17.0948 C   0  0  0  0  0  0  0  0  0  0  0  0
   17.4620  -10.5212  -16.4721 C   0  0  2  0  0  0  0  0  0  0  0  0
   16.7704  -11.5320  -15.7007 N   0  0  0  0  0  0  0  0  0  0  0  0
   18.4541   -9.8016  -15.6251 C   0  0  0  0  0  0  0  0  0  0  0  0
   18.1419   -9.5138  -14.4412 O   0  0  0  0  0  0  0  0  0  0  0  0
   23.2032   -8.9683  -14.7756 C   0  0  0  0  0  0  0  0  0  0  0  0
   22.0436   -9.6367  -15.4702 C   0  0  1  0  0  0  0  0  0  0  0  0
   21.8810  -11.0379  -14.9269 C   0  0  0  0  0  0  0  0  0  0  0  0
   20.7720   -8.8320  -15.2916 C   0  0  2  0  0  0  0  0  0  0  0  0
   19.7422   -9.4225  -16.0911 N   0  0  0  0  0  0  0  0  0  0  0  0
   20.9661   -7.4021  -15.5071 C   0  0  0  0  0  0  0  0  0  0  0  0
   21.3493   -7.0179  -16.6431 O   0  0  0  0  0  0  0  0  0  0  0  0
   18.7494   -4.5547  -14.8733 O   0  0  0  0  0  0  0  0  0  0  0  0
   19.8955   -4.1786  -14.1423 C   0  0  0  0  0  0  0  0  0  0  0  0
   21.0400   -4.9958  -14.7352 C   0  0  2  0  0  0  0  0  0  0  0  0
   20.7537   -6.4012  -14.5242 N   0  0  0  0  0  0  0  0  0  0  0  0
   22.3317   -4.5896  -14.1703 C   0  0  0  0  0  0  0  0  0  0  0  0
   22.8211   -5.2280  -13.2090 O   0  0  0  0  0  0  0  0  0  0  0  0
   23.0415   -3.5106  -14.6671 O   0  0  0  0  0  0  0  0  0  0  0  0
  2  3  1  0
  2  1  1  1
  4  2  1  0
  5  4  2  0
  7  6  1  1
  7  8  1  0
  7  9  1  0
  9 10  1  6
 10  4  1  0
 11  9  1  0
 11 16  1  0
 12 11  2  0
 13 14  1  0
 15 14  1  1
 16 15  1  0
 17 15  1  0
 18 17  2  0
 19 17  1  0
M  END
$$$$
