AVS.pdb
     RDKit          3D

 19 18  0  0  1  0  0  0  0  0999 V2000
   24.6894  -11.0049  -18.9801 C   0  0  0  0  0  0  0  0  0  0  0  0
   23.4070  -11.5311  -18.3816 C   0  0  2  0  0  0  0  0  0  0  0  0
   22.7109  -12.4232  -19.2841 N   0  0  0  0  0  0  0  0  0  0  0  0
   22.5301  -10.3929  -17.9881 C   0  0  0  0  0  0  0  0  0  0  0  0
   21.9738   -9.7181  -18.8922 O   0  0  0  0  0  0  0  0  0  0  0  0
   19.4264   -8.6320  -14.6987 C   0  0  0  0  0  0  0  0  0  0  0  0
   20.3060   -9.6724  -15.3449 C   0  0  1  0  0  0  0  0  0  0  0  0
   19.4478  -10.6052  -16.1685 C   0  0  0  0  0  0  0  0  0  0  0  0
   21.3750   -9.0198  -16.1979 C   0  0  2  0  0  0  0  0  0  0  0  0
   22.2898  -10.0300  -16.6351 N   0  0  0  0  0  0  0  0  0  0  0  0
   21.9997   -7.8712  -15.5507 C   0  0  0  0  0  0  0  0  0  0  0  0
   22.7152   -8.0762  -14.5352 O   0  0  0  0  0  0  0  0  0  0  0  0
   23.2758   -3.2184  -15.6855 O   0  0  0  0  0  0  0  0  0  0  0  0
   22.5649   -4.2464  -16.3392 C   0  0  0  0  0  0  0  0  0  0  0  0
   22.5304   -5.4075  -15.3494 C   0  0  2  0  0  0  0  0  0  0  0  0
   21.8613   -6.5268  -15.9826 N   0  0  0  0  0  0  0  0  0  0  0  0
   21.8986   -5.0106  -14.0860 C   0  0  0  0  0  0  0  0  0  0  0  0
   20.6489   -4.9965  -13.9905 O   0  0  0  0  0  0  0  0  0  0  0  0
   22.6428   -4.6452  -12.9781 O   0  0  0  0  0  0  0  0  0  0  0  0
  2  3  1  0
  2  1  1  6
  4  2  1  0
  5  4  2  0
  7  6  1  6
  7  8  1  0
  7  9  1  0
  9 10  1  1
 10  4  1  0
 11  9  1  0
 11 16  1  0
 12 11  2  0
 13 14  1  0
 15 14  1  6
 16 15  1  0
 17 15  1  0
 18 17  2  0
 19 17  1  0
M  END
$$$$
