AVS.pdb
     RDKit          3D

 19 18  0  0  1  0  0  0  0  0999 V2000
   25.3091  -11.8098  -16.1091 C   0  0  0  0  0  0  0  0  0  0  0  0
   23.8537  -12.2115  -16.1177 C   0  0  2  0  0  0  0  0  0  0  0  0
   23.5753  -13.2276  -17.1101 N   0  0  0  0  0  0  0  0  0  0  0  0
   23.0007  -11.0108  -16.3417 C   0  0  0  0  0  0  0  0  0  0  0  0
   22.8525  -10.5857  -17.5162 O   0  0  0  0  0  0  0  0  0  0  0  0
   19.2186   -8.3394  -14.8298 C   0  0  0  0  0  0  0  0  0  0  0  0
   20.1105   -9.5538  -14.8903 C   0  0  1  0  0  0  0  0  0  0  0  0
   19.4401  -10.6202  -15.7257 C   0  0  0  0  0  0  0  0  0  0  0  0
   21.4710   -9.1957  -15.4532 C   0  0  2  0  0  0  0  0  0  0  0  0
   22.3429  -10.3188  -15.2890 N   0  0  0  0  0  0  0  0  0  0  0  0
   21.9928   -7.9379  -14.9295 C   0  0  0  0  0  0  0  0  0  0  0  0
   22.4435   -7.9237  -13.7540 O   0  0  0  0  0  0  0  0  0  0  0  0
   23.2233   -3.3097  -15.6872 O   0  0  0  0  0  0  0  0  0  0  0  0
   22.5737   -4.4379  -16.2298 C   0  0  0  0  0  0  0  0  0  0  0  0
   22.6093   -5.4941  -15.1288 C   0  0  2  0  0  0  0  0  0  0  0  0
   22.0314   -6.7168  -15.6509 N   0  0  0  0  0  0  0  0  0  0  0  0
   21.9332   -5.0207  -13.9157 C   0  0  0  0  0  0  0  0  0  0  0  0
   20.6840   -5.0814  -13.8334 O   0  0  0  0  0  0  0  0  0  0  0  0
   22.6344   -4.5014  -12.8417 O   0  0  0  0  0  0  0  0  0  0  0  0
  2  3  1  0
  2  1  1  6
  4  2  1  0
  5  4  2  0
  7  6  1  6
  7  8  1  0
  7  9  1  0
  9 10  1  1
 10  4  1  0
 11  9  1  0
 11 16  1  0
 12 11  2  0
 13 14  1  0
 15 14  1  6
 16 15  1  0
 17 15  1  0
 18 17  2  0
 19 17  1  0
M  END
$$$$
