QQM.pdb
     RDKit          3D

 27 26  0  0  1  0  0  0  0  0999 V2000
   19.3854  -16.3776  -14.6965 N   0  0  0  0  0  0  0  0  0  0  0  0
   18.8600  -15.7455  -15.8635 C   0  0  0  0  0  0  0  0  0  0  0  0
   19.3737  -16.0674  -16.9723 O   0  0  0  0  0  0  0  0  0  0  0  0
   17.7424  -14.7393  -15.7780 C   0  0  0  0  0  0  0  0  0  0  0  0
   18.2642  -13.3949  -16.1624 C   0  0  0  0  0  0  0  0  0  0  0  0
   17.2582  -12.4335  -16.6903 C   0  0  2  0  0  0  0  0  0  0  0  0
   16.8260  -12.9625  -17.9898 N   0  0  0  0  0  0  0  0  0  0  0  0
   17.7380  -11.0404  -16.8232 C   0  0  0  0  0  0  0  0  0  0  0  0
   18.4150  -10.6871  -17.8199 O   0  0  0  0  0  0  0  0  0  0  0  0
   15.0804   -5.9824  -14.5317 N   0  0  0  0  0  0  0  0  0  0  0  0
   14.8760   -6.5130  -15.8264 C   0  0  0  0  0  0  0  0  0  0  0  0
   13.8673   -6.1745  -16.4728 O   0  0  0  0  0  0  0  0  0  0  0  0
   15.8463   -7.4575  -16.4072 C   0  0  0  0  0  0  0  0  0  0  0  0
   16.9766   -7.6543  -15.4558 C   0  0  0  0  0  0  0  0  0  0  0  0
   17.9750   -8.6878  -15.9337 C   0  0  2  0  0  0  0  0  0  0  0  0
   17.4676  -10.0271  -15.8460 N   0  0  0  0  0  0  0  0  0  0  0  0
   19.2369   -8.6005  -15.1702 C   0  0  0  0  0  0  0  0  0  0  0  0
   19.4745   -9.4245  -14.2614 O   0  0  0  0  0  0  0  0  0  0  0  0
   26.1013  -10.5207  -14.7704 C   0  0  0  0  0  0  0  0  0  0  0  0
   24.5113  -10.2215  -15.4651 S   0  0  0  0  0  0  0  0  0  0  0  0
   23.6630   -8.7802  -14.8671 C   0  0  0  0  0  0  0  0  0  0  0  0
   22.2698   -8.6607  -15.3859 C   0  0  0  0  0  0  0  0  0  0  0  0
   21.5021   -7.5110  -14.8274 C   0  0  2  0  0  0  0  0  0  0  0  0
   20.1683   -7.5905  -15.4680 N   0  0  0  0  0  0  0  0  0  0  0  0
   22.1127   -6.2088  -15.1893 C   0  0  0  0  0  0  0  0  0  0  0  0
   22.9587   -5.7154  -14.3621 O   0  0  0  0  0  0  0  0  0  0  0  0
   21.8407   -5.5105  -16.3217 O   0  0  0  0  0  0  0  0  0  0  0  0
  2  1  1  0
  3  2  2  0
  4  2  1  0
  5  4  1  0
  6  5  1  0
  6  8  1  0
  6  7  1  6
  8  9  2  0
 11 12  2  0
 11 10  1  0
 13 11  1  0
 14 13  1  0
 15 14  1  1
 16  8  1  0
 16 15  1  0
 17 15  1  0
 17 18  2  0
 20 19  1  0
 20 21  1  0
 21 22  1  0
 23 22  1  6
 23 24  1  0
 24 17  1  0
 25 27  1  0
 25 23  1  0
 26 25  2  0
M  END
$$$$
