QQM.pdb
     RDKit          3D

 27 26  0  0  1  0  0  0  0  0999 V2000
   29.9751  -17.1530  -15.9196 N   0  0  0  0  0  0  0  0  0  0  0  0
   29.3788  -17.3781  -17.1968 C   0  0  0  0  0  0  0  0  0  0  0  0
   30.1514  -17.3978  -18.1966 O   0  0  0  0  0  0  0  0  0  0  0  0
   27.8942  -17.5835  -17.3470 C   0  0  0  0  0  0  0  0  0  0  0  0
   27.2569  -17.5499  -15.9978 C   0  0  0  0  0  0  0  0  0  0  0  0
   27.3348  -18.8104  -15.2103 C   0  0  2  0  0  0  0  0  0  0  0  0
   27.0965  -19.9043  -16.1601 N   0  0  0  0  0  0  0  0  0  0  0  0
   26.3963  -18.8911  -14.0696 C   0  0  0  0  0  0  0  0  0  0  0  0
   26.2488  -17.9181  -13.2898 O   0  0  0  0  0  0  0  0  0  0  0  0
   20.8261  -21.5610  -12.9187 N   0  0  0  0  0  0  0  0  0  0  0  0
   21.2281  -20.7380  -13.9960 C   0  0  0  0  0  0  0  0  0  0  0  0
   20.3659  -20.2751  -14.7656 O   0  0  0  0  0  0  0  0  0  0  0  0
   22.6532  -20.4297  -14.2077 C   0  0  0  0  0  0  0  0  0  0  0  0
   23.4534  -20.9853  -13.0796 C   0  0  0  0  0  0  0  0  0  0  0  0
   24.6487  -20.1254  -12.7262 C   0  0  2  0  0  0  0  0  0  0  0  0
   25.6126  -20.0576  -13.7869 N   0  0  0  0  0  0  0  0  0  0  0  0
   25.3140  -20.6173  -11.5022 C   0  0  0  0  0  0  0  0  0  0  0  0
   26.4989  -21.0113  -11.5515 O   0  0  0  0  0  0  0  0  0  0  0  0
   29.9767  -20.0101   -7.7937 C   0  0  0  0  0  0  0  0  0  0  0  0
   28.4327  -19.4510   -7.1582 S   0  0  0  0  0  0  0  0  0  0  0  0
   27.0432  -20.5190   -7.4470 C   0  0  0  0  0  0  0  0  0  0  0  0
   26.3688  -20.2657   -8.7529 C   0  0  0  0  0  0  0  0  0  0  0  0
   25.2027  -21.1541   -9.0252 C   0  0  2  0  0  0  0  0  0  0  0  0
   24.6129  -20.6409  -10.2840 N   0  0  0  0  0  0  0  0  0  0  0  0
   24.1746  -21.0613   -7.9605 C   0  0  0  0  0  0  0  0  0  0  0  0
   23.0922  -20.4395   -8.2524 O   0  0  0  0  0  0  0  0  0  0  0  0
   24.2986  -21.5818   -6.7124 O   0  0  0  0  0  0  0  0  0  0  0  0
  2  1  1  0
  3  2  2  0
  4  2  1  0
  5  4  1  0
  6  5  1  0
  6  8  1  0
  6  7  1  6
  8  9  2  0
 11 12  2  0
 11 10  1  0
 13 11  1  0
 14 13  1  0
 15 14  1  6
 16  8  1  0
 16 15  1  0
 17 15  1  0
 17 18  2  0
 20 19  1  0
 20 21  1  0
 21 22  1  0
 23 22  1  1
 23 24  1  0
 24 17  1  0
 25 27  1  0
 25 23  1  0
 26 25  2  0
M  END
$$$$
