QQM.pdb
     RDKit          3D

 27 26  0  0  1  0  0  0  0  0999 V2000
   25.1569  -23.5003  -19.6048 N   0  0  0  0  0  0  0  0  0  0  0  0
   24.6851  -22.2063  -19.9795 C   0  0  0  0  0  0  0  0  0  0  0  0
   24.5103  -21.9929  -21.2127 O   0  0  0  0  0  0  0  0  0  0  0  0
   24.4073  -21.1417  -18.9508 C   0  0  0  0  0  0  0  0  0  0  0  0
   24.7371  -21.6730  -17.5957 C   0  0  0  0  0  0  0  0  0  0  0  0
   25.0342  -20.6541  -16.5524 C   0  0  2  0  0  0  0  0  0  0  0  0
   26.1412  -19.8426  -17.0733 N   0  0  0  0  0  0  0  0  0  0  0  0
   25.3682  -21.2054  -15.2207 C   0  0  0  0  0  0  0  0  0  0  0  0
   24.6167  -22.0451  -14.6669 O   0  0  0  0  0  0  0  0  0  0  0  0
   30.8210  -21.1037  -12.0271 N   0  0  0  0  0  0  0  0  0  0  0  0
   29.8928  -21.3790  -10.9965 C   0  0  0  0  0  0  0  0  0  0  0  0
   30.3068  -21.5818   -9.8401 O   0  0  0  0  0  0  0  0  0  0  0  0
   28.4489  -21.4260  -11.2860 C   0  0  0  0  0  0  0  0  0  0  0  0
   28.2207  -21.1007  -12.7226 C   0  0  0  0  0  0  0  0  0  0  0  0
   26.7580  -21.1494  -13.1119 C   0  0  2  0  0  0  0  0  0  0  0  0
   26.5437  -20.8260  -14.4933 N   0  0  0  0  0  0  0  0  0  0  0  0
   25.9544  -20.2359  -12.2737 C   0  0  0  0  0  0  0  0  0  0  0  0
   25.8065  -19.0432  -12.6156 O   0  0  0  0  0  0  0  0  0  0  0  0
   18.8447  -19.5543  -11.8564 C   0  0  0  0  0  0  0  0  0  0  0  0
   20.4642  -20.0871  -12.2964 S   0  0  0  0  0  0  0  0  0  0  0  0
   21.7191  -19.8545  -11.0611 C   0  0  0  0  0  0  0  0  0  0  0  0
   23.0740  -20.2854  -11.5115 C   0  0  0  0  0  0  0  0  0  0  0  0
   24.1494  -20.0926  -10.4968 C   0  0  2  0  0  0  0  0  0  0  0  0
   25.3571  -20.7105  -11.0929 N   0  0  0  0  0  0  0  0  0  0  0  0
   23.8468  -20.7978   -9.2277 C   0  0  0  0  0  0  0  0  0  0  0  0
   24.3878  -21.9479   -9.0604 O   0  0  0  0  0  0  0  0  0  0  0  0
   23.0455  -20.3165   -8.2427 O   0  0  0  0  0  0  0  0  0  0  0  0
  2  1  1  0
  3  2  2  0
  4  2  1  0
  5  4  1  0
  6  5  1  0
  6  8  1  0
  6  7  1  6
  8  9  2  0
 11 12  2  0
 11 10  1  0
 13 11  1  0
 14 13  1  0
 15 14  1  1
 16  8  1  0
 16 15  1  0
 17 15  1  0
 17 18  2  0
 20 19  1  0
 20 21  1  0
 21 22  1  0
 23 22  1  6
 23 24  1  0
 24 17  1  0
 25 27  1  0
 25 23  1  0
 26 25  2  0
M  END
$$$$
