QQM.pdb
     RDKit          3D

 27 26  0  0  1  0  0  0  0  0999 V2000
   20.7152   -8.5496  -13.1990 N   0  0  0  0  0  0  0  0  0  0  0  0
   21.2272   -9.3741  -14.2457 C   0  0  0  0  0  0  0  0  0  0  0  0
   22.3425   -9.9331  -14.0438 O   0  0  0  0  0  0  0  0  0  0  0  0
   20.4720   -9.5700  -15.5341 C   0  0  0  0  0  0  0  0  0  0  0  0
   19.1304   -8.9265  -15.4173 C   0  0  0  0  0  0  0  0  0  0  0  0
   18.0195   -9.8141  -14.9782 C   0  0  2  0  0  0  0  0  0  0  0  0
   17.5221  -10.4803  -16.1883 N   0  0  0  0  0  0  0  0  0  0  0  0
   16.9190   -9.1285  -14.2658 C   0  0  0  0  0  0  0  0  0  0  0  0
   16.0728   -8.4474  -14.8955 O   0  0  0  0  0  0  0  0  0  0  0  0
   13.5253  -12.7840  -11.2353 N   0  0  0  0  0  0  0  0  0  0  0  0
   13.5811  -11.3713  -11.2582 C   0  0  0  0  0  0  0  0  0  0  0  0
   12.5877  -10.7150  -10.8943 O   0  0  0  0  0  0  0  0  0  0  0  0
   14.8021  -10.6801  -11.7080 C   0  0  0  0  0  0  0  0  0  0  0  0
   14.5516   -9.2116  -11.7546 C   0  0  0  0  0  0  0  0  0  0  0  0
   15.7858   -8.4154  -12.1234 C   0  0  2  0  0  0  0  0  0  0  0  0
   16.7509   -9.1956  -12.8437 N   0  0  0  0  0  0  0  0  0  0  0  0
   16.4287   -7.8447  -10.9218 C   0  0  0  0  0  0  0  0  0  0  0  0
   16.9866   -8.5980  -10.0955 O   0  0  0  0  0  0  0  0  0  0  0  0
   22.6467   -5.2153   -8.7253 C   0  0  0  0  0  0  0  0  0  0  0  0
   21.3613   -5.8753   -9.7314 S   0  0  0  0  0  0  0  0  0  0  0  0
   19.7047   -5.4595   -9.2442 C   0  0  0  0  0  0  0  0  0  0  0  0
   18.6627   -6.1046  -10.0942 C   0  0  0  0  0  0  0  0  0  0  0  0
   17.2614   -5.7841   -9.6985 C   0  0  2  0  0  0  0  0  0  0  0  0
   16.4120   -6.4550  -10.7105 N   0  0  0  0  0  0  0  0  0  0  0  0
   16.9883   -4.3276   -9.7568 C   0  0  0  0  0  0  0  0  0  0  0  0
   16.5645   -3.8615  -10.8733 O   0  0  0  0  0  0  0  0  0  0  0  0
   17.1546   -3.4634   -8.7226 O   0  0  0  0  0  0  0  0  0  0  0  0
  2  1  1  0
  3  2  2  0
  4  2  1  0
  5  4  1  0
  6  5  1  0
  6  8  1  0
  6  7  1  6
  8  9  2  0
 11 12  2  0
 11 10  1  0
 13 11  1  0
 14 13  1  0
 15 14  1  1
 16  8  1  0
 16 15  1  0
 17 15  1  0
 17 18  2  0
 20 19  1  0
 20 21  1  0
 21 22  1  0
 23 22  1  6
 23 24  1  0
 24 17  1  0
 25 27  1  0
 25 23  1  0
 26 25  2  0
M  END
$$$$
