QQM.pdb
     RDKit          3D

 27 26  0  0  1  0  0  0  0  0999 V2000
   18.6357  -14.9930  -14.8771 N   0  0  0  0  0  0  0  0  0  0  0  0
   17.2226  -15.1222  -15.0315 C   0  0  0  0  0  0  0  0  0  0  0  0
   16.6696  -16.1054  -14.4619 O   0  0  0  0  0  0  0  0  0  0  0  0
   16.4250  -14.1305  -15.8373 C   0  0  0  0  0  0  0  0  0  0  0  0
   17.3423  -13.0770  -16.3629 C   0  0  0  0  0  0  0  0  0  0  0  0
   16.7151  -12.0419  -17.2290 C   0  0  2  0  0  0  0  0  0  0  0  0
   16.3783  -12.7110  -18.4917 N   0  0  0  0  0  0  0  0  0  0  0  0
   17.5505  -10.8459  -17.4747 C   0  0  0  0  0  0  0  0  0  0  0  0
   18.2029  -10.7266  -18.5408 O   0  0  0  0  0  0  0  0  0  0  0  0
   16.1765   -5.1283  -16.8023 N   0  0  0  0  0  0  0  0  0  0  0  0
   16.1743   -5.8715  -15.5993 C   0  0  0  0  0  0  0  0  0  0  0  0
   15.5319   -5.4474  -14.6208 O   0  0  0  0  0  0  0  0  0  0  0  0
   16.9242   -7.1360  -15.5024 C   0  0  0  0  0  0  0  0  0  0  0  0
   17.7373   -7.3258  -16.7370 C   0  0  0  0  0  0  0  0  0  0  0  0
   18.5103   -8.6281  -16.7383 C   0  0  2  0  0  0  0  0  0  0  0  0
   17.6667   -9.7706  -16.5338 N   0  0  0  0  0  0  0  0  0  0  0  0
   19.5673   -8.6196  -15.7061 C   0  0  0  0  0  0  0  0  0  0  0  0
   19.3177   -9.0345  -14.5541 O   0  0  0  0  0  0  0  0  0  0  0  0
   27.1185  -10.0306  -14.7921 C   0  0  0  0  0  0  0  0  0  0  0  0
   25.6253   -9.8415  -15.7059 S   0  0  0  0  0  0  0  0  0  0  0  0
   24.3128   -8.9794  -14.8761 C   0  0  0  0  0  0  0  0  0  0  0  0
   23.0510   -8.9260  -15.6696 C   0  0  0  0  0  0  0  0  0  0  0  0
   21.9645   -8.1196  -15.0432 C   0  0  2  0  0  0  0  0  0  0  0  0
   20.8523   -8.1452  -16.0221 N   0  0  0  0  0  0  0  0  0  0  0  0
   22.3694   -6.7076  -14.8391 C   0  0  0  0  0  0  0  0  0  0  0  0
   22.1979   -5.9070  -15.8255 O   0  0  0  0  0  0  0  0  0  0  0  0
   22.9037   -6.2097  -13.6943 O   0  0  0  0  0  0  0  0  0  0  0  0
  2  1  1  0
  3  2  2  0
  4  2  1  0
  5  4  1  0
  6  5  1  0
  6  8  1  0
  6  7  1  6
  8  9  2  0
 11 12  2  0
 11 10  1  0
 13 11  1  0
 14 13  1  0
 15 14  1  1
 16  8  1  0
 16 15  1  0
 17 15  1  0
 17 18  2  0
 20 19  1  0
 20 21  1  0
 21 22  1  0
 23 22  1  6
 23 24  1  0
 24 17  1  0
 25 27  1  0
 25 23  1  0
 26 25  2  0
M  END
$$$$
