QQM.pdb
     RDKit          3D

 27 26  0  0  1  0  0  0  0  0999 V2000
   25.5620  -16.5171  -14.5354 N   0  0  0  0  0  0  0  0  0  0  0  0
   26.1606  -15.6381  -15.4875 C   0  0  0  0  0  0  0  0  0  0  0  0
   27.3367  -15.2437  -15.2460 O   0  0  0  0  0  0  0  0  0  0  0  0
   25.4237  -15.1997  -16.7259 C   0  0  0  0  0  0  0  0  0  0  0  0
   24.0695  -15.8270  -16.7370 C   0  0  0  0  0  0  0  0  0  0  0  0
   23.1637  -15.3991  -17.8377 C   0  0  2  0  0  0  0  0  0  0  0  0
   23.8927  -15.6429  -19.0886 N   0  0  0  0  0  0  0  0  0  0  0  0
   22.7095  -13.9934  -17.7595 C   0  0  0  0  0  0  0  0  0  0  0  0
   23.2996  -13.0914  -18.4035 O   0  0  0  0  0  0  0  0  0  0  0  0
   17.3487  -11.8709  -15.0833 N   0  0  0  0  0  0  0  0  0  0  0  0
   17.9797  -10.6670  -15.4732 C   0  0  0  0  0  0  0  0  0  0  0  0
   17.3957   -9.5834  -15.2870 O   0  0  0  0  0  0  0  0  0  0  0  0
   19.3157  -10.6922  -16.0939 C   0  0  0  0  0  0  0  0  0  0  0  0
   19.7732  -12.1044  -16.2283 C   0  0  0  0  0  0  0  0  0  0  0  0
   21.1273  -12.2234  -16.8957 C   0  0  2  0  0  0  0  0  0  0  0  0
   21.5923  -13.5792  -16.9624 N   0  0  0  0  0  0  0  0  0  0  0  0
   22.1378  -11.4020  -16.1977 C   0  0  0  0  0  0  0  0  0  0  0  0
   22.9016  -11.9301  -15.3615 O   0  0  0  0  0  0  0  0  0  0  0  0
   28.6821   -8.5030  -17.1334 C   0  0  0  0  0  0  0  0  0  0  0  0
   27.1578   -9.3134  -17.4796 S   0  0  0  0  0  0  0  0  0  0  0  0
   25.7697   -8.8079  -16.4935 C   0  0  0  0  0  0  0  0  0  0  0  0
   24.5529   -9.6396  -16.7215 C   0  0  0  0  0  0  0  0  0  0  0  0
   23.3470   -9.1833  -15.9726 C   0  0  2  0  0  0  0  0  0  0  0  0
   22.2383  -10.0277  -16.4758 N   0  0  0  0  0  0  0  0  0  0  0  0
   23.0181   -7.7665  -16.2618 C   0  0  0  0  0  0  0  0  0  0  0  0
   22.2794   -7.5400  -17.2848 O   0  0  0  0  0  0  0  0  0  0  0  0
   23.4405   -6.7048  -15.5280 O   0  0  0  0  0  0  0  0  0  0  0  0
  2  1  1  0
  3  2  2  0
  4  2  1  0
  5  4  1  0
  6  5  1  0
  6  8  1  0
  6  7  1  6
  8  9  2  0
 11 12  2  0
 11 10  1  0
 13 11  1  0
 14 13  1  0
 15 14  1  1
 16  8  1  0
 16 15  1  0
 17 15  1  0
 17 18  2  0
 20 19  1  0
 20 21  1  0
 21 22  1  0
 23 22  1  6
 23 24  1  0
 24 17  1  0
 25 27  1  0
 25 23  1  0
 26 25  2  0
M  END
$$$$
