QQM.pdb
     RDKit          3D

 27 26  0  0  1  0  0  0  0  0999 V2000
   27.3747  -14.4464  -15.4472 N   0  0  0  0  0  0  0  0  0  0  0  0
   27.3079  -14.9952  -16.7631 C   0  0  0  0  0  0  0  0  0  0  0  0
   28.0844  -14.5043  -17.6309 O   0  0  0  0  0  0  0  0  0  0  0  0
   26.3544  -16.1106  -17.1032 C   0  0  0  0  0  0  0  0  0  0  0  0
   25.7840  -16.6680  -15.8417 C   0  0  0  0  0  0  0  0  0  0  0  0
   26.6645  -17.6004  -15.0863 C   0  0  2  0  0  0  0  0  0  0  0  0
   27.3710  -18.4041  -16.0914 N   0  0  0  0  0  0  0  0  0  0  0  0
   25.9638  -18.4698  -14.1159 C   0  0  0  0  0  0  0  0  0  0  0  0
   25.1885  -17.9800  -13.2583 O   0  0  0  0  0  0  0  0  0  0  0  0
   24.6743  -24.5627  -14.8531 N   0  0  0  0  0  0  0  0  0  0  0  0
   24.0654  -24.2854  -13.6074 C   0  0  0  0  0  0  0  0  0  0  0  0
   23.3811  -25.1653  -13.0529 O   0  0  0  0  0  0  0  0  0  0  0  0
   24.2376  -22.9685  -12.9696 C   0  0  0  0  0  0  0  0  0  0  0  0
   25.1260  -22.1210  -13.8147 C   0  0  0  0  0  0  0  0  0  0  0  0
   25.3863  -20.7568  -13.2111 C   0  0  2  0  0  0  0  0  0  0  0  0
   26.1206  -19.8946  -14.0920 N   0  0  0  0  0  0  0  0  0  0  0  0
   26.1164  -20.8722  -11.9318 C   0  0  0  0  0  0  0  0  0  0  0  0
   27.2774  -21.3340  -11.9157 O   0  0  0  0  0  0  0  0  0  0  0  0
   28.4410  -18.9673   -4.9567 C   0  0  0  0  0  0  0  0  0  0  0  0
   27.8833  -18.7260   -6.6092 S   0  0  0  0  0  0  0  0  0  0  0  0
   27.0204  -20.0937   -7.3436 C   0  0  0  0  0  0  0  0  0  0  0  0
   26.6932  -19.8778   -8.7826 C   0  0  0  0  0  0  0  0  0  0  0  0
   25.9053  -20.9795   -9.4060 C   0  0  2  0  0  0  0  0  0  0  0  0
   25.5037  -20.4618  -10.7351 N   0  0  0  0  0  0  0  0  0  0  0  0
   24.6748  -21.2849   -8.6368 C   0  0  0  0  0  0  0  0  0  0  0  0
   23.5593  -20.9421   -9.1674 O   0  0  0  0  0  0  0  0  0  0  0  0
   24.6474  -21.8943   -7.4235 O   0  0  0  0  0  0  0  0  0  0  0  0
  2  1  1  0
  3  2  2  0
  4  2  1  0
  5  4  1  0
  6  5  1  0
  6  8  1  0
  6  7  1  6
  8  9  2  0
 11 12  2  0
 11 10  1  0
 13 11  1  0
 14 13  1  0
 15 14  1  6
 16  8  1  0
 16 15  1  0
 17 15  1  0
 17 18  2  0
 20 19  1  0
 20 21  1  0
 21 22  1  0
 23 22  1  1
 23 24  1  0
 24 17  1  0
 25 27  1  0
 25 23  1  0
 26 25  2  0
M  END
$$$$
