QQM.pdb
     RDKit          3D

 27 26  0  0  1  0  0  0  0  0999 V2000
   18.5743  -20.8909  -14.7393 N   0  0  0  0  0  0  0  0  0  0  0  0
   18.3920  -19.8332  -13.7983 C   0  0  0  0  0  0  0  0  0  0  0  0
   19.3793  -19.5380  -13.0668 O   0  0  0  0  0  0  0  0  0  0  0  0
   17.0811  -19.1005  -13.6821 C   0  0  0  0  0  0  0  0  0  0  0  0
   16.2573  -19.7385  -12.6136 C   0  0  0  0  0  0  0  0  0  0  0  0
   15.4491  -20.9162  -13.0318 C   0  0  2  0  0  0  0  0  0  0  0  0
   14.3558  -20.3920  -13.8596 N   0  0  0  0  0  0  0  0  0  0  0  0
   14.9197  -21.7350  -11.9191 C   0  0  0  0  0  0  0  0  0  0  0  0
   13.9124  -21.3608  -11.2697 O   0  0  0  0  0  0  0  0  0  0  0  0
   16.3705  -27.7576  -10.9331 N   0  0  0  0  0  0  0  0  0  0  0  0
   15.2343  -27.4041  -11.6969 C   0  0  0  0  0  0  0  0  0  0  0  0
   14.7224  -28.2476  -12.4562 O   0  0  0  0  0  0  0  0  0  0  0  0
   14.6596  -26.0512  -11.5967 C   0  0  0  0  0  0  0  0  0  0  0  0
   15.4357  -25.2554  -10.6038 C   0  0  0  0  0  0  0  0  0  0  0  0
   14.9588  -23.8221  -10.4962 C   0  0  2  0  0  0  0  0  0  0  0  0
   15.5082  -22.9795  -11.5195 N   0  0  0  0  0  0  0  0  0  0  0  0
   15.2878  -23.2504   -9.1742 C   0  0  0  0  0  0  0  0  0  0  0  0
   15.7469  -22.0910   -9.0927 O   0  0  0  0  0  0  0  0  0  0  0  0
   12.2977  -20.1343   -3.4454 C   0  0  0  0  0  0  0  0  0  0  0  0
   12.7628  -20.6371   -5.0674 S   0  0  0  0  0  0  0  0  0  0  0  0
   13.8369  -22.0483   -5.1633 C   0  0  0  0  0  0  0  0  0  0  0  0
   14.3219  -22.3249   -6.5463 C   0  0  0  0  0  0  0  0  0  0  0  0
   15.2769  -23.4655   -6.6465 C   0  0  2  0  0  0  0  0  0  0  0  0
   15.0833  -24.0117   -8.0103 N   0  0  0  0  0  0  0  0  0  0  0  0
   14.9648  -24.5370   -5.6699 C   0  0  0  0  0  0  0  0  0  0  0  0
   15.2304  -24.2952   -4.4393 O   0  0  0  0  0  0  0  0  0  0  0  0
   14.4246  -25.7425   -5.9845 O   0  0  0  0  0  0  0  0  0  0  0  0
  2  1  1  0
  3  2  2  0
  4  2  1  0
  5  4  1  0
  6  5  1  0
  6  8  1  0
  6  7  1  1
  8  9  2  0
 11 12  2  0
 11 10  1  0
 13 11  1  0
 14 13  1  0
 15 14  1  1
 16  8  1  0
 16 15  1  0
 17 15  1  0
 17 18  2  0
 20 19  1  0
 20 21  1  0
 21 22  1  0
 23 22  1  1
 23 24  1  0
 24 17  1  0
 25 27  1  0
 25 23  1  0
 26 25  2  0
M  END
$$$$
