QQM.pdb
     RDKit          3D

 27 26  0  0  1  0  0  0  0  0999 V2000
   13.4071   -9.8779   -8.3942 N   0  0  0  0  0  0  0  0  0  0  0  0
   12.2335   -9.6562   -9.1758 C   0  0  0  0  0  0  0  0  0  0  0  0
   11.2031   -9.2543   -8.5645 O   0  0  0  0  0  0  0  0  0  0  0  0
   12.2230   -9.8905  -10.6637 C   0  0  0  0  0  0  0  0  0  0  0  0
   13.5658  -10.3821  -11.0908 C   0  0  0  0  0  0  0  0  0  0  0  0
   13.7332  -10.6328  -12.5483 C   0  0  2  0  0  0  0  0  0  0  0  0
   13.9039  -12.0831  -12.6994 N   0  0  0  0  0  0  0  0  0  0  0  0
   14.8537   -9.9030  -13.1811 C   0  0  0  0  0  0  0  0  0  0  0  0
   15.9746  -10.4496  -13.3272 O   0  0  0  0  0  0  0  0  0  0  0  0
   14.3194   -4.8291  -16.8877 N   0  0  0  0  0  0  0  0  0  0  0  0
   15.6810   -5.1786  -17.0408 C   0  0  0  0  0  0  0  0  0  0  0  0
   16.3745   -4.5785  -17.8828 O   0  0  0  0  0  0  0  0  0  0  0  0
   16.2758   -6.2423  -16.2129 C   0  0  0  0  0  0  0  0  0  0  0  0
   15.2229   -6.8417  -15.3447 C   0  0  0  0  0  0  0  0  0  0  0  0
   15.7693   -7.8825  -14.3900 C   0  0  2  0  0  0  0  0  0  0  0  0
   14.7356   -8.5561  -13.6576 N   0  0  0  0  0  0  0  0  0  0  0  0
   16.7212   -7.2795  -13.4345 C   0  0  0  0  0  0  0  0  0  0  0  0
   16.3388   -6.9659  -12.2869 O   0  0  0  0  0  0  0  0  0  0  0  0
   22.1128   -9.8559  -12.3094 C   0  0  0  0  0  0  0  0  0  0  0  0
   22.2678   -8.4054  -11.3235 S   0  0  0  0  0  0  0  0  0  0  0  0
   21.1367   -7.0885  -11.6988 C   0  0  0  0  0  0  0  0  0  0  0  0
   20.0554   -7.4936  -12.6427 C   0  0  0  0  0  0  0  0  0  0  0  0
   19.0554   -6.4250  -12.9275 C   0  0  2  0  0  0  0  0  0  0  0  0
   18.0557   -7.0599  -13.8180 N   0  0  0  0  0  0  0  0  0  0  0  0
   19.6590   -5.2798  -13.6511 C   0  0  0  0  0  0  0  0  0  0  0  0
   19.7640   -5.3887  -14.9241 O   0  0  0  0  0  0  0  0  0  0  0  0
   20.1037   -4.1378  -13.0662 O   0  0  0  0  0  0  0  0  0  0  0  0
  2  1  1  0
  3  2  2  0
  4  2  1  0
  5  4  1  0
  6  5  1  0
  6  8  1  0
  6  7  1  1
  8  9  2  0
 11 12  2  0
 11 10  1  0
 13 11  1  0
 14 13  1  0
 15 14  1  1
 16  8  1  0
 16 15  1  0
 17 15  1  0
 17 18  2  0
 20 19  1  0
 20 21  1  0
 21 22  1  0
 23 22  1  6
 23 24  1  0
 24 17  1  0
 25 27  1  0
 25 23  1  0
 26 25  2  0
M  END
$$$$
