YWC.pdb
     RDKit          3D

 33 35  0  0  1  0  0  0  0  0999 V2000
   17.0510  -23.1123  -12.7625 O   0  0  0  0  0  0  0  0  0  0  0  0
   18.3804  -22.6916  -12.7463 C   0  0  0  0  0  0  0  0  0  0  0  0
   18.8207  -21.6346  -13.5109 C   0  0  0  0  0  0  0  0  0  0  0  0
   20.1453  -21.2889  -13.4326 C   0  0  0  0  0  0  0  0  0  0  0  0
   21.0581  -21.9526  -12.6216 C   0  0  0  0  0  0  0  0  0  0  0  0
   22.4937  -21.5236  -12.5817 C   0  0  0  0  0  0  0  0  0  0  0  0
   22.6636  -20.6156  -11.3805 C   0  0  2  0  0  0  0  0  0  0  0  0
   21.8588  -19.4665  -11.5400 N   0  0  0  0  0  0  0  0  0  0  0  0
   24.0967  -20.3800  -11.1930 C   0  0  0  0  0  0  0  0  0  0  0  0
   24.6463  -19.5372  -11.9518 O   0  0  0  0  0  0  0  0  0  0  0  0
   20.5849  -23.0061  -11.8693 C   0  0  0  0  0  0  0  0  0  0  0  0
   19.2421  -23.3905  -11.9200 C   0  0  0  0  0  0  0  0  0  0  0  0
   24.9163  -21.0163  -10.2344 N   0  0  0  0  0  0  0  0  0  0  0  0
   26.3277  -20.7201  -10.1179 C   0  0  1  0  0  0  0  0  0  0  0  0
   26.8788  -21.2949   -8.8226 C   0  0  0  0  0  0  0  0  0  0  0  0
   27.0776  -20.1825   -7.8578 C   0  0  0  0  0  0  0  0  0  0  0  0
   26.6468  -18.8921   -8.0059 C   0  0  0  0  0  0  0  0  0  0  0  0
   27.0264  -18.2055   -6.9170 N   0  0  0  0  0  0  0  0  0  0  0  0
   27.6859  -19.0282   -6.0848 C   0  0  0  0  0  0  0  0  0  0  0  0
   28.2737  -18.8270   -4.8518 C   0  0  0  0  0  0  0  0  0  0  0  0
   28.9082  -19.8444   -4.1697 C   0  0  0  0  0  0  0  0  0  0  0  0
   28.9457  -21.1090   -4.7623 C   0  0  0  0  0  0  0  0  0  0  0  0
   28.3621  -21.3229   -5.9939 C   0  0  0  0  0  0  0  0  0  0  0  0
   27.7292  -20.2697   -6.6540 C   0  0  0  0  0  0  0  0  0  0  0  0
   27.0081  -21.3997  -11.2834 C   0  0  0  0  0  0  0  0  0  0  0  0
   27.6175  -22.4856  -11.1246 O   0  0  0  0  0  0  0  0  0  0  0  0
   26.9732  -20.8278  -12.5775 N   0  0  0  0  0  0  0  0  0  0  0  0
   27.7337  -21.2694  -13.7200 C   0  0  1  0  0  0  0  0  0  0  0  0
   26.9866  -22.2941  -14.5193 C   0  0  0  0  0  0  0  0  0  0  0  0
   25.7517  -23.1725  -13.5708 S   0  0  0  0  0  0  0  0  0  0  0  0
   28.2694  -20.1516  -14.5507 C   0  0  0  0  0  0  0  0  0  0  0  0
   29.1015  -20.3718  -15.6232 O   0  0  0  0  0  0  0  0  0  0  0  0
   27.9716  -18.9572  -14.2958 O   0  0  0  0  0  0  0  0  0  0  0  0
  2  1  1  0
  3  2  2  0
  4  3  1  0
  5  4  2  0
  5 11  1  0
  6  5  1  0
  7  6  1  0
  7  8  1  6
  9  7  1  0
  9 10  2  0
 11 12  2  0
 12  2  1  0
 13  9  1  0
 14 13  1  0
 14 15  1  1
 16 15  1  0
 16 17  2  0
 18 17  1  0
 19 18  1  0
 20 19  2  0
 21 20  1  0
 22 21  2  0
 22 23  1  0
 23 24  2  0
 24 19  1  0
 24 16  1  0
 25 14  1  0
 26 25  2  0
 27 25  1  0
 28 27  1  0
 28 29  1  6
 29 30  1  0
 31 28  1  0
 31 32  1  0
 33 31  2  0
M  END
$$$$
