YWC.pdb
     RDKit          3D

 33 35  0  0  1  0  0  0  0  0999 V2000
   23.2430  -12.4010  -20.0759 O   0  0  0  0  0  0  0  0  0  0  0  0
   23.4546  -13.6925  -19.5948 C   0  0  0  0  0  0  0  0  0  0  0  0
   23.3448  -14.8003  -20.4051 C   0  0  0  0  0  0  0  0  0  0  0  0
   23.5704  -16.0327  -19.8479 C   0  0  0  0  0  0  0  0  0  0  0  0
   23.9027  -16.2136  -18.5107 C   0  0  0  0  0  0  0  0  0  0  0  0
   24.1372  -17.5893  -17.9638 C   0  0  0  0  0  0  0  0  0  0  0  0
   25.6350  -17.7773  -17.8330 C   0  0  2  0  0  0  0  0  0  0  0  0
   26.1790  -18.1222  -19.0895 N   0  0  0  0  0  0  0  0  0  0  0  0
   25.8766  -18.7242  -16.7422 C   0  0  0  0  0  0  0  0  0  0  0  0
   25.7988  -19.9517  -17.0169 O   0  0  0  0  0  0  0  0  0  0  0  0
   24.0043  -15.0843  -17.7270 C   0  0  0  0  0  0  0  0  0  0  0  0
   23.7824  -13.8097  -18.2559 C   0  0  0  0  0  0  0  0  0  0  0  0
   26.1894  -18.3800  -15.4084 N   0  0  0  0  0  0  0  0  0  0  0  0
   26.4406  -19.3850  -14.3983 C   0  0  1  0  0  0  0  0  0  0  0  0
   27.1868  -18.7725  -13.2236 C   0  0  0  0  0  0  0  0  0  0  0  0
   27.5198  -19.8528  -12.2592 C   0  0  0  0  0  0  0  0  0  0  0  0
   28.4080  -20.8745  -12.4589 C   0  0  0  0  0  0  0  0  0  0  0  0
   28.4186  -21.6311  -11.3504 N   0  0  0  0  0  0  0  0  0  0  0  0
   27.5604  -21.1143  -10.4557 C   0  0  0  0  0  0  0  0  0  0  0  0
   27.2018  -21.5028   -9.1802 C   0  0  0  0  0  0  0  0  0  0  0  0
   26.2777  -20.8004   -8.4347 C   0  0  0  0  0  0  0  0  0  0  0  0
   25.6992  -19.6646   -9.0065 C   0  0  0  0  0  0  0  0  0  0  0  0
   26.0491  -19.2661  -10.2801 C   0  0  0  0  0  0  0  0  0  0  0  0
   26.9874  -20.0015  -11.0039 C   0  0  0  0  0  0  0  0  0  0  0  0
   25.0889  -19.8648  -13.9228 C   0  0  0  0  0  0  0  0  0  0  0  0
   24.1802  -19.0449  -13.6438 O   0  0  0  0  0  0  0  0  0  0  0  0
   24.8184  -21.2468  -13.7818 N   0  0  0  0  0  0  0  0  0  0  0  0
   23.5521  -21.8291  -13.4128 C   0  0  1  0  0  0  0  0  0  0  0  0
   23.4833  -23.2811  -13.7791 C   0  0  0  0  0  0  0  0  0  0  0  0
   24.7935  -24.2588  -13.0556 S   0  0  0  0  0  0  0  0  0  0  0  0
   23.1589  -21.5600  -11.9988 C   0  0  0  0  0  0  0  0  0  0  0  0
   21.8694  -21.7325  -11.5533 O   0  0  0  0  0  0  0  0  0  0  0  0
   24.0049  -21.1645  -11.1573 O   0  0  0  0  0  0  0  0  0  0  0  0
  2  1  1  0
  3  2  2  0
  4  3  1  0
  5  4  2  0
  5 11  1  0
  6  5  1  0
  7  6  1  0
  7  8  1  6
  9  7  1  0
  9 10  2  0
 11 12  2  0
 12  2  1  0
 13  9  1  0
 14 13  1  0
 14 15  1  1
 16 15  1  0
 16 17  2  0
 18 17  1  0
 19 18  1  0
 20 19  2  0
 21 20  1  0
 22 21  2  0
 22 23  1  0
 23 24  2  0
 24 19  1  0
 24 16  1  0
 25 14  1  0
 26 25  2  0
 27 25  1  0
 28 27  1  0
 28 29  1  1
 29 30  1  0
 31 28  1  0
 31 32  1  0
 33 31  2  0
M  END
$$$$
