YWC.pdb
     RDKit          3D

 33 35  0  0  1  0  0  0  0  0999 V2000
   15.8648  -18.0064  -17.2129 O   0  0  0  0  0  0  0  0  0  0  0  0
   16.4831  -16.7609  -17.1093 C   0  0  0  0  0  0  0  0  0  0  0  0
   16.9983  -16.2986  -15.9191 C   0  0  0  0  0  0  0  0  0  0  0  0
   17.5898  -15.0616  -15.9087 C   0  0  0  0  0  0  0  0  0  0  0  0
   17.6924  -14.2580  -17.0379 C   0  0  0  0  0  0  0  0  0  0  0  0
   18.3522  -12.9145  -16.9588 C   0  0  0  0  0  0  0  0  0  0  0  0
   19.6467  -12.9970  -17.7421 C   0  0  2  0  0  0  0  0  0  0  0  0
   20.5015  -13.9474  -17.1424 N   0  0  0  0  0  0  0  0  0  0  0  0
   20.1807  -11.6397  -17.8740 C   0  0  0  0  0  0  0  0  0  0  0  0
   20.6796  -11.1140  -16.8429 O   0  0  0  0  0  0  0  0  0  0  0  0
   17.1665  -14.7502  -18.2130 C   0  0  0  0  0  0  0  0  0  0  0  0
   16.5555  -16.0061  -18.2665 C   0  0  0  0  0  0  0  0  0  0  0  0
   20.1848  -10.8689  -19.0577 N   0  0  0  0  0  0  0  0  0  0  0  0
   20.6696   -9.5059  -19.0808 C   0  0  1  0  0  0  0  0  0  0  0  0
   21.1687   -9.1505  -20.4723 C   0  0  0  0  0  0  0  0  0  0  0  0
   22.4469   -9.8685  -20.7145 C   0  0  0  0  0  0  0  0  0  0  0  0
   23.3552  -10.2523  -19.7657 C   0  0  0  0  0  0  0  0  0  0  0  0
   24.3675  -10.8706  -20.3936 N   0  0  0  0  0  0  0  0  0  0  0  0
   24.1226  -10.8874  -21.7142 C   0  0  0  0  0  0  0  0  0  0  0  0
   24.8332  -11.3926  -22.7848 C   0  0  0  0  0  0  0  0  0  0  0  0
   24.3732  -11.2904  -24.0813 C   0  0  0  0  0  0  0  0  0  0  0  0
   23.1488  -10.6526  -24.2954 C   0  0  0  0  0  0  0  0  0  0  0  0
   22.4291  -10.1436  -23.2341 C   0  0  0  0  0  0  0  0  0  0  0  0
   22.9262  -10.2658  -21.9366 C   0  0  0  0  0  0  0  0  0  0  0  0
   19.4901   -8.6235  -18.7438 C   0  0  0  0  0  0  0  0  0  0  0  0
   18.3707   -8.8197  -19.2771 O   0  0  0  0  0  0  0  0  0  0  0  0
   19.6213   -7.5584  -17.8211 N   0  0  0  0  0  0  0  0  0  0  0  0
   18.6082   -6.5833  -17.5027 C   0  0  1  0  0  0  0  0  0  0  0  0
   17.9178   -6.9044  -16.2114 C   0  0  0  0  0  0  0  0  0  0  0  0
   16.8089   -5.6154  -15.6594 S   0  0  0  0  0  0  0  0  0  0  0  0
   19.0904   -5.1732  -17.5770 C   0  0  0  0  0  0  0  0  0  0  0  0
   18.2705   -4.1400  -17.9660 O   0  0  0  0  0  0  0  0  0  0  0  0
   20.2760   -4.8795  -17.2798 O   0  0  0  0  0  0  0  0  0  0  0  0
  2  1  1  0
  3  2  2  0
  4  3  1  0
  5  4  2  0
  5 11  1  0
  6  5  1  0
  7  6  1  0
  7  8  1  1
  9  7  1  0
  9 10  2  0
 11 12  2  0
 12  2  1  0
 13  9  1  0
 14 13  1  0
 14 15  1  6
 16 15  1  0
 16 17  2  0
 18 17  1  0
 19 18  1  0
 20 19  2  0
 21 20  1  0
 22 21  2  0
 22 23  1  0
 23 24  2  0
 24 19  1  0
 24 16  1  0
 25 14  1  0
 26 25  2  0
 27 25  1  0
 28 27  1  0
 28 29  1  1
 29 30  1  0
 31 28  1  0
 31 32  1  0
 33 31  2  0
M  END
$$$$
