YWC.pdb
     RDKit          3D

 33 35  0  0  1  0  0  0  0  0999 V2000
   27.8737  -15.5258  -17.9285 O   0  0  0  0  0  0  0  0  0  0  0  0
   27.3578  -16.3659  -16.9424 C   0  0  0  0  0  0  0  0  0  0  0  0
   27.5349  -16.1114  -15.6009 C   0  0  0  0  0  0  0  0  0  0  0  0
   26.9926  -16.9913  -14.6998 C   0  0  0  0  0  0  0  0  0  0  0  0
   26.2767  -18.1212  -15.0764 C   0  0  0  0  0  0  0  0  0  0  0  0
   25.7089  -19.0432  -14.0400 C   0  0  0  0  0  0  0  0  0  0  0  0
   26.8672  -19.7975  -13.4190 C   0  0  2  0  0  0  0  0  0  0  0  0
   27.3349  -20.7738  -14.3255 N   0  0  0  0  0  0  0  0  0  0  0  0
   26.4350  -20.2868  -12.1081 C   0  0  0  0  0  0  0  0  0  0  0  0
   25.7243  -21.3273  -12.0870 O   0  0  0  0  0  0  0  0  0  0  0  0
   26.1177  -18.3469  -16.4268 C   0  0  0  0  0  0  0  0  0  0  0  0
   26.6545  -17.4748  -17.3780 C   0  0  0  0  0  0  0  0  0  0  0  0
   26.7464  -19.6928  -10.8648 N   0  0  0  0  0  0  0  0  0  0  0  0
   26.2942  -20.2589   -9.6125 C   0  0  1  0  0  0  0  0  0  0  0  0
   26.8194  -19.4373   -8.4459 C   0  0  0  0  0  0  0  0  0  0  0  0
   26.6200  -20.2120   -7.1936 C   0  0  0  0  0  0  0  0  0  0  0  0
   25.6406  -21.1384   -6.9588 C   0  0  0  0  0  0  0  0  0  0  0  0
   25.8089  -21.6061   -5.7122 N   0  0  0  0  0  0  0  0  0  0  0  0
   26.8689  -20.9994   -5.1531 C   0  0  0  0  0  0  0  0  0  0  0  0
   27.4578  -21.1167   -3.9098 C   0  0  0  0  0  0  0  0  0  0  0  0
   28.5637  -20.3740   -3.5517 C   0  0  0  0  0  0  0  0  0  0  0  0
   29.0880  -19.4821   -4.4906 C   0  0  0  0  0  0  0  0  0  0  0  0
   28.5087  -19.3557   -5.7362 C   0  0  0  0  0  0  0  0  0  0  0  0
   27.3911  -20.1235   -6.0627 C   0  0  0  0  0  0  0  0  0  0  0  0
   24.7852  -20.1819   -9.6250 C   0  0  0  0  0  0  0  0  0  0  0  0
   24.2014  -19.0762   -9.7365 O   0  0  0  0  0  0  0  0  0  0  0  0
   23.9982  -21.3528   -9.5116 N   0  0  0  0  0  0  0  0  0  0  0  0
   22.5611  -21.4012   -9.4076 C   0  0  1  0  0  0  0  0  0  0  0  0
   21.9329  -21.9246  -10.6640 C   0  0  0  0  0  0  0  0  0  0  0  0
   22.9444  -21.6823  -12.1179 S   0  0  0  0  0  0  0  0  0  0  0  0
   22.0729  -22.0875   -8.1758 C   0  0  0  0  0  0  0  0  0  0  0  0
   20.7421  -22.1093   -7.8301 O   0  0  0  0  0  0  0  0  0  0  0  0
   22.8720  -22.6780   -7.4058 O   0  0  0  0  0  0  0  0  0  0  0  0
  2  1  1  0
  3  2  2  0
  4  3  1  0
  5  4  2  0
  5 11  1  0
  6  5  1  0
  7  6  1  0
  7  8  1  6
  9  7  1  0
  9 10  2  0
 11 12  2  0
 12  2  1  0
 13  9  1  0
 14 13  1  0
 14 15  1  1
 16 15  1  0
 16 17  2  0
 18 17  1  0
 19 18  1  0
 20 19  2  0
 21 20  1  0
 22 21  2  0
 22 23  1  0
 23 24  2  0
 24 19  1  0
 24 16  1  0
 25 14  1  0
 26 25  2  0
 27 25  1  0
 28 27  1  0
 28 29  1  6
 29 30  1  0
 31 28  1  0
 31 32  1  0
 33 31  2  0
M  END
$$$$
