YWC.pdb
     RDKit          3D

 33 35  0  0  1  0  0  0  0  0999 V2000
   23.5592  -15.3117  -21.3282 O   0  0  0  0  0  0  0  0  0  0  0  0
   23.6966  -16.2425  -20.2991 C   0  0  0  0  0  0  0  0  0  0  0  0
   23.1458  -17.5021  -20.3759 C   0  0  0  0  0  0  0  0  0  0  0  0
   23.3309  -18.3533  -19.3169 C   0  0  0  0  0  0  0  0  0  0  0  0
   24.0447  -18.0049  -18.1766 C   0  0  0  0  0  0  0  0  0  0  0  0
   24.2106  -18.9836  -17.0536 C   0  0  0  0  0  0  0  0  0  0  0  0
   25.6369  -19.4930  -17.1015 C   0  0  2  0  0  0  0  0  0  0  0  0
   25.8084  -20.3097  -18.2404 N   0  0  0  0  0  0  0  0  0  0  0  0
   25.9372  -20.1140  -15.8097 C   0  0  0  0  0  0  0  0  0  0  0  0
   25.4814  -21.2713  -15.6069 O   0  0  0  0  0  0  0  0  0  0  0  0
   24.5828  -16.7367  -18.1315 C   0  0  0  0  0  0  0  0  0  0  0  0
   24.4174  -15.8385  -19.1895 C   0  0  0  0  0  0  0  0  0  0  0  0
   26.6938  -19.5272  -14.7710 N   0  0  0  0  0  0  0  0  0  0  0  0
   26.9191  -20.2047  -13.5126 C   0  0  1  0  0  0  0  0  0  0  0  0
   28.0079  -19.4957  -12.7231 C   0  0  0  0  0  0  0  0  0  0  0  0
   28.3235  -20.3065  -11.5185 C   0  0  0  0  0  0  0  0  0  0  0  0
   29.0487  -21.4665  -11.4874 C   0  0  0  0  0  0  0  0  0  0  0  0
   29.1042  -21.8813  -10.2122 N   0  0  0  0  0  0  0  0  0  0  0  0
   28.4329  -21.0138   -9.4368 C   0  0  0  0  0  0  0  0  0  0  0  0
   28.1905  -20.9770   -8.0781 C   0  0  0  0  0  0  0  0  0  0  0  0
   27.4587  -19.9644   -7.4933 C   0  0  0  0  0  0  0  0  0  0  0  0
   26.9568  -18.9554   -8.3190 C   0  0  0  0  0  0  0  0  0  0  0  0
   27.1921  -18.9809   -9.6781 C   0  0  0  0  0  0  0  0  0  0  0  0
   27.9367  -20.0210  -10.2339 C   0  0  0  0  0  0  0  0  0  0  0  0
   25.6225  -20.1222  -12.7410 C   0  0  0  0  0  0  0  0  0  0  0  0
   24.9520  -19.0610  -12.7274 O   0  0  0  0  0  0  0  0  0  0  0  0
   25.1366  -21.2376  -12.0180 N   0  0  0  0  0  0  0  0  0  0  0  0
   23.9871  -21.2480  -11.1478 C   0  0  1  0  0  0  0  0  0  0  0  0
   22.8759  -22.0831  -11.7091 C   0  0  0  0  0  0  0  0  0  0  0  0
   21.4768  -22.2369  -10.6070 S   0  0  0  0  0  0  0  0  0  0  0  0
   24.3129  -21.5790   -9.7298 C   0  0  0  0  0  0  0  0  0  0  0  0
   23.6879  -20.9602   -8.6727 O   0  0  0  0  0  0  0  0  0  0  0  0
   25.1783  -22.4474   -9.4517 O   0  0  0  0  0  0  0  0  0  0  0  0
  2  1  1  0
  3  2  2  0
  4  3  1  0
  5  4  2  0
  5 11  1  0
  6  5  1  0
  7  6  1  0
  7  8  1  6
  9  7  1  0
  9 10  2  0
 11 12  2  0
 12  2  1  0
 13  9  1  0
 14 13  1  0
 14 15  1  1
 16 15  1  0
 16 17  2  0
 18 17  1  0
 19 18  1  0
 20 19  2  0
 21 20  1  0
 22 21  2  0
 22 23  1  0
 23 24  2  0
 24 19  1  0
 24 16  1  0
 25 14  1  0
 26 25  2  0
 27 25  1  0
 28 27  1  0
 28 29  1  6
 29 30  1  0
 31 28  1  0
 31 32  1  0
 33 31  2  0
M  END
$$$$
