YWC.pdb
     RDKit          3D

 33 35  0  0  1  0  0  0  0  0999 V2000
   24.2479  -17.3554  -17.0558 O   0  0  0  0  0  0  0  0  0  0  0  0
   24.2102  -18.3125  -16.0424 C   0  0  0  0  0  0  0  0  0  0  0  0
   24.7906  -19.5526  -16.1877 C   0  0  0  0  0  0  0  0  0  0  0  0
   24.7056  -20.4320  -15.1391 C   0  0  0  0  0  0  0  0  0  0  0  0
   24.0643  -20.1306  -13.9436 C   0  0  0  0  0  0  0  0  0  0  0  0
   24.0075  -21.1379  -12.8351 C   0  0  0  0  0  0  0  0  0  0  0  0
   25.2226  -20.9168  -11.9572 C   0  0  2  0  0  0  0  0  0  0  0  0
   26.3415  -21.5608  -12.5290 N   0  0  0  0  0  0  0  0  0  0  0  0
   24.8723  -21.3192  -10.5934 C   0  0  0  0  0  0  0  0  0  0  0  0
   24.9070  -22.5509  -10.3291 O   0  0  0  0  0  0  0  0  0  0  0  0
   23.4938  -18.8810  -13.8307 C   0  0  0  0  0  0  0  0  0  0  0  0
   23.5580  -17.9552  -14.8758 C   0  0  0  0  0  0  0  0  0  0  0  0
   24.4987  -20.4453   -9.5483 N   0  0  0  0  0  0  0  0  0  0  0  0
   24.2753  -20.9183   -8.1993 C   0  0  1  0  0  0  0  0  0  0  0  0
   24.6762  -19.8488   -7.1957 C   0  0  0  0  0  0  0  0  0  0  0  0
   26.1571  -19.7262   -7.2007 C   0  0  0  0  0  0  0  0  0  0  0  0
   26.9394  -19.3745   -8.2670 C   0  0  0  0  0  0  0  0  0  0  0  0
   28.2174  -19.3799   -7.8574 N   0  0  0  0  0  0  0  0  0  0  0  0
   28.2632  -19.7260   -6.5603 C   0  0  0  0  0  0  0  0  0  0  0  0
   29.3122  -19.8783   -5.6756 C   0  0  0  0  0  0  0  0  0  0  0  0
   29.1127  -20.2490   -4.3619 C   0  0  0  0  0  0  0  0  0  0  0  0
   27.8015  -20.4720   -3.9343 C   0  0  0  0  0  0  0  0  0  0  0  0
   26.7448  -20.3231   -4.8085 C   0  0  0  0  0  0  0  0  0  0  0  0
   26.9852  -19.9469   -6.1298 C   0  0  0  0  0  0  0  0  0  0  0  0
   22.7917  -21.1758   -8.0735 C   0  0  0  0  0  0  0  0  0  0  0  0
   21.9589  -20.2959   -8.4024 O   0  0  0  0  0  0  0  0  0  0  0  0
   22.3093  -22.4126   -7.5828 N   0  0  0  0  0  0  0  0  0  0  0  0
   20.9276  -22.7497   -7.3464 C   0  0  1  0  0  0  0  0  0  0  0  0
   20.7579  -24.2081   -7.0442 C   0  0  0  0  0  0  0  0  0  0  0  0
   21.1986  -25.2725   -8.4112 S   0  0  0  0  0  0  0  0  0  0  0  0
   20.2563  -21.8612   -6.3532 C   0  0  0  0  0  0  0  0  0  0  0  0
   20.9436  -21.2711   -5.3186 O   0  0  0  0  0  0  0  0  0  0  0  0
   19.0256  -21.6178   -6.4325 O   0  0  0  0  0  0  0  0  0  0  0  0
  2  1  1  0
  3  2  2  0
  4  3  1  0
  5  4  2  0
  5 11  1  0
  6  5  1  0
  7  6  1  0
  7  8  1  6
  9  7  1  0
  9 10  2  0
 11 12  2  0
 12  2  1  0
 13  9  1  0
 14 13  1  0
 14 15  1  1
 16 15  1  0
 16 17  2  0
 18 17  1  0
 19 18  1  0
 20 19  2  0
 21 20  1  0
 22 21  2  0
 22 23  1  0
 23 24  2  0
 24 19  1  0
 24 16  1  0
 25 14  1  0
 26 25  2  0
 27 25  1  0
 28 27  1  0
 28 29  1  1
 29 30  1  0
 31 28  1  0
 31 32  1  0
 33 31  2  0
M  END
$$$$
