YWC.pdb
     RDKit          3D

 33 35  0  0  1  0  0  0  0  0999 V2000
   28.8981  -14.6326  -18.0095 O   0  0  0  0  0  0  0  0  0  0  0  0
   28.2036  -15.6904  -17.4237 C   0  0  0  0  0  0  0  0  0  0  0  0
   27.9685  -16.8696  -18.0945 C   0  0  0  0  0  0  0  0  0  0  0  0
   27.2771  -17.8572  -17.4412 C   0  0  0  0  0  0  0  0  0  0  0  0
   26.8058  -17.7231  -16.1407 C   0  0  0  0  0  0  0  0  0  0  0  0
   26.0566  -18.8425  -15.4832 C   0  0  0  0  0  0  0  0  0  0  0  0
   27.0512  -19.6303  -14.6548 C   0  0  2  0  0  0  0  0  0  0  0  0
   27.9361  -20.3213  -15.5110 N   0  0  0  0  0  0  0  0  0  0  0  0
   26.2966  -20.4517  -13.7059 C   0  0  0  0  0  0  0  0  0  0  0  0
   25.8906  -21.5739  -14.1109 O   0  0  0  0  0  0  0  0  0  0  0  0
   27.0579  -16.5304  -15.4976 C   0  0  0  0  0  0  0  0  0  0  0  0
   27.7590  -15.4985  -16.1277 C   0  0  0  0  0  0  0  0  0  0  0  0
   25.9845  -20.0944  -12.3753 N   0  0  0  0  0  0  0  0  0  0  0  0
   25.0899  -20.8875  -11.5605 C   0  0  1  0  0  0  0  0  0  0  0  0
   25.2551  -20.5231  -10.0936 C   0  0  0  0  0  0  0  0  0  0  0  0
   26.6529  -20.8201   -9.6865 C   0  0  0  0  0  0  0  0  0  0  0  0
   27.5867  -21.4975  -10.4225 C   0  0  0  0  0  0  0  0  0  0  0  0
   28.7173  -21.5510   -9.7013 N   0  0  0  0  0  0  0  0  0  0  0  0
   28.5223  -20.9252   -8.5289 C   0  0  0  0  0  0  0  0  0  0  0  0
   29.3496  -20.7006   -7.4465 C   0  0  0  0  0  0  0  0  0  0  0  0
   28.9202  -20.0180   -6.3273 C   0  0  0  0  0  0  0  0  0  0  0  0
   27.6046  -19.5480   -6.3092 C   0  0  0  0  0  0  0  0  0  0  0  0
   26.7681  -19.7659   -7.3844 C   0  0  0  0  0  0  0  0  0  0  0  0
   27.2376  -20.4605   -8.4991 C   0  0  0  0  0  0  0  0  0  0  0  0
   23.6861  -20.5376  -11.9965 C   0  0  0  0  0  0  0  0  0  0  0  0
   23.4662  -19.5097  -12.6826 O   0  0  0  0  0  0  0  0  0  0  0  0
   22.5902  -21.3599  -11.6415 N   0  0  0  0  0  0  0  0  0  0  0  0
   21.3130  -21.4046  -12.3089 C   0  0  1  0  0  0  0  0  0  0  0  0
   21.4382  -21.9275  -13.7082 C   0  0  0  0  0  0  0  0  0  0  0  0
   20.3863  -23.3350  -14.0371 S   0  0  0  0  0  0  0  0  0  0  0  0
   20.2483  -22.0887  -11.5185 C   0  0  0  0  0  0  0  0  0  0  0  0
   18.9218  -21.7422  -11.6258 O   0  0  0  0  0  0  0  0  0  0  0  0
   20.5323  -23.0178  -10.7207 O   0  0  0  0  0  0  0  0  0  0  0  0
  2  1  1  0
  3  2  2  0
  4  3  1  0
  5  4  2  0
  5 11  1  0
  6  5  1  0
  7  6  1  0
  7  8  1  6
  9  7  1  0
  9 10  2  0
 11 12  2  0
 12  2  1  0
 13  9  1  0
 14 13  1  0
 14 15  1  1
 16 15  1  0
 16 17  2  0
 18 17  1  0
 19 18  1  0
 20 19  2  0
 21 20  1  0
 22 21  2  0
 22 23  1  0
 23 24  2  0
 24 19  1  0
 24 16  1  0
 25 14  1  0
 26 25  2  0
 27 25  1  0
 28 27  1  0
 28 29  1  6
 29 30  1  0
 31 28  1  0
 31 32  1  0
 33 31  2  0
M  END
$$$$
