YWC.pdb
     RDKit          3D

 33 35  0  0  1  0  0  0  0  0999 V2000
   22.1601  -14.1494  -21.8607 O   0  0  0  0  0  0  0  0  0  0  0  0
   22.1047  -15.2614  -21.0212 C   0  0  0  0  0  0  0  0  0  0  0  0
   21.6601  -16.4876  -21.4625 C   0  0  0  0  0  0  0  0  0  0  0  0
   21.6394  -17.5269  -20.5683 C   0  0  0  0  0  0  0  0  0  0  0  0
   22.0443  -17.3999  -19.2449 C   0  0  0  0  0  0  0  0  0  0  0  0
   21.9973  -18.5769  -18.3181 C   0  0  0  0  0  0  0  0  0  0  0  0
   23.3533  -19.2511  -18.3703 C   0  0  2  0  0  0  0  0  0  0  0  0
   23.4709  -19.9824  -19.5725 N   0  0  0  0  0  0  0  0  0  0  0  0
   23.5260  -20.0123  -17.1312 C   0  0  0  0  0  0  0  0  0  0  0  0
   23.0229  -21.1670  -17.0895 O   0  0  0  0  0  0  0  0  0  0  0  0
   22.4836  -16.1593  -18.8353 C   0  0  0  0  0  0  0  0  0  0  0  0
   22.5205  -15.0739  -19.7151 C   0  0  0  0  0  0  0  0  0  0  0  0
   24.2081  -19.5636  -15.9785 N   0  0  0  0  0  0  0  0  0  0  0  0
   24.3112  -20.3766  -14.7862 C   0  0  1  0  0  0  0  0  0  0  0  0
   25.4375  -19.8678  -13.9005 C   0  0  0  0  0  0  0  0  0  0  0  0
   25.5629  -20.7719  -12.7279 C   0  0  0  0  0  0  0  0  0  0  0  0
   25.8180  -22.1159  -12.7621 C   0  0  0  0  0  0  0  0  0  0  0  0
   25.8532  -22.5589  -11.4957 N   0  0  0  0  0  0  0  0  0  0  0  0
   25.6269  -21.5301  -10.6623 C   0  0  0  0  0  0  0  0  0  0  0  0
   25.5585  -21.4469   -9.2858 C   0  0  0  0  0  0  0  0  0  0  0  0
   25.3086  -20.2555   -8.6369 C   0  0  0  0  0  0  0  0  0  0  0  0
   25.1221  -19.1103   -9.4150 C   0  0  0  0  0  0  0  0  0  0  0  0
   25.1881  -19.1803  -10.7913 C   0  0  0  0  0  0  0  0  0  0  0  0
   25.4429  -20.4028  -11.4124 C   0  0  0  0  0  0  0  0  0  0  0  0
   23.0017  -20.2257  -14.0475 C   0  0  0  0  0  0  0  0  0  0  0  0
   22.4709  -19.0965  -13.9093 O   0  0  0  0  0  0  0  0  0  0  0  0
   22.3460  -21.3523  -13.4962 N   0  0  0  0  0  0  0  0  0  0  0  0
   21.1810  -21.3235  -12.6472 C   0  0  1  0  0  0  0  0  0  0  0  0
   20.7180  -22.7053  -12.2963 C   0  0  0  0  0  0  0  0  0  0  0  0
   20.4162  -23.7373  -13.7246 S   0  0  0  0  0  0  0  0  0  0  0  0
   21.3283  -20.4330  -11.4590 C   0  0  0  0  0  0  0  0  0  0  0  0
   21.0270  -19.0922  -11.5088 O   0  0  0  0  0  0  0  0  0  0  0  0
   21.7349  -20.8857  -10.3591 O   0  0  0  0  0  0  0  0  0  0  0  0
  2  1  1  0
  3  2  2  0
  4  3  1  0
  5  4  2  0
  5 11  1  0
  6  5  1  0
  7  6  1  0
  7  8  1  6
  9  7  1  0
  9 10  2  0
 11 12  2  0
 12  2  1  0
 13  9  1  0
 14 13  1  0
 14 15  1  1
 16 15  1  0
 16 17  2  0
 18 17  1  0
 19 18  1  0
 20 19  2  0
 21 20  1  0
 22 21  2  0
 22 23  1  0
 23 24  2  0
 24 19  1  0
 24 16  1  0
 25 14  1  0
 26 25  2  0
 27 25  1  0
 28 27  1  0
 28 29  1  1
 29 30  1  0
 31 28  1  0
 31 32  1  0
 33 31  2  0
M  END
$$$$
