YWC.pdb
     RDKit          3D

 33 35  0  0  1  0  0  0  0  0999 V2000
   29.3788  -16.2331  -18.7770 O   0  0  0  0  0  0  0  0  0  0  0  0
   28.6669  -16.9555  -17.8200 C   0  0  0  0  0  0  0  0  0  0  0  0
   27.7915  -17.9602  -18.1664 C   0  0  0  0  0  0  0  0  0  0  0  0
   27.1336  -18.6188  -17.1595 C   0  0  0  0  0  0  0  0  0  0  0  0
   27.3091  -18.3203  -15.8136 C   0  0  0  0  0  0  0  0  0  0  0  0
   26.5589  -19.0795  -14.7613 C   0  0  0  0  0  0  0  0  0  0  0  0
   27.5131  -20.0952  -14.1663 C   0  0  2  0  0  0  0  0  0  0  0  0
   27.7821  -21.1037  -15.1172 N   0  0  0  0  0  0  0  0  0  0  0  0
   26.9546  -20.5436  -12.8889 C   0  0  0  0  0  0  0  0  0  0  0  0
   26.0748  -21.4450  -12.9294 O   0  0  0  0  0  0  0  0  0  0  0  0
   28.1923  -17.3093  -15.5011 C   0  0  0  0  0  0  0  0  0  0  0  0
   28.8830  -16.6133  -16.4971 C   0  0  0  0  0  0  0  0  0  0  0  0
   27.3174  -20.0526  -11.6150 N   0  0  0  0  0  0  0  0  0  0  0  0
   26.6479  -20.4884  -10.4087 C   0  0  1  0  0  0  0  0  0  0  0  0
   27.2784  -19.8296   -9.1921 C   0  0  0  0  0  0  0  0  0  0  0  0
   26.5615  -20.2954   -7.9767 C   0  0  0  0  0  0  0  0  0  0  0  0
   25.3847  -20.9930   -7.9452 C   0  0  0  0  0  0  0  0  0  0  0  0
   25.0768  -21.2198   -6.6587 N   0  0  0  0  0  0  0  0  0  0  0  0
   26.0281  -20.6837   -5.8766 C   0  0  0  0  0  0  0  0  0  0  0  0
   26.1870  -20.6370   -4.5059 C   0  0  0  0  0  0  0  0  0  0  0  0
   27.2689  -20.0170   -3.9159 C   0  0  0  0  0  0  0  0  0  0  0  0
   28.2212  -19.4247   -4.7491 C   0  0  0  0  0  0  0  0  0  0  0  0
   28.0739  -19.4645   -6.1202 C   0  0  0  0  0  0  0  0  0  0  0  0
   26.9665  -20.1006   -6.6808 C   0  0  0  0  0  0  0  0  0  0  0  0
   25.2123  -20.0313  -10.5238 C   0  0  0  0  0  0  0  0  0  0  0  0
   24.9125  -18.8205  -10.3824 O   0  0  0  0  0  0  0  0  0  0  0  0
   24.1759  -20.9568  -10.7930 N   0  0  0  0  0  0  0  0  0  0  0  0
   22.8384  -20.6304  -11.2212 C   0  0  1  0  0  0  0  0  0  0  0  0
   22.5176  -21.2456  -12.5500 C   0  0  0  0  0  0  0  0  0  0  0  0
   22.1119  -22.9837  -12.4485 S   0  0  0  0  0  0  0  0  0  0  0  0
   21.7974  -20.8927  -10.1849 C   0  0  0  0  0  0  0  0  0  0  0  0
   22.0767  -21.5770   -9.0252 O   0  0  0  0  0  0  0  0  0  0  0  0
   20.6169  -20.4892  -10.3387 O   0  0  0  0  0  0  0  0  0  0  0  0
  2  1  1  0
  3  2  2  0
  4  3  1  0
  5  4  2  0
  5 11  1  0
  6  5  1  0
  7  6  1  0
  7  8  1  6
  9  7  1  0
  9 10  2  0
 11 12  2  0
 12  2  1  0
 13  9  1  0
 14 13  1  0
 14 15  1  1
 16 15  1  0
 16 17  2  0
 18 17  1  0
 19 18  1  0
 20 19  2  0
 21 20  1  0
 22 21  2  0
 22 23  1  0
 23 24  2  0
 24 19  1  0
 24 16  1  0
 25 14  1  0
 26 25  2  0
 27 25  1  0
 28 27  1  0
 28 29  1  6
 29 30  1  0
 31 28  1  0
 31 32  1  0
 33 31  2  0
M  END
$$$$
