YWC.pdb
     RDKit          3D

 33 35  0  0  1  0  0  0  0  0999 V2000
   29.5950  -17.0373  -18.9286 O   0  0  0  0  0  0  0  0  0  0  0  0
   28.8336  -17.6323  -17.9232 C   0  0  0  0  0  0  0  0  0  0  0  0
   29.1338  -17.4723  -16.5890 C   0  0  0  0  0  0  0  0  0  0  0  0
   28.3305  -18.0936  -15.6676 C   0  0  0  0  0  0  0  0  0  0  0  0
   27.2339  -18.8726  -16.0168 C   0  0  0  0  0  0  0  0  0  0  0  0
   26.3955  -19.5246  -14.9592 C   0  0  0  0  0  0  0  0  0  0  0  0
   27.1979  -20.6765  -14.3889 C   0  0  2  0  0  0  0  0  0  0  0  0
   27.1814  -21.7581  -15.2964 N   0  0  0  0  0  0  0  0  0  0  0  0
   26.6929  -20.9545  -13.0427 C   0  0  0  0  0  0  0  0  0  0  0  0
   25.6569  -21.6664  -12.9515 O   0  0  0  0  0  0  0  0  0  0  0  0
   26.9611  -19.0125  -17.3606 C   0  0  0  0  0  0  0  0  0  0  0  0
   27.7548  -18.3959  -18.3318 C   0  0  0  0  0  0  0  0  0  0  0  0
   27.2670  -20.4933  -11.8372 N   0  0  0  0  0  0  0  0  0  0  0  0
   26.6198  -20.6890  -10.5581 C   0  0  1  0  0  0  0  0  0  0  0  0
   27.3643  -19.9287   -9.4721 C   0  0  0  0  0  0  0  0  0  0  0  0
   26.7787  -20.2900   -8.1551 C   0  0  0  0  0  0  0  0  0  0  0  0
   25.5761  -20.9074   -7.9427 C   0  0  0  0  0  0  0  0  0  0  0  0
   25.4185  -21.0536   -6.6180 N   0  0  0  0  0  0  0  0  0  0  0  0
   26.4899  -20.5446   -5.9877 C   0  0  0  0  0  0  0  0  0  0  0  0
   26.8212  -20.4447   -4.6511 C   0  0  0  0  0  0  0  0  0  0  0  0
   28.0028  -19.8695   -4.2317 C   0  0  0  0  0  0  0  0  0  0  0  0
   28.8767  -19.3796   -5.2055 C   0  0  0  0  0  0  0  0  0  0  0  0
   28.5572  -19.4735   -6.5443 C   0  0  0  0  0  0  0  0  0  0  0  0
   27.3531  -20.0618   -6.9306 C   0  0  0  0  0  0  0  0  0  0  0  0
   25.2270  -20.1178  -10.6884 C   0  0  0  0  0  0  0  0  0  0  0  0
   25.0477  -18.9697  -11.1634 O   0  0  0  0  0  0  0  0  0  0  0  0
   24.0960  -20.8633  -10.2783 N   0  0  0  0  0  0  0  0  0  0  0  0
   22.7284  -20.6042  -10.6541 C   0  0  1  0  0  0  0  0  0  0  0  0
   22.4339  -21.0919  -12.0407 C   0  0  0  0  0  0  0  0  0  0  0  0
   20.7028  -20.9922  -12.4757 S   0  0  0  0  0  0  0  0  0  0  0  0
   21.7323  -21.0667   -9.6440 C   0  0  0  0  0  0  0  0  0  0  0  0
   20.6040  -20.3400   -9.3444 O   0  0  0  0  0  0  0  0  0  0  0  0
   21.8926  -22.1509   -9.0282 O   0  0  0  0  0  0  0  0  0  0  0  0
  2  1  1  0
  3  2  2  0
  4  3  1  0
  5  4  2  0
  5 11  1  0
  6  5  1  0
  7  6  1  0
  7  8  1  6
  9  7  1  0
  9 10  2  0
 11 12  2  0
 12  2  1  0
 13  9  1  0
 14 13  1  0
 14 15  1  1
 16 15  1  0
 16 17  2  0
 18 17  1  0
 19 18  1  0
 20 19  2  0
 21 20  1  0
 22 21  2  0
 22 23  1  0
 23 24  2  0
 24 19  1  0
 24 16  1  0
 25 14  1  0
 26 25  2  0
 27 25  1  0
 28 27  1  0
 28 29  1  6
 29 30  1  0
 31 28  1  0
 31 32  1  0
 33 31  2  0
M  END
$$$$
