HIL.pdb
     RDKit          3D

 27 27  0  0  1  0  0  0  0  0999 V2000
    7.9486  -20.2036   20.8455 N   0  0  0  0  0  0  0  0  0  0  0  0
    7.4567  -19.2593   21.8255 C   0  0  1  0  0  0  0  0  0  0  0  0
    7.5167  -19.9350   23.1798 C   0  0  0  0  0  0  0  0  0  0  0  0
    6.3561  -20.8615   23.2541 C   0  0  0  0  0  0  0  0  0  0  0  0
    5.4413  -21.1037   22.2424 C   0  0  0  0  0  0  0  0  0  0  0  0
    4.5250  -22.0004   22.6636 N   0  0  0  0  0  0  0  0  0  0  0  0
    4.8503  -22.3256   23.9253 C   0  0  0  0  0  0  0  0  0  0  0  0
    5.9502  -21.6397   24.2763 N   0  0  0  0  0  0  0  0  0  0  0  0
    8.2677  -18.0087   21.8051 C   0  0  0  0  0  0  0  0  0  0  0  0
    9.5100  -18.1141   21.8064 O   0  0  0  0  0  0  0  0  0  0  0  0
    7.8490  -12.0118   20.3310 C   0  0  0  0  0  0  0  0  0  0  0  0
    8.5929  -13.1392   20.9953 C   0  0  0  0  0  0  0  0  0  0  0  0
    7.7264  -14.4039   21.0636 C   0  0  2  0  0  0  0  0  0  0  0  0
    6.4757  -14.0854   21.8577 C   0  0  0  0  0  0  0  0  0  0  0  0
    8.4810  -15.4838   21.8036 C   0  0  2  0  0  0  0  0  0  0  0  0
    7.6863  -16.7235   21.7845 N   0  0  0  0  0  0  0  0  0  0  0  0
    8.8106  -15.1188   23.1759 C   0  0  0  0  0  0  0  0  0  0  0  0
    9.7396  -14.2271   23.3016 O   0  0  0  0  0  0  0  0  0  0  0  0
    5.4153  -12.9321   25.9596 C   0  0  0  0  0  0  0  0  0  0  0  0
    6.8108  -13.2485   25.5501 C   0  0  1  0  0  0  0  0  0  0  0  0
    7.6635  -12.0288   25.8607 C   0  0  0  0  0  0  0  0  0  0  0  0
    7.3720  -14.4108   26.2652 C   0  0  0  0  0  0  0  0  0  0  0  0
    8.6142  -15.0206   25.6922 C   0  0  2  0  0  0  0  0  0  0  0  0
    8.2751  -15.5790   24.3771 N   0  0  0  0  0  0  0  0  0  0  0  0
    9.2646  -16.0561   26.4899 C   0  0  0  0  0  0  0  0  0  0  0  0
    9.3329  -17.2434   26.0828 O   0  0  0  0  0  0  0  0  0  0  0  0
    9.8265  -15.7743   27.7196 O   0  0  0  0  0  0  0  0  0  0  0  0
  2  1  1  6
  3  2  1  0
  4  3  1  0
  4  8  1  0
  5  6  1  0
  5  4  2  0
  6  7  1  0
  7  8  2  0
  9  2  1  0
 10  9  2  0
 12 11  1  0
 13 12  1  0
 13 14  1  1
 15 13  1  0
 15 16  1  1
 16  9  1  0
 17 15  1  0
 18 17  2  0
 20 19  1  1
 21 20  1  0
 22 20  1  0
 23 22  1  1
 23 24  1  0
 24 17  1  0
 25 27  1  0
 25 23  1  0
 26 25  2  0
M  END
$$$$
