HIL.pdb
     RDKit          3D

 27 27  0  0  1  0  0  0  0  0999 V2000
    8.8138  -15.3707   19.7440 N   0  0  0  0  0  0  0  0  0  0  0  0
    8.3740  -16.1270   20.8967 C   0  0  1  0  0  0  0  0  0  0  0  0
    8.9903  -17.5072   20.7987 C   0  0  0  0  0  0  0  0  0  0  0  0
    8.3283  -18.1980   19.6606 C   0  0  0  0  0  0  0  0  0  0  0  0
    6.9914  -18.0961   19.3124 C   0  0  0  0  0  0  0  0  0  0  0  0
    6.7447  -18.8605   18.2280 N   0  0  0  0  0  0  0  0  0  0  0  0
    7.9070  -19.4416   17.8893 C   0  0  0  0  0  0  0  0  0  0  0  0
    8.8554  -19.0414   18.7518 N   0  0  0  0  0  0  0  0  0  0  0  0
    8.7723  -15.4417   22.1592 C   0  0  0  0  0  0  0  0  0  0  0  0
    9.9660  -15.1085   22.2954 O   0  0  0  0  0  0  0  0  0  0  0  0
    5.5051  -11.9569   24.8429 C   0  0  0  0  0  0  0  0  0  0  0  0
    6.7378  -12.6318   24.3038 C   0  0  0  0  0  0  0  0  0  0  0  0
    7.0725  -13.8919   25.1131 C   0  0  2  0  0  0  0  0  0  0  0  0
    7.4652  -13.4708   26.5148 C   0  0  0  0  0  0  0  0  0  0  0  0
    8.2620  -14.5826   24.4878 C   0  0  2  0  0  0  0  0  0  0  0  0
    7.8569  -15.1596   23.1948 N   0  0  0  0  0  0  0  0  0  0  0  0
    8.8419  -15.6142   25.3392 C   0  0  0  0  0  0  0  0  0  0  0  0
    8.6707  -16.8291   24.9282 O   0  0  0  0  0  0  0  0  0  0  0  0
   11.7367  -15.0502   30.2705 C   0  0  0  0  0  0  0  0  0  0  0  0
   10.8913  -15.0358   29.0457 C   0  0  1  0  0  0  0  0  0  0  0  0
   10.7513  -13.5870   28.6067 C   0  0  0  0  0  0  0  0  0  0  0  0
   11.4740  -15.8113   27.9338 C   0  0  0  0  0  0  0  0  0  0  0  0
   10.5127  -16.4992   27.0139 C   0  0  2  0  0  0  0  0  0  0  0  0
    9.5587  -15.4943   26.5279 N   0  0  0  0  0  0  0  0  0  0  0  0
    9.7682  -17.6266   27.5673 C   0  0  0  0  0  0  0  0  0  0  0  0
   10.3516  -18.6869   27.9070 O   0  0  0  0  0  0  0  0  0  0  0  0
    8.3986  -17.5745   27.7367 O   0  0  0  0  0  0  0  0  0  0  0  0
  2  1  1  6
  3  2  1  0
  4  3  1  0
  4  8  1  0
  5  6  1  0
  5  4  2  0
  6  7  1  0
  7  8  2  0
  9  2  1  0
 10  9  2  0
 12 11  1  0
 13 12  1  0
 13 14  1  1
 15 13  1  0
 15 16  1  6
 16  9  1  0
 17 15  1  0
 18 17  2  0
 20 19  1  1
 21 20  1  0
 22 20  1  0
 23 22  1  1
 23 24  1  0
 24 17  1  0
 25 27  1  0
 25 23  1  0
 26 25  2  0
M  END
$$$$
