HIL.pdb
     RDKit          3D

 27 27  0  0  1  0  0  0  0  0999 V2000
   12.8652  -17.0210   20.1343 N   0  0  0  0  0  0  0  0  0  0  0  0
   11.6829  -17.5431   20.7854 C   0  0  1  0  0  0  0  0  0  0  0  0
   12.0920  -18.7903   21.5413 C   0  0  0  0  0  0  0  0  0  0  0  0
   12.1604  -19.8959   20.5495 C   0  0  0  0  0  0  0  0  0  0  0  0
   11.8939  -19.7916   19.1940 C   0  0  0  0  0  0  0  0  0  0  0  0
   12.0564  -20.9949   18.6052 N   0  0  0  0  0  0  0  0  0  0  0  0
   12.4211  -21.8542   19.5705 C   0  0  0  0  0  0  0  0  0  0  0  0
   12.4825  -21.1906   20.7365 N   0  0  0  0  0  0  0  0  0  0  0  0
   11.0907  -16.5237   21.6977 C   0  0  0  0  0  0  0  0  0  0  0  0
   11.8665  -15.7912   22.3427 O   0  0  0  0  0  0  0  0  0  0  0  0
    6.9229  -13.5137   20.2487 C   0  0  0  0  0  0  0  0  0  0  0  0
    8.1727  -14.0071   20.9272 C   0  0  0  0  0  0  0  0  0  0  0  0
    7.8307  -14.8383   22.1710 C   0  0  2  0  0  0  0  0  0  0  0  0
    7.1800  -13.9272   23.1921 C   0  0  0  0  0  0  0  0  0  0  0  0
    9.1071  -15.3742   22.7768 C   0  0  2  0  0  0  0  0  0  0  0  0
    9.6985  -16.3596   21.8559 N   0  0  0  0  0  0  0  0  0  0  0  0
    8.9139  -15.9692   24.0936 C   0  0  0  0  0  0  0  0  0  0  0  0
    8.5664  -17.2155   24.0901 O   0  0  0  0  0  0  0  0  0  0  0  0
    9.8567  -13.0274   26.8260 C   0  0  0  0  0  0  0  0  0  0  0  0
   10.3058  -14.2700   27.5111 C   0  0  1  0  0  0  0  0  0  0  0  0
   10.8899  -13.8629   28.8544 C   0  0  0  0  0  0  0  0  0  0  0  0
    9.2085  -15.2282   27.7449 C   0  0  0  0  0  0  0  0  0  0  0  0
    8.8597  -16.1447   26.6127 C   0  0  2  0  0  0  0  0  0  0  0  0
    9.0509  -15.4036   25.3596 N   0  0  0  0  0  0  0  0  0  0  0  0
    7.5161  -16.7162   26.6215 C   0  0  0  0  0  0  0  0  0  0  0  0
    6.5805  -16.1872   25.9698 O   0  0  0  0  0  0  0  0  0  0  0  0
    7.2201  -17.8546   27.3450 O   0  0  0  0  0  0  0  0  0  0  0  0
  2  1  1  1
  3  2  1  0
  4  3  1  0
  4  8  1  0
  5  6  1  0
  5  4  2  0
  6  7  1  0
  7  8  2  0
  9  2  1  0
 10  9  2  0
 12 11  1  0
 13 12  1  0
 13 14  1  1
 15 13  1  0
 15 16  1  6
 16  9  1  0
 17 15  1  0
 18 17  2  0
 20 19  1  1
 21 20  1  0
 22 20  1  0
 23 22  1  1
 23 24  1  0
 24 17  1  0
 25 27  1  0
 25 23  1  0
 26 25  2  0
M  END
$$$$
