HIL.pdb
     RDKit          3D

 27 27  0  0  1  0  0  0  0  0999 V2000
    7.9883  -17.0456   20.8843 N   0  0  0  0  0  0  0  0  0  0  0  0
    9.1528  -16.1883   20.8297 C   0  0  1  0  0  0  0  0  0  0  0  0
    8.9596  -15.2299   19.6727 C   0  0  0  0  0  0  0  0  0  0  0  0
    8.9925  -16.0414   18.4273 C   0  0  0  0  0  0  0  0  0  0  0  0
    9.1644  -17.4140   18.3538 C   0  0  0  0  0  0  0  0  0  0  0  0
    9.1410  -17.8064   17.0629 N   0  0  0  0  0  0  0  0  0  0  0  0
    8.9570  -16.7006   16.3235 C   0  0  0  0  0  0  0  0  0  0  0  0
    8.8683  -15.6429   17.1463 N   0  0  0  0  0  0  0  0  0  0  0  0
    9.3298  -15.4581   22.1172 C   0  0  0  0  0  0  0  0  0  0  0  0
   10.1973  -14.5641   22.1711 O   0  0  0  0  0  0  0  0  0  0  0  0
    5.7400  -12.9224   24.9985 C   0  0  0  0  0  0  0  0  0  0  0  0
    7.0699  -13.3889   24.4697 C   0  0  0  0  0  0  0  0  0  0  0  0
    7.5280  -14.6666   25.1855 C   0  0  2  0  0  0  0  0  0  0  0  0
    7.7862  -14.3340   26.6412 C   0  0  0  0  0  0  0  0  0  0  0  0
    8.8309  -15.1352   24.5804 C   0  0  2  0  0  0  0  0  0  0  0  0
    8.5593  -15.7390   23.2650 N   0  0  0  0  0  0  0  0  0  0  0  0
    9.5529  -16.0773   25.4268 C   0  0  0  0  0  0  0  0  0  0  0  0
    9.8398  -17.2101   24.8713 O   0  0  0  0  0  0  0  0  0  0  0  0
   10.8885  -14.6720   30.5229 C   0  0  0  0  0  0  0  0  0  0  0  0
   10.6900  -15.0237   29.0905 C   0  0  1  0  0  0  0  0  0  0  0  0
   11.3719  -13.9485   28.2596 C   0  0  0  0  0  0  0  0  0  0  0  0
   11.2679  -16.3334   28.7328 C   0  0  0  0  0  0  0  0  0  0  0  0
   10.8305  -16.9316   27.4312 C   0  0  2  0  0  0  0  0  0  0  0  0
    9.9879  -15.9448   26.7439 N   0  0  0  0  0  0  0  0  0  0  0  0
   10.1094  -18.1992   27.5014 C   0  0  0  0  0  0  0  0  0  0  0  0
    8.8719  -18.2557   27.2883 O   0  0  0  0  0  0  0  0  0  0  0  0
   10.7548  -19.3816   27.8057 O   0  0  0  0  0  0  0  0  0  0  0  0
  2  1  1  1
  3  2  1  0
  4  3  1  0
  4  8  1  0
  5  6  1  0
  5  4  2  0
  6  7  1  0
  7  8  2  0
  9  2  1  0
 10  9  2  0
 12 11  1  0
 13 12  1  0
 13 14  1  1
 15 13  1  0
 15 16  1  6
 16  9  1  0
 17 15  1  0
 18 17  2  0
 20 19  1  1
 21 20  1  0
 22 20  1  0
 23 22  1  1
 23 24  1  0
 24 17  1  0
 25 27  1  0
 25 23  1  0
 26 25  2  0
M  END
$$$$
