HIL.pdb
     RDKit          3D

 27 27  0  0  1  0  0  0  0  0999 V2000
    8.2605  -17.1859   20.5811 N   0  0  0  0  0  0  0  0  0  0  0  0
    7.7409  -17.1527   21.9314 C   0  0  1  0  0  0  0  0  0  0  0  0
    7.9106  -18.5383   22.5193 C   0  0  0  0  0  0  0  0  0  0  0  0
    7.0504  -19.4548   21.7252 C   0  0  0  0  0  0  0  0  0  0  0  0
    6.3097  -19.1111   20.6060 C   0  0  0  0  0  0  0  0  0  0  0  0
    5.6517  -20.1958   20.1461 N   0  0  0  0  0  0  0  0  0  0  0  0
    5.9677  -21.2164   20.9596 C   0  0  0  0  0  0  0  0  0  0  0  0
    6.8077  -20.7675   21.9065 N   0  0  0  0  0  0  0  0  0  0  0  0
    8.4528  -16.1258   22.7443 C   0  0  0  0  0  0  0  0  0  0  0  0
    9.6481  -15.8910   22.4783 O   0  0  0  0  0  0  0  0  0  0  0  0
    5.3977  -12.4139   25.4846 C   0  0  0  0  0  0  0  0  0  0  0  0
    6.4631  -13.0535   24.6350 C   0  0  0  0  0  0  0  0  0  0  0  0
    7.5336  -13.7222   25.5078 C   0  0  2  0  0  0  0  0  0  0  0  0
    8.2702  -12.6421   26.2740 C   0  0  0  0  0  0  0  0  0  0  0  0
    8.5345  -14.4217   24.6178 C   0  0  2  0  0  0  0  0  0  0  0  0
    7.8295  -15.4173   23.7929 N   0  0  0  0  0  0  0  0  0  0  0  0
    9.6173  -15.0579   25.3580 C   0  0  0  0  0  0  0  0  0  0  0  0
   10.6278  -14.2942   25.6224 O   0  0  0  0  0  0  0  0  0  0  0  0
    9.4867  -14.0637   29.4476 C   0  0  0  0  0  0  0  0  0  0  0  0
   10.1757  -14.6353   28.2586 C   0  0  1  0  0  0  0  0  0  0  0  0
   11.6427  -14.2477   28.3531 C   0  0  0  0  0  0  0  0  0  0  0  0
   10.0800  -16.1060   28.1883 C   0  0  0  0  0  0  0  0  0  0  0  0
   10.6024  -16.7579   26.9452 C   0  0  2  0  0  0  0  0  0  0  0  0
    9.7311  -16.3635   25.8310 N   0  0  0  0  0  0  0  0  0  0  0  0
   10.7122  -18.2137   26.9646 C   0  0  0  0  0  0  0  0  0  0  0  0
    9.8221  -18.9396   26.4538 O   0  0  0  0  0  0  0  0  0  0  0  0
   11.7927  -18.8490   27.5444 O   0  0  0  0  0  0  0  0  0  0  0  0
  2  1  1  6
  3  2  1  0
  4  3  1  0
  4  8  1  0
  5  6  1  0
  5  4  2  0
  6  7  1  0
  7  8  2  0
  9  2  1  0
 10  9  2  0
 12 11  1  0
 13 12  1  0
 13 14  1  6
 15 13  1  0
 15 16  1  1
 16  9  1  0
 17 15  1  0
 18 17  2  0
 20 19  1  1
 21 20  1  0
 22 20  1  0
 23 22  1  1
 23 24  1  0
 24 17  1  0
 25 27  1  0
 25 23  1  0
 26 25  2  0
M  END
$$$$
