HIL.pdb
     RDKit          3D

 27 27  0  0  1  0  0  0  0  0999 V2000
    8.3016  -19.3458   19.7597 N   0  0  0  0  0  0  0  0  0  0  0  0
    7.6169  -18.5888   20.7855 C   0  0  1  0  0  0  0  0  0  0  0  0
    7.4095  -19.5099   21.9700 C   0  0  0  0  0  0  0  0  0  0  0  0
    6.3788  -20.5043   21.5709 C   0  0  0  0  0  0  0  0  0  0  0  0
    5.7763  -20.5984   20.3270 C   0  0  0  0  0  0  0  0  0  0  0  0
    4.8913  -21.6171   20.3267 N   0  0  0  0  0  0  0  0  0  0  0  0
    4.9284  -22.1650   21.5522 C   0  0  0  0  0  0  0  0  0  0  0  0
    5.8227  -21.4941   22.2963 N   0  0  0  0  0  0  0  0  0  0  0  0
    8.4067  -17.3830   21.1657 C   0  0  0  0  0  0  0  0  0  0  0  0
    9.6459  -17.4939   21.2463 O   0  0  0  0  0  0  0  0  0  0  0  0
    7.0037  -12.5070   19.3539 C   0  0  0  0  0  0  0  0  0  0  0  0
    7.8412  -13.6544   19.8516 C   0  0  0  0  0  0  0  0  0  0  0  0
    7.8469  -13.7054   21.3853 C   0  0  2  0  0  0  0  0  0  0  0  0
    8.6092  -12.5019   21.9018 C   0  0  0  0  0  0  0  0  0  0  0  0
    8.5803  -14.9463   21.8385 C   0  0  2  0  0  0  0  0  0  0  0  0
    7.8088  -16.1340   21.4349 N   0  0  0  0  0  0  0  0  0  0  0  0
    8.8321  -14.9742   23.2742 C   0  0  0  0  0  0  0  0  0  0  0  0
    9.9222  -14.3900   23.6544 O   0  0  0  0  0  0  0  0  0  0  0  0
    5.4176  -12.9092   26.3036 C   0  0  0  0  0  0  0  0  0  0  0  0
    6.7797  -13.3317   25.8777 C   0  0  1  0  0  0  0  0  0  0  0  0
    7.7692  -12.3415   26.4708 C   0  0  0  0  0  0  0  0  0  0  0  0
    7.1340  -14.6871   26.3408 C   0  0  0  0  0  0  0  0  0  0  0  0
    8.3503  -15.3127   25.7303 C   0  0  2  0  0  0  0  0  0  0  0  0
    8.0761  -15.5298   24.3043 N   0  0  0  0  0  0  0  0  0  0  0  0
    8.8073  -16.5684   26.3186 C   0  0  0  0  0  0  0  0  0  0  0  0
    9.0634  -16.6560   27.5461 O   0  0  0  0  0  0  0  0  0  0  0  0
    8.9781  -17.7049   25.5528 O   0  0  0  0  0  0  0  0  0  0  0  0
  2  1  1  6
  3  2  1  0
  4  3  1  0
  4  8  1  0
  5  6  1  0
  5  4  2  0
  6  7  1  0
  7  8  2  0
  9  2  1  0
 10  9  2  0
 12 11  1  0
 13 12  1  0
 13 14  1  1
 15 13  1  0
 15 16  1  1
 16  9  1  0
 17 15  1  0
 18 17  2  0
 20 19  1  1
 21 20  1  0
 22 20  1  0
 23 22  1  1
 23 24  1  0
 24 17  1  0
 25 27  1  0
 25 23  1  0
 26 25  2  0
M  END
$$$$
