HIL.pdb
     RDKit          3D

 27 27  0  0  1  0  0  0  0  0999 V2000
    9.6627  -18.5115   19.6436 N   0  0  0  0  0  0  0  0  0  0  0  0
    9.7998  -18.4002   21.0799 C   0  0  1  0  0  0  0  0  0  0  0  0
   11.0013  -19.2271   21.4886 C   0  0  0  0  0  0  0  0  0  0  0  0
   10.7445  -20.6193   21.0340 C   0  0  0  0  0  0  0  0  0  0  0  0
    9.7652  -21.4683   21.5232 C   0  0  0  0  0  0  0  0  0  0  0  0
    9.8257  -22.6516   20.8773 N   0  0  0  0  0  0  0  0  0  0  0  0
   10.8286  -22.5590   19.9891 C   0  0  0  0  0  0  0  0  0  0  0  0
   11.3779  -21.3374   20.0862 N   0  0  0  0  0  0  0  0  0  0  0  0
    9.9577  -16.9742   21.4848 C   0  0  0  0  0  0  0  0  0  0  0  0
   11.1024  -16.4805   21.4624 O   0  0  0  0  0  0  0  0  0  0  0  0
    6.7864  -12.9970   19.7365 C   0  0  0  0  0  0  0  0  0  0  0  0
    7.9414  -13.7998   20.2723 C   0  0  0  0  0  0  0  0  0  0  0  0
    7.8273  -13.9794   21.7920 C   0  0  2  0  0  0  0  0  0  0  0  0
    7.8682  -12.6105   22.4406 C   0  0  0  0  0  0  0  0  0  0  0  0
    9.0192  -14.7628   22.2907 C   0  0  2  0  0  0  0  0  0  0  0  0
    8.8700  -16.1715   21.8881 N   0  0  0  0  0  0  0  0  0  0  0  0
    9.2070  -14.6693   23.7333 C   0  0  0  0  0  0  0  0  0  0  0  0
    9.3607  -13.4696   24.1929 O   0  0  0  0  0  0  0  0  0  0  0  0
    6.1816  -12.7266   26.2131 C   0  0  0  0  0  0  0  0  0  0  0  0
    7.5386  -13.3190   26.0623 C   0  0  1  0  0  0  0  0  0  0  0  0
    8.3981  -12.7811   27.1951 C   0  0  0  0  0  0  0  0  0  0  0  0
    7.5352  -14.7929   26.1318 C   0  0  0  0  0  0  0  0  0  0  0  0
    8.8693  -15.4731   26.1039 C   0  0  2  0  0  0  0  0  0  0  0  0
    9.2417  -15.6743   24.6978 N   0  0  0  0  0  0  0  0  0  0  0  0
    8.9692  -16.7500   26.8048 C   0  0  0  0  0  0  0  0  0  0  0  0
    8.5897  -17.8196   26.2644 O   0  0  0  0  0  0  0  0  0  0  0  0
    9.4804  -16.8333   28.0850 O   0  0  0  0  0  0  0  0  0  0  0  0
  2  1  1  6
  3  2  1  0
  4  3  1  0
  4  8  1  0
  5  6  1  0
  5  4  2  0
  6  7  1  0
  7  8  2  0
  9  2  1  0
 10  9  2  0
 12 11  1  0
 13 12  1  0
 13 14  1  1
 15 13  1  0
 15 16  1  1
 16  9  1  0
 17 15  1  0
 18 17  2  0
 20 19  1  1
 21 20  1  0
 22 20  1  0
 23 22  1  6
 23 24  1  0
 24 17  1  0
 25 27  1  0
 25 23  1  0
 26 25  2  0
M  END
$$$$
