HIL.pdb
     RDKit          3D

 27 27  0  0  1  0  0  0  0  0999 V2000
   11.9156  -18.0286   18.8524 N   0  0  0  0  0  0  0  0  0  0  0  0
   10.8446  -18.2151   19.8075 C   0  0  1  0  0  0  0  0  0  0  0  0
   11.1672  -19.4533   20.6182 C   0  0  0  0  0  0  0  0  0  0  0  0
   10.6358  -20.6177   19.8615 C   0  0  0  0  0  0  0  0  0  0  0  0
    9.9771  -20.5658   18.6439 C   0  0  0  0  0  0  0  0  0  0  0  0
    9.6387  -21.8136   18.2569 N   0  0  0  0  0  0  0  0  0  0  0  0
   10.0751  -22.6492   19.2133 C   0  0  0  0  0  0  0  0  0  0  0  0
   10.6732  -21.9274   20.1750 N   0  0  0  0  0  0  0  0  0  0  0  0
   10.7028  -17.0151   20.6805 C   0  0  0  0  0  0  0  0  0  0  0  0
   11.7354  -16.3889   20.9906 O   0  0  0  0  0  0  0  0  0  0  0  0
    6.6819  -13.4539   20.0143 C   0  0  0  0  0  0  0  0  0  0  0  0
    8.0296  -14.0104   20.3882 C   0  0  0  0  0  0  0  0  0  0  0  0
    7.9692  -14.7338   21.7402 C   0  0  2  0  0  0  0  0  0  0  0  0
    7.7153  -13.7047   22.8232 C   0  0  0  0  0  0  0  0  0  0  0  0
    9.3073  -15.3778   22.0194 C   0  0  2  0  0  0  0  0  0  0  0  0
    9.4554  -16.5670   21.1634 N   0  0  0  0  0  0  0  0  0  0  0  0
    9.4911  -15.7400   23.4195 C   0  0  0  0  0  0  0  0  0  0  0  0
    8.9031  -16.8318   23.7885 O   0  0  0  0  0  0  0  0  0  0  0  0
   10.3391  -13.1884   28.8948 C   0  0  0  0  0  0  0  0  0  0  0  0
   10.2596  -14.4680   28.1389 C   0  0  1  0  0  0  0  0  0  0  0  0
    8.9574  -15.1477   28.5311 C   0  0  0  0  0  0  0  0  0  0  0  0
   10.2690  -14.2751   26.6761 C   0  0  0  0  0  0  0  0  0  0  0  0
   10.2035  -15.5105   25.8318 C   0  0  2  0  0  0  0  0  0  0  0  0
   10.2082  -15.0934   24.4240 N   0  0  0  0  0  0  0  0  0  0  0  0
    9.0665  -16.3986   26.0560 C   0  0  0  0  0  0  0  0  0  0  0  0
    7.8959  -16.0406   25.7706 O   0  0  0  0  0  0  0  0  0  0  0  0
    9.2306  -17.6614   26.5905 O   0  0  0  0  0  0  0  0  0  0  0  0
  2  1  1  6
  3  2  1  0
  4  3  1  0
  4  8  1  0
  5  6  1  0
  5  4  2  0
  6  7  1  0
  7  8  2  0
  9  2  1  0
 10  9  2  0
 12 11  1  0
 13 12  1  0
 13 14  1  1
 15 13  1  0
 15 16  1  6
 16  9  1  0
 17 15  1  0
 18 17  2  0
 20 19  1  1
 21 20  1  0
 22 20  1  0
 23 22  1  1
 23 24  1  0
 24 17  1  0
 25 27  1  0
 25 23  1  0
 26 25  2  0
M  END
$$$$
