HIL.pdb
     RDKit          3D

 27 27  0  0  1  0  0  0  0  0999 V2000
   10.0781  -17.8168   16.6317 N   0  0  0  0  0  0  0  0  0  0  0  0
    9.2951  -18.0181   17.8319 C   0  0  1  0  0  0  0  0  0  0  0  0
    9.5466  -19.4338   18.3083 C   0  0  0  0  0  0  0  0  0  0  0  0
    8.7749  -20.3361   17.4134 C   0  0  0  0  0  0  0  0  0  0  0  0
    7.4460  -20.1840   17.0528 C   0  0  0  0  0  0  0  0  0  0  0  0
    7.0808  -21.1889   16.2294 N   0  0  0  0  0  0  0  0  0  0  0  0
    8.1606  -21.9706   16.0670 C   0  0  0  0  0  0  0  0  0  0  0  0
    9.1757  -21.4553   16.7794 N   0  0  0  0  0  0  0  0  0  0  0  0
    9.6643  -17.0193   18.8751 C   0  0  0  0  0  0  0  0  0  0  0  0
   10.8750  -16.8321   19.1067 O   0  0  0  0  0  0  0  0  0  0  0  0
    6.6203  -12.5389   19.7957 C   0  0  0  0  0  0  0  0  0  0  0  0
    7.8317  -13.4265   19.6940 C   0  0  0  0  0  0  0  0  0  0  0  0
    7.9132  -14.3839   20.8905 C   0  0  2  0  0  0  0  0  0  0  0  0
    8.2136  -13.5718   22.1342 C   0  0  0  0  0  0  0  0  0  0  0  0
    9.0584  -15.3466   20.6795 C   0  0  2  0  0  0  0  0  0  0  0  0
    8.7033  -16.2859   19.6022 N   0  0  0  0  0  0  0  0  0  0  0  0
    9.4242  -16.0796   21.8854 C   0  0  0  0  0  0  0  0  0  0  0  0
    8.5376  -16.9211   22.3096 O   0  0  0  0  0  0  0  0  0  0  0  0
   14.1649  -18.0867   22.6933 C   0  0  0  0  0  0  0  0  0  0  0  0
   12.6814  -18.0390   22.8022 C   0  0  1  0  0  0  0  0  0  0  0  0
   12.1937  -19.4658   22.9970 C   0  0  0  0  0  0  0  0  0  0  0  0
   12.2125  -17.2213   23.9373 C   0  0  0  0  0  0  0  0  0  0  0  0
   10.7857  -16.7675   23.8985 C   0  0  2  0  0  0  0  0  0  0  0  0
   10.5862  -16.0180   22.6517 N   0  0  0  0  0  0  0  0  0  0  0  0
   10.3268  -15.9500   25.0179 C   0  0  0  0  0  0  0  0  0  0  0  0
   10.0398  -14.7362   24.8616 O   0  0  0  0  0  0  0  0  0  0  0  0
   10.1925  -16.4746   26.2883 O   0  0  0  0  0  0  0  0  0  0  0  0
  2  1  1  6
  3  2  1  0
  4  3  1  0
  4  8  1  0
  5  6  1  0
  5  4  2  0
  6  7  1  0
  7  8  2  0
  9  2  1  0
 10  9  2  0
 12 11  1  0
 13 12  1  0
 13 14  1  1
 15 13  1  0
 15 16  1  6
 16  9  1  0
 17 15  1  0
 18 17  2  0
 20 19  1  1
 21 20  1  0
 22 20  1  0
 23 22  1  1
 23 24  1  0
 24 17  1  0
 25 27  1  0
 25 23  1  0
 26 25  2  0
M  END
$$$$
