HIL.pdb
     RDKit          3D

 27 27  0  0  1  0  0  0  0  0999 V2000
   12.4935  -18.2816   19.8756 N   0  0  0  0  0  0  0  0  0  0  0  0
   11.3584  -18.3442   20.7710 C   0  0  1  0  0  0  0  0  0  0  0  0
   11.7343  -19.2561   21.9206 C   0  0  0  0  0  0  0  0  0  0  0  0
   11.6260  -20.6520   21.4203 C   0  0  0  0  0  0  0  0  0  0  0  0
   10.8690  -21.0733   20.3393 C   0  0  0  0  0  0  0  0  0  0  0  0
   11.0109  -22.4054   20.1768 N   0  0  0  0  0  0  0  0  0  0  0  0
   11.8461  -22.8279   21.1399 C   0  0  0  0  0  0  0  0  0  0  0  0
   12.2132  -21.7722   21.8844 N   0  0  0  0  0  0  0  0  0  0  0  0
   10.9931  -16.9820   21.2540 C   0  0  0  0  0  0  0  0  0  0  0  0
   11.9144  -16.2073   21.5788 O   0  0  0  0  0  0  0  0  0  0  0  0
    6.8495  -12.5171   20.8818 C   0  0  0  0  0  0  0  0  0  0  0  0
    7.9161  -13.2059   21.6904 C   0  0  0  0  0  0  0  0  0  0  0  0
    8.1953  -14.6131   21.1458 C   0  0  2  0  0  0  0  0  0  0  0  0
    6.9369  -15.4437   21.2972 C   0  0  0  0  0  0  0  0  0  0  0  0
    9.2791  -15.2610   21.9757 C   0  0  2  0  0  0  0  0  0  0  0  0
    9.6565  -16.5425   21.3559 N   0  0  0  0  0  0  0  0  0  0  0  0
    8.8929  -15.4693   23.3659 C   0  0  0  0  0  0  0  0  0  0  0  0
    8.7304  -16.7048   23.7141 O   0  0  0  0  0  0  0  0  0  0  0  0
    7.0788  -11.8083   27.5650 C   0  0  0  0  0  0  0  0  0  0  0  0
    7.1050  -12.9956   26.6681 C   0  0  1  0  0  0  0  0  0  0  0  0
    6.7023  -12.5255   25.2795 C   0  0  0  0  0  0  0  0  0  0  0  0
    8.4364  -13.6261   26.5848 C   0  0  0  0  0  0  0  0  0  0  0  0
    8.5332  -14.8980   25.7999 C   0  0  2  0  0  0  0  0  0  0  0  0
    8.6757  -14.5415   24.3826 N   0  0  0  0  0  0  0  0  0  0  0  0
    7.4270  -15.8407   25.9394 C   0  0  0  0  0  0  0  0  0  0  0  0
    7.3232  -16.5755   26.9539 O   0  0  0  0  0  0  0  0  0  0  0  0
    6.4557  -15.9640   24.9654 O   0  0  0  0  0  0  0  0  0  0  0  0
  2  1  1  6
  3  2  1  0
  4  3  1  0
  4  8  1  0
  5  6  1  0
  5  4  2  0
  6  7  1  0
  7  8  2  0
  9  2  1  0
 10  9  2  0
 12 11  1  0
 13 12  1  0
 13 14  1  1
 15 13  1  0
 15 16  1  6
 16  9  1  0
 17 15  1  0
 18 17  2  0
 20 19  1  1
 21 20  1  0
 22 20  1  0
 23 22  1  1
 23 24  1  0
 24 17  1  0
 25 27  1  0
 25 23  1  0
 26 25  2  0
M  END
$$$$
