LAY.pdb
     RDKit          3D

 26 26  0  0  1  0  0  0  0  0999 V2000
    7.5452  -11.9588   20.6621 C   0  0  0  0  0  0  0  0  0  0  0  0
    8.0156  -13.3446   20.4185 C   0  0  1  0  0  0  0  0  0  0  0  0
    9.4249  -13.2755   19.8103 C   0  0  0  0  0  0  0  0  0  0  0  0
    8.0886  -14.2528   21.5837 C   0  0  0  0  0  0  0  0  0  0  0  0
    8.5551  -15.6469   21.3504 C   0  0  2  0  0  0  0  0  0  0  0  0
    7.6293  -16.3181   20.4718 N   0  0  0  0  0  0  0  0  0  0  0  0
    8.5474  -16.3169   22.7033 C   0  0  0  0  0  0  0  0  0  0  0  0
    7.4437  -16.6194   23.2547 O   0  0  0  0  0  0  0  0  0  0  0  0
   10.8265  -18.6974   24.1375 C   0  0  0  0  0  0  0  0  0  0  0  0
    9.7030  -17.6886   24.4351 C   0  0  2  0  0  0  0  0  0  0  0  0
    9.7135  -16.6429   23.4207 N   0  0  0  0  0  0  0  0  0  0  0  0
    9.9161  -17.1463   25.7876 C   0  0  0  0  0  0  0  0  0  0  0  0
    9.9043  -17.8887   26.7941 O   0  0  0  0  0  0  0  0  0  0  0  0
    5.2429  -11.8935   25.1389 O   0  0  0  0  0  0  0  0  0  0  0  0
    6.1509  -12.6976   25.8360 C   0  0  0  0  0  0  0  0  0  0  0  0
    5.8699  -14.0191   26.1154 C   0  0  0  0  0  0  0  0  0  0  0  0
    6.8118  -14.7534   26.8065 C   0  0  0  0  0  0  0  0  0  0  0  0
    8.0220  -14.2085   27.2256 C   0  0  0  0  0  0  0  0  0  0  0  0
    8.9814  -15.0423   27.9787 C   0  0  0  0  0  0  0  0  0  0  0  0
   10.2928  -15.1773   27.2795 C   0  0  2  0  0  0  0  0  0  0  0  0
   10.1376  -15.7596   25.9504 N   0  0  0  0  0  0  0  0  0  0  0  0
   11.3222  -15.8804   28.0595 C   0  0  0  0  0  0  0  0  0  0  0  0
   12.0433  -16.9667   27.5624 O   0  0  0  0  0  0  0  0  0  0  0  0
    8.2815  -12.8916   26.9373 C   0  0  0  0  0  0  0  0  0  0  0  0
    7.3524  -12.1483   26.2496 C   0  0  0  0  0  0  0  0  0  0  0  0
   11.5814  -15.5085   29.2216 O   0  0  0  0  0  0  0  0  0  0  0  0
  2  1  1  1
  3  2  1  0
  4  2  1  0
  5  6  1  6
  5  4  1  0
  7  5  1  0
  8  7  2  0
 10  9  1  6
 10 11  1  0
 11  7  1  0
 12 10  1  0
 12 21  1  0
 13 12  2  0
 15 14  1  0
 16 15  2  0
 17 16  1  0
 18 24  1  0
 18 17  2  0
 19 18  1  0
 20 19  1  1
 20 21  1  0
 20 22  1  0
 22 23  1  0
 24 25  2  0
 25 15  1  0
 26 22  2  0
M  END
$$$$
