LAY.pdb
     RDKit          3D

 26 26  0  0  1  0  0  0  0  0999 V2000
    9.3671  -13.7962   19.8278 C   0  0  0  0  0  0  0  0  0  0  0  0
    8.8563  -14.1118   21.1845 C   0  0  1  0  0  0  0  0  0  0  0  0
    8.2256  -12.8391   21.7703 C   0  0  0  0  0  0  0  0  0  0  0  0
    7.8489  -15.1888   21.2985 C   0  0  0  0  0  0  0  0  0  0  0  0
    8.2296  -16.5493   20.8298 C   0  0  2  0  0  0  0  0  0  0  0  0
    7.1023  -17.1576   20.1675 N   0  0  0  0  0  0  0  0  0  0  0  0
    8.5715  -17.3340   22.0735 C   0  0  0  0  0  0  0  0  0  0  0  0
    8.1197  -18.5116   22.2243 O   0  0  0  0  0  0  0  0  0  0  0  0
   11.6275  -17.5679   22.4757 C   0  0  0  0  0  0  0  0  0  0  0  0
   10.5481  -17.5824   23.5726 C   0  0  2  0  0  0  0  0  0  0  0  0
    9.3830  -16.8391   23.1115 N   0  0  0  0  0  0  0  0  0  0  0  0
   11.1251  -16.9991   24.7955 C   0  0  0  0  0  0  0  0  0  0  0  0
   12.2033  -17.4200   25.2693 O   0  0  0  0  0  0  0  0  0  0  0  0
    5.2043  -12.7322   26.8649 O   0  0  0  0  0  0  0  0  0  0  0  0
    6.5714  -13.0170   26.7831 C   0  0  0  0  0  0  0  0  0  0  0  0
    7.0933  -13.7255   25.7205 C   0  0  0  0  0  0  0  0  0  0  0  0
    8.4512  -13.9699   25.7045 C   0  0  0  0  0  0  0  0  0  0  0  0
    9.3006  -13.5291   26.7153 C   0  0  0  0  0  0  0  0  0  0  0  0
   10.7435  -13.8394   26.6496 C   0  0  0  0  0  0  0  0  0  0  0  0
   11.0121  -15.3071   26.6310 C   0  0  2  0  0  0  0  0  0  0  0  0
   10.4460  -15.9436   25.4461 N   0  0  0  0  0  0  0  0  0  0  0  0
   10.6157  -16.0082   27.8612 C   0  0  0  0  0  0  0  0  0  0  0  0
    9.7672  -17.1160   27.8655 O   0  0  0  0  0  0  0  0  0  0  0  0
    8.7606  -12.8260   27.7635 C   0  0  0  0  0  0  0  0  0  0  0  0
    7.4096  -12.5753   27.7925 C   0  0  0  0  0  0  0  0  0  0  0  0
   11.0434  -15.6141   28.9648 O   0  0  0  0  0  0  0  0  0  0  0  0
  2  1  1  6
  3  2  1  0
  4  2  1  0
  5  6  1  1
  5  4  1  0
  7  5  1  0
  8  7  2  0
 10  9  1  6
 10 11  1  0
 11  7  1  0
 12 10  1  0
 12 21  1  0
 13 12  2  0
 15 14  1  0
 16 15  2  0
 17 16  1  0
 18 24  1  0
 18 17  2  0
 19 18  1  0
 20 19  1  1
 20 21  1  0
 20 22  1  0
 22 23  1  0
 24 25  2  0
 25 15  1  0
 26 22  2  0
M  END
$$$$
