LAY.pdb
     RDKit          3D

 26 26  0  0  1  0  0  0  0  0999 V2000
    8.2302  -12.8186   19.7038 C   0  0  0  0  0  0  0  0  0  0  0  0
    8.0765  -13.7322   20.8626 C   0  0  1  0  0  0  0  0  0  0  0  0
    7.4184  -12.9497   22.0095 C   0  0  0  0  0  0  0  0  0  0  0  0
    7.2775  -14.9603   20.6591 C   0  0  0  0  0  0  0  0  0  0  0  0
    7.4198  -16.0555   21.6570 C   0  0  2  0  0  0  0  0  0  0  0  0
    7.2356  -15.5188   22.9827 N   0  0  0  0  0  0  0  0  0  0  0  0
    8.8319  -16.5685   21.5088 C   0  0  0  0  0  0  0  0  0  0  0  0
    9.4532  -16.4071   20.4126 O   0  0  0  0  0  0  0  0  0  0  0  0
   11.0156  -15.2906   22.4675 C   0  0  0  0  0  0  0  0  0  0  0  0
   10.7696  -16.6838   23.0734 C   0  0  2  0  0  0  0  0  0  0  0  0
    9.5335  -17.2330   22.5320 N   0  0  0  0  0  0  0  0  0  0  0  0
   10.7163  -16.5468   24.5387 C   0  0  0  0  0  0  0  0  0  0  0  0
   11.6820  -16.0813   25.1828 O   0  0  0  0  0  0  0  0  0  0  0  0
    6.8585  -11.2057   25.7609 O   0  0  0  0  0  0  0  0  0  0  0  0
    7.1614  -12.5287   26.0995 C   0  0  0  0  0  0  0  0  0  0  0  0
    6.3305  -13.5691   25.7380 C   0  0  0  0  0  0  0  0  0  0  0  0
    6.6917  -14.8492   26.1051 C   0  0  0  0  0  0  0  0  0  0  0  0
    7.8545  -15.1201   26.8205 C   0  0  0  0  0  0  0  0  0  0  0  0
    8.1762  -16.5111   27.2001 C   0  0  0  0  0  0  0  0  0  0  0  0
    9.5075  -16.9498   26.6884 C   0  0  2  0  0  0  0  0  0  0  0  0
    9.5508  -16.9502   25.2297 N   0  0  0  0  0  0  0  0  0  0  0  0
    9.9744  -18.2295   27.2421 C   0  0  0  0  0  0  0  0  0  0  0  0
   10.2922  -18.4043   28.5896 O   0  0  0  0  0  0  0  0  0  0  0  0
    8.6671  -14.0703   27.1704 C   0  0  0  0  0  0  0  0  0  0  0  0
    8.3197  -12.7900   26.8113 C   0  0  0  0  0  0  0  0  0  0  0  0
   10.1012  -19.2195   26.4940 O   0  0  0  0  0  0  0  0  0  0  0  0
  2  1  1  6
  3  2  1  0
  4  2  1  0
  5  6  1  1
  5  4  1  0
  7  5  1  0
  8  7  2  0
 10  9  1  6
 10 11  1  0
 11  7  1  0
 12 10  1  0
 12 21  1  0
 13 12  2  0
 15 14  1  0
 16 15  2  0
 17 16  1  0
 18 24  1  0
 18 17  2  0
 19 18  1  0
 20 19  1  6
 20 21  1  0
 20 22  1  0
 22 23  1  0
 24 25  2  0
 25 15  1  0
 26 22  2  0
M  END
$$$$
