LAY.pdb
     RDKit          3D

 26 26  0  0  1  0  0  0  0  0999 V2000
    8.2858  -13.1283   19.6010 C   0  0  0  0  0  0  0  0  0  0  0  0
    8.2719  -13.8671   20.8875 C   0  0  1  0  0  0  0  0  0  0  0  0
    7.5962  -12.9808   21.9451 C   0  0  0  0  0  0  0  0  0  0  0  0
    7.5837  -15.1761   20.9126 C   0  0  0  0  0  0  0  0  0  0  0  0
    7.5836  -15.9371   22.1919 C   0  0  2  0  0  0  0  0  0  0  0  0
    7.1114  -15.0833   23.2537 N   0  0  0  0  0  0  0  0  0  0  0  0
    9.0225  -16.3161   22.4472 C   0  0  0  0  0  0  0  0  0  0  0  0
    9.5246  -17.3273   21.8650 O   0  0  0  0  0  0  0  0  0  0  0  0
   12.2651  -15.0973   23.2081 C   0  0  0  0  0  0  0  0  0  0  0  0
   11.1987  -16.1165   23.6473 C   0  0  2  0  0  0  0  0  0  0  0  0
    9.8766  -15.6052   23.3109 N   0  0  0  0  0  0  0  0  0  0  0  0
   11.3488  -16.3468   25.0940 C   0  0  0  0  0  0  0  0  0  0  0  0
   12.4375  -16.7216   25.5823 O   0  0  0  0  0  0  0  0  0  0  0  0
    6.0687  -11.9815   25.4913 O   0  0  0  0  0  0  0  0  0  0  0  0
    7.0349  -12.7581   26.1395 C   0  0  0  0  0  0  0  0  0  0  0  0
    6.7362  -14.0140   26.6261 C   0  0  0  0  0  0  0  0  0  0  0  0
    7.7383  -14.7247   27.2543 C   0  0  0  0  0  0  0  0  0  0  0  0
    9.0259  -14.2196   27.4105 C   0  0  0  0  0  0  0  0  0  0  0  0
   10.0502  -15.0226   28.1095 C   0  0  0  0  0  0  0  0  0  0  0  0
   10.3689  -16.2917   27.3922 C   0  0  2  0  0  0  0  0  0  0  0  0
   10.2400  -16.1407   25.9464 N   0  0  0  0  0  0  0  0  0  0  0  0
    9.6262  -17.4631   27.8805 C   0  0  0  0  0  0  0  0  0  0  0  0
    9.7161  -17.9276   29.1932 O   0  0  0  0  0  0  0  0  0  0  0  0
    9.3017  -12.9678   26.9190 C   0  0  0  0  0  0  0  0  0  0  0  0
    8.3132  -12.2486   26.2910 C   0  0  0  0  0  0  0  0  0  0  0  0
    8.8746  -18.0880   27.1055 O   0  0  0  0  0  0  0  0  0  0  0  0
  2  1  1  6
  3  2  1  0
  4  2  1  0
  5  6  1  1
  5  4  1  0
  7  5  1  0
  8  7  2  0
 10  9  1  1
 10 11  1  0
 11  7  1  0
 12 10  1  0
 12 21  1  0
 13 12  2  0
 15 14  1  0
 16 15  2  0
 17 16  1  0
 18 24  1  0
 18 17  2  0
 19 18  1  0
 20 19  1  1
 20 21  1  0
 20 22  1  0
 22 23  1  0
 24 25  2  0
 25 15  1  0
 26 22  2  0
M  END
$$$$
