LAY.pdb
     RDKit          3D

 26 26  0  0  1  0  0  0  0  0999 V2000
    6.8609  -12.6313   18.2789 C   0  0  0  0  0  0  0  0  0  0  0  0
    8.1546  -13.1161   18.8197 C   0  0  1  0  0  0  0  0  0  0  0  0
    8.8770  -11.9303   19.4772 C   0  0  0  0  0  0  0  0  0  0  0  0
    8.1085  -14.2058   19.8188 C   0  0  0  0  0  0  0  0  0  0  0  0
    9.3948  -14.6527   20.4200 C   0  0  2  0  0  0  0  0  0  0  0  0
   10.3155  -15.0047   19.3673 N   0  0  0  0  0  0  0  0  0  0  0  0
    9.0651  -15.8788   21.2369 C   0  0  0  0  0  0  0  0  0  0  0  0
    8.0876  -15.8562   22.0478 O   0  0  0  0  0  0  0  0  0  0  0  0
   10.1842  -19.4699   21.5205 C   0  0  0  0  0  0  0  0  0  0  0  0
    9.4577  -18.2108   22.0263 C   0  0  2  0  0  0  0  0  0  0  0  0
    9.7854  -17.0855   21.1610 N   0  0  0  0  0  0  0  0  0  0  0  0
    9.8666  -17.9710   23.4206 C   0  0  0  0  0  0  0  0  0  0  0  0
    9.1425  -18.3204   24.3787 O   0  0  0  0  0  0  0  0  0  0  0  0
   10.7055  -14.2919   30.8450 O   0  0  0  0  0  0  0  0  0  0  0  0
   10.6068  -14.6280   29.4907 C   0  0  0  0  0  0  0  0  0  0  0  0
    9.6713  -14.0315   28.6708 C   0  0  0  0  0  0  0  0  0  0  0  0
    9.6306  -14.4110   27.3448 C   0  0  0  0  0  0  0  0  0  0  0  0
   10.4939  -15.3658   26.8152 C   0  0  0  0  0  0  0  0  0  0  0  0
   10.3875  -15.7427   25.3907 C   0  0  0  0  0  0  0  0  0  0  0  0
   11.3924  -16.7728   24.9956 C   0  0  2  0  0  0  0  0  0  0  0  0
   11.1011  -17.3330   23.6800 N   0  0  0  0  0  0  0  0  0  0  0  0
   11.5991  -17.8288   25.9978 C   0  0  0  0  0  0  0  0  0  0  0  0
   12.6532  -17.8137   26.9120 O   0  0  0  0  0  0  0  0  0  0  0  0
   11.4172  -15.9471   27.6486 C   0  0  0  0  0  0  0  0  0  0  0  0
   11.4689  -15.5787   28.9715 C   0  0  0  0  0  0  0  0  0  0  0  0
   10.8104  -18.7935   26.0538 O   0  0  0  0  0  0  0  0  0  0  0  0
  2  1  1  1
  3  2  1  0
  4  2  1  0
  5  6  1  6
  5  4  1  0
  7  5  1  0
  8  7  2  0
 10  9  1  6
 10 11  1  0
 11  7  1  0
 12 10  1  0
 12 21  1  0
 13 12  2  0
 15 14  1  0
 16 15  2  0
 17 16  1  0
 18 24  1  0
 18 17  2  0
 19 18  1  0
 20 19  1  1
 20 21  1  0
 20 22  1  0
 22 23  1  0
 24 25  2  0
 25 15  1  0
 26 22  2  0
M  END
$$$$
