LAY.pdb
     RDKit          3D

 26 26  0  0  1  0  0  0  0  0999 V2000
    7.9775  -11.6463   20.3470 C   0  0  0  0  0  0  0  0  0  0  0  0
    7.8835  -13.0676   19.9323 C   0  0  1  0  0  0  0  0  0  0  0  0
    8.9593  -13.3312   18.8674 C   0  0  0  0  0  0  0  0  0  0  0  0
    8.0504  -14.0952   20.9831 C   0  0  0  0  0  0  0  0  0  0  0  0
    7.8477  -15.5195   20.6011 C   0  0  2  0  0  0  0  0  0  0  0  0
    6.4696  -15.7207   20.2272 N   0  0  0  0  0  0  0  0  0  0  0  0
    8.1613  -16.3274   21.8373 C   0  0  0  0  0  0  0  0  0  0  0  0
    7.3035  -16.4180   22.7699 O   0  0  0  0  0  0  0  0  0  0  0  0
   10.7828  -18.7740   22.9775 C   0  0  0  0  0  0  0  0  0  0  0  0
    9.5852  -17.8378   23.2182 C   0  0  2  0  0  0  0  0  0  0  0  0
    9.3750  -17.0114   22.0369 N   0  0  0  0  0  0  0  0  0  0  0  0
    9.8667  -17.0269   24.4149 C   0  0  0  0  0  0  0  0  0  0  0  0
   10.6536  -16.0558   24.3707 O   0  0  0  0  0  0  0  0  0  0  0  0
    6.4795  -11.2555   25.3837 O   0  0  0  0  0  0  0  0  0  0  0  0
    6.9589  -12.4512   25.9290 C   0  0  0  0  0  0  0  0  0  0  0  0
    8.2431  -12.5489   26.4236 C   0  0  0  0  0  0  0  0  0  0  0  0
    8.6492  -13.7591   26.9475 C   0  0  0  0  0  0  0  0  0  0  0  0
    7.8133  -14.8711   26.9917 C   0  0  0  0  0  0  0  0  0  0  0  0
    8.3139  -16.1447   27.5483 C   0  0  0  0  0  0  0  0  0  0  0  0
    9.5487  -16.6229   26.8603 C   0  0  2  0  0  0  0  0  0  0  0  0
    9.2352  -17.3538   25.6367 N   0  0  0  0  0  0  0  0  0  0  0  0
   10.4635  -17.3842   27.7239 C   0  0  0  0  0  0  0  0  0  0  0  0
   11.2118  -16.7963   28.7445 O   0  0  0  0  0  0  0  0  0  0  0  0
    6.5393  -14.7522   26.4940 C   0  0  0  0  0  0  0  0  0  0  0  0
    6.1215  -13.5528   25.9692 C   0  0  0  0  0  0  0  0  0  0  0  0
   10.5951  -18.6133   27.5568 O   0  0  0  0  0  0  0  0  0  0  0  0
  2  1  1  1
  3  2  1  0
  4  2  1  0
  5  6  1  1
  5  4  1  0
  7  5  1  0
  8  7  2  0
 10  9  1  6
 10 11  1  0
 11  7  1  0
 12 10  1  0
 12 21  1  0
 13 12  2  0
 15 14  1  0
 16 15  2  0
 17 16  1  0
 18 24  1  0
 18 17  2  0
 19 18  1  0
 20 19  1  1
 20 21  1  0
 20 22  1  0
 22 23  1  0
 24 25  2  0
 25 15  1  0
 26 22  2  0
M  END
$$$$
