LAY.pdb
     RDKit          3D

 26 26  0  0  1  0  0  0  0  0999 V2000
    9.5330  -18.9484   16.0869 C   0  0  0  0  0  0  0  0  0  0  0  0
    9.7251  -18.9860   17.5575 C   0  0  1  0  0  0  0  0  0  0  0  0
   11.1260  -19.5468   17.8465 C   0  0  0  0  0  0  0  0  0  0  0  0
    9.6084  -17.7072   18.2916 C   0  0  0  0  0  0  0  0  0  0  0  0
    9.8203  -17.7294   19.7648 C   0  0  2  0  0  0  0  0  0  0  0  0
    8.9812  -18.7449   20.3513 N   0  0  0  0  0  0  0  0  0  0  0  0
    9.3953  -16.3693   20.2638 C   0  0  0  0  0  0  0  0  0  0  0  0
   10.1063  -15.3488   20.0057 O   0  0  0  0  0  0  0  0  0  0  0  0
    6.3962  -14.6379   21.6100 C   0  0  0  0  0  0  0  0  0  0  0  0
    7.9231  -14.8212   21.5490 C   0  0  2  0  0  0  0  0  0  0  0  0
    8.2286  -16.1429   21.0177 N   0  0  0  0  0  0  0  0  0  0  0  0
    8.4649  -14.6339   22.9055 C   0  0  0  0  0  0  0  0  0  0  0  0
    8.1385  -13.6496   23.6047 O   0  0  0  0  0  0  0  0  0  0  0  0
    5.9076  -11.0838   27.2128 O   0  0  0  0  0  0  0  0  0  0  0  0
    6.5541  -12.2662   26.8375 C   0  0  0  0  0  0  0  0  0  0  0  0
    7.9239  -12.3966   26.9373 C   0  0  0  0  0  0  0  0  0  0  0  0
    8.4947  -13.5915   26.5496 C   0  0  0  0  0  0  0  0  0  0  0  0
    7.7401  -14.6566   26.0665 C   0  0  0  0  0  0  0  0  0  0  0  0
    8.4130  -15.9041   25.6496 C   0  0  0  0  0  0  0  0  0  0  0  0
    9.6511  -15.6481   24.8570 C   0  0  2  0  0  0  0  0  0  0  0  0
    9.3717  -15.5853   23.4261 N   0  0  0  0  0  0  0  0  0  0  0  0
   10.7566  -16.5723   25.1506 C   0  0  0  0  0  0  0  0  0  0  0  0
   11.4101  -17.3136   24.1654 O   0  0  0  0  0  0  0  0  0  0  0  0
    6.3787  -14.5058   25.9752 C   0  0  0  0  0  0  0  0  0  0  0  0
    5.7967  -13.3211   26.3578 C   0  0  0  0  0  0  0  0  0  0  0  0
   11.1468  -16.7187   26.3263 O   0  0  0  0  0  0  0  0  0  0  0  0
  2  1  1  6
  3  2  1  0
  4  2  1  0
  5  6  1  1
  5  4  1  0
  7  5  1  0
  8  7  2  0
 10  9  1  1
 10 11  1  0
 11  7  1  0
 12 10  1  0
 12 21  1  0
 13 12  2  0
 15 14  1  0
 16 15  2  0
 17 16  1  0
 18 24  1  0
 18 17  2  0
 19 18  1  0
 20 19  1  1
 20 21  1  0
 20 22  1  0
 22 23  1  0
 24 25  2  0
 25 15  1  0
 26 22  2  0
M  END
$$$$
