PHH.pdb
     RDKit          3D

 28 30  0  0  1  0  0  0  0  0999 V2000
   26.6837  -19.2777  -16.8085 N   0  0  0  0  0  0  0  0  0  0  0  0
   28.0349  -19.0894  -17.3287 C   0  0  0  0  0  0  0  0  0  0  0  0
   28.2980  -17.6173  -17.3355 C   0  0  0  0  0  0  0  0  0  0  0  0
   27.0290  -17.0081  -16.7314 C   0  0  0  0  0  0  0  0  0  0  0  0
   26.5408  -18.1869  -15.8930 C   0  0  1  0  0  0  0  0  0  0  0  0
   25.1385  -17.9903  -15.4445 C   0  0  0  0  0  0  0  0  0  0  0  0
   24.8412  -17.0590  -14.6837 O   0  0  0  0  0  0  0  0  0  0  0  0
   24.1488  -18.8986  -15.9117 N   0  0  0  0  0  0  0  0  0  0  0  0
   22.7421  -18.7383  -15.6020 C   0  0  1  0  0  0  0  0  0  0  0  0
   21.9616  -18.6243  -16.8785 C   0  0  0  0  0  0  0  0  0  0  0  0
   22.2300  -17.3885  -17.6279 C   0  0  0  0  0  0  0  0  0  0  0  0
   23.0281  -17.3566  -18.7611 C   0  0  0  0  0  0  0  0  0  0  0  0
   23.0806  -16.0922  -19.2152 N   0  0  0  0  0  0  0  0  0  0  0  0
   22.3351  -15.3281  -18.3953 C   0  0  0  0  0  0  0  0  0  0  0  0
   21.8326  -16.1250  -17.4483 N   0  0  0  0  0  0  0  0  0  0  0  0
   22.2602  -19.8522  -14.7506 C   0  0  0  0  0  0  0  0  0  0  0  0
   22.7465  -20.9933  -14.9375 O   0  0  0  0  0  0  0  0  0  0  0  0
   21.2794  -19.6602  -13.7478 N   0  0  0  0  0  0  0  0  0  0  0  0
   20.9805  -20.8284  -12.8878 C   0  0  1  0  0  0  0  0  0  0  0  0
   20.7717  -20.3565  -11.4743 C   0  0  0  0  0  0  0  0  0  0  0  0
   20.2283  -21.4359  -10.6346 C   0  0  0  0  0  0  0  0  0  0  0  0
   19.9283  -22.7243  -11.0743 C   0  0  0  0  0  0  0  0  0  0  0  0
   19.4535  -23.4420  -10.0463 N   0  0  0  0  0  0  0  0  0  0  0  0
   19.4457  -22.6417   -8.9695 C   0  0  0  0  0  0  0  0  0  0  0  0
   19.9127  -21.4388   -9.3324 N   0  0  0  0  0  0  0  0  0  0  0  0
   19.7086  -21.3612  -13.4071 C   0  0  0  0  0  0  0  0  0  0  0  0
   19.4901  -22.7343  -13.4179 O   0  0  0  0  0  0  0  0  0  0  0  0
   18.8029  -20.6266  -13.8451 O   0  0  0  0  0  0  0  0  0  0  0  0
  1  5  1  0
  2  3  1  0
  2  1  1  0
  3  4  1  0
  4  5  1  0
  5  6  1  6
  6  7  2  0
  8  9  1  0
  8  6  1  0
  9 16  1  0
  9 10  1  6
 11 10  1  0
 11 15  1  0
 12 13  1  0
 12 11  2  0
 13 14  1  0
 14 15  2  0
 16 18  1  0
 16 17  2  0
 18 19  1  0
 19 26  1  0
 19 20  1  1
 21 20  1  0
 21 22  2  0
 23 22  1  0
 24 25  2  0
 24 23  1  0
 25 21  1  0
 26 28  2  0
 26 27  1  0
M  END
$$$$
