PHH.pdb
     RDKit          3D

 28 30  0  0  1  0  0  0  0  0999 V2000
   17.3797  -14.3910    4.1269 N   0  0  0  0  0  0  0  0  0  0  0  0
   17.5514  -13.2110    3.2843 C   0  0  0  0  0  0  0  0  0  0  0  0
   18.0575  -12.1151    4.1671 C   0  0  0  0  0  0  0  0  0  0  0  0
   18.2102  -12.7804    5.5384 C   0  0  0  0  0  0  0  0  0  0  0  0
   18.4081  -14.2323    5.1095 C   0  0  1  0  0  0  0  0  0  0  0  0
   18.2576  -15.1628    6.2574 C   0  0  0  0  0  0  0  0  0  0  0  0
   19.0067  -15.0823    7.2407 O   0  0  0  0  0  0  0  0  0  0  0  0
   17.2322  -16.1464    6.1966 N   0  0  0  0  0  0  0  0  0  0  0  0
   16.9927  -17.0838    7.2755 C   0  0  1  0  0  0  0  0  0  0  0  0
   15.5563  -17.5169    7.2487 C   0  0  0  0  0  0  0  0  0  0  0  0
   14.6200  -16.4924    7.7332 C   0  0  0  0  0  0  0  0  0  0  0  0
   15.0283  -15.3917    8.4705 C   0  0  0  0  0  0  0  0  0  0  0  0
   13.9489  -14.6450    8.7628 N   0  0  0  0  0  0  0  0  0  0  0  0
   12.8720  -15.2493    8.2273 C   0  0  0  0  0  0  0  0  0  0  0  0
   13.2957  -16.3572    7.6131 N   0  0  0  0  0  0  0  0  0  0  0  0
   17.9242  -18.2339    7.1902 C   0  0  0  0  0  0  0  0  0  0  0  0
   18.1668  -18.7165    6.0581 O   0  0  0  0  0  0  0  0  0  0  0  0
   18.5362  -18.7909    8.3390 N   0  0  0  0  0  0  0  0  0  0  0  0
   19.4846  -19.9041    8.1048 C   0  0  1  0  0  0  0  0  0  0  0  0
   20.8169  -19.5486    8.7072 C   0  0  0  0  0  0  0  0  0  0  0  0
   21.7407  -20.6928    8.6525 C   0  0  0  0  0  0  0  0  0  0  0  0
   22.0416  -21.4303    7.5085 C   0  0  0  0  0  0  0  0  0  0  0  0
   22.9170  -22.3956    7.8233 N   0  0  0  0  0  0  0  0  0  0  0  0
   23.1770  -22.2875    9.1351 C   0  0  0  0  0  0  0  0  0  0  0  0
   22.4660  -21.2620    9.6247 N   0  0  0  0  0  0  0  0  0  0  0  0
   18.9146  -21.0446    8.8435 C   0  0  0  0  0  0  0  0  0  0  0  0
   19.2837  -22.3407    8.5012 O   0  0  0  0  0  0  0  0  0  0  0  0
   18.1028  -20.9004    9.7772 O   0  0  0  0  0  0  0  0  0  0  0  0
  1  5  1  0
  2  3  1  0
  2  1  1  0
  3  4  1  0
  4  5  1  0
  5  6  1  1
  6  7  2  0
  8  9  1  0
  8  6  1  0
  9 16  1  0
  9 10  1  6
 11 10  1  0
 11 15  1  0
 12 13  1  0
 12 11  2  0
 13 14  1  0
 14 15  2  0
 16 18  1  0
 16 17  2  0
 18 19  1  0
 19 26  1  0
 19 20  1  1
 21 20  1  0
 21 22  2  0
 23 22  1  0
 24 25  2  0
 24 23  1  0
 25 21  1  0
 26 28  2  0
 26 27  1  0
M  END
$$$$
