PHH.pdb
     RDKit          3D

 28 30  0  0  1  0  0  0  0  0999 V2000
   30.9510  -24.4477  -15.9134 N   0  0  0  0  0  0  0  0  0  0  0  0
   32.3550  -24.8314  -15.7974 C   0  0  0  0  0  0  0  0  0  0  0  0
   32.9566  -24.7001  -17.1602 C   0  0  0  0  0  0  0  0  0  0  0  0
   31.8112  -24.1636  -18.0242 C   0  0  0  0  0  0  0  0  0  0  0  0
   30.9749  -23.4657  -16.9543 C   0  0  1  0  0  0  0  0  0  0  0  0
   29.6196  -23.1277  -17.4594 C   0  0  0  0  0  0  0  0  0  0  0  0
   29.4614  -22.2277  -18.2958 O   0  0  0  0  0  0  0  0  0  0  0  0
   28.5112  -23.8641  -16.9576 N   0  0  0  0  0  0  0  0  0  0  0  0
   27.1633  -23.6696  -17.4534 C   0  0  1  0  0  0  0  0  0  0  0  0
   26.4605  -24.9939  -17.5164 C   0  0  0  0  0  0  0  0  0  0  0  0
   25.0993  -24.9159  -18.0660 C   0  0  0  0  0  0  0  0  0  0  0  0
   24.5126  -23.7200  -18.4498 C   0  0  0  0  0  0  0  0  0  0  0  0
   23.2747  -23.9754  -18.9083 N   0  0  0  0  0  0  0  0  0  0  0  0
   23.0687  -25.3028  -18.8222 C   0  0  0  0  0  0  0  0  0  0  0  0
   24.1761  -25.8501  -18.3139 N   0  0  0  0  0  0  0  0  0  0  0  0
   26.4313  -22.6884  -16.6174 C   0  0  0  0  0  0  0  0  0  0  0  0
   26.4923  -22.8108  -15.3705 O   0  0  0  0  0  0  0  0  0  0  0  0
   25.6770  -21.6333  -17.1853 N   0  0  0  0  0  0  0  0  0  0  0  0
   25.0649  -20.6766  -16.2348 C   0  0  1  0  0  0  0  0  0  0  0  0
   25.3901  -19.2741  -16.6725 C   0  0  0  0  0  0  0  0  0  0  0  0
   26.7597  -18.9052  -16.2805 C   0  0  0  0  0  0  0  0  0  0  0  0
   27.6490  -19.7284  -15.5916 C   0  0  0  0  0  0  0  0  0  0  0  0
   28.8024  -19.0716  -15.4029 N   0  0  0  0  0  0  0  0  0  0  0  0
   28.6653  -17.8560  -15.9539 C   0  0  0  0  0  0  0  0  0  0  0  0
   27.4352  -17.7651  -16.4786 N   0  0  0  0  0  0  0  0  0  0  0  0
   23.6134  -20.8941  -16.3656 C   0  0  0  0  0  0  0  0  0  0  0  0
   22.7397  -20.2555  -15.4927 O   0  0  0  0  0  0  0  0  0  0  0  0
   23.1225  -21.6367  -17.2371 O   0  0  0  0  0  0  0  0  0  0  0  0
  1  5  1  0
  2  3  1  0
  2  1  1  0
  3  4  1  0
  4  5  1  0
  5  6  1  6
  6  7  2  0
  8  9  1  0
  8  6  1  0
  9 16  1  0
  9 10  1  1
 11 10  1  0
 11 15  1  0
 12 13  1  0
 12 11  2  0
 13 14  1  0
 14 15  2  0
 16 18  1  0
 16 17  2  0
 18 19  1  0
 19 26  1  0
 19 20  1  6
 21 20  1  0
 21 22  2  0
 23 22  1  0
 24 25  2  0
 24 23  1  0
 25 21  1  0
 26 28  2  0
 26 27  1  0
M  END
$$$$
