PHH.pdb
     RDKit          3D

 28 30  0  0  1  0  0  0  0  0999 V2000
   29.5371  -20.9002  -17.8376 N   0  0  0  0  0  0  0  0  0  0  0  0
   30.7959  -20.8071  -18.5715 C   0  0  0  0  0  0  0  0  0  0  0  0
   30.6130  -21.5642  -19.8481 C   0  0  0  0  0  0  0  0  0  0  0  0
   29.1552  -22.0318  -19.7996 C   0  0  0  0  0  0  0  0  0  0  0  0
   28.5629  -20.9631  -18.8842 C   0  0  1  0  0  0  0  0  0  0  0  0
   27.2156  -21.3529  -18.3954 C   0  0  0  0  0  0  0  0  0  0  0  0
   26.2967  -21.5899  -19.1916 O   0  0  0  0  0  0  0  0  0  0  0  0
   27.0100  -21.4463  -16.9912 N   0  0  0  0  0  0  0  0  0  0  0  0
   25.7791  -21.9555  -16.4204 C   0  0  1  0  0  0  0  0  0  0  0  0
   26.1018  -23.0049  -15.3976 C   0  0  0  0  0  0  0  0  0  0  0  0
   26.6298  -24.2501  -15.9735 C   0  0  0  0  0  0  0  0  0  0  0  0
   25.8113  -25.2654  -16.4437 C   0  0  0  0  0  0  0  0  0  0  0  0
   26.5852  -26.2635  -16.9051 N   0  0  0  0  0  0  0  0  0  0  0  0
   27.8704  -25.9005  -16.7366 C   0  0  0  0  0  0  0  0  0  0  0  0
   27.8763  -24.6883  -16.1756 N   0  0  0  0  0  0  0  0  0  0  0  0
   24.9667  -20.8533  -15.8522 C   0  0  0  0  0  0  0  0  0  0  0  0
   25.4417  -20.2026  -14.8907 O   0  0  0  0  0  0  0  0  0  0  0  0
   23.6876  -20.5238  -16.3620 N   0  0  0  0  0  0  0  0  0  0  0  0
   22.9827  -19.4040  -15.6966 C   0  0  1  0  0  0  0  0  0  0  0  0
   21.9028  -18.8916  -16.6107 C   0  0  0  0  0  0  0  0  0  0  0  0
   21.1487  -17.8003  -15.9735 C   0  0  0  0  0  0  0  0  0  0  0  0
   21.6542  -16.9275  -15.0113 C   0  0  0  0  0  0  0  0  0  0  0  0
   20.6950  -16.0620  -14.6534 N   0  0  0  0  0  0  0  0  0  0  0  0
   19.5977  -16.3646  -15.3635 C   0  0  0  0  0  0  0  0  0  0  0  0
   19.8797  -17.4101  -16.1537 N   0  0  0  0  0  0  0  0  0  0  0  0
   22.3562  -20.0084  -14.5077 C   0  0  0  0  0  0  0  0  0  0  0  0
   22.3176  -19.2979  -13.3131 O   0  0  0  0  0  0  0  0  0  0  0  0
   21.8501  -21.1465  -14.5219 O   0  0  0  0  0  0  0  0  0  0  0  0
  1  5  1  0
  2  3  1  0
  2  1  1  0
  3  4  1  0
  4  5  1  0
  5  6  1  1
  6  7  2  0
  8  9  1  0
  8  6  1  0
  9 16  1  0
  9 10  1  1
 11 10  1  0
 11 15  1  0
 12 13  1  0
 12 11  2  0
 13 14  1  0
 14 15  2  0
 16 18  1  0
 16 17  2  0
 18 19  1  0
 19 26  1  0
 19 20  1  6
 21 20  1  0
 21 22  2  0
 23 22  1  0
 24 25  2  0
 24 23  1  0
 25 21  1  0
 26 28  2  0
 26 27  1  0
M  END
$$$$
