PHH.pdb
     RDKit          3D

 28 30  0  0  1  0  0  0  0  0999 V2000
   27.3855  -19.6425  -17.4050 N   0  0  0  0  0  0  0  0  0  0  0  0
   28.7353  -19.5949  -17.9597 C   0  0  0  0  0  0  0  0  0  0  0  0
   29.1701  -18.1645  -17.9260 C   0  0  0  0  0  0  0  0  0  0  0  0
   27.9983  -17.4333  -17.2637 C   0  0  0  0  0  0  0  0  0  0  0  0
   27.3967  -18.5765  -16.4500 C   0  0  1  0  0  0  0  0  0  0  0  0
   26.0398  -18.2335  -15.9527 C   0  0  0  0  0  0  0  0  0  0  0  0
   25.8793  -17.3279  -15.1229 O   0  0  0  0  0  0  0  0  0  0  0  0
   24.9325  -18.9717  -16.4543 N   0  0  0  0  0  0  0  0  0  0  0  0
   23.5661  -18.6729  -16.0748 C   0  0  1  0  0  0  0  0  0  0  0  0
   22.7367  -18.4829  -17.3107 C   0  0  0  0  0  0  0  0  0  0  0  0
   22.8232  -17.1301  -17.8793 C   0  0  0  0  0  0  0  0  0  0  0  0
   23.4386  -16.0772  -17.2201 C   0  0  0  0  0  0  0  0  0  0  0  0
   23.3549  -14.9788  -17.9910 N   0  0  0  0  0  0  0  0  0  0  0  0
   22.7018  -15.3152  -19.1189 C   0  0  0  0  0  0  0  0  0  0  0  0
   22.3908  -16.6114  -19.0328 N   0  0  0  0  0  0  0  0  0  0  0  0
   23.0205  -19.7332  -15.1939 C   0  0  0  0  0  0  0  0  0  0  0  0
   22.9542  -20.9017  -15.6451 O   0  0  0  0  0  0  0  0  0  0  0  0
   22.5798  -19.4610  -13.8762 N   0  0  0  0  0  0  0  0  0  0  0  0
   22.0840  -20.6183  -13.0962 C   0  0  1  0  0  0  0  0  0  0  0  0
   22.5516  -20.4867  -11.6721 C   0  0  0  0  0  0  0  0  0  0  0  0
   23.9943  -20.7569  -11.5653 C   0  0  0  0  0  0  0  0  0  0  0  0
   24.8266  -21.1148  -12.6246 C   0  0  0  0  0  0  0  0  0  0  0  0
   26.0755  -21.2829  -12.1671 N   0  0  0  0  0  0  0  0  0  0  0  0
   26.0542  -21.0410  -10.8476 C   0  0  0  0  0  0  0  0  0  0  0  0
   24.7999  -20.7258  -10.4951 N   0  0  0  0  0  0  0  0  0  0  0  0
   20.6162  -20.4935  -13.1312 C   0  0  0  0  0  0  0  0  0  0  0  0
   19.8246  -21.5425  -12.6769 O   0  0  0  0  0  0  0  0  0  0  0  0
   20.0398  -19.4743  -13.5563 O   0  0  0  0  0  0  0  0  0  0  0  0
  1  5  1  0
  2  3  1  0
  2  1  1  0
  3  4  1  0
  4  5  1  0
  5  6  1  6
  6  7  2  0
  8  9  1  0
  8  6  1  0
  9 16  1  0
  9 10  1  6
 11 10  1  0
 11 15  1  0
 12 13  1  0
 12 11  2  0
 13 14  1  0
 14 15  2  0
 16 18  1  0
 16 17  2  0
 18 19  1  0
 19 26  1  0
 19 20  1  1
 21 20  1  0
 21 22  2  0
 23 22  1  0
 24 25  2  0
 24 23  1  0
 25 21  1  0
 26 28  2  0
 26 27  1  0
M  END
$$$$
