PHH.pdb
     RDKit          3D

 28 30  0  0  1  0  0  0  0  0999 V2000
   26.7149  -32.9682   -2.0345 N   0  0  0  0  0  0  0  0  0  0  0  0
   26.4811  -32.3794   -3.3500 C   0  0  0  0  0  0  0  0  0  0  0  0
   25.1239  -32.8256   -3.7921 C   0  0  0  0  0  0  0  0  0  0  0  0
   24.5990  -33.6500   -2.6127 C   0  0  0  0  0  0  0  0  0  0  0  0
   25.3995  -33.0243   -1.4732 C   0  0  1  0  0  0  0  0  0  0  0  0
   25.3323  -33.8541   -0.2431 C   0  0  0  0  0  0  0  0  0  0  0  0
   24.2445  -34.1028    0.2948 O   0  0  0  0  0  0  0  0  0  0  0  0
   26.5485  -34.3539    0.2990 N   0  0  0  0  0  0  0  0  0  0  0  0
   26.5798  -35.2366    1.4480 C   0  0  1  0  0  0  0  0  0  0  0  0
   27.8030  -36.1029    1.3767 C   0  0  0  0  0  0  0  0  0  0  0  0
   27.6219  -37.3172    0.5683 C   0  0  0  0  0  0  0  0  0  0  0  0
   26.3980  -37.6853    0.0312 C   0  0  0  0  0  0  0  0  0  0  0  0
   26.5551  -38.8332   -0.6511 N   0  0  0  0  0  0  0  0  0  0  0  0
   27.8479  -39.1959   -0.5561 C   0  0  0  0  0  0  0  0  0  0  0  0
   28.4722  -38.2727    0.1801 N   0  0  0  0  0  0  0  0  0  0  0  0
   26.5179  -34.4608    2.7097 C   0  0  0  0  0  0  0  0  0  0  0  0
   26.9739  -33.2923    2.7091 O   0  0  0  0  0  0  0  0  0  0  0  0
   25.9647  -35.0003    3.8961 N   0  0  0  0  0  0  0  0  0  0  0  0
   25.8570  -34.0783    5.0502 C   0  0  1  0  0  0  0  0  0  0  0  0
   24.5047  -33.4188    5.0269 C   0  0  0  0  0  0  0  0  0  0  0  0
   24.6111  -32.0163    4.5943 C   0  0  0  0  0  0  0  0  0  0  0  0
   25.7969  -31.3659    4.2569 C   0  0  0  0  0  0  0  0  0  0  0  0
   25.5228  -30.1000    3.9109 N   0  0  0  0  0  0  0  0  0  0  0  0
   24.1960  -29.9336    4.0206 C   0  0  0  0  0  0  0  0  0  0  0  0
   23.6568  -31.0900    4.4316 N   0  0  0  0  0  0  0  0  0  0  0  0
   25.9443  -34.9491    6.2357 C   0  0  0  0  0  0  0  0  0  0  0  0
   25.9277  -34.3858    7.5069 O   0  0  0  0  0  0  0  0  0  0  0  0
   26.0340  -36.1887    6.1520 O   0  0  0  0  0  0  0  0  0  0  0  0
  1  5  1  0
  2  3  1  0
  2  1  1  0
  3  4  1  0
  4  5  1  0
  5  6  1  1
  6  7  2  0
  8  9  1  0
  8  6  1  0
  9 16  1  0
  9 10  1  1
 11 10  1  0
 11 15  1  0
 12 13  1  0
 12 11  2  0
 13 14  1  0
 14 15  2  0
 16 18  1  0
 16 17  2  0
 18 19  1  0
 19 26  1  0
 19 20  1  6
 21 20  1  0
 21 22  2  0
 23 22  1  0
 24 25  2  0
 24 23  1  0
 25 21  1  0
 26 28  2  0
 26 27  1  0
M  END
$$$$
