PHH.pdb
     RDKit          3D

 28 30  0  0  1  0  0  0  0  0999 V2000
   23.0420  -13.9461  -19.7732 N   0  0  0  0  0  0  0  0  0  0  0  0
   23.5363  -14.9743  -20.6844 C   0  0  0  0  0  0  0  0  0  0  0  0
   22.4422  -15.2488  -21.6663 C   0  0  0  0  0  0  0  0  0  0  0  0
   21.3343  -14.2658  -21.2758 C   0  0  0  0  0  0  0  0  0  0  0  0
   22.1686  -13.1767  -20.6059 C   0  0  1  0  0  0  0  0  0  0  0  0
   21.3156  -12.2369  -19.8343 C   0  0  0  0  0  0  0  0  0  0  0  0
   20.7890  -11.2606  -20.3856 O   0  0  0  0  0  0  0  0  0  0  0  0
   21.1205  -12.4884  -18.4480 N   0  0  0  0  0  0  0  0  0  0  0  0
   20.2290  -11.6874  -17.6332 C   0  0  1  0  0  0  0  0  0  0  0  0
   19.5520  -12.5675  -16.6240 C   0  0  0  0  0  0  0  0  0  0  0  0
   18.5119  -11.8817  -15.8437 C   0  0  0  0  0  0  0  0  0  0  0  0
   18.2301  -10.5324  -15.9920 C   0  0  0  0  0  0  0  0  0  0  0  0
   17.2375  -10.2045  -15.1463 N   0  0  0  0  0  0  0  0  0  0  0  0
   16.8883  -11.3146  -14.4699 C   0  0  0  0  0  0  0  0  0  0  0  0
   17.6651  -12.3112  -14.9029 N   0  0  0  0  0  0  0  0  0  0  0  0
   20.9622  -10.5679  -16.9951 C   0  0  0  0  0  0  0  0  0  0  0  0
   22.1080  -10.7949  -16.5380 O   0  0  0  0  0  0  0  0  0  0  0  0
   20.4072   -9.2695  -16.8917 N   0  0  0  0  0  0  0  0  0  0  0  0
   21.2876   -8.2209  -16.3271 C   0  0  1  0  0  0  0  0  0  0  0  0
   21.4999   -7.1491  -17.3616 C   0  0  0  0  0  0  0  0  0  0  0  0
   22.3411   -6.0648  -16.8303 C   0  0  0  0  0  0  0  0  0  0  0  0
   23.4194   -6.2339  -15.9632 C   0  0  0  0  0  0  0  0  0  0  0  0
   23.9545   -5.0363  -15.6858 N   0  0  0  0  0  0  0  0  0  0  0  0
   23.2433   -4.1158  -16.3543 C   0  0  0  0  0  0  0  0  0  0  0  0
   22.2763   -4.7428  -17.0389 N   0  0  0  0  0  0  0  0  0  0  0  0
   20.5231   -7.6548  -15.2017 C   0  0  0  0  0  0  0  0  0  0  0  0
   21.1439   -6.7780  -14.3191 O   0  0  0  0  0  0  0  0  0  0  0  0
   19.3250   -7.9294  -14.9995 O   0  0  0  0  0  0  0  0  0  0  0  0
  1  5  1  0
  2  3  1  0
  2  1  1  0
  3  4  1  0
  4  5  1  0
  5  6  1  1
  6  7  2  0
  8  9  1  0
  8  6  1  0
  9 16  1  0
  9 10  1  1
 11 10  1  0
 11 15  1  0
 12 13  1  0
 12 11  2  0
 13 14  1  0
 14 15  2  0
 16 18  1  0
 16 17  2  0
 18 19  1  0
 19 26  1  0
 19 20  1  6
 21 20  1  0
 21 22  2  0
 23 22  1  0
 24 25  2  0
 24 23  1  0
 25 21  1  0
 26 28  2  0
 26 27  1  0
M  END
$$$$
