PHH.pdb
     RDKit          3D

 28 30  0  0  1  0  0  0  0  0999 V2000
   20.2071  -12.7123  -17.1710 N   0  0  0  0  0  0  0  0  0  0  0  0
   20.8463  -13.9491  -17.6111 C   0  0  0  0  0  0  0  0  0  0  0  0
   20.8539  -13.9275  -19.1064 C   0  0  0  0  0  0  0  0  0  0  0  0
   20.2316  -12.5743  -19.4637 C   0  0  0  0  0  0  0  0  0  0  0  0
   20.5665  -11.7852  -18.2004 C   0  0  1  0  0  0  0  0  0  0  0  0
   19.7942  -10.5183  -18.1309 C   0  0  0  0  0  0  0  0  0  0  0  0
   20.0370   -9.5848  -18.9081 O   0  0  0  0  0  0  0  0  0  0  0  0
   18.7707  -10.4069  -17.1496 N   0  0  0  0  0  0  0  0  0  0  0  0
   17.8969   -9.2536  -17.0690 C   0  0  1  0  0  0  0  0  0  0  0  0
   16.4753   -9.7149  -16.9353 C   0  0  0  0  0  0  0  0  0  0  0  0
   16.0291  -10.5833  -18.0343 C   0  0  0  0  0  0  0  0  0  0  0  0
   15.9692  -10.1554  -19.3516 C   0  0  0  0  0  0  0  0  0  0  0  0
   15.5262  -11.1703  -20.1142 N   0  0  0  0  0  0  0  0  0  0  0  0
   15.3061  -12.2260  -19.3086 C   0  0  0  0  0  0  0  0  0  0  0  0
   15.6140  -11.8535  -18.0634 N   0  0  0  0  0  0  0  0  0  0  0  0
   18.3018   -8.3631  -15.9551 C   0  0  0  0  0  0  0  0  0  0  0  0
   17.6640   -7.2959  -15.7886 O   0  0  0  0  0  0  0  0  0  0  0  0
   19.3748   -8.6847  -15.0892 N   0  0  0  0  0  0  0  0  0  0  0  0
   19.7248   -7.6687  -14.0700 C   0  0  1  0  0  0  0  0  0  0  0  0
   19.8448   -8.3403  -12.7288 C   0  0  0  0  0  0  0  0  0  0  0  0
   18.5222   -8.7336  -12.2175 C   0  0  0  0  0  0  0  0  0  0  0  0
   17.3144   -8.5595  -12.8914 C   0  0  0  0  0  0  0  0  0  0  0  0
   16.3142   -9.0307  -12.1332 N   0  0  0  0  0  0  0  0  0  0  0  0
   16.8577   -9.4976  -10.9989 C   0  0  0  0  0  0  0  0  0  0  0  0
   18.1843   -9.3149  -11.0585 N   0  0  0  0  0  0  0  0  0  0  0  0
   21.0509   -7.1708  -14.4761 C   0  0  0  0  0  0  0  0  0  0  0  0
   21.6621   -7.6875  -15.6130 O   0  0  0  0  0  0  0  0  0  0  0  0
   21.6619   -6.2930  -13.8376 O   0  0  0  0  0  0  0  0  0  0  0  0
  1  5  1  0
  2  3  1  0
  2  1  1  0
  3  4  1  0
  4  5  1  0
  5  6  1  1
  6  7  2  0
  8  9  1  0
  8  6  1  0
  9 16  1  0
  9 10  1  1
 11 10  1  0
 11 15  1  0
 12 13  1  0
 12 11  2  0
 13 14  1  0
 14 15  2  0
 16 18  1  0
 16 17  2  0
 18 19  1  0
 19 26  1  0
 19 20  1  1
 21 20  1  0
 21 22  2  0
 23 22  1  0
 24 25  2  0
 24 23  1  0
 25 21  1  0
 26 28  2  0
 26 27  1  0
M  END
$$$$
