PHH.pdb
     RDKit          3D

 28 30  0  0  1  0  0  0  0  0999 V2000
   26.0291  -18.7749  -14.4681 N   0  0  0  0  0  0  0  0  0  0  0  0
   27.3412  -18.2575  -14.8456 C   0  0  0  0  0  0  0  0  0  0  0  0
   28.3041  -19.3974  -14.7462 C   0  0  0  0  0  0  0  0  0  0  0  0
   27.4307  -20.5906  -14.3466 C   0  0  0  0  0  0  0  0  0  0  0  0
   26.0856  -20.1357  -14.9076 C   0  0  1  0  0  0  0  0  0  0  0  0
   24.9696  -20.9600  -14.3773 C   0  0  0  0  0  0  0  0  0  0  0  0
   24.8997  -22.1704  -14.6309 O   0  0  0  0  0  0  0  0  0  0  0  0
   23.9856  -20.3225  -13.5720 N   0  0  0  0  0  0  0  0  0  0  0  0
   22.9404  -21.0632  -12.8944 C   0  0  1  0  0  0  0  0  0  0  0  0
   23.1226  -20.9361  -11.4104 C   0  0  0  0  0  0  0  0  0  0  0  0
   24.5211  -21.0559  -10.9734 C   0  0  0  0  0  0  0  0  0  0  0  0
   25.1646  -20.0717  -10.2392 C   0  0  0  0  0  0  0  0  0  0  0  0
   26.4249  -20.4715   -9.9951 N   0  0  0  0  0  0  0  0  0  0  0  0
   26.5897  -21.6830  -10.5580 C   0  0  0  0  0  0  0  0  0  0  0  0
   25.4350  -22.0168  -11.1407 N   0  0  0  0  0  0  0  0  0  0  0  0
   21.6008  -20.6046  -13.3336 C   0  0  0  0  0  0  0  0  0  0  0  0
   20.5926  -21.1741  -12.8513 O   0  0  0  0  0  0  0  0  0  0  0  0
   21.4363  -19.5554  -14.2699 N   0  0  0  0  0  0  0  0  0  0  0  0
   20.3190  -19.7006  -15.2311 C   0  0  1  0  0  0  0  0  0  0  0  0
   20.8078  -20.4473  -16.4426 C   0  0  0  0  0  0  0  0  0  0  0  0
   21.8054  -19.6562  -17.1806 C   0  0  0  0  0  0  0  0  0  0  0  0
   22.2358  -18.3769  -16.8324 C   0  0  0  0  0  0  0  0  0  0  0  0
   23.1467  -17.9601  -17.7233 N   0  0  0  0  0  0  0  0  0  0  0  0
   23.3030  -18.9416  -18.6247 C   0  0  0  0  0  0  0  0  0  0  0  0
   22.4933  -19.9563  -18.2906 N   0  0  0  0  0  0  0  0  0  0  0  0
   19.3240  -20.5293  -14.5277 C   0  0  0  0  0  0  0  0  0  0  0  0
   19.6966  -21.7673  -14.0161 O   0  0  0  0  0  0  0  0  0  0  0  0
   18.1431  -20.1671  -14.3666 O   0  0  0  0  0  0  0  0  0  0  0  0
  1  5  1  0
  2  3  1  0
  2  1  1  0
  3  4  1  0
  4  5  1  0
  5  6  1  1
  6  7  2  0
  8  9  1  0
  8  6  1  0
  9 16  1  0
  9 10  1  1
 11 10  1  0
 11 15  1  0
 12 13  1  0
 12 11  2  0
 13 14  1  0
 14 15  2  0
 16 18  1  0
 16 17  2  0
 18 19  1  0
 19 26  1  0
 19 20  1  6
 21 20  1  0
 21 22  2  0
 23 22  1  0
 24 25  2  0
 24 23  1  0
 25 21  1  0
 26 28  2  0
 26 27  1  0
M  END
$$$$
