PHH.pdb
     RDKit          3D

 28 30  0  0  1  0  0  0  0  0999 V2000
   27.3531  -21.0834  -18.8036 N   0  0  0  0  0  0  0  0  0  0  0  0
   28.3263  -20.5626  -19.7594 C   0  0  0  0  0  0  0  0  0  0  0  0
   28.6203  -21.6649  -20.7263 C   0  0  0  0  0  0  0  0  0  0  0  0
   27.7043  -22.8083  -20.2792 C   0  0  0  0  0  0  0  0  0  0  0  0
   26.5992  -22.0107  -19.5910 C   0  0  1  0  0  0  0  0  0  0  0  0
   25.7268  -22.8887  -18.7700 C   0  0  0  0  0  0  0  0  0  0  0  0
   24.9952  -23.7335  -19.3045 O   0  0  0  0  0  0  0  0  0  0  0  0
   25.7543  -22.7331  -17.3565 N   0  0  0  0  0  0  0  0  0  0  0  0
   25.0787  -23.6521  -16.4625 C   0  0  1  0  0  0  0  0  0  0  0  0
   26.0518  -24.1541  -15.4366 C   0  0  0  0  0  0  0  0  0  0  0  0
   27.2776  -24.7252  -16.0132 C   0  0  0  0  0  0  0  0  0  0  0  0
   27.4527  -26.0870  -16.2050 C   0  0  0  0  0  0  0  0  0  0  0  0
   28.6665  -26.2931  -16.7453 N   0  0  0  0  0  0  0  0  0  0  0  0
   29.2591  -25.0941  -16.8979 C   0  0  0  0  0  0  0  0  0  0  0  0
   28.4089  -24.1651  -16.4525 N   0  0  0  0  0  0  0  0  0  0  0  0
   23.8957  -23.0090  -15.8421 C   0  0  0  0  0  0  0  0  0  0  0  0
   23.1068  -23.7296  -15.1850 O   0  0  0  0  0  0  0  0  0  0  0  0
   23.6404  -21.6225  -15.9726 N   0  0  0  0  0  0  0  0  0  0  0  0
   22.3654  -21.1318  -15.4007 C   0  0  1  0  0  0  0  0  0  0  0  0
   22.6573  -20.0083  -14.4433 C   0  0  0  0  0  0  0  0  0  0  0  0
   23.6004  -19.0455  -15.0343 C   0  0  0  0  0  0  0  0  0  0  0  0
   24.7229  -19.3790  -15.7906 C   0  0  0  0  0  0  0  0  0  0  0  0
   25.3509  -18.2560  -16.1670 N   0  0  0  0  0  0  0  0  0  0  0  0
   24.6553  -17.2225  -15.6688 C   0  0  0  0  0  0  0  0  0  0  0  0
   23.6056  -17.7063  -14.9900 N   0  0  0  0  0  0  0  0  0  0  0  0
   21.6186  -20.5966  -16.5528 C   0  0  0  0  0  0  0  0  0  0  0  0
   20.3187  -20.1356  -16.3771 O   0  0  0  0  0  0  0  0  0  0  0  0
   22.1052  -20.5365  -17.6979 O   0  0  0  0  0  0  0  0  0  0  0  0
  1  5  1  0
  2  3  1  0
  2  1  1  0
  3  4  1  0
  4  5  1  0
  5  6  1  1
  6  7  2  0
  8  9  1  0
  8  6  1  0
  9 16  1  0
  9 10  1  1
 11 10  1  0
 11 15  1  0
 12 13  1  0
 12 11  2  0
 13 14  1  0
 14 15  2  0
 16 18  1  0
 16 17  2  0
 18 19  1  0
 19 26  1  0
 19 20  1  1
 21 20  1  0
 21 22  2  0
 23 22  1  0
 24 25  2  0
 24 23  1  0
 25 21  1  0
 26 28  2  0
 26 27  1  0
M  END
$$$$
