PHH.pdb
     RDKit          3D

 28 30  0  0  1  0  0  0  0  0999 V2000
   26.9888  -21.7783  -16.4899 N   0  0  0  0  0  0  0  0  0  0  0  0
   28.2971  -22.2989  -16.8760 C   0  0  0  0  0  0  0  0  0  0  0  0
   29.1851  -21.1181  -17.1070 C   0  0  0  0  0  0  0  0  0  0  0  0
   28.3015  -19.9140  -16.7673 C   0  0  0  0  0  0  0  0  0  0  0  0
   27.3192  -20.5690  -15.7994 C   0  0  1  0  0  0  0  0  0  0  0  0
   26.1375  -19.7027  -15.5559 C   0  0  0  0  0  0  0  0  0  0  0  0
   26.2619  -18.6031  -14.9992 O   0  0  0  0  0  0  0  0  0  0  0  0
   24.8622  -20.1693  -15.9787 N   0  0  0  0  0  0  0  0  0  0  0  0
   23.6586  -19.3759  -15.8302 C   0  0  1  0  0  0  0  0  0  0  0  0
   23.0969  -19.0655  -17.1866 C   0  0  0  0  0  0  0  0  0  0  0  0
   23.9451  -18.1716  -17.9881 C   0  0  0  0  0  0  0  0  0  0  0  0
   23.8615  -16.7899  -17.9116 C   0  0  0  0  0  0  0  0  0  0  0  0
   24.7591  -16.2567  -18.7589 N   0  0  0  0  0  0  0  0  0  0  0  0
   25.4051  -17.2694  -19.3664 C   0  0  0  0  0  0  0  0  0  0  0  0
   24.9020  -18.4114  -18.8900 N   0  0  0  0  0  0  0  0  0  0  0  0
   22.6750  -20.0685  -14.9638 C   0  0  0  0  0  0  0  0  0  0  0  0
   22.3745  -21.2545  -15.2402 O   0  0  0  0  0  0  0  0  0  0  0  0
   22.0769  -19.4317  -13.8497 N   0  0  0  0  0  0  0  0  0  0  0  0
   21.2561  -20.2895  -12.9642 C   0  0  1  0  0  0  0  0  0  0  0  0
   21.5396  -19.9287  -11.5312 C   0  0  0  0  0  0  0  0  0  0  0  0
   22.8688  -20.4092  -11.1211 C   0  0  0  0  0  0  0  0  0  0  0  0
   23.7383  -21.1503  -11.9198 C   0  0  0  0  0  0  0  0  0  0  0  0
   24.8556  -21.4151  -11.2277 N   0  0  0  0  0  0  0  0  0  0  0  0
   24.7150  -20.8613  -10.0138 C   0  0  0  0  0  0  0  0  0  0  0  0
   23.5185  -20.2593   -9.9590 N   0  0  0  0  0  0  0  0  0  0  0  0
   19.8623  -19.9310  -13.2810 C   0  0  0  0  0  0  0  0  0  0  0  0
   18.8191  -20.6551  -12.7148 O   0  0  0  0  0  0  0  0  0  0  0  0
   19.5686  -18.9928  -14.0460 O   0  0  0  0  0  0  0  0  0  0  0  0
  1  5  1  0
  2  3  1  0
  2  1  1  0
  3  4  1  0
  4  5  1  0
  5  6  1  6
  6  7  2  0
  8  9  1  0
  8  6  1  0
  9 16  1  0
  9 10  1  6
 11 10  1  0
 11 15  1  0
 12 13  1  0
 12 11  2  0
 13 14  1  0
 14 15  2  0
 16 18  1  0
 16 17  2  0
 18 19  1  0
 19 26  1  0
 19 20  1  1
 21 20  1  0
 21 22  2  0
 23 22  1  0
 24 25  2  0
 24 23  1  0
 25 21  1  0
 26 28  2  0
 26 27  1  0
M  END
$$$$
