PHH.pdb
     RDKit          3D

 28 30  0  0  1  0  0  0  0  0999 V2000
   24.7363  -12.8510  -16.0133 N   0  0  0  0  0  0  0  0  0  0  0  0
   25.7573  -13.8263  -16.3848 C   0  0  0  0  0  0  0  0  0  0  0  0
   25.4115  -14.3193  -17.7537 C   0  0  0  0  0  0  0  0  0  0  0  0
   24.1682  -13.5117  -18.1386 C   0  0  0  0  0  0  0  0  0  0  0  0
   24.3768  -12.2722  -17.2720 C   0  0  1  0  0  0  0  0  0  0  0  0
   23.1432  -11.4485  -17.1967 C   0  0  0  0  0  0  0  0  0  0  0  0
   22.7472  -10.8090  -18.1810 O   0  0  0  0  0  0  0  0  0  0  0  0
   22.4307  -11.4142  -15.9663 N   0  0  0  0  0  0  0  0  0  0  0  0
   21.1837  -10.6919  -15.8128 C   0  0  1  0  0  0  0  0  0  0  0  0
   20.2509  -11.4879  -14.9480 C   0  0  0  0  0  0  0  0  0  0  0  0
   19.6604  -12.6500  -15.6277 C   0  0  0  0  0  0  0  0  0  0  0  0
   18.7944  -12.5298  -16.7035 C   0  0  0  0  0  0  0  0  0  0  0  0
   18.4291  -13.7610  -17.1018 N   0  0  0  0  0  0  0  0  0  0  0  0
   19.0444  -14.6525  -16.3027 C   0  0  0  0  0  0  0  0  0  0  0  0
   19.7793  -13.9656  -15.4238 N   0  0  0  0  0  0  0  0  0  0  0  0
   21.4254   -9.3335  -15.2704 C   0  0  0  0  0  0  0  0  0  0  0  0
   22.3567   -9.1833  -14.4437 O   0  0  0  0  0  0  0  0  0  0  0  0
   20.6415   -8.2201  -15.6582 N   0  0  0  0  0  0  0  0  0  0  0  0
   21.0161   -6.9144  -15.0681 C   0  0  1  0  0  0  0  0  0  0  0  0
   21.6584   -6.0626  -16.1293 C   0  0  0  0  0  0  0  0  0  0  0  0
   21.9386   -4.7107  -15.6201 C   0  0  0  0  0  0  0  0  0  0  0  0
   21.9638   -4.3466  -14.2747 C   0  0  0  0  0  0  0  0  0  0  0  0
   22.2509   -3.0408  -14.1763 N   0  0  0  0  0  0  0  0  0  0  0  0
   22.4076   -2.5705  -15.4231 C   0  0  0  0  0  0  0  0  0  0  0  0
   22.2182   -3.5807  -16.2836 N   0  0  0  0  0  0  0  0  0  0  0  0
   19.7365   -6.3006  -14.6716 C   0  0  0  0  0  0  0  0  0  0  0  0
   18.6036   -6.5051  -15.4513 O   0  0  0  0  0  0  0  0  0  0  0  0
   19.6191   -5.5940  -13.6525 O   0  0  0  0  0  0  0  0  0  0  0  0
  1  5  1  0
  2  3  1  0
  2  1  1  0
  3  4  1  0
  4  5  1  0
  5  6  1  1
  6  7  2  0
  8  9  1  0
  8  6  1  0
  9 16  1  0
  9 10  1  1
 11 10  1  0
 11 15  1  0
 12 13  1  0
 12 11  2  0
 13 14  1  0
 14 15  2  0
 16 18  1  0
 16 17  2  0
 18 19  1  0
 19 26  1  0
 19 20  1  6
 21 20  1  0
 21 22  2  0
 23 22  1  0
 24 25  2  0
 24 23  1  0
 25 21  1  0
 26 28  2  0
 26 27  1  0
M  END
$$$$
