HMV.pdb
     RDKit          3D

 26 26  0  0  1  0  0  0  0  0999 V2000
   10.4884  -14.2361   19.9523 N   0  0  0  0  0  0  0  0  0  0  0  0
    9.1735  -14.2343   20.5742 C   0  0  1  0  0  0  0  0  0  0  0  0
    8.3467  -15.2916   19.8707 C   0  0  0  0  0  0  0  0  0  0  0  0
    7.9194  -14.8202   18.5160 C   0  0  0  0  0  0  0  0  0  0  0  0
    8.2631  -13.6348   17.8977 C   0  0  0  0  0  0  0  0  0  0  0  0
    7.6749  -13.6079   16.7109 N   0  0  0  0  0  0  0  0  0  0  0  0
    6.9640  -14.7316   16.5396 C   0  0  0  0  0  0  0  0  0  0  0  0
    7.1203  -15.4651   17.6482 N   0  0  0  0  0  0  0  0  0  0  0  0
    9.2640  -14.6487   22.0085 C   0  0  0  0  0  0  0  0  0  0  0  0
   10.1744  -15.4433   22.3485 O   0  0  0  0  0  0  0  0  0  0  0  0
    5.4341  -11.8897   26.5858 C   0  0  0  0  0  0  0  0  0  0  0  0
    7.0508  -12.0533   27.4269 S   0  0  0  0  0  0  0  0  0  0  0  0
    7.9951  -13.3687   26.6130 C   0  0  0  0  0  0  0  0  0  0  0  0
    7.6858  -13.3071   25.1382 C   0  0  0  0  0  0  0  0  0  0  0  0
    8.5840  -14.2890   24.4174 C   0  0  2  0  0  0  0  0  0  0  0  0
    8.3631  -14.1785   22.9907 N   0  0  0  0  0  0  0  0  0  0  0  0
    8.3149  -15.6900   24.8895 C   0  0  0  0  0  0  0  0  0  0  0  0
    7.1852  -16.2161   24.7223 O   0  0  0  0  0  0  0  0  0  0  0  0
    9.3773  -18.9757   23.8201 C   0  0  0  0  0  0  0  0  0  0  0  0
    9.7400  -18.8755   25.2696 C   0  0  1  0  0  0  0  0  0  0  0  0
   11.2575  -18.7434   25.4542 C   0  0  0  0  0  0  0  0  0  0  0  0
    9.0079  -17.7949   26.0007 C   0  0  2  0  0  0  0  0  0  0  0  0
    9.3152  -16.4673   25.5368 N   0  0  0  0  0  0  0  0  0  0  0  0
    9.3645  -17.9020   27.4489 C   0  0  0  0  0  0  0  0  0  0  0  0
    9.0403  -19.0095   28.2211 O   0  0  0  0  0  0  0  0  0  0  0  0
    9.9852  -16.9688   28.0291 O   0  0  0  0  0  0  0  0  0  0  0  0
  2  1  1  6
  2  9  1  0
  3  2  1  0
  4  3  1  0
  5  4  2  0
  6  5  1  0
  7  6  1  0
  7  8  2  0
  8  4  1  0
  9 16  1  0
  9 10  2  0
 12 11  1  0
 12 13  1  0
 13 14  1  0
 15 14  1  1
 16 15  1  0
 17 15  1  0
 17 18  2  0
 20 19  1  6
 20 22  1  0
 21 20  1  0
 22 23  1  6
 23 17  1  0
 24 22  1  0
 24 25  1  0
 26 24  2  0
M  END
$$$$
