HMV.pdb
     RDKit          3D

 26 26  0  0  1  0  0  0  0  0999 V2000
    7.3035  -16.5722   20.5199 N   0  0  0  0  0  0  0  0  0  0  0  0
    8.7490  -16.6768   20.6429 C   0  0  1  0  0  0  0  0  0  0  0  0
    9.3502  -15.9745   19.4423 C   0  0  0  0  0  0  0  0  0  0  0  0
    8.6076  -14.7115   19.1363 C   0  0  0  0  0  0  0  0  0  0  0  0
    7.8383  -13.9639   20.0053 C   0  0  0  0  0  0  0  0  0  0  0  0
    7.3593  -12.9256   19.3363 N   0  0  0  0  0  0  0  0  0  0  0  0
    7.7904  -12.9745   18.0678 C   0  0  0  0  0  0  0  0  0  0  0  0
    8.5522  -14.0695   17.9564 N   0  0  0  0  0  0  0  0  0  0  0  0
    9.2334  -15.9427   21.8527 C   0  0  0  0  0  0  0  0  0  0  0  0
   10.4696  -15.7906   22.0089 O   0  0  0  0  0  0  0  0  0  0  0  0
    5.7728  -12.6381   27.2822 C   0  0  0  0  0  0  0  0  0  0  0  0
    7.1350  -11.9011   26.3080 S   0  0  0  0  0  0  0  0  0  0  0  0
    8.2867  -13.2185   25.8364 C   0  0  0  0  0  0  0  0  0  0  0  0
    7.7982  -13.8083   24.5371 C   0  0  0  0  0  0  0  0  0  0  0  0
    8.7706  -14.8831   24.1017 C   0  0  2  0  0  0  0  0  0  0  0  0
    8.3505  -15.4163   22.8227 N   0  0  0  0  0  0  0  0  0  0  0  0
    8.8436  -15.9733   25.1334 C   0  0  0  0  0  0  0  0  0  0  0  0
    7.8173  -16.6292   25.4456 O   0  0  0  0  0  0  0  0  0  0  0  0
   10.8613  -19.0948   24.8882 C   0  0  0  0  0  0  0  0  0  0  0  0
   11.1522  -18.4661   26.2157 C   0  0  1  0  0  0  0  0  0  0  0  0
   12.5669  -17.8727   26.2509 C   0  0  0  0  0  0  0  0  0  0  0  0
   10.1306  -17.4601   26.6429 C   0  0  2  0  0  0  0  0  0  0  0  0
   10.0619  -16.3025   25.7902 N   0  0  0  0  0  0  0  0  0  0  0  0
   10.4723  -17.0250   28.0322 C   0  0  0  0  0  0  0  0  0  0  0  0
   10.4485  -17.8918   29.1166 O   0  0  0  0  0  0  0  0  0  0  0  0
   10.8006  -15.8297   28.2692 O   0  0  0  0  0  0  0  0  0  0  0  0
  2  1  1  6
  2  9  1  0
  3  2  1  0
  4  3  1  0
  5  4  2  0
  6  5  1  0
  7  6  1  0
  7  8  2  0
  8  4  1  0
  9 16  1  0
  9 10  2  0
 12 11  1  0
 12 13  1  0
 13 14  1  0
 15 14  1  1
 16 15  1  0
 17 15  1  0
 17 18  2  0
 20 19  1  6
 20 22  1  0
 21 20  1  0
 22 23  1  6
 23 17  1  0
 24 22  1  0
 24 25  1  0
 26 24  2  0
M  END
$$$$
