HMV.pdb
     RDKit          3D

 26 26  0  0  1  0  0  0  0  0999 V2000
   10.0860  -13.6404   20.2521 N   0  0  0  0  0  0  0  0  0  0  0  0
    8.7878  -13.9072   20.8515 C   0  0  1  0  0  0  0  0  0  0  0  0
    8.1905  -15.0880   20.1131 C   0  0  0  0  0  0  0  0  0  0  0  0
    7.8717  -14.7251   18.6965 C   0  0  0  0  0  0  0  0  0  0  0  0
    7.3500  -13.5323   18.2373 C   0  0  0  0  0  0  0  0  0  0  0  0
    7.2208  -13.6228   16.9220 N   0  0  0  0  0  0  0  0  0  0  0  0
    7.6395  -14.8295   16.5143 C   0  0  0  0  0  0  0  0  0  0  0  0
    8.0350  -15.4948   17.6063 N   0  0  0  0  0  0  0  0  0  0  0  0
    8.9384  -14.3289   22.2785 C   0  0  0  0  0  0  0  0  0  0  0  0
   10.0611  -14.7296   22.6718 O   0  0  0  0  0  0  0  0  0  0  0  0
    6.7935  -10.6013   27.0613 C   0  0  0  0  0  0  0  0  0  0  0  0
    7.2022  -12.3720   26.8477 S   0  0  0  0  0  0  0  0  0  0  0  0
    6.3482  -12.9883   25.3728 C   0  0  0  0  0  0  0  0  0  0  0  0
    6.6316  -14.4657   25.2652 C   0  0  0  0  0  0  0  0  0  0  0  0
    7.9760  -14.6495   24.5950 C   0  0  2  0  0  0  0  0  0  0  0  0
    7.8642  -14.2922   23.1963 N   0  0  0  0  0  0  0  0  0  0  0  0
    8.4468  -16.0688   24.7445 C   0  0  0  0  0  0  0  0  0  0  0  0
    7.7450  -17.0237   24.3244 O   0  0  0  0  0  0  0  0  0  0  0  0
   11.9007  -19.4504   25.6598 C   0  0  0  0  0  0  0  0  0  0  0  0
   11.4748  -18.0738   25.2524 C   0  0  1  0  0  0  0  0  0  0  0  0
   11.7650  -17.8196   23.7673 C   0  0  0  0  0  0  0  0  0  0  0  0
   10.0516  -17.7588   25.5893 C   0  0  2  0  0  0  0  0  0  0  0  0
    9.6898  -16.3846   25.3601 N   0  0  0  0  0  0  0  0  0  0  0  0
    9.8419  -18.0858   27.0334 C   0  0  0  0  0  0  0  0  0  0  0  0
    9.8531  -19.3873   27.5168 O   0  0  0  0  0  0  0  0  0  0  0  0
    9.6434  -17.1692   27.8779 O   0  0  0  0  0  0  0  0  0  0  0  0
  2  1  1  6
  2  9  1  0
  3  2  1  0
  4  3  1  0
  5  4  2  0
  6  5  1  0
  7  6  1  0
  7  8  2  0
  8  4  1  0
  9 16  1  0
  9 10  2  0
 12 11  1  0
 12 13  1  0
 13 14  1  0
 15 14  1  6
 16 15  1  0
 17 15  1  0
 17 18  2  0
 20 19  1  6
 20 22  1  0
 21 20  1  0
 22 23  1  1
 23 17  1  0
 24 22  1  0
 24 25  1  0
 26 24  2  0
M  END
$$$$
