HMV.pdb
     RDKit          3D

 26 26  0  0  1  0  0  0  0  0999 V2000
   10.5547  -13.7112   20.2156 N   0  0  0  0  0  0  0  0  0  0  0  0
    9.3014  -14.1445   20.8133 C   0  0  1  0  0  0  0  0  0  0  0  0
    8.8582  -15.3867   20.0671 C   0  0  0  0  0  0  0  0  0  0  0  0
    8.4099  -15.0444   18.6807 C   0  0  0  0  0  0  0  0  0  0  0  0
    8.4897  -13.8155   18.0570 C   0  0  0  0  0  0  0  0  0  0  0  0
    7.9844  -13.9423   16.8390 N   0  0  0  0  0  0  0  0  0  0  0  0
    7.5810  -15.2073   16.6527 C   0  0  0  0  0  0  0  0  0  0  0  0
    7.8456  -15.8720   17.7839 N   0  0  0  0  0  0  0  0  0  0  0  0
    9.5056  -14.5531   22.2375 C   0  0  0  0  0  0  0  0  0  0  0  0
   10.6650  -14.8468   22.6185 O   0  0  0  0  0  0  0  0  0  0  0  0
    6.2749  -10.8431   27.1000 C   0  0  0  0  0  0  0  0  0  0  0  0
    6.0862  -12.6066   26.6505 S   0  0  0  0  0  0  0  0  0  0  0  0
    7.4434  -13.0688   25.5420 C   0  0  0  0  0  0  0  0  0  0  0  0
    7.3712  -14.5601   25.3292 C   0  0  0  0  0  0  0  0  0  0  0  0
    8.5972  -14.9951   24.5557 C   0  0  2  0  0  0  0  0  0  0  0  0
    8.4421  -14.6198   23.1659 N   0  0  0  0  0  0  0  0  0  0  0  0
    8.8003  -16.4783   24.6858 C   0  0  0  0  0  0  0  0  0  0  0  0
    8.0272  -17.2836   24.1073 O   0  0  0  0  0  0  0  0  0  0  0  0
   11.4247  -18.7706   23.5018 C   0  0  0  0  0  0  0  0  0  0  0  0
   11.3111  -18.9540   24.9837 C   0  0  1  0  0  0  0  0  0  0  0  0
   12.5187  -18.3492   25.7120 C   0  0  0  0  0  0  0  0  0  0  0  0
   10.0237  -18.4509   25.5562 C   0  0  2  0  0  0  0  0  0  0  0  0
    9.8623  -17.0238   25.4595 N   0  0  0  0  0  0  0  0  0  0  0  0
    9.9775  -18.8522   26.9960 C   0  0  0  0  0  0  0  0  0  0  0  0
    9.8871  -20.1766   27.4028 O   0  0  0  0  0  0  0  0  0  0  0  0
   10.0201  -17.9809   27.9080 O   0  0  0  0  0  0  0  0  0  0  0  0
  2  1  1  6
  2  9  1  0
  3  2  1  0
  4  3  1  0
  5  4  2  0
  6  5  1  0
  7  6  1  0
  7  8  2  0
  8  4  1  0
  9 16  1  0
  9 10  2  0
 12 11  1  0
 12 13  1  0
 13 14  1  0
 15 14  1  1
 16 15  1  0
 17 15  1  0
 17 18  2  0
 20 19  1  6
 20 22  1  0
 21 20  1  0
 22 23  1  1
 23 17  1  0
 24 22  1  0
 24 25  1  0
 26 24  2  0
M  END
$$$$
