HMV.pdb
     RDKit          3D

 26 26  0  0  1  0  0  0  0  0999 V2000
   12.5955  -17.4996   23.0103 N   0  0  0  0  0  0  0  0  0  0  0  0
   11.8802  -16.2338   23.0514 C   0  0  1  0  0  0  0  0  0  0  0  0
   11.5197  -15.8793   21.6229 C   0  0  0  0  0  0  0  0  0  0  0  0
   12.7492  -15.6012   20.8161 C   0  0  0  0  0  0  0  0  0  0  0  0
   13.5798  -14.5027   20.9117 C   0  0  0  0  0  0  0  0  0  0  0  0
   14.5498  -14.6457   20.0209 N   0  0  0  0  0  0  0  0  0  0  0  0
   14.3769  -15.7954   19.3533 C   0  0  0  0  0  0  0  0  0  0  0  0
   13.2741  -16.3713   19.8470 N   0  0  0  0  0  0  0  0  0  0  0  0
   10.5895  -16.3772   23.7935 C   0  0  0  0  0  0  0  0  0  0  0  0
   10.0497  -17.5092   23.8480 O   0  0  0  0  0  0  0  0  0  0  0  0
    7.1815  -11.1294   26.3495 C   0  0  0  0  0  0  0  0  0  0  0  0
    6.5677  -12.6433   27.1736 S   0  0  0  0  0  0  0  0  0  0  0  0
    6.8399  -14.0536   26.0685 C   0  0  0  0  0  0  0  0  0  0  0  0
    8.3081  -14.0882   25.7256 C   0  0  0  0  0  0  0  0  0  0  0  0
    8.5561  -15.2524   24.7910 C   0  0  2  0  0  0  0  0  0  0  0  0
    9.9588  -15.2862   24.4333 N   0  0  0  0  0  0  0  0  0  0  0  0
    7.6978  -15.1314   23.5635 C   0  0  0  0  0  0  0  0  0  0  0  0
    6.4493  -15.2593   23.6400 O   0  0  0  0  0  0  0  0  0  0  0  0
    6.9762  -13.3486   19.0485 C   0  0  0  0  0  0  0  0  0  0  0  0
    7.8834  -13.5889   20.2154 C   0  0  1  0  0  0  0  0  0  0  0  0
    8.1851  -12.2829   20.9622 C   0  0  0  0  0  0  0  0  0  0  0  0
    7.3939  -14.6489   21.1509 C   0  0  2  0  0  0  0  0  0  0  0  0
    8.2569  -14.8707   22.2815 N   0  0  0  0  0  0  0  0  0  0  0  0
    7.2688  -15.9204   20.3739 C   0  0  0  0  0  0  0  0  0  0  0  0
    6.3924  -16.0638   19.3066 O   0  0  0  0  0  0  0  0  0  0  0  0
    7.9712  -16.9264   20.6695 O   0  0  0  0  0  0  0  0  0  0  0  0
  2  1  1  6
  2  9  1  0
  3  2  1  0
  4  3  1  0
  5  4  2  0
  6  5  1  0
  7  6  1  0
  7  8  2  0
  8  4  1  0
  9 16  1  0
  9 10  2  0
 12 11  1  0
 12 13  1  0
 13 14  1  0
 15 14  1  1
 16 15  1  0
 17 15  1  0
 17 18  2  0
 20 19  1  6
 20 22  1  0
 21 20  1  0
 22 23  1  1
 23 17  1  0
 24 22  1  0
 24 25  1  0
 26 24  2  0
M  END
$$$$
