HMV.pdb
     RDKit          3D

 26 26  0  0  1  0  0  0  0  0999 V2000
   10.6647  -16.3560   20.2933 N   0  0  0  0  0  0  0  0  0  0  0  0
    9.6353  -16.7646   21.2361 C   0  0  1  0  0  0  0  0  0  0  0  0
    9.9584  -18.1828   21.6612 C   0  0  0  0  0  0  0  0  0  0  0  0
    9.4689  -19.1682   20.6467 C   0  0  0  0  0  0  0  0  0  0  0  0
    8.7872  -18.8943   19.4779 C   0  0  0  0  0  0  0  0  0  0  0  0
    8.5410  -20.0452   18.8697 N   0  0  0  0  0  0  0  0  0  0  0  0
    9.0382  -21.0523   19.6019 C   0  0  0  0  0  0  0  0  0  0  0  0
    9.6028  -20.5054   20.6853 N   0  0  0  0  0  0  0  0  0  0  0  0
    9.6861  -15.9266   22.4739 C   0  0  0  0  0  0  0  0  0  0  0  0
   10.7993  -15.4977   22.8644 O   0  0  0  0  0  0  0  0  0  0  0  0
    5.8689  -11.2210   26.0150 C   0  0  0  0  0  0  0  0  0  0  0  0
    5.5873  -12.9788   26.4376 S   0  0  0  0  0  0  0  0  0  0  0  0
    7.1435  -13.8818   26.2205 C   0  0  0  0  0  0  0  0  0  0  0  0
    7.1298  -14.4895   24.8403 C   0  0  0  0  0  0  0  0  0  0  0  0
    8.5431  -14.8926   24.4786 C   0  0  2  0  0  0  0  0  0  0  0  0
    8.5282  -15.6022   23.2166 N   0  0  0  0  0  0  0  0  0  0  0  0
    9.1378  -15.7478   25.5617 C   0  0  0  0  0  0  0  0  0  0  0  0
    9.0475  -17.0009   25.5103 O   0  0  0  0  0  0  0  0  0  0  0  0
   12.3794  -14.4769   28.1097 C   0  0  0  0  0  0  0  0  0  0  0  0
   11.2552  -15.2934   28.6683 C   0  0  1  0  0  0  0  0  0  0  0  0
   10.3357  -14.4406   29.5524 C   0  0  0  0  0  0  0  0  0  0  0  0
   10.4748  -16.0350   27.6294 C   0  0  2  0  0  0  0  0  0  0  0  0
    9.8181  -15.1806   26.6750 N   0  0  0  0  0  0  0  0  0  0  0  0
    9.4474  -16.8614   28.3348 C   0  0  0  0  0  0  0  0  0  0  0  0
    9.7807  -17.9103   29.1812 O   0  0  0  0  0  0  0  0  0  0  0  0
    8.2169  -16.6271   28.1800 O   0  0  0  0  0  0  0  0  0  0  0  0
  2  1  1  6
  2  9  1  0
  3  2  1  0
  4  3  1  0
  5  4  2  0
  6  5  1  0
  7  6  1  0
  7  8  2  0
  8  4  1  0
  9 16  1  0
  9 10  2  0
 12 11  1  0
 12 13  1  0
 13 14  1  0
 15 14  1  1
 16 15  1  0
 17 15  1  0
 17 18  2  0
 20 19  1  6
 20 22  1  0
 21 20  1  0
 22 23  1  6
 23 17  1  0
 24 22  1  0
 24 25  1  0
 26 24  2  0
M  END
$$$$
