HMV.pdb
     RDKit          3D

 26 26  0  0  1  0  0  0  0  0999 V2000
   10.0534  -16.3197   20.1649 N   0  0  0  0  0  0  0  0  0  0  0  0
    9.4000  -16.8350   21.3579 C   0  0  1  0  0  0  0  0  0  0  0  0
   10.0910  -18.1346   21.7180 C   0  0  0  0  0  0  0  0  0  0  0  0
    9.3526  -19.3062   21.1503 C   0  0  0  0  0  0  0  0  0  0  0  0
    8.2462  -19.2756   20.3252 C   0  0  0  0  0  0  0  0  0  0  0  0
    7.9057  -20.5265   20.0526 N   0  0  0  0  0  0  0  0  0  0  0  0
    8.7507  -21.3640   20.6708 C   0  0  0  0  0  0  0  0  0  0  0  0
    9.6306  -20.6080   21.3385 N   0  0  0  0  0  0  0  0  0  0  0  0
    9.6024  -15.9098   22.5156 C   0  0  0  0  0  0  0  0  0  0  0  0
   10.6885  -15.2869   22.6048 O   0  0  0  0  0  0  0  0  0  0  0  0
    5.8799  -11.2907   25.2128 C   0  0  0  0  0  0  0  0  0  0  0  0
    6.0861  -12.5097   26.5617 S   0  0  0  0  0  0  0  0  0  0  0  0
    7.6220  -13.4293   26.2798 C   0  0  0  0  0  0  0  0  0  0  0  0
    7.4865  -14.1516   24.9629 C   0  0  0  0  0  0  0  0  0  0  0  0
    8.7885  -14.8653   24.6700 C   0  0  2  0  0  0  0  0  0  0  0  0
    8.6166  -15.7135   23.5091 N   0  0  0  0  0  0  0  0  0  0  0  0
    9.2218  -15.6748   25.8596 C   0  0  0  0  0  0  0  0  0  0  0  0
    8.3707  -16.2204   26.6071 O   0  0  0  0  0  0  0  0  0  0  0  0
   11.0677  -13.6093   27.9198 C   0  0  0  0  0  0  0  0  0  0  0  0
   10.6841  -14.9485   28.4692 C   0  0  1  0  0  0  0  0  0  0  0  0
    9.2147  -14.9674   28.9106 C   0  0  0  0  0  0  0  0  0  0  0  0
   10.9892  -16.0875   27.5483 C   0  0  2  0  0  0  0  0  0  0  0  0
   10.5955  -15.8537   26.1836 N   0  0  0  0  0  0  0  0  0  0  0  0
   10.2736  -17.2950   28.0640 C   0  0  0  0  0  0  0  0  0  0  0  0
   10.5724  -17.8776   29.2884 O   0  0  0  0  0  0  0  0  0  0  0  0
    9.3549  -17.8355   27.3883 O   0  0  0  0  0  0  0  0  0  0  0  0
  2  1  1  6
  2  9  1  0
  3  2  1  0
  4  3  1  0
  5  4  2  0
  6  5  1  0
  7  6  1  0
  7  8  2  0
  8  4  1  0
  9 16  1  0
  9 10  2  0
 12 11  1  0
 12 13  1  0
 13 14  1  0
 15 14  1  1
 16 15  1  0
 17 15  1  0
 17 18  2  0
 20 19  1  6
 20 22  1  0
 21 20  1  0
 22 23  1  6
 23 17  1  0
 24 22  1  0
 24 25  1  0
 26 24  2  0
M  END
$$$$
