HMV.pdb
     RDKit          3D

 26 26  0  0  1  0  0  0  0  0999 V2000
   10.6403  -16.2387   20.0942 N   0  0  0  0  0  0  0  0  0  0  0  0
    9.6995  -16.7828   21.0609 C   0  0  1  0  0  0  0  0  0  0  0  0
   10.1707  -18.1819   21.4022 C   0  0  0  0  0  0  0  0  0  0  0  0
    9.8566  -19.1359   20.2926 C   0  0  0  0  0  0  0  0  0  0  0  0
    8.6876  -19.8469   20.1088 C   0  0  0  0  0  0  0  0  0  0  0  0
    8.8201  -20.5726   19.0084 N   0  0  0  0  0  0  0  0  0  0  0  0
   10.0309  -20.3570   18.4746 C   0  0  0  0  0  0  0  0  0  0  0  0
   10.6558  -19.4777   19.2670 N   0  0  0  0  0  0  0  0  0  0  0  0
    9.7339  -15.9990   22.3343 C   0  0  0  0  0  0  0  0  0  0  0  0
   10.8355  -15.5486   22.7336 O   0  0  0  0  0  0  0  0  0  0  0  0
    5.5801  -11.1913   25.8910 C   0  0  0  0  0  0  0  0  0  0  0  0
    5.4784  -13.0090   26.0743 S   0  0  0  0  0  0  0  0  0  0  0  0
    7.1400  -13.7039   25.8729 C   0  0  0  0  0  0  0  0  0  0  0  0
    7.1347  -14.5441   24.6205 C   0  0  0  0  0  0  0  0  0  0  0  0
    8.5560  -14.9691   24.3209 C   0  0  2  0  0  0  0  0  0  0  0  0
    8.5733  -15.7490   23.1011 N   0  0  0  0  0  0  0  0  0  0  0  0
    9.1185  -15.7625   25.4665 C   0  0  0  0  0  0  0  0  0  0  0  0
    9.0766  -17.0191   25.4567 O   0  0  0  0  0  0  0  0  0  0  0  0
   11.8245  -13.9753   28.2818 C   0  0  0  0  0  0  0  0  0  0  0  0
   10.9598  -15.1186   28.7148 C   0  0  1  0  0  0  0  0  0  0  0  0
    9.8454  -14.6458   29.6576 C   0  0  0  0  0  0  0  0  0  0  0  0
   10.4066  -15.9197   27.5788 C   0  0  2  0  0  0  0  0  0  0  0  0
    9.7134  -15.1311   26.5941 N   0  0  0  0  0  0  0  0  0  0  0  0
    9.4629  -16.9293   28.1499 C   0  0  0  0  0  0  0  0  0  0  0  0
    9.8951  -18.0495   28.8472 O   0  0  0  0  0  0  0  0  0  0  0  0
    8.2156  -16.7929   28.0136 O   0  0  0  0  0  0  0  0  0  0  0  0
  2  1  1  6
  2  9  1  0
  3  2  1  0
  4  3  1  0
  5  4  2  0
  6  5  1  0
  7  6  1  0
  7  8  2  0
  8  4  1  0
  9 16  1  0
  9 10  2  0
 12 11  1  0
 12 13  1  0
 13 14  1  0
 15 14  1  1
 16 15  1  0
 17 15  1  0
 17 18  2  0
 20 19  1  6
 20 22  1  0
 21 20  1  0
 22 23  1  6
 23 17  1  0
 24 22  1  0
 24 25  1  0
 26 24  2  0
M  END
$$$$
