VWS.pdb
     RDKit          3D

 28 29  0  0  1  0  0  0  0  0999 V2000
   15.1494  -27.8803    2.9215 C   0  0  0  0  0  0  0  0  0  0  0  0
   15.8590  -26.7102    3.5642 C   0  0  1  0  0  0  0  0  0  0  0  0
   17.3020  -27.1190    3.7513 C   0  0  0  0  0  0  0  0  0  0  0  0
   15.7279  -25.5290    2.6293 C   0  0  2  0  0  0  0  0  0  0  0  0
   16.3157  -25.8605    1.3426 N   0  0  0  0  0  0  0  0  0  0  0  0
   16.4318  -24.3293    3.1639 C   0  0  0  0  0  0  0  0  0  0  0  0
   17.5716  -24.0377    2.7354 O   0  0  0  0  0  0  0  0  0  0  0  0
   15.8549  -23.4854    4.1563 N   0  0  0  0  0  0  0  0  0  0  0  0
   16.4291  -22.3422    4.7751 C   0  0  1  0  0  0  0  0  0  0  0  0
   15.8429  -21.0286    4.4248 C   0  0  0  0  0  0  0  0  0  0  0  0
   16.2413  -20.5017    3.1217 C   0  0  0  0  0  0  0  0  0  0  0  0
   16.4667  -21.1533    1.9445 C   0  0  0  0  0  0  0  0  0  0  0  0
   16.8444  -20.2330    1.0118 N   0  0  0  0  0  0  0  0  0  0  0  0
   16.8724  -19.0006    1.5443 C   0  0  0  0  0  0  0  0  0  0  0  0
   17.1921  -17.7612    1.0123 C   0  0  0  0  0  0  0  0  0  0  0  0
   17.1420  -16.6325    1.8006 C   0  0  0  0  0  0  0  0  0  0  0  0
   16.7667  -16.7599    3.1327 C   0  0  0  0  0  0  0  0  0  0  0  0
   16.4589  -17.9947    3.6243 C   0  0  0  0  0  0  0  0  0  0  0  0
   16.4984  -19.1516    2.8618 C   0  0  0  0  0  0  0  0  0  0  0  0
   16.7452  -22.4912    6.2257 C   0  0  0  0  0  0  0  0  0  0  0  0
   15.9279  -23.0819    6.9533 O   0  0  0  0  0  0  0  0  0  0  0  0
   19.9040  -20.5169    8.0350 O   0  0  0  0  0  0  0  0  0  0  0  0
   19.5890  -21.7889    8.4968 C   0  0  0  0  0  0  0  0  0  0  0  0
   18.1462  -22.1562    8.2798 C   0  0  2  0  0  0  0  0  0  0  0  0
   17.9064  -22.0075    6.8280 N   0  0  0  0  0  0  0  0  0  0  0  0
   17.2250  -21.2589    9.0262 C   0  0  0  0  0  0  0  0  0  0  0  0
   17.1141  -21.4155   10.3908 O   0  0  0  0  0  0  0  0  0  0  0  0
   16.5819  -20.3963    8.4209 O   0  0  0  0  0  0  0  0  0  0  0  0
  2  1  1  6
  3  2  1  0
  4  2  1  0
  4  5  1  6
  6  4  1  0
  7  6  2  0
  8  6  1  0
  9  8  1  0
  9 10  1  1
 10 11  1  0
 11 19  1  0
 11 12  2  0
 12 13  1  0
 14 13  1  0
 14 15  2  0
 16 15  1  0
 17 16  2  0
 18 19  2  0
 18 17  1  0
 19 14  1  0
 20 25  1  0
 20  9  1  0
 21 20  2  0
 24 23  1  6
 23 22  1  0
 24 26  1  0
 24 25  1  0
 26 27  1  0
 28 26  2  0
M  END
$$$$
