VWS.pdb
     RDKit          3D

 28 29  0  0  1  0  0  0  0  0999 V2000
   26.6986  -18.6423  -19.8538 C   0  0  0  0  0  0  0  0  0  0  0  0
   26.1214  -19.2836  -18.6123 C   0  0  1  0  0  0  0  0  0  0  0  0
   25.5039  -20.5950  -19.0406 C   0  0  0  0  0  0  0  0  0  0  0  0
   27.2580  -19.4915  -17.6369 C   0  0  2  0  0  0  0  0  0  0  0  0
   28.2478  -20.3770  -18.2262 N   0  0  0  0  0  0  0  0  0  0  0  0
   26.7815  -20.1100  -16.3677 C   0  0  0  0  0  0  0  0  0  0  0  0
   26.8352  -21.3528  -16.2259 O   0  0  0  0  0  0  0  0  0  0  0  0
   26.2603  -19.3365  -15.2907 N   0  0  0  0  0  0  0  0  0  0  0  0
   25.7331  -19.7994  -14.0549 C   0  0  1  0  0  0  0  0  0  0  0  0
   26.2494  -19.1553  -12.8260 C   0  0  0  0  0  0  0  0  0  0  0  0
   27.1352  -19.9888  -12.0166 C   0  0  0  0  0  0  0  0  0  0  0  0
   28.2411  -20.7011  -12.3785 C   0  0  0  0  0  0  0  0  0  0  0  0
   28.7169  -21.3428  -11.2733 N   0  0  0  0  0  0  0  0  0  0  0  0
   27.9554  -21.0711  -10.2012 C   0  0  0  0  0  0  0  0  0  0  0  0
   28.0256  -21.4804   -8.8787 C   0  0  0  0  0  0  0  0  0  0  0  0
   27.0901  -21.0452   -7.9658 C   0  0  0  0  0  0  0  0  0  0  0  0
   26.0799  -20.1924   -8.3942 C   0  0  0  0  0  0  0  0  0  0  0  0
   26.0400  -19.8093   -9.7029 C   0  0  0  0  0  0  0  0  0  0  0  0
   26.9628  -20.2268  -10.6491 C   0  0  0  0  0  0  0  0  0  0  0  0
   24.2598  -20.0347  -14.0361 C   0  0  0  0  0  0  0  0  0  0  0  0
   23.5073  -19.1128  -14.3968 O   0  0  0  0  0  0  0  0  0  0  0  0
   20.5892  -23.1870  -13.4388 O   0  0  0  0  0  0  0  0  0  0  0  0
   21.9401  -22.8658  -13.4901 C   0  0  0  0  0  0  0  0  0  0  0  0
   22.1924  -21.3863  -13.5964 C   0  0  2  0  0  0  0  0  0  0  0  0
   23.6626  -21.2301  -13.6368 N   0  0  0  0  0  0  0  0  0  0  0  0
   21.6496  -20.6437  -12.4283 C   0  0  0  0  0  0  0  0  0  0  0  0
   20.3105  -20.3181  -12.4184 O   0  0  0  0  0  0  0  0  0  0  0  0
   22.3961  -20.3343  -11.4950 O   0  0  0  0  0  0  0  0  0  0  0  0
  2  1  1  6
  3  2  1  0
  4  2  1  0
  4  5  1  6
  6  4  1  0
  7  6  2  0
  8  6  1  0
  9  8  1  0
  9 10  1  1
 10 11  1  0
 11 19  1  0
 11 12  2  0
 12 13  1  0
 14 13  1  0
 14 15  2  0
 16 15  1  0
 17 16  2  0
 18 19  2  0
 18 17  1  0
 19 14  1  0
 20 25  1  0
 20  9  1  0
 21 20  2  0
 24 23  1  1
 23 22  1  0
 24 26  1  0
 24 25  1  0
 26 27  1  0
 28 26  2  0
M  END
$$$$
