VWS.pdb
     RDKit          3D

 28 29  0  0  1  0  0  0  0  0999 V2000
   28.8363  -26.6783  -19.0583 C   0  0  0  0  0  0  0  0  0  0  0  0
   28.0461  -25.5990  -18.3537 C   0  0  1  0  0  0  0  0  0  0  0  0
   26.6717  -26.1660  -18.0818 C   0  0  0  0  0  0  0  0  0  0  0  0
   28.7768  -25.2623  -17.0733 C   0  0  2  0  0  0  0  0  0  0  0  0
   28.7894  -26.4244  -16.2013 N   0  0  0  0  0  0  0  0  0  0  0  0
   28.1136  -24.1444  -16.3446 C   0  0  0  0  0  0  0  0  0  0  0  0
   27.2253  -24.3969  -15.4991 O   0  0  0  0  0  0  0  0  0  0  0  0
   28.4525  -22.7792  -16.5704 N   0  0  0  0  0  0  0  0  0  0  0  0
   27.8290  -21.6214  -16.0314 C   0  0  1  0  0  0  0  0  0  0  0  0
   28.6972  -20.4467  -15.7909 C   0  0  0  0  0  0  0  0  0  0  0  0
   28.0175  -19.2793  -15.2345 C   0  0  0  0  0  0  0  0  0  0  0  0
   27.3097  -19.1469  -14.0757 C   0  0  0  0  0  0  0  0  0  0  0  0
   26.8426  -17.8677  -14.0038 N   0  0  0  0  0  0  0  0  0  0  0  0
   27.2238  -17.1613  -15.0802 C   0  0  0  0  0  0  0  0  0  0  0  0
   26.9990  -15.8478  -15.4619 C   0  0  0  0  0  0  0  0  0  0  0  0
   27.5135  -15.3708  -16.6476 C   0  0  0  0  0  0  0  0  0  0  0  0
   28.2583  -16.2274  -17.4493 C   0  0  0  0  0  0  0  0  0  0  0  0
   28.4602  -17.5143  -17.0438 C   0  0  0  0  0  0  0  0  0  0  0  0
   27.9583  -18.0290  -15.8588 C   0  0  0  0  0  0  0  0  0  0  0  0
   26.5019  -21.2770  -16.6202 C   0  0  0  0  0  0  0  0  0  0  0  0
   26.4142  -21.1554  -17.8545 O   0  0  0  0  0  0  0  0  0  0  0  0
   23.0622  -22.1442  -14.8668 O   0  0  0  0  0  0  0  0  0  0  0  0
   23.0979  -21.7982  -16.2120 C   0  0  0  0  0  0  0  0  0  0  0  0
   24.0661  -20.6860  -16.5109 C   0  0  2  0  0  0  0  0  0  0  0  0
   25.3411  -21.0793  -15.8728 N   0  0  0  0  0  0  0  0  0  0  0  0
   23.6128  -19.3869  -15.9474 C   0  0  0  0  0  0  0  0  0  0  0  0
   22.4647  -18.8146  -16.4510 O   0  0  0  0  0  0  0  0  0  0  0  0
   24.2620  -18.8468  -15.0470 O   0  0  0  0  0  0  0  0  0  0  0  0
  2  1  1  1
  3  2  1  0
  4  2  1  0
  4  5  1  1
  6  4  1  0
  7  6  2  0
  8  6  1  0
  9  8  1  0
  9 10  1  6
 10 11  1  0
 11 19  1  0
 11 12  2  0
 12 13  1  0
 14 13  1  0
 14 15  2  0
 16 15  1  0
 17 16  2  0
 18 19  2  0
 18 17  1  0
 19 14  1  0
 20 25  1  0
 20  9  1  0
 21 20  2  0
 24 23  1  1
 23 22  1  0
 24 26  1  0
 24 25  1  0
 26 27  1  0
 28 26  2  0
M  END
$$$$
