VWS.pdb
     RDKit          3D

 28 29  0  0  1  0  0  0  0  0999 V2000
   25.2823  -19.8317  -14.0654 C   0  0  0  0  0  0  0  0  0  0  0  0
   26.6308  -20.3877  -14.4630 C   0  0  1  0  0  0  0  0  0  0  0  0
   26.9115  -19.9008  -15.8661 C   0  0  0  0  0  0  0  0  0  0  0  0
   27.6484  -19.8649  -13.4742 C   0  0  2  0  0  0  0  0  0  0  0  0
   28.9778  -20.2956  -13.8719 N   0  0  0  0  0  0  0  0  0  0  0  0
   27.3876  -20.3785  -12.1000 C   0  0  0  0  0  0  0  0  0  0  0  0
   27.8376  -21.4966  -11.7609 O   0  0  0  0  0  0  0  0  0  0  0  0
   26.6380  -19.6405  -11.1392 N   0  0  0  0  0  0  0  0  0  0  0  0
   26.3928  -19.9702   -9.7787 C   0  0  1  0  0  0  0  0  0  0  0  0
   26.6757  -18.9186   -8.7758 C   0  0  0  0  0  0  0  0  0  0  0  0
   26.5554  -19.3441   -7.3834 C   0  0  0  0  0  0  0  0  0  0  0  0
   25.4559  -19.4077   -6.5782 C   0  0  0  0  0  0  0  0  0  0  0  0
   25.8512  -19.8440   -5.3482 N   0  0  0  0  0  0  0  0  0  0  0  0
   27.1752  -20.0670   -5.3259 C   0  0  0  0  0  0  0  0  0  0  0  0
   28.0314  -20.5034   -4.3270 C   0  0  0  0  0  0  0  0  0  0  0  0
   29.3788  -20.6426   -4.5781 C   0  0  0  0  0  0  0  0  0  0  0  0
   29.8605  -20.3387   -5.8458 C   0  0  0  0  0  0  0  0  0  0  0  0
   28.9904  -19.9114   -6.8057 C   0  0  0  0  0  0  0  0  0  0  0  0
   27.6298  -19.7591   -6.5897 C   0  0  0  0  0  0  0  0  0  0  0  0
   25.1302  -20.7224   -9.5205 C   0  0  0  0  0  0  0  0  0  0  0  0
   24.0610  -20.2500   -9.9446 O   0  0  0  0  0  0  0  0  0  0  0  0
   25.1978  -24.3374   -7.6297 O   0  0  0  0  0  0  0  0  0  0  0  0
   24.1791  -24.1220   -8.5498 C   0  0  0  0  0  0  0  0  0  0  0  0
   23.7956  -22.6728   -8.6787 C   0  0  2  0  0  0  0  0  0  0  0  0
   25.0665  -21.9313   -8.8280 N   0  0  0  0  0  0  0  0  0  0  0  0
   23.0748  -22.1786   -7.4757 C   0  0  0  0  0  0  0  0  0  0  0  0
   23.6976  -21.2513   -6.6687 O   0  0  0  0  0  0  0  0  0  0  0  0
   21.9426  -22.5994   -7.2208 O   0  0  0  0  0  0  0  0  0  0  0  0
  2  1  1  1
  3  2  1  0
  4  2  1  0
  4  5  1  6
  6  4  1  0
  7  6  2  0
  8  6  1  0
  9  8  1  0
  9 10  1  1
 10 11  1  0
 11 19  1  0
 11 12  2  0
 12 13  1  0
 14 13  1  0
 14 15  2  0
 16 15  1  0
 17 16  2  0
 18 19  2  0
 18 17  1  0
 19 14  1  0
 20 25  1  0
 20  9  1  0
 21 20  2  0
 24 23  1  1
 23 22  1  0
 24 26  1  0
 24 25  1  0
 26 27  1  0
 28 26  2  0
M  END
$$$$
