NRA.pdb
     RDKit          3D

 25 24  0  0  1  0  0  0  0  0999 V2000
   26.0219  -21.3322  -11.8765 N   0  0  0  0  0  0  0  0  0  0  0  0
   27.1082  -20.4495  -12.0460 C   0  0  0  0  0  0  0  0  0  0  0  0
   28.1721  -20.4843  -11.3568 O   0  0  0  0  0  0  0  0  0  0  0  0
   27.0118  -19.3930  -13.1150 C   0  0  0  0  0  0  0  0  0  0  0  0
   25.5997  -19.4074  -13.6770 C   0  0  2  0  0  0  0  0  0  0  0  0
   25.2327  -20.7397  -14.0664 N   0  0  0  0  0  0  0  0  0  0  0  0
   25.5839  -18.4377  -14.8022 C   0  0  0  0  0  0  0  0  0  0  0  0
   26.0023  -18.8449  -15.9110 O   0  0  0  0  0  0  0  0  0  0  0  0
   19.4297  -12.2947  -15.5645 N   0  0  0  0  0  0  0  0  0  0  0  0
   19.2302  -13.6622  -15.8741 C   0  0  0  0  0  0  0  0  0  0  0  0
   18.0377  -14.1644  -16.1043 N   0  0  0  0  0  0  0  0  0  0  0  0
   20.2996  -14.5922  -15.9541 N   0  0  0  0  0  0  0  0  0  0  0  0
   21.6675  -14.2848  -15.6709 C   0  0  0  0  0  0  0  0  0  0  0  0
   22.5799  -15.4720  -15.8857 C   0  0  0  0  0  0  0  0  0  0  0  0
   24.0164  -15.0522  -15.5248 C   0  0  0  0  0  0  0  0  0  0  0  0
   24.9741  -16.1618  -15.7353 C   0  0  2  0  0  0  0  0  0  0  0  0
   25.1287  -17.1072  -14.6818 N   0  0  0  0  0  0  0  0  0  0  0  0
   26.3271  -15.7148  -16.1846 C   0  0  0  0  0  0  0  0  0  0  0  0
   27.2279  -15.5250  -15.3389 O   0  0  0  0  0  0  0  0  0  0  0  0
   18.0493  -15.1889  -16.3812 C   0  0  0  0  0  0  0  0  0  0  0  0
   28.9629  -16.1631  -18.0111 C   0  0  1  0  0  0  0  0  0  0  0  0
   27.8925  -15.1190  -18.0944 N   0  0  0  0  0  0  0  0  0  0  0  0
   26.6238  -15.4920  -17.5494 C   0  0  0  0  0  0  0  0  0  0  0  0
   27.7409  -14.7719  -19.5676 O   0  0  0  0  0  0  0  0  0  0  0  0
   26.6686  -15.0434  -20.1307 O   0  0  0  0  0  0  0  0  0  0  0  0
  2  1  1  0
  3  2  2  0
  4  2  1  0
  5  4  1  0
  5  6  1  6
  7  5  1  0
  7  8  2  0
  9 10  1  0
 10 11  2  0
 12 13  1  0
 12 10  1  0
 14 13  1  0
 15 14  1  0
 16 15  1  1
 16 17  1  0
 17  7  1  0
 18 16  1  0
 19 18  2  0
 21 20  1  1
 21 22  1  0
 21 23  1  0
 22 18  1  0
 23 25  1  0
 24 23  2  0
M  END
$$$$
