NRA.pdb
     RDKit          3D

 25 24  0  0  1  0  0  0  0  0999 V2000
   26.4695  -16.2494  -19.9635 N   0  0  0  0  0  0  0  0  0  0  0  0
   25.1422  -15.9601  -19.5859 C   0  0  0  0  0  0  0  0  0  0  0  0
   24.5453  -14.8723  -19.8477 O   0  0  0  0  0  0  0  0  0  0  0  0
   24.3710  -17.0052  -18.8235 C   0  0  0  0  0  0  0  0  0  0  0  0
   25.3007  -18.1731  -18.5374 C   0  0  2  0  0  0  0  0  0  0  0  0
   25.5218  -18.9374  -19.7326 N   0  0  0  0  0  0  0  0  0  0  0  0
   24.6698  -18.9560  -17.4440 C   0  0  0  0  0  0  0  0  0  0  0  0
   23.8345  -19.8288  -17.7770 O   0  0  0  0  0  0  0  0  0  0  0  0
   25.9669  -20.0174   -8.4380 N   0  0  0  0  0  0  0  0  0  0  0  0
   24.7942  -20.6918   -8.8573 C   0  0  0  0  0  0  0  0  0  0  0  0
   24.0501  -21.3899   -8.0288 N   0  0  0  0  0  0  0  0  0  0  0  0
   24.3378  -20.6688  -10.2011 N   0  0  0  0  0  0  0  0  0  0  0  0
   24.9421  -19.9100  -11.2523 C   0  0  0  0  0  0  0  0  0  0  0  0
   24.2114  -20.0664  -12.5675 C   0  0  0  0  0  0  0  0  0  0  0  0
   25.0133  -19.3340  -13.6587 C   0  0  0  0  0  0  0  0  0  0  0  0
   24.3379  -19.4156  -14.9740 C   0  0  2  0  0  0  0  0  0  0  0  0
   24.9625  -18.7659  -16.0765 N   0  0  0  0  0  0  0  0  0  0  0  0
   22.8962  -19.0254  -14.9379 C   0  0  0  0  0  0  0  0  0  0  0  0
   22.5771  -17.8246  -15.0749 O   0  0  0  0  0  0  0  0  0  0  0  0
   23.2248  -21.8695   -8.4929 C   0  0  0  0  0  0  0  0  0  0  0  0
   20.0871  -18.2759  -14.5145 C   0  0  2  0  0  0  0  0  0  0  0  0
   20.4661  -19.7161  -14.6726 N   0  0  0  0  0  0  0  0  0  0  0  0
   21.8699  -19.9796  -14.7465 C   0  0  0  0  0  0  0  0  0  0  0  0
   19.7801  -20.2072  -15.9383 O   0  0  0  0  0  0  0  0  0  0  0  0
   20.4844  -20.6672  -16.8509 O   0  0  0  0  0  0  0  0  0  0  0  0
  2  1  1  0
  3  2  2  0
  4  2  1  0
  5  4  1  0
  5  6  1  6
  7  5  1  0
  7  8  2  0
  9 10  1  0
 10 11  2  0
 12 13  1  0
 12 10  1  0
 14 13  1  0
 15 14  1  0
 16 15  1  1
 16 17  1  0
 17  7  1  0
 18 16  1  0
 19 18  2  0
 21 20  1  1
 21 22  1  0
 21 23  1  0
 22 18  1  0
 23 25  1  0
 24 23  2  0
M  END
$$$$
