NRA.pdb
     RDKit          3D

 25 24  0  0  1  0  0  0  0  0999 V2000
   17.4632  -24.5464  -13.5637 N   0  0  0  0  0  0  0  0  0  0  0  0
   16.6519  -23.3992  -13.4471 C   0  0  0  0  0  0  0  0  0  0  0  0
   15.4117  -23.3708  -13.7104 O   0  0  0  0  0  0  0  0  0  0  0  0
   17.2879  -22.1175  -12.9771 C   0  0  0  0  0  0  0  0  0  0  0  0
   18.7651  -22.3776  -12.7314 C   0  0  2  0  0  0  0  0  0  0  0  0
   18.9556  -22.9902  -11.4469 N   0  0  0  0  0  0  0  0  0  0  0  0
   19.4523  -21.0679  -12.8688 C   0  0  0  0  0  0  0  0  0  0  0  0
   19.0070  -20.1165  -12.1854 O   0  0  0  0  0  0  0  0  0  0  0  0
   24.1637  -23.7561  -13.9464 N   0  0  0  0  0  0  0  0  0  0  0  0
   25.1579  -23.2922  -14.8419 C   0  0  0  0  0  0  0  0  0  0  0  0
   25.8356  -24.1041  -15.6223 N   0  0  0  0  0  0  0  0  0  0  0  0
   25.5003  -21.9197  -14.9605 N   0  0  0  0  0  0  0  0  0  0  0  0
   24.8408  -20.8546  -14.2702 C   0  0  0  0  0  0  0  0  0  0  0  0
   23.3596  -20.8037  -14.5724 C   0  0  0  0  0  0  0  0  0  0  0  0
   22.7370  -19.6546  -13.7587 C   0  0  0  0  0  0  0  0  0  0  0  0
   21.2633  -19.6266  -13.9009 C   0  0  2  0  0  0  0  0  0  0  0  0
   20.5603  -20.8510  -13.7156 N   0  0  0  0  0  0  0  0  0  0  0  0
   20.7906  -18.9856  -15.1650 C   0  0  0  0  0  0  0  0  0  0  0  0
   20.7353  -19.6592  -16.2166 O   0  0  0  0  0  0  0  0  0  0  0  0
   26.5270  -23.6106  -16.2585 C   0  0  0  0  0  0  0  0  0  0  0  0
   19.1987  -15.6684  -16.1343 C   0  0  1  0  0  0  0  0  0  0  0  0
   20.0345  -16.8867  -16.3798 N   0  0  0  0  0  0  0  0  0  0  0  0
   20.4045  -17.6258  -15.2126 C   0  0  0  0  0  0  0  0  0  0  0  0
   21.2823  -16.4147  -17.1106 O   0  0  0  0  0  0  0  0  0  0  0  0
   22.3722  -16.4800  -16.5203 O   0  0  0  0  0  0  0  0  0  0  0  0
  2  1  1  0
  3  2  2  0
  4  2  1  0
  5  4  1  0
  5  6  1  1
  7  5  1  0
  7  8  2  0
  9 10  1  0
 10 11  2  0
 12 13  1  0
 12 10  1  0
 14 13  1  0
 15 14  1  0
 16 15  1  6
 16 17  1  0
 17  7  1  0
 18 16  1  0
 19 18  2  0
 21 20  1  6
 21 22  1  0
 21 23  1  0
 22 18  1  0
 23 25  1  0
 24 23  2  0
M  END
$$$$
