NRA.pdb
     RDKit          3D

 25 24  0  0  1  0  0  0  0  0999 V2000
   27.6741  -26.5111  -16.9644 N   0  0  0  0  0  0  0  0  0  0  0  0
   27.2925  -25.3563  -17.6776 C   0  0  0  0  0  0  0  0  0  0  0  0
   27.8005  -24.9981  -18.7830 O   0  0  0  0  0  0  0  0  0  0  0  0
   26.2090  -24.4839  -17.1003 C   0  0  0  0  0  0  0  0  0  0  0  0
   25.8007  -25.0557  -15.7525 C   0  0  2  0  0  0  0  0  0  0  0  0
   25.0348  -26.2566  -15.9329 N   0  0  0  0  0  0  0  0  0  0  0  0
   25.0567  -23.9811  -15.0467 C   0  0  0  0  0  0  0  0  0  0  0  0
   23.8578  -23.8117  -15.3695 O   0  0  0  0  0  0  0  0  0  0  0  0
   22.4091  -20.9702   -7.3840 N   0  0  0  0  0  0  0  0  0  0  0  0
   22.0929  -20.5652   -8.7038 C   0  0  0  0  0  0  0  0  0  0  0  0
   20.8561  -20.5076   -9.1445 N   0  0  0  0  0  0  0  0  0  0  0  0
   23.0855  -20.1967   -9.6492 N   0  0  0  0  0  0  0  0  0  0  0  0
   24.0953  -21.0757  -10.1526 C   0  0  0  0  0  0  0  0  0  0  0  0
   24.7423  -20.5461  -11.4132 C   0  0  0  0  0  0  0  0  0  0  0  0
   25.5593  -21.6826  -12.0542 C   0  0  0  0  0  0  0  0  0  0  0  0
   24.9854  -22.0951  -13.3554 C   0  0  2  0  0  0  0  0  0  0  0  0
   25.6265  -23.1600  -14.0502 N   0  0  0  0  0  0  0  0  0  0  0  0
   24.7661  -20.9627  -14.3050 C   0  0  0  0  0  0  0  0  0  0  0  0
   25.7489  -20.3415  -14.7639 O   0  0  0  0  0  0  0  0  0  0  0  0
   20.7796  -20.3167  -10.1857 C   0  0  0  0  0  0  0  0  0  0  0  0
   21.6802  -19.2501  -15.8033 C   0  0  1  0  0  0  0  0  0  0  0  0
   23.1429  -19.4827  -15.5809 N   0  0  0  0  0  0  0  0  0  0  0  0
   23.4687  -20.5628  -14.7019 C   0  0  0  0  0  0  0  0  0  0  0  0
   23.7092  -18.1813  -15.0337 O   0  0  0  0  0  0  0  0  0  0  0  0
   23.9388  -18.1032  -13.8164 O   0  0  0  0  0  0  0  0  0  0  0  0
  2  1  1  0
  3  2  2  0
  4  2  1  0
  5  4  1  0
  5  6  1  6
  7  5  1  0
  7  8  2  0
  9 10  1  0
 10 11  2  0
 12 13  1  0
 12 10  1  0
 14 13  1  0
 15 14  1  0
 16 15  1  1
 16 17  1  0
 17  7  1  0
 18 16  1  0
 19 18  2  0
 21 20  1  6
 21 22  1  0
 21 23  1  0
 22 18  1  0
 23 25  1  0
 24 23  2  0
M  END
$$$$
