NRA.pdb
     RDKit          3D

 25 24  0  0  1  0  0  0  0  0999 V2000
   24.2015  -20.2824   -8.3861 N   0  0  0  0  0  0  0  0  0  0  0  0
   25.1362  -20.7549   -9.3300 C   0  0  0  0  0  0  0  0  0  0  0  0
   25.8007  -21.8275   -9.2031 O   0  0  0  0  0  0  0  0  0  0  0  0
   25.3673  -19.9425  -10.5770 C   0  0  0  0  0  0  0  0  0  0  0  0
   24.4168  -20.4378  -11.6546 C   0  0  2  0  0  0  0  0  0  0  0  0
   24.5690  -21.8534  -11.8400 N   0  0  0  0  0  0  0  0  0  0  0  0
   24.7152  -19.6467  -12.8759 C   0  0  0  0  0  0  0  0  0  0  0  0
   24.7517  -18.4002  -12.7523 O   0  0  0  0  0  0  0  0  0  0  0  0
   27.3460  -22.3855  -18.3951 N   0  0  0  0  0  0  0  0  0  0  0  0
   28.1405  -22.8148  -17.3041 C   0  0  0  0  0  0  0  0  0  0  0  0
   28.3565  -24.0858  -17.0487 N   0  0  0  0  0  0  0  0  0  0  0  0
   28.7576  -21.9075  -16.4037 N   0  0  0  0  0  0  0  0  0  0  0  0
   28.7196  -20.4833  -16.5307 C   0  0  0  0  0  0  0  0  0  0  0  0
   27.6933  -19.8518  -15.6164 C   0  0  0  0  0  0  0  0  0  0  0  0
   26.2973  -20.0737  -16.2265 C   0  0  0  0  0  0  0  0  0  0  0  0
   25.2320  -19.5290  -15.3541 C   0  0  2  0  0  0  0  0  0  0  0  0
   24.9546  -20.2227  -14.1419 N   0  0  0  0  0  0  0  0  0  0  0  0
   23.9444  -19.2665  -16.0650 C   0  0  0  0  0  0  0  0  0  0  0  0
   23.0039  -20.0834  -15.9624 O   0  0  0  0  0  0  0  0  0  0  0  0
   28.9732  -24.2548  -16.2016 C   0  0  0  0  0  0  0  0  0  0  0  0
   22.5621  -16.3625  -18.1453 C   0  0  1  0  0  0  0  0  0  0  0  0
   22.5445  -17.7216  -17.5163 N   0  0  0  0  0  0  0  0  0  0  0  0
   23.7547  -18.1143  -16.8631 C   0  0  0  0  0  0  0  0  0  0  0  0
   22.2122  -18.7072  -18.6263 O   0  0  0  0  0  0  0  0  0  0  0  0
   23.1200  -19.4323  -19.0631 O   0  0  0  0  0  0  0  0  0  0  0  0
  2  1  1  0
  3  2  2  0
  4  2  1  0
  5  4  1  0
  5  6  1  6
  7  5  1  0
  7  8  2  0
  9 10  1  0
 10 11  2  0
 12 13  1  0
 12 10  1  0
 14 13  1  0
 15 14  1  0
 16 15  1  6
 16 17  1  0
 17  7  1  0
 18 16  1  0
 19 18  2  0
 21 20  1  1
 21 22  1  0
 21 23  1  0
 22 18  1  0
 23 25  1  0
 24 23  2  0
M  END
$$$$
