NRA.pdb
     RDKit          3D

 25 24  0  0  1  0  0  0  0  0999 V2000
   46.4190  -13.7888   -6.3479 N   0  0  0  0  0  0  0  0  0  0  0  0
   46.1697  -12.4354   -6.0411 C   0  0  0  0  0  0  0  0  0  0  0  0
   46.3003  -11.9283   -4.8861 O   0  0  0  0  0  0  0  0  0  0  0  0
   45.7210  -11.5208   -7.1504 C   0  0  0  0  0  0  0  0  0  0  0  0
   45.4593  -12.3622   -8.3888 C   0  0  2  0  0  0  0  0  0  0  0  0
   46.6875  -12.9216   -8.8789 N   0  0  0  0  0  0  0  0  0  0  0  0
   44.7834  -11.4727   -9.3676 C   0  0  0  0  0  0  0  0  0  0  0  0
   45.5103  -10.8954  -10.2094 O   0  0  0  0  0  0  0  0  0  0  0  0
   39.1532  -12.6966   -6.9948 N   0  0  0  0  0  0  0  0  0  0  0  0
   38.3114  -11.5601   -7.0700 C   0  0  0  0  0  0  0  0  0  0  0  0
   37.5726  -11.1641   -6.0577 N   0  0  0  0  0  0  0  0  0  0  0  0
   38.1987  -10.7680   -8.2424 N   0  0  0  0  0  0  0  0  0  0  0  0
   39.0144  -10.9194   -9.4077 C   0  0  0  0  0  0  0  0  0  0  0  0
   40.4632  -10.5738   -9.1442 C   0  0  0  0  0  0  0  0  0  0  0  0
   41.2331  -10.6612  -10.4745 C   0  0  0  0  0  0  0  0  0  0  0  0
   42.6778  -10.3992  -10.2825 C   0  0  2  0  0  0  0  0  0  0  0  0
   43.3894  -11.2531   -9.3924 N   0  0  0  0  0  0  0  0  0  0  0  0
   42.9944   -8.9787   -9.9445 C   0  0  0  0  0  0  0  0  0  0  0  0
   42.8623   -8.5791   -8.7674 O   0  0  0  0  0  0  0  0  0  0  0  0
   36.9878  -10.3028   -6.2640 C   0  0  0  0  0  0  0  0  0  0  0  0
   44.4032   -5.9890  -11.8801 C   0  0  1  0  0  0  0  0  0  0  0  0
   43.7819   -6.6884  -10.7105 N   0  0  0  0  0  0  0  0  0  0  0  0
   43.4383   -8.0602  -10.9241 C   0  0  0  0  0  0  0  0  0  0  0  0
   42.5376   -5.8943  -10.3431 O   0  0  0  0  0  0  0  0  0  0  0  0
   42.6828   -4.7697   -9.8383 O   0  0  0  0  0  0  0  0  0  0  0  0
  2  1  1  0
  3  2  2  0
  4  2  1  0
  5  4  1  0
  5  6  1  6
  7  5  1  0
  7  8  2  0
  9 10  1  0
 10 11  2  0
 12 13  1  0
 12 10  1  0
 14 13  1  0
 15 14  1  0
 16 15  1  1
 16 17  1  0
 17  7  1  0
 18 16  1  0
 19 18  2  0
 21 20  1  1
 21 22  1  0
 21 23  1  0
 22 18  1  0
 23 25  1  0
 24 23  2  0
M  END
$$$$
