NRA.pdb
     RDKit          3D

 25 24  0  0  1  0  0  0  0  0999 V2000
   12.6153  -18.8454    3.1772 N   0  0  0  0  0  0  0  0  0  0  0  0
   13.4531  -19.9115    3.5636 C   0  0  0  0  0  0  0  0  0  0  0  0
   13.3177  -21.1078    3.1653 O   0  0  0  0  0  0  0  0  0  0  0  0
   14.5891  -19.6226    4.5094 C   0  0  0  0  0  0  0  0  0  0  0  0
   15.6553  -18.8458    3.7544 C   0  0  2  0  0  0  0  0  0  0  0  0
   16.2517  -19.6730    2.7438 N   0  0  0  0  0  0  0  0  0  0  0  0
   16.6250  -18.3638    4.7712 C   0  0  0  0  0  0  0  0  0  0  0  0
   17.6469  -19.0639    4.9607 O   0  0  0  0  0  0  0  0  0  0  0  0
   20.4617  -10.7666    6.2616 N   0  0  0  0  0  0  0  0  0  0  0  0
   20.6717  -11.4980    7.4561 C   0  0  0  0  0  0  0  0  0  0  0  0
   21.4634  -11.0691    8.4134 N   0  0  0  0  0  0  0  0  0  0  0  0
   20.0484  -12.7484    7.7068 N   0  0  0  0  0  0  0  0  0  0  0  0
   18.9351  -13.2641    6.9715 C   0  0  0  0  0  0  0  0  0  0  0  0
   18.4878  -14.6169    7.4792 C   0  0  0  0  0  0  0  0  0  0  0  0
   17.3418  -15.1179    6.5816 C   0  0  0  0  0  0  0  0  0  0  0  0
   17.3928  -16.5876    6.4076 C   0  0  2  0  0  0  0  0  0  0  0  0
   16.4515  -17.1785    5.5175 N   0  0  0  0  0  0  0  0  0  0  0  0
   17.3843  -17.3487    7.6933 C   0  0  0  0  0  0  0  0  0  0  0  0
   16.2944  -17.6640    8.2179 O   0  0  0  0  0  0  0  0  0  0  0  0
   21.6353  -11.7823    9.1804 C   0  0  0  0  0  0  0  0  0  0  0  0
   18.5079  -19.9265    9.4755 C   0  0  1  0  0  0  0  0  0  0  0  0
   18.6905  -18.4435    9.5770 N   0  0  0  0  0  0  0  0  0  0  0  0
   18.5818  -17.7234    8.3460 C   0  0  0  0  0  0  0  0  0  0  0  0
   20.0647  -18.2180   10.1888 O   0  0  0  0  0  0  0  0  0  0  0  0
   20.9037  -17.5776    9.5357 O   0  0  0  0  0  0  0  0  0  0  0  0
  2  1  1  0
  3  2  2  0
  4  2  1  0
  5  4  1  0
  5  6  1  6
  7  5  1  0
  7  8  2  0
  9 10  1  0
 10 11  2  0
 12 13  1  0
 12 10  1  0
 14 13  1  0
 15 14  1  0
 16 15  1  1
 16 17  1  0
 17  7  1  0
 18 16  1  0
 19 18  2  0
 21 20  1  1
 21 22  1  0
 21 23  1  0
 22 18  1  0
 23 25  1  0
 24 23  2  0
M  END
$$$$
