KAW.pdb
     RDKit          3D

 29 30  0  0  1  0  0  0  0  0999 V2000
   27.8819  -20.3086  -15.4703 N   0  0  0  0  0  0  0  0  0  0  0  0
   28.0613  -19.1793  -14.6003 C   0  0  1  0  0  0  0  0  0  0  0  0
   28.0379  -17.8787  -15.3469 C   0  0  0  0  0  0  0  0  0  0  0  0
   29.0546  -17.8282  -16.4601 C   0  0  0  0  0  0  0  0  0  0  0  0
   28.5545  -18.4197  -17.7393 C   0  0  0  0  0  0  0  0  0  0  0  0
   29.7096  -18.3394  -18.7424 C   0  0  0  0  0  0  0  0  0  0  0  0
   29.3177  -18.9042  -20.0131 N   0  0  0  0  0  0  0  0  0  0  0  0
   27.0000  -19.1117  -13.5506 C   0  0  0  0  0  0  0  0  0  0  0  0
   26.9792  -18.1625  -12.7279 O   0  0  0  0  0  0  0  0  0  0  0  0
   23.5869  -20.4855  -13.0052 C   0  0  0  0  0  0  0  0  0  0  0  0
   24.9066  -20.0257  -12.4874 C   0  0  2  0  0  0  0  0  0  0  0  0
   25.9830  -20.0913  -13.4280 N   0  0  0  0  0  0  0  0  0  0  0  0
   25.2546  -20.6961  -11.1914 C   0  0  0  0  0  0  0  0  0  0  0  0
   25.7376  -21.8438  -11.2264 O   0  0  0  0  0  0  0  0  0  0  0  0
   25.0584  -20.0834   -9.9416 N   0  0  0  0  0  0  0  0  0  0  0  0
   25.2882  -20.7356   -8.6713 C   0  0  1  0  0  0  0  0  0  0  0  0
   25.9863  -19.7784   -7.7273 C   0  0  0  0  0  0  0  0  0  0  0  0
   27.3949  -20.1145   -7.5110 C   0  0  0  0  0  0  0  0  0  0  0  0
   28.2586  -20.7963   -8.3438 C   0  0  0  0  0  0  0  0  0  0  0  0
   29.4613  -20.8682   -7.7199 N   0  0  0  0  0  0  0  0  0  0  0  0
   29.4161  -20.2689   -6.5308 C   0  0  0  0  0  0  0  0  0  0  0  0
   30.3602  -20.0884   -5.5601 C   0  0  0  0  0  0  0  0  0  0  0  0
   30.0403  -19.4159   -4.3989 C   0  0  0  0  0  0  0  0  0  0  0  0
   28.7504  -18.9442   -4.2662 C   0  0  0  0  0  0  0  0  0  0  0  0
   27.7813  -19.1135   -5.2302 C   0  0  0  0  0  0  0  0  0  0  0  0
   28.1327  -19.7943   -6.3880 C   0  0  0  0  0  0  0  0  0  0  0  0
   24.0660  -21.3042   -8.0929 C   0  0  0  0  0  0  0  0  0  0  0  0
   22.9131  -21.1115   -8.5501 O   0  0  0  0  0  0  0  0  0  0  0  0
   24.1735  -22.1113   -6.9646 O   0  0  0  0  0  0  0  0  0  0  0  0
  2  1  1  6
  2  8  1  0
  3  2  1  0
  4  3  1  0
  4  5  1  0
  6  5  1  0
  7  6  1  0
  8  9  2  0
 11 10  1  6
 11 13  1  0
 12  8  1  0
 12 11  1  0
 13 15  1  0
 13 14  2  0
 15 16  1  0
 16 27  1  0
 16 17  1  1
 18 19  2  0
 18 17  1  0
 20 19  1  0
 21 26  2  0
 21 20  1  0
 22 21  1  0
 23 22  2  0
 23 24  1  0
 24 25  2  0
 25 26  1  0
 26 18  1  0
 27 28  2  0
 27 29  1  0
M  END
$$$$
