KAW.pdb
     RDKit          3D

 29 30  0  0  1  0  0  0  0  0999 V2000
   26.6450  -18.1856  -17.1386 N   0  0  0  0  0  0  0  0  0  0  0  0
   25.8528  -18.4500  -15.9694 C   0  0  1  0  0  0  0  0  0  0  0  0
   24.3830  -18.3237  -16.2397 C   0  0  0  0  0  0  0  0  0  0  0  0
   24.0634  -17.2182  -17.2150 C   0  0  0  0  0  0  0  0  0  0  0  0
   22.9142  -16.3658  -16.7802 C   0  0  0  0  0  0  0  0  0  0  0  0
   22.7551  -15.2690  -17.8379 C   0  0  0  0  0  0  0  0  0  0  0  0
   21.7074  -14.3487  -17.4601 N   0  0  0  0  0  0  0  0  0  0  0  0
   26.0928  -19.8243  -15.4342 C   0  0  0  0  0  0  0  0  0  0  0  0
   25.1319  -20.6137  -15.2556 O   0  0  0  0  0  0  0  0  0  0  0  0
   28.9393  -22.2102  -14.9607 C   0  0  0  0  0  0  0  0  0  0  0  0
   27.6537  -21.5868  -14.5368 C   0  0  2  0  0  0  0  0  0  0  0  0
   27.3865  -20.3015  -15.1062 N   0  0  0  0  0  0  0  0  0  0  0  0
   27.5110  -21.5777  -13.0435 C   0  0  0  0  0  0  0  0  0  0  0  0
   28.5289  -21.7554  -12.3478 O   0  0  0  0  0  0  0  0  0  0  0  0
   26.2783  -21.3774  -12.3986 N   0  0  0  0  0  0  0  0  0  0  0  0
   26.0937  -21.4238  -10.9648 C   0  0  1  0  0  0  0  0  0  0  0  0
   27.0717  -20.4803  -10.2955 C   0  0  0  0  0  0  0  0  0  0  0  0
   26.7459  -20.2208   -8.8918 C   0  0  0  0  0  0  0  0  0  0  0  0
   25.5113  -19.9943   -8.3186 C   0  0  0  0  0  0  0  0  0  0  0  0
   25.7035  -19.8021   -6.9892 N   0  0  0  0  0  0  0  0  0  0  0  0
   26.9959  -19.8931   -6.6782 C   0  0  0  0  0  0  0  0  0  0  0  0
   27.6623  -19.7757   -5.4915 C   0  0  0  0  0  0  0  0  0  0  0  0
   29.0337  -19.9189   -5.4499 C   0  0  0  0  0  0  0  0  0  0  0  0
   29.6869  -20.1804   -6.6368 C   0  0  0  0  0  0  0  0  0  0  0  0
   29.0376  -20.3032   -7.8453 C   0  0  0  0  0  0  0  0  0  0  0  0
   27.6573  -20.1541   -7.8559 C   0  0  0  0  0  0  0  0  0  0  0  0
   24.7060  -21.1749  -10.5601 C   0  0  0  0  0  0  0  0  0  0  0  0
   23.8911  -20.4855  -11.2206 O   0  0  0  0  0  0  0  0  0  0  0  0
   24.2468  -21.7311   -9.3702 O   0  0  0  0  0  0  0  0  0  0  0  0
  2  1  1  6
  2  8  1  0
  3  2  1  0
  4  3  1  0
  4  5  1  0
  6  5  1  0
  7  6  1  0
  8  9  2  0
 11 10  1  1
 11 13  1  0
 12  8  1  0
 12 11  1  0
 13 15  1  0
 13 14  2  0
 15 16  1  0
 16 27  1  0
 16 17  1  1
 18 19  2  0
 18 17  1  0
 20 19  1  0
 21 26  2  0
 21 20  1  0
 22 21  1  0
 23 22  2  0
 23 24  1  0
 24 25  2  0
 25 26  1  0
 26 18  1  0
 27 28  2  0
 27 29  1  0
M  END
$$$$
