KAW.pdb
     RDKit          3D

 29 30  0  0  1  0  0  0  0  0999 V2000
   19.1072  -15.6000  -20.0279 N   0  0  0  0  0  0  0  0  0  0  0  0
   19.2745  -15.5206  -18.6030 C   0  0  1  0  0  0  0  0  0  0  0  0
   19.9017  -16.7592  -18.0357 C   0  0  0  0  0  0  0  0  0  0  0  0
   19.0226  -17.9763  -18.1821 C   0  0  0  0  0  0  0  0  0  0  0  0
   19.6941  -19.1024  -18.9012 C   0  0  0  0  0  0  0  0  0  0  0  0
   18.6714  -20.2396  -18.9900 C   0  0  0  0  0  0  0  0  0  0  0  0
   19.2022  -21.3395  -19.7621 N   0  0  0  0  0  0  0  0  0  0  0  0
   20.1326  -14.3631  -18.2075 C   0  0  0  0  0  0  0  0  0  0  0  0
   20.3951  -14.1507  -16.9974 O   0  0  0  0  0  0  0  0  0  0  0  0
   22.1493  -11.6669  -19.9923 C   0  0  0  0  0  0  0  0  0  0  0  0
   21.5679  -12.3861  -18.8237 C   0  0  2  0  0  0  0  0  0  0  0  0
   20.6841  -13.4624  -19.1527 N   0  0  0  0  0  0  0  0  0  0  0  0
   20.9497  -11.4348  -17.8424 C   0  0  0  0  0  0  0  0  0  0  0  0
   19.7342  -11.1820  -17.9440 O   0  0  0  0  0  0  0  0  0  0  0  0
   21.6845  -10.8183  -16.8148 N   0  0  0  0  0  0  0  0  0  0  0  0
   21.1322   -9.8604  -15.8823 C   0  0  1  0  0  0  0  0  0  0  0  0
   22.0717   -9.6967  -14.7055 C   0  0  0  0  0  0  0  0  0  0  0  0
   21.6149   -8.6903  -13.7452 C   0  0  0  0  0  0  0  0  0  0  0  0
   20.8551   -8.8641  -12.6065 C   0  0  0  0  0  0  0  0  0  0  0  0
   20.6821   -7.6448  -12.0368 N   0  0  0  0  0  0  0  0  0  0  0  0
   21.2902   -6.6972  -12.7490 C   0  0  0  0  0  0  0  0  0  0  0  0
   21.3933   -5.3460  -12.5758 C   0  0  0  0  0  0  0  0  0  0  0  0
   22.0983   -4.5830  -13.4834 C   0  0  0  0  0  0  0  0  0  0  0  0
   22.6818   -5.2336  -14.5511 C   0  0  0  0  0  0  0  0  0  0  0  0
   22.5922   -6.5940  -14.7473 C   0  0  0  0  0  0  0  0  0  0  0  0
   21.8762   -7.3357  -13.8175 C   0  0  0  0  0  0  0  0  0  0  0  0
   20.7934   -8.5803  -16.5134 C   0  0  0  0  0  0  0  0  0  0  0  0
   21.4863   -8.0259  -17.4011 O   0  0  0  0  0  0  0  0  0  0  0  0
   19.6329   -7.9248  -16.1141 O   0  0  0  0  0  0  0  0  0  0  0  0
  2  1  1  6
  2  8  1  0
  3  2  1  0
  4  3  1  0
  4  5  1  0
  6  5  1  0
  7  6  1  0
  8  9  2  0
 11 10  1  6
 11 13  1  0
 12  8  1  0
 12 11  1  0
 13 15  1  0
 13 14  2  0
 15 16  1  0
 16 27  1  0
 16 17  1  1
 18 19  2  0
 18 17  1  0
 20 19  1  0
 21 26  2  0
 21 20  1  0
 22 21  1  0
 23 22  2  0
 23 24  1  0
 24 25  2  0
 25 26  1  0
 26 18  1  0
 27 28  2  0
 27 29  1  0
M  END
$$$$
