KAW.pdb
     RDKit          3D

 29 30  0  0  1  0  0  0  0  0999 V2000
   27.0633  -22.0331  -17.4414 N   0  0  0  0  0  0  0  0  0  0  0  0
   28.2683  -21.8407  -16.6829 C   0  0  1  0  0  0  0  0  0  0  0  0
   29.3254  -21.1246  -17.4697 C   0  0  0  0  0  0  0  0  0  0  0  0
   29.0143  -21.0669  -18.9446 C   0  0  0  0  0  0  0  0  0  0  0  0
   29.0351  -22.4099  -19.6020 C   0  0  0  0  0  0  0  0  0  0  0  0
   29.2753  -22.1652  -21.0951 C   0  0  0  0  0  0  0  0  0  0  0  0
   30.6600  -22.4035  -21.4315 N   0  0  0  0  0  0  0  0  0  0  0  0
   28.0224  -21.0488  -15.4398 C   0  0  0  0  0  0  0  0  0  0  0  0
   28.9778  -20.7348  -14.6868 O   0  0  0  0  0  0  0  0  0  0  0  0
   25.3248  -18.8808  -14.0105 C   0  0  0  0  0  0  0  0  0  0  0  0
   26.4526  -19.8461  -13.8787 C   0  0  2  0  0  0  0  0  0  0  0  0
   26.7291  -20.6190  -15.0508 N   0  0  0  0  0  0  0  0  0  0  0  0
   26.2998  -20.7100  -12.6620 C   0  0  0  0  0  0  0  0  0  0  0  0
   25.8045  -21.8450  -12.7969 O   0  0  0  0  0  0  0  0  0  0  0  0
   26.6920  -20.2922  -11.3785 N   0  0  0  0  0  0  0  0  0  0  0  0
   26.4772  -21.0608  -10.1722 C   0  0  1  0  0  0  0  0  0  0  0  0
   27.6079  -20.8037   -9.1975 C   0  0  0  0  0  0  0  0  0  0  0  0
   27.1388  -20.3783   -7.8774 C   0  0  0  0  0  0  0  0  0  0  0  0
   25.8438  -20.1916   -7.4390 C   0  0  0  0  0  0  0  0  0  0  0  0
   25.9010  -19.7934   -6.1432 N   0  0  0  0  0  0  0  0  0  0  0  0
   27.1639  -19.7144   -5.7260 C   0  0  0  0  0  0  0  0  0  0  0  0
   27.7108  -19.3648   -4.5239 C   0  0  0  0  0  0  0  0  0  0  0  0
   29.0803  -19.3681   -4.3585 C   0  0  0  0  0  0  0  0  0  0  0  0
   29.8554  -19.7331   -5.4401 C   0  0  0  0  0  0  0  0  0  0  0  0
   29.3279  -20.0895   -6.6616 C   0  0  0  0  0  0  0  0  0  0  0  0
   27.9464  -20.0767   -6.7980 C   0  0  0  0  0  0  0  0  0  0  0  0
   25.1573  -20.8291   -9.5758 C   0  0  0  0  0  0  0  0  0  0  0  0
   24.4803  -19.7855   -9.7439 O   0  0  0  0  0  0  0  0  0  0  0  0
   24.6054  -21.8192   -8.7689 O   0  0  0  0  0  0  0  0  0  0  0  0
  2  1  1  6
  2  8  1  0
  3  2  1  0
  4  3  1  0
  4  5  1  0
  6  5  1  0
  7  6  1  0
  8  9  2  0
 11 10  1  6
 11 13  1  0
 12  8  1  0
 12 11  1  0
 13 15  1  0
 13 14  2  0
 15 16  1  0
 16 27  1  0
 16 17  1  1
 18 19  2  0
 18 17  1  0
 20 19  1  0
 21 26  2  0
 21 20  1  0
 22 21  1  0
 23 22  2  0
 23 24  1  0
 24 25  2  0
 25 26  1  0
 26 18  1  0
 27 28  2  0
 27 29  1  0
M  END
$$$$
