KAW.pdb
     RDKit          3D

 29 30  0  0  1  0  0  0  0  0999 V2000
   23.9676  -18.6380  -16.7490 N   0  0  0  0  0  0  0  0  0  0  0  0
   22.7653  -18.0032  -16.2844 C   0  0  1  0  0  0  0  0  0  0  0  0
   21.7936  -17.7454  -17.3974 C   0  0  0  0  0  0  0  0  0  0  0  0
   22.2626  -16.6662  -18.3412 C   0  0  0  0  0  0  0  0  0  0  0  0
   23.7339  -16.4121  -18.2578 C   0  0  0  0  0  0  0  0  0  0  0  0
   24.0622  -15.3711  -19.3328 C   0  0  0  0  0  0  0  0  0  0  0  0
   25.4612  -15.0135  -19.2816 N   0  0  0  0  0  0  0  0  0  0  0  0
   22.0610  -18.8298  -15.2581 C   0  0  0  0  0  0  0  0  0  0  0  0
   22.1599  -20.0822  -15.2734 O   0  0  0  0  0  0  0  0  0  0  0  0
   19.9503  -18.2209  -12.1487 C   0  0  0  0  0  0  0  0  0  0  0  0
   20.5238  -19.0169  -13.2705 C   0  0  2  0  0  0  0  0  0  0  0  0
   21.2615  -18.2605  -14.2355 N   0  0  0  0  0  0  0  0  0  0  0  0
   19.4865  -19.8872  -13.9161 C   0  0  0  0  0  0  0  0  0  0  0  0
   19.3648  -19.8479  -15.1552 O   0  0  0  0  0  0  0  0  0  0  0  0
   18.6479  -20.7434  -13.1816 N   0  0  0  0  0  0  0  0  0  0  0  0
   18.7862  -22.1827  -13.1454 C   0  0  1  0  0  0  0  0  0  0  0  0
   20.1870  -22.5477  -12.6992 C   0  0  0  0  0  0  0  0  0  0  0  0
   20.6661  -23.7999  -13.2875 C   0  0  0  0  0  0  0  0  0  0  0  0
   21.1148  -24.0360  -14.5709 C   0  0  0  0  0  0  0  0  0  0  0  0
   21.4526  -25.3475  -14.6545 N   0  0  0  0  0  0  0  0  0  0  0  0
   21.2447  -25.9663  -13.4930 C   0  0  0  0  0  0  0  0  0  0  0  0
   21.4326  -27.2608  -13.0989 C   0  0  0  0  0  0  0  0  0  0  0  0
   21.1293  -27.6432  -11.8087 C   0  0  0  0  0  0  0  0  0  0  0  0
   20.6380  -26.6785  -10.9532 C   0  0  0  0  0  0  0  0  0  0  0  0
   20.4400  -25.3676  -11.3267 C   0  0  0  0  0  0  0  0  0  0  0  0
   20.7542  -25.0124  -12.6315 C   0  0  0  0  0  0  0  0  0  0  0  0
   17.7508  -22.8349  -12.3367 C   0  0  0  0  0  0  0  0  0  0  0  0
   17.1015  -22.2633  -11.4271 O   0  0  0  0  0  0  0  0  0  0  0  0
   17.4568  -24.1729  -12.5799 O   0  0  0  0  0  0  0  0  0  0  0  0
  2  1  1  6
  2  8  1  0
  3  2  1  0
  4  3  1  0
  4  5  1  0
  6  5  1  0
  7  6  1  0
  8  9  2  0
 11 10  1  1
 11 13  1  0
 12  8  1  0
 12 11  1  0
 13 15  1  0
 13 14  2  0
 15 16  1  0
 16 27  1  0
 16 17  1  1
 18 19  2  0
 18 17  1  0
 20 19  1  0
 21 26  2  0
 21 20  1  0
 22 21  1  0
 23 22  2  0
 23 24  1  0
 24 25  2  0
 25 26  1  0
 26 18  1  0
 27 28  2  0
 27 29  1  0
M  END
$$$$
