KAW.pdb
     RDKit          3D

 29 30  0  0  1  0  0  0  0  0999 V2000
   24.4475  -19.6400  -16.2732 N   0  0  0  0  0  0  0  0  0  0  0  0
   24.5465  -18.6623  -15.2251 C   0  0  1  0  0  0  0  0  0  0  0  0
   23.4804  -17.6122  -15.3264 C   0  0  0  0  0  0  0  0  0  0  0  0
   22.2304  -18.1154  -16.0044 C   0  0  0  0  0  0  0  0  0  0  0  0
   21.3552  -18.9215  -15.0986 C   0  0  0  0  0  0  0  0  0  0  0  0
   20.1025  -19.2819  -15.9035 C   0  0  0  0  0  0  0  0  0  0  0  0
   19.2769  -20.2112  -15.1671 N   0  0  0  0  0  0  0  0  0  0  0  0
   24.4340  -19.2848  -13.8714 C   0  0  0  0  0  0  0  0  0  0  0  0
   24.1191  -18.5872  -12.8751 O   0  0  0  0  0  0  0  0  0  0  0  0
   24.6910  -22.7641  -12.3531 C   0  0  0  0  0  0  0  0  0  0  0  0
   24.7026  -21.2739  -12.3483 C   0  0  2  0  0  0  0  0  0  0  0  0
   24.6709  -20.6633  -13.6421 N   0  0  0  0  0  0  0  0  0  0  0  0
   25.8169  -20.7336  -11.5019 C   0  0  0  0  0  0  0  0  0  0  0  0
   26.8786  -20.3976  -12.0601 O   0  0  0  0  0  0  0  0  0  0  0  0
   25.7124  -20.5912  -10.1074 N   0  0  0  0  0  0  0  0  0  0  0  0
   26.7989  -20.1735   -9.2490 C   0  0  1  0  0  0  0  0  0  0  0  0
   26.2404  -19.4876   -8.0193 C   0  0  0  0  0  0  0  0  0  0  0  0
   27.2825  -19.0080   -7.1095 C   0  0  0  0  0  0  0  0  0  0  0  0
   27.9626  -17.8075   -7.1302 C   0  0  0  0  0  0  0  0  0  0  0  0
   28.8348  -17.8103   -6.0908 N   0  0  0  0  0  0  0  0  0  0  0  0
   28.7512  -18.9487   -5.4037 C   0  0  0  0  0  0  0  0  0  0  0  0
   29.4154  -19.4025   -4.2996 C   0  0  0  0  0  0  0  0  0  0  0  0
   29.1275  -20.6479   -3.7810 C   0  0  0  0  0  0  0  0  0  0  0  0
   28.1584  -21.3978   -4.4154 C   0  0  0  0  0  0  0  0  0  0  0  0
   27.4751  -20.9624   -5.5292 C   0  0  0  0  0  0  0  0  0  0  0  0
   27.7865  -19.7049   -6.0284 C   0  0  0  0  0  0  0  0  0  0  0  0
   27.7149  -21.2692   -8.9143 C   0  0  0  0  0  0  0  0  0  0  0  0
   27.3519  -22.4513   -8.6984 O   0  0  0  0  0  0  0  0  0  0  0  0
   29.0768  -20.9985   -8.8262 O   0  0  0  0  0  0  0  0  0  0  0  0
  2  1  1  6
  2  8  1  0
  3  2  1  0
  4  3  1  0
  4  5  1  0
  6  5  1  0
  7  6  1  0
  8  9  2  0
 11 10  1  6
 11 13  1  0
 12  8  1  0
 12 11  1  0
 13 15  1  0
 13 14  2  0
 15 16  1  0
 16 27  1  0
 16 17  1  1
 18 19  2  0
 18 17  1  0
 20 19  1  0
 21 26  2  0
 21 20  1  0
 22 21  1  0
 23 22  2  0
 23 24  1  0
 24 25  2  0
 25 26  1  0
 26 18  1  0
 27 28  2  0
 27 29  1  0
M  END
$$$$
