PSV.pdb
     RDKit          3D

 21 21  0  0  1  0  0  0  0  0999 V2000
    8.5019  -15.0228   19.6303 N   0  0  0  0  0  0  0  0  0  0  0  0
    8.3544  -14.3612   18.3389 C   0  0  0  0  0  0  0  0  0  0  0  0
    7.7178  -13.0257   18.6024 C   0  0  0  0  0  0  0  0  0  0  0  0
    7.4083  -13.0608   20.0709 C   0  0  0  0  0  0  0  0  0  0  0  0
    8.5421  -13.9508   20.5821 C   0  0  1  0  0  0  0  0  0  0  0  0
    8.2376  -14.3399   21.9607 C   0  0  0  0  0  0  0  0  0  0  0  0
    8.2391  -13.3949   22.8209 O   0  0  0  0  0  0  0  0  0  0  0  0
    8.1826  -18.2365   23.7644 O   0  0  0  0  0  0  0  0  0  0  0  0
    7.1319  -17.3538   23.8490 C   0  0  0  0  0  0  0  0  0  0  0  0
    7.6131  -15.8994   23.7594 C   0  0  2  0  0  0  0  0  0  0  0  0
    7.9510  -15.6664   22.3767 N   0  0  0  0  0  0  0  0  0  0  0  0
    8.7656  -15.6895   24.6664 C   0  0  0  0  0  0  0  0  0  0  0  0
    9.9178  -15.7709   24.1693 O   0  0  0  0  0  0  0  0  0  0  0  0
    9.5885  -12.7164   26.9099 C   0  0  0  0  0  0  0  0  0  0  0  0
    9.5801  -13.9313   27.7794 C   0  0  1  0  0  0  0  0  0  0  0  0
    8.3644  -14.0269   28.6694 C   0  0  0  0  0  0  0  0  0  0  0  0
    9.7616  -15.1539   26.9174 C   0  0  2  0  0  0  0  0  0  0  0  0
    8.6571  -15.4053   26.0458 N   0  0  0  0  0  0  0  0  0  0  0  0
    9.9841  -16.3219   27.7865 C   0  0  0  0  0  0  0  0  0  0  0  0
   11.0991  -16.3754   28.5895 O   0  0  0  0  0  0  0  0  0  0  0  0
    9.1696  -17.2650   27.8016 O   0  0  0  0  0  0  0  0  0  0  0  0
  1  2  1  0
  3  2  1  0
  4  5  1  0
  4  3  1  0
  5  1  1  0
  5  6  1  1
  6 11  1  0
  7  6  2  0
  8  9  1  0
 10 11  1  0
 10 12  1  0
 10  9  1  6
 12 13  2  0
 12 18  1  0
 15 16  1  6
 15 14  1  0
 17 15  1  0
 17 18  1  1
 19 20  1  0
 19 17  1  0
 21 19  2  0
M  END
$$$$
