PSV.pdb
     RDKit          3D

 21 21  0  0  1  0  0  0  0  0999 V2000
    8.2060  -15.2202   19.7425 N   0  0  0  0  0  0  0  0  0  0  0  0
    8.0827  -14.5835   18.4361 C   0  0  0  0  0  0  0  0  0  0  0  0
    7.6612  -13.1620   18.6810 C   0  0  0  0  0  0  0  0  0  0  0  0
    7.4333  -13.1071   20.1637 C   0  0  0  0  0  0  0  0  0  0  0  0
    8.4540  -14.1373   20.6494 C   0  0  1  0  0  0  0  0  0  0  0  0
    8.1750  -14.4360   22.0557 C   0  0  0  0  0  0  0  0  0  0  0  0
    8.4153  -13.4938   22.8849 O   0  0  0  0  0  0  0  0  0  0  0  0
    7.5670  -18.2128   24.0178 O   0  0  0  0  0  0  0  0  0  0  0  0
    6.6815  -17.1650   24.1070 C   0  0  0  0  0  0  0  0  0  0  0  0
    7.3914  -15.8151   23.9375 C   0  0  2  0  0  0  0  0  0  0  0  0
    7.6693  -15.6748   22.5291 N   0  0  0  0  0  0  0  0  0  0  0  0
    8.6215  -15.7816   24.7626 C   0  0  0  0  0  0  0  0  0  0  0  0
    9.7088  -16.0594   24.1953 O   0  0  0  0  0  0  0  0  0  0  0  0
    8.5241  -13.9807   28.5147 C   0  0  0  0  0  0  0  0  0  0  0  0
    9.8064  -14.0084   27.7486 C   0  0  1  0  0  0  0  0  0  0  0  0
   11.0315  -13.8637   28.6189 C   0  0  0  0  0  0  0  0  0  0  0  0
    9.8453  -15.2531   26.9000 C   0  0  2  0  0  0  0  0  0  0  0  0
    8.6542  -15.4600   26.1377 N   0  0  0  0  0  0  0  0  0  0  0  0
   10.0862  -16.4166   27.7702 C   0  0  0  0  0  0  0  0  0  0  0  0
    9.1507  -17.4217   27.8443 O   0  0  0  0  0  0  0  0  0  0  0  0
   11.1326  -16.4997   28.4420 O   0  0  0  0  0  0  0  0  0  0  0  0
  1  2  1  0
  3  2  1  0
  4  5  1  0
  4  3  1  0
  5  1  1  0
  5  6  1  1
  6 11  1  0
  7  6  2  0
  8  9  1  0
 10 11  1  0
 10 12  1  0
 10  9  1  6
 12 13  2  0
 12 18  1  0
 15 16  1  1
 15 14  1  0
 17 15  1  0
 17 18  1  1
 19 20  1  0
 19 17  1  0
 21 19  2  0
M  END
$$$$
