PSV.pdb
     RDKit          3D

 21 21  0  0  1  0  0  0  0  0999 V2000
    8.0392  -15.1796   18.4612 N   0  0  0  0  0  0  0  0  0  0  0  0
    8.3182  -14.3159   17.3196 C   0  0  0  0  0  0  0  0  0  0  0  0
    8.3418  -12.9046   17.8350 C   0  0  0  0  0  0  0  0  0  0  0  0
    7.9291  -13.0418   19.2717 C   0  0  0  0  0  0  0  0  0  0  0  0
    8.4846  -14.4286   19.5989 C   0  0  1  0  0  0  0  0  0  0  0  0
    7.9222  -14.8606   20.8802 C   0  0  0  0  0  0  0  0  0  0  0  0
    6.6667  -14.6756   21.0296 O   0  0  0  0  0  0  0  0  0  0  0  0
    9.7013  -17.3598   23.7014 O   0  0  0  0  0  0  0  0  0  0  0  0
    8.3478  -17.1792   23.5417 C   0  0  0  0  0  0  0  0  0  0  0  0
    8.0149  -15.7248   23.1828 C   0  0  2  0  0  0  0  0  0  0  0  0
    8.6733  -15.4536   21.9284 N   0  0  0  0  0  0  0  0  0  0  0  0
    8.4654  -14.8192   24.2653 C   0  0  0  0  0  0  0  0  0  0  0  0
    9.6286  -14.3489   24.1823 O   0  0  0  0  0  0  0  0  0  0  0  0
    7.0823  -11.5148   25.6443 C   0  0  0  0  0  0  0  0  0  0  0  0
    7.1173  -12.5024   26.7648 C   0  0  1  0  0  0  0  0  0  0  0  0
    5.7587  -13.0529   27.1255 C   0  0  0  0  0  0  0  0  0  0  0  0
    8.1099  -13.5868   26.4334 C   0  0  2  0  0  0  0  0  0  0  0  0
    7.6790  -14.4504   25.3793 N   0  0  0  0  0  0  0  0  0  0  0  0
    8.3749  -14.3782   27.6467 C   0  0  0  0  0  0  0  0  0  0  0  0
    8.9648  -13.7832   28.7372 O   0  0  0  0  0  0  0  0  0  0  0  0
    8.0691  -15.5854   27.6954 O   0  0  0  0  0  0  0  0  0  0  0  0
  1  2  1  0
  3  2  1  0
  4  5  1  0
  4  3  1  0
  5  1  1  0
  5  6  1  1
  6 11  1  0
  7  6  2  0
  8  9  1  0
 10 11  1  0
 10 12  1  0
 10  9  1  1
 12 13  2  0
 12 18  1  0
 15 16  1  6
 15 14  1  0
 17 15  1  0
 17 18  1  6
 19 20  1  0
 19 17  1  0
 21 19  2  0
M  END
$$$$
