PSV.pdb
     RDKit          3D

 21 21  0  0  1  0  0  0  0  0999 V2000
    8.6844  -15.0314   18.9827 N   0  0  0  0  0  0  0  0  0  0  0  0
    8.8181  -14.5066   17.6284 C   0  0  0  0  0  0  0  0  0  0  0  0
    8.1439  -13.1637   17.6118 C   0  0  0  0  0  0  0  0  0  0  0  0
    7.5278  -13.0561   18.9764 C   0  0  0  0  0  0  0  0  0  0  0  0
    8.5236  -13.8681   19.8059 C   0  0  1  0  0  0  0  0  0  0  0  0
    7.9307  -14.1217   21.1207 C   0  0  0  0  0  0  0  0  0  0  0  0
    7.7562  -13.0954   21.8618 O   0  0  0  0  0  0  0  0  0  0  0  0
    7.6858  -17.6640   23.5853 O   0  0  0  0  0  0  0  0  0  0  0  0
    6.5921  -16.9860   23.1014 C   0  0  0  0  0  0  0  0  0  0  0  0
    6.9053  -15.4997   22.8834 C   0  0  2  0  0  0  0  0  0  0  0  0
    7.5528  -15.4039   21.5981 N   0  0  0  0  0  0  0  0  0  0  0  0
    7.7573  -14.9938   23.9849 C   0  0  0  0  0  0  0  0  0  0  0  0
    9.0025  -15.0104   23.8102 O   0  0  0  0  0  0  0  0  0  0  0  0
    7.2447  -11.6178   25.9890 C   0  0  0  0  0  0  0  0  0  0  0  0
    7.3957  -12.7583   26.9422 C   0  0  1  0  0  0  0  0  0  0  0  0
    6.1009  -13.1686   27.6010 C   0  0  0  0  0  0  0  0  0  0  0  0
    8.0714  -13.9043   26.2343 C   0  0  2  0  0  0  0  0  0  0  0  0
    7.2665  -14.4965   25.2126 N   0  0  0  0  0  0  0  0  0  0  0  0
    8.4438  -14.9258   27.2276 C   0  0  0  0  0  0  0  0  0  0  0  0
    9.3519  -14.6222   28.2147 O   0  0  0  0  0  0  0  0  0  0  0  0
    7.9428  -16.0661   27.1826 O   0  0  0  0  0  0  0  0  0  0  0  0
  1  2  1  0
  3  2  1  0
  4  5  1  0
  4  3  1  0
  5  1  1  0
  5  6  1  1
  6 11  1  0
  7  6  2  0
  8  9  1  0
 10 11  1  0
 10 12  1  0
 10  9  1  1
 12 13  2  0
 12 18  1  0
 15 16  1  6
 15 14  1  0
 17 15  1  0
 17 18  1  6
 19 20  1  0
 19 17  1  0
 21 19  2  0
M  END
$$$$
