PSV.pdb
     RDKit          3D

 21 21  0  0  1  0  0  0  0  0999 V2000
    8.7337  -15.1321   19.0729 N   0  0  0  0  0  0  0  0  0  0  0  0
    8.8598  -14.5823   17.7279 C   0  0  0  0  0  0  0  0  0  0  0  0
    8.2108  -13.2270   17.7475 C   0  0  0  0  0  0  0  0  0  0  0  0
    7.6145  -13.1361   19.1221 C   0  0  0  0  0  0  0  0  0  0  0  0
    8.6055  -13.9832   19.9216 C   0  0  1  0  0  0  0  0  0  0  0  0
    8.0248  -14.2527   21.2387 C   0  0  0  0  0  0  0  0  0  0  0  0
    7.8576  -13.2355   21.9939 O   0  0  0  0  0  0  0  0  0  0  0  0
    7.9530  -17.6576   23.9180 O   0  0  0  0  0  0  0  0  0  0  0  0
    6.8513  -17.1516   23.2695 C   0  0  0  0  0  0  0  0  0  0  0  0
    7.0060  -15.6508   22.9894 C   0  0  2  0  0  0  0  0  0  0  0  0
    7.6511  -15.5405   21.7040 N   0  0  0  0  0  0  0  0  0  0  0  0
    7.7892  -15.0106   24.0718 C   0  0  0  0  0  0  0  0  0  0  0  0
    9.0410  -14.9981   23.9533 O   0  0  0  0  0  0  0  0  0  0  0  0
    7.1075  -11.4536   25.7237 C   0  0  0  0  0  0  0  0  0  0  0  0
    7.2104  -12.5118   26.7732 C   0  0  1  0  0  0  0  0  0  0  0  0
    5.8786  -12.9046   27.3655 C   0  0  0  0  0  0  0  0  0  0  0  0
    7.9618  -13.6908   26.2105 C   0  0  2  0  0  0  0  0  0  0  0  0
    7.2262  -14.4161   25.2229 N   0  0  0  0  0  0  0  0  0  0  0  0
    8.3323  -14.5918   27.3149 C   0  0  0  0  0  0  0  0  0  0  0  0
    7.8707  -15.8871   27.3262 O   0  0  0  0  0  0  0  0  0  0  0  0
    9.0622  -14.1910   28.2423 O   0  0  0  0  0  0  0  0  0  0  0  0
  1  2  1  0
  3  2  1  0
  4  5  1  0
  4  3  1  0
  5  1  1  0
  5  6  1  1
  6 11  1  0
  7  6  2  0
  8  9  1  0
 10 11  1  0
 10 12  1  0
 10  9  1  1
 12 13  2  0
 12 18  1  0
 15 16  1  6
 15 14  1  0
 17 15  1  0
 17 18  1  6
 19 20  1  0
 19 17  1  0
 21 19  2  0
M  END
$$$$
