GAR.pdb
     RDKit          3D

 21 20  0  0  1  0  0  0  0  0999 V2000
   21.0949  -20.9294  -17.2081 N   0  0  0  0  0  0  0  0  0  0  0  0
   20.2579  -20.2352  -16.2659 C   0  0  0  0  0  0  0  0  0  0  0  0
   19.4903  -19.1203  -16.8942 C   0  0  0  0  0  0  0  0  0  0  0  0
   20.1266  -18.2734  -17.5463 O   0  0  0  0  0  0  0  0  0  0  0  0
   15.9157  -18.2191  -17.5983 C   0  0  0  0  0  0  0  0  0  0  0  0
   17.3830  -17.8726  -17.3883 C   0  0  2  0  0  0  0  0  0  0  0  0
   18.0914  -18.9843  -16.7835 N   0  0  0  0  0  0  0  0  0  0  0  0
   17.5254  -16.6492  -16.5473 C   0  0  0  0  0  0  0  0  0  0  0  0
   17.6372  -16.7776  -15.2854 O   0  0  0  0  0  0  0  0  0  0  0  0
   22.0709   -9.6369  -15.7129 N   0  0  0  0  0  0  0  0  0  0  0  0
   20.8111   -9.0997  -15.3340 C   0  0  0  0  0  0  0  0  0  0  0  0
   20.8030   -8.0079  -14.6101 N   0  0  0  0  0  0  0  0  0  0  0  0
   19.5901   -9.7169  -15.7211 N   0  0  0  0  0  0  0  0  0  0  0  0
   19.6174  -11.0963  -16.1831 C   0  0  0  0  0  0  0  0  0  0  0  0
   18.3363  -11.6494  -16.6100 C   0  0  0  0  0  0  0  0  0  0  0  0
   18.1309  -13.0015  -17.0797 C   0  0  0  0  0  0  0  0  0  0  0  0
   17.7606  -14.1487  -16.2421 C   0  0  2  0  0  0  0  0  0  0  0  0
   17.5440  -15.3491  -17.0655 N   0  0  0  0  0  0  0  0  0  0  0  0
   16.5882  -13.9573  -15.4233 C   0  0  0  0  0  0  0  0  0  0  0  0
   15.4280  -14.1484  -15.7672 O   0  0  0  0  0  0  0  0  0  0  0  0
   16.7531  -13.5069  -14.0899 O   0  0  0  0  0  0  0  0  0  0  0  0
  2  3  1  0
  2  1  1  0
  3  4  2  0
  6  5  1  1
  6  8  1  0
  7  6  1  0
  7  3  1  0
  8  9  2  0
  8 18  1  0
 10 11  1  0
 11 12  2  0
 13 14  1  0
 13 11  1  0
 14 15  1  0
 17 16  1  6
 16 15  1  0
 17 19  1  0
 18 17  1  0
 19 20  2  0
 19 21  1  0
M  END
$$$$
