GAR.pdb
     RDKit          3D

 21 20  0  0  1  0  0  0  0  0999 V2000
   20.1998  -12.9564  -17.1808 N   0  0  0  0  0  0  0  0  0  0  0  0
   20.0190  -11.5673  -17.5096 C   0  0  0  0  0  0  0  0  0  0  0  0
   19.9087  -10.7016  -16.2992 C   0  0  0  0  0  0  0  0  0  0  0  0
   19.3822  -11.1895  -15.2832 O   0  0  0  0  0  0  0  0  0  0  0  0
   20.9995   -7.2625  -15.1847 C   0  0  0  0  0  0  0  0  0  0  0  0
   20.1598   -8.5288  -15.0919 C   0  0  2  0  0  0  0  0  0  0  0  0
   20.3692   -9.3698  -16.2548 N   0  0  0  0  0  0  0  0  0  0  0  0
   18.7129   -8.1979  -14.9462 C   0  0  0  0  0  0  0  0  0  0  0  0
   18.0132   -8.0156  -15.9943 O   0  0  0  0  0  0  0  0  0  0  0  0
   13.1634   -9.5342   -8.0247 N   0  0  0  0  0  0  0  0  0  0  0  0
   12.3093   -9.2974   -9.1355 C   0  0  0  0  0  0  0  0  0  0  0  0
   11.0201   -9.4505   -8.9609 N   0  0  0  0  0  0  0  0  0  0  0  0
   12.8237   -8.9064  -10.4020 N   0  0  0  0  0  0  0  0  0  0  0  0
   14.2533   -9.0249  -10.6451 C   0  0  0  0  0  0  0  0  0  0  0  0
   14.7378   -8.4362  -11.8893 C   0  0  0  0  0  0  0  0  0  0  0  0
   16.1039   -8.4965  -12.3597 C   0  0  0  0  0  0  0  0  0  0  0  0
   16.6186   -7.8466  -13.5710 C   0  0  2  0  0  0  0  0  0  0  0  0
   18.0659   -8.0732  -13.7113 N   0  0  0  0  0  0  0  0  0  0  0  0
   16.3842   -6.4252  -13.6512 C   0  0  0  0  0  0  0  0  0  0  0  0
   17.1874   -5.5437  -13.3701 O   0  0  0  0  0  0  0  0  0  0  0  0
   15.1184   -5.9660  -14.0926 O   0  0  0  0  0  0  0  0  0  0  0  0
  2  3  1  0
  2  1  1  0
  3  4  2  0
  6  5  1  6
  6  8  1  0
  7  6  1  0
  7  3  1  0
  8  9  2  0
  8 18  1  0
 10 11  1  0
 11 12  2  0
 13 14  1  0
 13 11  1  0
 14 15  1  0
 17 16  1  1
 16 15  1  0
 17 19  1  0
 18 17  1  0
 19 20  2  0
 19 21  1  0
M  END
$$$$
