GAR.pdb
     RDKit          3D

 21 20  0  0  1  0  0  0  0  0999 V2000
   28.1552  -19.8481  -15.9285 N   0  0  0  0  0  0  0  0  0  0  0  0
   28.0085  -19.6133  -14.5165 C   0  0  0  0  0  0  0  0  0  0  0  0
   26.8927  -20.4024  -13.9172 C   0  0  0  0  0  0  0  0  0  0  0  0
   26.1585  -21.0462  -14.6878 O   0  0  0  0  0  0  0  0  0  0  0  0
   25.6485  -21.3349  -10.4756 C   0  0  0  0  0  0  0  0  0  0  0  0
   25.5285  -21.2148  -11.9884 C   0  0  2  0  0  0  0  0  0  0  0  0
   26.6353  -20.4512  -12.5319 N   0  0  0  0  0  0  0  0  0  0  0  0
   24.2302  -20.5884  -12.3707 C   0  0  0  0  0  0  0  0  0  0  0  0
   24.0416  -19.3551  -12.1162 O   0  0  0  0  0  0  0  0  0  0  0  0
   20.0863  -15.8034  -16.2193 N   0  0  0  0  0  0  0  0  0  0  0  0
   19.1735  -16.7832  -16.6951 C   0  0  0  0  0  0  0  0  0  0  0  0
   18.0601  -16.3675  -17.2460 N   0  0  0  0  0  0  0  0  0  0  0  0
   19.4470  -18.1740  -16.5833 N   0  0  0  0  0  0  0  0  0  0  0  0
   20.6054  -18.6012  -15.8134 C   0  0  0  0  0  0  0  0  0  0  0  0
   20.7879  -20.0434  -15.6864 C   0  0  0  0  0  0  0  0  0  0  0  0
   21.8244  -20.6837  -14.9074 C   0  0  0  0  0  0  0  0  0  0  0  0
   21.9401  -20.6436  -13.4446 C   0  0  2  0  0  0  0  0  0  0  0  0
   23.1902  -21.2811  -13.0012 N   0  0  0  0  0  0  0  0  0  0  0  0
   20.8511  -21.2596  -12.7261 C   0  0  0  0  0  0  0  0  0  0  0  0
   19.7974  -20.7202  -12.4103 O   0  0  0  0  0  0  0  0  0  0  0  0
   20.9741  -22.6150  -12.3312 O   0  0  0  0  0  0  0  0  0  0  0  0
  2  3  1  0
  2  1  1  0
  3  4  2  0
  6  5  1  1
  6  8  1  0
  7  6  1  0
  7  3  1  0
  8  9  2  0
  8 18  1  0
 10 11  1  0
 11 12  2  0
 13 14  1  0
 13 11  1  0
 14 15  1  0
 17 16  1  6
 16 15  1  0
 17 19  1  0
 18 17  1  0
 19 20  2  0
 19 21  1  0
M  END
$$$$
