GAR.pdb
     RDKit          3D

 21 20  0  0  1  0  0  0  0  0999 V2000
   26.1731  -19.0050  -22.1572 N   0  0  0  0  0  0  0  0  0  0  0  0
   24.8131  -19.1639  -21.7150 C   0  0  0  0  0  0  0  0  0  0  0  0
   24.5427  -18.4582  -20.4283 C   0  0  0  0  0  0  0  0  0  0  0  0
   25.2348  -18.7661  -19.4415 O   0  0  0  0  0  0  0  0  0  0  0  0
   22.3388  -15.6462  -19.1876 C   0  0  0  0  0  0  0  0  0  0  0  0
   23.3330  -16.7867  -19.0198 C   0  0  2  0  0  0  0  0  0  0  0  0
   23.5492  -17.4688  -20.2813 N   0  0  0  0  0  0  0  0  0  0  0  0
   22.8654  -17.7515  -17.9831 C   0  0  0  0  0  0  0  0  0  0  0  0
   22.1360  -18.7330  -18.3381 O   0  0  0  0  0  0  0  0  0  0  0  0
   26.3635  -21.4617  -10.7523 N   0  0  0  0  0  0  0  0  0  0  0  0
   25.1090  -20.9920  -10.2777 C   0  0  0  0  0  0  0  0  0  0  0  0
   24.9024  -20.9965   -8.9842 N   0  0  0  0  0  0  0  0  0  0  0  0
   24.1010  -20.5290  -11.1671 N   0  0  0  0  0  0  0  0  0  0  0  0
   24.5025  -19.9145  -12.4233 C   0  0  0  0  0  0  0  0  0  0  0  0
   23.4327  -19.2953  -13.1989 C   0  0  0  0  0  0  0  0  0  0  0  0
   23.6202  -18.5461  -14.4215 C   0  0  0  0  0  0  0  0  0  0  0  0
   22.7653  -18.6280  -15.6119 C   0  0  2  0  0  0  0  0  0  0  0  0
   23.1825  -17.6444  -16.6240 N   0  0  0  0  0  0  0  0  0  0  0  0
   21.3556  -18.4406  -15.3687 C   0  0  0  0  0  0  0  0  0  0  0  0
   20.7451  -17.3807  -15.4392 O   0  0  0  0  0  0  0  0  0  0  0  0
   20.5691  -19.5643  -15.0126 O   0  0  0  0  0  0  0  0  0  0  0  0
  2  3  1  0
  2  1  1  0
  3  4  2  0
  6  5  1  6
  6  8  1  0
  7  6  1  0
  7  3  1  0
  8  9  2  0
  8 18  1  0
 10 11  1  0
 11 12  2  0
 13 14  1  0
 13 11  1  0
 14 15  1  0
 17 16  1  1
 16 15  1  0
 17 19  1  0
 18 17  1  0
 19 20  2  0
 19 21  1  0
M  END
$$$$
