GAR.pdb
     RDKit          3D

 21 20  0  0  1  0  0  0  0  0999 V2000
   23.0317  -14.1028  -15.8768 N   0  0  0  0  0  0  0  0  0  0  0  0
   24.4534  -14.1719  -15.6672 C   0  0  0  0  0  0  0  0  0  0  0  0
   25.0114  -15.5239  -15.9633 C   0  0  0  0  0  0  0  0  0  0  0  0
   24.3236  -16.5146  -15.6583 O   0  0  0  0  0  0  0  0  0  0  0  0
   27.9797  -16.9787  -17.7882 C   0  0  0  0  0  0  0  0  0  0  0  0
   26.7544  -17.0561  -16.8883 C   0  0  2  0  0  0  0  0  0  0  0  0
   26.2691  -15.7278  -16.5667 N   0  0  0  0  0  0  0  0  0  0  0  0
   27.0587  -17.8125  -15.6395 C   0  0  0  0  0  0  0  0  0  0  0  0
   27.6445  -17.2118  -14.6817 O   0  0  0  0  0  0  0  0  0  0  0  0
   23.3953  -20.8505   -9.8480 N   0  0  0  0  0  0  0  0  0  0  0  0
   24.6209  -20.9480   -9.1353 C   0  0  0  0  0  0  0  0  0  0  0  0
   24.5733  -21.3315   -7.8837 N   0  0  0  0  0  0  0  0  0  0  0  0
   25.8667  -20.6420   -9.7486 N   0  0  0  0  0  0  0  0  0  0  0  0
   25.8667  -19.9626  -11.0353 C   0  0  0  0  0  0  0  0  0  0  0  0
   25.6852  -20.8159  -12.2050 C   0  0  0  0  0  0  0  0  0  0  0  0
   25.8056  -20.3789  -13.5782 C   0  0  0  0  0  0  0  0  0  0  0  0
   27.0389  -19.9051  -14.2178 C   0  0  2  0  0  0  0  0  0  0  0  0
   26.7361  -19.1614  -15.4510 N   0  0  0  0  0  0  0  0  0  0  0  0
   27.9941  -20.9353  -14.5466 C   0  0  0  0  0  0  0  0  0  0  0  0
   28.0178  -21.5956  -15.5783 O   0  0  0  0  0  0  0  0  0  0  0  0
   29.0163  -21.2410  -13.6140 O   0  0  0  0  0  0  0  0  0  0  0  0
  2  3  1  0
  2  1  1  0
  3  4  2  0
  6  5  1  6
  6  8  1  0
  7  6  1  0
  7  3  1  0
  8  9  2  0
  8 18  1  0
 10 11  1  0
 11 12  2  0
 13 14  1  0
 13 11  1  0
 14 15  1  0
 17 16  1  6
 16 15  1  0
 17 19  1  0
 18 17  1  0
 19 20  2  0
 19 21  1  0
M  END
$$$$
