GAR.pdb
     RDKit          3D

 21 20  0  0  1  0  0  0  0  0999 V2000
   26.0031  -12.6048  -19.3931 N   0  0  0  0  0  0  0  0  0  0  0  0
   24.7059  -12.9587  -18.8809 C   0  0  0  0  0  0  0  0  0  0  0  0
   24.3512  -12.2005  -17.6455 C   0  0  0  0  0  0  0  0  0  0  0  0
   23.1925  -12.3149  -17.2075 O   0  0  0  0  0  0  0  0  0  0  0  0
   26.1104  -10.2578  -14.9531 C   0  0  0  0  0  0  0  0  0  0  0  0
   24.8794  -10.6531  -15.7566 C   0  0  2  0  0  0  0  0  0  0  0  0
   25.2598  -11.3693  -16.9591 N   0  0  0  0  0  0  0  0  0  0  0  0
   24.0638   -9.4539  -16.1045 C   0  0  0  0  0  0  0  0  0  0  0  0
   24.4309   -8.7194  -17.0777 O   0  0  0  0  0  0  0  0  0  0  0  0
   18.0329  -12.9364  -15.4053 N   0  0  0  0  0  0  0  0  0  0  0  0
   18.1523  -12.5302  -16.7618 C   0  0  0  0  0  0  0  0  0  0  0  0
   17.7079  -13.3444  -17.6868 N   0  0  0  0  0  0  0  0  0  0  0  0
   18.7335  -11.2825  -17.1185 N   0  0  0  0  0  0  0  0  0  0  0  0
   19.3978  -10.4985  -16.0884 C   0  0  0  0  0  0  0  0  0  0  0  0
   19.8905   -9.1894  -16.5043 C   0  0  0  0  0  0  0  0  0  0  0  0
   20.6333   -8.2765  -15.6641 C   0  0  0  0  0  0  0  0  0  0  0  0
   22.0550   -7.9435  -15.8144 C   0  0  2  0  0  0  0  0  0  0  0  0
   22.9029   -9.0793  -15.4182 N   0  0  0  0  0  0  0  0  0  0  0  0
   22.4950   -6.7850  -15.0756 C   0  0  0  0  0  0  0  0  0  0  0  0
   23.2703   -6.7849  -14.1269 O   0  0  0  0  0  0  0  0  0  0  0  0
   22.0068   -5.5092  -15.4526 O   0  0  0  0  0  0  0  0  0  0  0  0
  2  3  1  0
  2  1  1  0
  3  4  2  0
  6  5  1  6
  6  8  1  0
  7  6  1  0
  7  3  1  0
  8  9  2  0
  8 18  1  0
 10 11  1  0
 11 12  2  0
 13 14  1  0
 13 11  1  0
 14 15  1  0
 17 16  1  1
 16 15  1  0
 17 19  1  0
 18 17  1  0
 19 20  2  0
 19 21  1  0
M  END
$$$$
