GAR.pdb
     RDKit          3D

 21 20  0  0  1  0  0  0  0  0999 V2000
   18.5471  -14.5193  -16.3047 N   0  0  0  0  0  0  0  0  0  0  0  0
   18.3093  -13.1267  -16.5775 C   0  0  0  0  0  0  0  0  0  0  0  0
   19.0771  -12.2255  -15.6690 C   0  0  0  0  0  0  0  0  0  0  0  0
   18.8122  -12.2641  -14.4542 O   0  0  0  0  0  0  0  0  0  0  0  0
   21.9813   -9.8296  -15.8433 C   0  0  0  0  0  0  0  0  0  0  0  0
   20.6970  -10.3741  -15.2339 C   0  0  2  0  0  0  0  0  0  0  0  0
   20.0785  -11.3415  -16.1199 N   0  0  0  0  0  0  0  0  0  0  0  0
   19.7435   -9.2689  -14.9277 C   0  0  0  0  0  0  0  0  0  0  0  0
   18.9107   -8.9076  -15.8206 O   0  0  0  0  0  0  0  0  0  0  0  0
   15.4298   -7.6887   -7.4682 N   0  0  0  0  0  0  0  0  0  0  0  0
   14.5650   -7.7388   -8.5948 C   0  0  0  0  0  0  0  0  0  0  0  0
   13.2877   -7.9329   -8.3789 N   0  0  0  0  0  0  0  0  0  0  0  0
   15.0568   -7.5848   -9.9200 N   0  0  0  0  0  0  0  0  0  0  0  0
   16.4923   -7.6523  -10.1475 C   0  0  0  0  0  0  0  0  0  0  0  0
   16.9200   -7.5688  -11.5401 C   0  0  0  0  0  0  0  0  0  0  0  0
   18.2924   -7.6277  -11.9921 C   0  0  0  0  0  0  0  0  0  0  0  0
   18.7357   -7.5326  -13.3882 C   0  0  2  0  0  0  0  0  0  0  0  0
   19.7058   -8.5937  -13.7023 N   0  0  0  0  0  0  0  0  0  0  0  0
   19.3268   -6.2698  -13.7594 C   0  0  0  0  0  0  0  0  0  0  0  0
   20.5208   -6.0529  -13.9275 O   0  0  0  0  0  0  0  0  0  0  0  0
   18.4793   -5.1515  -13.9574 O   0  0  0  0  0  0  0  0  0  0  0  0
  2  3  1  0
  2  1  1  0
  3  4  2  0
  6  5  1  6
  6  8  1  0
  7  6  1  0
  7  3  1  0
  8  9  2  0
  8 18  1  0
 10 11  1  0
 11 12  2  0
 13 14  1  0
 13 11  1  0
 14 15  1  0
 17 16  1  1
 16 15  1  0
 17 19  1  0
 18 17  1  0
 19 20  2  0
 19 21  1  0
M  END
$$$$
