AAL.pdb
     RDKit          3D

 19 18  0  0  1  0  0  0  0  0999 V2000
    8.4055  -12.2135   19.5860 C   0  0  0  0  0  0  0  0  0  0  0  0
    8.4022  -13.6907   19.2357 C   0  0  2  0  0  0  0  0  0  0  0  0
    7.3944  -13.9256   18.2205 N   0  0  0  0  0  0  0  0  0  0  0  0
    8.0941  -14.4233   20.4943 C   0  0  0  0  0  0  0  0  0  0  0  0
    6.9086  -14.4333   20.9203 O   0  0  0  0  0  0  0  0  0  0  0  0
    9.5621  -17.2015   22.3050 C   0  0  0  0  0  0  0  0  0  0  0  0
    8.7157  -15.9317   22.4229 C   0  0  2  0  0  0  0  0  0  0  0  0
    9.0507  -15.1200   21.2590 N   0  0  0  0  0  0  0  0  0  0  0  0
    9.0159  -15.2250   23.6842 C   0  0  0  0  0  0  0  0  0  0  0  0
   10.1074  -14.6360   23.7931 O   0  0  0  0  0  0  0  0  0  0  0  0
    8.0191  -11.7050   25.8660 C   0  0  0  0  0  0  0  0  0  0  0  0
    6.8659  -12.7115   25.8138 C   0  0  2  0  0  0  0  0  0  0  0  0
    5.6225  -12.0915   26.4053 C   0  0  0  0  0  0  0  0  0  0  0  0
    7.2104  -13.9524   26.5590 C   0  0  0  0  0  0  0  0  0  0  0  0
    8.4233  -14.6168   25.9961 C   0  0  2  0  0  0  0  0  0  0  0  0
    8.0484  -15.2476   24.7170 N   0  0  0  0  0  0  0  0  0  0  0  0
    8.9585  -15.6773   26.8691 C   0  0  0  0  0  0  0  0  0  0  0  0
    9.5345  -15.3669   27.9626 O   0  0  0  0  0  0  0  0  0  0  0  0
    8.8529  -17.0057   26.5391 O   0  0  0  0  0  0  0  0  0  0  0  0
  2  1  1  1
  2  3  1  0
  4  2  1  0
  5  4  2  0
  7  9  1  0
  7  6  1  6
  7  8  1  0
  8  4  1  0
  9 16  1  0
 10  9  2  0
 12 11  1  1
 13 12  1  0
 14 12  1  0
 15 14  1  1
 16 15  1  0
 17 19  1  0
 17 15  1  0
 18 17  2  0
M  END
$$$$
