AAL.pdb
     RDKit          3D

 19 18  0  0  1  0  0  0  0  0999 V2000
    8.8234  -12.4360   19.0387 C   0  0  0  0  0  0  0  0  0  0  0  0
    8.4117  -13.8548   18.6889 C   0  0  2  0  0  0  0  0  0  0  0  0
    7.2573  -13.8016   17.8137 N   0  0  0  0  0  0  0  0  0  0  0  0
    8.0939  -14.5326   19.9755 C   0  0  0  0  0  0  0  0  0  0  0  0
    6.9780  -14.3179   20.5192 O   0  0  0  0  0  0  0  0  0  0  0  0
    9.4961  -17.3753   21.8926 C   0  0  0  0  0  0  0  0  0  0  0  0
    8.6163  -16.1231   21.8672 C   0  0  2  0  0  0  0  0  0  0  0  0
    8.9676  -15.4140   20.6426 N   0  0  0  0  0  0  0  0  0  0  0  0
    8.8605  -15.2948   23.0650 C   0  0  0  0  0  0  0  0  0  0  0  0
    9.8943  -14.6026   23.1115 O   0  0  0  0  0  0  0  0  0  0  0  0
    5.9597  -12.9163   27.5398 C   0  0  0  0  0  0  0  0  0  0  0  0
    7.0837  -12.6059   26.5469 C   0  0  2  0  0  0  0  0  0  0  0  0
    7.0076  -11.1567   26.1293 C   0  0  0  0  0  0  0  0  0  0  0  0
    6.9873  -13.4793   25.3461 C   0  0  0  0  0  0  0  0  0  0  0  0
    8.1426  -14.4206   25.2528 C   0  0  2  0  0  0  0  0  0  0  0  0
    7.9071  -15.3233   24.1108 N   0  0  0  0  0  0  0  0  0  0  0  0
    8.3005  -15.2619   26.4530 C   0  0  0  0  0  0  0  0  0  0  0  0
    9.0778  -14.8877   27.3910 O   0  0  0  0  0  0  0  0  0  0  0  0
    7.6267  -16.4494   26.5959 O   0  0  0  0  0  0  0  0  0  0  0  0
  2  1  1  1
  2  3  1  0
  4  2  1  0
  5  4  2  0
  7  9  1  0
  7  6  1  1
  7  8  1  0
  8  4  1  0
  9 16  1  0
 10  9  2  0
 12 11  1  1
 13 12  1  0
 14 12  1  0
 15 14  1  1
 16 15  1  0
 17 19  1  0
 17 15  1  0
 18 17  2  0
M  END
$$$$
