AAL.pdb
     RDKit          3D

 19 18  0  0  1  0  0  0  0  0999 V2000
    5.7235  -18.7004   23.7891 C   0  0  0  0  0  0  0  0  0  0  0  0
    6.1465  -18.5721   22.3367 C   0  0  2  0  0  0  0  0  0  0  0  0
    6.6553  -19.8524   21.8857 N   0  0  0  0  0  0  0  0  0  0  0  0
    7.1970  -17.5184   22.2935 C   0  0  0  0  0  0  0  0  0  0  0  0
    8.3852  -17.8290   22.5740 O   0  0  0  0  0  0  0  0  0  0  0  0
    7.3579  -13.9774   21.1138 C   0  0  0  0  0  0  0  0  0  0  0  0
    8.0085  -15.1757   21.8092 C   0  0  2  0  0  0  0  0  0  0  0  0
    6.9543  -16.1723   21.9552 N   0  0  0  0  0  0  0  0  0  0  0  0
    8.5645  -14.7756   23.1172 C   0  0  0  0  0  0  0  0  0  0  0  0
    9.7038  -14.2747   23.1536 O   0  0  0  0  0  0  0  0  0  0  0  0
    7.9844  -11.6154   26.0566 C   0  0  0  0  0  0  0  0  0  0  0  0
    6.8667  -12.6493   25.8906 C   0  0  2  0  0  0  0  0  0  0  0  0
    5.6336  -12.1883   26.6304 C   0  0  0  0  0  0  0  0  0  0  0  0
    7.2927  -13.9786   26.4057 C   0  0  0  0  0  0  0  0  0  0  0  0
    8.3710  -14.5780   25.5646 C   0  0  2  0  0  0  0  0  0  0  0  0
    7.7772  -14.9791   24.2757 N   0  0  0  0  0  0  0  0  0  0  0  0
    8.9704  -15.7828   26.1664 C   0  0  0  0  0  0  0  0  0  0  0  0
    8.7042  -16.9316   25.6833 O   0  0  0  0  0  0  0  0  0  0  0  0
    9.8191  -15.7061   27.2428 O   0  0  0  0  0  0  0  0  0  0  0  0
  2  1  1  1
  2  3  1  0
  4  2  1  0
  5  4  2  0
  7  9  1  0
  7  6  1  1
  7  8  1  0
  8  4  1  0
  9 16  1  0
 10  9  2  0
 12 11  1  1
 13 12  1  0
 14 12  1  0
 15 14  1  1
 16 15  1  0
 17 19  1  0
 17 15  1  0
 18 17  2  0
M  END
$$$$
