AAL.pdb
     RDKit          3D

 19 18  0  0  1  0  0  0  0  0999 V2000
    7.0802  -19.2416   19.7823 C   0  0  0  0  0  0  0  0  0  0  0  0
    6.8996  -18.6526   21.1698 C   0  0  2  0  0  0  0  0  0  0  0  0
    5.5113  -18.2697   21.3353 N   0  0  0  0  0  0  0  0  0  0  0  0
    7.8068  -17.4753   21.2510 C   0  0  0  0  0  0  0  0  0  0  0  0
    9.0469  -17.6494   21.1133 O   0  0  0  0  0  0  0  0  0  0  0  0
    7.4483  -13.8314   20.9395 C   0  0  0  0  0  0  0  0  0  0  0  0
    8.2651  -15.0027   21.4908 C   0  0  2  0  0  0  0  0  0  0  0  0
    7.3710  -16.1542   21.4752 N   0  0  0  0  0  0  0  0  0  0  0  0
    8.7434  -14.7031   22.8552 C   0  0  0  0  0  0  0  0  0  0  0  0
    9.8768  -14.2073   22.9950 O   0  0  0  0  0  0  0  0  0  0  0  0
    7.8567  -11.7935   26.3497 C   0  0  0  0  0  0  0  0  0  0  0  0
    6.7935  -12.7576   25.8152 C   0  0  2  0  0  0  0  0  0  0  0  0
    5.4621  -12.4550   26.4606 C   0  0  0  0  0  0  0  0  0  0  0  0
    7.1730  -14.1703   26.0877 C   0  0  0  0  0  0  0  0  0  0  0  0
    8.3611  -14.5882   25.2856 C   0  0  2  0  0  0  0  0  0  0  0  0
    7.8914  -14.9930   23.9477 N   0  0  0  0  0  0  0  0  0  0  0  0
    9.0751  -15.7390   25.8678 C   0  0  0  0  0  0  0  0  0  0  0  0
    9.6311  -15.6280   27.0091 O   0  0  0  0  0  0  0  0  0  0  0  0
    9.1594  -16.9427   25.2130 O   0  0  0  0  0  0  0  0  0  0  0  0
  2  1  1  6
  2  3  1  0
  4  2  1  0
  5  4  2  0
  7  9  1  0
  7  6  1  1
  7  8  1  0
  8  4  1  0
  9 16  1  0
 10  9  2  0
 12 11  1  1
 13 12  1  0
 14 12  1  0
 15 14  1  1
 16 15  1  0
 17 19  1  0
 17 15  1  0
 18 17  2  0
M  END
$$$$
