AAL.pdb
     RDKit          3D

 19 18  0  0  1  0  0  0  0  0999 V2000
    5.6038  -18.3697   23.4308 C   0  0  0  0  0  0  0  0  0  0  0  0
    5.7722  -18.1490   21.9382 C   0  0  2  0  0  0  0  0  0  0  0  0
    5.9980  -19.4314   21.3011 N   0  0  0  0  0  0  0  0  0  0  0  0
    6.9405  -17.2415   21.7738 C   0  0  0  0  0  0  0  0  0  0  0  0
    8.1006  -17.7326   21.7798 O   0  0  0  0  0  0  0  0  0  0  0  0
    7.5175  -13.7272   20.7470 C   0  0  0  0  0  0  0  0  0  0  0  0
    7.9970  -14.9617   21.5143 C   0  0  2  0  0  0  0  0  0  0  0  0
    6.8415  -15.8457   21.6089 N   0  0  0  0  0  0  0  0  0  0  0  0
    8.5000  -14.5785   22.8486 C   0  0  0  0  0  0  0  0  0  0  0  0
    9.6466  -14.1020   22.9401 O   0  0  0  0  0  0  0  0  0  0  0  0
    6.1204  -11.6812   27.0037 C   0  0  0  0  0  0  0  0  0  0  0  0
    7.3820  -12.3859   26.4964 C   0  0  2  0  0  0  0  0  0  0  0  0
    7.9565  -11.6214   25.3278 C   0  0  0  0  0  0  0  0  0  0  0  0
    7.0794  -13.7825   26.0818 C   0  0  0  0  0  0  0  0  0  0  0  0
    8.1932  -14.3761   25.2840 C   0  0  2  0  0  0  0  0  0  0  0  0
    7.6556  -14.7695   23.9684 N   0  0  0  0  0  0  0  0  0  0  0  0
    8.7673  -15.5843   25.9036 C   0  0  0  0  0  0  0  0  0  0  0  0
    9.3873  -15.4934   27.0133 O   0  0  0  0  0  0  0  0  0  0  0  0
    8.6518  -16.8204   25.3176 O   0  0  0  0  0  0  0  0  0  0  0  0
  2  1  1  1
  2  3  1  0
  4  2  1  0
  5  4  2  0
  7  9  1  0
  7  6  1  1
  7  8  1  0
  8  4  1  0
  9 16  1  0
 10  9  2  0
 12 11  1  6
 13 12  1  0
 14 12  1  0
 15 14  1  1
 16 15  1  0
 17 19  1  0
 17 15  1  0
 18 17  2  0
M  END
$$$$
