AAL.pdb
     RDKit          3D

 19 18  0  0  1  0  0  0  0  0999 V2000
    5.9089  -18.6288   24.4334 C   0  0  0  0  0  0  0  0  0  0  0  0
    6.0738  -18.5961   22.9245 C   0  0  2  0  0  0  0  0  0  0  0  0
    6.4426  -19.9218   22.4682 N   0  0  0  0  0  0  0  0  0  0  0  0
    7.1420  -17.6002   22.6371 C   0  0  0  0  0  0  0  0  0  0  0  0
    8.3474  -17.9572   22.7182 O   0  0  0  0  0  0  0  0  0  0  0  0
    7.2836  -14.1438   21.2451 C   0  0  0  0  0  0  0  0  0  0  0  0
    7.9557  -15.2965   21.9949 C   0  0  2  0  0  0  0  0  0  0  0  0
    6.8983  -16.2608   22.2738 N   0  0  0  0  0  0  0  0  0  0  0  0
    8.5879  -14.8074   23.2365 C   0  0  0  0  0  0  0  0  0  0  0  0
    9.6536  -14.1693   23.1523 O   0  0  0  0  0  0  0  0  0  0  0  0
    7.9077  -11.5784   25.7859 C   0  0  0  0  0  0  0  0  0  0  0  0
    6.9028  -12.7314   25.8666 C   0  0  2  0  0  0  0  0  0  0  0  0
    5.6831  -12.2897   26.6397 C   0  0  0  0  0  0  0  0  0  0  0  0
    7.5102  -13.9197   26.5246 C   0  0  0  0  0  0  0  0  0  0  0  0
    8.5828  -14.5295   25.6837 C   0  0  2  0  0  0  0  0  0  0  0  0
    7.9540  -15.0854   24.4711 N   0  0  0  0  0  0  0  0  0  0  0  0
    9.2882  -15.6339   26.3589 C   0  0  0  0  0  0  0  0  0  0  0  0
    9.0733  -16.8371   25.9983 O   0  0  0  0  0  0  0  0  0  0  0  0
   10.1826  -15.4048   27.3749 O   0  0  0  0  0  0  0  0  0  0  0  0
  2  1  1  1
  2  3  1  0
  4  2  1  0
  5  4  2  0
  7  9  1  0
  7  6  1  1
  7  8  1  0
  8  4  1  0
  9 16  1  0
 10  9  2  0
 12 11  1  1
 13 12  1  0
 14 12  1  0
 15 14  1  1
 16 15  1  0
 17 19  1  0
 17 15  1  0
 18 17  2  0
M  END
$$$$
