AAL.pdb
     RDKit          3D

 19 18  0  0  1  0  0  0  0  0999 V2000
    8.6654  -12.3747   18.8865 C   0  0  0  0  0  0  0  0  0  0  0  0
    8.6701  -13.8481   18.5203 C   0  0  2  0  0  0  0  0  0  0  0  0
    7.8062  -14.0448   17.3729 N   0  0  0  0  0  0  0  0  0  0  0  0
    8.1712  -14.5826   19.7149 C   0  0  0  0  0  0  0  0  0  0  0  0
    6.9380  -14.5641   19.9719 O   0  0  0  0  0  0  0  0  0  0  0  0
    9.2233  -17.3777   21.7652 C   0  0  0  0  0  0  0  0  0  0  0  0
    8.4888  -16.0348   21.7573 C   0  0  2  0  0  0  0  0  0  0  0  0
    8.9939  -15.3112   20.5967 N   0  0  0  0  0  0  0  0  0  0  0  0
    8.7437  -15.2983   23.0114 C   0  0  0  0  0  0  0  0  0  0  0  0
    9.8287  -14.7019   23.1434 O   0  0  0  0  0  0  0  0  0  0  0  0
    5.6467  -12.3647   27.2837 C   0  0  0  0  0  0  0  0  0  0  0  0
    6.9888  -12.9215   26.7996 C   0  0  2  0  0  0  0  0  0  0  0  0
    7.9595  -11.7864   26.5764 C   0  0  0  0  0  0  0  0  0  0  0  0
    6.8198  -13.6920   25.5380 C   0  0  0  0  0  0  0  0  0  0  0  0
    8.0193  -14.5282   25.2359 C   0  0  2  0  0  0  0  0  0  0  0  0
    7.7421  -15.3018   24.0114 N   0  0  0  0  0  0  0  0  0  0  0  0
    8.3341  -15.4939   26.3043 C   0  0  0  0  0  0  0  0  0  0  0  0
    7.6828  -16.5865   26.3825 O   0  0  0  0  0  0  0  0  0  0  0  0
    9.3204  -15.2523   27.2281 O   0  0  0  0  0  0  0  0  0  0  0  0
  2  1  1  1
  2  3  1  0
  4  2  1  0
  5  4  2  0
  7  9  1  0
  7  6  1  1
  7  8  1  0
  8  4  1  0
  9 16  1  0
 10  9  2  0
 12 11  1  6
 13 12  1  0
 14 12  1  0
 15 14  1  1
 16 15  1  0
 17 19  1  0
 17 15  1  0
 18 17  2  0
M  END
$$$$
