YQF.pdb
     RDKit          3D

 33 34  0  0  1  0  0  0  0  0999 V2000
   31.7564  -16.7909  -18.6216 O   0  0  0  0  0  0  0  0  0  0  0  0
   30.4248  -16.7131  -18.2749 C   0  0  0  0  0  0  0  0  0  0  0  0
   29.6100  -15.7294  -18.7841 C   0  0  0  0  0  0  0  0  0  0  0  0
   28.2767  -15.6545  -18.4345 C   0  0  0  0  0  0  0  0  0  0  0  0
   27.7125  -16.5619  -17.5629 C   0  0  0  0  0  0  0  0  0  0  0  0
   26.2737  -16.5040  -17.1678 C   0  0  0  0  0  0  0  0  0  0  0  0
   25.5842  -17.6783  -17.8243 C   0  0  2  0  0  0  0  0  0  0  0  0
   25.6374  -17.4602  -19.2516 N   0  0  0  0  0  0  0  0  0  0  0  0
   24.1761  -17.8033  -17.4088 C   0  0  0  0  0  0  0  0  0  0  0  0
   23.2376  -17.2020  -18.0182 O   0  0  0  0  0  0  0  0  0  0  0  0
   28.5180  -17.5492  -17.0482 C   0  0  0  0  0  0  0  0  0  0  0  0
   29.8480  -17.6274  -17.3942 C   0  0  0  0  0  0  0  0  0  0  0  0
   19.7031  -18.0249  -18.4567 N   0  0  0  0  0  0  0  0  0  0  0  0
   19.2200  -18.8836  -17.4435 C   0  0  0  0  0  0  0  0  0  0  0  0
   17.9938  -19.0086  -17.2422 O   0  0  0  0  0  0  0  0  0  0  0  0
   20.2307  -19.6479  -16.6088 C   0  0  0  0  0  0  0  0  0  0  0  0
   21.6113  -19.2725  -16.9968 C   0  0  0  0  0  0  0  0  0  0  0  0
   22.4526  -18.8384  -15.8523 C   0  0  2  0  0  0  0  0  0  0  0  0
   23.8346  -18.6119  -16.3003 N   0  0  0  0  0  0  0  0  0  0  0  0
   22.4365  -19.7626  -14.6971 C   0  0  0  0  0  0  0  0  0  0  0  0
   22.8615  -20.9738  -14.8371 O   0  0  0  0  0  0  0  0  0  0  0  0
   21.9938  -19.4547  -13.3925 N   0  0  0  0  0  0  0  0  0  0  0  0
   22.1035  -20.4372  -12.2938 C   0  0  1  0  0  0  0  0  0  0  0  0
   22.0565  -19.6105  -11.0359 C   0  0  0  0  0  0  0  0  0  0  0  0
   22.0748  -20.3499   -9.7842 C   0  0  0  0  0  0  0  0  0  0  0  0
   20.8584  -20.6044   -9.1665 C   0  0  0  0  0  0  0  0  0  0  0  0
   20.7348  -21.2924   -7.9910 C   0  0  0  0  0  0  0  0  0  0  0  0
   21.8603  -21.7743   -7.3571 C   0  0  0  0  0  0  0  0  0  0  0  0
   23.0945  -21.5320   -7.9573 C   0  0  0  0  0  0  0  0  0  0  0  0
   23.1927  -20.8357   -9.1430 C   0  0  0  0  0  0  0  0  0  0  0  0
   20.9425  -21.3472  -12.2986 C   0  0  0  0  0  0  0  0  0  0  0  0
   19.7785  -21.0602  -12.9877 O   0  0  0  0  0  0  0  0  0  0  0  0
   21.0084  -22.4196  -11.6561 O   0  0  0  0  0  0  0  0  0  0  0  0
  2  1  1  0
  3  2  2  0
  4  3  1  0
  5  4  2  0
  5 11  1  0
  6  5  1  0
  7  6  1  0
  7  8  1  6
  9  7  1  0
  9 10  2  0
 11 12  2  0
 12  2  1  0
 13 14  1  0
 14 16  1  0
 15 14  2  0
 16 17  1  0
 18 17  1  6
 18 19  1  0
 18 20  1  0
 19  9  1  0
 20 21  2  0
 20 22  1  0
 22 23  1  0
 23 31  1  0
 23 24  1  1
 25 24  1  0
 25 30  1  0
 26 25  2  0
 27 26  1  0
 27 28  2  0
 28 29  1  0
 29 30  2  0
 31 33  2  0
 31 32  1  0
M  END
$$$$
