YQF.pdb
     RDKit          3D

 33 34  0  0  1  0  0  0  0  0999 V2000
   31.2027  -19.2424  -19.4288 O   0  0  0  0  0  0  0  0  0  0  0  0
   30.4835  -19.0418  -18.2703 C   0  0  0  0  0  0  0  0  0  0  0  0
   30.3233  -20.0468  -17.3456 C   0  0  0  0  0  0  0  0  0  0  0  0
   29.6022  -19.8423  -16.1864 C   0  0  0  0  0  0  0  0  0  0  0  0
   29.0164  -18.6244  -15.9124 C   0  0  0  0  0  0  0  0  0  0  0  0
   28.2313  -18.3760  -14.6667 C   0  0  0  0  0  0  0  0  0  0  0  0
   27.0210  -19.2805  -14.7156 C   0  0  2  0  0  0  0  0  0  0  0  0
   26.2529  -18.9024  -15.8795 N   0  0  0  0  0  0  0  0  0  0  0  0
   26.1750  -19.1473  -13.5167 C   0  0  0  0  0  0  0  0  0  0  0  0
   25.4564  -18.1204  -13.3095 O   0  0  0  0  0  0  0  0  0  0  0  0
   29.1705  -17.6131  -16.8299 C   0  0  0  0  0  0  0  0  0  0  0  0
   29.8887  -17.8129  -17.9871 C   0  0  0  0  0  0  0  0  0  0  0  0
   21.4017  -21.3361  -12.1736 N   0  0  0  0  0  0  0  0  0  0  0  0
   21.6024  -20.8089  -10.8779 C   0  0  0  0  0  0  0  0  0  0  0  0
   20.6586  -20.7383  -10.0631 O   0  0  0  0  0  0  0  0  0  0  0  0
   22.9939  -20.3321  -10.5050 C   0  0  0  0  0  0  0  0  0  0  0  0
   23.9215  -20.4990  -11.6493 C   0  0  0  0  0  0  0  0  0  0  0  0
   25.3263  -20.1349  -11.3329 C   0  0  2  0  0  0  0  0  0  0  0  0
   26.1457  -20.1814  -12.5528 N   0  0  0  0  0  0  0  0  0  0  0  0
   25.9463  -20.9575  -10.2709 C   0  0  0  0  0  0  0  0  0  0  0  0
   26.1167  -22.2240  -10.4562 O   0  0  0  0  0  0  0  0  0  0  0  0
   26.4018  -20.4921   -9.0184 N   0  0  0  0  0  0  0  0  0  0  0  0
   26.8146  -21.4321   -7.9553 C   0  0  1  0  0  0  0  0  0  0  0  0
   28.2247  -21.0278   -7.6143 C   0  0  0  0  0  0  0  0  0  0  0  0
   28.3942  -20.2801   -6.3790 C   0  0  0  0  0  0  0  0  0  0  0  0
   27.9678  -18.9596   -6.3594 C   0  0  0  0  0  0  0  0  0  0  0  0
   28.0640  -18.1485   -5.2626 C   0  0  0  0  0  0  0  0  0  0  0  0
   28.6097  -18.6369   -4.0945 C   0  0  0  0  0  0  0  0  0  0  0  0
   29.0457  -19.9605   -4.0881 C   0  0  0  0  0  0  0  0  0  0  0  0
   28.9376  -20.7582   -5.2072 C   0  0  0  0  0  0  0  0  0  0  0  0
   25.9746  -21.2545   -6.7558 C   0  0  0  0  0  0  0  0  0  0  0  0
   26.1436  -22.0150   -5.6133 O   0  0  0  0  0  0  0  0  0  0  0  0
   25.0740  -20.3852   -6.7679 O   0  0  0  0  0  0  0  0  0  0  0  0
  2  1  1  0
  3  2  2  0
  4  3  1  0
  5  4  2  0
  5 11  1  0
  6  5  1  0
  7  6  1  0
  7  8  1  6
  9  7  1  0
  9 10  2  0
 11 12  2  0
 12  2  1  0
 13 14  1  0
 14 16  1  0
 15 14  2  0
 16 17  1  0
 18 17  1  6
 18 19  1  0
 18 20  1  0
 19  9  1  0
 20 21  2  0
 20 22  1  0
 22 23  1  0
 23 31  1  0
 23 24  1  1
 25 24  1  0
 25 30  1  0
 26 25  2  0
 27 26  1  0
 27 28  2  0
 28 29  1  0
 29 30  2  0
 31 33  2  0
 31 32  1  0
M  END
$$$$
