YQF.pdb
     RDKit          3D

 33 34  0  0  1  0  0  0  0  0999 V2000
   36.5957  -23.4752  -22.6734 O   0  0  0  0  0  0  0  0  0  0  0  0
   35.2423  -23.7306  -22.7246 C   0  0  0  0  0  0  0  0  0  0  0  0
   34.6800  -24.3940  -23.7898 C   0  0  0  0  0  0  0  0  0  0  0  0
   33.3240  -24.6479  -23.8377 C   0  0  0  0  0  0  0  0  0  0  0  0
   32.4835  -24.2467  -22.8208 C   0  0  0  0  0  0  0  0  0  0  0  0
   31.0136  -24.5083  -22.8471 C   0  0  0  0  0  0  0  0  0  0  0  0
   30.7703  -25.7631  -22.0401 C   0  0  2  0  0  0  0  0  0  0  0  0
   31.2526  -26.8756  -22.8258 N   0  0  0  0  0  0  0  0  0  0  0  0
   29.3419  -25.9678  -21.7423 C   0  0  0  0  0  0  0  0  0  0  0  0
   28.5691  -26.5857  -22.5389 O   0  0  0  0  0  0  0  0  0  0  0  0
   33.0352  -23.5830  -21.7515 C   0  0  0  0  0  0  0  0  0  0  0  0
   34.3869  -23.3276  -21.6998 C   0  0  0  0  0  0  0  0  0  0  0  0
   24.1920  -24.4997  -17.7705 N   0  0  0  0  0  0  0  0  0  0  0  0
   25.4329  -25.1240  -17.5104 C   0  0  0  0  0  0  0  0  0  0  0  0
   26.1788  -24.7089  -16.5987 O   0  0  0  0  0  0  0  0  0  0  0  0
   25.8328  -26.3104  -18.3678 C   0  0  0  0  0  0  0  0  0  0  0  0
   27.2382  -26.1721  -18.8185 C   0  0  0  0  0  0  0  0  0  0  0  0
   27.3710  -25.5937  -20.1802 C   0  0  2  0  0  0  0  0  0  0  0  0
   28.7916  -25.4701  -20.5387 N   0  0  0  0  0  0  0  0  0  0  0  0
   26.6847  -24.2956  -20.3621 C   0  0  0  0  0  0  0  0  0  0  0  0
   27.1542  -23.2354  -19.7941 O   0  0  0  0  0  0  0  0  0  0  0  0
   25.5212  -24.0710  -21.1293 N   0  0  0  0  0  0  0  0  0  0  0  0
   24.9747  -22.7101  -21.3125 C   0  0  1  0  0  0  0  0  0  0  0  0
   24.8600  -22.5422  -22.8047 C   0  0  0  0  0  0  0  0  0  0  0  0
   23.8330  -23.3358  -23.4601 C   0  0  0  0  0  0  0  0  0  0  0  0
   24.2270  -24.5061  -24.0934 C   0  0  0  0  0  0  0  0  0  0  0  0
   23.3628  -25.3450  -24.7411 C   0  0  0  0  0  0  0  0  0  0  0  0
   22.0185  -25.0422  -24.7872 C   0  0  0  0  0  0  0  0  0  0  0  0
   21.5972  -23.8720  -24.1585 C   0  0  0  0  0  0  0  0  0  0  0  0
   22.4884  -23.0427  -23.5118 C   0  0  0  0  0  0  0  0  0  0  0  0
   23.6245  -22.6138  -20.7263 C   0  0  0  0  0  0  0  0  0  0  0  0
   22.9094  -21.4305  -20.7023 O   0  0  0  0  0  0  0  0  0  0  0  0
   23.1028  -23.6380  -20.2304 O   0  0  0  0  0  0  0  0  0  0  0  0
  2  1  1  0
  3  2  2  0
  4  3  1  0
  5  4  2  0
  5 11  1  0
  6  5  1  0
  7  6  1  0
  7  8  1  6
  9  7  1  0
  9 10  2  0
 11 12  2  0
 12  2  1  0
 13 14  1  0
 14 16  1  0
 15 14  2  0
 16 17  1  0
 18 17  1  1
 18 19  1  0
 18 20  1  0
 19  9  1  0
 20 21  2  0
 20 22  1  0
 22 23  1  0
 23 31  1  0
 23 24  1  6
 25 24  1  0
 25 30  1  0
 26 25  2  0
 27 26  1  0
 27 28  2  0
 28 29  1  0
 29 30  2  0
 31 33  2  0
 31 32  1  0
M  END
$$$$
