YQF.pdb
     RDKit          3D

 33 34  0  0  1  0  0  0  0  0999 V2000
   21.4757  -34.0152  -19.1191 O   0  0  0  0  0  0  0  0  0  0  0  0
   21.3647  -32.8961  -18.3223 C   0  0  0  0  0  0  0  0  0  0  0  0
   22.0041  -32.8176  -17.1073 C   0  0  0  0  0  0  0  0  0  0  0  0
   21.8905  -31.6951  -16.3119 C   0  0  0  0  0  0  0  0  0  0  0  0
   21.1330  -30.6120  -16.7049 C   0  0  0  0  0  0  0  0  0  0  0  0
   20.9931  -29.3858  -15.8643 C   0  0  0  0  0  0  0  0  0  0  0  0
   21.8090  -28.2980  -16.5246 C   0  0  2  0  0  0  0  0  0  0  0  0
   23.2009  -28.6474  -16.3563 N   0  0  0  0  0  0  0  0  0  0  0  0
   21.5687  -26.9753  -15.9217 C   0  0  0  0  0  0  0  0  0  0  0  0
   21.9855  -26.6787  -14.7589 O   0  0  0  0  0  0  0  0  0  0  0  0
   20.4899  -30.6801  -17.9174 C   0  0  0  0  0  0  0  0  0  0  0  0
   20.6004  -31.7975  -18.7137 C   0  0  0  0  0  0  0  0  0  0  0  0
   23.1007  -22.1051  -16.5530 N   0  0  0  0  0  0  0  0  0  0  0  0
   21.8613  -21.4684  -16.3167 C   0  0  0  0  0  0  0  0  0  0  0  0
   21.8161  -20.3067  -15.8603 O   0  0  0  0  0  0  0  0  0  0  0  0
   20.5898  -22.2339  -16.6323 C   0  0  0  0  0  0  0  0  0  0  0  0
   20.9124  -23.6089  -17.0827 C   0  0  0  0  0  0  0  0  0  0  0  0
   20.5363  -24.6587  -16.1015 C   0  0  2  0  0  0  0  0  0  0  0  0
   20.8545  -25.9892  -16.6406 N   0  0  0  0  0  0  0  0  0  0  0  0
   19.1231  -24.6099  -15.6663 C   0  0  0  0  0  0  0  0  0  0  0  0
   18.1956  -25.0618  -16.4426 O   0  0  0  0  0  0  0  0  0  0  0  0
   18.6496  -24.1070  -14.4352 N   0  0  0  0  0  0  0  0  0  0  0  0
   17.2024  -23.9625  -14.1718 C   0  0  1  0  0  0  0  0  0  0  0  0
   16.9421  -24.8411  -12.9766 C   0  0  0  0  0  0  0  0  0  0  0  0
   16.7828  -26.2603  -13.2493 C   0  0  0  0  0  0  0  0  0  0  0  0
   15.5086  -26.7215  -13.5487 C   0  0  0  0  0  0  0  0  0  0  0  0
   15.2225  -28.0290  -13.8295 C   0  0  0  0  0  0  0  0  0  0  0  0
   16.2319  -28.9681  -13.8237 C   0  0  0  0  0  0  0  0  0  0  0  0
   17.5210  -28.5303  -13.5260 C   0  0  0  0  0  0  0  0  0  0  0  0
   17.7837  -27.2062  -13.2464 C   0  0  0  0  0  0  0  0  0  0  0  0
   16.8816  -22.5698  -13.8067 C   0  0  0  0  0  0  0  0  0  0  0  0
   15.5938  -22.1570  -13.5182 O   0  0  0  0  0  0  0  0  0  0  0  0
   17.8056  -21.7267  -13.7555 O   0  0  0  0  0  0  0  0  0  0  0  0
  2  1  1  0
  3  2  2  0
  4  3  1  0
  5  4  2  0
  5 11  1  0
  6  5  1  0
  7  6  1  0
  7  8  1  1
  9  7  1  0
  9 10  2  0
 11 12  2  0
 12  2  1  0
 13 14  1  0
 14 16  1  0
 15 14  2  0
 16 17  1  0
 18 17  1  6
 18 19  1  0
 18 20  1  0
 19  9  1  0
 20 21  2  0
 20 22  1  0
 22 23  1  0
 23 31  1  0
 23 24  1  1
 25 24  1  0
 25 30  1  0
 26 25  2  0
 27 26  1  0
 27 28  2  0
 28 29  1  0
 29 30  2  0
 31 33  2  0
 31 32  1  0
M  END
$$$$
