YQF.pdb
     RDKit          3D

 33 34  0  0  1  0  0  0  0  0999 V2000
   17.8903  -10.7965  -18.7507 O   0  0  0  0  0  0  0  0  0  0  0  0
   18.2891  -12.0491  -18.3366 C   0  0  0  0  0  0  0  0  0  0  0  0
   19.6029  -12.3160  -18.0308 C   0  0  0  0  0  0  0  0  0  0  0  0
   19.9987  -13.5718  -17.6165 C   0  0  0  0  0  0  0  0  0  0  0  0
   19.0931  -14.6044  -17.4937 C   0  0  0  0  0  0  0  0  0  0  0  0
   19.4940  -15.9720  -17.0479 C   0  0  0  0  0  0  0  0  0  0  0  0
   20.3025  -16.5860  -18.1679 C   0  0  2  0  0  0  0  0  0  0  0  0
   19.3842  -16.8843  -19.2428 N   0  0  0  0  0  0  0  0  0  0  0  0
   20.9779  -17.8282  -17.7535 C   0  0  0  0  0  0  0  0  0  0  0  0
   20.3546  -18.9295  -17.6424 O   0  0  0  0  0  0  0  0  0  0  0  0
   17.7774  -14.3484  -17.7968 C   0  0  0  0  0  0  0  0  0  0  0  0
   17.3785  -13.0975  -18.2104 C   0  0  0  0  0  0  0  0  0  0  0  0
   27.0900  -18.8218  -18.3047 N   0  0  0  0  0  0  0  0  0  0  0  0
   26.7209  -20.0035  -17.6231 C   0  0  0  0  0  0  0  0  0  0  0  0
   27.5068  -20.9714  -17.5500 O   0  0  0  0  0  0  0  0  0  0  0  0
   25.3461  -20.0632  -16.9836 C   0  0  0  0  0  0  0  0  0  0  0  0
   24.5256  -18.9056  -17.4128 C   0  0  0  0  0  0  0  0  0  0  0  0
   23.1039  -18.9971  -16.9927 C   0  0  2  0  0  0  0  0  0  0  0  0
   22.3622  -17.8188  -17.4653 N   0  0  0  0  0  0  0  0  0  0  0  0
   22.9071  -19.1730  -15.5370 C   0  0  0  0  0  0  0  0  0  0  0  0
   22.6331  -18.1507  -14.7974 O   0  0  0  0  0  0  0  0  0  0  0  0
   22.9817  -20.3923  -14.8296 N   0  0  0  0  0  0  0  0  0  0  0  0
   22.8440  -20.4349  -13.3586 C   0  0  1  0  0  0  0  0  0  0  0  0
   21.4705  -19.8801  -13.0873 C   0  0  0  0  0  0  0  0  0  0  0  0
   21.0336  -19.9049  -11.7008 C   0  0  0  0  0  0  0  0  0  0  0  0
   20.4342  -21.0658  -11.2330 C   0  0  0  0  0  0  0  0  0  0  0  0
   19.9840  -21.2226   -9.9512 C   0  0  0  0  0  0  0  0  0  0  0  0
   20.1167  -20.1905   -9.0469 C   0  0  0  0  0  0  0  0  0  0  0  0
   20.7157  -19.0135   -9.4920 C   0  0  0  0  0  0  0  0  0  0  0  0
   21.1616  -18.8802  -10.7896 C   0  0  0  0  0  0  0  0  0  0  0  0
   22.8887  -21.8284  -12.8770 C   0  0  0  0  0  0  0  0  0  0  0  0
   23.2693  -22.1555  -11.5885 O   0  0  0  0  0  0  0  0  0  0  0  0
   22.5721  -22.7524  -13.6600 O   0  0  0  0  0  0  0  0  0  0  0  0
  2  1  1  0
  3  2  2  0
  4  3  1  0
  5  4  2  0
  5 11  1  0
  6  5  1  0
  7  6  1  0
  7  8  1  6
  9  7  1  0
  9 10  2  0
 11 12  2  0
 12  2  1  0
 13 14  1  0
 14 16  1  0
 15 14  2  0
 16 17  1  0
 18 17  1  1
 18 19  1  0
 18 20  1  0
 19  9  1  0
 20 21  2  0
 20 22  1  0
 22 23  1  0
 23 31  1  0
 23 24  1  6
 25 24  1  0
 25 30  1  0
 26 25  2  0
 27 26  1  0
 27 28  2  0
 28 29  1  0
 29 30  2  0
 31 33  2  0
 31 32  1  0
M  END
$$$$
