YQF.pdb
     RDKit          3D

 33 34  0  0  1  0  0  0  0  0999 V2000
   22.9398  -12.4947  -24.1674 O   0  0  0  0  0  0  0  0  0  0  0  0
   22.4833  -11.5752  -23.2478 C   0  0  0  0  0  0  0  0  0  0  0  0
   21.6841  -10.5222  -23.6263 C   0  0  0  0  0  0  0  0  0  0  0  0
   21.2288   -9.6031  -22.7024 C   0  0  0  0  0  0  0  0  0  0  0  0
   21.5577   -9.7061  -21.3673 C   0  0  0  0  0  0  0  0  0  0  0  0
   21.0793   -8.7262  -20.3471 C   0  0  0  0  0  0  0  0  0  0  0  0
   19.8674   -9.3350  -19.6793 C   0  0  2  0  0  0  0  0  0  0  0  0
   18.8056   -9.3545  -20.6589 N   0  0  0  0  0  0  0  0  0  0  0  0
   19.4265   -8.5588  -18.5071 C   0  0  0  0  0  0  0  0  0  0  0  0
   18.7693   -7.4778  -18.6228 O   0  0  0  0  0  0  0  0  0  0  0  0
   22.3561  -10.7548  -20.9782 C   0  0  0  0  0  0  0  0  0  0  0  0
   22.8122  -11.6735  -21.8963 C   0  0  0  0  0  0  0  0  0  0  0  0
   17.5800  -11.6156  -14.6526 N   0  0  0  0  0  0  0  0  0  0  0  0
   16.6792  -10.5706  -14.9586 C   0  0  0  0  0  0  0  0  0  0  0  0
   15.4597  -10.7991  -15.1020 O   0  0  0  0  0  0  0  0  0  0  0  0
   17.2337   -9.1661  -15.1076 C   0  0  0  0  0  0  0  0  0  0  0  0
   18.7130   -9.1816  -15.0129 C   0  0  0  0  0  0  0  0  0  0  0  0
   19.3796   -8.2734  -15.9810 C   0  0  2  0  0  0  0  0  0  0  0  0
   19.7325   -9.0112  -17.2029 N   0  0  0  0  0  0  0  0  0  0  0  0
   20.5694   -7.5763  -15.4451 C   0  0  0  0  0  0  0  0  0  0  0  0
   21.7147   -8.1725  -15.4382 O   0  0  0  0  0  0  0  0  0  0  0  0
   20.5988   -6.2660  -14.9205 N   0  0  0  0  0  0  0  0  0  0  0  0
   21.8386   -5.6948  -14.3539 C   0  0  1  0  0  0  0  0  0  0  0  0
   21.8596   -4.2696  -14.8403 C   0  0  0  0  0  0  0  0  0  0  0  0
   22.1304   -4.0816  -16.2563 C   0  0  0  0  0  0  0  0  0  0  0  0
   21.5768   -2.9712  -16.8780 C   0  0  0  0  0  0  0  0  0  0  0  0
   21.7574   -2.6747  -18.2008 C   0  0  0  0  0  0  0  0  0  0  0  0
   22.5263   -3.5031  -18.9903 C   0  0  0  0  0  0  0  0  0  0  0  0
   23.0937   -4.6254  -18.3896 C   0  0  0  0  0  0  0  0  0  0  0  0
   22.8967   -4.9024  -17.0536 C   0  0  0  0  0  0  0  0  0  0  0  0
   21.7748   -5.6848  -12.8802 C   0  0  0  0  0  0  0  0  0  0  0  0
   20.7107   -6.2238  -12.1807 O   0  0  0  0  0  0  0  0  0  0  0  0
   22.7157   -5.1699  -12.2347 O   0  0  0  0  0  0  0  0  0  0  0  0
  2  1  1  0
  3  2  2  0
  4  3  1  0
  5  4  2  0
  5 11  1  0
  6  5  1  0
  7  6  1  0
  7  8  1  6
  9  7  1  0
  9 10  2  0
 11 12  2  0
 12  2  1  0
 13 14  1  0
 14 16  1  0
 15 14  2  0
 16 17  1  0
 18 17  1  1
 18 19  1  0
 18 20  1  0
 19  9  1  0
 20 21  2  0
 20 22  1  0
 22 23  1  0
 23 31  1  0
 23 24  1  6
 25 24  1  0
 25 30  1  0
 26 25  2  0
 27 26  1  0
 27 28  2  0
 28 29  1  0
 29 30  2  0
 31 33  2  0
 31 32  1  0
M  END
$$$$
