YQF.pdb
     RDKit          3D

 33 34  0  0  1  0  0  0  0  0999 V2000
   34.7929  -32.2949  -18.1111 O   0  0  0  0  0  0  0  0  0  0  0  0
   33.5332  -31.8435  -17.7809 C   0  0  0  0  0  0  0  0  0  0  0  0
   32.5674  -32.7015  -17.3098 C   0  0  0  0  0  0  0  0  0  0  0  0
   31.3067  -32.2459  -16.9802 C   0  0  0  0  0  0  0  0  0  0  0  0
   30.9689  -30.9154  -17.1108 C   0  0  0  0  0  0  0  0  0  0  0  0
   29.6131  -30.3959  -16.7618 C   0  0  0  0  0  0  0  0  0  0  0  0
   28.7914  -30.4087  -18.0306 C   0  0  2  0  0  0  0  0  0  0  0  0
   29.2241  -29.2857  -18.8302 N   0  0  0  0  0  0  0  0  0  0  0  0
   27.3481  -30.2811  -17.7630 C   0  0  0  0  0  0  0  0  0  0  0  0
   26.8071  -29.1614  -17.5037 O   0  0  0  0  0  0  0  0  0  0  0  0
   31.9267  -30.0494  -17.5808 C   0  0  0  0  0  0  0  0  0  0  0  0
   33.1851  -30.4996  -17.9106 C   0  0  0  0  0  0  0  0  0  0  0  0
   23.0256  -29.4979  -19.0337 N   0  0  0  0  0  0  0  0  0  0  0  0
   22.1941  -30.5313  -18.5458 C   0  0  0  0  0  0  0  0  0  0  0  0
   20.9798  -30.3292  -18.3350 O   0  0  0  0  0  0  0  0  0  0  0  0
   22.8165  -31.8906  -18.2860 C   0  0  0  0  0  0  0  0  0  0  0  0
   24.2699  -31.8576  -18.5762 C   0  0  0  0  0  0  0  0  0  0  0  0
   25.0952  -31.4103  -17.4251 C   0  0  2  0  0  0  0  0  0  0  0  0
   26.5195  -31.4265  -17.7900 N   0  0  0  0  0  0  0  0  0  0  0  0
   24.8790  -32.1823  -16.1817 C   0  0  0  0  0  0  0  0  0  0  0  0
   25.4314  -33.3408  -16.0403 O   0  0  0  0  0  0  0  0  0  0  0  0
   24.1048  -31.7742  -15.0741 N   0  0  0  0  0  0  0  0  0  0  0  0
   24.0385  -32.5894  -13.8430 C   0  0  1  0  0  0  0  0  0  0  0  0
   24.5217  -31.6719  -12.7509 C   0  0  0  0  0  0  0  0  0  0  0  0
   24.5670  -32.2394  -11.4130 C   0  0  0  0  0  0  0  0  0  0  0  0
   25.4578  -33.2781  -11.1817 C   0  0  0  0  0  0  0  0  0  0  0  0
   25.6038  -33.8955   -9.9702 C   0  0  0  0  0  0  0  0  0  0  0  0
   24.8395  -33.4891   -8.8971 C   0  0  0  0  0  0  0  0  0  0  0  0
   23.9371  -32.4473   -9.1034 C   0  0  0  0  0  0  0  0  0  0  0  0
   23.8087  -31.8409  -10.3347 C   0  0  0  0  0  0  0  0  0  0  0  0
   22.6434  -32.9693  -13.5511 C   0  0  0  0  0  0  0  0  0  0  0  0
   22.2829  -34.2593  -13.2072 O   0  0  0  0  0  0  0  0  0  0  0  0
   21.7493  -32.0956  -13.6163 O   0  0  0  0  0  0  0  0  0  0  0  0
  2  1  1  0
  3  2  2  0
  4  3  1  0
  5  4  2  0
  5 11  1  0
  6  5  1  0
  7  6  1  0
  7  8  1  6
  9  7  1  0
  9 10  2  0
 11 12  2  0
 12  2  1  0
 13 14  1  0
 14 16  1  0
 15 14  2  0
 16 17  1  0
 18 17  1  6
 18 19  1  0
 18 20  1  0
 19  9  1  0
 20 21  2  0
 20 22  1  0
 22 23  1  0
 23 31  1  0
 23 24  1  1
 25 24  1  0
 25 30  1  0
 26 25  2  0
 27 26  1  0
 27 28  2  0
 28 29  1  0
 29 30  2  0
 31 33  2  0
 31 32  1  0
M  END
$$$$
