YQF.pdb
     RDKit          3D

 33 34  0  0  1  0  0  0  0  0999 V2000
   30.9486  -13.9384  -21.5716 O   0  0  0  0  0  0  0  0  0  0  0  0
   30.4915  -12.8733  -20.8258 C   0  0  0  0  0  0  0  0  0  0  0  0
   29.1750  -12.7845  -20.4387 C   0  0  0  0  0  0  0  0  0  0  0  0
   28.7208  -11.7162  -19.6919 C   0  0  0  0  0  0  0  0  0  0  0  0
   29.5686  -10.6993  -19.3064 C   0  0  0  0  0  0  0  0  0  0  0  0
   29.1039   -9.5325  -18.4989 C   0  0  0  0  0  0  0  0  0  0  0  0
   28.6472   -8.4705  -19.4730 C   0  0  2  0  0  0  0  0  0  0  0  0
   29.8339   -7.8355  -19.9985 N   0  0  0  0  0  0  0  0  0  0  0  0
   27.7998   -7.4505  -18.8309 C   0  0  0  0  0  0  0  0  0  0  0  0
   28.1257   -6.2230  -18.8043 O   0  0  0  0  0  0  0  0  0  0  0  0
   30.8864  -10.7782  -19.6880 C   0  0  0  0  0  0  0  0  0  0  0  0
   31.3435  -11.8418  -20.4328 C   0  0  0  0  0  0  0  0  0  0  0  0
   25.2747   -3.6677  -20.3811 N   0  0  0  0  0  0  0  0  0  0  0  0
   24.2441   -3.7258  -19.4158 C   0  0  0  0  0  0  0  0  0  0  0  0
   23.3972   -2.8120  -19.3289 O   0  0  0  0  0  0  0  0  0  0  0  0
   24.1953   -4.9270  -18.4899 C   0  0  0  0  0  0  0  0  0  0  0  0
   25.2562   -5.8987  -18.8475 C   0  0  0  0  0  0  0  0  0  0  0  0
   25.5694   -6.8623  -17.7614 C   0  0  2  0  0  0  0  0  0  0  0  0
   26.5816   -7.8256  -18.2190 N   0  0  0  0  0  0  0  0  0  0  0  0
   24.3924   -7.5779  -17.2213 C   0  0  0  0  0  0  0  0  0  0  0  0
   23.5822   -8.1810  -18.0257 O   0  0  0  0  0  0  0  0  0  0  0  0
   24.0398   -7.6879  -15.8588 N   0  0  0  0  0  0  0  0  0  0  0  0
   22.8734   -8.4885  -15.4311 C   0  0  1  0  0  0  0  0  0  0  0  0
   23.4347   -9.4919  -14.4585 C   0  0  0  0  0  0  0  0  0  0  0  0
   24.3485  -10.4775  -15.0131 C   0  0  0  0  0  0  0  0  0  0  0  0
   23.8042  -11.6463  -15.5264 C   0  0  0  0  0  0  0  0  0  0  0  0
   24.5498  -12.6497  -16.0808 C   0  0  0  0  0  0  0  0  0  0  0  0
   25.9213  -12.5268  -16.1499 C   0  0  0  0  0  0  0  0  0  0  0  0
   26.4927  -11.3620  -15.6411 C   0  0  0  0  0  0  0  0  0  0  0  0
   25.7191  -10.3645  -15.0872 C   0  0  0  0  0  0  0  0  0  0  0  0
   21.8999   -7.6403  -14.7178 C   0  0  0  0  0  0  0  0  0  0  0  0
   22.1568   -6.3175  -14.4072 O   0  0  0  0  0  0  0  0  0  0  0  0
   20.7996   -8.1316  -14.3786 O   0  0  0  0  0  0  0  0  0  0  0  0
  2  1  1  0
  3  2  2  0
  4  3  1  0
  5  4  2  0
  5 11  1  0
  6  5  1  0
  7  6  1  0
  7  8  1  1
  9  7  1  0
  9 10  2  0
 11 12  2  0
 12  2  1  0
 13 14  1  0
 14 16  1  0
 15 14  2  0
 16 17  1  0
 18 17  1  6
 18 19  1  0
 18 20  1  0
 19  9  1  0
 20 21  2  0
 20 22  1  0
 22 23  1  0
 23 31  1  0
 23 24  1  1
 25 24  1  0
 25 30  1  0
 26 25  2  0
 27 26  1  0
 27 28  2  0
 28 29  1  0
 29 30  2  0
 31 33  2  0
 31 32  1  0
M  END
$$$$
