YQF.pdb
     RDKit          3D

 33 34  0  0  1  0  0  0  0  0999 V2000
   35.5524   -6.7417  -20.3786 O   0  0  0  0  0  0  0  0  0  0  0  0
   34.3126   -7.3110  -20.1824 C   0  0  0  0  0  0  0  0  0  0  0  0
   34.1693   -8.4900  -19.4893 C   0  0  0  0  0  0  0  0  0  0  0  0
   32.9260   -9.0573  -19.2948 C   0  0  0  0  0  0  0  0  0  0  0  0
   31.7827   -8.4642  -19.7873 C   0  0  0  0  0  0  0  0  0  0  0  0
   30.4259   -9.0561  -19.5916 C   0  0  0  0  0  0  0  0  0  0  0  0
   29.6564   -8.1171  -18.6908 C   0  0  2  0  0  0  0  0  0  0  0  0
   30.2053   -8.2562  -17.3616 N   0  0  0  0  0  0  0  0  0  0  0  0
   28.2177   -8.4330  -18.6527 C   0  0  0  0  0  0  0  0  0  0  0  0
   27.4887   -8.3819  -19.6918 O   0  0  0  0  0  0  0  0  0  0  0  0
   31.9148   -7.2856  -20.4815 C   0  0  0  0  0  0  0  0  0  0  0  0
   33.1528   -6.7165  -20.6778 C   0  0  0  0  0  0  0  0  0  0  0  0
   25.7415  -12.2498  -14.4985 N   0  0  0  0  0  0  0  0  0  0  0  0
   24.5354  -11.7591  -15.0478 C   0  0  0  0  0  0  0  0  0  0  0  0
   23.4344  -12.2367  -14.7021 O   0  0  0  0  0  0  0  0  0  0  0  0
   24.6153  -10.6378  -16.0671 C   0  0  0  0  0  0  0  0  0  0  0  0
   26.0263  -10.2421  -16.2908 C   0  0  0  0  0  0  0  0  0  0  0  0
   26.1892   -9.1756  -17.3117 C   0  0  2  0  0  0  0  0  0  0  0  0
   27.6075   -8.8072  -17.4334 N   0  0  0  0  0  0  0  0  0  0  0  0
   25.3681   -7.9687  -17.0708 C   0  0  0  0  0  0  0  0  0  0  0  0
   25.8092   -7.0357  -16.2948 O   0  0  0  0  0  0  0  0  0  0  0  0
   24.0971   -7.7040  -17.6251 N   0  0  0  0  0  0  0  0  0  0  0  0
   23.3281   -6.5020  -17.2400 C   0  0  1  0  0  0  0  0  0  0  0  0
   22.7856   -5.9636  -18.5377 C   0  0  0  0  0  0  0  0  0  0  0  0
   21.9333   -4.7901  -18.4362 C   0  0  0  0  0  0  0  0  0  0  0  0
   20.5736   -4.9582  -18.6573 C   0  0  0  0  0  0  0  0  0  0  0  0
   19.6631   -3.9402  -18.5875 C   0  0  0  0  0  0  0  0  0  0  0  0
   20.0843   -2.6632  -18.2830 C   0  0  0  0  0  0  0  0  0  0  0  0
   21.4455   -2.4680  -18.0564 C   0  0  0  0  0  0  0  0  0  0  0  0
   22.3436   -3.5110  -18.1326 C   0  0  0  0  0  0  0  0  0  0  0  0
   22.1912   -6.8726  -16.3762 C   0  0  0  0  0  0  0  0  0  0  0  0
   21.8102   -8.1866  -16.1755 O   0  0  0  0  0  0  0  0  0  0  0  0
   21.5441   -5.9678  -15.8020 O   0  0  0  0  0  0  0  0  0  0  0  0
  2  1  1  0
  3  2  2  0
  4  3  1  0
  5  4  2  0
  5 11  1  0
  6  5  1  0
  7  6  1  0
  7  8  1  1
  9  7  1  0
  9 10  2  0
 11 12  2  0
 12  2  1  0
 13 14  1  0
 14 16  1  0
 15 14  2  0
 16 17  1  0
 18 17  1  1
 18 19  1  0
 18 20  1  0
 19  9  1  0
 20 21  2  0
 20 22  1  0
 22 23  1  0
 23 31  1  0
 23 24  1  6
 25 24  1  0
 25 30  1  0
 26 25  2  0
 27 26  1  0
 27 28  2  0
 28 29  1  0
 29 30  2  0
 31 33  2  0
 31 32  1  0
M  END
$$$$
