YQF.pdb
     RDKit          3D

 33 34  0  0  1  0  0  0  0  0999 V2000
   26.6904  -17.2827   11.0871 O   0  0  0  0  0  0  0  0  0  0  0  0
   27.3993  -18.3866   10.6644 C   0  0  0  0  0  0  0  0  0  0  0  0
   27.2055  -19.6222   11.2358 C   0  0  0  0  0  0  0  0  0  0  0  0
   27.9174  -20.7255   10.8099 C   0  0  0  0  0  0  0  0  0  0  0  0
   28.8482  -20.6304    9.7970 C   0  0  0  0  0  0  0  0  0  0  0  0
   29.6320  -21.8072    9.3170 C   0  0  0  0  0  0  0  0  0  0  0  0
   30.4933  -22.2688   10.4704 C   0  0  2  0  0  0  0  0  0  0  0  0
   31.5937  -21.3388   10.5795 N   0  0  0  0  0  0  0  0  0  0  0  0
   31.0287  -23.6253   10.2602 C   0  0  0  0  0  0  0  0  0  0  0  0
   32.1118  -23.8322    9.6296 O   0  0  0  0  0  0  0  0  0  0  0  0
   29.0496  -19.4000    9.2190 C   0  0  0  0  0  0  0  0  0  0  0  0
   28.3419  -18.2972    9.6407 C   0  0  0  0  0  0  0  0  0  0  0  0
   31.2061  -27.8610   14.4342 N   0  0  0  0  0  0  0  0  0  0  0  0
   31.5723  -28.6959   13.3544 C   0  0  0  0  0  0  0  0  0  0  0  0
   31.9706  -29.8625   13.5547 O   0  0  0  0  0  0  0  0  0  0  0  0
   31.4681  -28.1365   11.9477 C   0  0  0  0  0  0  0  0  0  0  0  0
   31.0216  -26.7234   11.9851 C   0  0  0  0  0  0  0  0  0  0  0  0
   30.8146  -26.1303   10.6391 C   0  0  2  0  0  0  0  0  0  0  0  0
   30.3328  -24.7470   10.7669 N   0  0  0  0  0  0  0  0  0  0  0  0
   29.9099  -26.9060    9.7622 C   0  0  0  0  0  0  0  0  0  0  0  0
   29.0255  -26.2932    9.0484 O   0  0  0  0  0  0  0  0  0  0  0  0
   29.9071  -28.3087    9.6037 N   0  0  0  0  0  0  0  0  0  0  0  0
   28.8846  -28.9847    8.7779 C   0  0  1  0  0  0  0  0  0  0  0  0
   29.1495  -28.5066    7.3746 C   0  0  0  0  0  0  0  0  0  0  0  0
   28.3135  -29.0835    6.3344 C   0  0  0  0  0  0  0  0  0  0  0  0
   28.7299  -30.2753    5.7580 C   0  0  0  0  0  0  0  0  0  0  0  0
   28.0352  -30.9251    4.7754 C   0  0  0  0  0  0  0  0  0  0  0  0
   26.8515  -30.3951    4.3075 C   0  0  0  0  0  0  0  0  0  0  0  0
   26.4115  -29.1985    4.8703 C   0  0  0  0  0  0  0  0  0  0  0  0
   27.1300  -28.5627    5.8602 C   0  0  0  0  0  0  0  0  0  0  0  0
   29.0749  -30.4470    8.8171 C   0  0  0  0  0  0  0  0  0  0  0  0
   28.0384  -31.3356    8.5974 O   0  0  0  0  0  0  0  0  0  0  0  0
   30.2146  -30.9052    9.0584 O   0  0  0  0  0  0  0  0  0  0  0  0
  2  1  1  0
  3  2  2  0
  4  3  1  0
  5  4  2  0
  5 11  1  0
  6  5  1  0
  7  6  1  0
  7  8  1  6
  9  7  1  0
  9 10  2  0
 11 12  2  0
 12  2  1  0
 13 14  1  0
 14 16  1  0
 15 14  2  0
 16 17  1  0
 18 17  1  1
 18 19  1  0
 18 20  1  0
 19  9  1  0
 20 21  2  0
 20 22  1  0
 22 23  1  0
 23 31  1  0
 23 24  1  6
 25 24  1  0
 25 30  1  0
 26 25  2  0
 27 26  1  0
 27 28  2  0
 28 29  1  0
 29 30  2  0
 31 33  2  0
 31 32  1  0
M  END
$$$$
