YQF.pdb
     RDKit          3D

 33 34  0  0  1  0  0  0  0  0999 V2000
   30.5737  -18.2011  -19.4637 O   0  0  0  0  0  0  0  0  0  0  0  0
   29.9088  -18.1148  -18.2595 C   0  0  0  0  0  0  0  0  0  0  0  0
   30.0727  -19.0686  -17.2827 C   0  0  0  0  0  0  0  0  0  0  0  0
   29.4050  -18.9789  -16.0779 C   0  0  0  0  0  0  0  0  0  0  0  0
   28.5499  -17.9311  -15.8088 C   0  0  0  0  0  0  0  0  0  0  0  0
   27.8152  -17.8096  -14.5145 C   0  0  0  0  0  0  0  0  0  0  0  0
   26.6243  -18.7376  -14.5899 C   0  0  2  0  0  0  0  0  0  0  0  0
   25.7815  -18.2633  -15.6634 N   0  0  0  0  0  0  0  0  0  0  0  0
   25.8469  -18.7519  -13.3383 C   0  0  0  0  0  0  0  0  0  0  0  0
   24.9463  -17.8899  -13.0944 O   0  0  0  0  0  0  0  0  0  0  0  0
   28.3789  -16.9723  -16.7783 C   0  0  0  0  0  0  0  0  0  0  0  0
   29.0428  -17.0580  -17.9811 C   0  0  0  0  0  0  0  0  0  0  0  0
   21.2685  -20.3707  -11.7618 N   0  0  0  0  0  0  0  0  0  0  0  0
   22.0906  -21.4450  -12.1706 C   0  0  0  0  0  0  0  0  0  0  0  0
   21.5942  -22.4737  -12.6759 O   0  0  0  0  0  0  0  0  0  0  0  0
   23.5902  -21.3141  -11.9791 C   0  0  0  0  0  0  0  0  0  0  0  0
   23.9180  -20.0199  -11.3349 C   0  0  0  0  0  0  0  0  0  0  0  0
   25.3702  -19.8315  -11.0862 C   0  0  2  0  0  0  0  0  0  0  0  0
   26.0932  -19.7463  -12.3637 N   0  0  0  0  0  0  0  0  0  0  0  0
   25.9815  -20.8658  -10.2228 C   0  0  0  0  0  0  0  0  0  0  0  0
   26.9827  -21.5559  -10.6572 O   0  0  0  0  0  0  0  0  0  0  0  0
   25.5799  -21.1965   -8.9105 N   0  0  0  0  0  0  0  0  0  0  0  0
   26.5659  -21.3296   -7.8176 C   0  0  1  0  0  0  0  0  0  0  0  0
   27.2201  -19.9761   -7.7266 C   0  0  0  0  0  0  0  0  0  0  0  0
   28.1644  -19.7949   -6.6360 C   0  0  0  0  0  0  0  0  0  0  0  0
   29.4597  -20.2579   -6.8195 C   0  0  0  0  0  0  0  0  0  0  0  0
   30.4450  -20.1458   -5.8777 C   0  0  0  0  0  0  0  0  0  0  0  0
   30.1713  -19.5449   -4.6674 C   0  0  0  0  0  0  0  0  0  0  0  0
   28.8775  -19.0711   -4.4583 C   0  0  0  0  0  0  0  0  0  0  0  0
   27.9016  -19.1961   -5.4239 C   0  0  0  0  0  0  0  0  0  0  0  0
   25.8839  -21.6060   -6.5392 C   0  0  0  0  0  0  0  0  0  0  0  0
   24.5073  -21.5768   -6.4119 O   0  0  0  0  0  0  0  0  0  0  0  0
   26.5723  -21.8766   -5.5293 O   0  0  0  0  0  0  0  0  0  0  0  0
  2  1  1  0
  3  2  2  0
  4  3  1  0
  5  4  2  0
  5 11  1  0
  6  5  1  0
  7  6  1  0
  7  8  1  6
  9  7  1  0
  9 10  2  0
 11 12  2  0
 12  2  1  0
 13 14  1  0
 14 16  1  0
 15 14  2  0
 16 17  1  0
 18 17  1  6
 18 19  1  0
 18 20  1  0
 19  9  1  0
 20 21  2  0
 20 22  1  0
 22 23  1  0
 23 31  1  0
 23 24  1  1
 25 24  1  0
 25 30  1  0
 26 25  2  0
 27 26  1  0
 27 28  2  0
 28 29  1  0
 29 30  2  0
 31 33  2  0
 31 32  1  0
M  END
$$$$
