DEV.pdb
     RDKit          3D

 25 24  0  0  1  0  0  0  0  0999 V2000
   15.3053  -13.1699  -17.2561 N   0  0  0  0  0  0  0  0  0  0  0  0
   15.7510  -12.5403  -16.0572 C   0  0  1  0  0  0  0  0  0  0  0  0
   16.1317  -13.5687  -15.0450 C   0  0  0  0  0  0  0  0  0  0  0  0
   14.9609  -14.4102  -14.6971 C   0  0  0  0  0  0  0  0  0  0  0  0
   13.9498  -13.8681  -14.1390 O   0  0  0  0  0  0  0  0  0  0  0  0
   16.8124  -11.5266  -16.2783 C   0  0  0  0  0  0  0  0  0  0  0  0
   17.9501  -11.9402  -16.5946 O   0  0  0  0  0  0  0  0  0  0  0  0
   14.8604  -15.7643  -14.9285 O   0  0  0  0  0  0  0  0  0  0  0  0
   16.5853  -10.1479  -16.1477 N   0  0  0  0  0  0  0  0  0  0  0  0
   17.6179   -9.1317  -16.4421 C   0  0  1  0  0  0  0  0  0  0  0  0
   16.8466   -7.8410  -16.5864 C   0  0  0  0  0  0  0  0  0  0  0  0
   17.7002   -6.6141  -16.7397 C   0  0  0  0  0  0  0  0  0  0  0  0
   16.7432   -5.4668  -16.8799 C   0  0  0  0  0  0  0  0  0  0  0  0
   15.4889   -5.6570  -16.9051 O   0  0  0  0  0  0  0  0  0  0  0  0
   18.5512   -9.1380  -15.2814 C   0  0  0  0  0  0  0  0  0  0  0  0
   18.0971   -9.2880  -14.1012 O   0  0  0  0  0  0  0  0  0  0  0  0
   17.2595   -4.1923  -16.9809 O   0  0  0  0  0  0  0  0  0  0  0  0
   22.8640   -9.9238  -13.1282 C   0  0  0  0  0  0  0  0  0  0  0  0
   22.0669   -9.7990  -14.4081 C   0  0  2  0  0  0  0  0  0  0  0  0
   23.0393   -9.4252  -15.4972 C   0  0  0  0  0  0  0  0  0  0  0  0
   20.8922   -8.9066  -14.3009 C   0  0  2  0  0  0  0  0  0  0  0  0
   19.9606   -8.9887  -15.3924 N   0  0  0  0  0  0  0  0  0  0  0  0
   21.1744   -7.5309  -13.8123 C   0  0  0  0  0  0  0  0  0  0  0  0
   21.3542   -7.1711  -12.4865 O   0  0  0  0  0  0  0  0  0  0  0  0
   21.2740   -6.5665  -14.6158 O   0  0  0  0  0  0  0  0  0  0  0  0
  2  1  1  6
  2  3  1  0
  3  4  1  0
  4  5  2  0
  6  2  1  0
  6  7  2  0
  8  4  1  0
  9  6  1  0
 10  9  1  0
 10 11  1  1
 11 12  1  0
 12 13  1  0
 13 14  2  0
 13 17  1  0
 15 10  1  0
 16 15  2  0
 19 18  1  1
 19 21  1  0
 20 19  1  0
 21 23  1  0
 21 22  1  6
 22 15  1  0
 23 24  1  0
 25 23  2  0
M  END
$$$$
