DEV.pdb
     RDKit          3D

 25 24  0  0  1  0  0  0  0  0999 V2000
   16.4539  -12.9561  -14.1857 N   0  0  0  0  0  0  0  0  0  0  0  0
   15.5446  -11.9396  -13.7704 C   0  0  1  0  0  0  0  0  0  0  0  0
   14.3765  -12.5475  -13.0684 C   0  0  0  0  0  0  0  0  0  0  0  0
   13.6121  -13.4182  -13.9945 C   0  0  0  0  0  0  0  0  0  0  0  0
   13.2454  -12.9529  -15.1244 O   0  0  0  0  0  0  0  0  0  0  0  0
   16.1860  -10.8522  -12.9899 C   0  0  0  0  0  0  0  0  0  0  0  0
   16.8640  -11.1800  -11.9909 O   0  0  0  0  0  0  0  0  0  0  0  0
   13.2511  -14.7229  -13.7405 O   0  0  0  0  0  0  0  0  0  0  0  0
   16.0595   -9.4965  -13.3300 N   0  0  0  0  0  0  0  0  0  0  0  0
   16.8301   -8.4253  -12.6634 C   0  0  1  0  0  0  0  0  0  0  0  0
   17.4933   -7.6772  -13.7957 C   0  0  0  0  0  0  0  0  0  0  0  0
   18.3124   -6.4920  -13.3694 C   0  0  0  0  0  0  0  0  0  0  0  0
   17.5595   -5.2841  -13.8447 C   0  0  0  0  0  0  0  0  0  0  0  0
   17.5744   -4.1996  -13.1861 O   0  0  0  0  0  0  0  0  0  0  0  0
   15.8393   -7.6060  -11.9115 C   0  0  0  0  0  0  0  0  0  0  0  0
   14.7036   -7.3500  -12.4274 O   0  0  0  0  0  0  0  0  0  0  0  0
   16.8465   -5.3783  -15.0211 O   0  0  0  0  0  0  0  0  0  0  0  0
   15.4255   -7.0422   -7.5322 C   0  0  0  0  0  0  0  0  0  0  0  0
   14.5147   -6.8252   -8.7207 C   0  0  2  0  0  0  0  0  0  0  0  0
   13.8480   -8.1455   -9.0108 C   0  0  0  0  0  0  0  0  0  0  0  0
   15.1828   -6.2056   -9.8857 C   0  0  2  0  0  0  0  0  0  0  0  0
   16.0689   -7.0718  -10.6142 N   0  0  0  0  0  0  0  0  0  0  0  0
   15.6822   -4.8207   -9.6771 C   0  0  0  0  0  0  0  0  0  0  0  0
   14.8883   -3.7017   -9.4847 O   0  0  0  0  0  0  0  0  0  0  0  0
   16.9168   -4.5737   -9.6593 O   0  0  0  0  0  0  0  0  0  0  0  0
  2  1  1  1
  2  3  1  0
  3  4  1  0
  4  5  2  0
  6  2  1  0
  6  7  2  0
  8  4  1  0
  9  6  1  0
 10  9  1  0
 10 11  1  6
 11 12  1  0
 12 13  1  0
 13 14  2  0
 13 17  1  0
 15 10  1  0
 16 15  2  0
 19 18  1  1
 19 21  1  0
 20 19  1  0
 21 23  1  0
 21 22  1  1
 22 15  1  0
 23 24  1  0
 25 23  2  0
M  END
$$$$
