DEV.pdb
     RDKit          3D

 25 24  0  0  1  0  0  0  0  0999 V2000
   16.2634  -11.8166  -16.8033 N   0  0  0  0  0  0  0  0  0  0  0  0
   16.6972  -11.1221  -15.6362 C   0  0  1  0  0  0  0  0  0  0  0  0
   17.4212  -12.0525  -14.7213 C   0  0  0  0  0  0  0  0  0  0  0  0
   16.5029  -13.1037  -14.2197 C   0  0  0  0  0  0  0  0  0  0  0  0
   16.8042  -14.3301  -14.4009 O   0  0  0  0  0  0  0  0  0  0  0  0
   17.4661   -9.8874  -15.9317 C   0  0  0  0  0  0  0  0  0  0  0  0
   18.2684   -9.9216  -16.8911 O   0  0  0  0  0  0  0  0  0  0  0  0
   15.3189  -12.8716  -13.5552 O   0  0  0  0  0  0  0  0  0  0  0  0
   17.3245   -8.7073  -15.1854 N   0  0  0  0  0  0  0  0  0  0  0  0
   18.0589   -7.4638  -15.5009 C   0  0  1  0  0  0  0  0  0  0  0  0
   17.0348   -6.3668  -15.3288 C   0  0  0  0  0  0  0  0  0  0  0  0
   17.5684   -4.9753  -15.5191 C   0  0  0  0  0  0  0  0  0  0  0  0
   16.4047   -4.0571  -15.2854 C   0  0  0  0  0  0  0  0  0  0  0  0
   16.1249   -3.6345  -14.1222 O   0  0  0  0  0  0  0  0  0  0  0  0
   19.1820   -7.3847  -14.5257 C   0  0  0  0  0  0  0  0  0  0  0  0
   18.9715   -7.6243  -13.2929 O   0  0  0  0  0  0  0  0  0  0  0  0
   15.6410   -3.6793  -16.3695 O   0  0  0  0  0  0  0  0  0  0  0  0
   23.4770   -7.8382  -15.3982 C   0  0  0  0  0  0  0  0  0  0  0  0
   22.6826   -7.9516  -14.1155 C   0  0  2  0  0  0  0  0  0  0  0  0
   22.1909   -9.3736  -14.0270 C   0  0  0  0  0  0  0  0  0  0  0  0
   21.6265   -6.9265  -13.9691 C   0  0  2  0  0  0  0  0  0  0  0  0
   20.5195   -7.0553  -14.8770 N   0  0  0  0  0  0  0  0  0  0  0  0
   22.1076   -5.5365  -13.7516 C   0  0  0  0  0  0  0  0  0  0  0  0
   22.7522   -5.0790  -12.6137 O   0  0  0  0  0  0  0  0  0  0  0  0
   21.9518   -4.6522  -14.6344 O   0  0  0  0  0  0  0  0  0  0  0  0
  2  1  1  6
  2  3  1  0
  3  4  1  0
  4  5  2  0
  6  2  1  0
  6  7  2  0
  8  4  1  0
  9  6  1  0
 10  9  1  0
 10 11  1  1
 11 12  1  0
 12 13  1  0
 13 14  2  0
 13 17  1  0
 15 10  1  0
 16 15  2  0
 19 18  1  6
 19 21  1  0
 20 19  1  0
 21 23  1  0
 21 22  1  6
 22 15  1  0
 23 24  1  0
 25 23  2  0
M  END
$$$$
