DEV.pdb
     RDKit          3D

 25 24  0  0  1  0  0  0  0  0999 V2000
   13.7028  -12.3525  -14.4869 N   0  0  0  0  0  0  0  0  0  0  0  0
   14.0984  -12.4832  -13.1234 C   0  0  1  0  0  0  0  0  0  0  0  0
   14.7967  -13.7848  -12.9112 C   0  0  0  0  0  0  0  0  0  0  0  0
   15.9105  -13.9381  -13.8787 C   0  0  0  0  0  0  0  0  0  0  0  0
   15.9868  -13.1390  -14.8702 O   0  0  0  0  0  0  0  0  0  0  0  0
   14.8724  -11.3228  -12.6162 C   0  0  0  0  0  0  0  0  0  0  0  0
   15.2744  -11.3689  -11.4323 O   0  0  0  0  0  0  0  0  0  0  0  0
   16.9013  -14.8920  -13.8031 O   0  0  0  0  0  0  0  0  0  0  0  0
   15.1624  -10.1993  -13.4057 N   0  0  0  0  0  0  0  0  0  0  0  0
   16.0212   -9.0897  -12.9401 C   0  0  1  0  0  0  0  0  0  0  0  0
   16.4326   -8.3746  -14.2054 C   0  0  0  0  0  0  0  0  0  0  0  0
   17.2749   -7.1496  -13.9879 C   0  0  0  0  0  0  0  0  0  0  0  0
   18.6425   -7.6536  -13.6310 C   0  0  0  0  0  0  0  0  0  0  0  0
   19.3098   -8.3702  -14.4381 O   0  0  0  0  0  0  0  0  0  0  0  0
   15.1757   -8.2592  -12.0380 C   0  0  0  0  0  0  0  0  0  0  0  0
   13.9640   -8.0175  -12.3464 O   0  0  0  0  0  0  0  0  0  0  0  0
   19.1627   -7.3186  -12.3988 O   0  0  0  0  0  0  0  0  0  0  0  0
   13.9577   -6.5191   -7.5999 C   0  0  0  0  0  0  0  0  0  0  0  0
   14.8369   -7.3498   -8.5089 C   0  0  2  0  0  0  0  0  0  0  0  0
   16.1935   -7.4284   -7.8569 C   0  0  0  0  0  0  0  0  0  0  0  0
   14.8566   -6.8876   -9.9137 C   0  0  2  0  0  0  0  0  0  0  0  0
   15.6306   -7.6988  -10.8132 N   0  0  0  0  0  0  0  0  0  0  0  0
   14.9992   -5.4199  -10.1042 C   0  0  0  0  0  0  0  0  0  0  0  0
   16.0791   -4.7890  -10.7001 O   0  0  0  0  0  0  0  0  0  0  0  0
   14.1004   -4.6269   -9.7183 O   0  0  0  0  0  0  0  0  0  0  0  0
  2  1  1  6
  2  3  1  0
  3  4  1  0
  4  5  2  0
  6  2  1  0
  6  7  2  0
  8  4  1  0
  9  6  1  0
 10  9  1  0
 10 11  1  6
 11 12  1  0
 12 13  1  0
 13 14  2  0
 13 17  1  0
 15 10  1  0
 16 15  2  0
 19 18  1  1
 19 21  1  0
 20 19  1  0
 21 23  1  0
 21 22  1  6
 22 15  1  0
 23 24  1  0
 25 23  2  0
M  END
$$$$
