DEV.pdb
     RDKit          3D

 25 24  0  0  1  0  0  0  0  0999 V2000
   17.5728  -14.4897  -18.1347 N   0  0  0  0  0  0  0  0  0  0  0  0
   17.2751  -13.4062  -17.2573 C   0  0  1  0  0  0  0  0  0  0  0  0
   17.1933  -13.8907  -15.8482 C   0  0  0  0  0  0  0  0  0  0  0  0
   16.0090  -14.7657  -15.6699 C   0  0  0  0  0  0  0  0  0  0  0  0
   16.0347  -15.6707  -14.7710 O   0  0  0  0  0  0  0  0  0  0  0  0
   18.1861  -12.2454  -17.4173 C   0  0  0  0  0  0  0  0  0  0  0  0
   19.3835  -12.4835  -17.6904 O   0  0  0  0  0  0  0  0  0  0  0  0
   14.8478  -14.6889  -16.4068 O   0  0  0  0  0  0  0  0  0  0  0  0
   17.7560  -10.9170  -17.2757 N   0  0  0  0  0  0  0  0  0  0  0  0
   18.6455   -9.7566  -17.4941 C   0  0  1  0  0  0  0  0  0  0  0  0
   17.7047   -8.5880  -17.6703 C   0  0  0  0  0  0  0  0  0  0  0  0
   17.1074   -8.4653  -19.0434 C   0  0  0  0  0  0  0  0  0  0  0  0
   16.5490   -7.0747  -19.1221 C   0  0  0  0  0  0  0  0  0  0  0  0
   16.0282   -6.6356  -20.1926 O   0  0  0  0  0  0  0  0  0  0  0  0
   19.4996   -9.6520  -16.2783 C   0  0  0  0  0  0  0  0  0  0  0  0
   19.0253   -9.9666  -15.1392 O   0  0  0  0  0  0  0  0  0  0  0  0
   16.6139   -6.2787  -17.9981 O   0  0  0  0  0  0  0  0  0  0  0  0
   22.6956  -11.3719  -15.4670 C   0  0  0  0  0  0  0  0  0  0  0  0
   22.9416   -9.9060  -15.1844 C   0  0  2  0  0  0  0  0  0  0  0  0
   23.7812   -9.8338  -13.9348 C   0  0  0  0  0  0  0  0  0  0  0  0
   21.7114   -9.0858  -15.1458 C   0  0  2  0  0  0  0  0  0  0  0  0
   20.8530   -9.2172  -16.2912 N   0  0  0  0  0  0  0  0  0  0  0  0
   21.8811   -7.6985  -14.6386 C   0  0  0  0  0  0  0  0  0  0  0  0
   21.9526   -7.3351  -13.3035 O   0  0  0  0  0  0  0  0  0  0  0  0
   21.9775   -6.7262  -15.4329 O   0  0  0  0  0  0  0  0  0  0  0  0
  2  1  1  6
  2  3  1  0
  3  4  1  0
  4  5  2  0
  6  2  1  0
  6  7  2  0
  8  4  1  0
  9  6  1  0
 10  9  1  0
 10 11  1  1
 11 12  1  0
 12 13  1  0
 13 14  2  0
 13 17  1  0
 15 10  1  0
 16 15  2  0
 19 18  1  1
 19 21  1  0
 20 19  1  0
 21 23  1  0
 21 22  1  6
 22 15  1  0
 23 24  1  0
 25 23  2  0
M  END
$$$$
