DEV.pdb
     RDKit          3D

 25 24  0  0  1  0  0  0  0  0999 V2000
   16.3567  -11.4974  -17.4970 N   0  0  0  0  0  0  0  0  0  0  0  0
   16.5636  -10.7810  -16.2819 C   0  0  1  0  0  0  0  0  0  0  0  0
   16.9103  -11.7248  -15.1791 C   0  0  0  0  0  0  0  0  0  0  0  0
   15.6826  -12.3449  -14.6238 C   0  0  0  0  0  0  0  0  0  0  0  0
   14.5649  -12.1371  -15.2029 O   0  0  0  0  0  0  0  0  0  0  0  0
   17.5301   -9.6619  -16.4099 C   0  0  0  0  0  0  0  0  0  0  0  0
   18.5286   -9.8411  -17.1422 O   0  0  0  0  0  0  0  0  0  0  0  0
   15.6358  -13.1499  -13.5071 O   0  0  0  0  0  0  0  0  0  0  0  0
   17.3630   -8.4345  -15.7502 N   0  0  0  0  0  0  0  0  0  0  0  0
   18.2165   -7.2569  -16.0151 C   0  0  1  0  0  0  0  0  0  0  0  0
   17.2587   -6.0889  -16.0139 C   0  0  0  0  0  0  0  0  0  0  0  0
   16.6108   -5.8079  -17.3401 C   0  0  0  0  0  0  0  0  0  0  0  0
   15.7244   -4.6179  -17.1166 C   0  0  0  0  0  0  0  0  0  0  0  0
   14.4885   -4.7575  -16.8649 O   0  0  0  0  0  0  0  0  0  0  0  0
   19.2128   -7.2076  -14.9090 C   0  0  0  0  0  0  0  0  0  0  0  0
   18.8414   -7.4162  -13.7090 O   0  0  0  0  0  0  0  0  0  0  0  0
   16.2856   -3.3606  -17.1903 O   0  0  0  0  0  0  0  0  0  0  0  0
   23.5970   -7.7548  -15.2636 C   0  0  0  0  0  0  0  0  0  0  0  0
   22.6380   -7.8929  -14.1014 C   0  0  2  0  0  0  0  0  0  0  0  0
   22.1152   -9.3063  -14.1281 C   0  0  0  0  0  0  0  0  0  0  0  0
   21.5891   -6.8509  -14.0596 C   0  0  2  0  0  0  0  0  0  0  0  0
   20.5967   -6.9407  -15.0955 N   0  0  0  0  0  0  0  0  0  0  0  0
   22.0638   -5.4749  -13.7561 C   0  0  0  0  0  0  0  0  0  0  0  0
   22.5859   -5.0552  -12.5434 O   0  0  0  0  0  0  0  0  0  0  0  0
   22.0190   -4.5678  -14.6283 O   0  0  0  0  0  0  0  0  0  0  0  0
  2  1  1  6
  2  3  1  0
  3  4  1  0
  4  5  2  0
  6  2  1  0
  6  7  2  0
  8  4  1  0
  9  6  1  0
 10  9  1  0
 10 11  1  1
 11 12  1  0
 12 13  1  0
 13 14  2  0
 13 17  1  0
 15 10  1  0
 16 15  2  0
 19 18  1  6
 19 21  1  0
 20 19  1  0
 21 23  1  0
 21 22  1  6
 22 15  1  0
 23 24  1  0
 25 23  2  0
M  END
$$$$
