DEV.pdb
     RDKit          3D

 25 24  0  0  1  0  0  0  0  0999 V2000
   19.6260  -11.8983  -16.3258 N   0  0  0  0  0  0  0  0  0  0  0  0
   19.1688  -10.7356  -17.0125 C   0  0  1  0  0  0  0  0  0  0  0  0
   18.0412  -11.0852  -17.9252 C   0  0  0  0  0  0  0  0  0  0  0  0
   18.4545  -12.1470  -18.8749 C   0  0  0  0  0  0  0  0  0  0  0  0
   19.4914  -11.9666  -19.5959 O   0  0  0  0  0  0  0  0  0  0  0  0
   18.8516   -9.6001  -16.1108 C   0  0  0  0  0  0  0  0  0  0  0  0
   18.1763   -9.8461  -15.0868 O   0  0  0  0  0  0  0  0  0  0  0  0
   17.8031  -13.3472  -19.0555 O   0  0  0  0  0  0  0  0  0  0  0  0
   19.2767   -8.2869  -16.3645 N   0  0  0  0  0  0  0  0  0  0  0  0
   19.1211   -7.1887  -15.3871 C   0  0  1  0  0  0  0  0  0  0  0  0
   20.5243   -6.9169  -14.8985 C   0  0  0  0  0  0  0  0  0  0  0  0
   20.6509   -5.7333  -13.9818 C   0  0  0  0  0  0  0  0  0  0  0  0
   22.1041   -5.6548  -13.6160 C   0  0  0  0  0  0  0  0  0  0  0  0
   22.7911   -4.6193  -13.8728 O   0  0  0  0  0  0  0  0  0  0  0  0
   18.5221   -6.0480  -16.1343 C   0  0  0  0  0  0  0  0  0  0  0  0
   18.9729   -5.7336  -17.2830 O   0  0  0  0  0  0  0  0  0  0  0  0
   22.6810   -6.7394  -12.9898 O   0  0  0  0  0  0  0  0  0  0  0  0
   14.4874   -4.3384  -15.5018 C   0  0  0  0  0  0  0  0  0  0  0  0
   15.4274   -4.2995  -16.6868 C   0  0  2  0  0  0  0  0  0  0  0  0
   15.1344   -5.5202  -17.5209 C   0  0  0  0  0  0  0  0  0  0  0  0
   16.8507   -4.1331  -16.3207 C   0  0  2  0  0  0  0  0  0  0  0  0
   17.4447   -5.2570  -15.6500 N   0  0  0  0  0  0  0  0  0  0  0  0
   17.2204   -2.8015  -15.7720 C   0  0  0  0  0  0  0  0  0  0  0  0
   17.5678   -1.6915  -16.5248 O   0  0  0  0  0  0  0  0  0  0  0  0
   17.2367   -2.5952  -14.5300 O   0  0  0  0  0  0  0  0  0  0  0  0
  2  1  1  1
  2  3  1  0
  3  4  1  0
  4  5  2  0
  6  2  1  0
  6  7  2  0
  8  4  1  0
  9  6  1  0
 10  9  1  0
 10 11  1  6
 11 12  1  0
 12 13  1  0
 13 14  2  0
 13 17  1  0
 15 10  1  0
 16 15  2  0
 19 18  1  1
 19 21  1  0
 20 19  1  0
 21 23  1  0
 21 22  1  1
 22 15  1  0
 23 24  1  0
 25 23  2  0
M  END
$$$$
