DEV.pdb
     RDKit          3D

 25 24  0  0  1  0  0  0  0  0999 V2000
   15.5787  -13.1170  -14.2817 N   0  0  0  0  0  0  0  0  0  0  0  0
   15.0089  -11.8452  -13.9808 C   0  0  1  0  0  0  0  0  0  0  0  0
   13.5862  -12.0038  -13.5594 C   0  0  0  0  0  0  0  0  0  0  0  0
   12.7972  -12.6521  -14.6351 C   0  0  0  0  0  0  0  0  0  0  0  0
   12.8383  -12.1670  -15.8144 O   0  0  0  0  0  0  0  0  0  0  0  0
   15.8109  -11.0479  -13.0195 C   0  0  0  0  0  0  0  0  0  0  0  0
   16.1344  -11.5958  -11.9423 O   0  0  0  0  0  0  0  0  0  0  0  0
   12.0004  -13.7641  -14.4743 O   0  0  0  0  0  0  0  0  0  0  0  0
   16.2104   -9.7271  -13.2752 N   0  0  0  0  0  0  0  0  0  0  0  0
   17.0195   -8.9339  -12.3257 C   0  0  1  0  0  0  0  0  0  0  0  0
   18.1258   -8.3477  -13.1708 C   0  0  0  0  0  0  0  0  0  0  0  0
   19.0431   -7.4089  -12.4397 C   0  0  0  0  0  0  0  0  0  0  0  0
   20.0770   -6.9865  -13.4419 C   0  0  0  0  0  0  0  0  0  0  0  0
   21.1416   -7.6564  -13.6094 O   0  0  0  0  0  0  0  0  0  0  0  0
   16.1035   -7.9082  -11.7537 C   0  0  0  0  0  0  0  0  0  0  0  0
   15.3087   -7.2694  -12.5164 O   0  0  0  0  0  0  0  0  0  0  0  0
   19.8436   -5.8472  -14.1826 O   0  0  0  0  0  0  0  0  0  0  0  0
   13.5229   -6.0222   -7.9738 C   0  0  0  0  0  0  0  0  0  0  0  0
   14.4734   -7.0490   -8.5496 C   0  0  2  0  0  0  0  0  0  0  0  0
   15.3847   -7.4815   -7.4297 C   0  0  0  0  0  0  0  0  0  0  0  0
   15.1737   -6.6014   -9.7730 C   0  0  2  0  0  0  0  0  0  0  0  0
   16.0417   -7.5779  -10.3724 N   0  0  0  0  0  0  0  0  0  0  0  0
   15.7124   -5.2161   -9.7332 C   0  0  0  0  0  0  0  0  0  0  0  0
   17.0546   -4.8752   -9.7786 O   0  0  0  0  0  0  0  0  0  0  0  0
   14.9412   -4.2238   -9.6551 O   0  0  0  0  0  0  0  0  0  0  0  0
  2  1  1  1
  2  3  1  0
  3  4  1  0
  4  5  2  0
  6  2  1  0
  6  7  2  0
  8  4  1  0
  9  6  1  0
 10  9  1  0
 10 11  1  6
 11 12  1  0
 12 13  1  0
 13 14  2  0
 13 17  1  0
 15 10  1  0
 16 15  2  0
 19 18  1  1
 19 21  1  0
 20 19  1  0
 21 23  1  0
 21 22  1  1
 22 15  1  0
 23 24  1  0
 25 23  2  0
M  END
$$$$
