DEV.pdb
     RDKit          3D

 25 24  0  0  1  0  0  0  0  0999 V2000
   16.7684  -12.0338  -17.7375 N   0  0  0  0  0  0  0  0  0  0  0  0
   17.1883  -11.5039  -16.4824 C   0  0  1  0  0  0  0  0  0  0  0  0
   17.9482  -12.5340  -15.7154 C   0  0  0  0  0  0  0  0  0  0  0  0
   17.0153  -13.4660  -15.0363 C   0  0  0  0  0  0  0  0  0  0  0  0
   17.4878  -14.3665  -14.2659 O   0  0  0  0  0  0  0  0  0  0  0  0
   17.9153  -10.2149  -16.5957 C   0  0  0  0  0  0  0  0  0  0  0  0
   18.8065  -10.1286  -17.4695 O   0  0  0  0  0  0  0  0  0  0  0  0
   15.6439  -13.4484  -15.1634 O   0  0  0  0  0  0  0  0  0  0  0  0
   17.6403   -9.1125  -15.7718 N   0  0  0  0  0  0  0  0  0  0  0  0
   18.2732   -7.7900  -15.9609 C   0  0  1  0  0  0  0  0  0  0  0  0
   17.1565   -6.8003  -15.7257 C   0  0  0  0  0  0  0  0  0  0  0  0
   17.5923   -5.3634  -15.6746 C   0  0  0  0  0  0  0  0  0  0  0  0
   16.3414   -4.5659  -15.4490 C   0  0  0  0  0  0  0  0  0  0  0  0
   15.2123   -5.1336  -15.3340 O   0  0  0  0  0  0  0  0  0  0  0  0
   19.3650   -7.7027  -14.9517 C   0  0  0  0  0  0  0  0  0  0  0  0
   19.1795   -8.1499  -13.7739 O   0  0  0  0  0  0  0  0  0  0  0  0
   16.4457   -3.1934  -15.3681 O   0  0  0  0  0  0  0  0  0  0  0  0
   23.6570   -7.6091  -15.7294 C   0  0  0  0  0  0  0  0  0  0  0  0
   22.8687   -7.9003  -14.4712 C   0  0  2  0  0  0  0  0  0  0  0  0
   22.5198   -9.3663  -14.5002 C   0  0  0  0  0  0  0  0  0  0  0  0
   21.7152   -6.9986  -14.2614 C   0  0  2  0  0  0  0  0  0  0  0  0
   20.6459   -7.1431  -15.2110 N   0  0  0  0  0  0  0  0  0  0  0  0
   22.0544   -5.5969  -13.8993 C   0  0  0  0  0  0  0  0  0  0  0  0
   22.6597   -5.1970  -12.7190 O   0  0  0  0  0  0  0  0  0  0  0  0
   21.8010   -4.6461  -14.6849 O   0  0  0  0  0  0  0  0  0  0  0  0
  2  1  1  6
  2  3  1  0
  3  4  1  0
  4  5  2  0
  6  2  1  0
  6  7  2  0
  8  4  1  0
  9  6  1  0
 10  9  1  0
 10 11  1  1
 11 12  1  0
 12 13  1  0
 13 14  2  0
 13 17  1  0
 15 10  1  0
 16 15  2  0
 19 18  1  6
 19 21  1  0
 20 19  1  0
 21 23  1  0
 21 22  1  6
 22 15  1  0
 23 24  1  0
 25 23  2  0
M  END
$$$$
