DEV.pdb
     RDKit          3D

 25 24  0  0  1  0  0  0  0  0999 V2000
   20.1565  -11.2428  -17.8884 N   0  0  0  0  0  0  0  0  0  0  0  0
   20.4559  -10.0109  -18.5405 C   0  0  1  0  0  0  0  0  0  0  0  0
   19.9201  -10.0207  -19.9333 C   0  0  0  0  0  0  0  0  0  0  0  0
   18.4994  -10.4471  -19.9380 C   0  0  0  0  0  0  0  0  0  0  0  0
   18.2061  -11.6355  -19.5786 O   0  0  0  0  0  0  0  0  0  0  0  0
   20.0377   -8.8139  -17.7690 C   0  0  0  0  0  0  0  0  0  0  0  0
   18.8437   -8.7518  -17.4004 O   0  0  0  0  0  0  0  0  0  0  0  0
   17.4345   -9.6543  -20.3048 O   0  0  0  0  0  0  0  0  0  0  0  0
   20.9203   -7.7719  -17.4456 N   0  0  0  0  0  0  0  0  0  0  0  0
   20.5014   -6.5657  -16.7006 C   0  0  1  0  0  0  0  0  0  0  0  0
   21.4158   -6.5280  -15.4989 C   0  0  0  0  0  0  0  0  0  0  0  0
   21.2488   -5.3199  -14.6214 C   0  0  0  0  0  0  0  0  0  0  0  0
   22.2041   -5.5102  -13.4799 C   0  0  0  0  0  0  0  0  0  0  0  0
   22.0836   -6.4865  -12.6784 O   0  0  0  0  0  0  0  0  0  0  0  0
   20.6934   -5.4160  -17.6279 C   0  0  0  0  0  0  0  0  0  0  0  0
   21.7262   -5.3640  -18.3709 O   0  0  0  0  0  0  0  0  0  0  0  0
   23.2232   -4.5954  -13.3198 O   0  0  0  0  0  0  0  0  0  0  0  0
   17.5556   -2.8022  -19.2336 C   0  0  0  0  0  0  0  0  0  0  0  0
   18.9785   -3.0389  -19.6903 C   0  0  2  0  0  0  0  0  0  0  0  0
   18.9466   -4.2081  -20.6408 C   0  0  0  0  0  0  0  0  0  0  0  0
   19.9511   -3.1732  -18.5841 C   0  0  2  0  0  0  0  0  0  0  0  0
   19.7785   -4.3354  -17.7561 N   0  0  0  0  0  0  0  0  0  0  0  0
   20.2688   -1.9177  -17.8534 C   0  0  0  0  0  0  0  0  0  0  0  0
   20.0869   -1.7113  -16.4955 O   0  0  0  0  0  0  0  0  0  0  0  0
   20.7482   -0.9217  -18.4564 O   0  0  0  0  0  0  0  0  0  0  0  0
  2  1  1  1
  2  3  1  0
  3  4  1  0
  4  5  2  0
  6  2  1  0
  6  7  2  0
  8  4  1  0
  9  6  1  0
 10  9  1  0
 10 11  1  1
 11 12  1  0
 12 13  1  0
 13 14  2  0
 13 17  1  0
 15 10  1  0
 16 15  2  0
 19 18  1  1
 19 21  1  0
 20 19  1  0
 21 23  1  0
 21 22  1  1
 22 15  1  0
 23 24  1  0
 25 23  2  0
M  END
$$$$
