IPP.pdb
     RDKit          3D

 23 24  0  0  1  0  0  0  0  0999 V2000
    6.7165  -11.3871   27.5603 C   0  0  0  0  0  0  0  0  0  0  0  0
    6.0078  -12.4395   26.7464 C   0  0  0  0  0  0  0  0  0  0  0  0
    6.9318  -13.4286   26.0969 C   0  0  2  0  0  0  0  0  0  0  0  0
    7.8608  -12.6078   25.1970 C   0  0  0  0  0  0  0  0  0  0  0  0
    6.2313  -14.4843   25.2477 C   0  0  2  0  0  0  0  0  0  0  0  0
    5.5271  -15.3014   26.3046 N   0  0  0  0  0  0  0  0  0  0  0  0
    7.1347  -15.3666   24.5129 C   0  0  0  0  0  0  0  0  0  0  0  0
    7.3062  -16.5486   24.9920 O   0  0  0  0  0  0  0  0  0  0  0  0
    7.8584  -15.1046   23.3274 N   0  0  0  0  0  0  0  0  0  0  0  0
    8.0259  -13.8347   22.6896 C   0  0  0  0  0  0  0  0  0  0  0  0
    7.9998  -14.1149   21.2158 C   0  0  0  0  0  0  0  0  0  0  0  0
    8.2563  -15.5887   21.1064 C   0  0  0  0  0  0  0  0  0  0  0  0
    8.6134  -16.0564   22.4925 C   0  0  1  0  0  0  0  0  0  0  0  0
   10.0286  -16.0061   22.8212 C   0  0  0  0  0  0  0  0  0  0  0  0
   10.4760  -14.9324   23.3420 O   0  0  0  0  0  0  0  0  0  0  0  0
   10.9922  -17.0272   22.6284 N   0  0  0  0  0  0  0  0  0  0  0  0
   10.8669  -18.1153   21.6987 C   0  0  0  0  0  0  0  0  0  0  0  0
   11.4833  -19.2839   22.4184 C   0  0  0  0  0  0  0  0  0  0  0  0
   12.4065  -18.6887   23.4601 C   0  0  0  0  0  0  0  0  0  0  0  0
   12.2734  -17.1959   23.2851 C   0  0  1  0  0  0  0  0  0  0  0  0
   13.3965  -16.7302   22.4144 C   0  0  0  0  0  0  0  0  0  0  0  0
   13.2007  -16.4583   21.0728 O   0  0  0  0  0  0  0  0  0  0  0  0
   14.5121  -16.5916   22.9291 O   0  0  0  0  0  0  0  0  0  0  0  0
  1  2  1  0
  3  4  1  6
  3  2  1  0
  5  3  1  0
  5  6  1  1
  7  8  2  0
  7  5  1  0
  9  7  1  0
 10  9  1  0
 11 10  1  0
 12 11  1  0
 12 13  1  0
 13 14  1  1
 13  9  1  0
 14 15  2  0
 16 17  1  0
 16 14  1  0
 18 17  1  0
 19 20  1  0
 19 18  1  0
 20 16  1  0
 20 21  1  6
 21 22  1  0
 23 21  2  0
M  END
$$$$
