IPP.pdb
     RDKit          3D

 23 24  0  0  1  0  0  0  0  0999 V2000
    6.7055  -18.5413   22.4434 C   0  0  0  0  0  0  0  0  0  0  0  0
    6.5811  -17.0453   22.5798 C   0  0  0  0  0  0  0  0  0  0  0  0
    7.4318  -16.2748   21.6119 C   0  0  2  0  0  0  0  0  0  0  0  0
    8.8535  -16.8216   21.7743 C   0  0  0  0  0  0  0  0  0  0  0  0
    7.4541  -14.7686   21.8504 C   0  0  2  0  0  0  0  0  0  0  0  0
    8.2363  -14.2861   20.6520 N   0  0  0  0  0  0  0  0  0  0  0  0
    8.1665  -14.3579   23.0580 C   0  0  0  0  0  0  0  0  0  0  0  0
    9.4103  -14.0568   22.9223 O   0  0  0  0  0  0  0  0  0  0  0  0
    7.6757  -14.2383   24.3782 N   0  0  0  0  0  0  0  0  0  0  0  0
    6.3484  -14.5276   24.8275 C   0  0  0  0  0  0  0  0  0  0  0  0
    6.0410  -13.4967   25.8735 C   0  0  0  0  0  0  0  0  0  0  0  0
    7.3798  -12.9470   26.2678 C   0  0  0  0  0  0  0  0  0  0  0  0
    8.4061  -13.8126   25.5858 C   0  0  1  0  0  0  0  0  0  0  0  0
    8.8470  -14.9713   26.3453 C   0  0  0  0  0  0  0  0  0  0  0  0
    8.5966  -16.1238   25.8626 O   0  0  0  0  0  0  0  0  0  0  0  0
    9.5354  -14.9752   27.5840 N   0  0  0  0  0  0  0  0  0  0  0  0
    9.3391  -14.0214   28.6404 C   0  0  0  0  0  0  0  0  0  0  0  0
   10.7177  -13.8131   29.2057 C   0  0  0  0  0  0  0  0  0  0  0  0
   11.5116  -15.0449   28.8259 C   0  0  0  0  0  0  0  0  0  0  0  0
   10.5414  -15.9062   28.0555 C   0  0  1  0  0  0  0  0  0  0  0  0
    9.9570  -16.9053   29.0022 C   0  0  0  0  0  0  0  0  0  0  0  0
   10.6797  -18.0077   29.4204 O   0  0  0  0  0  0  0  0  0  0  0  0
    8.8034  -16.7181   29.4059 O   0  0  0  0  0  0  0  0  0  0  0  0
  1  2  1  0
  3  4  1  1
  3  2  1  0
  5  3  1  0
  5  6  1  6
  7  8  2  0
  7  5  1  0
  9  7  1  0
 10  9  1  0
 11 10  1  0
 12 11  1  0
 12 13  1  0
 13 14  1  1
 13  9  1  0
 14 15  2  0
 16 17  1  0
 16 14  1  0
 18 17  1  0
 19 20  1  0
 19 18  1  0
 20 16  1  0
 20 21  1  1
 21 22  1  0
 23 21  2  0
M  END
$$$$
