IPP.pdb
     RDKit          3D

 23 24  0  0  1  0  0  0  0  0999 V2000
   11.1920  -14.7883   30.1710 C   0  0  0  0  0  0  0  0  0  0  0  0
    9.8384  -15.4193   29.9664 C   0  0  0  0  0  0  0  0  0  0  0  0
    9.3679  -15.3977   28.5409 C   0  0  2  0  0  0  0  0  0  0  0  0
    9.4377  -13.9331   28.0974 C   0  0  0  0  0  0  0  0  0  0  0  0
    7.9441  -15.9055   28.3377 C   0  0  2  0  0  0  0  0  0  0  0  0
    8.0918  -17.3652   28.6956 N   0  0  0  0  0  0  0  0  0  0  0  0
    7.4613  -15.8177   26.9616 C   0  0  0  0  0  0  0  0  0  0  0  0
    6.9649  -16.8905   26.4527 O   0  0  0  0  0  0  0  0  0  0  0  0
    7.4579  -14.7020   26.0938 N   0  0  0  0  0  0  0  0  0  0  0  0
    7.9481  -13.3896   26.3848 C   0  0  0  0  0  0  0  0  0  0  0  0
    7.0077  -12.4441   25.6970 C   0  0  0  0  0  0  0  0  0  0  0  0
    6.2873  -13.2922   24.6911 C   0  0  0  0  0  0  0  0  0  0  0  0
    6.9745  -14.6320   24.7029 C   0  0  1  0  0  0  0  0  0  0  0  0
    8.0841  -14.7708   23.7739 C   0  0  0  0  0  0  0  0  0  0  0  0
    9.2640  -14.6640   24.2433 O   0  0  0  0  0  0  0  0  0  0  0  0
    8.0118  -15.0149   22.3798 N   0  0  0  0  0  0  0  0  0  0  0  0
    7.0646  -14.4109   21.4841 C   0  0  0  0  0  0  0  0  0  0  0  0
    6.7300  -15.5088   20.5112 C   0  0  0  0  0  0  0  0  0  0  0  0
    7.8933  -16.4763   20.5623 C   0  0  0  0  0  0  0  0  0  0  0  0
    8.8457  -15.8809   21.5699 C   0  0  1  0  0  0  0  0  0  0  0  0
    9.8790  -15.0987   20.8238 C   0  0  0  0  0  0  0  0  0  0  0  0
   11.0825  -15.6692   20.4518 O   0  0  0  0  0  0  0  0  0  0  0  0
    9.6271  -13.9208   20.5445 O   0  0  0  0  0  0  0  0  0  0  0  0
  1  2  1  0
  3  4  1  1
  3  2  1  0
  5  3  1  0
  5  6  1  6
  7  8  2  0
  7  5  1  0
  9  7  1  0
 10  9  1  0
 11 10  1  0
 12 11  1  0
 12 13  1  0
 13 14  1  6
 13  9  1  0
 14 15  2  0
 16 17  1  0
 16 14  1  0
 18 17  1  0
 19 20  1  0
 19 18  1  0
 20 16  1  0
 20 21  1  6
 21 22  1  0
 23 21  2  0
M  END
$$$$
