IPP.pdb
     RDKit          3D

 23 24  0  0  1  0  0  0  0  0999 V2000
    5.5007  -11.7197   26.1679 C   0  0  0  0  0  0  0  0  0  0  0  0
    6.1623  -13.0188   25.7848 C   0  0  0  0  0  0  0  0  0  0  0  0
    7.1174  -13.5415   26.8186 C   0  0  2  0  0  0  0  0  0  0  0  0
    8.2551  -12.5184   26.8949 C   0  0  0  0  0  0  0  0  0  0  0  0
    7.7082  -14.9106   26.4982 C   0  0  2  0  0  0  0  0  0  0  0  0
    8.7752  -15.0334   27.5599 N   0  0  0  0  0  0  0  0  0  0  0  0
    8.3515  -15.0006   25.1896 C   0  0  0  0  0  0  0  0  0  0  0  0
    9.3491  -14.2151   24.9796 O   0  0  0  0  0  0  0  0  0  0  0  0
    8.0318  -15.8447   24.1018 N   0  0  0  0  0  0  0  0  0  0  0  0
    6.9990  -16.8341   24.0608 C   0  0  0  0  0  0  0  0  0  0  0  0
    7.5585  -17.9708   23.2569 C   0  0  0  0  0  0  0  0  0  0  0  0
    8.7208  -17.3758   22.5186 C   0  0  0  0  0  0  0  0  0  0  0  0
    8.6627  -15.8923   22.7704 C   0  0  1  0  0  0  0  0  0  0  0  0
    7.8805  -15.1284   21.8121 C   0  0  0  0  0  0  0  0  0  0  0  0
    6.6317  -15.0049   22.0342 O   0  0  0  0  0  0  0  0  0  0  0  0
    8.3474  -14.4914   20.6355 N   0  0  0  0  0  0  0  0  0  0  0  0
    9.7267  -14.2272   20.3318 C   0  0  0  0  0  0  0  0  0  0  0  0
    9.6999  -12.8890   19.6447 C   0  0  0  0  0  0  0  0  0  0  0  0
    8.2945  -12.7285   19.1051 C   0  0  0  0  0  0  0  0  0  0  0  0
    7.5787  -13.9927   19.5123 C   0  0  1  0  0  0  0  0  0  0  0  0
    7.6237  -14.9422   18.3579 C   0  0  0  0  0  0  0  0  0  0  0  0
    6.7771  -14.7968   17.2742 O   0  0  0  0  0  0  0  0  0  0  0  0
    8.4444  -15.8661   18.3967 O   0  0  0  0  0  0  0  0  0  0  0  0
  1  2  1  0
  3  4  1  6
  3  2  1  0
  5  3  1  0
  5  6  1  1
  7  8  2  0
  7  5  1  0
  9  7  1  0
 10  9  1  0
 11 10  1  0
 12 11  1  0
 12 13  1  0
 13 14  1  6
 13  9  1  0
 14 15  2  0
 16 17  1  0
 16 14  1  0
 18 17  1  0
 19 20  1  0
 19 18  1  0
 20 16  1  0
 20 21  1  6
 21 22  1  0
 23 21  2  0
M  END
$$$$
