IPP.pdb
     RDKit          3D

 23 24  0  0  1  0  0  0  0  0999 V2000
   11.4043  -14.7898   29.9410 C   0  0  0  0  0  0  0  0  0  0  0  0
   10.0753  -15.4915   29.8245 C   0  0  0  0  0  0  0  0  0  0  0  0
    9.4689  -15.4191   28.4530 C   0  0  2  0  0  0  0  0  0  0  0  0
    9.4863  -13.9377   28.0634 C   0  0  0  0  0  0  0  0  0  0  0  0
    8.0354  -15.9329   28.3680 C   0  0  2  0  0  0  0  0  0  0  0  0
    8.2262  -17.4041   28.6511 N   0  0  0  0  0  0  0  0  0  0  0  0
    7.4209  -15.7960   27.0497 C   0  0  0  0  0  0  0  0  0  0  0  0
    6.8374  -16.8387   26.5718 O   0  0  0  0  0  0  0  0  0  0  0  0
    7.3714  -14.6605   26.2094 N   0  0  0  0  0  0  0  0  0  0  0  0
    7.8072  -13.3365   26.5328 C   0  0  0  0  0  0  0  0  0  0  0  0
    6.8286  -12.4140   25.8676 C   0  0  0  0  0  0  0  0  0  0  0  0
    6.1434  -13.2661   24.8407 C   0  0  0  0  0  0  0  0  0  0  0  0
    6.8852  -14.5764   24.8203 C   0  0  1  0  0  0  0  0  0  0  0  0
    7.9993  -14.6467   23.8890 C   0  0  0  0  0  0  0  0  0  0  0  0
    9.1728  -14.4858   24.3591 O   0  0  0  0  0  0  0  0  0  0  0  0
    7.9380  -14.8765   22.4919 N   0  0  0  0  0  0  0  0  0  0  0  0
    7.0536  -14.2019   21.5825 C   0  0  0  0  0  0  0  0  0  0  0  0
    6.6623  -15.2674   20.5951 C   0  0  0  0  0  0  0  0  0  0  0  0
    7.7535  -16.3147   20.6615 C   0  0  0  0  0  0  0  0  0  0  0  0
    8.7250  -15.7940   21.6919 C   0  0  1  0  0  0  0  0  0  0  0  0
    9.8254  -15.0819   20.9721 C   0  0  0  0  0  0  0  0  0  0  0  0
    9.8798  -13.7008   20.9284 O   0  0  0  0  0  0  0  0  0  0  0  0
   10.6926  -15.7645   20.4147 O   0  0  0  0  0  0  0  0  0  0  0  0
  1  2  1  0
  3  4  1  1
  3  2  1  0
  5  3  1  0
  5  6  1  6
  7  8  2  0
  7  5  1  0
  9  7  1  0
 10  9  1  0
 11 10  1  0
 12 11  1  0
 12 13  1  0
 13 14  1  6
 13  9  1  0
 14 15  2  0
 16 17  1  0
 16 14  1  0
 18 17  1  0
 19 20  1  0
 19 18  1  0
 20 16  1  0
 20 21  1  6
 21 22  1  0
 23 21  2  0
M  END
$$$$
