IPP.pdb
     RDKit          3D

 23 24  0  0  1  0  0  0  0  0999 V2000
    7.0675  -11.7371   27.7267 C   0  0  0  0  0  0  0  0  0  0  0  0
    6.2249  -12.6747   26.9001 C   0  0  0  0  0  0  0  0  0  0  0  0
    7.0243  -13.6405   26.0740 C   0  0  2  0  0  0  0  0  0  0  0  0
    7.9009  -12.7830   25.1559 C   0  0  0  0  0  0  0  0  0  0  0  0
    6.1861  -14.5816   25.2150 C   0  0  2  0  0  0  0  0  0  0  0  0
    5.5261  -15.4410   26.2669 N   0  0  0  0  0  0  0  0  0  0  0  0
    6.9635  -15.4508   24.3349 C   0  0  0  0  0  0  0  0  0  0  0  0
    7.0332  -16.6933   24.6625 O   0  0  0  0  0  0  0  0  0  0  0  0
    7.6604  -15.1174   23.1512 N   0  0  0  0  0  0  0  0  0  0  0  0
    7.9497  -13.8013   22.6700 C   0  0  0  0  0  0  0  0  0  0  0  0
    7.8256  -13.8795   21.1767 C   0  0  0  0  0  0  0  0  0  0  0  0
    7.8998  -15.3453   20.8673 C   0  0  0  0  0  0  0  0  0  0  0  0
    8.2592  -16.0293   22.1598 C   0  0  1  0  0  0  0  0  0  0  0  0
    9.6835  -16.1821   22.4081 C   0  0  0  0  0  0  0  0  0  0  0  0
   10.2610  -15.2846   23.1044 O   0  0  0  0  0  0  0  0  0  0  0  0
   10.5260  -17.2298   21.9600 N   0  0  0  0  0  0  0  0  0  0  0  0
   10.2555  -18.0831   20.8361 C   0  0  0  0  0  0  0  0  0  0  0  0
   10.7668  -19.4303   21.2687 C   0  0  0  0  0  0  0  0  0  0  0  0
   11.7814  -19.1579   22.3588 C   0  0  0  0  0  0  0  0  0  0  0  0
   11.8025  -17.6557   22.4988 C   0  0  1  0  0  0  0  0  0  0  0  0
   12.9401  -17.1308   21.6824 C   0  0  0  0  0  0  0  0  0  0  0  0
   12.7306  -16.5634   20.4388 O   0  0  0  0  0  0  0  0  0  0  0  0
   14.0807  -17.2161   22.1520 O   0  0  0  0  0  0  0  0  0  0  0  0
  1  2  1  0
  3  4  1  6
  3  2  1  0
  5  3  1  0
  5  6  1  1
  7  8  2  0
  7  5  1  0
  9  7  1  0
 10  9  1  0
 11 10  1  0
 12 11  1  0
 12 13  1  0
 13 14  1  1
 13  9  1  0
 14 15  2  0
 16 17  1  0
 16 14  1  0
 18 17  1  0
 19 20  1  0
 19 18  1  0
 20 16  1  0
 20 21  1  6
 21 22  1  0
 23 21  2  0
M  END
$$$$
