IPP.pdb
     RDKit          3D

 23 24  0  0  1  0  0  0  0  0999 V2000
    6.9949  -11.6408   27.6925 C   0  0  0  0  0  0  0  0  0  0  0  0
    6.1577  -12.5650   26.8457 C   0  0  0  0  0  0  0  0  0  0  0  0
    6.9596  -13.5643   26.0631 C   0  0  2  0  0  0  0  0  0  0  0  0
    7.8692  -12.7448   25.1424 C   0  0  0  0  0  0  0  0  0  0  0  0
    6.1257  -14.5153   25.2108 C   0  0  2  0  0  0  0  0  0  0  0  0
    5.4386  -15.3441   26.2700 N   0  0  0  0  0  0  0  0  0  0  0  0
    6.9081  -15.4120   24.3634 C   0  0  0  0  0  0  0  0  0  0  0  0
    6.9440  -16.6510   24.7095 O   0  0  0  0  0  0  0  0  0  0  0  0
    7.6424  -15.1091   23.1942 N   0  0  0  0  0  0  0  0  0  0  0  0
    7.9337  -13.8061   22.6798 C   0  0  0  0  0  0  0  0  0  0  0  0
    7.8630  -13.9348   21.1865 C   0  0  0  0  0  0  0  0  0  0  0  0
    7.9643  -15.4091   20.9288 C   0  0  0  0  0  0  0  0  0  0  0  0
    8.2858  -16.0457   22.2551 C   0  0  1  0  0  0  0  0  0  0  0  0
    9.7020  -16.1727   22.5577 C   0  0  0  0  0  0  0  0  0  0  0  0
   10.2464  -15.2421   23.2370 O   0  0  0  0  0  0  0  0  0  0  0  0
   10.5698  -17.2278   22.1805 N   0  0  0  0  0  0  0  0  0  0  0  0
   10.3280  -18.1515   21.1069 C   0  0  0  0  0  0  0  0  0  0  0  0
   10.8611  -19.4601   21.6235 C   0  0  0  0  0  0  0  0  0  0  0  0
   11.8586  -19.1031   22.7050 C   0  0  0  0  0  0  0  0  0  0  0  0
   11.8486  -17.5951   22.7557 C   0  0  1  0  0  0  0  0  0  0  0  0
   12.9842  -17.0965   21.9203 C   0  0  0  0  0  0  0  0  0  0  0  0
   14.2539  -16.9484   22.4479 O   0  0  0  0  0  0  0  0  0  0  0  0
   12.7575  -16.8198   20.7367 O   0  0  0  0  0  0  0  0  0  0  0  0
  1  2  1  0
  3  4  1  6
  3  2  1  0
  5  3  1  0
  5  6  1  1
  7  8  2  0
  7  5  1  0
  9  7  1  0
 10  9  1  0
 11 10  1  0
 12 11  1  0
 12 13  1  0
 13 14  1  1
 13  9  1  0
 14 15  2  0
 16 17  1  0
 16 14  1  0
 18 17  1  0
 19 20  1  0
 19 18  1  0
 20 16  1  0
 20 21  1  6
 21 22  1  0
 23 21  2  0
M  END
$$$$
