IPP.pdb
     RDKit          3D

 23 24  0  0  1  0  0  0  0  0999 V2000
    7.5905  -11.6816   27.8770 C   0  0  0  0  0  0  0  0  0  0  0  0
    6.6137  -12.3008   26.9102 C   0  0  0  0  0  0  0  0  0  0  0  0
    7.1739  -13.4628   26.1422 C   0  0  2  0  0  0  0  0  0  0  0  0
    8.3719  -12.9126   25.3621 C   0  0  0  0  0  0  0  0  0  0  0  0
    6.1975  -14.0999   25.1588 C   0  0  2  0  0  0  0  0  0  0  0  0
    5.1998  -14.7373   26.0963 N   0  0  0  0  0  0  0  0  0  0  0  0
    6.7778  -15.1496   24.3246 C   0  0  0  0  0  0  0  0  0  0  0  0
    6.6230  -16.3617   24.7282 O   0  0  0  0  0  0  0  0  0  0  0  0
    7.4953  -15.0229   23.1134 N   0  0  0  0  0  0  0  0  0  0  0  0
    7.9874  -13.8113   22.5326 C   0  0  0  0  0  0  0  0  0  0  0  0
    7.8210  -13.9756   21.0505 C   0  0  0  0  0  0  0  0  0  0  0  0
    7.6462  -15.4520   20.8509 C   0  0  0  0  0  0  0  0  0  0  0  0
    7.9149  -16.0908   22.1878 C   0  0  1  0  0  0  0  0  0  0  0  0
    9.2993  -16.4594   22.4347 C   0  0  0  0  0  0  0  0  0  0  0  0
   10.0336  -15.6185   23.0493 O   0  0  0  0  0  0  0  0  0  0  0  0
    9.9459  -17.6655   22.0666 N   0  0  0  0  0  0  0  0  0  0  0  0
    9.4958  -18.5628   21.0387 C   0  0  0  0  0  0  0  0  0  0  0  0
    9.8065  -19.9297   21.5851 C   0  0  0  0  0  0  0  0  0  0  0  0
   10.8975  -19.7262   22.6147 C   0  0  0  0  0  0  0  0  0  0  0  0
   11.1613  -18.2406   22.6080 C   0  0  1  0  0  0  0  0  0  0  0  0
   12.3311  -17.9825   21.7130 C   0  0  0  0  0  0  0  0  0  0  0  0
   13.6277  -18.0388   22.1904 O   0  0  0  0  0  0  0  0  0  0  0  0
   12.1076  -17.7172   20.5262 O   0  0  0  0  0  0  0  0  0  0  0  0
  1  2  1  0
  3  4  1  6
  3  2  1  0
  5  3  1  0
  5  6  1  1
  7  8  2  0
  7  5  1  0
  9  7  1  0
 10  9  1  0
 11 10  1  0
 12 11  1  0
 12 13  1  0
 13 14  1  6
 13  9  1  0
 14 15  2  0
 16 17  1  0
 16 14  1  0
 18 17  1  0
 19 20  1  0
 19 18  1  0
 20 16  1  0
 20 21  1  6
 21 22  1  0
 23 21  2  0
M  END
$$$$
