IPP.pdb
     RDKit          3D

 23 24  0  0  1  0  0  0  0  0999 V2000
    6.8668  -21.3915   24.7438 C   0  0  0  0  0  0  0  0  0  0  0  0
    6.7431  -20.4330   23.5871 C   0  0  0  0  0  0  0  0  0  0  0  0
    5.6388  -19.4285   23.7467 C   0  0  2  0  0  0  0  0  0  0  0  0
    4.3325  -20.2069   23.5608 C   0  0  0  0  0  0  0  0  0  0  0  0
    5.6760  -18.2832   22.7402 C   0  0  2  0  0  0  0  0  0  0  0  0
    5.5271  -19.0262   21.4338 N   0  0  0  0  0  0  0  0  0  0  0  0
    6.9378  -17.5475   22.7075 C   0  0  0  0  0  0  0  0  0  0  0  0
    7.6695  -17.6993   21.6598 O   0  0  0  0  0  0  0  0  0  0  0  0
    7.4789  -16.6739   23.6780 N   0  0  0  0  0  0  0  0  0  0  0  0
    6.8938  -16.3241   24.9361 C   0  0  0  0  0  0  0  0  0  0  0  0
    7.2310  -14.8780   25.1518 C   0  0  0  0  0  0  0  0  0  0  0  0
    8.3628  -14.6083   24.2051 C   0  0  0  0  0  0  0  0  0  0  0  0
    8.7588  -15.9439   23.6333 C   0  0  1  0  0  0  0  0  0  0  0  0
    9.7780  -16.6633   24.3798 C   0  0  0  0  0  0  0  0  0  0  0  0
    9.3876  -17.4634   25.2916 O   0  0  0  0  0  0  0  0  0  0  0  0
   11.1830  -16.5807   24.2141 N   0  0  0  0  0  0  0  0  0  0  0  0
   11.8876  -15.4401   23.6976 C   0  0  0  0  0  0  0  0  0  0  0  0
   12.9993  -16.0372   22.8783 C   0  0  0  0  0  0  0  0  0  0  0  0
   13.2024  -17.4383   23.4145 C   0  0  0  0  0  0  0  0  0  0  0  0
   12.1893  -17.5769   24.5241 C   0  0  1  0  0  0  0  0  0  0  0  0
   12.8753  -17.2730   25.8176 C   0  0  0  0  0  0  0  0  0  0  0  0
   13.6046  -18.2376   26.4885 O   0  0  0  0  0  0  0  0  0  0  0  0
   12.7745  -16.1284   26.2742 O   0  0  0  0  0  0  0  0  0  0  0  0
  1  2  1  0
  3  4  1  6
  3  2  1  0
  5  3  1  0
  5  6  1  6
  7  8  2  0
  7  5  1  0
  9  7  1  0
 10  9  1  0
 11 10  1  0
 12 11  1  0
 12 13  1  0
 13 14  1  1
 13  9  1  0
 14 15  2  0
 16 17  1  0
 16 14  1  0
 18 17  1  0
 19 20  1  0
 19 18  1  0
 20 16  1  0
 20 21  1  1
 21 22  1  0
 23 21  2  0
M  END
$$$$
