IPP.pdb
     RDKit          3D

 23 24  0  0  1  0  0  0  0  0999 V2000
   11.0444  -14.9107   30.3825 C   0  0  0  0  0  0  0  0  0  0  0  0
    9.6827  -15.5080   30.1347 C   0  0  0  0  0  0  0  0  0  0  0  0
    9.2370  -15.4297   28.7032 C   0  0  2  0  0  0  0  0  0  0  0  0
    9.3048  -13.9475   28.3224 C   0  0  0  0  0  0  0  0  0  0  0  0
    7.8204  -15.9370   28.4539 C   0  0  2  0  0  0  0  0  0  0  0  0
    7.9707  -17.4089   28.7571 N   0  0  0  0  0  0  0  0  0  0  0  0
    7.3623  -15.7980   27.0736 C   0  0  0  0  0  0  0  0  0  0  0  0
    6.8534  -16.8447   26.5243 O   0  0  0  0  0  0  0  0  0  0  0  0
    7.3953  -14.6568   26.2403 N   0  0  0  0  0  0  0  0  0  0  0  0
    7.9240  -13.3693   26.5725 C   0  0  0  0  0  0  0  0  0  0  0  0
    7.0147  -12.3752   25.9119 C   0  0  0  0  0  0  0  0  0  0  0  0
    6.2721  -13.1699   24.8790 C   0  0  0  0  0  0  0  0  0  0  0  0
    6.9184  -14.5297   24.8513 C   0  0  1  0  0  0  0  0  0  0  0  0
    8.0261  -14.6736   23.9208 C   0  0  0  0  0  0  0  0  0  0  0  0
    9.2073  -14.6209   24.3963 O   0  0  0  0  0  0  0  0  0  0  0  0
    7.9508  -14.8689   22.5192 N   0  0  0  0  0  0  0  0  0  0  0  0
    7.1135  -14.1181   21.6250 C   0  0  0  0  0  0  0  0  0  0  0  0
    6.6535  -15.1341   20.6152 C   0  0  0  0  0  0  0  0  0  0  0  0
    7.6732  -16.2522   20.6584 C   0  0  0  0  0  0  0  0  0  0  0  0
    8.6762  -15.8189   21.6991 C   0  0  1  0  0  0  0  0  0  0  0  0
    9.8217  -15.1657   20.9940 C   0  0  0  0  0  0  0  0  0  0  0  0
   10.8587  -15.9111   20.4636 O   0  0  0  0  0  0  0  0  0  0  0  0
    9.8169  -13.9332   20.8951 O   0  0  0  0  0  0  0  0  0  0  0  0
  1  2  1  0
  3  4  1  1
  3  2  1  0
  5  3  1  0
  5  6  1  6
  7  8  2  0
  7  5  1  0
  9  7  1  0
 10  9  1  0
 11 10  1  0
 12 11  1  0
 12 13  1  0
 13 14  1  6
 13  9  1  0
 14 15  2  0
 16 17  1  0
 16 14  1  0
 18 17  1  0
 19 20  1  0
 19 18  1  0
 20 16  1  0
 20 21  1  6
 21 22  1  0
 23 21  2  0
M  END
$$$$
