HED.pdb
     RDKit          3D

 28 28  0  0  1  0  0  0  0  0999 V2000
    8.3815  -17.0900   17.4950 N   0  0  0  0  0  0  0  0  0  0  0  0
    9.7039  -16.5192   17.3259 C   0  0  1  0  0  0  0  0  0  0  0  0
    9.5757  -15.0108   17.4172 C   0  0  0  0  0  0  0  0  0  0  0  0
    8.7017  -14.4705   16.3627 C   0  0  0  0  0  0  0  0  0  0  0  0
    7.6700  -13.5868   16.5696 C   0  0  0  0  0  0  0  0  0  0  0  0
    7.0717  -13.2991   15.3864 N   0  0  0  0  0  0  0  0  0  0  0  0
    7.7394  -14.0101   14.4470 C   0  0  0  0  0  0  0  0  0  0  0  0
    8.7351  -14.7244   15.0496 N   0  0  0  0  0  0  0  0  0  0  0  0
   10.5730  -17.0766   18.3864 C   0  0  0  0  0  0  0  0  0  0  0  0
   10.1971  -16.9606   19.5782 O   0  0  0  0  0  0  0  0  0  0  0  0
   11.8070  -17.7352   18.1445 N   0  0  0  0  0  0  0  0  0  0  0  0
   12.5366  -18.3986   19.2359 C   0  0  1  0  0  0  0  0  0  0  0  0
   12.6905  -19.8647   18.8993 C   0  0  0  0  0  0  0  0  0  0  0  0
   11.4293  -20.6387   19.0941 C   0  0  0  0  0  0  0  0  0  0  0  0
   11.6654  -22.0573   18.7570 C   0  0  0  0  0  0  0  0  0  0  0  0
   11.7394  -22.9069   19.6704 O   0  0  0  0  0  0  0  0  0  0  0  0
   13.8231  -17.7355   19.4739 C   0  0  0  0  0  0  0  0  0  0  0  0
   14.3541  -17.0702   18.5547 O   0  0  0  0  0  0  0  0  0  0  0  0
   11.8076  -22.4704   17.4481 O   0  0  0  0  0  0  0  0  0  0  0  0
   14.4750  -17.8334   20.7209 N   0  0  0  0  0  0  0  0  0  0  0  0
   15.7993  -17.2352   20.9828 C   0  0  1  0  0  0  0  0  0  0  0  0
   15.8594  -16.6493   22.3438 C   0  0  0  0  0  0  0  0  0  0  0  0
   17.1733  -16.0419   22.6053 C   0  0  0  0  0  0  0  0  0  0  0  0
   18.1566  -16.0612   21.8389 O   0  0  0  0  0  0  0  0  0  0  0  0
   16.8328  -18.2803   20.7161 C   0  0  0  0  0  0  0  0  0  0  0  0
   16.6700  -19.4477   21.2266 O   0  0  0  0  0  0  0  0  0  0  0  0
   17.4192  -15.3527   23.8239 O   0  0  0  0  0  0  0  0  0  0  0  0
   17.9709  -18.1386   19.9677 O   0  0  0  0  0  0  0  0  0  0  0  0
  2  1  1  1
  3  4  1  0
  3  2  1  0
  4  5  2  0
  6  5  1  0
  7  6  1  0
  8  7  2  0
  8  4  1  0
  9  2  1  0
  9 11  1  0
 10  9  2  0
 11 12  1  0
 12 13  1  6
 13 14  1  0
 14 15  1  0
 15 19  1  0
 16 15  2  0
 17 12  1  0
 18 17  2  0
 20 17  1  0
 21 20  1  0
 21 25  1  0
 21 22  1  1
 23 22  1  0
 23 27  1  0
 24 23  2  0
 25 28  1  0
 26 25  2  0
M  END
$$$$
