HED.pdb
     RDKit          3D

 28 28  0  0  1  0  0  0  0  0999 V2000
    9.9085  -15.2801   17.5938 N   0  0  0  0  0  0  0  0  0  0  0  0
   10.6769  -14.5216   18.5619 C   0  0  1  0  0  0  0  0  0  0  0  0
    9.7849  -14.2544   19.7589 C   0  0  0  0  0  0  0  0  0  0  0  0
    8.5839  -13.4883   19.3869 C   0  0  0  0  0  0  0  0  0  0  0  0
    8.5560  -12.1369   19.1396 C   0  0  0  0  0  0  0  0  0  0  0  0
    7.2916  -11.7565   18.8274 N   0  0  0  0  0  0  0  0  0  0  0  0
    6.5383  -12.8804   18.8832 C   0  0  0  0  0  0  0  0  0  0  0  0
    7.3337  -13.9363   19.2257 N   0  0  0  0  0  0  0  0  0  0  0  0
   11.8703  -15.3225   18.9155 C   0  0  0  0  0  0  0  0  0  0  0  0
   11.7501  -16.5710   18.9612 O   0  0  0  0  0  0  0  0  0  0  0  0
   13.1454  -14.7710   19.2075 N   0  0  0  0  0  0  0  0  0  0  0  0
   14.3005  -15.6399   19.4801 C   0  0  1  0  0  0  0  0  0  0  0  0
   15.3975  -15.3178   18.4905 C   0  0  0  0  0  0  0  0  0  0  0  0
   15.6070  -13.8504   18.3160 C   0  0  0  0  0  0  0  0  0  0  0  0
   16.7183  -13.6210   17.3704 C   0  0  0  0  0  0  0  0  0  0  0  0
   16.5693  -13.8971   16.1608 O   0  0  0  0  0  0  0  0  0  0  0  0
   14.7363  -15.4961   20.8733 C   0  0  0  0  0  0  0  0  0  0  0  0
   14.5998  -14.3935   21.4522 O   0  0  0  0  0  0  0  0  0  0  0  0
   17.9263  -13.1055   17.7933 O   0  0  0  0  0  0  0  0  0  0  0  0
   15.3077  -16.5783   21.5746 N   0  0  0  0  0  0  0  0  0  0  0  0
   15.7228  -16.4881   22.9887 C   0  0  1  0  0  0  0  0  0  0  0  0
   15.1725  -17.6163   23.7785 C   0  0  0  0  0  0  0  0  0  0  0  0
   15.6419  -17.5709   25.1717 C   0  0  0  0  0  0  0  0  0  0  0  0
   16.3790  -16.6974   25.6699 O   0  0  0  0  0  0  0  0  0  0  0  0
   17.2125  -16.3828   23.0211 C   0  0  0  0  0  0  0  0  0  0  0  0
   17.8878  -16.9545   22.0900 O   0  0  0  0  0  0  0  0  0  0  0  0
   15.2610  -18.5832   26.0941 O   0  0  0  0  0  0  0  0  0  0  0  0
   17.9701  -15.7280   23.9554 O   0  0  0  0  0  0  0  0  0  0  0  0
  2  1  1  6
  3  4  1  0
  3  2  1  0
  4  5  2  0
  6  5  1  0
  7  6  1  0
  8  7  2  0
  8  4  1  0
  9  2  1  0
  9 11  1  0
 10  9  2  0
 11 12  1  0
 12 13  1  6
 13 14  1  0
 14 15  1  0
 15 19  1  0
 16 15  2  0
 17 12  1  0
 18 17  2  0
 20 17  1  0
 21 20  1  0
 21 25  1  0
 21 22  1  1
 23 22  1  0
 23 27  1  0
 24 23  2  0
 25 28  1  0
 26 25  2  0
M  END
$$$$
