HED.pdb
     RDKit          3D

 28 28  0  0  1  0  0  0  0  0999 V2000
    8.0671  -17.2415   20.0267 N   0  0  0  0  0  0  0  0  0  0  0  0
    9.2726  -16.5835   19.5609 C   0  0  1  0  0  0  0  0  0  0  0  0
    9.3604  -15.2328   20.2448 C   0  0  0  0  0  0  0  0  0  0  0  0
    8.2894  -14.3243   19.8028 C   0  0  0  0  0  0  0  0  0  0  0  0
    7.3759  -14.6038   18.8151 C   0  0  0  0  0  0  0  0  0  0  0  0
    6.5348  -13.5505   18.6604 N   0  0  0  0  0  0  0  0  0  0  0  0
    6.9337  -12.6185   19.5582 C   0  0  0  0  0  0  0  0  0  0  0  0
    8.0068  -13.0970   20.2540 N   0  0  0  0  0  0  0  0  0  0  0  0
   10.4191  -17.4589   19.8920 C   0  0  0  0  0  0  0  0  0  0  0  0
   10.3321  -18.1834   20.9132 O   0  0  0  0  0  0  0  0  0  0  0  0
   11.6141  -17.5337   19.1294 N   0  0  0  0  0  0  0  0  0  0  0  0
   12.7210  -18.4100   19.5425 C   0  0  1  0  0  0  0  0  0  0  0  0
   13.4179  -18.9315   18.3060 C   0  0  0  0  0  0  0  0  0  0  0  0
   14.5214  -19.8853   18.6226 C   0  0  0  0  0  0  0  0  0  0  0  0
   15.1653  -20.3265   17.3685 C   0  0  0  0  0  0  0  0  0  0  0  0
   14.8026  -19.8332   16.2792 O   0  0  0  0  0  0  0  0  0  0  0  0
   13.6314  -17.6991   20.4467 C   0  0  0  0  0  0  0  0  0  0  0  0
   13.4437  -16.4829   20.6812 O   0  0  0  0  0  0  0  0  0  0  0  0
   16.1651  -21.2775   17.3705 O   0  0  0  0  0  0  0  0  0  0  0  0
   14.7167  -18.3609   21.0581 N   0  0  0  0  0  0  0  0  0  0  0  0
   15.2367  -17.9881   22.3888 C   0  0  1  0  0  0  0  0  0  0  0  0
   14.1408  -17.9026   23.3843 C   0  0  0  0  0  0  0  0  0  0  0  0
   14.1088  -16.5814   24.0301 C   0  0  0  0  0  0  0  0  0  0  0  0
   14.9561  -15.6770   23.8935 O   0  0  0  0  0  0  0  0  0  0  0  0
   16.3171  -18.9565   22.7442 C   0  0  0  0  0  0  0  0  0  0  0  0
   17.1736  -18.6179   23.6395 O   0  0  0  0  0  0  0  0  0  0  0  0
   13.0441  -16.2321   24.9046 O   0  0  0  0  0  0  0  0  0  0  0  0
   16.5105  -20.2037   22.2125 O   0  0  0  0  0  0  0  0  0  0  0  0
  2  1  1  1
  3  4  1  0
  3  2  1  0
  4  5  2  0
  6  5  1  0
  7  6  1  0
  8  7  2  0
  8  4  1  0
  9  2  1  0
  9 11  1  0
 10  9  2  0
 11 12  1  0
 12 13  1  6
 13 14  1  0
 14 15  1  0
 15 19  1  0
 16 15  2  0
 17 12  1  0
 18 17  2  0
 20 17  1  0
 21 20  1  0
 21 25  1  0
 21 22  1  1
 23 22  1  0
 23 27  1  0
 24 23  2  0
 25 28  1  0
 26 25  2  0
M  END
$$$$
