HED.pdb
     RDKit          3D

 28 28  0  0  1  0  0  0  0  0999 V2000
   10.1028  -15.7685   17.0891 N   0  0  0  0  0  0  0  0  0  0  0  0
   10.7191  -14.8465   18.0234 C   0  0  1  0  0  0  0  0  0  0  0  0
    9.7834  -14.6864   19.2061 C   0  0  0  0  0  0  0  0  0  0  0  0
    8.6372  -13.8200   18.8845 C   0  0  0  0  0  0  0  0  0  0  0  0
    8.4199  -13.2191   17.6680 C   0  0  0  0  0  0  0  0  0  0  0  0
    7.2763  -12.4907   17.7170 N   0  0  0  0  0  0  0  0  0  0  0  0
    6.7881  -12.6448   18.9707 C   0  0  0  0  0  0  0  0  0  0  0  0
    7.6242  -13.4587   19.6801 N   0  0  0  0  0  0  0  0  0  0  0  0
   12.0301  -15.4116   18.4140 C   0  0  0  0  0  0  0  0  0  0  0  0
   12.1358  -16.6600   18.4870 O   0  0  0  0  0  0  0  0  0  0  0  0
   13.1791  -14.6331   18.7125 N   0  0  0  0  0  0  0  0  0  0  0  0
   14.4695  -15.2733   19.0104 C   0  0  1  0  0  0  0  0  0  0  0  0
   15.5210  -14.7061   18.0836 C   0  0  0  0  0  0  0  0  0  0  0  0
   15.3927  -15.2110   16.6849 C   0  0  0  0  0  0  0  0  0  0  0  0
   16.5124  -14.6955   15.8710 C   0  0  0  0  0  0  0  0  0  0  0  0
   17.3852  -15.4836   15.4484 O   0  0  0  0  0  0  0  0  0  0  0  0
   14.8140  -15.1047   20.4262 C   0  0  0  0  0  0  0  0  0  0  0  0
   14.7942  -13.9598   20.9343 O   0  0  0  0  0  0  0  0  0  0  0  0
   16.6190  -13.3545   15.5637 O   0  0  0  0  0  0  0  0  0  0  0  0
   15.1682  -16.2100   21.2277 N   0  0  0  0  0  0  0  0  0  0  0  0
   15.6096  -16.0750   22.6303 C   0  0  1  0  0  0  0  0  0  0  0  0
   15.2845  -17.2935   23.4107 C   0  0  0  0  0  0  0  0  0  0  0  0
   13.8349  -17.4167   23.6278 C   0  0  0  0  0  0  0  0  0  0  0  0
   12.9753  -16.5577   23.3490 O   0  0  0  0  0  0  0  0  0  0  0  0
   17.0603  -15.7193   22.6200 C   0  0  0  0  0  0  0  0  0  0  0  0
   17.7185  -15.8613   21.5261 O   0  0  0  0  0  0  0  0  0  0  0  0
   13.2901  -18.5959   24.2051 O   0  0  0  0  0  0  0  0  0  0  0  0
   17.7975  -15.2439   23.6717 O   0  0  0  0  0  0  0  0  0  0  0  0
  2  1  1  6
  3  4  1  0
  3  2  1  0
  4  5  2  0
  6  5  1  0
  7  6  1  0
  8  7  2  0
  8  4  1  0
  9  2  1  0
  9 11  1  0
 10  9  2  0
 11 12  1  0
 12 13  1  6
 13 14  1  0
 14 15  1  0
 15 19  1  0
 16 15  2  0
 17 12  1  0
 18 17  2  0
 20 17  1  0
 21 20  1  0
 21 25  1  0
 21 22  1  1
 23 22  1  0
 23 27  1  0
 24 23  2  0
 25 28  1  0
 26 25  2  0
M  END
$$$$
