SCN.pdb
     RDKit          3D

 21 20  0  0  1  0  0  0  0  0999 V2000
   14.5634   -5.7420   -6.5748 O   0  0  0  0  0  0  0  0  0  0  0  0
   15.2991   -6.4342   -7.5324 C   0  0  0  0  0  0  0  0  0  0  0  0
   14.3415   -7.0641   -8.5197 C   0  0  2  0  0  0  0  0  0  0  0  0
   13.6633   -8.1785   -7.8940 N   0  0  0  0  0  0  0  0  0  0  0  0
   15.1146   -7.5497   -9.6624 C   0  0  0  0  0  0  0  0  0  0  0  0
   15.6213   -8.6959   -9.6562 O   0  0  0  0  0  0  0  0  0  0  0  0
   15.3239   -6.7370  -10.8332 N   0  0  0  0  0  0  0  0  0  0  0  0
   15.9590   -7.2567  -12.0119 C   0  0  1  0  0  0  0  0  0  0  0  0
   15.0838   -7.1496  -13.2379 C   0  0  0  0  0  0  0  0  0  0  0  0
   13.7261   -8.3336  -13.1449 S   0  0  0  0  0  0  0  0  0  0  0  0
   17.2634   -6.6020  -12.2842 C   0  0  0  0  0  0  0  0  0  0  0  0
   17.4485   -5.3791  -12.1014 O   0  0  0  0  0  0  0  0  0  0  0  0
   22.3442   -6.2991  -13.6228 N   0  0  0  0  0  0  0  0  0  0  0  0
   21.9740   -7.6770  -13.5444 C   0  0  0  0  0  0  0  0  0  0  0  0
   22.9002   -8.4946  -13.7251 O   0  0  0  0  0  0  0  0  0  0  0  0
   20.5724   -7.9655  -13.2653 C   0  0  0  0  0  0  0  0  0  0  0  0
   19.6641   -6.8085  -13.0551 C   0  0  2  0  0  0  0  0  0  0  0  0
   18.3407   -7.3775  -12.7669 N   0  0  0  0  0  0  0  0  0  0  0  0
   19.5007   -5.8929  -14.1878 C   0  0  0  0  0  0  0  0  0  0  0  0
   18.7997   -6.2197  -15.1648 O   0  0  0  0  0  0  0  0  0  0  0  0
   20.1126   -4.6630  -14.1957 O   0  0  0  0  0  0  0  0  0  0  0  0
  1  2  1  0
  2  3  1  0
  3  4  1  1
  5  7  1  0
  5  3  1  0
  6  5  2  0
  8  9  1  6
  8 11  1  0
  8  7  1  0
 10  9  1  0
 11 12  2  0
 13 14  1  0
 14 16  1  0
 15 14  2  0
 17 16  1  6
 17 19  1  0
 18 17  1  0
 18 11  1  0
 19 20  2  0
 19 21  1  0
M  END
$$$$
