SCN.pdb
     RDKit          3D

 21 20  0  0  1  0  0  0  0  0999 V2000
   26.7434  -18.5398  -15.2856 O   0  0  0  0  0  0  0  0  0  0  0  0
   27.7883  -18.6327  -14.3708 C   0  0  0  0  0  0  0  0  0  0  0  0
   28.1277  -20.0926  -14.1665 C   0  0  2  0  0  0  0  0  0  0  0  0
   28.4073  -20.7091  -15.4451 N   0  0  0  0  0  0  0  0  0  0  0  0
   26.9730  -20.7507  -13.5558 C   0  0  0  0  0  0  0  0  0  0  0  0
   26.4115  -21.7189  -14.1194 O   0  0  0  0  0  0  0  0  0  0  0  0
   26.4375  -20.3166  -12.2910 N   0  0  0  0  0  0  0  0  0  0  0  0
   25.2937  -20.9492  -11.6957 C   0  0  1  0  0  0  0  0  0  0  0  0
   25.1206  -20.5846  -10.2405 C   0  0  0  0  0  0  0  0  0  0  0  0
   26.6112  -20.9924   -9.3099 S   0  0  0  0  0  0  0  0  0  0  0  0
   24.0380  -20.6467  -12.4278 C   0  0  0  0  0  0  0  0  0  0  0  0
   23.7630  -19.4977  -12.8366 O   0  0  0  0  0  0  0  0  0  0  0  0
   19.6143  -21.7561  -15.0590 N   0  0  0  0  0  0  0  0  0  0  0  0
   20.4327  -22.9226  -14.9524 C   0  0  0  0  0  0  0  0  0  0  0  0
   20.0485  -23.9121  -15.6099 O   0  0  0  0  0  0  0  0  0  0  0  0
   21.6093  -22.8232  -14.0972 C   0  0  0  0  0  0  0  0  0  0  0  0
   21.9084  -21.4978  -13.4958 C   0  0  2  0  0  0  0  0  0  0  0  0
   23.1139  -21.6853  -12.6774 N   0  0  0  0  0  0  0  0  0  0  0  0
   20.8787  -20.9310  -12.6204 C   0  0  0  0  0  0  0  0  0  0  0  0
   20.9039  -21.1521  -11.3943 O   0  0  0  0  0  0  0  0  0  0  0  0
   19.8710  -20.1487  -13.1299 O   0  0  0  0  0  0  0  0  0  0  0  0
  1  2  1  0
  2  3  1  0
  3  4  1  6
  5  7  1  0
  5  3  1  0
  6  5  2  0
  8  9  1  1
  8 11  1  0
  8  7  1  0
 10  9  1  0
 11 12  2  0
 13 14  1  0
 14 16  1  0
 15 14  2  0
 17 16  1  1
 17 19  1  0
 18 17  1  0
 18 11  1  0
 19 20  2  0
 19 21  1  0
M  END
$$$$
