SCN.pdb
     RDKit          3D

 21 20  0  0  1  0  0  0  0  0999 V2000
   20.6591  -18.4233  -17.5738 O   0  0  0  0  0  0  0  0  0  0  0  0
   20.9616  -17.1983  -16.9861 C   0  0  0  0  0  0  0  0  0  0  0  0
   22.2009  -17.3605  -16.1339 C   0  0  2  0  0  0  0  0  0  0  0  0
   21.9042  -18.2142  -15.0041 N   0  0  0  0  0  0  0  0  0  0  0  0
   22.6000  -16.0396  -15.6488 C   0  0  0  0  0  0  0  0  0  0  0  0
   21.9241  -15.4422  -14.7789 O   0  0  0  0  0  0  0  0  0  0  0  0
   23.7773  -15.3758  -16.1471 N   0  0  0  0  0  0  0  0  0  0  0  0
   24.1395  -14.0536  -15.7188 C   0  0  1  0  0  0  0  0  0  0  0  0
   25.6021  -13.7514  -15.9424 C   0  0  0  0  0  0  0  0  0  0  0  0
   26.6298  -14.8733  -14.9733 S   0  0  0  0  0  0  0  0  0  0  0  0
   23.3182  -13.0045  -16.3738 C   0  0  0  0  0  0  0  0  0  0  0  0
   22.9494  -13.0913  -17.5652 O   0  0  0  0  0  0  0  0  0  0  0  0
   20.1803   -8.8197  -16.6741 N   0  0  0  0  0  0  0  0  0  0  0  0
   20.1638   -9.3846  -15.3618 C   0  0  0  0  0  0  0  0  0  0  0  0
   19.3257   -8.8962  -14.5756 O   0  0  0  0  0  0  0  0  0  0  0  0
   21.1174  -10.4550  -15.0957 C   0  0  0  0  0  0  0  0  0  0  0  0
   22.0612  -10.8171  -16.1846 C   0  0  2  0  0  0  0  0  0  0  0  0
   22.9338  -11.8636  -15.6352 N   0  0  0  0  0  0  0  0  0  0  0  0
   22.9322   -9.7459  -16.6765 C   0  0  0  0  0  0  0  0  0  0  0  0
   24.1467   -9.7445  -16.3974 O   0  0  0  0  0  0  0  0  0  0  0  0
   22.4313   -8.7279  -17.4509 O   0  0  0  0  0  0  0  0  0  0  0  0
  1  2  1  0
  2  3  1  0
  3  4  1  1
  5  7  1  0
  5  3  1  0
  6  5  2  0
  8  9  1  6
  8 11  1  0
  8  7  1  0
 10  9  1  0
 11 12  2  0
 13 14  1  0
 14 16  1  0
 15 14  2  0
 17 16  1  1
 17 19  1  0
 18 17  1  0
 18 11  1  0
 19 20  2  0
 19 21  1  0
M  END
$$$$
