SCN.pdb
     RDKit          3D

 21 20  0  0  1  0  0  0  0  0999 V2000
   16.7846   -9.5091  -17.9932 O   0  0  0  0  0  0  0  0  0  0  0  0
   17.9593   -9.8059  -18.6783 C   0  0  0  0  0  0  0  0  0  0  0  0
   18.6398  -10.9713  -17.9947 C   0  0  2  0  0  0  0  0  0  0  0  0
   17.6614  -11.9917  -17.6870 N   0  0  0  0  0  0  0  0  0  0  0  0
   19.2395  -10.4873  -16.7516 C   0  0  0  0  0  0  0  0  0  0  0  0
   18.6386  -10.6061  -15.6583 O   0  0  0  0  0  0  0  0  0  0  0  0
   20.5355   -9.8589  -16.7325 N   0  0  0  0  0  0  0  0  0  0  0  0
   21.0903   -9.3039  -15.5295 C   0  0  1  0  0  0  0  0  0  0  0  0
   22.2529  -10.1099  -15.0009 C   0  0  0  0  0  0  0  0  0  0  0  0
   22.9241   -9.3414  -13.5133 S   0  0  0  0  0  0  0  0  0  0  0  0
   21.5139   -7.8917  -15.7038 C   0  0  0  0  0  0  0  0  0  0  0  0
   22.3042   -7.5374  -16.6055 O   0  0  0  0  0  0  0  0  0  0  0  0
   21.4177   -2.7082  -15.2019 N   0  0  0  0  0  0  0  0  0  0  0  0
   20.1566   -3.3316  -15.4524 C   0  0  0  0  0  0  0  0  0  0  0  0
   19.2264   -2.5592  -15.7643 O   0  0  0  0  0  0  0  0  0  0  0  0
   20.1026   -4.7822  -15.3164 C   0  0  0  0  0  0  0  0  0  0  0  0
   21.3603   -5.4823  -14.9478 C   0  0  2  0  0  0  0  0  0  0  0  0
   21.0133   -6.9047  -14.8262 N   0  0  0  0  0  0  0  0  0  0  0  0
   21.9832   -5.0824  -13.6828 C   0  0  0  0  0  0  0  0  0  0  0  0
   21.7073   -5.6850  -12.6275 O   0  0  0  0  0  0  0  0  0  0  0  0
   22.8787   -4.0419  -13.6345 O   0  0  0  0  0  0  0  0  0  0  0  0
  1  2  1  0
  2  3  1  0
  3  4  1  1
  5  7  1  0
  5  3  1  0
  6  5  2  0
  8  9  1  6
  8 11  1  0
  8  7  1  0
 10  9  1  0
 11 12  2  0
 13 14  1  0
 14 16  1  0
 15 14  2  0
 17 16  1  1
 17 19  1  0
 18 17  1  0
 18 11  1  0
 19 20  2  0
 19 21  1  0
M  END
$$$$
