SCN.pdb
     RDKit          3D

 21 20  0  0  1  0  0  0  0  0999 V2000
   22.8219  -22.3136  -18.5933 O   0  0  0  0  0  0  0  0  0  0  0  0
   22.6924  -22.1337  -17.2191 C   0  0  0  0  0  0  0  0  0  0  0  0
   22.5163  -20.6581  -16.9362 C   0  0  2  0  0  0  0  0  0  0  0  0
   23.7845  -19.9796  -17.0925 N   0  0  0  0  0  0  0  0  0  0  0  0
   22.0553  -20.5076  -15.5563 C   0  0  0  0  0  0  0  0  0  0  0  0
   22.5263  -19.6142  -14.8143 O   0  0  0  0  0  0  0  0  0  0  0  0
   21.0487  -21.3731  -14.9973 N   0  0  0  0  0  0  0  0  0  0  0  0
   20.4569  -21.1163  -13.7141 C   0  0  1  0  0  0  0  0  0  0  0  0
   19.8340  -19.7434  -13.6264 C   0  0  0  0  0  0  0  0  0  0  0  0
   19.2996  -19.4037  -11.9373 S   0  0  0  0  0  0  0  0  0  0  0  0
   19.4432  -22.1370  -13.3467 C   0  0  0  0  0  0  0  0  0  0  0  0
   18.3946  -22.3051  -14.0064 O   0  0  0  0  0  0  0  0  0  0  0  0
   20.1808  -27.2411  -10.3084 N   0  0  0  0  0  0  0  0  0  0  0  0
   19.3350  -26.3904  -11.0845 C   0  0  0  0  0  0  0  0  0  0  0  0
   18.4837  -26.9734  -11.7877 O   0  0  0  0  0  0  0  0  0  0  0  0
   19.5615  -24.9548  -10.9667 C   0  0  0  0  0  0  0  0  0  0  0  0
   18.7681  -24.0620  -11.8504 C   0  0  2  0  0  0  0  0  0  0  0  0
   19.6601  -22.9528  -12.2142 N   0  0  0  0  0  0  0  0  0  0  0  0
   17.5618  -23.4693  -11.2658 C   0  0  0  0  0  0  0  0  0  0  0  0
   17.5487  -22.2684  -10.9332 O   0  0  0  0  0  0  0  0  0  0  0  0
   16.4276  -24.2202  -11.0742 O   0  0  0  0  0  0  0  0  0  0  0  0
  1  2  1  0
  2  3  1  0
  3  4  1  1
  5  7  1  0
  5  3  1  0
  6  5  2  0
  8  9  1  6
  8 11  1  0
  8  7  1  0
 10  9  1  0
 11 12  2  0
 13 14  1  0
 14 16  1  0
 15 14  2  0
 17 16  1  1
 17 19  1  0
 18 17  1  0
 18 11  1  0
 19 20  2  0
 19 21  1  0
M  END
$$$$
