SCN.pdb
     RDKit          3D

 21 20  0  0  1  0  0  0  0  0999 V2000
   19.6554  -14.6275  -19.1397 O   0  0  0  0  0  0  0  0  0  0  0  0
   20.1171  -13.8309  -18.0958 C   0  0  0  0  0  0  0  0  0  0  0  0
   21.5909  -14.1036  -17.8911 C   0  0  2  0  0  0  0  0  0  0  0  0
   21.7618  -15.3884  -17.2483 N   0  0  0  0  0  0  0  0  0  0  0  0
   22.1356  -13.0560  -17.0279 C   0  0  0  0  0  0  0  0  0  0  0  0
   21.7136  -12.9021  -15.8580 O   0  0  0  0  0  0  0  0  0  0  0  0
   23.1716  -12.1647  -17.4832 N   0  0  0  0  0  0  0  0  0  0  0  0
   23.6800  -11.1082  -16.6535 C   0  0  1  0  0  0  0  0  0  0  0  0
   25.1382  -10.8153  -16.9154 C   0  0  0  0  0  0  0  0  0  0  0  0
   26.1836  -11.9530  -15.9843 S   0  0  0  0  0  0  0  0  0  0  0  0
   22.8971   -9.8547  -16.7946 C   0  0  0  0  0  0  0  0  0  0  0  0
   22.4279   -9.4795  -17.8910 O   0  0  0  0  0  0  0  0  0  0  0  0
   21.2994   -5.2038  -13.7329 N   0  0  0  0  0  0  0  0  0  0  0  0
   20.5813   -6.3853  -14.0933 C   0  0  0  0  0  0  0  0  0  0  0  0
   19.3411   -6.2607  -14.1665 O   0  0  0  0  0  0  0  0  0  0  0  0
   21.3718   -7.5871  -14.3315 C   0  0  0  0  0  0  0  0  0  0  0  0
   21.8878   -7.8053  -15.7077 C   0  0  2  0  0  0  0  0  0  0  0  0
   22.6674   -9.0494  -15.6572 N   0  0  0  0  0  0  0  0  0  0  0  0
   22.7706   -6.7666  -16.2459 C   0  0  0  0  0  0  0  0  0  0  0  0
   23.9838   -6.7626  -15.9614 O   0  0  0  0  0  0  0  0  0  0  0  0
   22.2824   -5.7823  -17.0705 O   0  0  0  0  0  0  0  0  0  0  0  0
  1  2  1  0
  2  3  1  0
  3  4  1  1
  5  7  1  0
  5  3  1  0
  6  5  2  0
  8  9  1  6
  8 11  1  0
  8  7  1  0
 10  9  1  0
 11 12  2  0
 13 14  1  0
 14 16  1  0
 15 14  2  0
 17 16  1  1
 17 19  1  0
 18 17  1  0
 18 11  1  0
 19 20  2  0
 19 21  1  0
M  END
$$$$
