SNI.pdb
     RDKit          3D

 23 22  0  0  1  0  0  0  0  0999 V2000
    9.2548  -13.5544   18.6418 O   0  0  0  0  0  0  0  0  0  0  0  0
    8.9752  -14.0357   19.9042 C   0  0  0  0  0  0  0  0  0  0  0  0
    7.6969  -14.8465   19.8616 C   0  0  2  0  0  0  0  0  0  0  0  0
    6.6239  -14.1714   19.1938 N   0  0  0  0  0  0  0  0  0  0  0  0
    7.2543  -15.2095   21.2321 C   0  0  0  0  0  0  0  0  0  0  0  0
    6.3657  -14.4890   21.7733 O   0  0  0  0  0  0  0  0  0  0  0  0
    6.2587  -18.3496   25.3607 N   0  0  0  0  0  0  0  0  0  0  0  0
    7.2428  -18.9526   24.4727 C   0  0  0  0  0  0  0  0  0  0  0  0
    7.6953  -20.0330   24.8793 O   0  0  0  0  0  0  0  0  0  0  0  0
    7.5450  -18.2164   23.2651 C   0  0  0  0  0  0  0  0  0  0  0  0
    7.2320  -16.7469   23.2150 C   0  0  2  0  0  0  0  0  0  0  0  0
    7.8046  -16.3132   21.8998 N   0  0  0  0  0  0  0  0  0  0  0  0
    8.0331  -15.9500   24.1901 C   0  0  0  0  0  0  0  0  0  0  0  0
    9.2758  -15.6876   23.9849 O   0  0  0  0  0  0  0  0  0  0  0  0
    5.7982  -11.7967   26.6782 C   0  0  0  0  0  0  0  0  0  0  0  0
    6.8139  -12.7094   25.9773 C   0  0  0  0  0  0  0  0  0  0  0  0
    7.5591  -13.5483   26.9617 C   0  0  2  0  0  0  0  0  0  0  0  0
    8.3490  -12.6466   27.8769 C   0  0  0  0  0  0  0  0  0  0  0  0
    8.3714  -14.5855   26.2614 C   0  0  2  0  0  0  0  0  0  0  0  0
    7.5159  -15.4205   25.3911 N   0  0  0  0  0  0  0  0  0  0  0  0
    9.0790  -15.5278   27.1594 C   0  0  0  0  0  0  0  0  0  0  0  0
    8.4937  -16.7213   27.6265 O   0  0  0  0  0  0  0  0  0  0  0  0
   10.2497  -15.3260   27.5652 O   0  0  0  0  0  0  0  0  0  0  0  0
  2  1  1  0
  3  4  1  1
  3  2  1  0
  5  3  1  0
  5  6  2  0
  7  8  1  0
  8 10  1  0
  8  9  2  0
 11 10  1  1
 11 12  1  0
 11 13  1  0
 12  5  1  0
 13 20  1  0
 13 14  2  0
 16 15  1  0
 17 16  1  0
 17 18  1  6
 19 17  1  0
 19 20  1  6
 21 22  1  0
 21 19  1  0
 23 21  2  0
M  END
$$$$
