SNI.pdb
     RDKit          3D

 23 22  0  0  1  0  0  0  0  0999 V2000
    7.7926  -12.3019   18.9317 O   0  0  0  0  0  0  0  0  0  0  0  0
    8.9937  -12.9754   19.0164 C   0  0  0  0  0  0  0  0  0  0  0  0
    8.7647  -14.4480   18.7474 C   0  0  2  0  0  0  0  0  0  0  0  0
    8.0271  -14.6924   17.5435 N   0  0  0  0  0  0  0  0  0  0  0  0
    8.0533  -15.0892   19.8826 C   0  0  0  0  0  0  0  0  0  0  0  0
    6.8277  -15.3648   19.7284 O   0  0  0  0  0  0  0  0  0  0  0  0
   10.5171  -17.1763   20.6954 N   0  0  0  0  0  0  0  0  0  0  0  0
    9.8644  -17.8071   21.8341 C   0  0  0  0  0  0  0  0  0  0  0  0
   10.6209  -18.5020   22.5287 O   0  0  0  0  0  0  0  0  0  0  0  0
    8.4521  -17.5367   21.9877 C   0  0  0  0  0  0  0  0  0  0  0  0
    8.0028  -16.1140   22.1724 C   0  0  2  0  0  0  0  0  0  0  0  0
    8.7202  -15.3776   21.0821 N   0  0  0  0  0  0  0  0  0  0  0  0
    8.5629  -15.4846   23.4045 C   0  0  0  0  0  0  0  0  0  0  0  0
    9.7564  -15.0049   23.4323 O   0  0  0  0  0  0  0  0  0  0  0  0
    5.9453  -11.8152   25.9117 C   0  0  0  0  0  0  0  0  0  0  0  0
    7.0426  -12.7270   25.3457 C   0  0  0  0  0  0  0  0  0  0  0  0
    7.5336  -13.6889   26.3762 C   0  0  2  0  0  0  0  0  0  0  0  0
    8.0969  -12.9149   27.5416 C   0  0  0  0  0  0  0  0  0  0  0  0
    8.4783  -14.6723   25.7709 C   0  0  2  0  0  0  0  0  0  0  0  0
    7.8542  -15.3556   24.6175 N   0  0  0  0  0  0  0  0  0  0  0  0
    8.9233  -15.7478   26.6875 C   0  0  0  0  0  0  0  0  0  0  0  0
   10.0649  -15.6294   27.5048 O   0  0  0  0  0  0  0  0  0  0  0  0
    8.3123  -16.8388   26.7979 O   0  0  0  0  0  0  0  0  0  0  0  0
  2  1  1  0
  3  4  1  6
  3  2  1  0
  5  3  1  0
  5  6  2  0
  7  8  1  0
  8 10  1  0
  8  9  2  0
 11 10  1  1
 11 12  1  0
 11 13  1  0
 12  5  1  0
 13 20  1  0
 13 14  2  0
 16 15  1  0
 17 16  1  0
 17 18  1  1
 19 17  1  0
 19 20  1  6
 21 22  1  0
 21 19  1  0
 23 21  2  0
M  END
$$$$
