SNI.pdb
     RDKit          3D

 23 22  0  0  1  0  0  0  0  0999 V2000
    6.0029  -17.6648   24.3560 O   0  0  0  0  0  0  0  0  0  0  0  0
    5.5973  -18.5899   23.4164 C   0  0  0  0  0  0  0  0  0  0  0  0
    6.1235  -18.1876   22.0545 C   0  0  2  0  0  0  0  0  0  0  0  0
    5.7972  -19.1286   21.0244 N   0  0  0  0  0  0  0  0  0  0  0  0
    7.5973  -18.0074   22.0884 C   0  0  0  0  0  0  0  0  0  0  0  0
    8.3172  -19.0483   22.0920 O   0  0  0  0  0  0  0  0  0  0  0  0
   12.3579  -16.6365   21.5927 N   0  0  0  0  0  0  0  0  0  0  0  0
   11.4950  -15.8002   20.7701 C   0  0  0  0  0  0  0  0  0  0  0  0
   12.0913  -15.1909   19.8697 O   0  0  0  0  0  0  0  0  0  0  0  0
   10.0909  -15.8011   21.1164 C   0  0  0  0  0  0  0  0  0  0  0  0
    9.6434  -16.5745   22.3254 C   0  0  2  0  0  0  0  0  0  0  0  0
    8.1675  -16.7264   22.1154 N   0  0  0  0  0  0  0  0  0  0  0  0
    9.7060  -15.7724   23.5826 C   0  0  0  0  0  0  0  0  0  0  0  0
   10.8222  -15.3265   24.0415 O   0  0  0  0  0  0  0  0  0  0  0  0
    6.8310  -11.4473   26.6918 C   0  0  0  0  0  0  0  0  0  0  0  0
    7.8309  -12.6109   26.7389 C   0  0  0  0  0  0  0  0  0  0  0  0
    7.6411  -13.5362   25.5831 C   0  0  2  0  0  0  0  0  0  0  0  0
    6.2476  -14.1103   25.6372 C   0  0  0  0  0  0  0  0  0  0  0  0
    8.7299  -14.5555   25.5403 C   0  0  2  0  0  0  0  0  0  0  0  0
    8.5787  -15.4332   24.3599 N   0  0  0  0  0  0  0  0  0  0  0  0
    8.7787  -15.4585   26.7138 C   0  0  0  0  0  0  0  0  0  0  0  0
    8.6590  -16.8581   26.6046 O   0  0  0  0  0  0  0  0  0  0  0  0
    8.9302  -15.0367   27.8864 O   0  0  0  0  0  0  0  0  0  0  0  0
  2  1  1  0
  3  4  1  6
  3  2  1  0
  5  3  1  0
  5  6  2  0
  7  8  1  0
  8 10  1  0
  8  9  2  0
 11 10  1  6
 11 12  1  0
 11 13  1  0
 12  5  1  0
 13 20  1  0
 13 14  2  0
 16 15  1  0
 17 16  1  0
 17 18  1  1
 19 17  1  0
 19 20  1  6
 21 22  1  0
 21 19  1  0
 23 21  2  0
M  END
$$$$
