SNI.pdb
     RDKit          3D

 23 22  0  0  1  0  0  0  0  0999 V2000
    9.5229  -13.4495   18.0874 O   0  0  0  0  0  0  0  0  0  0  0  0
    8.5746  -13.7010   19.0574 C   0  0  0  0  0  0  0  0  0  0  0  0
    8.2310  -15.1759   19.0545 C   0  0  2  0  0  0  0  0  0  0  0  0
    7.4342  -15.5661   17.9293 N   0  0  0  0  0  0  0  0  0  0  0  0
    7.5176  -15.5558   20.3006 C   0  0  0  0  0  0  0  0  0  0  0  0
    6.2523  -15.5371   20.2829 O   0  0  0  0  0  0  0  0  0  0  0  0
    6.0887  -19.2010   23.9258 N   0  0  0  0  0  0  0  0  0  0  0  0
    7.4352  -18.6516   23.8493 C   0  0  0  0  0  0  0  0  0  0  0  0
    8.1456  -18.9169   24.8304 O   0  0  0  0  0  0  0  0  0  0  0  0
    7.7442  -17.8888   22.6601 C   0  0  0  0  0  0  0  0  0  0  0  0
    7.4801  -16.4088   22.6600 C   0  0  2  0  0  0  0  0  0  0  0  0
    8.2254  -15.9219   21.4546 N   0  0  0  0  0  0  0  0  0  0  0  0
    8.1734  -15.6962   23.7732 C   0  0  0  0  0  0  0  0  0  0  0  0
    9.4501  -15.5370   23.7786 O   0  0  0  0  0  0  0  0  0  0  0  0
    5.7070  -11.6548   26.3817 C   0  0  0  0  0  0  0  0  0  0  0  0
    6.7289  -12.5573   25.6766 C   0  0  0  0  0  0  0  0  0  0  0  0
    7.4283  -13.4478   26.6492 C   0  0  2  0  0  0  0  0  0  0  0  0
    8.1608  -12.5964   27.6558 C   0  0  0  0  0  0  0  0  0  0  0  0
    8.2856  -14.4378   25.9343 C   0  0  2  0  0  0  0  0  0  0  0  0
    7.5119  -15.1415   24.8890 N   0  0  0  0  0  0  0  0  0  0  0  0
    8.8588  -15.4971   26.7971 C   0  0  0  0  0  0  0  0  0  0  0  0
   10.1534  -15.4151   27.3472 O   0  0  0  0  0  0  0  0  0  0  0  0
    8.2286  -16.5406   27.0967 O   0  0  0  0  0  0  0  0  0  0  0  0
  2  1  1  0
  3  4  1  6
  3  2  1  0
  5  3  1  0
  5  6  2  0
  7  8  1  0
  8 10  1  0
  8  9  2  0
 11 10  1  1
 11 12  1  0
 11 13  1  0
 12  5  1  0
 13 20  1  0
 13 14  2  0
 16 15  1  0
 17 16  1  0
 17 18  1  1
 19 17  1  0
 19 20  1  6
 21 22  1  0
 21 19  1  0
 23 21  2  0
M  END
$$$$
