SNI.pdb
     RDKit          3D

 23 22  0  0  1  0  0  0  0  0999 V2000
    8.3885  -19.0436   18.8212 O   0  0  0  0  0  0  0  0  0  0  0  0
    7.6451  -17.9807   18.3511 C   0  0  0  0  0  0  0  0  0  0  0  0
    7.8759  -16.7744   19.2372 C   0  0  2  0  0  0  0  0  0  0  0  0
    9.2627  -16.5213   19.4937 N   0  0  0  0  0  0  0  0  0  0  0  0
    7.1697  -16.9278   20.5347 C   0  0  0  0  0  0  0  0  0  0  0  0
    6.0343  -17.4867   20.5240 O   0  0  0  0  0  0  0  0  0  0  0  0
    5.8751  -19.5365   24.7308 N   0  0  0  0  0  0  0  0  0  0  0  0
    7.1352  -18.8378   24.5192 C   0  0  0  0  0  0  0  0  0  0  0  0
    7.8868  -18.8417   25.5055 O   0  0  0  0  0  0  0  0  0  0  0  0
    7.3247  -18.2503   23.2114 C   0  0  0  0  0  0  0  0  0  0  0  0
    7.0850  -16.7764   23.0379 C   0  0  2  0  0  0  0  0  0  0  0  0
    7.7447  -16.4677   21.7283 N   0  0  0  0  0  0  0  0  0  0  0  0
    7.8718  -15.9444   23.9954 C   0  0  0  0  0  0  0  0  0  0  0  0
    9.1447  -15.8017   23.8746 O   0  0  0  0  0  0  0  0  0  0  0  0
    5.5316  -11.6043   26.2735 C   0  0  0  0  0  0  0  0  0  0  0  0
    6.5466  -12.5304   25.5894 C   0  0  0  0  0  0  0  0  0  0  0  0
    7.3170  -13.3249   26.5911 C   0  0  2  0  0  0  0  0  0  0  0  0
    8.0895  -12.3806   27.4778 C   0  0  0  0  0  0  0  0  0  0  0  0
    8.1508  -14.3601   25.9133 C   0  0  2  0  0  0  0  0  0  0  0  0
    7.3084  -15.2521   25.0878 N   0  0  0  0  0  0  0  0  0  0  0  0
    8.9029  -15.2472   26.8312 C   0  0  0  0  0  0  0  0  0  0  0  0
   10.2017  -14.9473   27.2877 O   0  0  0  0  0  0  0  0  0  0  0  0
    8.4328  -16.3274   27.2647 O   0  0  0  0  0  0  0  0  0  0  0  0
  2  1  1  0
  3  4  1  1
  3  2  1  0
  5  3  1  0
  5  6  2  0
  7  8  1  0
  8 10  1  0
  8  9  2  0
 11 10  1  1
 11 12  1  0
 11 13  1  0
 12  5  1  0
 13 20  1  0
 13 14  2  0
 16 15  1  0
 17 16  1  0
 17 18  1  6
 19 17  1  0
 19 20  1  1
 21 22  1  0
 21 19  1  0
 23 21  2  0
M  END
$$$$
