SNI.pdb
     RDKit          3D

 23 22  0  0  1  0  0  0  0  0999 V2000
    9.6354  -13.4209   20.1430 O   0  0  0  0  0  0  0  0  0  0  0  0
    8.5618  -13.4408   19.2768 C   0  0  0  0  0  0  0  0  0  0  0  0
    7.9366  -14.8201   19.2822 C   0  0  2  0  0  0  0  0  0  0  0  0
    6.9073  -14.9755   18.2976 N   0  0  0  0  0  0  0  0  0  0  0  0
    7.3727  -15.1405   20.6183 C   0  0  0  0  0  0  0  0  0  0  0  0
    6.2190  -14.6976   20.8914 O   0  0  0  0  0  0  0  0  0  0  0  0
    5.6974  -18.1771   24.1020 N   0  0  0  0  0  0  0  0  0  0  0  0
    6.8862  -18.7665   23.5019 C   0  0  0  0  0  0  0  0  0  0  0  0
    6.9642  -19.9965   23.6387 O   0  0  0  0  0  0  0  0  0  0  0  0
    7.7889  -17.8477   22.8443 C   0  0  0  0  0  0  0  0  0  0  0  0
    7.4281  -16.3892   22.7940 C   0  0  2  0  0  0  0  0  0  0  0  0
    8.0968  -15.9076   21.5424 N   0  0  0  0  0  0  0  0  0  0  0  0
    8.1119  -15.5862   23.8502 C   0  0  0  0  0  0  0  0  0  0  0  0
    9.3894  -15.4347   23.8591 O   0  0  0  0  0  0  0  0  0  0  0  0
    5.6485  -11.4476   26.4082 C   0  0  0  0  0  0  0  0  0  0  0  0
    6.7215  -12.3027   25.7203 C   0  0  0  0  0  0  0  0  0  0  0  0
    7.3536  -13.2553   26.6802 C   0  0  2  0  0  0  0  0  0  0  0  0
    8.0669  -12.4708   27.7528 C   0  0  0  0  0  0  0  0  0  0  0  0
    8.2118  -14.2389   25.9577 C   0  0  2  0  0  0  0  0  0  0  0  0
    7.4398  -14.9324   24.9043 N   0  0  0  0  0  0  0  0  0  0  0  0
    8.7828  -15.3066   26.8116 C   0  0  0  0  0  0  0  0  0  0  0  0
    8.0852  -16.4912   27.1202 O   0  0  0  0  0  0  0  0  0  0  0  0
    9.9286  -15.2275   27.3185 O   0  0  0  0  0  0  0  0  0  0  0  0
  2  1  1  0
  3  4  1  6
  3  2  1  0
  5  3  1  0
  5  6  2  0
  7  8  1  0
  8 10  1  0
  8  9  2  0
 11 10  1  1
 11 12  1  0
 11 13  1  0
 12  5  1  0
 13 20  1  0
 13 14  2  0
 16 15  1  0
 17 16  1  0
 17 18  1  1
 19 17  1  0
 19 20  1  6
 21 22  1  0
 21 19  1  0
 23 21  2  0
M  END
$$$$
