SNI.pdb
     RDKit          3D

 23 22  0  0  1  0  0  0  0  0999 V2000
    8.4453  -11.9368   20.1919 O   0  0  0  0  0  0  0  0  0  0  0  0
    9.3109  -12.8507   19.6271 C   0  0  0  0  0  0  0  0  0  0  0  0
    8.5496  -14.1100   19.2692 C   0  0  2  0  0  0  0  0  0  0  0  0
    7.3792  -13.8560   18.4825 N   0  0  0  0  0  0  0  0  0  0  0  0
    8.1519  -14.8537   20.4918 C   0  0  0  0  0  0  0  0  0  0  0  0
    6.9283  -14.8429   20.8148 O   0  0  0  0  0  0  0  0  0  0  0  0
    7.9337  -19.3781   21.5573 N   0  0  0  0  0  0  0  0  0  0  0  0
    9.1685  -18.6533   21.2919 C   0  0  0  0  0  0  0  0  0  0  0  0
    9.7536  -19.0130   20.2595 O   0  0  0  0  0  0  0  0  0  0  0  0
    9.5281  -17.6358   22.2547 C   0  0  0  0  0  0  0  0  0  0  0  0
    8.6521  -16.4211   22.3862 C   0  0  2  0  0  0  0  0  0  0  0  0
    9.1026  -15.5428   21.2588 N   0  0  0  0  0  0  0  0  0  0  0  0
    8.9819  -15.5956   23.5852 C   0  0  0  0  0  0  0  0  0  0  0  0
   10.1879  -15.2236   23.8351 O   0  0  0  0  0  0  0  0  0  0  0  0
    5.4955  -12.0187   25.8087 C   0  0  0  0  0  0  0  0  0  0  0  0
    6.7044  -12.7854   25.2548 C   0  0  0  0  0  0  0  0  0  0  0  0
    7.3406  -13.6295   26.3088 C   0  0  2  0  0  0  0  0  0  0  0  0
    7.7231  -12.7532   27.4752 C   0  0  0  0  0  0  0  0  0  0  0  0
    8.4652  -14.4263   25.7374 C   0  0  2  0  0  0  0  0  0  0  0  0
    8.0285  -15.1541   24.5266 N   0  0  0  0  0  0  0  0  0  0  0  0
    9.0221  -15.4528   26.6492 C   0  0  0  0  0  0  0  0  0  0  0  0
   10.0924  -15.1925   27.5278 O   0  0  0  0  0  0  0  0  0  0  0  0
    8.5771  -16.6255   26.7004 O   0  0  0  0  0  0  0  0  0  0  0  0
  2  1  1  0
  3  4  1  1
  3  2  1  0
  5  3  1  0
  5  6  2  0
  7  8  1  0
  8 10  1  0
  8  9  2  0
 11 10  1  1
 11 12  1  0
 11 13  1  0
 12  5  1  0
 13 20  1  0
 13 14  2  0
 16 15  1  0
 17 16  1  0
 17 18  1  1
 19 17  1  0
 19 20  1  6
 21 22  1  0
 21 19  1  0
 23 21  2  0
M  END
$$$$
