SNI.pdb
     RDKit          3D

 23 22  0  0  1  0  0  0  0  0999 V2000
    7.1806  -12.7793   19.1311 O   0  0  0  0  0  0  0  0  0  0  0  0
    8.5314  -13.0590   19.1048 C   0  0  0  0  0  0  0  0  0  0  0  0
    8.7340  -14.5373   18.8460 C   0  0  2  0  0  0  0  0  0  0  0  0
    7.9408  -15.0327   17.7604 N   0  0  0  0  0  0  0  0  0  0  0  0
    8.4312  -15.3342   20.0622 C   0  0  0  0  0  0  0  0  0  0  0  0
    7.3003  -15.8984   20.1291 O   0  0  0  0  0  0  0  0  0  0  0  0
    9.8533  -19.3511   20.8743 N   0  0  0  0  0  0  0  0  0  0  0  0
    9.7818  -18.7419   22.1950 C   0  0  0  0  0  0  0  0  0  0  0  0
    9.4116  -19.5168   23.0894 O   0  0  0  0  0  0  0  0  0  0  0  0
   10.1468  -17.3446   22.2715 C   0  0  0  0  0  0  0  0  0  0  0  0
    9.0555  -16.3107   22.2876 C   0  0  2  0  0  0  0  0  0  0  0  0
    9.3687  -15.4547   21.0982 N   0  0  0  0  0  0  0  0  0  0  0  0
    9.1877  -15.3459   23.4188 C   0  0  0  0  0  0  0  0  0  0  0  0
   10.1444  -14.4869   23.4623 O   0  0  0  0  0  0  0  0  0  0  0  0
    6.3574  -11.2372   26.5797 C   0  0  0  0  0  0  0  0  0  0  0  0
    7.4831  -12.2792   26.6324 C   0  0  0  0  0  0  0  0  0  0  0  0
    7.3005  -13.3283   25.5863 C   0  0  2  0  0  0  0  0  0  0  0  0
    5.9744  -14.0130   25.8035 C   0  0  0  0  0  0  0  0  0  0  0  0
    8.4746  -14.2484   25.5527 C   0  0  2  0  0  0  0  0  0  0  0  0
    8.2982  -15.2840   24.5119 N   0  0  0  0  0  0  0  0  0  0  0  0
    8.7231  -14.9811   26.8162 C   0  0  0  0  0  0  0  0  0  0  0  0
    8.7025  -16.3875   26.8989 O   0  0  0  0  0  0  0  0  0  0  0  0
    8.9691  -14.3972   27.8999 O   0  0  0  0  0  0  0  0  0  0  0  0
  2  1  1  0
  3  4  1  6
  3  2  1  0
  5  3  1  0
  5  6  2  0
  7  8  1  0
  8 10  1  0
  8  9  2  0
 11 10  1  1
 11 12  1  0
 11 13  1  0
 12  5  1  0
 13 20  1  0
 13 14  2  0
 16 15  1  0
 17 16  1  0
 17 18  1  1
 19 17  1  0
 19 20  1  6
 21 22  1  0
 21 19  1  0
 23 21  2  0
M  END
$$$$
