SNI.pdb
     RDKit          3D

 23 22  0  0  1  0  0  0  0  0999 V2000
    6.4253  -15.1283   19.9581 O   0  0  0  0  0  0  0  0  0  0  0  0
    7.7050  -14.6573   19.7483 C   0  0  0  0  0  0  0  0  0  0  0  0
    8.6772  -15.8183   19.7635 C   0  0  2  0  0  0  0  0  0  0  0  0
    8.4671  -16.7427   18.6891 N   0  0  0  0  0  0  0  0  0  0  0  0
    8.6012  -16.5556   21.0506 C   0  0  0  0  0  0  0  0  0  0  0  0
    8.0882  -17.7124   21.0362 O   0  0  0  0  0  0  0  0  0  0  0  0
    9.7975  -18.6785   25.4787 N   0  0  0  0  0  0  0  0  0  0  0  0
   10.5292  -18.7931   24.2248 C   0  0  0  0  0  0  0  0  0  0  0  0
   11.3547  -19.7181   24.2043 O   0  0  0  0  0  0  0  0  0  0  0  0
   10.1930  -17.8277   23.2018 C   0  0  0  0  0  0  0  0  0  0  0  0
    9.1276  -16.8072   23.4909 C   0  0  2  0  0  0  0  0  0  0  0  0
    9.0824  -15.9860   22.2383 N   0  0  0  0  0  0  0  0  0  0  0  0
    9.5472  -15.8051   24.5145 C   0  0  0  0  0  0  0  0  0  0  0  0
   10.6332  -15.1273   24.3870 O   0  0  0  0  0  0  0  0  0  0  0  0
    6.5086  -11.9749   25.9578 C   0  0  0  0  0  0  0  0  0  0  0  0
    7.6973  -12.9033   25.6737 C   0  0  0  0  0  0  0  0  0  0  0  0
    8.2385  -13.4927   26.9338 C   0  0  2  0  0  0  0  0  0  0  0  0
    8.6691  -12.3768   27.8525 C   0  0  0  0  0  0  0  0  0  0  0  0
    9.3038  -14.4929   26.6323 C   0  0  2  0  0  0  0  0  0  0  0  0
    8.8104  -15.5121   25.6813 N   0  0  0  0  0  0  0  0  0  0  0  0
    9.7996  -15.2429   27.8098 C   0  0  0  0  0  0  0  0  0  0  0  0
   10.8342  -14.7648   28.6383 O   0  0  0  0  0  0  0  0  0  0  0  0
    9.3305  -16.3567   28.1493 O   0  0  0  0  0  0  0  0  0  0  0  0
  2  1  1  0
  3  4  1  6
  3  2  1  0
  5  3  1  0
  5  6  2  0
  7  8  1  0
  8 10  1  0
  8  9  2  0
 11 10  1  6
 11 12  1  0
 11 13  1  0
 12  5  1  0
 13 20  1  0
 13 14  2  0
 16 15  1  0
 17 16  1  0
 17 18  1  1
 19 17  1  0
 19 20  1  6
 21 22  1  0
 21 19  1  0
 23 21  2  0
M  END
$$$$
