RKV.pdb
     RDKit          3D

 28 27  0  0  1  0  0  0  0  0999 V2000
    7.4185  -14.9143   13.8902 N   0  0  0  0  0  0  0  0  0  0  0  0
    8.0810  -14.1474   14.8714 C   0  0  0  0  0  0  0  0  0  0  0  0
    8.5321  -12.9508   14.6353 N   0  0  0  0  0  0  0  0  0  0  0  0
    8.3030  -14.6442   16.2046 N   0  0  0  0  0  0  0  0  0  0  0  0
    7.8447  -15.8847   16.6997 C   0  0  0  0  0  0  0  0  0  0  0  0
    7.7520  -16.0982   18.1586 C   0  0  0  0  0  0  0  0  0  0  0  0
    7.3366  -14.9081   18.9495 C   0  0  0  0  0  0  0  0  0  0  0  0
    8.3558  -14.5405   19.9811 C   0  0  2  0  0  0  0  0  0  0  0  0
    9.5180  -15.4027   19.7539 N   0  0  0  0  0  0  0  0  0  0  0  0
    7.7389  -14.9329   21.3144 C   0  0  0  0  0  0  0  0  0  0  0  0
    6.6773  -14.4063   21.7228 O   0  0  0  0  0  0  0  0  0  0  0  0
    9.1016  -12.4991   15.3902 N   0  0  0  0  0  0  0  0  0  0  0  0
    8.3618  -15.9113   22.1229 C   0  0  1  0  0  0  0  0  0  0  0  0
    7.8045  -16.1819   23.4679 C   0  0  0  0  0  0  0  0  0  0  0  0
    8.1946  -17.5875   23.8671 C   0  0  0  0  0  0  0  0  0  0  0  0
    7.7363  -17.9226   25.2341 C   0  0  0  0  0  0  0  0  0  0  0  0
    8.0838  -19.3456   25.6382 C   0  0  0  0  0  0  0  0  0  0  0  0
    7.6188  -19.6616   27.0327 N   0  0  0  0  0  0  0  0  0  0  0  0
    7.8767  -21.0691   27.2777 C   0  0  0  0  0  0  0  0  0  0  0  0
    8.3564  -15.1290   24.3343 O   0  0  0  0  0  0  0  0  0  0  0  0
    9.5677  -14.8308   24.3042 C   0  0  0  0  0  0  0  0  0  0  0  0
    6.9612  -11.4761   25.1074 C   0  0  2  0  0  0  0  0  0  0  0  0
    7.3154  -12.2013   26.3857 C   0  0  0  0  0  0  0  0  0  0  0  0
    6.0068  -12.6615   26.9966 C   0  0  2  0  0  0  0  0  0  0  0  0
    8.1385  -13.4011   26.1058 N   0  0  0  0  0  0  0  0  0  0  0  0
    7.5657  -14.3869   25.2530 C   0  0  0  0  0  0  0  0  0  0  0  0
    8.4653  -14.0678   27.4016 O   0  0  0  0  0  0  0  0  0  0  0  0
    9.2331  -13.4743   28.3923 O   0  0  0  0  0  0  0  0  0  0  0  0
  2  1  1  0
  3  2  2  0
  4  2  1  0
  5  4  1  0
  6  7  1  0
  6  5  1  0
  7  8  1  0
  8  9  1  6
 10  8  1  0
 10 11  2  0
 12 10  1  0
 13 12  1  0
 13 14  1  6
 15 14  1  0
 16 15  1  0
 17 16  1  0
 18 17  1  0
 19 13  1  0
 20 19  2  0
 22 23  1  6
 22 21  1  0
 24 22  1  0
 24 25  1  1
 25 19  1  0
 26 27  1  0
 26 24  1  0
 28 26  2  0
M  END
$$$$
