RKV.pdb
     RDKit          3D

 28 27  0  0  1  0  0  0  0  0999 V2000
    9.5424  -14.6901   15.9703 N   0  0  0  0  0  0  0  0  0  0  0  0
    8.4693  -13.8698   16.3768 C   0  0  0  0  0  0  0  0  0  0  0  0
    7.3532  -13.8001   15.7130 N   0  0  0  0  0  0  0  0  0  0  0  0
    8.5424  -13.0506   17.5589 N   0  0  0  0  0  0  0  0  0  0  0  0
    8.6019  -13.5344   18.8842 C   0  0  0  0  0  0  0  0  0  0  0  0
    7.3948  -14.1215   19.5011 C   0  0  0  0  0  0  0  0  0  0  0  0
    7.5488  -14.5460   20.9191 C   0  0  0  0  0  0  0  0  0  0  0  0
    8.1645  -15.9048   21.0309 C   0  0  2  0  0  0  0  0  0  0  0  0
    7.1896  -16.8568   20.4935 N   0  0  0  0  0  0  0  0  0  0  0  0
    8.2960  -16.1658   22.5232 C   0  0  0  0  0  0  0  0  0  0  0  0
    7.2878  -16.2448   23.2635 O   0  0  0  0  0  0  0  0  0  0  0  0
    6.6099  -13.1686   16.0964 N   0  0  0  0  0  0  0  0  0  0  0  0
    9.5749  -16.3265   23.1044 C   0  0  1  0  0  0  0  0  0  0  0  0
    9.6647  -16.6409   24.5487 C   0  0  0  0  0  0  0  0  0  0  0  0
   10.9141  -17.4620   24.7768 C   0  0  0  0  0  0  0  0  0  0  0  0
   10.7904  -18.8266   24.2165 C   0  0  0  0  0  0  0  0  0  0  0  0
   12.0213  -19.6803   24.4710 C   0  0  0  0  0  0  0  0  0  0  0  0
   11.8907  -21.0480   23.8604 N   0  0  0  0  0  0  0  0  0  0  0  0
   11.8516  -20.8878   22.4180 C   0  0  0  0  0  0  0  0  0  0  0  0
    9.6623  -15.3368   25.2293 O   0  0  0  0  0  0  0  0  0  0  0  0
   10.4493  -14.4277   24.8957 C   0  0  0  0  0  0  0  0  0  0  0  0
    7.4552  -12.5313   25.4486 C   0  0  2  0  0  0  0  0  0  0  0  0
    7.7434  -12.8555   26.8968 C   0  0  0  0  0  0  0  0  0  0  0  0
    6.5071  -13.5457   27.4379 C   0  0  2  0  0  0  0  0  0  0  0  0
    8.8827  -13.7955   27.0147 N   0  0  0  0  0  0  0  0  0  0  0  0
    8.7797  -15.0210   26.2976 C   0  0  0  0  0  0  0  0  0  0  0  0
    9.0717  -14.1367   28.4563 O   0  0  0  0  0  0  0  0  0  0  0  0
    9.3880  -13.1982   29.4272 O   0  0  0  0  0  0  0  0  0  0  0  0
  2  1  1  0
  3  2  2  0
  4  2  1  0
  5  4  1  0
  6  7  1  0
  6  5  1  0
  7  8  1  0
  8  9  1  1
 10  8  1  0
 10 11  2  0
 12 10  1  0
 13 12  1  0
 13 14  1  1
 15 14  1  0
 16 15  1  0
 17 16  1  0
 18 17  1  0
 19 13  1  0
 20 19  2  0
 22 23  1  6
 22 21  1  0
 24 22  1  0
 24 25  1  1
 25 19  1  0
 26 27  1  0
 26 24  1  0
 28 26  2  0
M  END
$$$$
