RKV.pdb
     RDKit          3D

 28 27  0  0  1  0  0  0  0  0999 V2000
    9.4814  -14.3427   17.7557 N   0  0  0  0  0  0  0  0  0  0  0  0
    9.0999  -13.0844   18.2662 C   0  0  0  0  0  0  0  0  0  0  0  0
    9.9637  -12.1535   18.5465 N   0  0  0  0  0  0  0  0  0  0  0  0
    7.7215  -12.7488   18.5128 N   0  0  0  0  0  0  0  0  0  0  0  0
    6.8467  -13.4640   19.3597 C   0  0  0  0  0  0  0  0  0  0  0  0
    7.2134  -14.8237   19.8061 C   0  0  0  0  0  0  0  0  0  0  0  0
    6.1755  -15.5317   20.6037 C   0  0  0  0  0  0  0  0  0  0  0  0
    6.6339  -16.8885   21.0363 C   0  0  2  0  0  0  0  0  0  0  0  0
    5.6836  -17.8539   20.4791 N   0  0  0  0  0  0  0  0  0  0  0  0
    6.4787  -16.9027   22.5489 C   0  0  0  0  0  0  0  0  0  0  0  0
    5.3900  -16.6093   23.0963 O   0  0  0  0  0  0  0  0  0  0  0  0
    9.5839  -11.2409   18.8946 N   0  0  0  0  0  0  0  0  0  0  0  0
    7.5748  -17.2529   23.3704 C   0  0  2  0  0  0  0  0  0  0  0  0
    7.4009  -17.2178   24.8406 C   0  0  0  0  0  0  0  0  0  0  0  0
    7.9119  -18.5232   25.4082 C   0  0  0  0  0  0  0  0  0  0  0  0
    7.8568  -18.5437   26.8873 C   0  0  0  0  0  0  0  0  0  0  0  0
    8.4510  -19.8103   27.4801 C   0  0  0  0  0  0  0  0  0  0  0  0
    8.4367  -19.7857   28.9834 N   0  0  0  0  0  0  0  0  0  0  0  0
    9.0934  -20.9923   29.4528 C   0  0  0  0  0  0  0  0  0  0  0  0
    8.1417  -16.0289   25.2896 O   0  0  0  0  0  0  0  0  0  0  0  0
    9.2764  -15.7630   24.8435 C   0  0  0  0  0  0  0  0  0  0  0  0
    7.2629  -12.2023   25.4257 C   0  0  2  0  0  0  0  0  0  0  0  0
    7.6788  -12.6985   26.7918 C   0  0  0  0  0  0  0  0  0  0  0  0
    6.4012  -12.9234   27.5757 C   0  0  2  0  0  0  0  0  0  0  0  0
    8.3908  -13.9942   26.6928 N   0  0  0  0  0  0  0  0  0  0  0  0
    7.6296  -15.1116   26.2468 C   0  0  0  0  0  0  0  0  0  0  0  0
    8.9429  -14.3384   28.0370 O   0  0  0  0  0  0  0  0  0  0  0  0
    9.8428  -13.5346   28.7206 O   0  0  0  0  0  0  0  0  0  0  0  0
  2  1  1  0
  3  2  2  0
  4  2  1  0
  5  4  1  0
  6  7  1  0
  6  5  1  0
  7  8  1  0
  8  9  1  6
 10  8  1  0
 10 11  2  0
 12 10  1  0
 13 12  1  0
 13 14  1  6
 15 14  1  0
 16 15  1  0
 17 16  1  0
 18 17  1  0
 19 13  1  0
 20 19  2  0
 22 23  1  6
 22 21  1  0
 24 22  1  0
 24 25  1  1
 25 19  1  0
 26 27  1  0
 26 24  1  0
 28 26  2  0
M  END
$$$$
