RKV.pdb
     RDKit          3D

 28 27  0  0  1  0  0  0  0  0999 V2000
    7.2448  -13.0862   15.5549 N   0  0  0  0  0  0  0  0  0  0  0  0
    7.8155  -14.3754   15.5099 C   0  0  0  0  0  0  0  0  0  0  0  0
    7.7182  -15.1460   14.4669 N   0  0  0  0  0  0  0  0  0  0  0  0
    8.5451  -14.9245   16.6232 N   0  0  0  0  0  0  0  0  0  0  0  0
    8.5598  -14.3924   17.9311 C   0  0  0  0  0  0  0  0  0  0  0  0
    7.2968  -13.9368   18.5473 C   0  0  0  0  0  0  0  0  0  0  0  0
    6.9310  -14.6142   19.8208 C   0  0  0  0  0  0  0  0  0  0  0  0
    8.1393  -15.0432   20.5915 C   0  0  2  0  0  0  0  0  0  0  0  0
    8.5378  -16.3492   20.0613 N   0  0  0  0  0  0  0  0  0  0  0  0
    7.6551  -15.2482   22.0183 C   0  0  0  0  0  0  0  0  0  0  0  0
    6.9479  -14.3907   22.5974 O   0  0  0  0  0  0  0  0  0  0  0  0
    8.2774  -16.0323   14.4759 N   0  0  0  0  0  0  0  0  0  0  0  0
    7.9995  -16.4257   22.7211 C   0  0  1  0  0  0  0  0  0  0  0  0
    7.5259  -16.5856   24.1151 C   0  0  0  0  0  0  0  0  0  0  0  0
    7.7818  -18.0143   24.5401 C   0  0  0  0  0  0  0  0  0  0  0  0
    7.4938  -18.2250   25.9768 C   0  0  0  0  0  0  0  0  0  0  0  0
    7.6708  -19.6720   26.4056 C   0  0  0  0  0  0  0  0  0  0  0  0
    7.3448  -19.8692   27.8601 N   0  0  0  0  0  0  0  0  0  0  0  0
    7.5469  -21.2723   28.1733 C   0  0  0  0  0  0  0  0  0  0  0  0
    8.2649  -15.5790   24.8926 O   0  0  0  0  0  0  0  0  0  0  0  0
    9.5038  -15.4640   24.7965 C   0  0  0  0  0  0  0  0  0  0  0  0
    7.1851  -11.7634   25.6046 C   0  0  2  0  0  0  0  0  0  0  0  0
    7.6879  -12.4452   26.8567 C   0  0  0  0  0  0  0  0  0  0  0  0
    6.4643  -12.7773   27.6873 C   0  0  2  0  0  0  0  0  0  0  0  0
    8.3793  -13.7143   26.5299 N   0  0  0  0  0  0  0  0  0  0  0  0
    7.6346  -14.6792   25.7942 C   0  0  0  0  0  0  0  0  0  0  0  0
    8.8133  -14.3622   27.8036 O   0  0  0  0  0  0  0  0  0  0  0  0
    9.7037  -13.7778   28.6918 O   0  0  0  0  0  0  0  0  0  0  0  0
  2  1  1  0
  3  2  2  0
  4  2  1  0
  5  4  1  0
  6  7  1  0
  6  5  1  0
  7  8  1  0
  8  9  1  6
 10  8  1  0
 10 11  2  0
 12 10  1  0
 13 12  1  0
 13 14  1  6
 15 14  1  0
 16 15  1  0
 17 16  1  0
 18 17  1  0
 19 13  1  0
 20 19  2  0
 22 23  1  6
 22 21  1  0
 24 22  1  0
 24 25  1  1
 25 19  1  0
 26 27  1  0
 26 24  1  0
 28 26  2  0
M  END
$$$$
