RKV.pdb
     RDKit          3D

 28 27  0  0  1  0  0  0  0  0999 V2000
   11.0910  -13.3198   20.2139 N   0  0  0  0  0  0  0  0  0  0  0  0
   10.7183  -13.9321   18.9990 C   0  0  0  0  0  0  0  0  0  0  0  0
   11.5674  -14.5719   18.2502 N   0  0  0  0  0  0  0  0  0  0  0  0
    9.3659  -13.8858   18.5064 N   0  0  0  0  0  0  0  0  0  0  0  0
    8.3128  -13.1424   19.0828 C   0  0  0  0  0  0  0  0  0  0  0  0
    7.7120  -13.5943   20.3545 C   0  0  0  0  0  0  0  0  0  0  0  0
    6.5704  -14.5391   20.2172 C   0  0  0  0  0  0  0  0  0  0  0  0
    6.9793  -15.9517   20.4918 C   0  0  2  0  0  0  0  0  0  0  0  0
    6.0417  -16.8123   19.7667 N   0  0  0  0  0  0  0  0  0  0  0  0
    6.7441  -16.1570   21.9800 C   0  0  0  0  0  0  0  0  0  0  0  0
    5.6094  -16.0016   22.4891 O   0  0  0  0  0  0  0  0  0  0  0  0
   11.2086  -14.9533   17.3425 N   0  0  0  0  0  0  0  0  0  0  0  0
    7.8163  -16.5324   22.8216 C   0  0  2  0  0  0  0  0  0  0  0  0
    7.5515  -16.7288   24.2653 C   0  0  0  0  0  0  0  0  0  0  0  0
    8.1752  -18.0408   24.6859 C   0  0  0  0  0  0  0  0  0  0  0  0
    8.0278  -18.2839   26.1386 C   0  0  0  0  0  0  0  0  0  0  0  0
    8.6265  -19.6101   26.5764 C   0  0  0  0  0  0  0  0  0  0  0  0
    8.4595  -19.8402   28.0528 N   0  0  0  0  0  0  0  0  0  0  0  0
    8.9074  -21.1900   28.3445 C   0  0  0  0  0  0  0  0  0  0  0  0
    8.1213  -15.5454   24.9277 O   0  0  0  0  0  0  0  0  0  0  0  0
    9.2121  -15.0596   24.5655 C   0  0  0  0  0  0  0  0  0  0  0  0
    6.3147  -12.1113   25.8019 C   0  0  2  0  0  0  0  0  0  0  0  0
    7.0702  -12.6485   26.9960 C   0  0  0  0  0  0  0  0  0  0  0  0
    6.0392  -13.2828   27.9082 C   0  0  2  0  0  0  0  0  0  0  0  0
    8.0313  -13.6999   26.5881 N   0  0  0  0  0  0  0  0  0  0  0  0
    7.4835  -14.8796   26.0093 C   0  0  0  0  0  0  0  0  0  0  0  0
    8.8198  -14.1155   27.7864 O   0  0  0  0  0  0  0  0  0  0  0  0
    9.6210  -13.2461   28.5113 O   0  0  0  0  0  0  0  0  0  0  0  0
  2  1  1  0
  3  2  2  0
  4  2  1  0
  5  4  1  0
  6  7  1  0
  6  5  1  0
  7  8  1  0
  8  9  1  6
 10  8  1  0
 10 11  2  0
 12 10  1  0
 13 12  1  0
 13 14  1  6
 15 14  1  0
 16 15  1  0
 17 16  1  0
 18 17  1  0
 19 13  1  0
 20 19  2  0
 22 23  1  6
 22 21  1  0
 24 22  1  0
 24 25  1  1
 25 19  1  0
 26 27  1  0
 26 24  1  0
 28 26  2  0
M  END
$$$$
