RKV.pdb
     RDKit          3D

 28 27  0  0  1  0  0  0  0  0999 V2000
    7.4629  -13.8456   15.7223 N   0  0  0  0  0  0  0  0  0  0  0  0
    8.7588  -14.3601   15.9359 C   0  0  0  0  0  0  0  0  0  0  0  0
    9.3979  -15.0406   15.0305 N   0  0  0  0  0  0  0  0  0  0  0  0
    9.4602  -14.1653   17.1783 N   0  0  0  0  0  0  0  0  0  0  0  0
    8.9413  -14.4469   18.4610 C   0  0  0  0  0  0  0  0  0  0  0  0
    7.4996  -14.2573   18.7222 C   0  0  0  0  0  0  0  0  0  0  0  0
    7.0625  -14.5501   20.1142 C   0  0  0  0  0  0  0  0  0  0  0  0
    7.2311  -15.9960   20.4593 C   0  0  2  0  0  0  0  0  0  0  0  0
    6.2310  -16.7352   19.6854 N   0  0  0  0  0  0  0  0  0  0  0  0
    6.8565  -16.1056   21.9290 C   0  0  0  0  0  0  0  0  0  0  0  0
    5.7358  -15.7310   22.3468 O   0  0  0  0  0  0  0  0  0  0  0  0
   10.3329  -15.4300   15.2994 N   0  0  0  0  0  0  0  0  0  0  0  0
    7.7793  -16.6400   22.8574 C   0  0  2  0  0  0  0  0  0  0  0  0
    7.3875  -16.7199   24.2832 C   0  0  0  0  0  0  0  0  0  0  0  0
    7.9151  -18.0207   24.8461 C   0  0  0  0  0  0  0  0  0  0  0  0
    7.0356  -19.1646   24.5158 C   0  0  0  0  0  0  0  0  0  0  0  0
    7.5050  -20.4669   25.1423 C   0  0  0  0  0  0  0  0  0  0  0  0
    6.5682  -21.6036   24.8405 N   0  0  0  0  0  0  0  0  0  0  0  0
    7.1267  -22.8069   25.4302 C   0  0  0  0  0  0  0  0  0  0  0  0
    7.9528  -15.5140   24.9079 O   0  0  0  0  0  0  0  0  0  0  0  0
    9.1287  -15.1585   24.6888 C   0  0  0  0  0  0  0  0  0  0  0  0
    5.7148  -12.8057   27.4957 C   0  0  2  0  0  0  0  0  0  0  0  0
    6.9165  -12.3892   26.6785 C   0  0  0  0  0  0  0  0  0  0  0  0
    7.6833  -11.3882   27.5195 C   0  0  1  0  0  0  0  0  0  0  0  0
    7.8063  -13.5443   26.4146 N   0  0  0  0  0  0  0  0  0  0  0  0
    7.2152  -14.6795   25.7909 C   0  0  0  0  0  0  0  0  0  0  0  0
    8.3910  -14.0013   27.7106 O   0  0  0  0  0  0  0  0  0  0  0  0
    8.1937  -15.2717   28.2306 O   0  0  0  0  0  0  0  0  0  0  0  0
  2  1  1  0
  3  2  2  0
  4  2  1  0
  5  4  1  0
  6  7  1  0
  6  5  1  0
  7  8  1  0
  8  9  1  6
 10  8  1  0
 10 11  2  0
 12 10  1  0
 13 12  1  0
 13 14  1  6
 15 14  1  0
 16 15  1  0
 17 16  1  0
 18 17  1  0
 19 13  1  0
 20 19  2  0
 22 23  1  1
 22 21  1  0
 24 22  1  0
 24 25  1  6
 25 19  1  0
 26 27  1  0
 26 24  1  0
 28 26  2  0
M  END
$$$$
