TSD.pdb
     RDKit          3D

 22 21  0  0  1  0  0  0  0  0999 V2000
   13.1444  -10.8749  -10.5694 C   0  0  0  0  0  0  0  0  0  0  0  0
   13.8981   -9.6425  -10.9764 C   0  0  1  0  0  0  0  0  0  0  0  0
   13.4385   -8.5505  -10.2091 O   0  0  0  0  0  0  0  0  0  0  0  0
   15.3842   -9.7183  -10.7038 C   0  0  2  0  0  0  0  0  0  0  0  0
   15.4872   -9.7425   -9.2286 N   0  0  0  0  0  0  0  0  0  0  0  0
   16.1132   -8.5065  -11.1393 C   0  0  0  0  0  0  0  0  0  0  0  0
   16.3094   -8.2517  -12.3857 O   0  0  0  0  0  0  0  0  0  0  0  0
   17.8787   -5.8776   -8.4633 O   0  0  0  0  0  0  0  0  0  0  0  0
   17.3809   -5.3454   -9.6297 C   0  0  0  0  0  0  0  0  0  0  0  0
   17.3746   -6.3549  -10.7581 C   0  0  2  0  0  0  0  0  0  0  0  0
   16.6584   -7.5208  -10.2763 N   0  0  0  0  0  0  0  0  0  0  0  0
   18.7563   -6.6981  -11.1930 C   0  0  0  0  0  0  0  0  0  0  0  0
   19.5014   -7.4346  -10.4881 O   0  0  0  0  0  0  0  0  0  0  0  0
   19.2676   -6.2033  -12.4155 N   0  0  0  0  0  0  0  0  0  0  0  0
   20.6205   -6.3783  -12.8943 C   0  0  1  0  0  0  0  0  0  0  0  0
   20.6656   -6.9871  -14.2603 C   0  0  0  0  0  0  0  0  0  0  0  0
   19.9574   -8.2759  -14.2998 C   0  0  0  0  0  0  0  0  0  0  0  0
   20.3362   -9.2166  -13.5513 O   0  0  0  0  0  0  0  0  0  0  0  0
   21.3822   -5.0854  -12.8387 C   0  0  0  0  0  0  0  0  0  0  0  0
   20.7392   -4.0264  -12.6311 O   0  0  0  0  0  0  0  0  0  0  0  0
   18.8683   -8.5211  -15.1323 O   0  0  0  0  0  0  0  0  0  0  0  0
   22.7556   -5.0159  -13.0076 O   0  0  0  0  0  0  0  0  0  0  0  0
  2  1  1  1
  2  4  1  0
  3  2  1  0
  4  5  1  1
  6 11  1  0
  6  4  1  0
  7  6  2  0
  9  8  1  0
 10  9  1  1
 10 11  1  0
 10 12  1  0
 12 13  2  0
 14 12  1  0
 14 15  1  0
 15 16  1  6
 17 16  1  0
 18 17  2  0
 19 15  1  0
 19 22  1  0
 20 19  2  0
 21 17  1  0
M  END
$$$$
