TSD.pdb
     RDKit          3D

 22 21  0  0  1  0  0  0  0  0999 V2000
   17.1915  -11.3932  -19.4400 C   0  0  0  0  0  0  0  0  0  0  0  0
   17.7629  -10.4940  -18.3830 C   0  0  1  0  0  0  0  0  0  0  0  0
   16.7186   -9.7319  -17.8167 O   0  0  0  0  0  0  0  0  0  0  0  0
   18.3841  -11.2368  -17.2207 C   0  0  2  0  0  0  0  0  0  0  0  0
   17.2506  -11.9469  -16.5895 N   0  0  0  0  0  0  0  0  0  0  0  0
   18.9236  -10.3332  -16.1805 C   0  0  0  0  0  0  0  0  0  0  0  0
   18.1464   -9.6577  -15.4081 O   0  0  0  0  0  0  0  0  0  0  0  0
   22.9877  -10.0331  -15.3107 O   0  0  0  0  0  0  0  0  0  0  0  0
   22.0496   -9.8229  -14.3270 C   0  0  0  0  0  0  0  0  0  0  0  0
   20.7746   -9.2194  -14.8770 C   0  0  2  0  0  0  0  0  0  0  0  0
   20.3004  -10.1123  -15.9172 N   0  0  0  0  0  0  0  0  0  0  0  0
   20.9997   -7.8418  -15.3941 C   0  0  0  0  0  0  0  0  0  0  0  0
   21.1711   -7.6240  -16.6261 O   0  0  0  0  0  0  0  0  0  0  0  0
   21.0257   -6.7384  -14.5095 N   0  0  0  0  0  0  0  0  0  0  0  0
   21.3422   -5.3754  -14.8730 C   0  0  1  0  0  0  0  0  0  0  0  0
   20.1191   -4.5709  -15.1813 C   0  0  0  0  0  0  0  0  0  0  0  0
   20.4639   -3.1994  -15.5870 C   0  0  0  0  0  0  0  0  0  0  0  0
   21.2901   -3.0166  -16.5211 O   0  0  0  0  0  0  0  0  0  0  0  0
   22.1853   -4.7191  -13.8178 C   0  0  0  0  0  0  0  0  0  0  0  0
   22.1729   -5.2070  -12.6602 O   0  0  0  0  0  0  0  0  0  0  0  0
   19.9171   -2.0677  -14.9872 O   0  0  0  0  0  0  0  0  0  0  0  0
   22.9689   -3.6046  -14.0693 O   0  0  0  0  0  0  0  0  0  0  0  0
  2  1  1  6
  2  4  1  0
  3  2  1  0
  4  5  1  1
  6 11  1  0
  6  4  1  0
  7  6  2  0
  9  8  1  0
 10  9  1  6
 10 11  1  0
 10 12  1  0
 12 13  2  0
 14 12  1  0
 14 15  1  0
 15 16  1  1
 17 16  1  0
 18 17  2  0
 19 15  1  0
 19 22  1  0
 20 19  2  0
 21 17  1  0
M  END
$$$$
