TSD.pdb
     RDKit          3D

 22 21  0  0  1  0  0  0  0  0999 V2000
   24.5487  -14.3482  -17.9013 C   0  0  0  0  0  0  0  0  0  0  0  0
   25.2043  -14.9387  -16.6872 C   0  0  1  0  0  0  0  0  0  0  0  0
   25.5845  -16.2676  -16.9729 O   0  0  0  0  0  0  0  0  0  0  0  0
   26.4843  -14.2402  -16.2845 C   0  0  2  0  0  0  0  0  0  0  0  0
   26.9217  -14.9489  -15.0623 N   0  0  0  0  0  0  0  0  0  0  0  0
   26.2712  -12.8328  -15.8803 C   0  0  0  0  0  0  0  0  0  0  0  0
   25.6193  -12.5317  -14.8120 O   0  0  0  0  0  0  0  0  0  0  0  0
   27.0034   -8.0921  -16.8051 O   0  0  0  0  0  0  0  0  0  0  0  0
   27.2897   -9.4193  -17.0249 C   0  0  0  0  0  0  0  0  0  0  0  0
   26.3965  -10.3353  -16.2152 C   0  0  2  0  0  0  0  0  0  0  0  0
   26.7396  -11.6948  -16.5868 N   0  0  0  0  0  0  0  0  0  0  0  0
   24.9559  -10.0460  -16.4537 C   0  0  0  0  0  0  0  0  0  0  0  0
   24.3691  -10.4542  -17.4947 O   0  0  0  0  0  0  0  0  0  0  0  0
   24.2075   -9.3026  -15.5115 N   0  0  0  0  0  0  0  0  0  0  0  0
   22.8031   -8.9770  -15.6203 C   0  0  1  0  0  0  0  0  0  0  0  0
   22.1466   -8.8384  -14.2830 C   0  0  0  0  0  0  0  0  0  0  0  0
   20.7096   -8.5521  -14.4149 C   0  0  0  0  0  0  0  0  0  0  0  0
   20.0070   -9.2452  -15.1988 O   0  0  0  0  0  0  0  0  0  0  0  0
   22.5984   -7.7539  -16.4671 C   0  0  0  0  0  0  0  0  0  0  0  0
   23.5543   -6.9474  -16.5852 O   0  0  0  0  0  0  0  0  0  0  0  0
   20.0669   -7.5395  -13.7071 O   0  0  0  0  0  0  0  0  0  0  0  0
   21.4053   -7.4822  -17.1168 O   0  0  0  0  0  0  0  0  0  0  0  0
  2  1  1  6
  2  4  1  0
  3  2  1  0
  4  5  1  1
  6 11  1  0
  6  4  1  0
  7  6  2  0
  9  8  1  0
 10  9  1  6
 10 11  1  0
 10 12  1  0
 12 13  2  0
 14 12  1  0
 14 15  1  0
 15 16  1  1
 17 16  1  0
 18 17  2  0
 19 15  1  0
 19 22  1  0
 20 19  2  0
 21 17  1  0
M  END
$$$$
