TSD.pdb
     RDKit          3D

 22 21  0  0  1  0  0  0  0  0999 V2000
   20.5787   -9.4000  -20.1064 C   0  0  0  0  0  0  0  0  0  0  0  0
   19.4327  -10.2806  -19.7017 C   0  0  1  0  0  0  0  0  0  0  0  0
   19.2246  -11.2511  -20.7052 O   0  0  0  0  0  0  0  0  0  0  0  0
   19.6868  -11.0698  -18.4364 C   0  0  2  0  0  0  0  0  0  0  0  0
   18.4349  -11.8258  -18.2164 N   0  0  0  0  0  0  0  0  0  0  0  0
   19.8538  -10.2100  -17.2438 C   0  0  0  0  0  0  0  0  0  0  0  0
   18.9017   -9.4533  -16.8220 O   0  0  0  0  0  0  0  0  0  0  0  0
   22.5193   -8.8789  -13.3986 O   0  0  0  0  0  0  0  0  0  0  0  0
   22.2281   -9.7394  -14.4312 C   0  0  0  0  0  0  0  0  0  0  0  0
   21.1818   -9.1714  -15.3667 C   0  0  2  0  0  0  0  0  0  0  0  0
   21.0290  -10.1199  -16.4535 N   0  0  0  0  0  0  0  0  0  0  0  0
   21.5666   -7.8219  -15.8635 C   0  0  0  0  0  0  0  0  0  0  0  0
   22.3814   -7.6827  -16.8181 O   0  0  0  0  0  0  0  0  0  0  0  0
   21.0226   -6.6576  -15.2727 N   0  0  0  0  0  0  0  0  0  0  0  0
   21.3508   -5.2973  -15.6361 C   0  0  1  0  0  0  0  0  0  0  0  0
   20.1319   -4.4605  -15.8654 C   0  0  0  0  0  0  0  0  0  0  0  0
   20.4858   -3.0987  -16.2950 C   0  0  0  0  0  0  0  0  0  0  0  0
   21.3128   -2.9378  -17.2325 O   0  0  0  0  0  0  0  0  0  0  0  0
   22.2666   -4.6754  -14.6215 C   0  0  0  0  0  0  0  0  0  0  0  0
   22.3205   -5.1899  -13.4767 O   0  0  0  0  0  0  0  0  0  0  0  0
   19.9469   -1.9531  -15.7149 O   0  0  0  0  0  0  0  0  0  0  0  0
   23.0473   -3.5644  -14.8967 O   0  0  0  0  0  0  0  0  0  0  0  0
  2  1  1  6
  2  4  1  0
  3  2  1  0
  4  5  1  1
  6 11  1  0
  6  4  1  0
  7  6  2  0
  9  8  1  0
 10  9  1  1
 10 11  1  0
 10 12  1  0
 12 13  2  0
 14 12  1  0
 14 15  1  0
 15 16  1  1
 17 16  1  0
 18 17  2  0
 19 15  1  0
 19 22  1  0
 20 19  2  0
 21 17  1  0
M  END
$$$$
