TSD.pdb
     RDKit          3D

 22 21  0  0  1  0  0  0  0  0999 V2000
   18.4011  -11.5694  -20.8745 C   0  0  0  0  0  0  0  0  0  0  0  0
   18.7330  -11.0151  -19.5199 C   0  0  1  0  0  0  0  0  0  0  0  0
   19.3878  -12.0120  -18.7651 O   0  0  0  0  0  0  0  0  0  0  0  0
   19.6982   -9.8508  -19.5568 C   0  0  2  0  0  0  0  0  0  0  0  0
   20.9594  -10.4340  -20.0634 N   0  0  0  0  0  0  0  0  0  0  0  0
   20.0115   -9.3182  -18.2123 C   0  0  0  0  0  0  0  0  0  0  0  0
   19.0996   -8.8029  -17.4641 O   0  0  0  0  0  0  0  0  0  0  0  0
   23.2284   -8.7582  -14.5992 O   0  0  0  0  0  0  0  0  0  0  0  0
   22.8730   -9.2710  -15.8250 C   0  0  0  0  0  0  0  0  0  0  0  0
   21.5656   -8.6940  -16.3252 C   0  0  2  0  0  0  0  0  0  0  0  0
   21.2961   -9.3125  -17.6094 N   0  0  0  0  0  0  0  0  0  0  0  0
   21.6269   -7.2104  -16.4305 C   0  0  0  0  0  0  0  0  0  0  0  0
   22.1718   -6.6455  -17.4197 O   0  0  0  0  0  0  0  0  0  0  0  0
   21.0707   -6.3953  -15.4171 N   0  0  0  0  0  0  0  0  0  0  0  0
   21.0494   -4.9497  -15.4166 C   0  0  1  0  0  0  0  0  0  0  0  0
   19.6630   -4.4019  -15.2897 C   0  0  0  0  0  0  0  0  0  0  0  0
   19.6498   -2.9355  -15.4077 C   0  0  0  0  0  0  0  0  0  0  0  0
   19.3447   -2.2340  -14.4061 O   0  0  0  0  0  0  0  0  0  0  0  0
   21.9616   -4.3987  -14.3587 C   0  0  0  0  0  0  0  0  0  0  0  0
   22.1733   -5.0963  -13.3356 O   0  0  0  0  0  0  0  0  0  0  0  0
   19.9637   -2.2636  -16.5865 O   0  0  0  0  0  0  0  0  0  0  0  0
   22.5729   -3.1600  -14.4660 O   0  0  0  0  0  0  0  0  0  0  0  0
  2  1  1  6
  2  4  1  0
  3  2  1  0
  4  5  1  1
  6 11  1  0
  6  4  1  0
  7  6  2  0
  9  8  1  0
 10  9  1  6
 10 11  1  0
 10 12  1  0
 12 13  2  0
 14 12  1  0
 14 15  1  0
 15 16  1  1
 17 16  1  0
 18 17  2  0
 19 15  1  0
 19 22  1  0
 20 19  2  0
 21 17  1  0
M  END
$$$$
