RSD.pdb
     RDKit          3D

 26 25  0  0  1  0  0  0  0  0999 V2000
    6.6673  -13.5225   21.6027 N   0  0  0  0  0  0  0  0  0  0  0  0
    6.8855  -13.7211   20.2043 C   0  0  0  0  0  0  0  0  0  0  0  0
    6.4866  -14.8223   19.6763 N   0  0  0  0  0  0  0  0  0  0  0  0
    7.5179  -12.7564   19.3865 N   0  0  0  0  0  0  0  0  0  0  0  0
    8.6882  -13.1150   18.6398 C   0  0  0  0  0  0  0  0  0  0  0  0
    9.8934  -12.5034   19.3593 C   0  0  0  0  0  0  0  0  0  0  0  0
   10.6035  -13.5555   20.1825 C   0  0  0  0  0  0  0  0  0  0  0  0
   11.0028  -14.6948   19.2412 C   0  0  2  0  0  0  0  0  0  0  0  0
    9.7584  -15.1632   18.6614 N   0  0  0  0  0  0  0  0  0  0  0  0
   11.7008  -15.7673   19.9843 C   0  0  0  0  0  0  0  0  0  0  0  0
   11.0582  -16.4970   20.7680 O   0  0  0  0  0  0  0  0  0  0  0  0
    6.7022  -15.1204   18.7017 O   0  0  0  0  0  0  0  0  0  0  0  0
   15.8764  -15.6567   20.3036 C   0  0  0  0  0  0  0  0  0  0  0  0
   15.3001  -16.8712   19.9650 C   0  0  1  0  0  0  0  0  0  0  0  0
   13.8564  -16.9714   20.4803 N   0  0  0  0  0  0  0  0  0  0  0  0
   13.0803  -15.9728   19.8154 C   0  0  0  0  0  0  0  0  0  0  0  0
   13.9133  -16.8351   21.9302 O   0  0  0  0  0  0  0  0  0  0  0  0
   13.2353  -15.9586   22.5117 N   0  0  0  0  0  0  0  0  0  0  0  0
   14.7333  -17.6853   22.7122 C   0  0  1  0  0  0  0  0  0  0  0  0
   14.4256  -18.0510   24.0815 C   0  0  0  0  0  0  0  0  0  0  0  0
   13.1238  -18.7992   24.2091 C   0  0  0  0  0  0  0  0  0  0  0  0
   12.0729  -17.9505   24.7825 O   0  0  0  0  0  0  0  0  0  0  0  0
   12.2492  -17.1470   25.7490 C   0  0  0  0  0  0  0  0  0  0  0  0
   15.5342  -18.8906   24.6248 O   0  0  0  0  0  0  0  0  0  0  0  0
   16.1464  -18.5400   25.8114 O   0  0  0  0  0  0  0  0  0  0  0  0
   10.7916  -18.0331   24.2265 O   0  0  0  0  0  0  0  0  0  0  0  0
  1  2  1  0
  2  3  2  0
  4  5  1  0
  4  2  1  0
  6  5  1  0
  7  6  1  0
  7  8  1  0
  8 10  1  0
  8  9  1  1
 10 11  2  0
 13 12  1  0
 14 13  1  6
 15 14  1  0
 15 10  1  0
 16 17  2  0
 16 14  1  0
 18 16  1  0
 19 20  1  1
 19 18  1  0
 20 21  1  0
 21 25  1  0
 21 22  2  0
 23 19  1  0
 24 23  1  0
 26 23  2  0
M  END
$$$$
