RSD.pdb
     RDKit          3D

 26 25  0  0  1  0  0  0  0  0999 V2000
    8.5747  -12.3911   16.8258 N   0  0  0  0  0  0  0  0  0  0  0  0
    7.8337  -12.4058   18.0478 C   0  0  0  0  0  0  0  0  0  0  0  0
    7.7578  -11.3177   18.7267 N   0  0  0  0  0  0  0  0  0  0  0  0
    7.1847  -13.5648   18.5323 N   0  0  0  0  0  0  0  0  0  0  0  0
    7.8660  -14.8259   18.5020 C   0  0  0  0  0  0  0  0  0  0  0  0
    7.5258  -15.5594   19.8022 C   0  0  0  0  0  0  0  0  0  0  0  0
    8.4541  -15.1187   20.9126 C   0  0  0  0  0  0  0  0  0  0  0  0
    9.0356  -16.3768   21.5628 C   0  0  2  0  0  0  0  0  0  0  0  0
    8.0164  -17.3958   21.3981 N   0  0  0  0  0  0  0  0  0  0  0  0
    9.3441  -16.1337   22.9894 C   0  0  0  0  0  0  0  0  0  0  0  0
   10.1858  -15.2657   23.3020 O   0  0  0  0  0  0  0  0  0  0  0  0
    7.2582  -11.2245   19.6361 O   0  0  0  0  0  0  0  0  0  0  0  0
    6.7724  -17.6344   25.8511 C   0  0  0  0  0  0  0  0  0  0  0  0
    7.6704  -16.6215   26.1500 C   0  0  1  0  0  0  0  0  0  0  0  0
    8.9943  -16.8022   25.3922 N   0  0  0  0  0  0  0  0  0  0  0  0
    8.6978  -16.8704   23.9961 C   0  0  0  0  0  0  0  0  0  0  0  0
    9.6367  -17.9909   25.9385 O   0  0  0  0  0  0  0  0  0  0  0  0
    9.3383  -19.1274   25.5078 N   0  0  0  0  0  0  0  0  0  0  0  0
   10.6079  -17.8901   26.9648 C   0  0  1  0  0  0  0  0  0  0  0  0
   11.2586  -19.0402   27.5625 C   0  0  0  0  0  0  0  0  0  0  0  0
   12.7617  -18.9692   27.4826 C   0  0  0  0  0  0  0  0  0  0  0  0
   13.2273  -19.0350   26.0925 O   0  0  0  0  0  0  0  0  0  0  0  0
   12.4878  -19.3254   25.1026 C   0  0  0  0  0  0  0  0  0  0  0  0
   10.8438  -19.1489   28.9926 O   0  0  0  0  0  0  0  0  0  0  0  0
   11.2028  -20.2581   29.7319 O   0  0  0  0  0  0  0  0  0  0  0  0
   14.5761  -18.7593   25.8422 O   0  0  0  0  0  0  0  0  0  0  0  0
  1  2  1  0
  2  3  2  0
  4  5  1  0
  4  2  1  0
  6  5  1  0
  7  6  1  0
  7  8  1  0
  8 10  1  0
  8  9  1  1
 10 11  2  0
 13 12  1  0
 14 13  1  6
 15 14  1  0
 15 10  1  0
 16 17  2  0
 16 14  1  0
 18 16  1  0
 19 20  1  1
 19 18  1  0
 20 21  1  0
 21 25  1  0
 21 22  2  0
 23 19  1  0
 24 23  1  0
 26 23  2  0
M  END
$$$$
