RSD.pdb
     RDKit          3D

 26 25  0  0  1  0  0  0  0  0999 V2000
    9.1531  -17.5473   19.2052 N   0  0  0  0  0  0  0  0  0  0  0  0
    9.7330  -17.8246   17.9287 C   0  0  0  0  0  0  0  0  0  0  0  0
   10.4504  -18.8829   17.8030 N   0  0  0  0  0  0  0  0  0  0  0  0
    9.5459  -16.9840   16.8073 N   0  0  0  0  0  0  0  0  0  0  0  0
    8.5908  -15.9166   16.8707 C   0  0  0  0  0  0  0  0  0  0  0  0
    9.2670  -14.7412   17.5816 C   0  0  0  0  0  0  0  0  0  0  0  0
    8.3097  -13.5754   17.6966 C   0  0  0  0  0  0  0  0  0  0  0  0
    7.3824  -13.8472   18.8839 C   0  0  2  0  0  0  0  0  0  0  0  0
    6.3974  -12.7829   18.8488 N   0  0  0  0  0  0  0  0  0  0  0  0
    8.1437  -13.8496   20.1528 C   0  0  0  0  0  0  0  0  0  0  0  0
    8.9187  -12.9053   20.4119 O   0  0  0  0  0  0  0  0  0  0  0  0
   10.9267  -19.1705   16.9223 O   0  0  0  0  0  0  0  0  0  0  0  0
    7.5183  -17.0744   22.7886 C   0  0  0  0  0  0  0  0  0  0  0  0
    7.8705  -15.8272   23.2805 C   0  0  1  0  0  0  0  0  0  0  0  0
    8.7447  -15.0549   22.2808 N   0  0  0  0  0  0  0  0  0  0  0  0
    8.0019  -14.9048   21.0694 C   0  0  0  0  0  0  0  0  0  0  0  0
    9.9907  -15.7985   22.1446 O   0  0  0  0  0  0  0  0  0  0  0  0
   10.1846  -16.5341   21.1510 N   0  0  0  0  0  0  0  0  0  0  0  0
   11.0064  -15.7083   23.1279 C   0  0  2  0  0  0  0  0  0  0  0  0
   12.2394  -16.4699   23.0728 C   0  0  0  0  0  0  0  0  0  0  0  0
   13.4304  -15.6923   23.5704 C   0  0  0  0  0  0  0  0  0  0  0  0
   14.6641  -16.4806   23.4697 O   0  0  0  0  0  0  0  0  0  0  0  0
   15.0540  -17.3150   24.3430 C   0  0  0  0  0  0  0  0  0  0  0  0
   12.0844  -17.7120   23.8866 O   0  0  0  0  0  0  0  0  0  0  0  0
   12.7196  -18.8744   23.4980 O   0  0  0  0  0  0  0  0  0  0  0  0
   15.4633  -16.2999   22.3355 O   0  0  0  0  0  0  0  0  0  0  0  0
  1  2  1  0
  2  3  2  0
  4  5  1  0
  4  2  1  0
  6  5  1  0
  7  6  1  0
  7  8  1  0
  8 10  1  0
  8  9  1  1
 10 11  2  0
 13 12  1  0
 14 13  1  1
 15 14  1  0
 15 10  1  0
 16 17  2  0
 16 14  1  0
 18 16  1  0
 19 20  1  1
 19 18  1  0
 20 21  1  0
 21 25  1  0
 21 22  2  0
 23 19  1  0
 24 23  1  0
 26 23  2  0
M  END
$$$$
