RSD.pdb
     RDKit          3D

 26 25  0  0  1  0  0  0  0  0999 V2000
    8.0202  -15.5423   15.0162 N   0  0  0  0  0  0  0  0  0  0  0  0
    7.7622  -14.1614   15.2793 C   0  0  0  0  0  0  0  0  0  0  0  0
    7.7614  -13.3429   14.2890 N   0  0  0  0  0  0  0  0  0  0  0  0
    7.5080  -13.6673   16.5795 N   0  0  0  0  0  0  0  0  0  0  0  0
    8.2952  -14.1336   17.6834 C   0  0  0  0  0  0  0  0  0  0  0  0
    7.8839  -13.3192   18.9129 C   0  0  0  0  0  0  0  0  0  0  0  0
    6.9656  -14.1322   19.7987 C   0  0  0  0  0  0  0  0  0  0  0  0
    7.7107  -15.4084   20.1984 C   0  0  2  0  0  0  0  0  0  0  0  0
    6.7038  -16.2662   20.7937 N   0  0  0  0  0  0  0  0  0  0  0  0
    8.8025  -15.1012   21.1488 C   0  0  0  0  0  0  0  0  0  0  0  0
    9.8691  -14.6065   20.7279 O   0  0  0  0  0  0  0  0  0  0  0  0
    7.5920  -12.3183   14.3718 O   0  0  0  0  0  0  0  0  0  0  0  0
    8.2236  -16.2147   25.1679 C   0  0  0  0  0  0  0  0  0  0  0  0
    8.9895  -15.0952   24.8814 C   0  0  1  0  0  0  0  0  0  0  0  0
    9.6709  -15.2162   23.5099 N   0  0  0  0  0  0  0  0  0  0  0  0
    8.6496  -15.3604   22.5211 C   0  0  0  0  0  0  0  0  0  0  0  0
   10.6000  -16.3358   23.5955 O   0  0  0  0  0  0  0  0  0  0  0  0
   10.2855  -17.4571   23.1374 N   0  0  0  0  0  0  0  0  0  0  0  0
   11.8737  -16.1837   24.1965 C   0  0  1  0  0  0  0  0  0  0  0  0
   12.8607  -17.2449   24.2525 C   0  0  0  0  0  0  0  0  0  0  0  0
   14.2763  -16.7284   24.2479 C   0  0  0  0  0  0  0  0  0  0  0  0
   14.6823  -16.2922   22.9068 O   0  0  0  0  0  0  0  0  0  0  0  0
   14.2354  -16.7872   21.8270 C   0  0  0  0  0  0  0  0  0  0  0  0
   12.6350  -18.0588   25.4837 O   0  0  0  0  0  0  0  0  0  0  0  0
   13.3637  -19.2130   25.6901 O   0  0  0  0  0  0  0  0  0  0  0  0
   15.6248  -15.2623   22.8130 O   0  0  0  0  0  0  0  0  0  0  0  0
  1  2  1  0
  2  3  2  0
  4  5  1  0
  4  2  1  0
  6  5  1  0
  7  6  1  0
  7  8  1  0
  8 10  1  0
  8  9  1  1
 10 11  2  0
 13 12  1  0
 14 13  1  6
 15 14  1  0
 15 10  1  0
 16 17  2  0
 16 14  1  0
 18 16  1  0
 19 20  1  1
 19 18  1  0
 20 21  1  0
 21 25  1  0
 21 22  2  0
 23 19  1  0
 24 23  1  0
 26 23  2  0
M  END
$$$$
