RSD.pdb
     RDKit          3D

 26 25  0  0  1  0  0  0  0  0999 V2000
    9.4380  -13.1385   19.4875 N   0  0  0  0  0  0  0  0  0  0  0  0
    8.2333  -12.3787   19.6060 C   0  0  0  0  0  0  0  0  0  0  0  0
    8.3213  -11.0970   19.6246 N   0  0  0  0  0  0  0  0  0  0  0  0
    6.9578  -12.9813   19.7009 N   0  0  0  0  0  0  0  0  0  0  0  0
    6.7214  -13.9925   20.6896 C   0  0  0  0  0  0  0  0  0  0  0  0
    7.2565  -15.3127   20.1285 C   0  0  0  0  0  0  0  0  0  0  0  0
    8.6582  -15.5699   20.6364 C   0  0  0  0  0  0  0  0  0  0  0  0
    9.1243  -16.9109   20.0637 C   0  0  2  0  0  0  0  0  0  0  0  0
    8.2074  -17.8955   20.6060 N   0  0  0  0  0  0  0  0  0  0  0  0
   10.5239  -17.1891   20.4552 C   0  0  0  0  0  0  0  0  0  0  0  0
   10.7619  -18.0276   21.3495 O   0  0  0  0  0  0  0  0  0  0  0  0
    7.5226  -10.4544   19.8102 O   0  0  0  0  0  0  0  0  0  0  0  0
   13.8395  -14.3547   19.9863 C   0  0  0  0  0  0  0  0  0  0  0  0
   13.7529  -15.5925   19.3681 C   0  0  1  0  0  0  0  0  0  0  0  0
   12.9597  -16.5932   20.2222 N   0  0  0  0  0  0  0  0  0  0  0  0
   11.5880  -16.5188   19.8290 C   0  0  0  0  0  0  0  0  0  0  0  0
   13.2140  -16.2552   21.6168 O   0  0  0  0  0  0  0  0  0  0  0  0
   12.3907  -15.5694   22.2633 N   0  0  0  0  0  0  0  0  0  0  0  0
   14.3926  -16.6909   22.2709 C   0  0  1  0  0  0  0  0  0  0  0  0
   14.4518  -16.9970   23.6873 C   0  0  0  0  0  0  0  0  0  0  0  0
   13.5576  -18.1461   24.0755 C   0  0  0  0  0  0  0  0  0  0  0  0
   13.0179  -17.9706   25.4289 O   0  0  0  0  0  0  0  0  0  0  0  0
   13.3474  -17.0300   26.2147 C   0  0  0  0  0  0  0  0  0  0  0  0
   15.8612  -17.3190   24.0601 O   0  0  0  0  0  0  0  0  0  0  0  0
   16.8134  -17.4872   23.0749 O   0  0  0  0  0  0  0  0  0  0  0  0
   12.0779  -18.9024   25.8826 O   0  0  0  0  0  0  0  0  0  0  0  0
  1  2  1  0
  2  3  2  0
  4  5  1  0
  4  2  1  0
  6  5  1  0
  7  6  1  0
  7  8  1  0
  8 10  1  0
  8  9  1  1
 10 11  2  0
 13 12  1  0
 14 13  1  6
 15 14  1  0
 15 10  1  0
 16 17  2  0
 16 14  1  0
 18 16  1  0
 19 20  1  1
 19 18  1  0
 20 21  1  0
 21 25  1  0
 21 22  2  0
 23 19  1  0
 24 23  1  0
 26 23  2  0
M  END
$$$$
