RSD.pdb
     RDKit          3D

 26 25  0  0  1  0  0  0  0  0999 V2000
    9.1857  -13.3803   16.1590 N   0  0  0  0  0  0  0  0  0  0  0  0
    7.9641  -14.0530   15.8460 C   0  0  0  0  0  0  0  0  0  0  0  0
    7.2983  -13.6599   14.8199 N   0  0  0  0  0  0  0  0  0  0  0  0
    7.4664  -15.1284   16.6174 N   0  0  0  0  0  0  0  0  0  0  0  0
    7.2599  -14.9569   18.0258 C   0  0  0  0  0  0  0  0  0  0  0  0
    8.2172  -13.8586   18.4966 C   0  0  0  0  0  0  0  0  0  0  0  0
    8.1088  -13.6734   19.9942 C   0  0  0  0  0  0  0  0  0  0  0  0
    8.4489  -15.0110   20.6566 C   0  0  2  0  0  0  0  0  0  0  0  0
    7.2020  -15.7518   20.6803 N   0  0  0  0  0  0  0  0  0  0  0  0
    8.9880  -14.7987   22.0182 C   0  0  0  0  0  0  0  0  0  0  0  0
   10.0326  -14.1323   22.1739 O   0  0  0  0  0  0  0  0  0  0  0  0
    6.4242  -14.1109   14.4768 O   0  0  0  0  0  0  0  0  0  0  0  0
    6.5892  -15.6997   25.2499 C   0  0  0  0  0  0  0  0  0  0  0  0
    7.7246  -14.9228   25.4209 C   0  0  1  0  0  0  0  0  0  0  0  0
    8.8507  -15.3564   24.4703 N   0  0  0  0  0  0  0  0  0  0  0  0
    8.3345  -15.3397   23.1380 C   0  0  0  0  0  0  0  0  0  0  0  0
    9.3143  -16.6597   24.9289 O   0  0  0  0  0  0  0  0  0  0  0  0
    8.7052  -17.7017   24.5982 N   0  0  0  0  0  0  0  0  0  0  0  0
   10.4582  -16.7786   25.7560 C   0  0  1  0  0  0  0  0  0  0  0  0
   10.9808  -18.0510   26.2159 C   0  0  0  0  0  0  0  0  0  0  0  0
   12.4822  -18.1364   26.1189 C   0  0  0  0  0  0  0  0  0  0  0  0
   12.9136  -18.4369   24.7488 O   0  0  0  0  0  0  0  0  0  0  0  0
   12.1246  -18.5830   23.7654 C   0  0  0  0  0  0  0  0  0  0  0  0
   10.5634  -18.2683   27.6328 O   0  0  0  0  0  0  0  0  0  0  0  0
   10.7744  -19.4933   28.2333 O   0  0  0  0  0  0  0  0  0  0  0  0
   14.2860  -18.5713   24.5114 O   0  0  0  0  0  0  0  0  0  0  0  0
  1  2  1  0
  2  3  2  0
  4  5  1  0
  4  2  1  0
  6  5  1  0
  7  6  1  0
  7  8  1  0
  8 10  1  0
  8  9  1  1
 10 11  2  0
 13 12  1  0
 14 13  1  6
 15 14  1  0
 15 10  1  0
 16 17  2  0
 16 14  1  0
 18 16  1  0
 19 20  1  1
 19 18  1  0
 20 21  1  0
 21 25  1  0
 21 22  2  0
 23 19  1  0
 24 23  1  0
 26 23  2  0
M  END
$$$$
