EVC.pdb
     RDKit          3D

 23 22  0  0  1  0  0  0  0  0999 V2000
   22.8844  -13.4703  -17.6935 N   0  0  0  0  0  0  0  0  0  0  0  0
   21.7730  -12.6415  -17.3484 C   0  0  1  0  0  0  0  0  0  0  0  0
   20.9064  -13.2809  -16.3181 C   0  0  0  0  0  0  0  0  0  0  0  0
   19.6443  -13.8977  -16.8342 C   0  0  0  0  0  0  0  0  0  0  0  0
   18.5195  -13.8908  -15.8906 C   0  0  0  0  0  0  0  0  0  0  0  0
   17.8771  -12.8544  -15.5944 O   0  0  0  0  0  0  0  0  0  0  0  0
   22.1666  -11.2680  -16.9634 C   0  0  0  0  0  0  0  0  0  0  0  0
   23.3774  -11.0729  -16.6603 O   0  0  0  0  0  0  0  0  0  0  0  0
   18.0760  -15.0614  -15.2430 O   0  0  0  0  0  0  0  0  0  0  0  0
   22.9963   -6.9092  -17.6885 C   0  0  0  0  0  0  0  0  0  0  0  0
   22.6302   -8.3624  -17.8464 C   0  0  1  0  0  0  0  0  0  0  0  0
   23.8438   -9.2379  -18.0500 C   0  0  0  0  0  0  0  0  0  0  0  0
   21.7444   -8.8531  -16.7217 C   0  0  2  0  0  0  0  0  0  0  0  0
   21.2649  -10.1779  -16.9193 N   0  0  0  0  0  0  0  0  0  0  0  0
   20.6221   -7.8878  -16.5912 C   0  0  0  0  0  0  0  0  0  0  0  0
   19.8662   -7.5864  -17.5503 O   0  0  0  0  0  0  0  0  0  0  0  0
   20.3613   -7.2577  -15.3431 N   0  0  0  0  0  0  0  0  0  0  0  0
   19.1740   -6.4467  -15.1568 C   0  0  1  0  0  0  0  0  0  0  0  0
   18.5969   -6.8173  -13.8041 C   0  0  0  0  0  0  0  0  0  0  0  0
   18.0659   -8.5596  -13.8783 S   0  0  0  0  0  0  0  0  0  0  0  0
   19.4946   -4.9999  -15.2390 C   0  0  0  0  0  0  0  0  0  0  0  0
   18.4769   -4.0649  -15.1984 O   0  0  0  0  0  0  0  0  0  0  0  0
   20.6745   -4.5858  -15.3456 O   0  0  0  0  0  0  0  0  0  0  0  0
  2  1  1  1
  2  3  1  0
  4  3  1  0
  5  4  1  0
  6  5  2  0
  7  2  1  0
  7  8  2  0
  9  5  1  0
 11 10  1  1
 11 12  1  0
 11 13  1  0
 13 14  1  6
 14  7  1  0
 15 13  1  0
 16 15  2  0
 17 15  1  0
 18 17  1  0
 18 21  1  0
 19 20  1  0
 18 19  1  1
 21 22  1  0
 23 21  2  0
M  END
$$$$
