EVC.pdb
     RDKit          3D

 23 22  0  0  1  0  0  0  0  0999 V2000
   29.5062  -23.5105  -17.4226 N   0  0  0  0  0  0  0  0  0  0  0  0
   28.6016  -22.4072  -17.4968 C   0  0  1  0  0  0  0  0  0  0  0  0
   27.8493  -22.3955  -18.7833 C   0  0  0  0  0  0  0  0  0  0  0  0
   28.1881  -21.2742  -19.7147 C   0  0  0  0  0  0  0  0  0  0  0  0
   29.4338  -21.4512  -20.4714 C   0  0  0  0  0  0  0  0  0  0  0  0
   29.4695  -21.9078  -21.6396 O   0  0  0  0  0  0  0  0  0  0  0  0
   27.6985  -22.3133  -16.3283 C   0  0  0  0  0  0  0  0  0  0  0  0
   27.4728  -23.3742  -15.6806 O   0  0  0  0  0  0  0  0  0  0  0  0
   30.6928  -21.1167  -19.9332 O   0  0  0  0  0  0  0  0  0  0  0  0
   28.2700  -19.8511  -13.4449 C   0  0  0  0  0  0  0  0  0  0  0  0
   26.8142  -19.8276  -13.8330 C   0  0  1  0  0  0  0  0  0  0  0  0
   26.4218  -18.5301  -14.4985 C   0  0  0  0  0  0  0  0  0  0  0  0
   26.4219  -21.0394  -14.6504 C   0  0  2  0  0  0  0  0  0  0  0  0
   27.0844  -21.1096  -15.9075 N   0  0  0  0  0  0  0  0  0  0  0  0
   24.9462  -20.9972  -14.8208 C   0  0  0  0  0  0  0  0  0  0  0  0
   24.3834  -20.3454  -15.7375 O   0  0  0  0  0  0  0  0  0  0  0  0
   24.1017  -21.7127  -13.9275 N   0  0  0  0  0  0  0  0  0  0  0  0
   22.6624  -21.5445  -13.9745 C   0  0  1  0  0  0  0  0  0  0  0  0
   22.0561  -22.7574  -13.2953 C   0  0  0  0  0  0  0  0  0  0  0  0
   20.2738  -22.4451  -13.0744 S   0  0  0  0  0  0  0  0  0  0  0  0
   22.2484  -20.2815  -13.3140 C   0  0  0  0  0  0  0  0  0  0  0  0
   21.2578  -19.5002  -13.8797 O   0  0  0  0  0  0  0  0  0  0  0  0
   22.7721  -19.8889  -12.2432 O   0  0  0  0  0  0  0  0  0  0  0  0
  2  1  1  1
  2  3  1  0
  4  3  1  0
  5  4  1  0
  6  5  2  0
  7  2  1  0
  7  8  2  0
  9  5  1  0
 11 10  1  6
 11 12  1  0
 11 13  1  0
 13 14  1  6
 14  7  1  0
 15 13  1  0
 16 15  2  0
 17 15  1  0
 18 17  1  0
 18 21  1  0
 19 20  1  0
 18 19  1  1
 21 22  1  0
 23 21  2  0
M  END
$$$$
