EVC.pdb
     RDKit          3D

 23 22  0  0  1  0  0  0  0  0999 V2000
   17.5556  -12.6461  -16.3883 N   0  0  0  0  0  0  0  0  0  0  0  0
   18.3186  -11.6008  -16.9933 C   0  0  1  0  0  0  0  0  0  0  0  0
   17.4461  -10.6086  -17.6831 C   0  0  0  0  0  0  0  0  0  0  0  0
   16.6277  -11.1498  -18.8131 C   0  0  0  0  0  0  0  0  0  0  0  0
   15.8253  -10.1520  -19.5315 C   0  0  0  0  0  0  0  0  0  0  0  0
   16.3152   -9.3333  -20.3465 O   0  0  0  0  0  0  0  0  0  0  0  0
   19.2619  -10.9498  -16.0574 C   0  0  0  0  0  0  0  0  0  0  0  0
   18.8529  -10.7212  -14.8841 O   0  0  0  0  0  0  0  0  0  0  0  0
   14.4314  -10.0414  -19.3546 O   0  0  0  0  0  0  0  0  0  0  0  0
   23.6839   -9.8264  -14.3816 C   0  0  0  0  0  0  0  0  0  0  0  0
   22.7999  -10.5549  -15.3607 C   0  0  1  0  0  0  0  0  0  0  0  0
   22.7437  -12.0385  -15.0844 C   0  0  0  0  0  0  0  0  0  0  0  0
   21.4243   -9.9321  -15.4604 C   0  0  2  0  0  0  0  0  0  0  0  0
   20.5813  -10.5765  -16.4082 N   0  0  0  0  0  0  0  0  0  0  0  0
   21.6135   -8.4968  -15.7960 C   0  0  0  0  0  0  0  0  0  0  0  0
   21.6135   -8.0665  -16.9779 O   0  0  0  0  0  0  0  0  0  0  0  0
   21.8059   -7.5392  -14.7621 N   0  0  0  0  0  0  0  0  0  0  0  0
   21.8810   -6.1240  -15.0682 C   0  0  1  0  0  0  0  0  0  0  0  0
   20.5551   -5.7396  -15.6963 C   0  0  0  0  0  0  0  0  0  0  0  0
   20.5406   -3.9298  -15.9141 S   0  0  0  0  0  0  0  0  0  0  0  0
   22.1626   -5.3260  -13.8490 C   0  0  0  0  0  0  0  0  0  0  0  0
   22.9145   -4.1693  -13.9404 O   0  0  0  0  0  0  0  0  0  0  0  0
   21.7369   -5.6669  -12.7187 O   0  0  0  0  0  0  0  0  0  0  0  0
  2  1  1  1
  2  3  1  0
  4  3  1  0
  5  4  1  0
  6  5  2  0
  7  2  1  0
  7  8  2  0
  9  5  1  0
 11 10  1  1
 11 12  1  0
 11 13  1  0
 13 14  1  6
 14  7  1  0
 15 13  1  0
 16 15  2  0
 17 15  1  0
 18 17  1  0
 18 21  1  0
 19 20  1  0
 18 19  1  1
 21 22  1  0
 23 21  2  0
M  END
$$$$
