EVC.pdb
     RDKit          3D

 23 22  0  0  1  0  0  0  0  0999 V2000
   14.9136  -10.5536  -12.4095 N   0  0  0  0  0  0  0  0  0  0  0  0
   15.7452   -9.4534  -12.0366 C   0  0  1  0  0  0  0  0  0  0  0  0
   16.5643   -8.9671  -13.1830 C   0  0  0  0  0  0  0  0  0  0  0  0
   17.6758   -9.8745  -13.6082 C   0  0  0  0  0  0  0  0  0  0  0  0
   18.8910   -9.7932  -12.7884 C   0  0  0  0  0  0  0  0  0  0  0  0
   19.3570  -10.7686  -12.1513 O   0  0  0  0  0  0  0  0  0  0  0  0
   15.0006   -8.3536  -11.3843 C   0  0  0  0  0  0  0  0  0  0  0  0
   13.9167   -7.9868  -11.9199 O   0  0  0  0  0  0  0  0  0  0  0  0
   19.6292   -8.5997  -12.6571 O   0  0  0  0  0  0  0  0  0  0  0  0
   12.9573   -8.1351   -8.5060 C   0  0  0  0  0  0  0  0  0  0  0  0
   14.0077   -7.0716   -8.3149 C   0  0  1  0  0  0  0  0  0  0  0  0
   15.0206   -7.4527   -7.2616 C   0  0  0  0  0  0  0  0  0  0  0  0
   14.6552   -6.6678   -9.6217 C   0  0  2  0  0  0  0  0  0  0  0  0
   15.4377   -7.7023  -10.2062 N   0  0  0  0  0  0  0  0  0  0  0  0
   15.4760   -5.4586   -9.3518 C   0  0  0  0  0  0  0  0  0  0  0  0
   16.6216   -5.5127   -8.8354 O   0  0  0  0  0  0  0  0  0  0  0  0
   14.9771   -4.1673   -9.6784 N   0  0  0  0  0  0  0  0  0  0  0  0
   15.7734   -2.9814   -9.4302 C   0  0  1  0  0  0  0  0  0  0  0  0
   15.7529   -2.1636  -10.7073 C   0  0  0  0  0  0  0  0  0  0  0  0
   16.4840   -3.1768  -12.0348 S   0  0  0  0  0  0  0  0  0  0  0  0
   15.2437   -2.2116   -8.2771 C   0  0  0  0  0  0  0  0  0  0  0  0
   15.9686   -1.1518   -7.7643 O   0  0  0  0  0  0  0  0  0  0  0  0
   14.1441   -2.4907   -7.7406 O   0  0  0  0  0  0  0  0  0  0  0  0
  2  1  1  6
  2  3  1  0
  4  3  1  0
  5  4  1  0
  6  5  2  0
  7  2  1  0
  7  8  2  0
  9  5  1  0
 11 10  1  6
 11 12  1  0
 11 13  1  0
 13 14  1  1
 14  7  1  0
 15 13  1  0
 16 15  2  0
 17 15  1  0
 18 17  1  0
 18 21  1  0
 19 20  1  0
 18 19  1  6
 21 22  1  0
 23 21  2  0
M  END
$$$$
