EVC.pdb
     RDKit          3D

 23 22  0  0  1  0  0  0  0  0999 V2000
   19.9797  -18.7446  -16.7257 N   0  0  0  0  0  0  0  0  0  0  0  0
   20.6030  -19.9147  -16.1933 C   0  0  1  0  0  0  0  0  0  0  0  0
   21.3489  -20.6682  -17.2408 C   0  0  0  0  0  0  0  0  0  0  0  0
   20.5001  -21.3560  -18.2636 C   0  0  0  0  0  0  0  0  0  0  0  0
   20.1432  -22.7434  -17.9420 C   0  0  0  0  0  0  0  0  0  0  0  0
   20.4804  -23.7220  -18.6514 O   0  0  0  0  0  0  0  0  0  0  0  0
   21.4436  -19.6398  -15.0070 C   0  0  0  0  0  0  0  0  0  0  0  0
   22.0008  -18.5081  -14.9382 O   0  0  0  0  0  0  0  0  0  0  0  0
   19.3877  -23.0786  -16.8004 O   0  0  0  0  0  0  0  0  0  0  0  0
   22.4417  -20.1658  -10.2874 C   0  0  0  0  0  0  0  0  0  0  0  0
   21.6102  -20.4563  -11.5100 C   0  0  1  0  0  0  0  0  0  0  0  0
   20.2757  -19.7502  -11.4736 C   0  0  0  0  0  0  0  0  0  0  0  0
   22.3696  -20.1932  -12.7924 C   0  0  2  0  0  0  0  0  0  0  0  0
   21.6504  -20.5702  -13.9606 N   0  0  0  0  0  0  0  0  0  0  0  0
   23.6616  -20.9212  -12.6968 C   0  0  0  0  0  0  0  0  0  0  0  0
   23.7360  -22.1758  -12.6474 O   0  0  0  0  0  0  0  0  0  0  0  0
   24.8877  -20.2013  -12.6571 N   0  0  0  0  0  0  0  0  0  0  0  0
   26.1405  -20.8860  -12.4043 C   0  0  1  0  0  0  0  0  0  0  0  0
   27.2415  -19.8520  -12.5417 C   0  0  0  0  0  0  0  0  0  0  0  0
   28.8281  -20.6681  -12.1680 S   0  0  0  0  0  0  0  0  0  0  0  0
   26.1448  -21.5171  -11.0610 C   0  0  0  0  0  0  0  0  0  0  0  0
   25.7248  -20.7956   -9.9589 O   0  0  0  0  0  0  0  0  0  0  0  0
   26.5217  -22.7011  -10.8843 O   0  0  0  0  0  0  0  0  0  0  0  0
  2  1  1  6
  2  3  1  0
  4  3  1  0
  5  4  1  0
  6  5  2  0
  7  2  1  0
  7  8  2  0
  9  5  1  0
 11 10  1  1
 11 12  1  0
 11 13  1  0
 13 14  1  6
 14  7  1  0
 15 13  1  0
 16 15  2  0
 17 15  1  0
 18 17  1  0
 18 21  1  0
 19 20  1  0
 18 19  1  1
 21 22  1  0
 23 21  2  0
M  END
$$$$
