EVC.pdb
     RDKit          3D

 23 22  0  0  1  0  0  0  0  0999 V2000
   21.0762  -12.8964  -18.6974 N   0  0  0  0  0  0  0  0  0  0  0  0
   20.2389  -11.8631  -18.1756 C   0  0  1  0  0  0  0  0  0  0  0  0
   19.4873  -12.3171  -16.9712 C   0  0  0  0  0  0  0  0  0  0  0  0
   18.4843  -13.4014  -17.2117 C   0  0  0  0  0  0  0  0  0  0  0  0
   17.2149  -12.9534  -17.7977 C   0  0  0  0  0  0  0  0  0  0  0  0
   16.5164  -12.0350  -17.3046 O   0  0  0  0  0  0  0  0  0  0  0  0
   20.9609  -10.5950  -17.9302 C   0  0  0  0  0  0  0  0  0  0  0  0
   22.1946  -10.6689  -17.6687 O   0  0  0  0  0  0  0  0  0  0  0  0
   16.6844  -13.5298  -18.9693 O   0  0  0  0  0  0  0  0  0  0  0  0
   21.8587   -5.8876  -18.4291 C   0  0  0  0  0  0  0  0  0  0  0  0
   21.1302   -7.1515  -18.8068 C   0  0  1  0  0  0  0  0  0  0  0  0
   21.6594   -7.7548  -20.0860 C   0  0  0  0  0  0  0  0  0  0  0  0
   21.0905   -8.1489  -17.6693 C   0  0  2  0  0  0  0  0  0  0  0  0
   20.3447   -9.3216  -17.9739 N   0  0  0  0  0  0  0  0  0  0  0  0
   20.5299   -7.4461  -16.4860 C   0  0  0  0  0  0  0  0  0  0  0  0
   19.3222   -7.5379  -16.1466 O   0  0  0  0  0  0  0  0  0  0  0  0
   21.3651   -6.6252  -15.6788 N   0  0  0  0  0  0  0  0  0  0  0  0
   20.9850   -6.2917  -14.3200 C   0  0  1  0  0  0  0  0  0  0  0  0
   20.9864   -7.5882  -13.5329 C   0  0  0  0  0  0  0  0  0  0  0  0
   20.5673   -7.1953  -11.8028 S   0  0  0  0  0  0  0  0  0  0  0  0
   21.9128   -5.2927  -13.7336 C   0  0  0  0  0  0  0  0  0  0  0  0
   21.4085   -4.1940  -13.0626 O   0  0  0  0  0  0  0  0  0  0  0  0
   23.1590   -5.4091  -13.8252 O   0  0  0  0  0  0  0  0  0  0  0  0
  2  1  1  1
  2  3  1  0
  4  3  1  0
  5  4  1  0
  6  5  2  0
  7  2  1  0
  7  8  2  0
  9  5  1  0
 11 10  1  1
 11 12  1  0
 11 13  1  0
 13 14  1  6
 14  7  1  0
 15 13  1  0
 16 15  2  0
 17 15  1  0
 18 17  1  0
 18 21  1  0
 19 20  1  0
 18 19  1  1
 21 22  1  0
 23 21  2  0
M  END
$$$$
