EVC.pdb
     RDKit          3D

 23 22  0  0  1  0  0  0  0  0999 V2000
   18.7722  -12.5496  -17.5475 N   0  0  0  0  0  0  0  0  0  0  0  0
   18.1268  -11.3394  -17.1474 C   0  0  1  0  0  0  0  0  0  0  0  0
   17.4152  -11.4970  -15.8473 C   0  0  0  0  0  0  0  0  0  0  0  0
   16.2829  -12.4755  -15.8500 C   0  0  0  0  0  0  0  0  0  0  0  0
   15.5739  -12.6074  -14.5711 C   0  0  0  0  0  0  0  0  0  0  0  0
   14.7754  -11.7430  -14.1354 O   0  0  0  0  0  0  0  0  0  0  0  0
   19.0321  -10.1690  -17.1428 C   0  0  0  0  0  0  0  0  0  0  0  0
   20.2748  -10.3946  -17.1145 O   0  0  0  0  0  0  0  0  0  0  0  0
   15.7418  -13.7273  -13.7320 O   0  0  0  0  0  0  0  0  0  0  0  0
   19.9131   -5.5099  -18.3684 C   0  0  0  0  0  0  0  0  0  0  0  0
   19.0667   -6.7564  -18.3891 C   0  0  1  0  0  0  0  0  0  0  0  0
   18.9784   -7.3635  -19.7690 C   0  0  0  0  0  0  0  0  0  0  0  0
   19.5018   -7.7591  -17.3423 C   0  0  2  0  0  0  0  0  0  0  0  0
   18.5794   -8.8282  -17.1683 N   0  0  0  0  0  0  0  0  0  0  0  0
   19.7057   -7.0118  -16.0740 C   0  0  0  0  0  0  0  0  0  0  0  0
   18.7571   -6.5129  -15.4158 O   0  0  0  0  0  0  0  0  0  0  0  0
   21.0164   -6.8330  -15.5513 N   0  0  0  0  0  0  0  0  0  0  0  0
   21.2357   -6.0388  -14.3582 C   0  0  1  0  0  0  0  0  0  0  0  0
   21.8599   -6.9590  -13.3269 C   0  0  0  0  0  0  0  0  0  0  0  0
   22.3211   -5.9503  -11.8801 S   0  0  0  0  0  0  0  0  0  0  0  0
   22.1018   -4.8683  -14.6451 C   0  0  0  0  0  0  0  0  0  0  0  0
   21.8815   -3.6706  -13.9903 O   0  0  0  0  0  0  0  0  0  0  0  0
   23.0428   -4.9251  -15.4736 O   0  0  0  0  0  0  0  0  0  0  0  0
  2  1  1  1
  2  3  1  0
  4  3  1  0
  5  4  1  0
  6  5  2  0
  7  2  1  0
  7  8  2  0
  9  5  1  0
 11 10  1  6
 11 12  1  0
 11 13  1  0
 13 14  1  1
 14  7  1  0
 15 13  1  0
 16 15  2  0
 17 15  1  0
 18 17  1  0
 18 21  1  0
 19 20  1  0
 18 19  1  1
 21 22  1  0
 23 21  2  0
M  END
$$$$
