EVC.pdb
     RDKit          3D

 23 22  0  0  1  0  0  0  0  0999 V2000
   24.2245  -23.1901  -13.6744 N   0  0  0  0  0  0  0  0  0  0  0  0
   24.2661  -21.7985  -13.3538 C   0  0  1  0  0  0  0  0  0  0  0  0
   25.1817  -21.5224  -12.2106 C   0  0  0  0  0  0  0  0  0  0  0  0
   24.5709  -20.7790  -11.0643 C   0  0  0  0  0  0  0  0  0  0  0  0
   23.1895  -21.1593  -10.7438 C   0  0  0  0  0  0  0  0  0  0  0  0
   22.6395  -22.1938  -11.1931 O   0  0  0  0  0  0  0  0  0  0  0  0
   24.5654  -20.9393  -14.5207 C   0  0  0  0  0  0  0  0  0  0  0  0
   25.4638  -21.3321  -15.3174 O   0  0  0  0  0  0  0  0  0  0  0  0
   22.3735  -20.3804   -9.8990 O   0  0  0  0  0  0  0  0  0  0  0  0
   21.8165  -18.8746  -16.6559 C   0  0  0  0  0  0  0  0  0  0  0  0
   23.2338  -19.1633  -17.0785 C   0  0  1  0  0  0  0  0  0  0  0  0
   23.6229  -18.4059  -18.3258 C   0  0  0  0  0  0  0  0  0  0  0  0
   24.2188  -18.9613  -15.9475 C   0  0  2  0  0  0  0  0  0  0  0  0
   23.9031  -19.7164  -14.7838 N   0  0  0  0  0  0  0  0  0  0  0  0
   24.2574  -17.5056  -15.6511 C   0  0  0  0  0  0  0  0  0  0  0  0
   23.8461  -17.0188  -14.5667 O   0  0  0  0  0  0  0  0  0  0  0  0
   24.7748  -16.5930  -16.6115 N   0  0  0  0  0  0  0  0  0  0  0  0
   25.2668  -15.2909  -16.2057 C   0  0  1  0  0  0  0  0  0  0  0  0
   26.3435  -15.5331  -15.1654 C   0  0  0  0  0  0  0  0  0  0  0  0
   26.9948  -13.9125  -14.6434 S   0  0  0  0  0  0  0  0  0  0  0  0
   25.7879  -14.5287  -17.3677 C   0  0  0  0  0  0  0  0  0  0  0  0
   25.4572  -13.1950  -17.5217 O   0  0  0  0  0  0  0  0  0  0  0  0
   26.5300  -15.0576  -18.2305 O   0  0  0  0  0  0  0  0  0  0  0  0
  2  1  1  6
  2  3  1  0
  4  3  1  0
  5  4  1  0
  6  5  2  0
  7  2  1  0
  7  8  2  0
  9  5  1  0
 11 10  1  1
 11 12  1  0
 11 13  1  0
 13 14  1  1
 14  7  1  0
 15 13  1  0
 16 15  2  0
 17 15  1  0
 18 17  1  0
 18 21  1  0
 19 20  1  0
 18 19  1  1
 21 22  1  0
 23 21  2  0
M  END
$$$$
