EVC.pdb
     RDKit          3D

 23 22  0  0  1  0  0  0  0  0999 V2000
   25.9912  -16.4526  -15.1713 N   0  0  0  0  0  0  0  0  0  0  0  0
   24.9847  -15.6058  -15.7289 C   0  0  1  0  0  0  0  0  0  0  0  0
   23.6169  -16.1564  -15.5108 C   0  0  0  0  0  0  0  0  0  0  0  0
   23.3837  -17.5304  -16.0562 C   0  0  0  0  0  0  0  0  0  0  0  0
   22.0134  -18.0345  -15.9025 C   0  0  0  0  0  0  0  0  0  0  0  0
   21.0023  -17.4117  -16.3078 O   0  0  0  0  0  0  0  0  0  0  0  0
   25.0915  -14.1995  -15.2814 C   0  0  0  0  0  0  0  0  0  0  0  0
   25.2704  -13.9932  -14.0479 O   0  0  0  0  0  0  0  0  0  0  0  0
   21.7329  -19.2683  -15.2816 O   0  0  0  0  0  0  0  0  0  0  0  0
   26.4140   -9.6241  -15.6126 C   0  0  0  0  0  0  0  0  0  0  0  0
   26.3434  -11.0344  -16.1387 C   0  0  1  0  0  0  0  0  0  0  0  0
   27.6139  -11.8066  -15.8741 C   0  0  0  0  0  0  0  0  0  0  0  0
   25.1103  -11.7641  -15.6517 C   0  0  2  0  0  0  0  0  0  0  0  0
   25.0042  -13.0902  -16.1562 N   0  0  0  0  0  0  0  0  0  0  0  0
   23.9320  -10.9450  -16.0378 C   0  0  0  0  0  0  0  0  0  0  0  0
   23.2576  -11.1664  -17.0762 O   0  0  0  0  0  0  0  0  0  0  0  0
   23.5194   -9.8552  -15.2222 N   0  0  0  0  0  0  0  0  0  0  0  0
   22.3169   -9.1087  -15.5366 C   0  0  1  0  0  0  0  0  0  0  0  0
   21.1645  -10.0937  -15.4931 C   0  0  0  0  0  0  0  0  0  0  0  0
   19.6119   -9.1479  -15.6263 S   0  0  0  0  0  0  0  0  0  0  0  0
   22.1172   -7.9880  -14.5843 C   0  0  0  0  0  0  0  0  0  0  0  0
   21.5830   -6.7926  -15.0286 O   0  0  0  0  0  0  0  0  0  0  0  0
   22.4199   -8.0857  -13.3703 O   0  0  0  0  0  0  0  0  0  0  0  0
  2  1  1  1
  2  3  1  0
  4  3  1  0
  5  4  1  0
  6  5  2  0
  7  2  1  0
  7  8  2  0
  9  5  1  0
 11 10  1  1
 11 12  1  0
 11 13  1  0
 13 14  1  6
 14  7  1  0
 15 13  1  0
 16 15  2  0
 17 15  1  0
 18 17  1  0
 18 21  1  0
 19 20  1  0
 18 19  1  1
 21 22  1  0
 23 21  2  0
M  END
$$$$
