EVC.pdb
     RDKit          3D

 23 22  0  0  1  0  0  0  0  0999 V2000
   25.7391  -15.5243  -17.4167 N   0  0  0  0  0  0  0  0  0  0  0  0
   24.7013  -14.5832  -17.6969 C   0  0  1  0  0  0  0  0  0  0  0  0
   23.3944  -15.2580  -17.9380 C   0  0  0  0  0  0  0  0  0  0  0  0
   23.3725  -16.2251  -19.0799 C   0  0  0  0  0  0  0  0  0  0  0  0
   22.8563  -15.6823  -20.3427 C   0  0  0  0  0  0  0  0  0  0  0  0
   21.6355  -15.6556  -20.6314 O   0  0  0  0  0  0  0  0  0  0  0  0
   24.5915  -13.5150  -16.6789 C   0  0  0  0  0  0  0  0  0  0  0  0
   24.5342  -13.8691  -15.4676 O   0  0  0  0  0  0  0  0  0  0  0  0
   23.7052  -15.1463  -21.3319 O   0  0  0  0  0  0  0  0  0  0  0  0
   26.7764  -11.3487  -15.1192 C   0  0  0  0  0  0  0  0  0  0  0  0
   25.7132  -10.4315  -15.6659 C   0  0  1  0  0  0  0  0  0  0  0  0
   26.2039   -9.6298  -16.8480 C   0  0  0  0  0  0  0  0  0  0  0  0
   24.4225  -11.1651  -15.9595 C   0  0  2  0  0  0  0  0  0  0  0  0
   24.5483  -12.1354  -16.9924 N   0  0  0  0  0  0  0  0  0  0  0  0
   23.4020  -10.1411  -16.3038 C   0  0  0  0  0  0  0  0  0  0  0  0
   22.9239  -10.0161  -17.4605 O   0  0  0  0  0  0  0  0  0  0  0  0
   22.9215   -9.2463  -15.3081 N   0  0  0  0  0  0  0  0  0  0  0  0
   21.8496   -8.3159  -15.6039 C   0  0  1  0  0  0  0  0  0  0  0  0
   20.6464   -9.1461  -16.0079 C   0  0  0  0  0  0  0  0  0  0  0  0
   19.2014   -8.0379  -16.0902 S   0  0  0  0  0  0  0  0  0  0  0  0
   21.5523   -7.4514  -14.4348 C   0  0  0  0  0  0  0  0  0  0  0  0
   21.6088   -7.9764  -13.1569 O   0  0  0  0  0  0  0  0  0  0  0  0
   21.2463   -6.2411  -14.5640 O   0  0  0  0  0  0  0  0  0  0  0  0
  2  1  1  1
  2  3  1  0
  4  3  1  0
  5  4  1  0
  6  5  2  0
  7  2  1  0
  7  8  2  0
  9  5  1  0
 11 10  1  6
 11 12  1  0
 11 13  1  0
 13 14  1  6
 14  7  1  0
 15 13  1  0
 16 15  2  0
 17 15  1  0
 18 17  1  0
 18 21  1  0
 19 20  1  0
 18 19  1  1
 21 22  1  0
 23 21  2  0
M  END
$$$$
