QPM.pdb
     RDKit          3D

 25 25  0  0  1  0  0  0  0  0999 V2000
   11.2845  -20.9991   21.6499 N   0  0  0  0  0  0  0  0  0  0  0  0
   11.9765  -19.8913   22.1989 C   0  0  0  0  0  0  0  0  0  0  0  0
   12.6987  -20.0605   23.2004 O   0  0  0  0  0  0  0  0  0  0  0  0
   11.8401  -18.5648   21.5839 C   0  0  0  0  0  0  0  0  0  0  0  0
   10.9805  -18.4544   20.3902 C   0  0  0  0  0  0  0  0  0  0  0  0
   10.7938  -17.0708   19.8100 C   0  0  2  0  0  0  0  0  0  0  0  0
   11.9847  -16.5279   19.2740 N   0  0  0  0  0  0  0  0  0  0  0  0
   10.0933  -16.1677   20.7381 C   0  0  0  0  0  0  0  0  0  0  0  0
   10.8828  -15.2283   21.1931 O   0  0  0  0  0  0  0  0  0  0  0  0
    8.7820  -16.2203   21.1406 N   0  0  0  0  0  0  0  0  0  0  0  0
    7.7015  -17.0940   20.8674 C   0  0  0  0  0  0  0  0  0  0  0  0
    6.6645  -16.0581   20.3509 C   0  0  0  0  0  0  0  0  0  0  0  0
    6.8766  -14.9236   21.3683 C   0  0  0  0  0  0  0  0  0  0  0  0
    8.1876  -15.2151   22.0492 C   0  0  1  0  0  0  0  0  0  0  0  0
    8.0902  -15.6928   23.4248 C   0  0  0  0  0  0  0  0  0  0  0  0
    8.3339  -16.9213   23.6203 O   0  0  0  0  0  0  0  0  0  0  0  0
    5.2893  -12.4170   27.0694 C   0  0  0  0  0  0  0  0  0  0  0  0
    6.9734  -11.7635   27.0104 S   0  0  0  0  0  0  0  0  0  0  0  0
    8.1941  -13.0679   26.7495 C   0  0  0  0  0  0  0  0  0  0  0  0
    7.5264  -14.3938   26.9301 C   0  0  0  0  0  0  0  0  0  0  0  0
    8.0082  -15.3916   25.9452 C   0  0  2  0  0  0  0  0  0  0  0  0
    7.7493  -14.9245   24.5670 N   0  0  0  0  0  0  0  0  0  0  0  0
    7.4278  -16.7101   26.1517 C   0  0  0  0  0  0  0  0  0  0  0  0
    7.7054  -17.4666   27.0936 O   0  0  0  0  0  0  0  0  0  0  0  0
    6.4693  -17.2228   25.2444 O   0  0  0  0  0  0  0  0  0  0  0  0
  2  1  1  0
  3  2  2  0
  4  2  1  0
  5  4  1  0
  6  7  1  1
  6  8  1  0
  6  5  1  0
  8  9  2  0
 10 11  1  0
 10  8  1  0
 11 12  1  0
 13 12  1  0
 14 13  1  0
 14 10  1  0
 14 15  1  1
 16 15  2  0
 18 17  1  0
 19 18  1  0
 20 19  1  0
 21 20  1  1
 21 22  1  0
 22 15  1  0
 23 25  1  0
 23 21  1  0
 24 23  2  0
M  END
$$$$
