QPM.pdb
     RDKit          3D

 25 25  0  0  1  0  0  0  0  0999 V2000
   10.2185  -18.6963   18.9471 N   0  0  0  0  0  0  0  0  0  0  0  0
   11.5907  -18.4911   19.2340 C   0  0  0  0  0  0  0  0  0  0  0  0
   12.2370  -19.3967   19.7956 O   0  0  0  0  0  0  0  0  0  0  0  0
   12.2343  -17.2236   18.8655 C   0  0  0  0  0  0  0  0  0  0  0  0
   11.4033  -16.2121   18.1855 C   0  0  0  0  0  0  0  0  0  0  0  0
   11.7797  -14.7638   18.4007 C   0  0  2  0  0  0  0  0  0  0  0  0
   13.1775  -14.5481   18.4071 N   0  0  0  0  0  0  0  0  0  0  0  0
   11.0813  -14.1725   19.5541 C   0  0  0  0  0  0  0  0  0  0  0  0
   11.9192  -13.7347   20.4593 O   0  0  0  0  0  0  0  0  0  0  0  0
    9.7283  -14.0497   19.7511 N   0  0  0  0  0  0  0  0  0  0  0  0
    8.5853  -14.4393   19.0113 C   0  0  0  0  0  0  0  0  0  0  0  0
    7.8817  -13.0589   18.8897 C   0  0  0  0  0  0  0  0  0  0  0  0
    8.0853  -12.5181   20.3157 C   0  0  0  0  0  0  0  0  0  0  0  0
    9.1548  -13.3767   20.9375 C   0  0  1  0  0  0  0  0  0  0  0  0
    8.6940  -14.3226   21.9488 C   0  0  0  0  0  0  0  0  0  0  0  0
    8.6510  -15.5434   21.6103 O   0  0  0  0  0  0  0  0  0  0  0  0
    9.9104  -14.2365   29.7546 C   0  0  0  0  0  0  0  0  0  0  0  0
    9.0737  -13.5563   28.3041 S   0  0  0  0  0  0  0  0  0  0  0  0
    9.2068  -14.6504   26.8741 C   0  0  0  0  0  0  0  0  0  0  0  0
    8.7461  -13.9108   25.6588 C   0  0  0  0  0  0  0  0  0  0  0  0
    8.7801  -14.7657   24.4481 C   0  0  2  0  0  0  0  0  0  0  0  0
    8.2873  -14.0172   23.2727 N   0  0  0  0  0  0  0  0  0  0  0  0
    8.0311  -16.0025   24.6128 C   0  0  0  0  0  0  0  0  0  0  0  0
    6.8354  -16.1507   24.3213 O   0  0  0  0  0  0  0  0  0  0  0  0
    8.6586  -17.1573   25.1397 O   0  0  0  0  0  0  0  0  0  0  0  0
  2  1  1  0
  3  2  2  0
  4  2  1  0
  5  4  1  0
  6  7  1  1
  6  8  1  0
  6  5  1  0
  8  9  2  0
 10 11  1  0
 10  8  1  0
 11 12  1  0
 13 12  1  0
 14 13  1  0
 14 10  1  0
 14 15  1  1
 16 15  2  0
 18 17  1  0
 19 18  1  0
 20 19  1  0
 21 20  1  1
 21 22  1  0
 22 15  1  0
 23 25  1  0
 23 21  1  0
 24 23  2  0
M  END
$$$$
