QPM.pdb
     RDKit          3D

 25 25  0  0  1  0  0  0  0  0999 V2000
    2.6942  -18.8524   20.9907 N   0  0  0  0  0  0  0  0  0  0  0  0
    3.7397  -18.8256   21.9465 C   0  0  0  0  0  0  0  0  0  0  0  0
    3.6225  -19.4887   22.9952 O   0  0  0  0  0  0  0  0  0  0  0  0
    4.9444  -18.0254   21.6918 C   0  0  0  0  0  0  0  0  0  0  0  0
    4.9991  -17.2623   20.4306 C   0  0  0  0  0  0  0  0  0  0  0  0
    6.2819  -17.3505   19.6354 C   0  0  2  0  0  0  0  0  0  0  0  0
    6.5565  -18.6565   19.1671 N   0  0  0  0  0  0  0  0  0  0  0  0
    7.4140  -16.7184   20.3329 C   0  0  0  0  0  0  0  0  0  0  0  0
    8.4756  -17.4839   20.3325 O   0  0  0  0  0  0  0  0  0  0  0  0
    7.4521  -15.4881   20.9408 N   0  0  0  0  0  0  0  0  0  0  0  0
    6.4852  -14.4863   21.1992 C   0  0  0  0  0  0  0  0  0  0  0  0
    7.1854  -13.2785   20.5164 C   0  0  0  0  0  0  0  0  0  0  0  0
    8.6342  -13.4971   20.9861 C   0  0  0  0  0  0  0  0  0  0  0  0
    8.6974  -14.9128   21.4952 C   0  0  1  0  0  0  0  0  0  0  0  0
    8.7832  -15.0574   22.9449 C   0  0  0  0  0  0  0  0  0  0  0  0
    7.6901  -15.2098   23.5684 O   0  0  0  0  0  0  0  0  0  0  0  0
    9.4874  -14.0522   29.9019 C   0  0  0  0  0  0  0  0  0  0  0  0
    9.3541  -13.7223   28.1299 S   0  0  0  0  0  0  0  0  0  0  0  0
    8.5961  -15.0999   27.2426 C   0  0  0  0  0  0  0  0  0  0  0  0
    8.6661  -14.8227   25.7748 C   0  0  0  0  0  0  0  0  0  0  0  0
    9.9509  -15.2753   25.1897 C   0  0  2  0  0  0  0  0  0  0  0  0
    9.9642  -15.0435   23.7299 N   0  0  0  0  0  0  0  0  0  0  0  0
   10.2419  -16.6703   25.4848 C   0  0  0  0  0  0  0  0  0  0  0  0
   11.1428  -17.0613   26.2411 O   0  0  0  0  0  0  0  0  0  0  0  0
    9.4745  -17.7041   24.8955 O   0  0  0  0  0  0  0  0  0  0  0  0
  2  1  1  0
  3  2  2  0
  4  2  1  0
  5  4  1  0
  6  7  1  1
  6  8  1  0
  6  5  1  0
  8  9  2  0
 10 11  1  0
 10  8  1  0
 11 12  1  0
 13 12  1  0
 14 13  1  0
 14 10  1  0
 14 15  1  1
 16 15  2  0
 18 17  1  0
 19 18  1  0
 20 19  1  0
 21 20  1  6
 21 22  1  0
 22 15  1  0
 23 25  1  0
 23 21  1  0
 24 23  2  0
M  END
$$$$
