QPM.pdb
     RDKit          3D

 25 25  0  0  1  0  0  0  0  0999 V2000
    5.4696  -19.8599   19.8647 N   0  0  0  0  0  0  0  0  0  0  0  0
    6.7647  -19.9926   20.4237 C   0  0  0  0  0  0  0  0  0  0  0  0
    6.9688  -20.8703   21.2847 O   0  0  0  0  0  0  0  0  0  0  0  0
    7.8472  -19.1036   19.9829 C   0  0  0  0  0  0  0  0  0  0  0  0
    7.5116  -18.0643   18.9914 C   0  0  0  0  0  0  0  0  0  0  0  0
    8.6176  -17.1089   18.6041 C   0  0  2  0  0  0  0  0  0  0  0  0
    9.7325  -17.7562   18.0225 N   0  0  0  0  0  0  0  0  0  0  0  0
    8.9681  -16.1896   19.6994 C   0  0  0  0  0  0  0  0  0  0  0  0
   10.2232  -16.3066   20.0512 O   0  0  0  0  0  0  0  0  0  0  0  0
    8.1546  -15.2874   20.3389 N   0  0  0  0  0  0  0  0  0  0  0  0
    6.7673  -15.0067   20.2938 C   0  0  0  0  0  0  0  0  0  0  0  0
    6.8280  -13.4922   19.9506 C   0  0  0  0  0  0  0  0  0  0  0  0
    7.9686  -13.0433   20.8805 C   0  0  0  0  0  0  0  0  0  0  0  0
    8.6714  -14.3024   21.3146 C   0  0  1  0  0  0  0  0  0  0  0  0
    8.4383  -14.7091   22.6967 C   0  0  0  0  0  0  0  0  0  0  0  0
    7.3858  -15.3777   22.9245 O   0  0  0  0  0  0  0  0  0  0  0  0
    6.5661  -10.6512   27.9436 C   0  0  0  0  0  0  0  0  0  0  0  0
    6.3253  -12.0995   26.8895 S   0  0  0  0  0  0  0  0  0  0  0  0
    7.8781  -12.9598   26.5606 C   0  0  0  0  0  0  0  0  0  0  0  0
    7.6242  -14.0453   25.5639 C   0  0  0  0  0  0  0  0  0  0  0  0
    8.8706  -14.7601   25.1988 C   0  0  2  0  0  0  0  0  0  0  0  0
    9.2677  -14.4322   23.8133 N   0  0  0  0  0  0  0  0  0  0  0  0
    8.7615  -16.2014   25.3678 C   0  0  0  0  0  0  0  0  0  0  0  0
    8.4892  -17.0023   24.4617 O   0  0  0  0  0  0  0  0  0  0  0  0
    8.9707  -16.7934   26.6369 O   0  0  0  0  0  0  0  0  0  0  0  0
  2  1  1  0
  3  2  2  0
  4  2  1  0
  5  4  1  0
  6  7  1  1
  6  8  1  0
  6  5  1  0
  8  9  2  0
 10 11  1  0
 10  8  1  0
 11 12  1  0
 13 12  1  0
 14 13  1  0
 14 10  1  0
 14 15  1  1
 16 15  2  0
 18 17  1  0
 19 18  1  0
 20 19  1  0
 21 20  1  6
 21 22  1  0
 22 15  1  0
 23 25  1  0
 23 21  1  0
 24 23  2  0
M  END
$$$$
