QPM.pdb
     RDKit          3D

 25 25  0  0  1  0  0  0  0  0999 V2000
    4.6709  -19.2013   22.5246 N   0  0  0  0  0  0  0  0  0  0  0  0
    6.0528  -19.3896   22.7745 C   0  0  0  0  0  0  0  0  0  0  0  0
    6.4094  -19.9549   23.8264 O   0  0  0  0  0  0  0  0  0  0  0  0
    7.0440  -18.9239   21.7962 C   0  0  0  0  0  0  0  0  0  0  0  0
    6.5411  -18.2157   20.6039 C   0  0  0  0  0  0  0  0  0  0  0  0
    7.5742  -17.7337   19.6108 C   0  0  2  0  0  0  0  0  0  0  0  0
    8.2982  -18.7878   19.0067 N   0  0  0  0  0  0  0  0  0  0  0  0
    8.4259  -16.6688   20.1661 C   0  0  0  0  0  0  0  0  0  0  0  0
    9.6964  -16.9749   20.0968 O   0  0  0  0  0  0  0  0  0  0  0  0
    8.0345  -15.4714   20.7117 N   0  0  0  0  0  0  0  0  0  0  0  0
    6.7819  -14.9082   21.0569 C   0  0  0  0  0  0  0  0  0  0  0  0
    6.8633  -13.5910   20.2361 C   0  0  0  0  0  0  0  0  0  0  0  0
    8.3202  -13.1816   20.5141 C   0  0  0  0  0  0  0  0  0  0  0  0
    8.9981  -14.4067   21.0682 C   0  0  1  0  0  0  0  0  0  0  0  0
    9.2902  -14.3725   22.4977 C   0  0  0  0  0  0  0  0  0  0  0  0
    9.8436  -13.3220   22.9415 O   0  0  0  0  0  0  0  0  0  0  0  0
    6.6024  -11.4124   27.7608 C   0  0  0  0  0  0  0  0  0  0  0  0
    6.4959  -12.0970   26.0914 S   0  0  0  0  0  0  0  0  0  0  0  0
    6.7864  -13.8789   26.0737 C   0  0  0  0  0  0  0  0  0  0  0  0
    7.2796  -14.2718   24.7176 C   0  0  0  0  0  0  0  0  0  0  0  0
    8.5012  -15.1078   24.7969 C   0  0  2  0  0  0  0  0  0  0  0  0
    9.0202  -15.3946   23.4430 N   0  0  0  0  0  0  0  0  0  0  0  0
    8.2877  -16.3459   25.5314 C   0  0  0  0  0  0  0  0  0  0  0  0
    7.9035  -16.4143   26.7079 O   0  0  0  0  0  0  0  0  0  0  0  0
    8.5183  -17.5977   24.9111 O   0  0  0  0  0  0  0  0  0  0  0  0
  2  1  1  0
  3  2  2  0
  4  2  1  0
  5  4  1  0
  6  7  1  1
  6  8  1  0
  6  5  1  0
  8  9  2  0
 10 11  1  0
 10  8  1  0
 11 12  1  0
 13 12  1  0
 14 13  1  0
 14 10  1  0
 14 15  1  1
 16 15  2  0
 18 17  1  0
 19 18  1  0
 20 19  1  0
 21 20  1  6
 21 22  1  0
 22 15  1  0
 23 25  1  0
 23 21  1  0
 24 23  2  0
M  END
$$$$
