QPM.pdb
     RDKit          3D

 25 25  0  0  1  0  0  0  0  0999 V2000
    5.5669  -19.4214   22.7934 N   0  0  0  0  0  0  0  0  0  0  0  0
    5.6525  -19.2894   21.3854 C   0  0  0  0  0  0  0  0  0  0  0  0
    4.6723  -19.6060   20.6838 O   0  0  0  0  0  0  0  0  0  0  0  0
    6.8854  -18.7804   20.7712 C   0  0  0  0  0  0  0  0  0  0  0  0
    6.7511  -17.9852   19.5361 C   0  0  0  0  0  0  0  0  0  0  0  0
    8.0299  -17.4769   18.9099 C   0  0  2  0  0  0  0  0  0  0  0  0
    8.8855  -18.5149   18.4733 N   0  0  0  0  0  0  0  0  0  0  0  0
    8.6982  -16.4684   19.7491 C   0  0  0  0  0  0  0  0  0  0  0  0
    9.9343  -16.8020   20.0207 O   0  0  0  0  0  0  0  0  0  0  0  0
    8.1778  -15.2958   20.2377 N   0  0  0  0  0  0  0  0  0  0  0  0
    6.9438  -14.6209   20.0727 C   0  0  0  0  0  0  0  0  0  0  0  0
    7.4732  -13.2451   19.5806 C   0  0  0  0  0  0  0  0  0  0  0  0
    8.6662  -13.0512   20.5327 C   0  0  0  0  0  0  0  0  0  0  0  0
    8.9385  -14.4024   21.1391 C   0  0  1  0  0  0  0  0  0  0  0  0
    8.5489  -14.5553   22.5372 C   0  0  0  0  0  0  0  0  0  0  0  0
    7.3832  -15.0010   22.7589 O   0  0  0  0  0  0  0  0  0  0  0  0
    5.3652  -11.4586   28.0407 C   0  0  0  0  0  0  0  0  0  0  0  0
    5.5086  -12.3381   26.4682 S   0  0  0  0  0  0  0  0  0  0  0  0
    6.9184  -13.4658   26.4525 C   0  0  0  0  0  0  0  0  0  0  0  0
    7.5809  -13.3882   25.1141 C   0  0  0  0  0  0  0  0  0  0  0  0
    8.7881  -14.2460   25.0466 C   0  0  2  0  0  0  0  0  0  0  0  0
    9.3399  -14.2550   23.6754 N   0  0  0  0  0  0  0  0  0  0  0  0
    8.5371  -15.6053   25.5017 C   0  0  0  0  0  0  0  0  0  0  0  0
    8.0758  -15.9067   26.6121 O   0  0  0  0  0  0  0  0  0  0  0  0
    8.8201  -16.7081   24.6600 O   0  0  0  0  0  0  0  0  0  0  0  0
  2  1  1  0
  3  2  2  0
  4  2  1  0
  5  4  1  0
  6  7  1  1
  6  8  1  0
  6  5  1  0
  8  9  2  0
 10 11  1  0
 10  8  1  0
 11 12  1  0
 13 12  1  0
 14 13  1  0
 14 10  1  0
 14 15  1  1
 16 15  2  0
 18 17  1  0
 19 18  1  0
 20 19  1  0
 21 20  1  6
 21 22  1  0
 22 15  1  0
 23 25  1  0
 23 21  1  0
 24 23  2  0
M  END
$$$$
