QPM.pdb
     RDKit          3D

 25 25  0  0  1  0  0  0  0  0999 V2000
    4.1488  -18.5181   21.5093 N   0  0  0  0  0  0  0  0  0  0  0  0
    5.3843  -18.4427   22.1988 C   0  0  0  0  0  0  0  0  0  0  0  0
    5.3910  -18.5021   23.4436 O   0  0  0  0  0  0  0  0  0  0  0  0
    6.6362  -18.3004   21.4446 C   0  0  0  0  0  0  0  0  0  0  0  0
    6.5366  -18.1912   19.9769 C   0  0  0  0  0  0  0  0  0  0  0  0
    7.6501  -17.4512   19.2710 C   0  0  2  0  0  0  0  0  0  0  0  0
    8.5352  -18.3093   18.5777 N   0  0  0  0  0  0  0  0  0  0  0  0
    8.3264  -16.4878   20.1554 C   0  0  0  0  0  0  0  0  0  0  0  0
    9.4883  -16.9320   20.5623 O   0  0  0  0  0  0  0  0  0  0  0  0
    7.8789  -15.2556   20.5629 N   0  0  0  0  0  0  0  0  0  0  0  0
    6.6400  -14.5763   20.4680 C   0  0  0  0  0  0  0  0  0  0  0  0
    7.1184  -13.2778   19.7605 C   0  0  0  0  0  0  0  0  0  0  0  0
    8.4188  -13.0035   20.5356 C   0  0  0  0  0  0  0  0  0  0  0  0
    8.7502  -14.2826   21.2581 C   0  0  1  0  0  0  0  0  0  0  0  0
    8.5303  -14.2660   22.7007 C   0  0  0  0  0  0  0  0  0  0  0  0
    7.7301  -13.3892   23.1455 O   0  0  0  0  0  0  0  0  0  0  0  0
    6.9083  -11.5426   27.3146 C   0  0  0  0  0  0  0  0  0  0  0  0
    5.9050  -12.8555   26.5823 S   0  0  0  0  0  0  0  0  0  0  0  0
    6.9111  -14.2595   26.0569 C   0  0  0  0  0  0  0  0  0  0  0  0
    8.1553  -13.7428   25.4078 C   0  0  0  0  0  0  0  0  0  0  0  0
    9.1130  -14.8336   25.1066 C   0  0  2  0  0  0  0  0  0  0  0  0
    9.1210  -15.1293   23.6584 N   0  0  0  0  0  0  0  0  0  0  0  0
    8.8447  -16.0431   25.8701 C   0  0  0  0  0  0  0  0  0  0  0  0
    8.9010  -16.1280   27.1055 O   0  0  0  0  0  0  0  0  0  0  0  0
    8.4880  -17.2443   25.2106 O   0  0  0  0  0  0  0  0  0  0  0  0
  2  1  1  0
  3  2  2  0
  4  2  1  0
  5  4  1  0
  6  7  1  1
  6  8  1  0
  6  5  1  0
  8  9  2  0
 10 11  1  0
 10  8  1  0
 11 12  1  0
 13 12  1  0
 14 13  1  0
 14 10  1  0
 14 15  1  1
 16 15  2  0
 18 17  1  0
 19 18  1  0
 20 19  1  0
 21 20  1  6
 21 22  1  0
 22 15  1  0
 23 25  1  0
 23 21  1  0
 24 23  2  0
M  END
$$$$
