KSS.pdb
     RDKit          3D

 22 21  0  0  1  0  0  0  0  0999 V2000
   18.8325  -12.4637  -16.2413 N   0  0  0  0  0  0  0  0  0  0  0  0
   18.1909  -11.1301  -16.2080 C   0  0  1  0  0  0  0  0  0  0  0  0
   16.7567  -11.3622  -15.9533 C   0  0  0  0  0  0  0  0  0  0  0  0
   15.9704  -12.0951  -16.9737 C   0  0  0  0  0  0  0  0  0  0  0  0
   14.5486  -12.3820  -16.6756 C   0  0  0  0  0  0  0  0  0  0  0  0
   13.9005  -13.0569  -17.8701 C   0  0  0  0  0  0  0  0  0  0  0  0
   13.0313  -14.1070  -17.4059 N   0  0  0  0  0  0  0  0  0  0  0  0
   18.8845  -10.2821  -15.2277 C   0  0  0  0  0  0  0  0  0  0  0  0
   18.6287  -10.2646  -14.0002 O   0  0  0  0  0  0  0  0  0  0  0  0
   22.6796   -9.5060  -15.2670 O   0  0  0  0  0  0  0  0  0  0  0  0
   21.8336   -9.2643  -14.1793 C   0  0  0  0  0  0  0  0  0  0  0  0
   20.5849   -8.5536  -14.6478 C   0  0  2  0  0  0  0  0  0  0  0  0
   19.9393   -9.3781  -15.6226 N   0  0  0  0  0  0  0  0  0  0  0  0
   20.9274   -7.2016  -15.2084 C   0  0  0  0  0  0  0  0  0  0  0  0
   21.3290   -7.1509  -16.3800 O   0  0  0  0  0  0  0  0  0  0  0  0
   19.4324   -3.9068  -13.4832 O   0  0  0  0  0  0  0  0  0  0  0  0
   19.9546   -3.8151  -14.7794 C   0  0  0  0  0  0  0  0  0  0  0  0
   21.1490   -4.7045  -14.9622 C   0  0  2  0  0  0  0  0  0  0  0  0
   20.8006   -6.0221  -14.4379 N   0  0  0  0  0  0  0  0  0  0  0  0
   22.2828   -4.1175  -14.1971 C   0  0  0  0  0  0  0  0  0  0  0  0
   22.8690   -2.9256  -14.5966 O   0  0  0  0  0  0  0  0  0  0  0  0
   22.7429   -4.6776  -13.1722 O   0  0  0  0  0  0  0  0  0  0  0  0
  2  1  1  1
  2  3  1  0
  2  8  1  0
  3  4  1  0
  5  6  1  0
  5  4  1  0
  6  7  1  0
  8  9  2  0
 11 10  1  0
 12 11  1  6
 13  8  1  0
 13 12  1  0
 14 12  1  0
 14 19  1  0
 15 14  2  0
 16 17  1  0
 18 19  1  0
 18 17  1  1
 20 18  1  0
 20 21  1  0
 22 20  2  0
M  END
$$$$
