KSS.pdb
     RDKit          3D

 22 21  0  0  1  0  0  0  0  0999 V2000
   17.7562  -12.3243  -18.3289 N   0  0  0  0  0  0  0  0  0  0  0  0
   18.5714  -11.8857  -17.1738 C   0  0  1  0  0  0  0  0  0  0  0  0
   19.8369  -12.6402  -17.2444 C   0  0  0  0  0  0  0  0  0  0  0  0
   19.7920  -14.1092  -17.0523 C   0  0  0  0  0  0  0  0  0  0  0  0
   19.5889  -14.6203  -15.6775 C   0  0  0  0  0  0  0  0  0  0  0  0
   19.7226  -16.1317  -15.6675 C   0  0  0  0  0  0  0  0  0  0  0  0
   19.5246  -16.6153  -14.3256 N   0  0  0  0  0  0  0  0  0  0  0  0
   18.6988  -10.4214  -17.1976 C   0  0  0  0  0  0  0  0  0  0  0  0
   18.9210   -9.7468  -18.2312 O   0  0  0  0  0  0  0  0  0  0  0  0
   17.5779   -8.0794  -13.9725 O   0  0  0  0  0  0  0  0  0  0  0  0
   17.6194   -7.5710  -15.2752 C   0  0  0  0  0  0  0  0  0  0  0  0
   18.7526   -8.2133  -16.0413 C   0  0  2  0  0  0  0  0  0  0  0  0
   18.5776   -9.6326  -15.9940 N   0  0  0  0  0  0  0  0  0  0  0  0
   20.0782   -7.8014  -15.4646 C   0  0  0  0  0  0  0  0  0  0  0  0
   20.6003   -8.5549  -14.6302 O   0  0  0  0  0  0  0  0  0  0  0  0
   23.7539   -4.5864  -15.7004 O   0  0  0  0  0  0  0  0  0  0  0  0
   22.5351   -5.0856  -16.1763 C   0  0  0  0  0  0  0  0  0  0  0  0
   22.0129   -6.1955  -15.3122 C   0  0  2  0  0  0  0  0  0  0  0  0
   20.7176   -6.6002  -15.8513 N   0  0  0  0  0  0  0  0  0  0  0  0
   21.8650   -5.6712  -13.9271 C   0  0  0  0  0  0  0  0  0  0  0  0
   22.8900   -5.8060  -13.0024 O   0  0  0  0  0  0  0  0  0  0  0  0
   20.8152   -5.0938  -13.5523 O   0  0  0  0  0  0  0  0  0  0  0  0
  2  1  1  6
  2  3  1  0
  2  8  1  0
  3  4  1  0
  5  6  1  0
  5  4  1  0
  6  7  1  0
  8  9  2  0
 11 10  1  0
 12 11  1  1
 13  8  1  0
 13 12  1  0
 14 12  1  0
 14 19  1  0
 15 14  2  0
 16 17  1  0
 18 19  1  0
 18 17  1  6
 20 18  1  0
 20 21  1  0
 22 20  2  0
M  END
$$$$
