KSS.pdb
     RDKit          3D

 22 21  0  0  1  0  0  0  0  0999 V2000
   16.2362  -10.9787  -15.2885 N   0  0  0  0  0  0  0  0  0  0  0  0
   17.6966  -11.1808  -15.4210 C   0  0  1  0  0  0  0  0  0  0  0  0
   17.8787  -12.3561  -16.2935 C   0  0  0  0  0  0  0  0  0  0  0  0
   17.0533  -13.5595  -16.0344 C   0  0  0  0  0  0  0  0  0  0  0  0
   17.2548  -14.2727  -14.7524 C   0  0  0  0  0  0  0  0  0  0  0  0
   16.3629  -15.4992  -14.7023 C   0  0  0  0  0  0  0  0  0  0  0  0
   16.6504  -16.2445  -13.5041 N   0  0  0  0  0  0  0  0  0  0  0  0
   18.3185   -9.9344  -15.8907 C   0  0  0  0  0  0  0  0  0  0  0  0
   19.5330   -9.8140  -16.1791 O   0  0  0  0  0  0  0  0  0  0  0  0
   16.2546   -6.3264  -15.6894 O   0  0  0  0  0  0  0  0  0  0  0  0
   17.1436   -6.4807  -16.7586 C   0  0  0  0  0  0  0  0  0  0  0  0
   18.2038   -7.4970  -16.4025 C   0  0  2  0  0  0  0  0  0  0  0  0
   17.5513   -8.7217  -16.0541 N   0  0  0  0  0  0  0  0  0  0  0  0
   19.0626   -6.9901  -15.2777 C   0  0  0  0  0  0  0  0  0  0  0  0
   18.7077   -7.2554  -14.1200 O   0  0  0  0  0  0  0  0  0  0  0  0
   23.2827   -5.3631  -13.7140 O   0  0  0  0  0  0  0  0  0  0  0  0
   22.4560   -5.9206  -14.6974 C   0  0  0  0  0  0  0  0  0  0  0  0
   21.0075   -5.6269  -14.4385 C   0  0  2  0  0  0  0  0  0  0  0  0
   20.2356   -6.2367  -15.5177 N   0  0  0  0  0  0  0  0  0  0  0  0
   20.8297   -4.1492  -14.4353 C   0  0  0  0  0  0  0  0  0  0  0  0
   20.5478   -3.4643  -15.6080 O   0  0  0  0  0  0  0  0  0  0  0  0
   20.9281   -3.4785  -13.3788 O   0  0  0  0  0  0  0  0  0  0  0  0
  2  1  1  6
  2  3  1  0
  2  8  1  0
  3  4  1  0
  5  6  1  0
  5  4  1  0
  6  7  1  0
  8  9  2  0
 11 10  1  0
 12 11  1  1
 13  8  1  0
 13 12  1  0
 14 12  1  0
 14 19  1  0
 15 14  2  0
 16 17  1  0
 18 19  1  0
 18 17  1  6
 20 18  1  0
 20 21  1  0
 22 20  2  0
M  END
$$$$
