KSS.pdb
     RDKit          3D

 22 21  0  0  1  0  0  0  0  0999 V2000
   16.8656   -9.9002  -13.3707 N   0  0  0  0  0  0  0  0  0  0  0  0
   17.5610   -9.3657  -14.5632 C   0  0  1  0  0  0  0  0  0  0  0  0
   16.5098   -8.9940  -15.5288 C   0  0  0  0  0  0  0  0  0  0  0  0
   15.3894   -9.9391  -15.7478 C   0  0  0  0  0  0  0  0  0  0  0  0
   14.3804   -9.5888  -16.7734 C   0  0  0  0  0  0  0  0  0  0  0  0
   13.3267  -10.6780  -16.8490 C   0  0  0  0  0  0  0  0  0  0  0  0
   12.3501  -10.3231  -17.8461 N   0  0  0  0  0  0  0  0  0  0  0  0
   18.4639   -8.2806  -14.1529 C   0  0  0  0  0  0  0  0  0  0  0  0
   18.1475   -7.3548  -13.3683 O   0  0  0  0  0  0  0  0  0  0  0  0
   22.4722   -8.3113  -15.2405 O   0  0  0  0  0  0  0  0  0  0  0  0
   22.0691   -7.6479  -14.0766 C   0  0  0  0  0  0  0  0  0  0  0  0
   20.6656   -7.1149  -14.2491 C   0  0  2  0  0  0  0  0  0  0  0  0
   19.8198   -8.1994  -14.6434 N   0  0  0  0  0  0  0  0  0  0  0  0
   20.6450   -6.0033  -15.2607 C   0  0  0  0  0  0  0  0  0  0  0  0
   20.5251   -6.3155  -16.4544 O   0  0  0  0  0  0  0  0  0  0  0  0
   18.4784   -3.0971  -15.7411 O   0  0  0  0  0  0  0  0  0  0  0  0
   19.7570   -2.5730  -15.5138 C   0  0  0  0  0  0  0  0  0  0  0  0
   20.8325   -3.5624  -15.8540 C   0  0  2  0  0  0  0  0  0  0  0  0
   20.7576   -4.6461  -14.8781 N   0  0  0  0  0  0  0  0  0  0  0  0
   22.1449   -2.8658  -15.7661 C   0  0  0  0  0  0  0  0  0  0  0  0
   22.5127   -1.9199  -16.7115 O   0  0  0  0  0  0  0  0  0  0  0  0
   22.9567   -3.1095  -14.8402 O   0  0  0  0  0  0  0  0  0  0  0  0
  2  1  1  1
  2  3  1  0
  2  8  1  0
  3  4  1  0
  5  6  1  0
  5  4  1  0
  6  7  1  0
  8  9  2  0
 11 10  1  0
 12 11  1  6
 13  8  1  0
 13 12  1  0
 14 12  1  0
 14 19  1  0
 15 14  2  0
 16 17  1  0
 18 19  1  0
 18 17  1  1
 20 18  1  0
 20 21  1  0
 22 20  2  0
M  END
$$$$
