TIG.pdb
     RDKit          3D

 20 19  0  0  1  0  0  0  0  0999 V2000
    6.8201  -16.0794   20.6480 C   0  0  0  0  0  0  0  0  0  0  0  0
    7.5434  -14.9364   20.0115 C   0  0  1  0  0  0  0  0  0  0  0  0
    7.1534  -14.8022   18.6775 O   0  0  0  0  0  0  0  0  0  0  0  0
    7.2949  -13.6131   20.6831 C   0  0  2  0  0  0  0  0  0  0  0  0
    7.7541  -12.5713   19.7775 N   0  0  0  0  0  0  0  0  0  0  0  0
    8.0160  -13.5042   21.9821 C   0  0  0  0  0  0  0  0  0  0  0  0
    9.1962  -13.1418   21.9626 O   0  0  0  0  0  0  0  0  0  0  0  0
    5.8879  -11.3568   26.3671 C   0  0  0  0  0  0  0  0  0  0  0  0
    6.9066  -11.9034   25.3956 C   0  0  0  0  0  0  0  0  0  0  0  0
    7.1346  -13.4066   25.6012 C   0  0  2  0  0  0  0  0  0  0  0  0
    7.8425  -13.5005   26.9311 C   0  0  0  0  0  0  0  0  0  0  0  0
    8.0138  -13.8781   24.5088 C   0  0  2  0  0  0  0  0  0  0  0  0
    7.4110  -13.7935   23.1979 N   0  0  0  0  0  0  0  0  0  0  0  0
    8.4687  -15.2591   24.6735 C   0  0  0  0  0  0  0  0  0  0  0  0
    7.6070  -16.2016   24.8969 O   0  0  0  0  0  0  0  0  0  0  0  0
    9.8004  -15.7392   24.6141 N   0  0  0  0  0  0  0  0  0  0  0  0
   10.0973  -17.1483   24.8775 C   0  0  0  0  0  0  0  0  0  0  0  0
   11.5324  -17.4023   24.7277 C   0  0  0  0  0  0  0  0  0  0  0  0
   12.2791  -16.4913   24.2976 O   0  0  0  0  0  0  0  0  0  0  0  0
   12.1024  -18.6211   25.0457 O   0  0  0  0  0  0  0  0  0  0  0  0
  2  1  1  1
  3  2  1  0
  4  5  1  6
  4  2  1  0
  6  4  1  0
  7  6  2  0
  9 10  1  0
  9  8  1  0
 10 11  1  1
 12 10  1  0
 12 13  1  6
 13  6  1  0
 14 12  1  0
 15 14  2  0
 16 14  1  0
 17 16  1  0
 18 17  1  0
 19 18  2  0
 20 18  1  0
M  END
$$$$
