TIG.pdb
     RDKit          3D

 20 19  0  0  1  0  0  0  0  0999 V2000
    6.9413  -16.2841   20.6977 C   0  0  0  0  0  0  0  0  0  0  0  0
    7.6341  -15.1480   20.0163 C   0  0  1  0  0  0  0  0  0  0  0  0
    7.2003  -15.0429   18.6933 O   0  0  0  0  0  0  0  0  0  0  0  0
    7.3961  -13.8139   20.6701 C   0  0  2  0  0  0  0  0  0  0  0  0
    7.8725  -12.7884   19.7548 N   0  0  0  0  0  0  0  0  0  0  0  0
    8.1101  -13.6969   21.9723 C   0  0  0  0  0  0  0  0  0  0  0  0
    9.3058  -13.3894   21.9533 O   0  0  0  0  0  0  0  0  0  0  0  0
    5.6607  -11.5266   26.1468 C   0  0  0  0  0  0  0  0  0  0  0  0
    6.7745  -12.0244   25.2568 C   0  0  0  0  0  0  0  0  0  0  0  0
    7.1473  -13.4779   25.5767 C   0  0  2  0  0  0  0  0  0  0  0  0
    7.8675  -13.3979   26.9009 C   0  0  0  0  0  0  0  0  0  0  0  0
    8.0625  -13.9481   24.5137 C   0  0  2  0  0  0  0  0  0  0  0  0
    7.4820  -13.9198   23.1904 N   0  0  0  0  0  0  0  0  0  0  0  0
    8.5611  -15.3075   24.7246 C   0  0  0  0  0  0  0  0  0  0  0  0
    7.7367  -16.3079   24.7121 O   0  0  0  0  0  0  0  0  0  0  0  0
    9.9017  -15.7071   24.9494 N   0  0  0  0  0  0  0  0  0  0  0  0
   10.2548  -17.1260   25.0200 C   0  0  0  0  0  0  0  0  0  0  0  0
   10.4855  -17.5242   26.4110 C   0  0  0  0  0  0  0  0  0  0  0  0
    9.9645  -16.8595   27.3379 O   0  0  0  0  0  0  0  0  0  0  0  0
   11.2641  -18.6166   26.7456 O   0  0  0  0  0  0  0  0  0  0  0  0
  2  1  1  1
  3  2  1  0
  4  5  1  6
  4  2  1  0
  6  4  1  0
  7  6  2  0
  9 10  1  0
  9  8  1  0
 10 11  1  1
 12 10  1  0
 12 13  1  6
 13  6  1  0
 14 12  1  0
 15 14  2  0
 16 14  1  0
 17 16  1  0
 18 17  1  0
 19 18  2  0
 20 18  1  0
M  END
$$$$
