TIG.pdb
     RDKit          3D

 20 19  0  0  1  0  0  0  0  0999 V2000
    6.2518  -16.2880   19.8664 C   0  0  0  0  0  0  0  0  0  0  0  0
    6.9747  -15.8609   21.1033 C   0  0  1  0  0  0  0  0  0  0  0  0
    8.2843  -16.3451   21.0876 O   0  0  0  0  0  0  0  0  0  0  0  0
    7.0543  -14.3680   21.2732 C   0  0  2  0  0  0  0  0  0  0  0  0
    7.6651  -13.8239   20.0701 N   0  0  0  0  0  0  0  0  0  0  0  0
    7.8626  -13.9857   22.4647 C   0  0  0  0  0  0  0  0  0  0  0  0
    9.0020  -13.5484   22.2775 O   0  0  0  0  0  0  0  0  0  0  0  0
    5.5574  -11.5809   26.7751 C   0  0  0  0  0  0  0  0  0  0  0  0
    6.5973  -12.0221   25.7729 C   0  0  0  0  0  0  0  0  0  0  0  0
    7.1433  -13.4177   26.1015 C   0  0  2  0  0  0  0  0  0  0  0  0
    7.9086  -13.2279   27.3887 C   0  0  0  0  0  0  0  0  0  0  0  0
    8.0566  -13.8090   25.0054 C   0  0  2  0  0  0  0  0  0  0  0  0
    7.3817  -14.1041   23.7619 N   0  0  0  0  0  0  0  0  0  0  0  0
    8.8879  -14.9718   25.3184 C   0  0  0  0  0  0  0  0  0  0  0  0
    9.6057  -14.9819   26.3978 O   0  0  0  0  0  0  0  0  0  0  0  0
    9.0215  -16.1625   24.5621 N   0  0  0  0  0  0  0  0  0  0  0  0
    9.8375  -17.2725   25.0573 C   0  0  0  0  0  0  0  0  0  0  0  0
   11.2586  -17.0025   24.8245 C   0  0  0  0  0  0  0  0  0  0  0  0
   11.6209  -16.4989   23.7347 O   0  0  0  0  0  0  0  0  0  0  0  0
   12.2270  -17.2844   25.7701 O   0  0  0  0  0  0  0  0  0  0  0  0
  2  1  1  6
  3  2  1  0
  4  5  1  6
  4  2  1  0
  6  4  1  0
  7  6  2  0
  9 10  1  0
  9  8  1  0
 10 11  1  1
 12 10  1  0
 12 13  1  6
 13  6  1  0
 14 12  1  0
 15 14  2  0
 16 14  1  0
 17 16  1  0
 18 17  1  0
 19 18  2  0
 20 18  1  0
M  END
$$$$
