TIG.pdb
     RDKit          3D

 20 19  0  0  1  0  0  0  0  0999 V2000
    5.5805  -20.0339   24.2421 C   0  0  0  0  0  0  0  0  0  0  0  0
    6.4877  -18.9083   24.6226 C   0  0  1  0  0  0  0  0  0  0  0  0
    7.8216  -19.2912   24.4686 O   0  0  0  0  0  0  0  0  0  0  0  0
    6.2846  -17.6632   23.8026 C   0  0  2  0  0  0  0  0  0  0  0  0
    6.4621  -18.0272   22.4053 N   0  0  0  0  0  0  0  0  0  0  0  0
    7.2515  -16.5911   24.1699 C   0  0  0  0  0  0  0  0  0  0  0  0
    8.2114  -16.3927   23.4190 O   0  0  0  0  0  0  0  0  0  0  0  0
    5.3547  -12.0625   26.2213 C   0  0  0  0  0  0  0  0  0  0  0  0
    6.4091  -12.8993   25.5370 C   0  0  0  0  0  0  0  0  0  0  0  0
    7.2357  -13.7050   26.5476 C   0  0  2  0  0  0  0  0  0  0  0  0
    8.2034  -12.7012   27.1262 C   0  0  0  0  0  0  0  0  0  0  0  0
    7.9601  -14.7537   25.7965 C   0  0  2  0  0  0  0  0  0  0  0  0
    7.1095  -15.8181   25.3145 N   0  0  0  0  0  0  0  0  0  0  0  0
    9.0353  -15.3882   26.5596 C   0  0  0  0  0  0  0  0  0  0  0  0
   10.0434  -14.6819   26.9667 O   0  0  0  0  0  0  0  0  0  0  0  0
    9.1312  -16.7488   26.9430 N   0  0  0  0  0  0  0  0  0  0  0  0
   10.0688  -17.1648   27.9875 C   0  0  0  0  0  0  0  0  0  0  0  0
   11.1943  -17.8953   27.3992 C   0  0  0  0  0  0  0  0  0  0  0  0
   11.3653  -17.8698   26.1572 O   0  0  0  0  0  0  0  0  0  0  0  0
   12.0855  -18.6201   28.1686 O   0  0  0  0  0  0  0  0  0  0  0  0
  2  1  1  6
  3  2  1  0
  4  5  1  6
  4  2  1  0
  6  4  1  0
  7  6  2  0
  9 10  1  0
  9  8  1  0
 10 11  1  6
 12 10  1  0
 12 13  1  1
 13  6  1  0
 14 12  1  0
 15 14  2  0
 16 14  1  0
 17 16  1  0
 18 17  1  0
 19 18  2  0
 20 18  1  0
M  END
$$$$
