TIG.pdb
     RDKit          3D

 20 19  0  0  1  0  0  0  0  0999 V2000
    7.1764  -16.4943   20.8501 C   0  0  0  0  0  0  0  0  0  0  0  0
    7.7095  -15.2780   20.1634 C   0  0  1  0  0  0  0  0  0  0  0  0
    7.2539  -15.2307   18.8444 O   0  0  0  0  0  0  0  0  0  0  0  0
    7.3059  -13.9860   20.8203 C   0  0  2  0  0  0  0  0  0  0  0  0
    7.6049  -12.9103   19.8876 N   0  0  0  0  0  0  0  0  0  0  0  0
    8.0357  -13.7602   22.0993 C   0  0  0  0  0  0  0  0  0  0  0  0
    9.1821  -13.3052   22.0412 O   0  0  0  0  0  0  0  0  0  0  0  0
    5.8050  -11.4063   26.1983 C   0  0  0  0  0  0  0  0  0  0  0  0
    6.8527  -11.9974   25.2854 C   0  0  0  0  0  0  0  0  0  0  0  0
    7.2178  -13.4298   25.6963 C   0  0  2  0  0  0  0  0  0  0  0  0
    7.9789  -13.2668   26.9897 C   0  0  0  0  0  0  0  0  0  0  0  0
    8.0945  -13.9865   24.6428 C   0  0  2  0  0  0  0  0  0  0  0  0
    7.4752  -14.0413   23.3380 N   0  0  0  0  0  0  0  0  0  0  0  0
    8.5812  -15.3355   24.9336 C   0  0  0  0  0  0  0  0  0  0  0  0
    7.7437  -16.3217   25.0142 O   0  0  0  0  0  0  0  0  0  0  0  0
    9.9225  -15.7387   25.1475 N   0  0  0  0  0  0  0  0  0  0  0  0
   10.2585  -17.1544   25.3093 C   0  0  0  0  0  0  0  0  0  0  0  0
   10.3872  -17.4874   26.7302 C   0  0  0  0  0  0  0  0  0  0  0  0
   10.0008  -16.6652   27.5945 O   0  0  0  0  0  0  0  0  0  0  0  0
   10.9242  -18.6866   27.1605 O   0  0  0  0  0  0  0  0  0  0  0  0
  2  1  1  1
  3  2  1  0
  4  5  1  6
  4  2  1  0
  6  4  1  0
  7  6  2  0
  9 10  1  0
  9  8  1  0
 10 11  1  1
 12 10  1  0
 12 13  1  6
 13  6  1  0
 14 12  1  0
 15 14  2  0
 16 14  1  0
 17 16  1  0
 18 17  1  0
 19 18  2  0
 20 18  1  0
M  END
$$$$
