TIG.pdb
     RDKit          3D

 20 19  0  0  1  0  0  0  0  0999 V2000
    5.4025  -19.8244   23.7760 C   0  0  0  0  0  0  0  0  0  0  0  0
    6.3290  -18.6734   24.0035 C   0  0  1  0  0  0  0  0  0  0  0  0
    7.5687  -18.9288   23.4140 O   0  0  0  0  0  0  0  0  0  0  0  0
    5.8276  -17.3718   23.4393 C   0  0  2  0  0  0  0  0  0  0  0  0
    5.6324  -17.5621   22.0103 N   0  0  0  0  0  0  0  0  0  0  0  0
    6.7887  -16.2575   23.6716 C   0  0  0  0  0  0  0  0  0  0  0  0
    7.5663  -15.9616   22.7593 O   0  0  0  0  0  0  0  0  0  0  0  0
    5.3661  -12.0353   26.7482 C   0  0  0  0  0  0  0  0  0  0  0  0
    6.1810  -12.7537   25.6992 C   0  0  0  0  0  0  0  0  0  0  0  0
    7.2660  -13.6350   26.3315 C   0  0  2  0  0  0  0  0  0  0  0  0
    8.3343  -12.6613   26.7664 C   0  0  0  0  0  0  0  0  0  0  0  0
    7.7804  -14.5354   25.2763 C   0  0  2  0  0  0  0  0  0  0  0  0
    6.8371  -15.5506   24.8657 N   0  0  0  0  0  0  0  0  0  0  0  0
    9.0129  -15.2322   25.6461 C   0  0  0  0  0  0  0  0  0  0  0  0
    9.0203  -16.0385   26.6611 O   0  0  0  0  0  0  0  0  0  0  0  0
   10.2745  -15.1466   25.0069 N   0  0  0  0  0  0  0  0  0  0  0  0
   11.4071  -15.9422   25.4837 C   0  0  0  0  0  0  0  0  0  0  0  0
   12.2677  -16.3254   24.3615 C   0  0  0  0  0  0  0  0  0  0  0  0
   11.8027  -16.3197   23.1969 O   0  0  0  0  0  0  0  0  0  0  0  0
   13.5875  -16.6973   24.5382 O   0  0  0  0  0  0  0  0  0  0  0  0
  2  1  1  6
  3  2  1  0
  4  5  1  6
  4  2  1  0
  6  4  1  0
  7  6  2  0
  9 10  1  0
  9  8  1  0
 10 11  1  6
 12 10  1  0
 12 13  1  1
 13  6  1  0
 14 12  1  0
 15 14  2  0
 16 14  1  0
 17 16  1  0
 18 17  1  0
 19 18  2  0
 20 18  1  0
M  END
$$$$
