QAL.pdb
     RDKit          3D

 23 22  0  0  1  0  0  0  0  0999 V2000
   10.7954  -21.0436   18.3009 N   0  0  0  0  0  0  0  0  0  0  0  0
   11.7128  -21.0634   19.3712 C   0  0  0  0  0  0  0  0  0  0  0  0
   12.6324  -21.9055   19.3703 O   0  0  0  0  0  0  0  0  0  0  0  0
   11.5660  -20.0891   20.4656 C   0  0  0  0  0  0  0  0  0  0  0  0
   10.4162  -19.1467   20.3339 C   0  0  0  0  0  0  0  0  0  0  0  0
   10.0036  -18.4703   21.6131 C   0  0  2  0  0  0  0  0  0  0  0  0
    8.7247  -19.0769   21.9925 N   0  0  0  0  0  0  0  0  0  0  0  0
    9.7566  -17.0221   21.4185 C   0  0  0  0  0  0  0  0  0  0  0  0
   10.7249  -16.2604   21.2055 O   0  0  0  0  0  0  0  0  0  0  0  0
    6.6887  -14.9893   20.8324 C   0  0  0  0  0  0  0  0  0  0  0  0
    8.1642  -15.0584   21.2396 C   0  0  2  0  0  0  0  0  0  0  0  0
    8.4623  -16.4459   21.4616 N   0  0  0  0  0  0  0  0  0  0  0  0
    8.3047  -14.2352   22.4567 C   0  0  0  0  0  0  0  0  0  0  0  0
    8.2447  -12.9806   22.4853 O   0  0  0  0  0  0  0  0  0  0  0  0
    5.5799  -12.3326   26.5370 C   0  0  0  0  0  0  0  0  0  0  0  0
    7.0527  -12.7260   26.4237 C   0  0  2  0  0  0  0  0  0  0  0  0
    7.9236  -11.5816   26.7275 C   0  0  0  0  0  0  0  0  0  0  0  0
    7.2529  -13.5113   25.2000 C   0  0  0  0  0  0  0  0  0  0  0  0
    8.5476  -14.1760   24.9759 C   0  0  2  0  0  0  0  0  0  0  0  0
    8.5237  -14.9045   23.6866 N   0  0  0  0  0  0  0  0  0  0  0  0
    9.0103  -15.1008   25.9968 C   0  0  0  0  0  0  0  0  0  0  0  0
    9.7535  -14.7141   27.0856 O   0  0  0  0  0  0  0  0  0  0  0  0
    8.7442  -16.3451   25.9214 O   0  0  0  0  0  0  0  0  0  0  0  0
  1  2  1  0
  2  3  2  0
  4  5  1  0
  4  2  1  0
  5  6  1  0
  6  8  1  0
  6  7  1  6
  8  9  2  0
 11 10  1  1
 11 13  1  0
 12 11  1  0
 12  8  1  0
 13 14  2  0
 13 20  1  0
 16 15  1  6
 16 17  1  0
 18 16  1  0
 19 18  1  1
 19 21  1  0
 20 19  1  0
 21 23  2  0
 21 22  1  0
M  END
$$$$
