QAL.pdb
     RDKit          3D

 23 22  0  0  1  0  0  0  0  0999 V2000
    8.7219  -13.9610   16.8012 N   0  0  0  0  0  0  0  0  0  0  0  0
    8.1223  -15.2196   16.5917 C   0  0  0  0  0  0  0  0  0  0  0  0
    8.2324  -15.7693   15.4779 O   0  0  0  0  0  0  0  0  0  0  0  0
    7.3805  -15.8579   17.6921 C   0  0  0  0  0  0  0  0  0  0  0  0
    7.9655  -17.1320   18.2040 C   0  0  0  0  0  0  0  0  0  0  0  0
    8.1290  -17.1968   19.6984 C   0  0  2  0  0  0  0  0  0  0  0  0
    6.7719  -17.2648   20.2472 N   0  0  0  0  0  0  0  0  0  0  0  0
    8.7555  -15.9680   20.2403 C   0  0  0  0  0  0  0  0  0  0  0  0
   10.0000  -15.8523   20.2099 O   0  0  0  0  0  0  0  0  0  0  0  0
    7.4648  -12.6130   21.1627 C   0  0  0  0  0  0  0  0  0  0  0  0
    8.5617  -13.6739   21.3000 C   0  0  2  0  0  0  0  0  0  0  0  0
    8.0083  -14.9012   20.7993 N   0  0  0  0  0  0  0  0  0  0  0  0
    8.9086  -13.7387   22.7334 C   0  0  0  0  0  0  0  0  0  0  0  0
    9.7099  -12.9642   23.3134 O   0  0  0  0  0  0  0  0  0  0  0  0
    8.1417  -12.3011   26.5541 C   0  0  0  0  0  0  0  0  0  0  0  0
    6.9886  -12.9969   25.8311 C   0  0  2  0  0  0  0  0  0  0  0  0
    5.6936  -12.5571   26.3694 C   0  0  0  0  0  0  0  0  0  0  0  0
    7.2929  -14.4263   25.6945 C   0  0  0  0  0  0  0  0  0  0  0  0
    8.5131  -14.8367   24.9799 C   0  0  2  0  0  0  0  0  0  0  0  0
    8.2952  -14.7472   23.5177 N   0  0  0  0  0  0  0  0  0  0  0  0
    9.0436  -16.1588   25.2669 C   0  0  0  0  0  0  0  0  0  0  0  0
    9.5632  -16.5157   26.4875 O   0  0  0  0  0  0  0  0  0  0  0  0
    9.0552  -17.0673   24.3728 O   0  0  0  0  0  0  0  0  0  0  0  0
  1  2  1  0
  2  3  2  0
  4  5  1  0
  4  2  1  0
  5  6  1  0
  6  8  1  0
  6  7  1  1
  8  9  2  0
 11 10  1  1
 11 13  1  0
 12 11  1  0
 12  8  1  0
 13 14  2  0
 13 20  1  0
 16 15  1  1
 16 17  1  0
 18 16  1  0
 19 18  1  1
 19 21  1  0
 20 19  1  0
 21 23  2  0
 21 22  1  0
M  END
$$$$
