QAL.pdb
     RDKit          3D

 23 22  0  0  1  0  0  0  0  0999 V2000
    5.9014  -19.5132   26.5271 N   0  0  0  0  0  0  0  0  0  0  0  0
    7.0526  -20.0595   25.9239 C   0  0  0  0  0  0  0  0  0  0  0  0
    7.7670  -20.8467   26.5757 O   0  0  0  0  0  0  0  0  0  0  0  0
    7.3855  -19.6901   24.5378 C   0  0  0  0  0  0  0  0  0  0  0  0
    6.4203  -18.7668   23.8719 C   0  0  0  0  0  0  0  0  0  0  0  0
    6.5969  -18.6339   22.3835 C   0  0  2  0  0  0  0  0  0  0  0  0
    7.3314  -19.8289   21.9592 N   0  0  0  0  0  0  0  0  0  0  0  0
    7.4316  -17.4622   22.0278 C   0  0  0  0  0  0  0  0  0  0  0  0
    8.6669  -17.5128   22.2143 O   0  0  0  0  0  0  0  0  0  0  0  0
    6.6706  -14.0977   20.5335 C   0  0  0  0  0  0  0  0  0  0  0  0
    7.6504  -15.0853   21.1757 C   0  0  2  0  0  0  0  0  0  0  0  0
    6.8966  -16.2698   21.4793 N   0  0  0  0  0  0  0  0  0  0  0  0
    8.1916  -14.4208   22.3776 C   0  0  0  0  0  0  0  0  0  0  0  0
    8.8657  -13.3606   22.3691 O   0  0  0  0  0  0  0  0  0  0  0  0
    5.6756  -13.1277   27.4762 C   0  0  0  0  0  0  0  0  0  0  0  0
    7.0801  -13.2568   26.8870 C   0  0  2  0  0  0  0  0  0  0  0  0
    7.8143  -11.9890   27.0049 C   0  0  0  0  0  0  0  0  0  0  0  0
    7.0043  -13.9579   25.5998 C   0  0  0  0  0  0  0  0  0  0  0  0
    8.2504  -14.3254   24.9067 C   0  0  2  0  0  0  0  0  0  0  0  0
    7.9349  -15.0188   23.6365 N   0  0  0  0  0  0  0  0  0  0  0  0
    9.2027  -15.1478   25.6337 C   0  0  0  0  0  0  0  0  0  0  0  0
    9.5020  -16.4428   25.2868 O   0  0  0  0  0  0  0  0  0  0  0  0
    9.8136  -14.6927   26.6557 O   0  0  0  0  0  0  0  0  0  0  0  0
  1  2  1  0
  2  3  2  0
  4  5  1  0
  4  2  1  0
  5  6  1  0
  6  8  1  0
  6  7  1  1
  8  9  2  0
 11 10  1  1
 11 13  1  0
 12 11  1  0
 12  8  1  0
 13 14  2  0
 13 20  1  0
 16 15  1  6
 16 17  1  0
 18 16  1  0
 19 18  1  1
 19 21  1  0
 20 19  1  0
 21 23  2  0
 21 22  1  0
M  END
$$$$
