QAL.pdb
     RDKit          3D

 23 22  0  0  1  0  0  0  0  0999 V2000
    9.0014  -12.7231   17.7420 N   0  0  0  0  0  0  0  0  0  0  0  0
    8.4799  -13.6843   16.8522 C   0  0  0  0  0  0  0  0  0  0  0  0
    8.9168  -13.7354   15.6854 O   0  0  0  0  0  0  0  0  0  0  0  0
    7.4320  -14.6073   17.3198 C   0  0  0  0  0  0  0  0  0  0  0  0
    7.1822  -14.5995   18.7913 C   0  0  0  0  0  0  0  0  0  0  0  0
    8.3898  -14.8951   19.6389 C   0  0  2  0  0  0  0  0  0  0  0  0
    9.0697  -16.0190   18.9892 N   0  0  0  0  0  0  0  0  0  0  0  0
    8.0139  -15.3436   21.0004 C   0  0  0  0  0  0  0  0  0  0  0  0
    7.1267  -14.7222   21.6250 O   0  0  0  0  0  0  0  0  0  0  0  0
    9.0452  -18.2428   23.1529 C   0  0  0  0  0  0  0  0  0  0  0  0
    8.3146  -16.9082   22.9714 C   0  0  2  0  0  0  0  0  0  0  0  0
    8.6150  -16.4554   21.6418 N   0  0  0  0  0  0  0  0  0  0  0  0
    8.8246  -16.0025   24.0195 C   0  0  0  0  0  0  0  0  0  0  0  0
    9.9746  -15.4969   24.0336 O   0  0  0  0  0  0  0  0  0  0  0  0
    5.5599  -12.1996   26.6418 C   0  0  0  0  0  0  0  0  0  0  0  0
    7.0099  -12.6034   26.3755 C   0  0  2  0  0  0  0  0  0  0  0  0
    7.4783  -12.0533   25.0956 C   0  0  0  0  0  0  0  0  0  0  0  0
    7.1815  -14.0284   26.6823 C   0  0  0  0  0  0  0  0  0  0  0  0
    8.3627  -14.7385   26.1637 C   0  0  2  0  0  0  0  0  0  0  0  0
    7.9568  -15.6759   25.0913 N   0  0  0  0  0  0  0  0  0  0  0  0
    9.1686  -15.4815   27.1177 C   0  0  0  0  0  0  0  0  0  0  0  0
    9.0285  -16.8305   27.3362 O   0  0  0  0  0  0  0  0  0  0  0  0
   10.0606  -14.8970   27.8160 O   0  0  0  0  0  0  0  0  0  0  0  0
  1  2  1  0
  2  3  2  0
  4  5  1  0
  4  2  1  0
  5  6  1  0
  6  8  1  0
  6  7  1  6
  8  9  2  0
 11 10  1  1
 11 13  1  0
 12 11  1  0
 12  8  1  0
 13 14  2  0
 13 20  1  0
 16 15  1  6
 16 17  1  0
 18 16  1  0
 19 18  1  1
 19 21  1  0
 20 19  1  0
 21 23  2  0
 21 22  1  0
M  END
$$$$
