QAL.pdb
     RDKit          3D

 23 22  0  0  1  0  0  0  0  0999 V2000
   11.7305  -13.8221   19.3634 N   0  0  0  0  0  0  0  0  0  0  0  0
   11.2708  -13.2531   18.1582 C   0  0  0  0  0  0  0  0  0  0  0  0
   12.0735  -13.0840   17.2190 O   0  0  0  0  0  0  0  0  0  0  0  0
    9.8538  -12.8721   18.0342 C   0  0  0  0  0  0  0  0  0  0  0  0
    8.9507  -13.4121   19.0927 C   0  0  0  0  0  0  0  0  0  0  0  0
    8.8184  -14.9110   19.1062 C   0  0  2  0  0  0  0  0  0  0  0  0
    7.8133  -15.2335   18.0898 N   0  0  0  0  0  0  0  0  0  0  0  0
    8.3006  -15.4091   20.4023 C   0  0  0  0  0  0  0  0  0  0  0  0
    7.1785  -15.0265   20.7995 O   0  0  0  0  0  0  0  0  0  0  0  0
    9.5398  -17.8640   22.9528 C   0  0  0  0  0  0  0  0  0  0  0  0
    8.6653  -16.6643   22.5737 C   0  0  2  0  0  0  0  0  0  0  0  0
    9.0198  -16.3092   21.2278 N   0  0  0  0  0  0  0  0  0  0  0  0
    8.9647  -15.5989   23.5505 C   0  0  0  0  0  0  0  0  0  0  0  0
    9.9586  -14.8326   23.4944 O   0  0  0  0  0  0  0  0  0  0  0  0
    7.1452  -12.8512   27.9609 C   0  0  0  0  0  0  0  0  0  0  0  0
    6.8591  -12.3721   26.5379 C   0  0  2  0  0  0  0  0  0  0  0  0
    5.6806  -11.4943   26.5096 C   0  0  0  0  0  0  0  0  0  0  0  0
    6.9665  -13.5064   25.6126 C   0  0  0  0  0  0  0  0  0  0  0  0
    8.2080  -14.2978   25.5860 C   0  0  2  0  0  0  0  0  0  0  0  0
    8.0678  -15.4234   24.6338 N   0  0  0  0  0  0  0  0  0  0  0  0
    8.6808  -14.8429   26.8473 C   0  0  0  0  0  0  0  0  0  0  0  0
    8.2241  -16.0248   27.3781 O   0  0  0  0  0  0  0  0  0  0  0  0
    9.5594  -14.2287   27.5371 O   0  0  0  0  0  0  0  0  0  0  0  0
  1  2  1  0
  2  3  2  0
  4  5  1  0
  4  2  1  0
  5  6  1  0
  6  8  1  0
  6  7  1  6
  8  9  2  0
 11 10  1  1
 11 13  1  0
 12 11  1  0
 12  8  1  0
 13 14  2  0
 13 20  1  0
 16 15  1  1
 16 17  1  0
 18 16  1  0
 19 18  1  1
 19 21  1  0
 20 19  1  0
 21 23  2  0
 21 22  1  0
M  END
$$$$
