QAL.pdb
     RDKit          3D

 23 22  0  0  1  0  0  0  0  0999 V2000
    9.8762  -12.9678   18.2118 N   0  0  0  0  0  0  0  0  0  0  0  0
    8.7864  -13.1110   17.3290 C   0  0  0  0  0  0  0  0  0  0  0  0
    8.8975  -12.7101   16.1535 O   0  0  0  0  0  0  0  0  0  0  0  0
    7.5418  -13.7315   17.8134 C   0  0  0  0  0  0  0  0  0  0  0  0
    7.5635  -14.1841   19.2355 C   0  0  0  0  0  0  0  0  0  0  0  0
    8.2676  -15.4928   19.4715 C   0  0  2  0  0  0  0  0  0  0  0  0
    7.5166  -16.4946   18.7101 N   0  0  0  0  0  0  0  0  0  0  0  0
    8.2151  -15.9005   20.8953 C   0  0  0  0  0  0  0  0  0  0  0  0
    7.1996  -15.6277   21.5718 O   0  0  0  0  0  0  0  0  0  0  0  0
   10.4734  -17.9486   23.0826 C   0  0  0  0  0  0  0  0  0  0  0  0
    9.2622  -17.0262   22.9102 C   0  0  2  0  0  0  0  0  0  0  0  0
    9.2698  -16.5932   21.5407 N   0  0  0  0  0  0  0  0  0  0  0  0
    9.4374  -15.9168   23.8681 C   0  0  0  0  0  0  0  0  0  0  0  0
   10.2558  -14.9734   23.7315 O   0  0  0  0  0  0  0  0  0  0  0  0
    5.9262  -12.3442   26.8761 C   0  0  0  0  0  0  0  0  0  0  0  0
    7.3526  -12.8897   26.9415 C   0  0  2  0  0  0  0  0  0  0  0  0
    8.3320  -11.7940   26.9205 C   0  0  0  0  0  0  0  0  0  0  0  0
    7.4820  -14.0234   26.0184 C   0  0  0  0  0  0  0  0  0  0  0  0
    8.7148  -14.8286   26.0366 C   0  0  2  0  0  0  0  0  0  0  0  0
    8.6250  -15.9106   25.0293 N   0  0  0  0  0  0  0  0  0  0  0  0
    9.1002  -15.4331   27.3005 C   0  0  0  0  0  0  0  0  0  0  0  0
    9.8765  -14.7952   28.2374 O   0  0  0  0  0  0  0  0  0  0  0  0
    8.7295  -16.6153   27.6003 O   0  0  0  0  0  0  0  0  0  0  0  0
  1  2  1  0
  2  3  2  0
  4  5  1  0
  4  2  1  0
  5  6  1  0
  6  8  1  0
  6  7  1  6
  8  9  2  0
 11 10  1  6
 11 13  1  0
 12 11  1  0
 12  8  1  0
 13 14  2  0
 13 20  1  0
 16 15  1  6
 16 17  1  0
 18 16  1  0
 19 18  1  1
 19 21  1  0
 20 19  1  0
 21 23  2  0
 21 22  1  0
M  END
$$$$
