QAL.pdb
     RDKit          3D

 23 22  0  0  1  0  0  0  0  0999 V2000
    7.4280  -20.3342   27.4344 N   0  0  0  0  0  0  0  0  0  0  0  0
    6.6015  -21.1687   26.6546 C   0  0  0  0  0  0  0  0  0  0  0  0
    5.9524  -22.0761   27.2117 O   0  0  0  0  0  0  0  0  0  0  0  0
    6.5216  -20.9503   25.2006 C   0  0  0  0  0  0  0  0  0  0  0  0
    7.2126  -19.7264   24.6982 C   0  0  0  0  0  0  0  0  0  0  0  0
    6.5576  -19.0731   23.5114 C   0  0  2  0  0  0  0  0  0  0  0  0
    6.4169  -20.1258   22.5017 N   0  0  0  0  0  0  0  0  0  0  0  0
    7.4116  -18.0160   22.9204 C   0  0  0  0  0  0  0  0  0  0  0  0
    8.6500  -18.0683   23.0846 O   0  0  0  0  0  0  0  0  0  0  0  0
    6.7066  -15.0075   20.7818 C   0  0  0  0  0  0  0  0  0  0  0  0
    7.6679  -15.8542   21.6225 C   0  0  2  0  0  0  0  0  0  0  0  0
    6.8921  -16.9330   22.1680 N   0  0  0  0  0  0  0  0  0  0  0  0
    8.2223  -14.9599   22.6576 C   0  0  0  0  0  0  0  0  0  0  0  0
    9.0465  -14.0366   22.4417 O   0  0  0  0  0  0  0  0  0  0  0  0
    6.1140  -11.5936   26.8129 C   0  0  0  0  0  0  0  0  0  0  0  0
    7.4157  -12.3347   26.5084 C   0  0  2  0  0  0  0  0  0  0  0  0
    8.5387  -11.3931   26.3969 C   0  0  0  0  0  0  0  0  0  0  0  0
    7.1726  -13.3330   25.4602 C   0  0  0  0  0  0  0  0  0  0  0  0
    8.2503  -14.2665   25.0922 C   0  0  2  0  0  0  0  0  0  0  0  0
    7.7969  -15.1528   23.9957 N   0  0  0  0  0  0  0  0  0  0  0  0
    8.7939  -15.1087   26.1443 C   0  0  0  0  0  0  0  0  0  0  0  0
    8.6298  -16.4721   26.1811 O   0  0  0  0  0  0  0  0  0  0  0  0
    9.4596  -14.6047   27.1074 O   0  0  0  0  0  0  0  0  0  0  0  0
  1  2  1  0
  2  3  2  0
  4  5  1  0
  4  2  1  0
  5  6  1  0
  6  8  1  0
  6  7  1  6
  8  9  2  0
 11 10  1  6
 11 13  1  0
 12 11  1  0
 12  8  1  0
 13 14  2  0
 13 20  1  0
 16 15  1  6
 16 17  1  0
 18 16  1  0
 19 18  1  1
 19 21  1  0
 20 19  1  0
 21 23  2  0
 21 22  1  0
M  END
$$$$
