QAL.pdb
     RDKit          3D

 23 22  0  0  1  0  0  0  0  0999 V2000
    8.1122  -12.3460   19.2253 N   0  0  0  0  0  0  0  0  0  0  0  0
    8.2975  -13.5464   18.5097 C   0  0  0  0  0  0  0  0  0  0  0  0
    9.0926  -13.5670   17.5493 O   0  0  0  0  0  0  0  0  0  0  0  0
    7.5498  -14.7495   18.9123 C   0  0  0  0  0  0  0  0  0  0  0  0
    8.3821  -15.8832   19.4119 C   0  0  0  0  0  0  0  0  0  0  0  0
    7.6010  -17.0582   19.9348 C   0  0  2  0  0  0  0  0  0  0  0  0
    6.4444  -17.1978   19.0458 N   0  0  0  0  0  0  0  0  0  0  0  0
    7.0739  -16.8101   21.2974 C   0  0  0  0  0  0  0  0  0  0  0  0
    6.0202  -16.1510   21.4341 O   0  0  0  0  0  0  0  0  0  0  0  0
    7.2410  -18.4558   24.4903 C   0  0  0  0  0  0  0  0  0  0  0  0
    7.2371  -17.0819   23.8119 C   0  0  2  0  0  0  0  0  0  0  0  0
    7.7095  -17.2869   22.4710 N   0  0  0  0  0  0  0  0  0  0  0  0
    8.1247  -16.2146   24.6112 C   0  0  0  0  0  0  0  0  0  0  0  0
    9.3735  -16.1570   24.4871 O   0  0  0  0  0  0  0  0  0  0  0  0
    7.8819  -11.9281   25.1860 C   0  0  0  0  0  0  0  0  0  0  0  0
    6.8526  -12.5473   26.1313 C   0  0  2  0  0  0  0  0  0  0  0  0
    5.9253  -11.5245   26.6357 C   0  0  0  0  0  0  0  0  0  0  0  0
    7.5317  -13.4604   27.0582 C   0  0  0  0  0  0  0  0  0  0  0  0
    8.3449  -14.5619   26.5161 C   0  0  2  0  0  0  0  0  0  0  0  0
    7.5291  -15.3834   25.5925 N   0  0  0  0  0  0  0  0  0  0  0  0
    8.9730  -15.4613   27.4691 C   0  0  0  0  0  0  0  0  0  0  0  0
   10.1136  -15.1461   28.1669 O   0  0  0  0  0  0  0  0  0  0  0  0
    8.4828  -16.6149   27.7009 O   0  0  0  0  0  0  0  0  0  0  0  0
  1  2  1  0
  2  3  2  0
  4  5  1  0
  4  2  1  0
  5  6  1  0
  6  8  1  0
  6  7  1  6
  8  9  2  0
 11 10  1  1
 11 13  1  0
 12 11  1  0
 12  8  1  0
 13 14  2  0
 13 20  1  0
 16 15  1  1
 16 17  1  0
 18 16  1  0
 19 18  1  1
 19 21  1  0
 20 19  1  0
 21 23  2  0
 21 22  1  0
M  END
$$$$
