QAL.pdb
     RDKit          3D

 23 22  0  0  1  0  0  0  0  0999 V2000
    8.3726  -12.2730   18.8102 N   0  0  0  0  0  0  0  0  0  0  0  0
    8.3421  -13.4141   17.9829 C   0  0  0  0  0  0  0  0  0  0  0  0
    8.7283  -13.3205   16.8009 O   0  0  0  0  0  0  0  0  0  0  0  0
    7.8565  -14.6911   18.5322 C   0  0  0  0  0  0  0  0  0  0  0  0
    8.8004  -15.8408   18.4100 C   0  0  0  0  0  0  0  0  0  0  0  0
    8.2897  -17.1402   18.9713 C   0  0  2  0  0  0  0  0  0  0  0  0
    7.0994  -17.4758   18.1851 N   0  0  0  0  0  0  0  0  0  0  0  0
    7.8540  -17.0008   20.3809 C   0  0  0  0  0  0  0  0  0  0  0  0
    6.7556  -16.4577   20.6299 O   0  0  0  0  0  0  0  0  0  0  0  0
    8.9235  -18.6291   23.5276 C   0  0  0  0  0  0  0  0  0  0  0  0
    8.1991  -17.4619   22.8490 C   0  0  2  0  0  0  0  0  0  0  0  0
    8.6269  -17.4570   21.4778 N   0  0  0  0  0  0  0  0  0  0  0  0
    8.5896  -16.2408   23.5807 C   0  0  0  0  0  0  0  0  0  0  0  0
    9.6243  -15.5663   23.3504 O   0  0  0  0  0  0  0  0  0  0  0  0
    5.6006  -12.2999   27.1911 C   0  0  0  0  0  0  0  0  0  0  0  0
    6.9962  -12.7378   26.7471 C   0  0  2  0  0  0  0  0  0  0  0  0
    7.8089  -11.5762   26.3590 C   0  0  0  0  0  0  0  0  0  0  0  0
    6.8807  -13.8984   25.8561 C   0  0  0  0  0  0  0  0  0  0  0  0
    8.0965  -14.6375   25.4767 C   0  0  2  0  0  0  0  0  0  0  0  0
    7.7380  -15.7917   24.6206 N   0  0  0  0  0  0  0  0  0  0  0  0
    8.9421  -15.1304   26.5508 C   0  0  0  0  0  0  0  0  0  0  0  0
   10.0314  -14.4441   27.0301 O   0  0  0  0  0  0  0  0  0  0  0  0
    8.7068  -16.2535   27.1057 O   0  0  0  0  0  0  0  0  0  0  0  0
  1  2  1  0
  2  3  2  0
  4  5  1  0
  4  2  1  0
  5  6  1  0
  6  8  1  0
  6  7  1  6
  8  9  2  0
 11 10  1  1
 11 13  1  0
 12 11  1  0
 12  8  1  0
 13 14  2  0
 13 20  1  0
 16 15  1  6
 16 17  1  0
 18 16  1  0
 19 18  1  1
 19 21  1  0
 20 19  1  0
 21 23  2  0
 21 22  1  0
M  END
$$$$
