TQC.pdb
     RDKit          3D

 23 22  0  0  1  0  0  0  0  0999 V2000
    6.8940  -18.2027   19.0763 C   0  0  0  0  0  0  0  0  0  0  0  0
    6.8898  -17.5478   20.4329 C   0  0  1  0  0  0  0  0  0  0  0  0
    5.8740  -16.5542   20.3636 O   0  0  0  0  0  0  0  0  0  0  0  0
    6.4198  -18.4884   21.5251 C   0  0  2  0  0  0  0  0  0  0  0  0
    5.0318  -18.8274   21.1263 N   0  0  0  0  0  0  0  0  0  0  0  0
    6.3260  -17.8719   22.8568 C   0  0  0  0  0  0  0  0  0  0  0  0
    5.2327  -17.3173   23.1912 O   0  0  0  0  0  0  0  0  0  0  0  0
    9.1643  -19.6874   27.8294 N   0  0  0  0  0  0  0  0  0  0  0  0
    7.8391  -20.0874   27.5662 C   0  0  0  0  0  0  0  0  0  0  0  0
    7.3901  -21.1072   28.1412 O   0  0  0  0  0  0  0  0  0  0  0  0
    7.0080  -19.3000   26.6213 C   0  0  0  0  0  0  0  0  0  0  0  0
    7.8172  -18.1460   26.1413 C   0  0  0  0  0  0  0  0  0  0  0  0
    7.0989  -17.2365   25.1629 C   0  0  2  0  0  0  0  0  0  0  0  0
    7.3572  -17.8324   23.8392 N   0  0  0  0  0  0  0  0  0  0  0  0
    7.6186  -15.8686   25.1972 C   0  0  0  0  0  0  0  0  0  0  0  0
    8.6159  -15.5404   24.4694 O   0  0  0  0  0  0  0  0  0  0  0  0
    7.0923  -14.8250   26.0004 N   0  0  0  0  0  0  0  0  0  0  0  0
    7.6360  -13.4848   26.0018 C   0  0  1  0  0  0  0  0  0  0  0  0
    6.5371  -12.4416   26.0763 C   0  0  0  0  0  0  0  0  0  0  0  0
    5.4738  -12.6863   27.5162 S   0  0  0  0  0  0  0  0  0  0  0  0
    8.5652  -13.2727   27.1364 C   0  0  0  0  0  0  0  0  0  0  0  0
    9.3333  -12.1323   27.2672 O   0  0  0  0  0  0  0  0  0  0  0  0
    8.6590  -14.1630   28.0132 O   0  0  0  0  0  0  0  0  0  0  0  0
  2  1  1  6
  2  4  1  0
  2  3  1  0
  4  5  1  6
  6  7  2  0
  6  4  1  0
  8  9  1  0
  9 11  1  0
  9 10  2  0
 11 12  1  0
 13 12  1  1
 13 15  1  0
 13 14  1  0
 14  6  1  0
 15 17  1  0
 16 15  2  0
 17 18  1  0
 18 21  1  0
 19 20  1  0
 18 19  1  1
 21 23  2  0
 21 22  1  0
M  END
$$$$
