TQC.pdb
     RDKit          3D

 23 22  0  0  1  0  0  0  0  0999 V2000
    7.9783  -12.7502   20.0254 C   0  0  0  0  0  0  0  0  0  0  0  0
    7.4863  -13.8817   19.1610 C   0  0  1  0  0  0  0  0  0  0  0  0
    7.1033  -13.2731   17.9335 O   0  0  0  0  0  0  0  0  0  0  0  0
    8.5986  -14.8368   18.7745 C   0  0  2  0  0  0  0  0  0  0  0  0
    7.8934  -15.9313   18.0636 N   0  0  0  0  0  0  0  0  0  0  0  0
    9.2838  -15.4622   19.9155 C   0  0  0  0  0  0  0  0  0  0  0  0
    8.6405  -16.2989   20.6231 O   0  0  0  0  0  0  0  0  0  0  0  0
   15.0502  -14.3938   21.7752 N   0  0  0  0  0  0  0  0  0  0  0  0
   14.7069  -15.3156   22.7842 C   0  0  0  0  0  0  0  0  0  0  0  0
   15.5504  -15.5804   23.6733 O   0  0  0  0  0  0  0  0  0  0  0  0
   13.3647  -15.9495   22.7743 C   0  0  0  0  0  0  0  0  0  0  0  0
   12.6084  -15.4178   21.6070 C   0  0  0  0  0  0  0  0  0  0  0  0
   11.1555  -15.8492   21.5484 C   0  0  2  0  0  0  0  0  0  0  0  0
   10.6293  -15.2258   20.3202 N   0  0  0  0  0  0  0  0  0  0  0  0
   10.3927  -15.3782   22.7055 C   0  0  0  0  0  0  0  0  0  0  0  0
   10.3578  -14.1333   22.9901 O   0  0  0  0  0  0  0  0  0  0  0  0
    9.6536  -16.2150   23.5800 N   0  0  0  0  0  0  0  0  0  0  0  0
    9.2475  -15.8021   24.9052 C   0  0  1  0  0  0  0  0  0  0  0  0
    7.7648  -15.4850   24.9562 C   0  0  0  0  0  0  0  0  0  0  0  0
    6.7633  -16.8475   24.3206 S   0  0  0  0  0  0  0  0  0  0  0  0
    9.5419  -16.8438   25.9170 C   0  0  0  0  0  0  0  0  0  0  0  0
   10.0936  -18.0667   25.5884 O   0  0  0  0  0  0  0  0  0  0  0  0
    9.2805  -16.6072   27.1194 O   0  0  0  0  0  0  0  0  0  0  0  0
  2  1  1  1
  2  4  1  0
  2  3  1  0
  4  5  1  6
  6  7  2  0
  6  4  1  0
  8  9  1  0
  9 11  1  0
  9 10  2  0
 11 12  1  0
 13 12  1  1
 13 15  1  0
 13 14  1  0
 14  6  1  0
 15 17  1  0
 16 15  2  0
 17 18  1  0
 18 21  1  0
 19 20  1  0
 18 19  1  6
 21 23  2  0
 21 22  1  0
M  END
$$$$
