TQC.pdb
     RDKit          3D

 23 22  0  0  1  0  0  0  0  0999 V2000
   14.0317  -22.1767   15.0815 C   0  0  0  0  0  0  0  0  0  0  0  0
   12.7049  -22.6138   14.5174 C   0  0  1  0  0  0  0  0  0  0  0  0
   12.4910  -23.9201   15.0385 O   0  0  0  0  0  0  0  0  0  0  0  0
   11.5498  -21.7984   15.0645 C   0  0  2  0  0  0  0  0  0  0  0  0
   11.7191  -20.4714   14.4234 N   0  0  0  0  0  0  0  0  0  0  0  0
   11.6069  -21.5644   16.5151 C   0  0  0  0  0  0  0  0  0  0  0  0
   12.5398  -20.8337   16.9740 O   0  0  0  0  0  0  0  0  0  0  0  0
    8.2512  -22.0103   21.8033 N   0  0  0  0  0  0  0  0  0  0  0  0
    8.1352  -23.0858   20.9004 C   0  0  0  0  0  0  0  0  0  0  0  0
    7.4929  -24.1036   21.2520 O   0  0  0  0  0  0  0  0  0  0  0  0
    8.7705  -22.9931   19.5620 C   0  0  0  0  0  0  0  0  0  0  0  0
    9.4697  -21.6817   19.4694 C   0  0  0  0  0  0  0  0  0  0  0  0
   10.8788  -21.7570   18.9135 C   0  0  2  0  0  0  0  0  0  0  0  0
   10.7011  -22.0809   17.4861 N   0  0  0  0  0  0  0  0  0  0  0  0
   11.6725  -22.8026   19.5608 C   0  0  0  0  0  0  0  0  0  0  0  0
   11.8897  -23.9098   18.9616 O   0  0  0  0  0  0  0  0  0  0  0  0
   12.2504  -22.6949   20.8514 N   0  0  0  0  0  0  0  0  0  0  0  0
   13.0569  -23.7411   21.4404 C   0  0  1  0  0  0  0  0  0  0  0  0
   14.4995  -23.3016   21.6049 C   0  0  0  0  0  0  0  0  0  0  0  0
   14.6254  -21.7082   22.4467 S   0  0  0  0  0  0  0  0  0  0  0  0
   12.5356  -24.1535   22.7647 C   0  0  0  0  0  0  0  0  0  0  0  0
   11.5863  -23.4229   23.4522 O   0  0  0  0  0  0  0  0  0  0  0  0
   12.9728  -25.2072   23.2830 O   0  0  0  0  0  0  0  0  0  0  0  0
  2  1  1  1
  2  4  1  0
  2  3  1  0
  4  5  1  6
  6  7  2  0
  6  4  1  0
  8  9  1  0
  9 11  1  0
  9 10  2  0
 11 12  1  0
 13 12  1  1
 13 15  1  0
 13 14  1  0
 14  6  1  0
 15 17  1  0
 16 15  2  0
 17 18  1  0
 18 21  1  0
 19 20  1  0
 18 19  1  1
 21 23  2  0
 21 22  1  0
M  END
$$$$
