TQC.pdb
     RDKit          3D

 23 22  0  0  1  0  0  0  0  0999 V2000
    6.2612  -18.3664   24.3218 C   0  0  0  0  0  0  0  0  0  0  0  0
    6.7365  -19.2641   23.2092 C   0  0  1  0  0  0  0  0  0  0  0  0
    5.9087  -20.4187   23.2831 O   0  0  0  0  0  0  0  0  0  0  0  0
    6.4487  -18.6839   21.8384 C   0  0  2  0  0  0  0  0  0  0  0  0
    6.8957  -19.7460   20.9043 N   0  0  0  0  0  0  0  0  0  0  0  0
    7.2381  -17.4878   21.5089 C   0  0  0  0  0  0  0  0  0  0  0  0
    8.4801  -17.6267   21.2793 O   0  0  0  0  0  0  0  0  0  0  0  0
    7.7178  -14.4772   18.2770 N   0  0  0  0  0  0  0  0  0  0  0  0
    8.1698  -13.2582   18.8204 C   0  0  0  0  0  0  0  0  0  0  0  0
    9.0355  -12.6017   18.1947 O   0  0  0  0  0  0  0  0  0  0  0  0
    7.6166  -12.7798   20.1121 C   0  0  0  0  0  0  0  0  0  0  0  0
    6.8365  -13.8910   20.7236 C   0  0  0  0  0  0  0  0  0  0  0  0
    7.6804  -15.0242   21.2749 C   0  0  2  0  0  0  0  0  0  0  0  0
    6.7441  -16.1547   21.4138 N   0  0  0  0  0  0  0  0  0  0  0  0
    8.2567  -14.6988   22.5804 C   0  0  0  0  0  0  0  0  0  0  0  0
    9.3927  -14.1193   22.6562 O   0  0  0  0  0  0  0  0  0  0  0  0
    7.6416  -14.9794   23.8270 N   0  0  0  0  0  0  0  0  0  0  0  0
    8.2788  -14.7063   25.0962 C   0  0  1  0  0  0  0  0  0  0  0  0
    7.2670  -14.2808   26.1434 C   0  0  0  0  0  0  0  0  0  0  0  0
    6.3346  -12.8230   25.6248 S   0  0  0  0  0  0  0  0  0  0  0  0
    9.0148  -15.8877   25.6042 C   0  0  0  0  0  0  0  0  0  0  0  0
    9.8115  -15.8411   26.7316 O   0  0  0  0  0  0  0  0  0  0  0  0
    8.9114  -16.9734   24.9872 O   0  0  0  0  0  0  0  0  0  0  0  0
  2  1  1  1
  2  4  1  0
  2  3  1  0
  4  5  1  6
  6  7  2  0
  6  4  1  0
  8  9  1  0
  9 11  1  0
  9 10  2  0
 11 12  1  0
 13 12  1  1
 13 15  1  0
 13 14  1  0
 14  6  1  0
 15 17  1  0
 16 15  2  0
 17 18  1  0
 18 21  1  0
 19 20  1  0
 18 19  1  1
 21 23  2  0
 21 22  1  0
M  END
$$$$
