TQC.pdb
     RDKit          3D

 23 22  0  0  1  0  0  0  0  0999 V2000
    8.1802  -16.0022   18.9590 C   0  0  0  0  0  0  0  0  0  0  0  0
    8.1602  -16.0487   20.4647 C   0  0  1  0  0  0  0  0  0  0  0  0
    8.4904  -14.7294   20.8823 O   0  0  0  0  0  0  0  0  0  0  0  0
    6.7664  -16.2781   21.0154 C   0  0  2  0  0  0  0  0  0  0  0  0
    6.0195  -15.0647   20.6030 N   0  0  0  0  0  0  0  0  0  0  0  0
    6.6953  -16.3257   22.4834 C   0  0  0  0  0  0  0  0  0  0  0  0
    6.3404  -15.2765   23.1063 O   0  0  0  0  0  0  0  0  0  0  0  0
    7.5303  -21.2635   26.0498 N   0  0  0  0  0  0  0  0  0  0  0  0
    7.3816  -20.3217   27.0873 C   0  0  0  0  0  0  0  0  0  0  0  0
    7.4620  -20.7137   28.2756 O   0  0  0  0  0  0  0  0  0  0  0  0
    7.1349  -18.8961   26.7554 C   0  0  0  0  0  0  0  0  0  0  0  0
    7.0931  -18.7647   25.2728 C   0  0  0  0  0  0  0  0  0  0  0  0
    6.9093  -17.3452   24.7712 C   0  0  2  0  0  0  0  0  0  0  0  0
    6.9863  -17.4543   23.3028 N   0  0  0  0  0  0  0  0  0  0  0  0
    7.9604  -16.4485   25.2544 C   0  0  0  0  0  0  0  0  0  0  0  0
    9.0716  -16.3637   24.6298 O   0  0  0  0  0  0  0  0  0  0  0  0
    7.8541  -15.6261   26.4048 N   0  0  0  0  0  0  0  0  0  0  0  0
    8.8826  -14.6882   26.7974 C   0  0  1  0  0  0  0  0  0  0  0  0
    8.2854  -13.3692   27.2501 C   0  0  0  0  0  0  0  0  0  0  0  0
    9.5485  -12.2370   27.8716 S   0  0  0  0  0  0  0  0  0  0  0  0
    9.7238  -15.2256   27.8924 C   0  0  0  0  0  0  0  0  0  0  0  0
   10.8707  -14.5925   28.3302 O   0  0  0  0  0  0  0  0  0  0  0  0
    9.3823  -16.2974   28.4444 O   0  0  0  0  0  0  0  0  0  0  0  0
  2  1  1  6
  2  4  1  0
  2  3  1  0
  4  5  1  1
  6  7  2  0
  6  4  1  0
  8  9  1  0
  9 11  1  0
  9 10  2  0
 11 12  1  0
 13 12  1  1
 13 15  1  0
 13 14  1  0
 14  6  1  0
 15 17  1  0
 16 15  2  0
 17 18  1  0
 18 21  1  0
 19 20  1  0
 18 19  1  1
 21 23  2  0
 21 22  1  0
M  END
$$$$
