TQC.pdb
     RDKit          3D

 23 22  0  0  1  0  0  0  0  0999 V2000
    8.4741  -13.0581   18.7207 C   0  0  0  0  0  0  0  0  0  0  0  0
    8.5556  -13.5377   20.1465 C   0  0  1  0  0  0  0  0  0  0  0  0
    7.9674  -12.5005   20.9224 O   0  0  0  0  0  0  0  0  0  0  0  0
    7.6712  -14.7427   20.4001 C   0  0  2  0  0  0  0  0  0  0  0  0
    6.3040  -14.2447   20.1115 N   0  0  0  0  0  0  0  0  0  0  0  0
    7.6558  -15.1995   21.7978 C   0  0  0  0  0  0  0  0  0  0  0  0
    6.7084  -14.8118   22.5507 O   0  0  0  0  0  0  0  0  0  0  0  0
   11.2532  -19.4926   24.3100 N   0  0  0  0  0  0  0  0  0  0  0  0
   10.5285  -19.1672   25.4738 C   0  0  0  0  0  0  0  0  0  0  0  0
   10.7936  -19.7718   26.5397 O   0  0  0  0  0  0  0  0  0  0  0  0
    9.4744  -18.1238   25.4149 C   0  0  0  0  0  0  0  0  0  0  0  0
    9.4407  -17.5748   24.0312 C   0  0  0  0  0  0  0  0  0  0  0  0
    8.4836  -16.4144   23.8370 C   0  0  2  0  0  0  0  0  0  0  0  0
    8.6140  -16.0561   22.4127 N   0  0  0  0  0  0  0  0  0  0  0  0
    8.8361  -15.2629   24.6689 C   0  0  0  0  0  0  0  0  0  0  0  0
    9.8818  -14.5767   24.4085 O   0  0  0  0  0  0  0  0  0  0  0  0
    8.0889  -14.8171   25.7888 N   0  0  0  0  0  0  0  0  0  0  0  0
    8.5241  -13.7336   26.6422 C   0  0  1  0  0  0  0  0  0  0  0  0
    7.3631  -12.8419   27.0402 C   0  0  0  0  0  0  0  0  0  0  0  0
    6.3559  -12.3732   25.6156 S   0  0  0  0  0  0  0  0  0  0  0  0
    9.1768  -14.2358   27.8740 C   0  0  0  0  0  0  0  0  0  0  0  0
    9.7095  -13.3943   28.8310 O   0  0  0  0  0  0  0  0  0  0  0  0
    9.2492  -15.4734   28.0561 O   0  0  0  0  0  0  0  0  0  0  0  0
  2  1  1  6
  2  4  1  0
  2  3  1  0
  4  5  1  1
  6  7  2  0
  6  4  1  0
  8  9  1  0
  9 11  1  0
  9 10  2  0
 11 12  1  0
 13 12  1  1
 13 15  1  0
 13 14  1  0
 14  6  1  0
 15 17  1  0
 16 15  2  0
 17 18  1  0
 18 21  1  0
 19 20  1  0
 18 19  1  1
 21 23  2  0
 21 22  1  0
M  END
$$$$
