TQC.pdb
     RDKit          3D

 23 22  0  0  1  0  0  0  0  0999 V2000
    4.3863  -18.2299   19.3708 C   0  0  0  0  0  0  0  0  0  0  0  0
    5.1818  -17.9724   20.6240 C   0  0  1  0  0  0  0  0  0  0  0  0
    4.7519  -16.6960   21.0822 O   0  0  0  0  0  0  0  0  0  0  0  0
    4.8085  -18.9191   21.7478 C   0  0  2  0  0  0  0  0  0  0  0  0
    3.3335  -18.7921   21.8415 N   0  0  0  0  0  0  0  0  0  0  0  0
    5.3387  -18.5353   23.0646 C   0  0  0  0  0  0  0  0  0  0  0  0
    4.5316  -18.0739   23.9309 O   0  0  0  0  0  0  0  0  0  0  0  0
    7.9601  -18.5112   28.7274 N   0  0  0  0  0  0  0  0  0  0  0  0
    8.1913  -19.2034   27.5220 C   0  0  0  0  0  0  0  0  0  0  0  0
    7.7149  -20.3552   27.3856 O   0  0  0  0  0  0  0  0  0  0  0  0
    8.9875  -18.5605   26.4468 C   0  0  0  0  0  0  0  0  0  0  0  0
    8.3692  -18.9104   25.1382 C   0  0  0  0  0  0  0  0  0  0  0  0
    7.0975  -18.1482   24.8185 C   0  0  2  0  0  0  0  0  0  0  0  0
    6.6968  -18.6317   23.4845 N   0  0  0  0  0  0  0  0  0  0  0  0
    7.3174  -16.7019   24.7728 C   0  0  0  0  0  0  0  0  0  0  0  0
    7.0790  -16.0481   23.7014 O   0  0  0  0  0  0  0  0  0  0  0  0
    7.7919  -15.9227   25.8586 N   0  0  0  0  0  0  0  0  0  0  0  0
    7.7574  -14.4769   25.8617 C   0  0  1  0  0  0  0  0  0  0  0  0
    6.3323  -13.9571   25.8514 C   0  0  0  0  0  0  0  0  0  0  0  0
    6.2684  -12.1649   26.0690 S   0  0  0  0  0  0  0  0  0  0  0  0
    8.4556  -13.9157   27.0420 C   0  0  0  0  0  0  0  0  0  0  0  0
    8.7891  -12.5793   27.1446 O   0  0  0  0  0  0  0  0  0  0  0  0
    8.7561  -14.6832   27.9859 O   0  0  0  0  0  0  0  0  0  0  0  0
  2  1  1  6
  2  4  1  0
  2  3  1  0
  4  5  1  1
  6  7  2  0
  6  4  1  0
  8  9  1  0
  9 11  1  0
  9 10  2  0
 11 12  1  0
 13 12  1  6
 13 15  1  0
 13 14  1  0
 14  6  1  0
 15 17  1  0
 16 15  2  0
 17 18  1  0
 18 21  1  0
 19 20  1  0
 18 19  1  1
 21 23  2  0
 21 22  1  0
M  END
$$$$
