TQC.pdb
     RDKit          3D

 23 22  0  0  1  0  0  0  0  0999 V2000
    8.8250  -12.8266   20.1340 C   0  0  0  0  0  0  0  0  0  0  0  0
    7.9210  -13.7408   19.3488 C   0  0  1  0  0  0  0  0  0  0  0  0
    8.5330  -13.8614   18.0702 O   0  0  0  0  0  0  0  0  0  0  0  0
    7.9156  -15.1546   19.8963 C   0  0  2  0  0  0  0  0  0  0  0  0
    6.9527  -15.8683   19.0224 N   0  0  0  0  0  0  0  0  0  0  0  0
    7.3930  -15.2719   21.2658 C   0  0  0  0  0  0  0  0  0  0  0  0
    6.2264  -14.8303   21.5082 O   0  0  0  0  0  0  0  0  0  0  0  0
    8.0531  -19.8063   24.9211 N   0  0  0  0  0  0  0  0  0  0  0  0
    7.0125  -19.6343   23.9868 C   0  0  0  0  0  0  0  0  0  0  0  0
    6.3638  -20.6400   23.6127 O   0  0  0  0  0  0  0  0  0  0  0  0
    6.7076  -18.2772   23.4684 C   0  0  0  0  0  0  0  0  0  0  0  0
    7.5778  -17.3014   24.1808 C   0  0  0  0  0  0  0  0  0  0  0  0
    7.4350  -15.8674   23.7077 C   0  0  2  0  0  0  0  0  0  0  0  0
    8.0725  -15.8467   22.3784 N   0  0  0  0  0  0  0  0  0  0  0  0
    8.1153  -14.9230   24.5951 C   0  0  0  0  0  0  0  0  0  0  0  0
    9.3407  -14.6213   24.3964 O   0  0  0  0  0  0  0  0  0  0  0  0
    7.5116  -14.2811   25.7063 N   0  0  0  0  0  0  0  0  0  0  0  0
    8.2357  -13.3932   26.5890 C   0  0  1  0  0  0  0  0  0  0  0  0
    7.4307  -12.1461   26.9019 C   0  0  0  0  0  0  0  0  0  0  0  0
    5.6742  -12.5138   27.1090 S   0  0  0  0  0  0  0  0  0  0  0  0
    8.5892  -14.0588   27.8647 C   0  0  0  0  0  0  0  0  0  0  0  0
    8.2076  -15.3529   28.1607 O   0  0  0  0  0  0  0  0  0  0  0  0
    9.2613  -13.4234   28.7101 O   0  0  0  0  0  0  0  0  0  0  0  0
  2  1  1  1
  2  4  1  0
  2  3  1  0
  4  5  1  6
  6  7  2  0
  6  4  1  0
  8  9  1  0
  9 11  1  0
  9 10  2  0
 11 12  1  0
 13 12  1  1
 13 15  1  0
 13 14  1  0
 14  6  1  0
 15 17  1  0
 16 15  2  0
 17 18  1  0
 18 21  1  0
 19 20  1  0
 18 19  1  1
 21 23  2  0
 21 22  1  0
M  END
$$$$
