TQC.pdb
     RDKit          3D

 23 22  0  0  1  0  0  0  0  0999 V2000
    7.8490  -12.1874   18.7132 C   0  0  0  0  0  0  0  0  0  0  0  0
    8.0028  -13.1711   19.8439 C   0  0  1  0  0  0  0  0  0  0  0  0
    6.6750  -13.5177   20.2190 O   0  0  0  0  0  0  0  0  0  0  0  0
    8.6173  -14.4802   19.3887 C   0  0  2  0  0  0  0  0  0  0  0  0
    7.6490  -14.9969   18.3907 N   0  0  0  0  0  0  0  0  0  0  0  0
    8.7098  -15.5040   20.4401 C   0  0  0  0  0  0  0  0  0  0  0  0
    7.7490  -16.3252   20.5713 O   0  0  0  0  0  0  0  0  0  0  0  0
   12.8559  -19.3002   22.1489 N   0  0  0  0  0  0  0  0  0  0  0  0
   11.9338  -19.3509   21.0846 C   0  0  0  0  0  0  0  0  0  0  0  0
   12.1181  -20.1822   20.1643 O   0  0  0  0  0  0  0  0  0  0  0  0
   10.7723  -18.4266   21.0744 C   0  0  0  0  0  0  0  0  0  0  0  0
   10.8415  -17.5799   22.2973 C   0  0  0  0  0  0  0  0  0  0  0  0
    9.6733  -16.6284   22.4716 C   0  0  2  0  0  0  0  0  0  0  0  0
    9.7927  -15.6798   21.3492 N   0  0  0  0  0  0  0  0  0  0  0  0
    9.7381  -15.9012   23.7402 C   0  0  0  0  0  0  0  0  0  0  0  0
   10.7070  -15.1026   23.9757 O   0  0  0  0  0  0  0  0  0  0  0  0
    8.7797  -16.0054   24.7803 N   0  0  0  0  0  0  0  0  0  0  0  0
    8.9759  -15.4242   26.0900 C   0  0  1  0  0  0  0  0  0  0  0  0
    7.7589  -14.6341   26.5330 C   0  0  0  0  0  0  0  0  0  0  0  0
    7.1368  -13.5634   25.2176 S   0  0  0  0  0  0  0  0  0  0  0  0
    9.2630  -16.4595   27.1104 C   0  0  0  0  0  0  0  0  0  0  0  0
    9.5972  -16.1483   28.4139 O   0  0  0  0  0  0  0  0  0  0  0  0
    9.2004  -17.6663   26.7789 O   0  0  0  0  0  0  0  0  0  0  0  0
  2  1  1  6
  2  4  1  0
  2  3  1  0
  4  5  1  6
  6  7  2  0
  6  4  1  0
  8  9  1  0
  9 11  1  0
  9 10  2  0
 11 12  1  0
 13 12  1  1
 13 15  1  0
 13 14  1  0
 14  6  1  0
 15 17  1  0
 16 15  2  0
 17 18  1  0
 18 21  1  0
 19 20  1  0
 18 19  1  1
 21 23  2  0
 21 22  1  0
M  END
$$$$
