TQC.pdb
     RDKit          3D

 23 22  0  0  1  0  0  0  0  0999 V2000
    8.4144  -12.4072   20.2619 C   0  0  0  0  0  0  0  0  0  0  0  0
    7.7620  -13.4882   19.4400 C   0  0  1  0  0  0  0  0  0  0  0  0
    8.2244  -13.2759   18.1115 O   0  0  0  0  0  0  0  0  0  0  0  0
    8.2718  -14.8705   19.7978 C   0  0  2  0  0  0  0  0  0  0  0  0
    7.4790  -15.7750   18.9296 N   0  0  0  0  0  0  0  0  0  0  0  0
    7.9920  -15.2798   21.1822 C   0  0  0  0  0  0  0  0  0  0  0  0
    6.8065  -15.6242   21.4835 O   0  0  0  0  0  0  0  0  0  0  0  0
   10.8980  -19.2301   24.0987 N   0  0  0  0  0  0  0  0  0  0  0  0
   10.2005  -18.8142   25.2503 C   0  0  0  0  0  0  0  0  0  0  0  0
   10.3477  -19.4628   26.3132 O   0  0  0  0  0  0  0  0  0  0  0  0
    9.3128  -17.6265   25.1825 C   0  0  0  0  0  0  0  0  0  0  0  0
    9.4181  -17.0450   23.8158 C   0  0  0  0  0  0  0  0  0  0  0  0
    8.5283  -15.8410   23.5731 C   0  0  2  0  0  0  0  0  0  0  0  0
    8.9348  -15.3360   22.2489 N   0  0  0  0  0  0  0  0  0  0  0  0
    8.7252  -14.7971   24.5801 C   0  0  0  0  0  0  0  0  0  0  0  0
    9.8387  -14.1751   24.6532 O   0  0  0  0  0  0  0  0  0  0  0  0
    7.7485  -14.3929   25.5255 N   0  0  0  0  0  0  0  0  0  0  0  0
    8.0163  -13.4251   26.5663 C   0  0  1  0  0  0  0  0  0  0  0  0
    6.7382  -12.7711   27.0563 C   0  0  0  0  0  0  0  0  0  0  0  0
    5.7891  -12.0492   25.6993 S   0  0  0  0  0  0  0  0  0  0  0  0
    8.7037  -14.0433   27.7243 C   0  0  0  0  0  0  0  0  0  0  0  0
    9.1226  -13.3127   28.8191 O   0  0  0  0  0  0  0  0  0  0  0  0
    8.9140  -15.2785   27.7113 O   0  0  0  0  0  0  0  0  0  0  0  0
  2  1  1  1
  2  4  1  0
  2  3  1  0
  4  5  1  6
  6  7  2  0
  6  4  1  0
  8  9  1  0
  9 11  1  0
  9 10  2  0
 11 12  1  0
 13 12  1  1
 13 15  1  0
 13 14  1  0
 14  6  1  0
 15 17  1  0
 16 15  2  0
 17 18  1  0
 18 21  1  0
 19 20  1  0
 18 19  1  1
 21 23  2  0
 21 22  1  0
M  END
$$$$
