TQC.pdb
     RDKit          3D

 23 22  0  0  1  0  0  0  0  0999 V2000
    8.4964  -12.3944   20.2070 C   0  0  0  0  0  0  0  0  0  0  0  0
    7.8222  -13.4226   19.3365 C   0  0  1  0  0  0  0  0  0  0  0  0
    8.2488  -13.1265   18.0120 O   0  0  0  0  0  0  0  0  0  0  0  0
    8.3414  -14.8238   19.5928 C   0  0  2  0  0  0  0  0  0  0  0  0
    7.4929  -15.6789   18.7271 N   0  0  0  0  0  0  0  0  0  0  0  0
    8.1392  -15.3026   20.9684 C   0  0  0  0  0  0  0  0  0  0  0  0
    6.9704  -15.6555   21.3206 O   0  0  0  0  0  0  0  0  0  0  0  0
   11.4962  -19.1370   23.7340 N   0  0  0  0  0  0  0  0  0  0  0  0
   10.7977  -18.7906   24.9078 C   0  0  0  0  0  0  0  0  0  0  0  0
   11.0365  -19.4248   25.9626 O   0  0  0  0  0  0  0  0  0  0  0  0
    9.8015  -17.6907   24.8721 C   0  0  0  0  0  0  0  0  0  0  0  0
    9.8284  -17.0833   23.5129 C   0  0  0  0  0  0  0  0  0  0  0  0
    8.8075  -15.9832   23.2942 C   0  0  2  0  0  0  0  0  0  0  0  0
    9.1421  -15.4192   21.9737 N   0  0  0  0  0  0  0  0  0  0  0  0
    8.8967  -14.9367   24.3137 C   0  0  0  0  0  0  0  0  0  0  0  0
    9.9516  -14.2231   24.4131 O   0  0  0  0  0  0  0  0  0  0  0  0
    7.8722  -14.6267   25.2441 N   0  0  0  0  0  0  0  0  0  0  0  0
    8.0344  -13.6429   26.2917 C   0  0  1  0  0  0  0  0  0  0  0  0
    6.7061  -13.0182   26.6748 C   0  0  0  0  0  0  0  0  0  0  0  0
    6.1538  -11.8090   25.4515 S   0  0  0  0  0  0  0  0  0  0  0  0
    8.6458  -14.2324   27.5059 C   0  0  0  0  0  0  0  0  0  0  0  0
    9.0051  -13.4736   28.6026 O   0  0  0  0  0  0  0  0  0  0  0  0
    8.8455  -15.4689   27.5405 O   0  0  0  0  0  0  0  0  0  0  0  0
  2  1  1  1
  2  4  1  0
  2  3  1  0
  4  5  1  6
  6  7  2  0
  6  4  1  0
  8  9  1  0
  9 11  1  0
  9 10  2  0
 11 12  1  0
 13 12  1  1
 13 15  1  0
 13 14  1  0
 14  6  1  0
 15 17  1  0
 16 15  2  0
 17 18  1  0
 18 21  1  0
 19 20  1  0
 18 19  1  1
 21 23  2  0
 21 22  1  0
M  END
$$$$
