TQC.pdb
     RDKit          3D

 23 22  0  0  1  0  0  0  0  0999 V2000
    6.1020  -18.5700   19.3816 C   0  0  0  0  0  0  0  0  0  0  0  0
    6.3820  -18.0108   20.7522 C   0  0  1  0  0  0  0  0  0  0  0  0
    5.6397  -16.7991   20.8186 O   0  0  0  0  0  0  0  0  0  0  0  0
    5.7961  -18.8700   21.8554 C   0  0  2  0  0  0  0  0  0  0  0  0
    4.3451  -18.8982   21.5484 N   0  0  0  0  0  0  0  0  0  0  0  0
    5.9201  -18.2938   23.2026 C   0  0  0  0  0  0  0  0  0  0  0  0
    4.9359  -17.6442   23.6759 O   0  0  0  0  0  0  0  0  0  0  0  0
   10.1076  -19.7197   27.4136 N   0  0  0  0  0  0  0  0  0  0  0  0
    9.4719  -18.7015   28.1516 C   0  0  0  0  0  0  0  0  0  0  0  0
    9.8681  -18.4622   29.3168 O   0  0  0  0  0  0  0  0  0  0  0  0
    8.3550  -17.9389   27.5397 C   0  0  0  0  0  0  0  0  0  0  0  0
    8.1154  -18.4813   26.1738 C   0  0  0  0  0  0  0  0  0  0  0  0
    7.0415  -17.7547   25.3869 C   0  0  2  0  0  0  0  0  0  0  0  0
    7.0556  -18.3924   24.0576 N   0  0  0  0  0  0  0  0  0  0  0  0
    7.3283  -16.3258   25.2509 C   0  0  0  0  0  0  0  0  0  0  0  0
    8.0626  -15.9049   24.2940 O   0  0  0  0  0  0  0  0  0  0  0  0
    6.8430  -15.3185   26.1232 N   0  0  0  0  0  0  0  0  0  0  0  0
    7.1751  -13.9194   25.9688 C   0  0  1  0  0  0  0  0  0  0  0  0
    5.9664  -13.0340   26.2069 C   0  0  0  0  0  0  0  0  0  0  0  0
    6.4144  -11.2848   26.2620 S   0  0  0  0  0  0  0  0  0  0  0  0
    8.2522  -13.5070   26.8990 C   0  0  0  0  0  0  0  0  0  0  0  0
    8.9286  -12.3095   26.7717 O   0  0  0  0  0  0  0  0  0  0  0  0
    8.5631  -14.2746   27.8394 O   0  0  0  0  0  0  0  0  0  0  0  0
  2  1  1  6
  2  4  1  0
  2  3  1  0
  4  5  1  6
  6  7  2  0
  6  4  1  0
  8  9  1  0
  9 11  1  0
  9 10  2  0
 11 12  1  0
 13 12  1  1
 13 15  1  0
 13 14  1  0
 14  6  1  0
 15 17  1  0
 16 15  2  0
 17 18  1  0
 18 21  1  0
 19 20  1  0
 18 19  1  1
 21 23  2  0
 21 22  1  0
M  END
$$$$
