TQC.pdb
     RDKit          3D

 23 22  0  0  1  0  0  0  0  0999 V2000
    1.2675  -19.7098   21.7819 C   0  0  0  0  0  0  0  0  0  0  0  0
    2.5956  -19.2008   22.2786 C   0  0  1  0  0  0  0  0  0  0  0  0
    3.2210  -20.3245   22.8870 O   0  0  0  0  0  0  0  0  0  0  0  0
    3.5277  -18.8218   21.1446 C   0  0  2  0  0  0  0  0  0  0  0  0
    3.7795  -20.1077   20.4492 N   0  0  0  0  0  0  0  0  0  0  0  0
    4.8417  -18.3259   21.5804 C   0  0  0  0  0  0  0  0  0  0  0  0
    5.8128  -19.1443   21.6254 O   0  0  0  0  0  0  0  0  0  0  0  0
    8.6179  -15.3357   20.4017 N   0  0  0  0  0  0  0  0  0  0  0  0
    8.9624  -14.9803   21.7210 C   0  0  0  0  0  0  0  0  0  0  0  0
   10.1658  -15.0388   22.0681 O   0  0  0  0  0  0  0  0  0  0  0  0
    7.9024  -14.5473   22.6656 C   0  0  0  0  0  0  0  0  0  0  0  0
    6.6122  -15.1432   22.2212 C   0  0  0  0  0  0  0  0  0  0  0  0
    6.5087  -16.6430   22.4221 C   0  0  2  0  0  0  0  0  0  0  0  0
    5.1505  -16.9890   21.9643 N   0  0  0  0  0  0  0  0  0  0  0  0
    6.6672  -17.0241   23.8264 C   0  0  0  0  0  0  0  0  0  0  0  0
    5.7601  -16.7349   24.6782 O   0  0  0  0  0  0  0  0  0  0  0  0
    7.7863  -17.7179   24.3532 N   0  0  0  0  0  0  0  0  0  0  0  0
    7.9703  -17.9514   25.7686 C   0  0  1  0  0  0  0  0  0  0  0  0
    7.2871  -19.2313   26.2119 C   0  0  0  0  0  0  0  0  0  0  0  0
    7.7849  -19.7167   27.8792 S   0  0  0  0  0  0  0  0  0  0  0  0
    9.4056  -18.0344   26.1272 C   0  0  0  0  0  0  0  0  0  0  0  0
    9.8391  -18.2516   27.4205 O   0  0  0  0  0  0  0  0  0  0  0  0
   10.2617  -17.9024   25.2217 O   0  0  0  0  0  0  0  0  0  0  0  0
  2  1  1  6
  2  4  1  0
  2  3  1  0
  4  5  1  6
  6  7  2  0
  6  4  1  0
  8  9  1  0
  9 11  1  0
  9 10  2  0
 11 12  1  0
 13 12  1  1
 13 15  1  0
 13 14  1  0
 14  6  1  0
 15 17  1  0
 16 15  2  0
 17 18  1  0
 18 21  1  0
 19 20  1  0
 18 19  1  6
 21 23  2  0
 21 22  1  0
M  END
$$$$
