INW.pdb
     RDKit          3D

 31 32  0  0  1  0  0  0  0  0999 V2000
   26.0104  -18.7470  -19.3230 C   0  0  0  0  0  0  0  0  0  0  0  0
   26.0839  -17.4954  -18.5200 C   0  0  0  0  0  0  0  0  0  0  0  0
   25.7039  -17.6543  -17.0830 C   0  0  2  0  0  0  0  0  0  0  0  0
   26.6977  -18.5514  -16.3501 C   0  0  0  0  0  0  0  0  0  0  0  0
   24.2925  -18.0738  -16.8357 C   0  0  2  0  0  0  0  0  0  0  0  0
   23.4443  -17.0446  -17.4061 N   0  0  0  0  0  0  0  0  0  0  0  0
   23.9741  -18.3052  -15.3993 C   0  0  0  0  0  0  0  0  0  0  0  0
   23.8274  -17.3092  -14.6642 O   0  0  0  0  0  0  0  0  0  0  0  0
   22.7543  -20.3353  -10.7338 N   0  0  0  0  0  0  0  0  0  0  0  0
   21.7569  -20.3217  -11.7636 C   0  0  0  0  0  0  0  0  0  0  0  0
   20.5848  -20.5282  -11.3570 O   0  0  0  0  0  0  0  0  0  0  0  0
   22.1453  -20.0808  -13.1634 C   0  0  0  0  0  0  0  0  0  0  0  0
   23.5677  -19.8447  -13.4101 C   0  0  2  0  0  0  0  0  0  0  0  0
   23.8342  -19.5870  -14.8410 N   0  0  0  0  0  0  0  0  0  0  0  0
   24.5803  -20.7497  -12.9470 C   0  0  0  0  0  0  0  0  0  0  0  0
   24.2723  -21.9729  -12.7512 O   0  0  0  0  0  0  0  0  0  0  0  0
   25.9319  -20.4100  -12.6795 N   0  0  0  0  0  0  0  0  0  0  0  0
   26.6495  -20.7692  -11.5143 C   0  0  1  0  0  0  0  0  0  0  0  0
   27.3857  -19.7151  -10.7718 C   0  0  0  0  0  0  0  0  0  0  0  0
   28.2817  -20.1902   -9.6947 C   0  0  0  0  0  0  0  0  0  0  0  0
   29.3652  -21.0628   -9.8526 C   0  0  0  0  0  0  0  0  0  0  0  0
   29.9449  -21.2425   -8.6646 N   0  0  0  0  0  0  0  0  0  0  0  0
   29.3236  -20.5489   -7.7173 C   0  0  0  0  0  0  0  0  0  0  0  0
   29.5176  -20.4052   -6.3681 C   0  0  0  0  0  0  0  0  0  0  0  0
   28.6922  -19.6100   -5.6120 C   0  0  0  0  0  0  0  0  0  0  0  0
   27.6461  -18.9403   -6.2145 C   0  0  0  0  0  0  0  0  0  0  0  0
   27.4704  -19.1019   -7.5823 C   0  0  0  0  0  0  0  0  0  0  0  0
   28.2857  -19.8925   -8.3585 C   0  0  0  0  0  0  0  0  0  0  0  0
   25.8266  -21.6252  -10.5751 C   0  0  0  0  0  0  0  0  0  0  0  0
   24.8496  -21.1786   -9.9505 O   0  0  0  0  0  0  0  0  0  0  0  0
   26.2026  -22.9436  -10.4283 O   0  0  0  0  0  0  0  0  0  0  0  0
  2  3  1  0
  2  1  1  0
  3  4  1  6
  5  6  1  1
  5  3  1  0
  7  5  1  0
  8  7  2  0
  9 10  1  0
 10 12  1  0
 11 10  2  0
 13 12  1  6
 13 15  1  0
 13 14  1  0
 14  7  1  0
 15 16  2  0
 17 18  1  0
 17 15  1  0
 18 29  1  0
 18 19  1  1
 20 19  1  0
 20 28  1  0
 21 20  2  0
 22 21  1  0
 22 23  1  0
 23 24  1  0
 23 28  2  0
 24 25  2  0
 25 26  1  0
 27 26  2  0
 28 27  1  0
 29 30  2  0
 29 31  1  0
M  END
$$$$
