INW.pdb
     RDKit          3D

 31 32  0  0  1  0  0  0  0  0999 V2000
   29.0905  -15.8382  -17.8544 C   0  0  0  0  0  0  0  0  0  0  0  0
   28.4661  -16.4881  -16.6693 C   0  0  0  0  0  0  0  0  0  0  0  0
   27.6559  -17.7050  -16.9814 C   0  0  2  0  0  0  0  0  0  0  0  0
   26.6620  -17.4272  -18.1059 C   0  0  0  0  0  0  0  0  0  0  0  0
   26.9982  -18.3553  -15.8094 C   0  0  2  0  0  0  0  0  0  0  0  0
   28.0456  -18.6411  -14.8474 N   0  0  0  0  0  0  0  0  0  0  0  0
   26.2275  -19.5824  -16.1533 C   0  0  0  0  0  0  0  0  0  0  0  0
   25.1543  -19.4455  -16.7728 O   0  0  0  0  0  0  0  0  0  0  0  0
   26.5011  -25.6814  -16.0225 N   0  0  0  0  0  0  0  0  0  0  0  0
   26.0819  -24.5050  -16.7265 C   0  0  0  0  0  0  0  0  0  0  0  0
   25.1409  -24.6916  -17.5398 O   0  0  0  0  0  0  0  0  0  0  0  0
   26.7454  -23.2158  -16.4692 C   0  0  0  0  0  0  0  0  0  0  0  0
   25.8760  -22.1050  -16.0822 C   0  0  2  0  0  0  0  0  0  0  0  0
   26.6532  -20.8771  -15.8117 N   0  0  0  0  0  0  0  0  0  0  0  0
   24.9032  -22.2299  -15.0348 C   0  0  0  0  0  0  0  0  0  0  0  0
   23.9115  -23.0156  -15.2039 O   0  0  0  0  0  0  0  0  0  0  0  0
   24.9368  -21.5479  -13.7908 N   0  0  0  0  0  0  0  0  0  0  0  0
   23.9969  -21.7081  -12.7455 C   0  0  1  0  0  0  0  0  0  0  0  0
   24.4906  -21.9899  -11.3739 C   0  0  0  0  0  0  0  0  0  0  0  0
   25.5473  -21.0856  -10.8696 C   0  0  0  0  0  0  0  0  0  0  0  0
   25.3741  -20.0649   -9.9270 C   0  0  0  0  0  0  0  0  0  0  0  0
   26.5535  -19.4813   -9.7084 N   0  0  0  0  0  0  0  0  0  0  0  0
   27.5094  -20.0411  -10.4414 C   0  0  0  0  0  0  0  0  0  0  0  0
   28.8525  -19.8074  -10.5837 C   0  0  0  0  0  0  0  0  0  0  0  0
   29.6164  -20.5538  -11.4465 C   0  0  0  0  0  0  0  0  0  0  0  0
   29.0283  -21.5592  -12.1874 C   0  0  0  0  0  0  0  0  0  0  0  0
   27.6665  -21.7766  -12.0256 C   0  0  0  0  0  0  0  0  0  0  0  0
   26.8829  -21.0416  -11.1665 C   0  0  0  0  0  0  0  0  0  0  0  0
   22.9566  -20.6083  -12.7362 C   0  0  0  0  0  0  0  0  0  0  0  0
   23.1027  -19.5479  -13.3673 O   0  0  0  0  0  0  0  0  0  0  0  0
   21.8178  -20.8217  -11.9886 O   0  0  0  0  0  0  0  0  0  0  0  0
  2  3  1  0
  2  1  1  0
  3  4  1  6
  5  6  1  1
  5  3  1  0
  7  5  1  0
  8  7  2  0
  9 10  1  0
 10 12  1  0
 11 10  2  0
 13 12  1  1
 13 15  1  0
 13 14  1  0
 14  7  1  0
 15 16  2  0
 17 18  1  0
 17 15  1  0
 18 29  1  0
 18 19  1  1
 20 19  1  0
 20 28  1  0
 21 20  2  0
 22 21  1  0
 22 23  1  0
 23 24  1  0
 23 28  2  0
 24 25  2  0
 25 26  1  0
 27 26  2  0
 28 27  1  0
 29 30  2  0
 29 31  1  0
M  END
$$$$
