INW.pdb
     RDKit          3D

 31 32  0  0  1  0  0  0  0  0999 V2000
   22.9881  -16.1409  -16.3927 C   0  0  0  0  0  0  0  0  0  0  0  0
   22.1985  -17.3829  -16.1677 C   0  0  0  0  0  0  0  0  0  0  0  0
   22.9918  -18.5404  -15.6524 C   0  0  2  0  0  0  0  0  0  0  0  0
   22.0812  -19.7116  -15.2937 C   0  0  0  0  0  0  0  0  0  0  0  0
   23.9463  -18.2231  -14.5490 C   0  0  2  0  0  0  0  0  0  0  0  0
   24.9051  -17.2757  -15.0850 N   0  0  0  0  0  0  0  0  0  0  0  0
   24.6260  -19.4181  -13.9762 C   0  0  0  0  0  0  0  0  0  0  0  0
   23.9321  -20.2413  -13.3477 O   0  0  0  0  0  0  0  0  0  0  0  0
   29.3737  -20.8556  -12.4306 N   0  0  0  0  0  0  0  0  0  0  0  0
   29.1255  -21.3678  -13.7464 C   0  0  0  0  0  0  0  0  0  0  0  0
   30.1402  -21.8353  -14.3239 O   0  0  0  0  0  0  0  0  0  0  0  0
   27.7675  -21.3168  -14.3137 C   0  0  0  0  0  0  0  0  0  0  0  0
   26.7244  -20.7641  -13.4499 C   0  0  2  0  0  0  0  0  0  0  0  0
   26.0042  -19.6554  -14.1111 N   0  0  0  0  0  0  0  0  0  0  0  0
   26.9929  -20.3507  -12.1023 C   0  0  0  0  0  0  0  0  0  0  0  0
   28.1671  -19.9500  -11.8019 O   0  0  0  0  0  0  0  0  0  0  0  0
   26.0534  -20.3402  -11.0389 N   0  0  0  0  0  0  0  0  0  0  0  0
   26.0835  -21.1971   -9.9135 C   0  0  1  0  0  0  0  0  0  0  0  0
   27.3491  -21.3330   -9.1491 C   0  0  0  0  0  0  0  0  0  0  0  0
   27.5239  -20.3956   -8.0180 C   0  0  0  0  0  0  0  0  0  0  0  0
   26.8107  -19.2076   -7.8178 C   0  0  0  0  0  0  0  0  0  0  0  0
   27.2293  -18.6445   -6.6832 N   0  0  0  0  0  0  0  0  0  0  0  0
   28.1773  -19.3745   -6.1062 C   0  0  0  0  0  0  0  0  0  0  0  0
   28.9182  -19.2304   -4.9621 C   0  0  0  0  0  0  0  0  0  0  0  0
   29.8640  -20.1598   -4.6059 C   0  0  0  0  0  0  0  0  0  0  0  0
   30.0783  -21.2616   -5.4096 C   0  0  0  0  0  0  0  0  0  0  0  0
   29.3153  -21.3852   -6.5631 C   0  0  0  0  0  0  0  0  0  0  0  0
   28.3623  -20.4668   -6.9381 C   0  0  0  0  0  0  0  0  0  0  0  0
   24.9079  -20.9688   -8.9873 C   0  0  0  0  0  0  0  0  0  0  0  0
   24.6900  -21.6884   -7.9980 O   0  0  0  0  0  0  0  0  0  0  0  0
   24.0665  -19.9168   -9.2813 O   0  0  0  0  0  0  0  0  0  0  0  0
  2  3  1  0
  2  1  1  0
  3  4  1  1
  5  6  1  6
  5  3  1  0
  7  5  1  0
  8  7  2  0
  9 10  1  0
 10 12  1  0
 11 10  2  0
 13 12  1  6
 13 15  1  0
 13 14  1  0
 14  7  1  0
 15 16  2  0
 17 18  1  0
 17 15  1  0
 18 29  1  0
 18 19  1  1
 20 19  1  0
 20 28  1  0
 21 20  2  0
 22 21  1  0
 22 23  1  0
 23 24  1  0
 23 28  2  0
 24 25  2  0
 25 26  1  0
 27 26  2  0
 28 27  1  0
 29 30  2  0
 29 31  1  0
M  END
$$$$
