INW.pdb
     RDKit          3D

 31 32  0  0  1  0  0  0  0  0999 V2000
   13.1592  -20.1364    0.8238 C   0  0  0  0  0  0  0  0  0  0  0  0
   14.5098  -20.2035    1.4466 C   0  0  0  0  0  0  0  0  0  0  0  0
   14.6432  -19.4448    2.7277 C   0  0  2  0  0  0  0  0  0  0  0  0
   14.2931  -17.9723    2.5307 C   0  0  0  0  0  0  0  0  0  0  0  0
   15.9440  -19.6140    3.4406 C   0  0  2  0  0  0  0  0  0  0  0  0
   16.2134  -21.0386    3.4869 N   0  0  0  0  0  0  0  0  0  0  0  0
   15.9689  -19.0123    4.8027 C   0  0  0  0  0  0  0  0  0  0  0  0
   15.7788  -17.7844    4.9041 O   0  0  0  0  0  0  0  0  0  0  0  0
   13.7174  -21.6224    8.3543 N   0  0  0  0  0  0  0  0  0  0  0  0
   14.2965  -20.3130    8.4275 C   0  0  0  0  0  0  0  0  0  0  0  0
   13.4637  -19.3821    8.5750 O   0  0  0  0  0  0  0  0  0  0  0  0
   15.7562  -20.1455    8.3289 C   0  0  0  0  0  0  0  0  0  0  0  0
   16.2331  -19.1885    7.3309 C   0  0  2  0  0  0  0  0  0  0  0  0
   16.1968  -19.7620    5.9690 N   0  0  0  0  0  0  0  0  0  0  0  0
   17.4879  -18.5065    7.4699 C   0  0  0  0  0  0  0  0  0  0  0  0
   18.5190  -18.9869    6.8906 O   0  0  0  0  0  0  0  0  0  0  0  0
   17.7021  -17.3133    8.2075 N   0  0  0  0  0  0  0  0  0  0  0  0
   18.9505  -16.6687    8.3742 C   0  0  1  0  0  0  0  0  0  0  0  0
   19.7614  -16.3535    7.1710 C   0  0  0  0  0  0  0  0  0  0  0  0
   19.3273  -15.1739    6.3908 C   0  0  0  0  0  0  0  0  0  0  0  0
   18.2282  -15.1207    5.5251 C   0  0  0  0  0  0  0  0  0  0  0  0
   18.1416  -13.8888    5.0207 N   0  0  0  0  0  0  0  0  0  0  0  0
   19.1095  -13.1090    5.4892 C   0  0  0  0  0  0  0  0  0  0  0  0
   19.4551  -11.7994    5.2790 C   0  0  0  0  0  0  0  0  0  0  0  0
   20.5424  -11.2419    5.9052 C   0  0  0  0  0  0  0  0  0  0  0  0
   21.3060  -12.0078    6.7631 C   0  0  0  0  0  0  0  0  0  0  0  0
   20.9356  -13.3314    6.9597 C   0  0  0  0  0  0  0  0  0  0  0  0
   19.8501  -13.9096    6.3435 C   0  0  0  0  0  0  0  0  0  0  0  0
   18.8601  -15.4743    9.3000 C   0  0  0  0  0  0  0  0  0  0  0  0
   17.7735  -15.0145    9.6898 O   0  0  0  0  0  0  0  0  0  0  0  0
   20.0452  -14.8977    9.7055 O   0  0  0  0  0  0  0  0  0  0  0  0
  2  3  1  0
  2  1  1  0
  3  4  1  6
  5  6  1  1
  5  3  1  0
  7  5  1  0
  8  7  2  0
  9 10  1  0
 10 12  1  0
 11 10  2  0
 13 12  1  1
 13 15  1  0
 13 14  1  0
 14  7  1  0
 15 16  2  0
 17 18  1  0
 17 15  1  0
 18 29  1  0
 18 19  1  6
 20 19  1  0
 20 28  1  0
 21 20  2  0
 22 21  1  0
 22 23  1  0
 23 24  1  0
 23 28  2  0
 24 25  2  0
 25 26  1  0
 27 26  2  0
 28 27  1  0
 29 30  2  0
 29 31  1  0
M  END
$$$$
