INW.pdb
     RDKit          3D

 31 32  0  0  1  0  0  0  0  0999 V2000
   28.4478  -16.1988  -17.2955 C   0  0  0  0  0  0  0  0  0  0  0  0
   27.0593  -16.0109  -16.7921 C   0  0  0  0  0  0  0  0  0  0  0  0
   26.5153  -17.1689  -16.0190 C   0  0  2  0  0  0  0  0  0  0  0  0
   27.1957  -17.2863  -14.6578 C   0  0  0  0  0  0  0  0  0  0  0  0
   26.4996  -18.4737  -16.7444 C   0  0  2  0  0  0  0  0  0  0  0  0
   25.9083  -18.2220  -18.0449 N   0  0  0  0  0  0  0  0  0  0  0  0
   25.7792  -19.5582  -16.0213 C   0  0  0  0  0  0  0  0  0  0  0  0
   24.5352  -19.4993  -15.9662 O   0  0  0  0  0  0  0  0  0  0  0  0
   23.9464  -24.5786  -15.2611 N   0  0  0  0  0  0  0  0  0  0  0  0
   25.1832  -24.1337  -14.6887 C   0  0  0  0  0  0  0  0  0  0  0  0
   25.5481  -24.7769  -13.6714 O   0  0  0  0  0  0  0  0  0  0  0  0
   25.9133  -23.0074  -15.2945 C   0  0  0  0  0  0  0  0  0  0  0  0
   25.7471  -21.7051  -14.6495 C   0  0  2  0  0  0  0  0  0  0  0  0
   26.4355  -20.6355  -15.4024 N   0  0  0  0  0  0  0  0  0  0  0  0
   26.0413  -21.5016  -13.2599 C   0  0  0  0  0  0  0  0  0  0  0  0
   27.0746  -20.8234  -12.9406 O   0  0  0  0  0  0  0  0  0  0  0  0
   25.2728  -21.9920  -12.1725 N   0  0  0  0  0  0  0  0  0  0  0  0
   24.9216  -21.2504  -11.0199 C   0  0  1  0  0  0  0  0  0  0  0  0
   25.7762  -20.1055  -10.6157 C   0  0  0  0  0  0  0  0  0  0  0  0
   27.0661  -20.4551   -9.9812 C   0  0  0  0  0  0  0  0  0  0  0  0
   28.1434  -21.0933  -10.6075 C   0  0  0  0  0  0  0  0  0  0  0  0
   29.1358  -21.2201   -9.7252 N   0  0  0  0  0  0  0  0  0  0  0  0
   28.7982  -20.7097   -8.5462 C   0  0  0  0  0  0  0  0  0  0  0  0
   29.4432  -20.6022   -7.3415 C   0  0  0  0  0  0  0  0  0  0  0  0
   28.8325  -20.0215   -6.2576 C   0  0  0  0  0  0  0  0  0  0  0  0
   27.5459  -19.5351   -6.3754 C   0  0  0  0  0  0  0  0  0  0  0  0
   26.9138  -19.6555   -7.6058 C   0  0  0  0  0  0  0  0  0  0  0  0
   27.5072  -20.2326   -8.7045 C   0  0  0  0  0  0  0  0  0  0  0  0
   23.4565  -20.8694  -11.0075 C   0  0  0  0  0  0  0  0  0  0  0  0
   22.7063  -21.0760  -11.9763 O   0  0  0  0  0  0  0  0  0  0  0  0
   22.9686  -20.2713   -9.8649 O   0  0  0  0  0  0  0  0  0  0  0  0
  2  3  1  0
  2  1  1  0
  3  4  1  1
  5  6  1  6
  5  3  1  0
  7  5  1  0
  8  7  2  0
  9 10  1  0
 10 12  1  0
 11 10  2  0
 13 12  1  6
 13 15  1  0
 13 14  1  0
 14  7  1  0
 15 16  2  0
 17 18  1  0
 17 15  1  0
 18 29  1  0
 18 19  1  6
 20 19  1  0
 20 28  1  0
 21 20  2  0
 22 21  1  0
 22 23  1  0
 23 24  1  0
 23 28  2  0
 24 25  2  0
 25 26  1  0
 27 26  2  0
 28 27  1  0
 29 30  2  0
 29 31  1  0
M  END
$$$$
