INW.pdb
     RDKit          3D

 31 32  0  0  1  0  0  0  0  0999 V2000
   32.2399  -30.1659  -22.8323 C   0  0  0  0  0  0  0  0  0  0  0  0
   30.8307  -30.2573  -22.3608 C   0  0  0  0  0  0  0  0  0  0  0  0
   30.6397  -31.0747  -21.1238 C   0  0  2  0  0  0  0  0  0  0  0  0
   31.3237  -32.4329  -21.2543 C   0  0  0  0  0  0  0  0  0  0  0  0
   29.2285  -31.2083  -20.6551 C   0  0  2  0  0  0  0  0  0  0  0  0
   28.8255  -29.9039  -20.1648 N   0  0  0  0  0  0  0  0  0  0  0  0
   29.0330  -32.2613  -19.6202 C   0  0  0  0  0  0  0  0  0  0  0  0
   29.8144  -33.2327  -19.6182 O   0  0  0  0  0  0  0  0  0  0  0  0
   29.2153  -31.5448  -15.8512 N   0  0  0  0  0  0  0  0  0  0  0  0
   27.8455  -31.8506  -15.5587 C   0  0  0  0  0  0  0  0  0  0  0  0
   27.4108  -31.3334  -14.4980 O   0  0  0  0  0  0  0  0  0  0  0  0
   27.0706  -32.7091  -16.4704 C   0  0  0  0  0  0  0  0  0  0  0  0
   27.7911  -33.2455  -17.6249 C   0  0  2  0  0  0  0  0  0  0  0  0
   28.0136  -32.2087  -18.6546 N   0  0  0  0  0  0  0  0  0  0  0  0
   27.3603  -34.4329  -18.3056 C   0  0  0  0  0  0  0  0  0  0  0  0
   26.5767  -34.3205  -19.3070 O   0  0  0  0  0  0  0  0  0  0  0  0
   27.7323  -35.7599  -17.9673 N   0  0  0  0  0  0  0  0  0  0  0  0
   27.3513  -36.9219  -18.6787 C   0  0  1  0  0  0  0  0  0  0  0  0
   28.3368  -38.0210  -18.8378 C   0  0  0  0  0  0  0  0  0  0  0  0
   29.5134  -37.7160  -19.6810 C   0  0  0  0  0  0  0  0  0  0  0  0
   30.1794  -36.4863  -19.7483 C   0  0  0  0  0  0  0  0  0  0  0  0
   31.2011  -36.6003  -20.5984 N   0  0  0  0  0  0  0  0  0  0  0  0
   31.2672  -37.8251  -21.1081 C   0  0  0  0  0  0  0  0  0  0  0  0
   32.1045  -38.4319  -22.0079 C   0  0  0  0  0  0  0  0  0  0  0  0
   31.9269  -39.7441  -22.3710 C   0  0  0  0  0  0  0  0  0  0  0  0
   30.8886  -40.4715  -21.8245 C   0  0  0  0  0  0  0  0  0  0  0  0
   30.0544  -39.8347  -20.9154 C   0  0  0  0  0  0  0  0  0  0  0  0
   30.2148  -38.5219  -20.5371 C   0  0  0  0  0  0  0  0  0  0  0  0
   26.0072  -37.4544  -18.2295 C   0  0  0  0  0  0  0  0  0  0  0  0
   25.3572  -36.9307  -17.3090 O   0  0  0  0  0  0  0  0  0  0  0  0
   25.5154  -38.5633  -18.8851 O   0  0  0  0  0  0  0  0  0  0  0  0
  2  3  1  0
  2  1  1  0
  3  4  1  6
  5  6  1  1
  5  3  1  0
  7  5  1  0
  8  7  2  0
  9 10  1  0
 10 12  1  0
 11 10  2  0
 13 12  1  1
 13 15  1  0
 13 14  1  0
 14  7  1  0
 15 16  2  0
 17 18  1  0
 17 15  1  0
 18 29  1  0
 18 19  1  1
 20 19  1  0
 20 28  1  0
 21 20  2  0
 22 21  1  0
 22 23  1  0
 23 24  1  0
 23 28  2  0
 24 25  2  0
 25 26  1  0
 27 26  2  0
 28 27  1  0
 29 30  2  0
 29 31  1  0
M  END
$$$$
