INW.pdb
     RDKit          3D

 31 32  0  0  1  0  0  0  0  0999 V2000
   26.4571  -36.4998  -18.3877 C   0  0  0  0  0  0  0  0  0  0  0  0
   27.5539  -36.8451  -17.4419 C   0  0  0  0  0  0  0  0  0  0  0  0
   28.3178  -35.6714  -16.9190 C   0  0  2  0  0  0  0  0  0  0  0  0
   28.8886  -34.8366  -18.0623 C   0  0  0  0  0  0  0  0  0  0  0  0
   29.3551  -35.9871  -15.8927 C   0  0  2  0  0  0  0  0  0  0  0  0
   28.6537  -36.5149  -14.7378 N   0  0  0  0  0  0  0  0  0  0  0  0
   30.2124  -34.8266  -15.5235 C   0  0  0  0  0  0  0  0  0  0  0  0
   29.8745  -34.1382  -14.5406 O   0  0  0  0  0  0  0  0  0  0  0  0
   35.7966  -32.9734  -14.8533 N   0  0  0  0  0  0  0  0  0  0  0  0
   34.3949  -32.6728  -14.8354 C   0  0  0  0  0  0  0  0  0  0  0  0
   34.1215  -31.4779  -14.5541 O   0  0  0  0  0  0  0  0  0  0  0  0
   33.4106  -33.7275  -15.1308 C   0  0  0  0  0  0  0  0  0  0  0  0
   32.2325  -33.3191  -15.8956 C   0  0  2  0  0  0  0  0  0  0  0  0
   31.3753  -34.4759  -16.2298 N   0  0  0  0  0  0  0  0  0  0  0  0
   32.3354  -32.5126  -17.0780 C   0  0  0  0  0  0  0  0  0  0  0  0
   32.5480  -33.0850  -18.1990 O   0  0  0  0  0  0  0  0  0  0  0  0
   32.2181  -31.0993  -17.1265 N   0  0  0  0  0  0  0  0  0  0  0  0
   32.3324  -30.3095  -18.2948 C   0  0  1  0  0  0  0  0  0  0  0  0
   31.0958  -29.8036  -18.9425 C   0  0  0  0  0  0  0  0  0  0  0  0
   30.2742  -28.8787  -18.1312 C   0  0  0  0  0  0  0  0  0  0  0  0
   30.6792  -27.6286  -17.6481 C   0  0  0  0  0  0  0  0  0  0  0  0
   29.6638  -27.0802  -16.9791 N   0  0  0  0  0  0  0  0  0  0  0  0
   28.6019  -27.8781  -16.9795 C   0  0  0  0  0  0  0  0  0  0  0  0
   27.3458  -27.7825  -16.4393 C   0  0  0  0  0  0  0  0  0  0  0  0
   26.4279  -28.7922  -16.5911 C   0  0  0  0  0  0  0  0  0  0  0  0
   26.7690  -29.9272  -17.2990 C   0  0  0  0  0  0  0  0  0  0  0  0
   28.0471  -30.0004  -17.8367 C   0  0  0  0  0  0  0  0  0  0  0  0
   28.9815  -29.0005  -17.6974 C   0  0  0  0  0  0  0  0  0  0  0  0
   33.3598  -29.2078  -18.1440 C   0  0  0  0  0  0  0  0  0  0  0  0
   33.7715  -28.5442  -19.1105 O   0  0  0  0  0  0  0  0  0  0  0  0
   33.8373  -28.9582  -16.8748 O   0  0  0  0  0  0  0  0  0  0  0  0
  2  3  1  0
  2  1  1  0
  3  4  1  6
  5  6  1  1
  5  3  1  0
  7  5  1  0
  8  7  2  0
  9 10  1  0
 10 12  1  0
 11 10  2  0
 13 12  1  6
 13 15  1  0
 13 14  1  0
 14  7  1  0
 15 16  2  0
 17 18  1  0
 17 15  1  0
 18 29  1  0
 18 19  1  1
 20 19  1  0
 20 28  1  0
 21 20  2  0
 22 21  1  0
 22 23  1  0
 23 24  1  0
 23 28  2  0
 24 25  2  0
 25 26  1  0
 27 26  2  0
 28 27  1  0
 29 30  2  0
 29 31  1  0
M  END
$$$$
