GNH.pdb
     RDKit          3D

 23 23  0  0  1  0  0  0  0  0999 V2000
    6.3633  -19.2134   18.2072 N   0  0  0  0  0  0  0  0  0  0  0  0
    6.2924  -18.2497   19.2834 C   0  0  0  0  0  0  0  0  0  0  0  0
    7.3576  -17.2328   19.0918 C   0  0  0  0  0  0  0  0  0  0  0  0
    7.5874  -16.7610   17.9558 O   0  0  0  0  0  0  0  0  0  0  0  0
    7.4837  -12.4526   18.2802 N   0  0  0  0  0  0  0  0  0  0  0  0
    7.8689  -13.7835   18.5369 C   0  0  0  0  0  0  0  0  0  0  0  0
    8.4094  -14.4379   17.6254 O   0  0  0  0  0  0  0  0  0  0  0  0
    7.6410  -14.3842   19.8407 C   0  0  0  0  0  0  0  0  0  0  0  0
    8.6695  -15.4240   20.2219 C   0  0  2  0  0  0  0  0  0  0  0  0
    8.1538  -16.7561   20.1782 N   0  0  0  0  0  0  0  0  0  0  0  0
    9.2855  -15.1134   21.5493 C   0  0  0  0  0  0  0  0  0  0  0  0
    8.5478  -14.6146   22.4146 O   0  0  0  0  0  0  0  0  0  0  0  0
   10.6362  -15.3610   21.8425 N   0  0  0  0  0  0  0  0  0  0  0  0
   11.1718  -16.0399   22.9934 C   0  0  1  0  0  0  0  0  0  0  0  0
   10.4361  -17.2808   23.3365 C   0  0  0  0  0  0  0  0  0  0  0  0
    9.3719  -17.0139   24.3239 C   0  0  0  0  0  0  0  0  0  0  0  0
    9.3089  -16.1303   25.3534 C   0  0  0  0  0  0  0  0  0  0  0  0
    8.1415  -16.2863   25.9910 N   0  0  0  0  0  0  0  0  0  0  0  0
    7.4462  -17.2617   25.3864 C   0  0  0  0  0  0  0  0  0  0  0  0
    8.1959  -17.7077   24.3678 N   0  0  0  0  0  0  0  0  0  0  0  0
   12.6424  -16.1558   23.0074 C   0  0  0  0  0  0  0  0  0  0  0  0
   13.2189  -16.5486   21.9337 O   0  0  0  0  0  0  0  0  0  0  0  0
   13.4609  -15.8769   24.0738 O   0  0  0  0  0  0  0  0  0  0  0  0
  2  3  1  0
  2  1  1  0
  3 10  1  0
  4  3  2  0
  6  8  1  0
  6  5  1  0
  7  6  2  0
  9  8  1  1
 10  9  1  0
 11  9  1  0
 12 11  2  0
 13 11  1  0
 14 15  1  6
 14 13  1  0
 15 16  1  0
 16 17  2  0
 18 17  1  0
 19 18  1  0
 20 19  2  0
 20 16  1  0
 21 14  1  0
 21 23  1  0
 22 21  2  0
M  END
$$$$
