GNH.pdb
     RDKit          3D

 23 23  0  0  1  0  0  0  0  0999 V2000
    8.3343  -18.2782   18.8318 N   0  0  0  0  0  0  0  0  0  0  0  0
    9.7363  -18.1159   19.1483 C   0  0  0  0  0  0  0  0  0  0  0  0
    9.9499  -16.7593   19.7131 C   0  0  0  0  0  0  0  0  0  0  0  0
   11.1003  -16.2704   19.7721 O   0  0  0  0  0  0  0  0  0  0  0  0
    8.7691  -14.1927   18.0336 N   0  0  0  0  0  0  0  0  0  0  0  0
    7.8842  -13.5266   18.9046 C   0  0  0  0  0  0  0  0  0  0  0  0
    6.9924  -12.8061   18.4181 O   0  0  0  0  0  0  0  0  0  0  0  0
    8.0074  -13.6759   20.3452 C   0  0  0  0  0  0  0  0  0  0  0  0
    9.0680  -14.6664   20.7677 C   0  0  2  0  0  0  0  0  0  0  0  0
    8.8690  -15.9652   20.2059 N   0  0  0  0  0  0  0  0  0  0  0  0
    9.1924  -14.7221   22.2575 C   0  0  0  0  0  0  0  0  0  0  0  0
    9.5990  -13.6991   22.8318 O   0  0  0  0  0  0  0  0  0  0  0  0
    8.8728  -15.8640   23.0096 N   0  0  0  0  0  0  0  0  0  0  0  0
    9.1035  -16.0798   24.4141 C   0  0  1  0  0  0  0  0  0  0  0  0
    7.8614  -16.0473   25.2234 C   0  0  0  0  0  0  0  0  0  0  0  0
    7.4288  -14.6597   25.4805 C   0  0  0  0  0  0  0  0  0  0  0  0
    8.0316  -13.4718   25.2153 C   0  0  0  0  0  0  0  0  0  0  0  0
    7.2567  -12.4786   25.6701 N   0  0  0  0  0  0  0  0  0  0  0  0
    6.1575  -13.0091   26.2276 C   0  0  0  0  0  0  0  0  0  0  0  0
    6.2605  -14.3413   26.1130 N   0  0  0  0  0  0  0  0  0  0  0  0
   10.0253  -17.1901   24.7203 C   0  0  0  0  0  0  0  0  0  0  0  0
   10.4923  -17.8647   23.7373 O   0  0  0  0  0  0  0  0  0  0  0  0
   10.4365  -17.5713   25.9735 O   0  0  0  0  0  0  0  0  0  0  0  0
  2  3  1  0
  2  1  1  0
  3 10  1  0
  4  3  2  0
  6  8  1  0
  6  5  1  0
  7  6  2  0
  9  8  1  1
 10  9  1  0
 11  9  1  0
 12 11  2  0
 13 11  1  0
 14 15  1  1
 14 13  1  0
 15 16  1  0
 16 17  2  0
 18 17  1  0
 19 18  1  0
 20 19  2  0
 20 16  1  0
 21 14  1  0
 21 23  1  0
 22 21  2  0
M  END
$$$$
