GNH.pdb
     RDKit          3D

 23 23  0  0  1  0  0  0  0  0999 V2000
    1.0599  -27.6364   23.9135 N   0  0  0  0  0  0  0  0  0  0  0  0
    1.0432  -26.2009   23.7369 C   0  0  0  0  0  0  0  0  0  0  0  0
    2.4174  -25.6740   23.9354 C   0  0  0  0  0  0  0  0  0  0  0  0
    3.2596  -26.3288   24.5897 O   0  0  0  0  0  0  0  0  0  0  0  0
    4.3608  -23.3837   20.1787 N   0  0  0  0  0  0  0  0  0  0  0  0
    4.9709  -23.6993   21.4090 C   0  0  0  0  0  0  0  0  0  0  0  0
    5.8023  -24.6259   21.4461 O   0  0  0  0  0  0  0  0  0  0  0  0
    4.6381  -22.9584   22.6145 C   0  0  0  0  0  0  0  0  0  0  0  0
    4.0872  -23.8196   23.7276 C   0  0  2  0  0  0  0  0  0  0  0  0
    2.8318  -24.4171   23.3969 N   0  0  0  0  0  0  0  0  0  0  0  0
    4.0151  -23.0592   25.0139 C   0  0  0  0  0  0  0  0  0  0  0  0
    3.3320  -22.0224   25.0228 O   0  0  0  0  0  0  0  0  0  0  0  0
    4.6773  -23.4684   26.1825 N   0  0  0  0  0  0  0  0  0  0  0  0
    4.6716  -22.8162   27.4659 C   0  0  1  0  0  0  0  0  0  0  0  0
    4.1772  -23.6842   28.5618 C   0  0  0  0  0  0  0  0  0  0  0  0
    2.7802  -24.0978   28.3253 C   0  0  0  0  0  0  0  0  0  0  0  0
    1.8914  -23.7363   27.3640 C   0  0  0  0  0  0  0  0  0  0  0  0
    0.7278  -24.3600   27.5894 N   0  0  0  0  0  0  0  0  0  0  0  0
    0.8518  -25.1223   28.6866 C   0  0  0  0  0  0  0  0  0  0  0  0
    2.1047  -24.9637   29.1379 N   0  0  0  0  0  0  0  0  0  0  0  0
    5.8966  -22.0531   27.7712 C   0  0  0  0  0  0  0  0  0  0  0  0
    6.9156  -22.2365   27.0178 O   0  0  0  0  0  0  0  0  0  0  0  0
    6.0487  -21.1532   28.7968 O   0  0  0  0  0  0  0  0  0  0  0  0
  2  3  1  0
  2  1  1  0
  3 10  1  0
  4  3  2  0
  6  8  1  0
  6  5  1  0
  7  6  2  0
  9  8  1  6
 10  9  1  0
 11  9  1  0
 12 11  2  0
 13 11  1  0
 14 15  1  1
 14 13  1  0
 15 16  1  0
 16 17  2  0
 18 17  1  0
 19 18  1  0
 20 19  2  0
 20 16  1  0
 21 14  1  0
 21 23  1  0
 22 21  2  0
M  END
$$$$
