GNH.pdb
     RDKit          3D

 23 23  0  0  1  0  0  0  0  0999 V2000
    9.2067  -16.0072   13.7650 N   0  0  0  0  0  0  0  0  0  0  0  0
    9.7997  -15.3053   14.8820 C   0  0  0  0  0  0  0  0  0  0  0  0
   10.0228  -16.2659   15.9923 C   0  0  0  0  0  0  0  0  0  0  0  0
    9.0561  -16.7079   16.6527 O   0  0  0  0  0  0  0  0  0  0  0  0
   14.3228  -19.2618   19.2510 N   0  0  0  0  0  0  0  0  0  0  0  0
   13.0781  -19.1423   18.6014 C   0  0  0  0  0  0  0  0  0  0  0  0
   12.1312  -19.8556   18.9833 O   0  0  0  0  0  0  0  0  0  0  0  0
   12.8994  -18.2042   17.5056 C   0  0  0  0  0  0  0  0  0  0  0  0
   11.5803  -17.4674   17.5418 C   0  0  2  0  0  0  0  0  0  0  0  0
   11.3295  -16.7204   16.3495 N   0  0  0  0  0  0  0  0  0  0  0  0
   11.4735  -16.6102   18.7632 C   0  0  0  0  0  0  0  0  0  0  0  0
   12.2583  -15.6524   18.8549 O   0  0  0  0  0  0  0  0  0  0  0  0
   10.5388  -16.8464   19.7841 N   0  0  0  0  0  0  0  0  0  0  0  0
   10.3547  -16.0893   20.9946 C   0  0  1  0  0  0  0  0  0  0  0  0
    8.9676  -15.5957   21.1713 C   0  0  0  0  0  0  0  0  0  0  0  0
    8.6523  -14.5316   20.1982 C   0  0  0  0  0  0  0  0  0  0  0  0
    9.4428  -13.8574   19.3235 C   0  0  0  0  0  0  0  0  0  0  0  0
    8.6997  -12.9541   18.6711 N   0  0  0  0  0  0  0  0  0  0  0  0
    7.4353  -13.0349   19.1130 C   0  0  0  0  0  0  0  0  0  0  0  0
    7.4040  -13.9978   20.0459 N   0  0  0  0  0  0  0  0  0  0  0  0
   10.9656  -16.6928   22.1941 C   0  0  0  0  0  0  0  0  0  0  0  0
   10.9124  -16.0288   23.2876 O   0  0  0  0  0  0  0  0  0  0  0  0
   11.5909  -17.9138   22.2501 O   0  0  0  0  0  0  0  0  0  0  0  0
  2  3  1  0
  2  1  1  0
  3 10  1  0
  4  3  2  0
  6  8  1  0
  6  5  1  0
  7  6  2  0
  9  8  1  6
 10  9  1  0
 11  9  1  0
 12 11  2  0
 13 11  1  0
 14 15  1  1
 14 13  1  0
 15 16  1  0
 16 17  2  0
 18 17  1  0
 19 18  1  0
 20 19  2  0
 20 16  1  0
 21 14  1  0
 21 23  1  0
 22 21  2  0
M  END
$$$$
