GNH.pdb
     RDKit          3D

 23 23  0  0  1  0  0  0  0  0999 V2000
   10.3022  -18.6565   18.1678 N   0  0  0  0  0  0  0  0  0  0  0  0
    9.2454  -18.2961   19.0873 C   0  0  0  0  0  0  0  0  0  0  0  0
    9.6895  -17.1374   19.9031 C   0  0  0  0  0  0  0  0  0  0  0  0
   10.8958  -17.0001   20.2063 O   0  0  0  0  0  0  0  0  0  0  0  0
    6.7431  -13.2852   19.4830 N   0  0  0  0  0  0  0  0  0  0  0  0
    7.9908  -13.2993   20.1378 C   0  0  0  0  0  0  0  0  0  0  0  0
    8.9476  -12.6942   19.6185 O   0  0  0  0  0  0  0  0  0  0  0  0
    8.1610  -14.0061   21.3964 C   0  0  0  0  0  0  0  0  0  0  0  0
    9.1466  -15.1497   21.3258 C   0  0  2  0  0  0  0  0  0  0  0  0
    8.7742  -16.1446   20.3699 N   0  0  0  0  0  0  0  0  0  0  0  0
    9.3824  -15.7440   22.6782 C   0  0  0  0  0  0  0  0  0  0  0  0
    9.5099  -16.9775   22.7418 O   0  0  0  0  0  0  0  0  0  0  0  0
    9.4625  -14.9732   23.8492 N   0  0  0  0  0  0  0  0  0  0  0  0
    9.0841  -15.3640   25.1820 C   0  0  1  0  0  0  0  0  0  0  0  0
    7.6267  -15.2551   25.4327 C   0  0  0  0  0  0  0  0  0  0  0  0
    7.2372  -13.8598   25.7158 C   0  0  0  0  0  0  0  0  0  0  0  0
    7.9846  -12.7353   25.8623 C   0  0  0  0  0  0  0  0  0  0  0  0
    7.1745  -11.7073   26.1464 N   0  0  0  0  0  0  0  0  0  0  0  0
    5.9093  -12.1526   26.1857 C   0  0  0  0  0  0  0  0  0  0  0  0
    5.9452  -13.4672   25.9230 N   0  0  0  0  0  0  0  0  0  0  0  0
    9.7131  -16.6110   25.6570 C   0  0  0  0  0  0  0  0  0  0  0  0
    9.4377  -17.6930   25.0302 O   0  0  0  0  0  0  0  0  0  0  0  0
   10.5773  -16.7222   26.7180 O   0  0  0  0  0  0  0  0  0  0  0  0
  2  3  1  0
  2  1  1  0
  3 10  1  0
  4  3  2  0
  6  8  1  0
  6  5  1  0
  7  6  2  0
  9  8  1  1
 10  9  1  0
 11  9  1  0
 12 11  2  0
 13 11  1  0
 14 15  1  6
 14 13  1  0
 15 16  1  0
 16 17  2  0
 18 17  1  0
 19 18  1  0
 20 19  2  0
 20 16  1  0
 21 14  1  0
 21 23  1  0
 22 21  2  0
M  END
$$$$
