GNH.pdb
     RDKit          3D

 23 23  0  0  1  0  0  0  0  0999 V2000
    9.6996  -15.2184   13.1461 N   0  0  0  0  0  0  0  0  0  0  0  0
    9.0819  -15.9657   14.2195 C   0  0  0  0  0  0  0  0  0  0  0  0
    9.5245  -15.3994   15.5190 C   0  0  0  0  0  0  0  0  0  0  0  0
   10.7382  -15.1887   15.7389 O   0  0  0  0  0  0  0  0  0  0  0  0
    8.4392  -11.9106   19.9850 N   0  0  0  0  0  0  0  0  0  0  0  0
    8.3002  -13.3061   19.8482 C   0  0  0  0  0  0  0  0  0  0  0  0
    8.5355  -14.0318   20.8328 O   0  0  0  0  0  0  0  0  0  0  0  0
    7.8897  -13.8910   18.5825 C   0  0  0  0  0  0  0  0  0  0  0  0
    9.0179  -14.5432   17.8169 C   0  0  2  0  0  0  0  0  0  0  0  0
    8.5992  -15.0753   16.5584 N   0  0  0  0  0  0  0  0  0  0  0  0
    9.7103  -15.5750   18.6499 C   0  0  0  0  0  0  0  0  0  0  0  0
    9.4524  -16.7655   18.4091 O   0  0  0  0  0  0  0  0  0  0  0  0
   10.6197  -15.2507   19.6694 N   0  0  0  0  0  0  0  0  0  0  0  0
   12.0559  -15.3377   19.6217 C   0  0  1  0  0  0  0  0  0  0  0  0
   12.6336  -14.8030   18.3650 C   0  0  0  0  0  0  0  0  0  0  0  0
   14.1061  -14.9052   18.3693 C   0  0  0  0  0  0  0  0  0  0  0  0
   14.9667  -15.3742   19.3095 C   0  0  0  0  0  0  0  0  0  0  0  0
   16.2212  -15.2274   18.8640 N   0  0  0  0  0  0  0  0  0  0  0  0
   16.1840  -14.6682   17.6449 C   0  0  0  0  0  0  0  0  0  0  0  0
   14.8929  -14.4704   17.3407 N   0  0  0  0  0  0  0  0  0  0  0  0
   12.7373  -14.9118   20.8589 C   0  0  0  0  0  0  0  0  0  0  0  0
   12.1337  -14.0701   21.6115 O   0  0  0  0  0  0  0  0  0  0  0  0
   13.9702  -15.3392   21.2857 O   0  0  0  0  0  0  0  0  0  0  0  0
  2  3  1  0
  2  1  1  0
  3 10  1  0
  4  3  2  0
  6  8  1  0
  6  5  1  0
  7  6  2  0
  9  8  1  1
 10  9  1  0
 11  9  1  0
 12 11  2  0
 13 11  1  0
 14 15  1  6
 14 13  1  0
 15 16  1  0
 16 17  2  0
 18 17  1  0
 19 18  1  0
 20 19  2  0
 20 16  1  0
 21 14  1  0
 21 23  1  0
 22 21  2  0
M  END
$$$$
