FDQ.pdb
     RDKit          3D

 29 29  0  0  1  0  0  0  0  0999 V2000
    5.8508  -18.0039   24.4295 N   0  0  0  0  0  0  0  0  0  0  0  0
    6.6076  -16.7957   24.5504 C   0  0  1  0  0  0  0  0  0  0  0  0
    6.3833  -16.1700   25.8939 C   0  0  0  0  0  0  0  0  0  0  0  0
    6.8810  -14.7801   25.9482 C   0  0  0  0  0  0  0  0  0  0  0  0
    8.1089  -14.4993   26.4857 C   0  0  0  0  0  0  0  0  0  0  0  0
    8.6294  -13.2159   26.5809 C   0  0  0  0  0  0  0  0  0  0  0  0
    7.8701  -12.1674   26.1097 C   0  0  0  0  0  0  0  0  0  0  0  0
    6.6226  -12.4173   25.5590 C   0  0  0  0  0  0  0  0  0  0  0  0
    6.1285  -13.7075   25.4761 C   0  0  0  0  0  0  0  0  0  0  0  0
    8.0423  -16.9831   24.2232 C   0  0  0  0  0  0  0  0  0  0  0  0
    8.6354  -18.0199   24.6722 O   0  0  0  0  0  0  0  0  0  0  0  0
    8.8219  -16.1044   23.4495 N   0  0  0  0  0  0  0  0  0  0  0  0
   10.1954  -16.3619   23.2045 C   0  0  1  0  0  0  0  0  0  0  0  0
   10.7454  -15.3663   22.2116 C   0  0  0  0  0  0  0  0  0  0  0  0
   11.3916  -16.1531   21.1232 C   0  0  0  0  0  0  0  0  0  0  0  0
   12.3007  -17.0021   21.3682 O   0  0  0  0  0  0  0  0  0  0  0  0
   11.0201  -16.4648   24.4149 C   0  0  0  0  0  0  0  0  0  0  0  0
   11.1964  -15.4629   25.1295 O   0  0  0  0  0  0  0  0  0  0  0  0
   10.9997  -15.9587   19.8181 O   0  0  0  0  0  0  0  0  0  0  0  0
    9.0744  -19.4955   28.4752 N   0  0  0  0  0  0  0  0  0  0  0  0
   10.3671  -19.5151   29.0658 C   0  0  0  0  0  0  0  0  0  0  0  0
   10.4472  -19.7528   30.3122 O   0  0  0  0  0  0  0  0  0  0  0  0
   11.5399  -19.2591   28.2090 C   0  0  0  0  0  0  0  0  0  0  0  0
   11.1542  -19.0214   26.7653 C   0  0  0  0  0  0  0  0  0  0  0  0
   11.9902  -17.8942   26.1690 C   0  0  2  0  0  0  0  0  0  0  0  0
   11.6093  -17.6963   24.7686 N   0  0  0  0  0  0  0  0  0  0  0  0
   13.3960  -18.3609   26.1810 C   0  0  0  0  0  0  0  0  0  0  0  0
   14.0676  -18.5864   24.9835 O   0  0  0  0  0  0  0  0  0  0  0  0
   14.0085  -18.5641   27.2596 O   0  0  0  0  0  0  0  0  0  0  0  0
  2  1  1  1
  2  3  1  0
  2 10  1  0
  3  4  1  0
  4  5  2  0
  5  6  1  0
  7  6  2  0
  8  7  1  0
  9  8  2  0
  9  4  1  0
 10 11  2  0
 12 10  1  0
 12 13  1  0
 13 14  1  6
 14 15  1  0
 15 19  1  0
 16 15  2  0
 17 13  1  0
 17 18  2  0
 21 20  1  0
 21 22  2  0
 23 21  1  0
 24 23  1  0
 25 24  1  6
 25 26  1  0
 26 17  1  0
 27 28  1  0
 27 25  1  0
 29 27  2  0
M  END
$$$$
