FDQ.pdb
     RDKit          3D

 29 29  0  0  1  0  0  0  0  0999 V2000
    6.3728  -16.6865   24.6979 N   0  0  0  0  0  0  0  0  0  0  0  0
    7.5908  -16.0328   24.3290 C   0  0  1  0  0  0  0  0  0  0  0  0
    8.0154  -15.0742   25.4004 C   0  0  0  0  0  0  0  0  0  0  0  0
    7.1258  -13.8971   25.4752 C   0  0  0  0  0  0  0  0  0  0  0  0
    7.2358  -12.8806   24.5641 C   0  0  0  0  0  0  0  0  0  0  0  0
    6.4429  -11.7413   24.5863 C   0  0  0  0  0  0  0  0  0  0  0  0
    5.4941  -11.6262   25.5784 C   0  0  0  0  0  0  0  0  0  0  0  0
    5.3564  -12.6378   26.5164 C   0  0  0  0  0  0  0  0  0  0  0  0
    6.1604  -13.7634   26.4699 C   0  0  0  0  0  0  0  0  0  0  0  0
    8.6580  -16.9868   23.9396 C   0  0  0  0  0  0  0  0  0  0  0  0
    8.5983  -18.1792   24.3901 O   0  0  0  0  0  0  0  0  0  0  0  0
    9.7499  -16.6895   23.1042 N   0  0  0  0  0  0  0  0  0  0  0  0
   10.8600  -17.5673   23.0051 C   0  0  1  0  0  0  0  0  0  0  0  0
   11.3892  -17.5840   21.5911 C   0  0  0  0  0  0  0  0  0  0  0  0
   11.8544  -16.2011   21.2872 C   0  0  0  0  0  0  0  0  0  0  0  0
   11.0386  -15.2765   20.9924 O   0  0  0  0  0  0  0  0  0  0  0  0
   11.9146  -17.3286   23.9985 C   0  0  0  0  0  0  0  0  0  0  0  0
   12.9518  -18.0135   23.9753 O   0  0  0  0  0  0  0  0  0  0  0  0
   13.1997  -15.9122   21.3233 O   0  0  0  0  0  0  0  0  0  0  0  0
   10.6465  -14.1876   28.9444 N   0  0  0  0  0  0  0  0  0  0  0  0
   10.9702  -15.4314   29.5513 C   0  0  0  0  0  0  0  0  0  0  0  0
   11.1096  -15.4575   30.8148 O   0  0  0  0  0  0  0  0  0  0  0  0
   11.1279  -16.6184   28.6905 C   0  0  0  0  0  0  0  0  0  0  0  0
   10.8395  -16.3145   27.2365 C   0  0  0  0  0  0  0  0  0  0  0  0
   12.0404  -16.6739   26.3684 C   0  0  2  0  0  0  0  0  0  0  0  0
   11.7541  -16.3241   24.9753 N   0  0  0  0  0  0  0  0  0  0  0  0
   12.1804  -18.1471   26.4325 C   0  0  0  0  0  0  0  0  0  0  0  0
   13.2005  -18.7200   27.1855 O   0  0  0  0  0  0  0  0  0  0  0  0
   11.3922  -18.9065   25.8145 O   0  0  0  0  0  0  0  0  0  0  0  0
  2  1  1  1
  2  3  1  0
  2 10  1  0
  3  4  1  0
  4  5  2  0
  5  6  1  0
  7  6  2  0
  8  7  1  0
  9  8  2  0
  9  4  1  0
 10 11  2  0
 12 10  1  0
 12 13  1  0
 13 14  1  6
 14 15  1  0
 15 19  1  0
 16 15  2  0
 17 13  1  0
 17 18  2  0
 21 20  1  0
 21 22  2  0
 23 21  1  0
 24 23  1  0
 25 24  1  1
 25 26  1  0
 26 17  1  0
 27 28  1  0
 27 25  1  0
 29 27  2  0
M  END
$$$$
