FDQ.pdb
     RDKit          3D

 29 29  0  0  1  0  0  0  0  0999 V2000
    5.8992  -16.7671   24.5374 N   0  0  0  0  0  0  0  0  0  0  0  0
    7.0935  -15.9873   24.6495 C   0  0  1  0  0  0  0  0  0  0  0  0
    7.2714  -15.5019   26.0565 C   0  0  0  0  0  0  0  0  0  0  0  0
    7.0257  -14.0502   26.1774 C   0  0  0  0  0  0  0  0  0  0  0  0
    7.9305  -13.1464   25.6873 C   0  0  0  0  0  0  0  0  0  0  0  0
    7.7684  -11.7709   25.7811 C   0  0  0  0  0  0  0  0  0  0  0  0
    6.6368  -11.2881   26.4008 C   0  0  0  0  0  0  0  0  0  0  0  0
    5.7005  -12.1763   26.9075 C   0  0  0  0  0  0  0  0  0  0  0  0
    5.8875  -13.5434   26.7994 C   0  0  0  0  0  0  0  0  0  0  0  0
    8.2874  -16.6874   24.1156 C   0  0  0  0  0  0  0  0  0  0  0  0
    8.4844  -17.8994   24.4630 O   0  0  0  0  0  0  0  0  0  0  0  0
    9.2393  -16.1252   23.2459 N   0  0  0  0  0  0  0  0  0  0  0  0
   10.4742  -16.7744   22.9889 C   0  0  1  0  0  0  0  0  0  0  0  0
   11.1835  -16.1110   21.8328 C   0  0  0  0  0  0  0  0  0  0  0  0
   11.3502  -17.1480   20.7754 C   0  0  0  0  0  0  0  0  0  0  0  0
   11.7608  -18.3157   21.0502 O   0  0  0  0  0  0  0  0  0  0  0  0
   11.3376  -16.9272   24.1667 C   0  0  0  0  0  0  0  0  0  0  0  0
   11.8006  -15.9193   24.7283 O   0  0  0  0  0  0  0  0  0  0  0  0
   11.0556  -16.8392   19.4668 O   0  0  0  0  0  0  0  0  0  0  0  0
   10.0709  -20.2785   28.9413 N   0  0  0  0  0  0  0  0  0  0  0  0
   11.4038  -19.9126   29.2726 C   0  0  0  0  0  0  0  0  0  0  0  0
   11.8174  -20.1743   30.4460 O   0  0  0  0  0  0  0  0  0  0  0  0
   12.2315  -19.2516   28.2465 C   0  0  0  0  0  0  0  0  0  0  0  0
   11.4899  -19.0726   26.9397 C   0  0  0  0  0  0  0  0  0  0  0  0
   12.3474  -18.3025   25.9414 C   0  0  2  0  0  0  0  0  0  0  0  0
   11.6399  -18.2124   24.6622 N   0  0  0  0  0  0  0  0  0  0  0  0
   13.5639  -19.1168   25.7151 C   0  0  0  0  0  0  0  0  0  0  0  0
   14.8160  -18.6098   26.0482 O   0  0  0  0  0  0  0  0  0  0  0  0
   13.4961  -20.2706   25.2212 O   0  0  0  0  0  0  0  0  0  0  0  0
  2  1  1  1
  2  3  1  0
  2 10  1  0
  3  4  1  0
  4  5  2  0
  5  6  1  0
  7  6  2  0
  8  7  1  0
  9  8  2  0
  9  4  1  0
 10 11  2  0
 12 10  1  0
 12 13  1  0
 13 14  1  6
 14 15  1  0
 15 19  1  0
 16 15  2  0
 17 13  1  0
 17 18  2  0
 21 20  1  0
 21 22  2  0
 23 21  1  0
 24 23  1  0
 25 24  1  1
 25 26  1  0
 26 17  1  0
 27 28  1  0
 27 25  1  0
 29 27  2  0
M  END
$$$$
