FDQ.pdb
     RDKit          3D

 29 29  0  0  1  0  0  0  0  0999 V2000
    5.6527  -17.5970   25.4964 N   0  0  0  0  0  0  0  0  0  0  0  0
    6.3595  -16.4029   25.1479 C   0  0  1  0  0  0  0  0  0  0  0  0
    7.0072  -15.8055   26.3605 C   0  0  0  0  0  0  0  0  0  0  0  0
    6.8710  -14.3348   26.3941 C   0  0  0  0  0  0  0  0  0  0  0  0
    7.9802  -13.5318   26.4158 C   0  0  0  0  0  0  0  0  0  0  0  0
    7.9229  -12.1456   26.4627 C   0  0  0  0  0  0  0  0  0  0  0  0
    6.6836  -11.5444   26.4892 C   0  0  0  0  0  0  0  0  0  0  0  0
    5.5405  -12.3285   26.4677 C   0  0  0  0  0  0  0  0  0  0  0  0
    5.6272  -13.7091   26.4203 C   0  0  0  0  0  0  0  0  0  0  0  0
    7.3008  -16.6028   24.0190 C   0  0  0  0  0  0  0  0  0  0  0  0
    8.0550  -17.6320   24.0344 O   0  0  0  0  0  0  0  0  0  0  0  0
    7.4400  -15.7440   22.9137 N   0  0  0  0  0  0  0  0  0  0  0  0
    8.4242  -15.9792   21.9194 C   0  0  1  0  0  0  0  0  0  0  0  0
    8.1210  -15.1700   20.6813 C   0  0  0  0  0  0  0  0  0  0  0  0
    9.0339  -15.6602   19.6100 C   0  0  0  0  0  0  0  0  0  0  0  0
    9.3894  -16.8755   19.5461 O   0  0  0  0  0  0  0  0  0  0  0  0
    9.8076  -15.8068   22.3803 C   0  0  0  0  0  0  0  0  0  0  0  0
   10.3667  -14.7032   22.2577 O   0  0  0  0  0  0  0  0  0  0  0  0
    9.5086  -14.7796   18.6647 O   0  0  0  0  0  0  0  0  0  0  0  0
   12.0013  -19.4448   26.7288 N   0  0  0  0  0  0  0  0  0  0  0  0
   11.2231  -18.2772   26.9552 C   0  0  0  0  0  0  0  0  0  0  0  0
   10.6001  -18.1833   28.0595 O   0  0  0  0  0  0  0  0  0  0  0  0
   11.1776  -17.2431   25.9046 C   0  0  0  0  0  0  0  0  0  0  0  0
   12.0429  -17.5964   24.7147 C   0  0  0  0  0  0  0  0  0  0  0  0
   11.8043  -16.6152   23.5721 C   0  0  2  0  0  0  0  0  0  0  0  0
   10.5007  -16.8880   22.9626 N   0  0  0  0  0  0  0  0  0  0  0  0
   12.8369  -16.9009   22.5492 C   0  0  0  0  0  0  0  0  0  0  0  0
   14.1731  -16.6094   22.8049 O   0  0  0  0  0  0  0  0  0  0  0  0
   12.5351  -17.4057   21.4384 O   0  0  0  0  0  0  0  0  0  0  0  0
  2  1  1  1
  2  3  1  0
  2 10  1  0
  3  4  1  0
  4  5  2  0
  5  6  1  0
  7  6  2  0
  8  7  1  0
  9  8  2  0
  9  4  1  0
 10 11  2  0
 12 10  1  0
 12 13  1  0
 13 14  1  6
 14 15  1  0
 15 19  1  0
 16 15  2  0
 17 13  1  0
 17 18  2  0
 21 20  1  0
 21 22  2  0
 23 21  1  0
 24 23  1  0
 25 24  1  1
 25 26  1  0
 26 17  1  0
 27 28  1  0
 27 25  1  0
 29 27  2  0
M  END
$$$$
