LGT.pdb
     RDKit          3D

 20 19  0  0  1  0  0  0  0  0999 V2000
    7.5133  -11.9850   20.3604 C   0  0  0  0  0  0  0  0  0  0  0  0
    7.7993  -13.4493   20.2621 C   0  0  1  0  0  0  0  0  0  0  0  0
    7.5288  -13.8903   18.8274 C   0  0  0  0  0  0  0  0  0  0  0  0
    9.2093  -13.8298   20.5812 C   0  0  0  0  0  0  0  0  0  0  0  0
    9.4647  -15.3110   20.5575 C   0  0  2  0  0  0  0  0  0  0  0  0
    8.4690  -15.9713   21.3603 N   0  0  0  0  0  0  0  0  0  0  0  0
   10.8394  -15.5346   21.0682 C   0  0  0  0  0  0  0  0  0  0  0  0
   11.8339  -15.1910   20.3868 O   0  0  0  0  0  0  0  0  0  0  0  0
   11.0680  -16.1493   22.3540 N   0  0  0  0  0  0  0  0  0  0  0  0
   12.4171  -16.2980   22.7697 C   0  0  0  0  0  0  0  0  0  0  0  0
   12.6367  -16.9262   24.0804 C   0  0  0  0  0  0  0  0  0  0  0  0
   13.8393  -16.9436   24.5309 O   0  0  0  0  0  0  0  0  0  0  0  0
   10.2085  -20.9888   25.3401 C   0  0  0  0  0  0  0  0  0  0  0  0
   10.5955  -19.7318   24.5733 C   0  0  1  0  0  0  0  0  0  0  0  0
    9.4677  -19.0491   24.1251 O   0  0  0  0  0  0  0  0  0  0  0  0
   11.5599  -18.8807   25.3051 C   0  0  2  0  0  0  0  0  0  0  0  0
   11.6517  -17.5191   24.9046 N   0  0  0  0  0  0  0  0  0  0  0  0
   12.8492  -19.5996   25.4655 C   0  0  0  0  0  0  0  0  0  0  0  0
   13.4891  -19.8969   24.4286 O   0  0  0  0  0  0  0  0  0  0  0  0
   13.3521  -19.9459   26.6879 O   0  0  0  0  0  0  0  0  0  0  0  0
  2  4  1  0
  2  1  1  6
  3  2  1  0
  4  5  1  0
  5  7  1  0
  5  6  1  1
  7  9  1  0
  8  7  2  0
  9 10  1  0
 10 11  1  0
 11 17  1  0
 11 12  2  0
 14 13  1  1
 14 16  1  0
 15 14  1  0
 16 18  1  0
 16 17  1  6
 18 19  2  0
 18 20  1  0
M  END
$$$$
