LGT.pdb
     RDKit          3D

 20 19  0  0  1  0  0  0  0  0999 V2000
    6.2181  -12.3167   26.9639 C   0  0  0  0  0  0  0  0  0  0  0  0
    6.3854  -13.0498   25.6716 C   0  0  1  0  0  0  0  0  0  0  0  0
    6.9132  -12.0658   24.6327 C   0  0  0  0  0  0  0  0  0  0  0  0
    7.3484  -14.1920   25.7253 C   0  0  0  0  0  0  0  0  0  0  0  0
    7.2000  -15.1723   24.5954 C   0  0  2  0  0  0  0  0  0  0  0  0
    5.9327  -15.8434   24.7204 N   0  0  0  0  0  0  0  0  0  0  0  0
    8.3451  -16.1127   24.6678 C   0  0  0  0  0  0  0  0  0  0  0  0
    8.2632  -17.1621   25.3485 O   0  0  0  0  0  0  0  0  0  0  0  0
    9.5758  -15.8471   23.9618 N   0  0  0  0  0  0  0  0  0  0  0  0
   10.6561  -16.7403   24.1856 C   0  0  0  0  0  0  0  0  0  0  0  0
   11.2982  -16.6790   25.5066 C   0  0  0  0  0  0  0  0  0  0  0  0
   12.5784  -16.7735   25.5439 O   0  0  0  0  0  0  0  0  0  0  0  0
   10.9479  -13.8629   28.2325 C   0  0  0  0  0  0  0  0  0  0  0  0
   10.7265  -15.2321   28.8602 C   0  0  1  0  0  0  0  0  0  0  0  0
    9.4013  -15.3957   29.2553 O   0  0  0  0  0  0  0  0  0  0  0  0
   11.2454  -16.3411   28.0290 C   0  0  2  0  0  0  0  0  0  0  0  0
   10.6460  -16.5252   26.7524 N   0  0  0  0  0  0  0  0  0  0  0  0
   11.4009  -17.5640   28.8567 C   0  0  0  0  0  0  0  0  0  0  0  0
   10.8889  -18.6283   28.4345 O   0  0  0  0  0  0  0  0  0  0  0  0
   12.0707  -17.5669   30.0477 O   0  0  0  0  0  0  0  0  0  0  0  0
  2  4  1  0
  2  1  1  1
  3  2  1  0
  4  5  1  0
  5  7  1  0
  5  6  1  1
  7  9  1  0
  8  7  2  0
  9 10  1  0
 10 11  1  0
 11 17  1  0
 11 12  2  0
 14 13  1  6
 14 16  1  0
 15 14  1  0
 16 18  1  0
 16 17  1  6
 18 19  2  0
 18 20  1  0
M  END
$$$$
