LGT.pdb
     RDKit          3D

 20 19  0  0  1  0  0  0  0  0999 V2000
    6.5557  -12.7770   18.7770 C   0  0  0  0  0  0  0  0  0  0  0  0
    7.6988  -13.5951   19.2868 C   0  0  1  0  0  0  0  0  0  0  0  0
    8.9469  -12.7186   19.2865 C   0  0  0  0  0  0  0  0  0  0  0  0
    7.5224  -14.1094   20.6794 C   0  0  0  0  0  0  0  0  0  0  0  0
    8.6960  -14.8937   21.1962 C   0  0  2  0  0  0  0  0  0  0  0  0
    8.8870  -16.0538   20.3657 N   0  0  0  0  0  0  0  0  0  0  0  0
    8.4067  -15.2518   22.6064 C   0  0  0  0  0  0  0  0  0  0  0  0
    8.1153  -14.3626   23.4406 O   0  0  0  0  0  0  0  0  0  0  0  0
    8.4524  -16.6235   23.0535 N   0  0  0  0  0  0  0  0  0  0  0  0
    8.2187  -16.8628   24.4330 C   0  0  0  0  0  0  0  0  0  0  0  0
    9.1835  -16.2781   25.3754 C   0  0  0  0  0  0  0  0  0  0  0  0
   10.4270  -16.3425   25.0607 O   0  0  0  0  0  0  0  0  0  0  0  0
    9.1229  -12.6144   26.8419 C   0  0  0  0  0  0  0  0  0  0  0  0
    9.3362  -13.6263   27.9592 C   0  0  1  0  0  0  0  0  0  0  0  0
    8.2336  -13.6780   28.8080 O   0  0  0  0  0  0  0  0  0  0  0  0
    9.7749  -14.9506   27.4653 C   0  0  2  0  0  0  0  0  0  0  0  0
    8.8816  -15.6461   26.6043 N   0  0  0  0  0  0  0  0  0  0  0  0
   10.3499  -15.7423   28.5821 C   0  0  0  0  0  0  0  0  0  0  0  0
    9.8391  -16.8597   28.8343 O   0  0  0  0  0  0  0  0  0  0  0  0
   11.3997  -15.2980   29.3356 O   0  0  0  0  0  0  0  0  0  0  0  0
  2  4  1  0
  2  1  1  1
  3  2  1  0
  4  5  1  0
  5  7  1  0
  5  6  1  6
  7  9  1  0
  8  7  2  0
  9 10  1  0
 10 11  1  0
 11 17  1  0
 11 12  2  0
 14 13  1  6
 14 16  1  0
 15 14  1  0
 16 18  1  0
 16 17  1  1
 18 19  2  0
 18 20  1  0
M  END
$$$$
