LGT.pdb
     RDKit          3D

 20 19  0  0  1  0  0  0  0  0999 V2000
    7.5070  -11.1596   27.1378 C   0  0  0  0  0  0  0  0  0  0  0  0
    6.9181  -12.4433   26.6469 C   0  0  1  0  0  0  0  0  0  0  0  0
    5.3994  -12.3315   26.7313 C   0  0  0  0  0  0  0  0  0  0  0  0
    7.2567  -12.7806   25.2305 C   0  0  0  0  0  0  0  0  0  0  0  0
    6.7956  -14.1446   24.7984 C   0  0  2  0  0  0  0  0  0  0  0  0
    6.9642  -15.0649   25.8923 N   0  0  0  0  0  0  0  0  0  0  0  0
    7.5953  -14.5297   23.6097 C   0  0  0  0  0  0  0  0  0  0  0  0
    7.5780  -13.8211   22.5758 O   0  0  0  0  0  0  0  0  0  0  0  0
    8.4091  -15.7218   23.6109 N   0  0  0  0  0  0  0  0  0  0  0  0
    9.0997  -16.0352   22.4111 C   0  0  0  0  0  0  0  0  0  0  0  0
    9.9914  -17.2032   22.4506 C   0  0  0  0  0  0  0  0  0  0  0  0
    9.6910  -18.1460   23.2692 O   0  0  0  0  0  0  0  0  0  0  0  0
   13.4637  -20.1578   20.4233 C   0  0  0  0  0  0  0  0  0  0  0  0
   12.7058  -18.8379   20.3885 C   0  0  1  0  0  0  0  0  0  0  0  0
   11.8863  -18.7581   19.2656 O   0  0  0  0  0  0  0  0  0  0  0  0
   12.0115  -18.5350   21.6599 C   0  0  2  0  0  0  0  0  0  0  0  0
   11.1570  -17.3982   21.6730 N   0  0  0  0  0  0  0  0  0  0  0  0
   12.9624  -18.6467   22.7949 C   0  0  0  0  0  0  0  0  0  0  0  0
   13.6928  -17.6592   23.0489 O   0  0  0  0  0  0  0  0  0  0  0  0
   13.0688  -19.7751   23.5581 O   0  0  0  0  0  0  0  0  0  0  0  0
  2  4  1  0
  2  1  1  6
  3  2  1  0
  4  5  1  0
  5  7  1  0
  5  6  1  1
  7  9  1  0
  8  7  2  0
  9 10  1  0
 10 11  1  0
 11 17  1  0
 11 12  2  0
 14 13  1  1
 14 16  1  0
 15 14  1  0
 16 18  1  0
 16 17  1  6
 18 19  2  0
 18 20  1  0
M  END
$$$$
