LGT.pdb
     RDKit          3D

 20 19  0  0  1  0  0  0  0  0999 V2000
    6.1078  -12.1769   26.8061 C   0  0  0  0  0  0  0  0  0  0  0  0
    6.2669  -13.0008   25.5685 C   0  0  1  0  0  0  0  0  0  0  0  0
    6.2589  -12.0603   24.3680 C   0  0  0  0  0  0  0  0  0  0  0  0
    7.5371  -13.7863   25.5041 C   0  0  0  0  0  0  0  0  0  0  0  0
    7.6182  -14.7255   24.3332 C   0  0  2  0  0  0  0  0  0  0  0  0
    6.5630  -15.6989   24.4390 N   0  0  0  0  0  0  0  0  0  0  0  0
    8.9641  -15.3490   24.3540 C   0  0  0  0  0  0  0  0  0  0  0  0
    9.9947  -14.6374   24.2989 O   0  0  0  0  0  0  0  0  0  0  0  0
    9.1229  -16.7812   24.4377 N   0  0  0  0  0  0  0  0  0  0  0  0
   10.4495  -17.2860   24.4435 C   0  0  0  0  0  0  0  0  0  0  0  0
   11.1341  -17.3235   25.7439 C   0  0  0  0  0  0  0  0  0  0  0  0
   12.2321  -17.9860   25.8124 O   0  0  0  0  0  0  0  0  0  0  0  0
    9.8702  -14.8871   29.0188 C   0  0  0  0  0  0  0  0  0  0  0  0
   11.2311  -15.5672   29.0745 C   0  0  1  0  0  0  0  0  0  0  0  0
   11.6347  -15.7771   30.3905 O   0  0  0  0  0  0  0  0  0  0  0  0
   11.3101  -16.7752   28.2234 C   0  0  2  0  0  0  0  0  0  0  0  0
   10.7047  -16.6996   26.9386 N   0  0  0  0  0  0  0  0  0  0  0  0
   10.9846  -17.9817   29.0255 C   0  0  0  0  0  0  0  0  0  0  0  0
   10.0258  -18.6969   28.6483 O   0  0  0  0  0  0  0  0  0  0  0  0
   11.6829  -18.3310   30.1468 O   0  0  0  0  0  0  0  0  0  0  0  0
  2  4  1  0
  2  1  1  1
  3  2  1  0
  4  5  1  0
  5  7  1  0
  5  6  1  1
  7  9  1  0
  8  7  2  0
  9 10  1  0
 10 11  1  0
 11 17  1  0
 11 12  2  0
 14 13  1  1
 14 16  1  0
 15 14  1  0
 16 18  1  0
 16 17  1  6
 18 19  2  0
 18 20  1  0
M  END
$$$$
