VLA.pdb
     RDKit          3D

 21 20  0  0  1  0  0  0  0  0999 V2000
    6.8259  -13.5866   19.2079 C   0  0  0  0  0  0  0  0  0  0  0  0
    7.5620  -13.3689   20.4911 C   0  0  2  0  0  0  0  0  0  0  0  0
    8.7937  -12.5242   20.2744 C   0  0  0  0  0  0  0  0  0  0  0  0
    8.0132  -14.6640   21.1308 C   0  0  2  0  0  0  0  0  0  0  0  0
    6.8249  -15.5232   21.1542 N   0  0  0  0  0  0  0  0  0  0  0  0
    8.5347  -14.4893   22.5016 C   0  0  0  0  0  0  0  0  0  0  0  0
    9.6763  -13.9457   22.6653 O   0  0  0  0  0  0  0  0  0  0  0  0
    7.7361  -11.7466   26.2305 C   0  0  0  0  0  0  0  0  0  0  0  0
    6.7750  -12.7922   25.7500 C   0  0  2  0  0  0  0  0  0  0  0  0
    5.5284  -12.6928   26.6611 C   0  0  0  0  0  0  0  0  0  0  0  0
    7.2334  -14.1804   25.8091 C   0  0  0  0  0  0  0  0  0  0  0  0
    8.3925  -14.6644   25.0349 C   0  0  2  0  0  0  0  0  0  0  0  0
    7.8551  -14.8837   23.6631 N   0  0  0  0  0  0  0  0  0  0  0  0
    9.0090  -15.9285   25.4378 C   0  0  0  0  0  0  0  0  0  0  0  0
    9.1841  -16.2758   26.6430 O   0  0  0  0  0  0  0  0  0  0  0  0
   10.2387  -18.9810   23.6099 C   0  0  0  0  0  0  0  0  0  0  0  0
   10.0997  -18.1564   24.8965 C   0  0  2  0  0  0  0  0  0  0  0  0
    9.4812  -16.9098   24.5017 N   0  0  0  0  0  0  0  0  0  0  0  0
   11.4413  -17.9725   25.4560 C   0  0  0  0  0  0  0  0  0  0  0  0
   11.9425  -16.8191   25.4472 O   0  0  0  0  0  0  0  0  0  0  0  0
   12.1682  -19.0256   25.9908 O   0  0  0  0  0  0  0  0  0  0  0  0
  2  4  1  0
  2  1  1  6
  3  2  1  0
  4  6  1  0
  4  5  1  1
  6  7  2  0
  9  8  1  1
  9 11  1  0
  9 10  1  0
 12 11  1  1
 12 14  1  0
 13  6  1  0
 13 12  1  0
 14 15  2  0
 17 16  1  6
 17 19  1  0
 18 17  1  0
 18 14  1  0
 19 20  2  0
 19 21  1  0
M  END
$$$$
