VLA.pdb
     RDKit          3D

 21 20  0  0  1  0  0  0  0  0999 V2000
    8.7433  -12.6869   19.8850 C   0  0  0  0  0  0  0  0  0  0  0  0
    7.7295  -13.7609   20.1183 C   0  0  2  0  0  0  0  0  0  0  0  0
    6.5309  -13.2245   20.8620 C   0  0  0  0  0  0  0  0  0  0  0  0
    8.2796  -14.9154   20.9275 C   0  0  2  0  0  0  0  0  0  0  0  0
    7.1872  -15.8904   21.0100 N   0  0  0  0  0  0  0  0  0  0  0  0
    8.7098  -14.5259   22.2856 C   0  0  0  0  0  0  0  0  0  0  0  0
    9.7937  -13.8697   22.4275 O   0  0  0  0  0  0  0  0  0  0  0  0
    7.8905  -11.6538   26.0972 C   0  0  0  0  0  0  0  0  0  0  0  0
    6.9039  -12.6494   25.5650 C   0  0  2  0  0  0  0  0  0  0  0  0
    5.6562  -12.5590   26.4755 C   0  0  0  0  0  0  0  0  0  0  0  0
    7.3245  -14.0508   25.5605 C   0  0  0  0  0  0  0  0  0  0  0  0
    8.5132  -14.5176   24.8214 C   0  0  2  0  0  0  0  0  0  0  0  0
    8.0016  -14.8287   23.4574 N   0  0  0  0  0  0  0  0  0  0  0  0
    9.1830  -15.7303   25.2917 C   0  0  0  0  0  0  0  0  0  0  0  0
    9.4569  -15.9591   26.5068 O   0  0  0  0  0  0  0  0  0  0  0  0
    9.9928  -19.0516   23.7910 C   0  0  0  0  0  0  0  0  0  0  0  0
   10.2409  -18.0017   24.8821 C   0  0  2  0  0  0  0  0  0  0  0  0
    9.6003  -16.7906   24.4178 N   0  0  0  0  0  0  0  0  0  0  0  0
   11.6902  -17.8537   25.0380 C   0  0  0  0  0  0  0  0  0  0  0  0
   12.2225  -16.7659   24.6989 O   0  0  0  0  0  0  0  0  0  0  0  0
   12.4853  -18.8707   25.5447 O   0  0  0  0  0  0  0  0  0  0  0  0
  2  4  1  0
  2  1  1  1
  3  2  1  0
  4  6  1  0
  4  5  1  1
  6  7  2  0
  9  8  1  1
  9 11  1  0
  9 10  1  0
 12 11  1  1
 12 14  1  0
 13  6  1  0
 13 12  1  0
 14 15  2  0
 17 16  1  6
 17 19  1  0
 18 17  1  0
 18 14  1  0
 19 20  2  0
 19 21  1  0
M  END
$$$$
