VLA.pdb
     RDKit          3D

 21 20  0  0  1  0  0  0  0  0999 V2000
    7.4659  -13.6147   20.3633 C   0  0  0  0  0  0  0  0  0  0  0  0
    8.3743  -14.7575   20.0399 C   0  0  2  0  0  0  0  0  0  0  0  0
    7.9118  -15.4859   18.8018 C   0  0  0  0  0  0  0  0  0  0  0  0
    8.4502  -15.7755   21.1571 C   0  0  2  0  0  0  0  0  0  0  0  0
    7.1070  -16.3573   21.2477 N   0  0  0  0  0  0  0  0  0  0  0  0
    8.8336  -15.1900   22.4576 C   0  0  0  0  0  0  0  0  0  0  0  0
   10.0266  -14.7708   22.6205 O   0  0  0  0  0  0  0  0  0  0  0  0
    5.8152  -12.5003   27.0399 C   0  0  0  0  0  0  0  0  0  0  0  0
    7.1501  -13.0188   26.5960 C   0  0  2  0  0  0  0  0  0  0  0  0
    8.0690  -11.7841   26.4384 C   0  0  0  0  0  0  0  0  0  0  0  0
    7.1834  -13.7373   25.3219 C   0  0  0  0  0  0  0  0  0  0  0  0
    8.3818  -14.4579   24.8511 C   0  0  2  0  0  0  0  0  0  0  0  0
    7.9666  -15.0561   23.5516 N   0  0  0  0  0  0  0  0  0  0  0  0
    8.8838  -15.5639   25.6668 C   0  0  0  0  0  0  0  0  0  0  0  0
    8.1804  -16.5557   26.0207 O   0  0  0  0  0  0  0  0  0  0  0  0
   12.2328  -16.9042   26.3898 C   0  0  0  0  0  0  0  0  0  0  0  0
   10.7714  -16.7888   26.8427 C   0  0  2  0  0  0  0  0  0  0  0  0
   10.2335  -15.6374   26.1517 N   0  0  0  0  0  0  0  0  0  0  0  0
   10.7666  -16.6305   28.2993 C   0  0  0  0  0  0  0  0  0  0  0  0
   10.4888  -15.5018   28.7795 O   0  0  0  0  0  0  0  0  0  0  0  0
   11.0573  -17.6811   29.1565 O   0  0  0  0  0  0  0  0  0  0  0  0
  2  4  1  0
  2  1  1  1
  3  2  1  0
  4  6  1  0
  4  5  1  1
  6  7  2  0
  9  8  1  6
  9 11  1  0
  9 10  1  0
 12 11  1  1
 12 14  1  0
 13  6  1  0
 13 12  1  0
 14 15  2  0
 17 16  1  6
 17 19  1  0
 18 17  1  0
 18 14  1  0
 19 20  2  0
 19 21  1  0
M  END
$$$$
