VLA.pdb
     RDKit          3D

 21 20  0  0  1  0  0  0  0  0999 V2000
    9.2442  -17.0130   19.7678 C   0  0  0  0  0  0  0  0  0  0  0  0
    9.5950  -16.6178   21.1665 C   0  0  2  0  0  0  0  0  0  0  0  0
    9.9880  -17.8207   21.9888 C   0  0  0  0  0  0  0  0  0  0  0  0
    8.4493  -15.9385   21.8848 C   0  0  2  0  0  0  0  0  0  0  0  0
    7.9692  -14.9032   20.9635 N   0  0  0  0  0  0  0  0  0  0  0  0
    8.8447  -15.3251   23.1688 C   0  0  0  0  0  0  0  0  0  0  0  0
   10.0013  -14.7991   23.2738 O   0  0  0  0  0  0  0  0  0  0  0  0
    7.7568  -11.5473   25.9437 C   0  0  0  0  0  0  0  0  0  0  0  0
    6.7972  -12.6702   25.6869 C   0  0  2  0  0  0  0  0  0  0  0  0
    5.5135  -12.3403   26.4852 C   0  0  0  0  0  0  0  0  0  0  0  0
    7.2244  -14.0058   26.1046 C   0  0  0  0  0  0  0  0  0  0  0  0
    8.4510  -14.6420   25.5870 C   0  0  2  0  0  0  0  0  0  0  0  0
    8.0270  -15.2751   24.3070 N   0  0  0  0  0  0  0  0  0  0  0  0
    9.0632  -15.7051   26.3841 C   0  0  0  0  0  0  0  0  0  0  0  0
    9.5268  -15.5350   27.5502 O   0  0  0  0  0  0  0  0  0  0  0  0
    9.2298  -19.4156   26.2368 C   0  0  0  0  0  0  0  0  0  0  0  0
    9.8732  -18.0936   26.6759 C   0  0  2  0  0  0  0  0  0  0  0  0
    9.2013  -17.0578   25.9222 N   0  0  0  0  0  0  0  0  0  0  0  0
   11.3056  -18.1738   26.3786 C   0  0  0  0  0  0  0  0  0  0  0  0
   12.0097  -18.9858   27.0319 O   0  0  0  0  0  0  0  0  0  0  0  0
   11.9024  -17.3864   25.4054 O   0  0  0  0  0  0  0  0  0  0  0  0
  2  4  1  0
  2  1  1  6
  3  2  1  0
  4  6  1  0
  4  5  1  6
  6  7  2  0
  9  8  1  1
  9 11  1  0
  9 10  1  0
 12 11  1  1
 12 14  1  0
 13  6  1  0
 13 12  1  0
 14 15  2  0
 17 16  1  6
 17 19  1  0
 18 17  1  0
 18 14  1  0
 19 20  2  0
 19 21  1  0
M  END
$$$$
