VLA.pdb
     RDKit          3D

 21 20  0  0  1  0  0  0  0  0999 V2000
    7.4605  -12.8493   21.0786 C   0  0  0  0  0  0  0  0  0  0  0  0
    8.3509  -13.9224   20.5387 C   0  0  2  0  0  0  0  0  0  0  0  0
    7.8993  -14.3649   19.1683 C   0  0  0  0  0  0  0  0  0  0  0  0
    8.3812  -15.1524   21.4197 C   0  0  2  0  0  0  0  0  0  0  0  0
    7.0145  -15.6838   21.3961 N   0  0  0  0  0  0  0  0  0  0  0  0
    8.7857  -14.8661   22.8111 C   0  0  0  0  0  0  0  0  0  0  0  0
    9.9836  -14.4974   23.0443 O   0  0  0  0  0  0  0  0  0  0  0  0
    7.8897  -11.5621   26.1314 C   0  0  0  0  0  0  0  0  0  0  0  0
    6.8374  -12.5364   25.6940 C   0  0  2  0  0  0  0  0  0  0  0  0
    5.5806  -12.2343   26.5443 C   0  0  0  0  0  0  0  0  0  0  0  0
    7.1418  -13.9557   25.8771 C   0  0  0  0  0  0  0  0  0  0  0  0
    8.3438  -14.5879   25.3003 C   0  0  2  0  0  0  0  0  0  0  0  0
    7.9339  -14.9704   23.9202 N   0  0  0  0  0  0  0  0  0  0  0  0
    8.8473  -15.8092   25.9289 C   0  0  0  0  0  0  0  0  0  0  0  0
    9.1075  -15.9115   27.1641 O   0  0  0  0  0  0  0  0  0  0  0  0
    9.5252  -19.3246   24.7781 C   0  0  0  0  0  0  0  0  0  0  0  0
    9.7153  -18.1914   25.7951 C   0  0  2  0  0  0  0  0  0  0  0  0
    9.0990  -17.0234   25.2047 N   0  0  0  0  0  0  0  0  0  0  0  0
   11.1544  -18.0248   26.0140 C   0  0  0  0  0  0  0  0  0  0  0  0
   11.7108  -16.9831   25.5814 O   0  0  0  0  0  0  0  0  0  0  0  0
   11.9143  -18.9752   26.6791 O   0  0  0  0  0  0  0  0  0  0  0  0
  2  4  1  0
  2  1  1  1
  3  2  1  0
  4  6  1  0
  4  5  1  1
  6  7  2  0
  9  8  1  1
  9 11  1  0
  9 10  1  0
 12 11  1  1
 12 14  1  0
 13  6  1  0
 13 12  1  0
 14 15  2  0
 17 16  1  6
 17 19  1  0
 18 17  1  0
 18 14  1  0
 19 20  2  0
 19 21  1  0
M  END
$$$$
