VLA.pdb
     RDKit          3D

 21 20  0  0  1  0  0  0  0  0999 V2000
    7.6764  -17.3419   19.7495 C   0  0  0  0  0  0  0  0  0  0  0  0
    8.1124  -16.9837   21.1342 C   0  0  2  0  0  0  0  0  0  0  0  0
    7.4647  -17.8839   22.1578 C   0  0  0  0  0  0  0  0  0  0  0  0
    7.7627  -15.5588   21.5048 C   0  0  2  0  0  0  0  0  0  0  0  0
    8.3676  -14.7239   20.4618 N   0  0  0  0  0  0  0  0  0  0  0  0
    8.2741  -15.1565   22.8307 C   0  0  0  0  0  0  0  0  0  0  0  0
    9.5257  -14.9649   22.9798 O   0  0  0  0  0  0  0  0  0  0  0  0
    7.8446  -11.3973   25.8538 C   0  0  0  0  0  0  0  0  0  0  0  0
    6.6894  -12.3158   25.5898 C   0  0  2  0  0  0  0  0  0  0  0  0
    5.5357  -11.8427   26.5058 C   0  0  0  0  0  0  0  0  0  0  0  0
    6.9021  -13.7350   25.8750 C   0  0  0  0  0  0  0  0  0  0  0  0
    8.0083  -14.5054   25.2750 C   0  0  2  0  0  0  0  0  0  0  0  0
    7.4705  -14.9641   23.9637 N   0  0  0  0  0  0  0  0  0  0  0  0
    8.4654  -15.7083   25.9710 C   0  0  0  0  0  0  0  0  0  0  0  0
    8.9747  -15.7021   27.1305 O   0  0  0  0  0  0  0  0  0  0  0  0
    8.4699  -19.3923   25.1773 C   0  0  0  0  0  0  0  0  0  0  0  0
    8.8572  -18.2144   26.0812 C   0  0  2  0  0  0  0  0  0  0  0  0
    8.3823  -17.0261   25.4066 N   0  0  0  0  0  0  0  0  0  0  0  0
   10.3136  -18.2335   26.2401 C   0  0  0  0  0  0  0  0  0  0  0  0
   10.9882  -17.3183   25.7026 O   0  0  0  0  0  0  0  0  0  0  0  0
   10.9641  -19.2241   26.9604 O   0  0  0  0  0  0  0  0  0  0  0  0
  2  4  1  0
  2  1  1  6
  3  2  1  0
  4  6  1  0
  4  5  1  6
  6  7  2  0
  9  8  1  1
  9 11  1  0
  9 10  1  0
 12 11  1  1
 12 14  1  0
 13  6  1  0
 13 12  1  0
 14 15  2  0
 17 16  1  6
 17 19  1  0
 18 17  1  0
 18 14  1  0
 19 20  2  0
 19 21  1  0
M  END
$$$$
