VLA.pdb
     RDKit          3D

 21 20  0  0  1  0  0  0  0  0999 V2000
    7.9646  -18.8242   20.7893 C   0  0  0  0  0  0  0  0  0  0  0  0
    8.5948  -18.0602   21.9096 C   0  0  2  0  0  0  0  0  0  0  0  0
    8.9021  -18.9641   23.0784 C   0  0  0  0  0  0  0  0  0  0  0  0
    7.7100  -16.9459   22.4249 C   0  0  2  0  0  0  0  0  0  0  0  0
    7.2676  -16.2150   21.2329 N   0  0  0  0  0  0  0  0  0  0  0  0
    8.4045  -16.0270   23.3495 C   0  0  0  0  0  0  0  0  0  0  0  0
    9.5084  -15.5016   22.9875 O   0  0  0  0  0  0  0  0  0  0  0  0
    7.3913  -11.9348   24.9189 C   0  0  0  0  0  0  0  0  0  0  0  0
    6.7396  -13.0986   25.6035 C   0  0  2  0  0  0  0  0  0  0  0  0
    5.8147  -12.5043   26.6921 C   0  0  0  0  0  0  0  0  0  0  0  0
    7.6295  -14.0463   26.2747 C   0  0  0  0  0  0  0  0  0  0  0  0
    8.6808  -14.7905   25.5548 C   0  0  2  0  0  0  0  0  0  0  0  0
    7.9320  -15.6796   24.6233 N   0  0  0  0  0  0  0  0  0  0  0  0
    9.5605  -15.6633   26.3323 C   0  0  0  0  0  0  0  0  0  0  0  0
   10.3386  -15.2512   27.2425 O   0  0  0  0  0  0  0  0  0  0  0  0
    9.9630  -19.3236   26.8737 C   0  0  0  0  0  0  0  0  0  0  0  0
   10.6028  -17.9309   26.7990 C   0  0  2  0  0  0  0  0  0  0  0  0
    9.6315  -17.0848   26.1410 N   0  0  0  0  0  0  0  0  0  0  0  0
   11.8527  -18.0537   26.0445 C   0  0  0  0  0  0  0  0  0  0  0  0
   11.9362  -17.4872   24.9248 O   0  0  0  0  0  0  0  0  0  0  0  0
   12.9376  -18.7711   26.5260 O   0  0  0  0  0  0  0  0  0  0  0  0
  2  4  1  0
  2  1  1  6
  3  2  1  0
  4  6  1  0
  4  5  1  6
  6  7  2  0
  9  8  1  1
  9 11  1  0
  9 10  1  0
 12 11  1  1
 12 14  1  0
 13  6  1  0
 13 12  1  0
 14 15  2  0
 17 16  1  6
 17 19  1  0
 18 17  1  0
 18 14  1  0
 19 20  2  0
 19 21  1  0
M  END
$$$$
