LDH.pdb
     RDKit          3D

 27 27  0  0  1  0  0  0  0  0999 V2000
    7.5544  -12.1764   20.1138 C   0  0  0  0  0  0  0  0  0  0  0  0
    7.9878  -13.4810   19.5303 C   0  0  1  0  0  0  0  0  0  0  0  0
    8.9927  -13.2326   18.4290 C   0  0  0  0  0  0  0  0  0  0  0  0
    8.5563  -14.4309   20.5379 C   0  0  0  0  0  0  0  0  0  0  0  0
    8.8869  -15.7738   19.9439 C   0  0  2  0  0  0  0  0  0  0  0  0
    7.6558  -16.3586   19.4484 N   0  0  0  0  0  0  0  0  0  0  0  0
    9.4213  -16.6851   20.9818 C   0  0  0  0  0  0  0  0  0  0  0  0
    8.6453  -17.4191   21.6329 O   0  0  0  0  0  0  0  0  0  0  0  0
   10.8269  -16.7695   21.2858 N   0  0  0  0  0  0  0  0  0  0  0  0
   11.3378  -17.6574   22.2991 C   0  0  1  0  0  0  0  0  0  0  0  0
   12.7943  -17.9722   22.1556 C   0  0  0  0  0  0  0  0  0  0  0  0
   13.2491  -19.0525   23.0453 C   0  0  0  0  0  0  0  0  0  0  0  0
   14.1639  -18.8070   23.8700 O   0  0  0  0  0  0  0  0  0  0  0  0
   11.0305  -17.1597   23.6780 C   0  0  0  0  0  0  0  0  0  0  0  0
   11.4944  -16.0678   24.0942 O   0  0  0  0  0  0  0  0  0  0  0  0
   12.7293  -20.3348   23.0328 O   0  0  0  0  0  0  0  0  0  0  0  0
   10.2035  -17.8921   24.5812 N   0  0  0  0  0  0  0  0  0  0  0  0
    9.9761  -17.4555   25.9483 C   0  0  1  0  0  0  0  0  0  0  0  0
    8.4906  -17.2529   26.1080 C   0  0  0  0  0  0  0  0  0  0  0  0
    7.9698  -16.1155   25.3527 C   0  0  0  0  0  0  0  0  0  0  0  0
    8.5101  -14.8571   25.2479 C   0  0  0  0  0  0  0  0  0  0  0  0
    7.6934  -14.1487   24.4552 N   0  0  0  0  0  0  0  0  0  0  0  0
    6.6757  -14.9173   24.0692 C   0  0  0  0  0  0  0  0  0  0  0  0
    6.8471  -16.1290   24.6228 N   0  0  0  0  0  0  0  0  0  0  0  0
   10.5054  -18.4543   26.9218 C   0  0  0  0  0  0  0  0  0  0  0  0
   10.4246  -18.2436   28.2903 O   0  0  0  0  0  0  0  0  0  0  0  0
   11.0453  -19.5259   26.5391 O   0  0  0  0  0  0  0  0  0  0  0  0
  2  1  1  1
  2  3  1  0
  4  5  1  0
  4  2  1  0
  5  6  1  1
  7  5  1  0
  7  8  2  0
  9  7  1  0
 10  9  1  0
 10 11  1  1
 12 11  1  0
 13 12  2  0
 14 10  1  0
 15 14  2  0
 16 12  1  0
 17 14  1  0
 18 17  1  0
 18 25  1  0
 18 19  1  1
 20 19  1  0
 21 20  2  0
 22 21  1  0
 23 22  1  0
 23 24  2  0
 24 20  1  0
 25 26  1  0
 27 25  2  0
M  END
$$$$
