LDH.pdb
     RDKit          3D

 27 27  0  0  1  0  0  0  0  0999 V2000
    8.3837  -12.2416   26.9230 C   0  0  0  0  0  0  0  0  0  0  0  0
    7.5607  -13.4838   27.0219 C   0  0  1  0  0  0  0  0  0  0  0  0
    6.0941  -13.1183   27.0317 C   0  0  0  0  0  0  0  0  0  0  0  0
    7.8345  -14.4745   25.9336 C   0  0  0  0  0  0  0  0  0  0  0  0
    7.0985  -15.7719   26.1345 C   0  0  2  0  0  0  0  0  0  0  0  0
    7.6517  -16.4227   27.3066 N   0  0  0  0  0  0  0  0  0  0  0  0
    7.3161  -16.6779   24.9835 C   0  0  0  0  0  0  0  0  0  0  0  0
    8.2013  -17.5601   25.0372 O   0  0  0  0  0  0  0  0  0  0  0  0
    6.5381  -16.5905   23.7741 N   0  0  0  0  0  0  0  0  0  0  0  0
    6.8164  -17.4141   22.6250 C   0  0  1  0  0  0  0  0  0  0  0  0
    5.6972  -17.4740   21.6327 C   0  0  0  0  0  0  0  0  0  0  0  0
    5.9505  -18.4051   20.5216 C   0  0  0  0  0  0  0  0  0  0  0  0
    6.2582  -19.5926   20.7907 O   0  0  0  0  0  0  0  0  0  0  0  0
    8.1008  -17.0231   21.9610 C   0  0  0  0  0  0  0  0  0  0  0  0
    8.5354  -17.6526   20.9631 O   0  0  0  0  0  0  0  0  0  0  0  0
    5.8712  -18.0543   19.1855 O   0  0  0  0  0  0  0  0  0  0  0  0
    8.8894  -15.9271   22.4223 N   0  0  0  0  0  0  0  0  0  0  0  0
   10.1543  -15.5700   21.8027 C   0  0  1  0  0  0  0  0  0  0  0  0
   10.0649  -14.1147   21.4186 C   0  0  0  0  0  0  0  0  0  0  0  0
    9.1839  -13.8621   20.2804 C   0  0  0  0  0  0  0  0  0  0  0  0
    9.5314  -13.7507   18.9563 C   0  0  0  0  0  0  0  0  0  0  0  0
    8.3997  -13.5192   18.2761 N   0  0  0  0  0  0  0  0  0  0  0  0
    7.3732  -13.4835   19.1248 C   0  0  0  0  0  0  0  0  0  0  0  0
    7.8576  -13.6950   20.3596 N   0  0  0  0  0  0  0  0  0  0  0  0
   11.2938  -15.8277   22.7303 C   0  0  0  0  0  0  0  0  0  0  0  0
   12.6057  -15.5904   22.3479 O   0  0  0  0  0  0  0  0  0  0  0  0
   11.1087  -16.2701   23.8950 O   0  0  0  0  0  0  0  0  0  0  0  0
  2  1  1  6
  2  3  1  0
  4  5  1  0
  4  2  1  0
  5  6  1  1
  7  5  1  0
  7  8  2  0
  9  7  1  0
 10  9  1  0
 10 11  1  6
 12 11  1  0
 13 12  2  0
 14 10  1  0
 15 14  2  0
 16 12  1  0
 17 14  1  0
 18 17  1  0
 18 25  1  0
 18 19  1  1
 20 19  1  0
 21 20  2  0
 22 21  1  0
 23 22  1  0
 23 24  2  0
 24 20  1  0
 25 26  1  0
 27 25  2  0
M  END
$$$$
