LDH.pdb
     RDKit          3D

 27 27  0  0  1  0  0  0  0  0999 V2000
    6.2820  -12.7862   19.0358 C   0  0  0  0  0  0  0  0  0  0  0  0
    7.6436  -13.3634   19.2431 C   0  0  1  0  0  0  0  0  0  0  0  0
    8.6778  -12.2655   19.1447 C   0  0  0  0  0  0  0  0  0  0  0  0
    7.7952  -14.0952   20.5401 C   0  0  0  0  0  0  0  0  0  0  0  0
    9.2090  -14.5494   20.7856 C   0  0  2  0  0  0  0  0  0  0  0  0
    9.6372  -15.3202   19.6342 N   0  0  0  0  0  0  0  0  0  0  0  0
    9.2713  -15.4450   21.9634 C   0  0  0  0  0  0  0  0  0  0  0  0
    8.3302  -15.4655   22.7873 O   0  0  0  0  0  0  0  0  0  0  0  0
   10.3914  -16.3160   22.2129 N   0  0  0  0  0  0  0  0  0  0  0  0
   10.5532  -17.0141   23.4629 C   0  0  1  0  0  0  0  0  0  0  0  0
   11.7291  -17.9399   23.4963 C   0  0  0  0  0  0  0  0  0  0  0  0
   11.8731  -18.7459   22.2735 C   0  0  0  0  0  0  0  0  0  0  0  0
   12.7921  -18.4569   21.4678 O   0  0  0  0  0  0  0  0  0  0  0  0
   10.5816  -16.0698   24.6253 C   0  0  0  0  0  0  0  0  0  0  0  0
   10.4363  -14.8317   24.4616 O   0  0  0  0  0  0  0  0  0  0  0  0
   11.0536  -19.8128   21.9498 O   0  0  0  0  0  0  0  0  0  0  0  0
   10.7732  -16.5224   25.9648 N   0  0  0  0  0  0  0  0  0  0  0  0
    9.8194  -16.2335   27.0223 C   0  0  1  0  0  0  0  0  0  0  0  0
    8.4601  -16.1313   26.3780 C   0  0  0  0  0  0  0  0  0  0  0  0
    7.9431  -14.7660   26.3136 C   0  0  0  0  0  0  0  0  0  0  0  0
    8.5787  -13.6076   26.6883 C   0  0  0  0  0  0  0  0  0  0  0  0
    7.7243  -12.6020   26.4516 N   0  0  0  0  0  0  0  0  0  0  0  0
    6.5925  -13.0928   25.9481 C   0  0  0  0  0  0  0  0  0  0  0  0
    6.7285  -14.4264   25.8635 N   0  0  0  0  0  0  0  0  0  0  0  0
    9.8540  -17.2902   28.0747 C   0  0  0  0  0  0  0  0  0  0  0  0
    9.5755  -16.9987   29.4018 O   0  0  0  0  0  0  0  0  0  0  0  0
   10.1372  -18.4861   27.7991 O   0  0  0  0  0  0  0  0  0  0  0  0
  2  1  1  1
  2  3  1  0
  4  5  1  0
  4  2  1  0
  5  6  1  6
  7  5  1  0
  7  8  2  0
  9  7  1  0
 10  9  1  0
 10 11  1  6
 12 11  1  0
 13 12  2  0
 14 10  1  0
 15 14  2  0
 16 12  1  0
 17 14  1  0
 18 17  1  0
 18 25  1  0
 18 19  1  6
 20 19  1  0
 21 20  2  0
 22 21  1  0
 23 22  1  0
 23 24  2  0
 24 20  1  0
 25 26  1  0
 27 25  2  0
M  END
$$$$
