LDH.pdb
     RDKit          3D

 27 27  0  0  1  0  0  0  0  0999 V2000
    7.0560  -12.4028   19.4822 C   0  0  0  0  0  0  0  0  0  0  0  0
    8.0249  -13.4959   19.7929 C   0  0  1  0  0  0  0  0  0  0  0  0
    9.4226  -12.9254   19.8682 C   0  0  0  0  0  0  0  0  0  0  0  0
    7.7071  -14.2410   21.0516 C   0  0  0  0  0  0  0  0  0  0  0  0
    8.6970  -15.3377   21.3396 C   0  0  2  0  0  0  0  0  0  0  0  0
    8.9539  -16.0448   20.0998 N   0  0  0  0  0  0  0  0  0  0  0  0
    8.1277  -16.3156   22.2950 C   0  0  0  0  0  0  0  0  0  0  0  0
    7.7574  -15.9421   23.4300 O   0  0  0  0  0  0  0  0  0  0  0  0
    7.9758  -17.7115   21.9728 N   0  0  0  0  0  0  0  0  0  0  0  0
    7.5325  -18.6768   22.9463 C   0  0  1  0  0  0  0  0  0  0  0  0
    6.6190  -19.7255   22.3924 C   0  0  0  0  0  0  0  0  0  0  0  0
    6.4486  -19.6407   20.9332 C   0  0  0  0  0  0  0  0  0  0  0  0
    6.1095  -18.5408   20.4306 O   0  0  0  0  0  0  0  0  0  0  0  0
    8.6843  -19.2994   23.6737 C   0  0  0  0  0  0  0  0  0  0  0  0
    9.2396  -20.3417   23.2422 O   0  0  0  0  0  0  0  0  0  0  0  0
    6.6396  -20.7045   20.0693 O   0  0  0  0  0  0  0  0  0  0  0  0
    9.2054  -18.7471   24.8817 N   0  0  0  0  0  0  0  0  0  0  0  0
   10.6274  -18.5220   25.0785 C   0  0  1  0  0  0  0  0  0  0  0  0
   11.0784  -17.5666   24.0028 C   0  0  0  0  0  0  0  0  0  0  0  0
   12.4905  -17.2024   24.0969 C   0  0  0  0  0  0  0  0  0  0  0  0
   13.3934  -17.5776   25.0615 C   0  0  0  0  0  0  0  0  0  0  0  0
   14.5636  -17.0077   24.7406 N   0  0  0  0  0  0  0  0  0  0  0  0
   14.4182  -16.2994   23.6214 C   0  0  0  0  0  0  0  0  0  0  0  0
   13.1403  -16.4201   23.2257 N   0  0  0  0  0  0  0  0  0  0  0  0
   10.8981  -17.9849   26.4436 C   0  0  0  0  0  0  0  0  0  0  0  0
   10.1625  -16.9311   26.9653 O   0  0  0  0  0  0  0  0  0  0  0  0
   11.8038  -18.4670   27.1741 O   0  0  0  0  0  0  0  0  0  0  0  0
  2  1  1  1
  2  3  1  0
  4  5  1  0
  4  2  1  0
  5  6  1  6
  7  5  1  0
  7  8  2  0
  9  7  1  0
 10  9  1  0
 10 11  1  6
 12 11  1  0
 13 12  2  0
 14 10  1  0
 15 14  2  0
 16 12  1  0
 17 14  1  0
 18 17  1  0
 18 25  1  0
 18 19  1  6
 20 19  1  0
 21 20  2  0
 22 21  1  0
 23 22  1  0
 23 24  2  0
 24 20  1  0
 25 26  1  0
 27 25  2  0
M  END
$$$$
