LDH.pdb
     RDKit          3D

 27 27  0  0  1  0  0  0  0  0999 V2000
    8.2784  -11.9547   18.8798 C   0  0  0  0  0  0  0  0  0  0  0  0
    7.9575  -13.2829   19.4824 C   0  0  1  0  0  0  0  0  0  0  0  0
    8.1220  -14.3638   18.4388 C   0  0  0  0  0  0  0  0  0  0  0  0
    8.7782  -13.6085   20.6911 C   0  0  0  0  0  0  0  0  0  0  0  0
    8.4364  -14.9523   21.2769 C   0  0  2  0  0  0  0  0  0  0  0  0
    7.0727  -14.8924   21.7668 N   0  0  0  0  0  0  0  0  0  0  0  0
    9.3083  -15.2524   22.4356 C   0  0  0  0  0  0  0  0  0  0  0  0
    9.3726  -14.4541   23.3966 O   0  0  0  0  0  0  0  0  0  0  0  0
   10.1064  -16.4494   22.5121 N   0  0  0  0  0  0  0  0  0  0  0  0
   11.0876  -16.6490   23.5481 C   0  0  1  0  0  0  0  0  0  0  0  0
   10.7550  -17.7578   24.4972 C   0  0  0  0  0  0  0  0  0  0  0  0
   11.7160  -17.8875   25.6041 C   0  0  0  0  0  0  0  0  0  0  0  0
   12.2443  -16.8463   26.0666 O   0  0  0  0  0  0  0  0  0  0  0  0
   12.4635  -16.8228   22.9821 C   0  0  0  0  0  0  0  0  0  0  0  0
   12.7832  -17.8661   22.3575 O   0  0  0  0  0  0  0  0  0  0  0  0
   12.0795  -19.0944   26.1749 O   0  0  0  0  0  0  0  0  0  0  0  0
   13.4721  -15.8231   23.1214 N   0  0  0  0  0  0  0  0  0  0  0  0
   14.8051  -15.9873   22.5669 C   0  0  1  0  0  0  0  0  0  0  0  0
   15.1356  -14.7182   21.8230 C   0  0  0  0  0  0  0  0  0  0  0  0
   14.5515  -14.6541   20.4850 C   0  0  0  0  0  0  0  0  0  0  0  0
   13.8484  -15.6330   19.8265 C   0  0  0  0  0  0  0  0  0  0  0  0
   13.5097  -15.1302   18.6308 N   0  0  0  0  0  0  0  0  0  0  0  0
   13.9742  -13.8856   18.5270 C   0  0  0  0  0  0  0  0  0  0  0  0
   14.6159  -13.5933   19.6702 N   0  0  0  0  0  0  0  0  0  0  0  0
   15.7986  -16.2719   23.6427 C   0  0  0  0  0  0  0  0  0  0  0  0
   15.4111  -16.4076   24.9675 O   0  0  0  0  0  0  0  0  0  0  0  0
   17.0258  -16.3998   23.3898 O   0  0  0  0  0  0  0  0  0  0  0  0
  2  1  1  6
  2  3  1  0
  4  5  1  0
  4  2  1  0
  5  6  1  1
  7  5  1  0
  7  8  2  0
  9  7  1  0
 10  9  1  0
 10 11  1  6
 12 11  1  0
 13 12  2  0
 14 10  1  0
 15 14  2  0
 16 12  1  0
 17 14  1  0
 18 17  1  0
 18 25  1  0
 18 19  1  1
 20 19  1  0
 21 20  2  0
 22 21  1  0
 23 22  1  0
 23 24  2  0
 24 20  1  0
 25 26  1  0
 27 25  2  0
M  END
$$$$
