LDH.pdb
     RDKit          3D

 27 27  0  0  1  0  0  0  0  0999 V2000
    6.5890  -12.7884   18.4511 C   0  0  0  0  0  0  0  0  0  0  0  0
    7.8639  -13.2933   19.0428 C   0  0  1  0  0  0  0  0  0  0  0  0
    8.8193  -12.1393   19.2432 C   0  0  0  0  0  0  0  0  0  0  0  0
    7.6772  -14.0334   20.3305 C   0  0  0  0  0  0  0  0  0  0  0  0
    8.9839  -14.4238   20.9673 C   0  0  2  0  0  0  0  0  0  0  0  0
    9.7544  -15.1655   19.9879 N   0  0  0  0  0  0  0  0  0  0  0  0
    8.7529  -15.3243   22.1202 C   0  0  0  0  0  0  0  0  0  0  0  0
    8.0429  -14.9477   23.0788 O   0  0  0  0  0  0  0  0  0  0  0  0
    9.3206  -16.6463   22.1934 N   0  0  0  0  0  0  0  0  0  0  0  0
    9.1914  -17.4697   23.3687 C   0  0  1  0  0  0  0  0  0  0  0  0
    9.8145  -18.8243   23.2355 C   0  0  0  0  0  0  0  0  0  0  0  0
    8.9124  -19.8273   22.6476 C   0  0  0  0  0  0  0  0  0  0  0  0
    7.8345  -20.0858   23.2380 O   0  0  0  0  0  0  0  0  0  0  0  0
    9.6908  -16.7683   24.5943 C   0  0  0  0  0  0  0  0  0  0  0  0
   10.0753  -15.5721   24.5483 O   0  0  0  0  0  0  0  0  0  0  0  0
    9.1767  -20.5117   21.4744 O   0  0  0  0  0  0  0  0  0  0  0  0
    9.7553  -17.4153   25.8644 N   0  0  0  0  0  0  0  0  0  0  0  0
    9.3901  -16.7374   27.0967 C   0  0  1  0  0  0  0  0  0  0  0  0
    8.0164  -16.1513   26.8903 C   0  0  0  0  0  0  0  0  0  0  0  0
    8.0168  -14.6986   26.7314 C   0  0  0  0  0  0  0  0  0  0  0  0
    9.0996  -13.8538   26.7234 C   0  0  0  0  0  0  0  0  0  0  0  0
    8.6227  -12.6129   26.5503 N   0  0  0  0  0  0  0  0  0  0  0  0
    7.2947  -12.6595   26.4518 C   0  0  0  0  0  0  0  0  0  0  0  0
    6.9225  -13.9453   26.5635 N   0  0  0  0  0  0  0  0  0  0  0  0
    9.4209  -17.6797   28.2527 C   0  0  0  0  0  0  0  0  0  0  0  0
    9.6795  -17.2359   29.5411 O   0  0  0  0  0  0  0  0  0  0  0  0
    9.2136  -18.9131   28.1036 O   0  0  0  0  0  0  0  0  0  0  0  0
  2  1  1  1
  2  3  1  0
  4  5  1  0
  4  2  1  0
  5  6  1  6
  7  5  1  0
  7  8  2  0
  9  7  1  0
 10  9  1  0
 10 11  1  6
 12 11  1  0
 13 12  2  0
 14 10  1  0
 15 14  2  0
 16 12  1  0
 17 14  1  0
 18 17  1  0
 18 25  1  0
 18 19  1  6
 20 19  1  0
 21 20  2  0
 22 21  1  0
 23 22  1  0
 23 24  2  0
 24 20  1  0
 25 26  1  0
 27 25  2  0
M  END
$$$$
