LDH.pdb
     RDKit          3D

 27 27  0  0  1  0  0  0  0  0999 V2000
    8.2146  -12.6854   24.2524 C   0  0  0  0  0  0  0  0  0  0  0  0
    7.5748  -13.8844   24.8716 C   0  0  1  0  0  0  0  0  0  0  0  0
    6.7422  -13.4563   26.0583 C   0  0  0  0  0  0  0  0  0  0  0  0
    6.7377  -14.6787   23.9182 C   0  0  0  0  0  0  0  0  0  0  0  0
    7.5404  -15.2451   22.7779 C   0  0  2  0  0  0  0  0  0  0  0  0
    6.6462  -16.0293   21.9480 N   0  0  0  0  0  0  0  0  0  0  0  0
    8.5891  -16.1606   23.2833 C   0  0  0  0  0  0  0  0  0  0  0  0
    8.2738  -17.1625   23.9626 O   0  0  0  0  0  0  0  0  0  0  0  0
    9.9902  -15.9479   23.0241 N   0  0  0  0  0  0  0  0  0  0  0  0
   11.0041  -16.8410   23.5244 C   0  0  1  0  0  0  0  0  0  0  0  0
   12.3021  -16.7663   22.7824 C   0  0  0  0  0  0  0  0  0  0  0  0
   12.1692  -17.0421   21.3430 C   0  0  0  0  0  0  0  0  0  0  0  0
   11.6606  -18.1330   20.9845 O   0  0  0  0  0  0  0  0  0  0  0  0
   11.2179  -16.6676   24.9967 C   0  0  0  0  0  0  0  0  0  0  0  0
   11.3799  -15.5272   25.5009 O   0  0  0  0  0  0  0  0  0  0  0  0
   12.5719  -16.1690   20.3480 O   0  0  0  0  0  0  0  0  0  0  0  0
   11.2484  -17.7767   25.8939 N   0  0  0  0  0  0  0  0  0  0  0  0
   11.1450  -17.6095   27.3336 C   0  0  1  0  0  0  0  0  0  0  0  0
    9.8570  -16.8735   27.6034 C   0  0  0  0  0  0  0  0  0  0  0  0
   10.0482  -15.5702   28.2361 C   0  0  0  0  0  0  0  0  0  0  0  0
   11.1658  -15.1068   28.8862 C   0  0  0  0  0  0  0  0  0  0  0  0
   10.8853  -13.8637   29.3023 N   0  0  0  0  0  0  0  0  0  0  0  0
    9.6447  -13.5442   28.9358 C   0  0  0  0  0  0  0  0  0  0  0  0
    9.1299  -14.5965   28.2789 N   0  0  0  0  0  0  0  0  0  0  0  0
   11.1830  -18.9295   28.0276 C   0  0  0  0  0  0  0  0  0  0  0  0
   11.5141  -19.0313   29.3706 O   0  0  0  0  0  0  0  0  0  0  0  0
   10.9163  -20.0009   27.4215 O   0  0  0  0  0  0  0  0  0  0  0  0
  2  1  1  6
  2  3  1  0
  4  5  1  0
  4  2  1  0
  5  6  1  6
  7  5  1  0
  7  8  2  0
  9  7  1  0
 10  9  1  0
 10 11  1  6
 12 11  1  0
 13 12  2  0
 14 10  1  0
 15 14  2  0
 16 12  1  0
 17 14  1  0
 18 17  1  0
 18 25  1  0
 18 19  1  6
 20 19  1  0
 21 20  2  0
 22 21  1  0
 23 22  1  0
 23 24  2  0
 24 20  1  0
 25 26  1  0
 27 25  2  0
M  END
$$$$
