LDH.pdb
     RDKit          3D

 27 27  0  0  1  0  0  0  0  0999 V2000
    6.8575  -12.5439   18.6448 C   0  0  0  0  0  0  0  0  0  0  0  0
    8.1407  -13.3019   18.7394 C   0  0  1  0  0  0  0  0  0  0  0  0
    9.3005  -12.3327   18.7452 C   0  0  0  0  0  0  0  0  0  0  0  0
    8.2200  -14.2030   19.9321 C   0  0  0  0  0  0  0  0  0  0  0  0
    9.5952  -14.7830   20.1278 C   0  0  2  0  0  0  0  0  0  0  0  0
    9.9046  -15.5998   18.9701 N   0  0  0  0  0  0  0  0  0  0  0  0
    9.6224  -15.6702   21.3132 C   0  0  0  0  0  0  0  0  0  0  0  0
    8.6732  -15.6589   22.1280 O   0  0  0  0  0  0  0  0  0  0  0  0
   10.7166  -16.5684   21.5806 N   0  0  0  0  0  0  0  0  0  0  0  0
   10.8277  -17.2890   22.8233 C   0  0  1  0  0  0  0  0  0  0  0  0
   11.9395  -18.2911   22.8495 C   0  0  0  0  0  0  0  0  0  0  0  0
   11.8849  -19.2537   21.7377 C   0  0  0  0  0  0  0  0  0  0  0  0
   10.8256  -19.9037   21.5569 O   0  0  0  0  0  0  0  0  0  0  0  0
   10.9148  -16.3612   23.9960 C   0  0  0  0  0  0  0  0  0  0  0  0
   11.4732  -15.2390   23.8978 O   0  0  0  0  0  0  0  0  0  0  0  0
   12.9353  -19.4922   20.8692 O   0  0  0  0  0  0  0  0  0  0  0  0
   10.3740  -16.7001   25.2722 N   0  0  0  0  0  0  0  0  0  0  0  0
    9.7124  -15.7198   26.1164 C   0  0  1  0  0  0  0  0  0  0  0  0
    8.5513  -15.1676   25.3288 C   0  0  0  0  0  0  0  0  0  0  0  0
    7.7858  -14.1515   26.0478 C   0  0  0  0  0  0  0  0  0  0  0  0
    8.2668  -13.1574   26.8643 C   0  0  0  0  0  0  0  0  0  0  0  0
    7.2045  -12.4672   27.3028 N   0  0  0  0  0  0  0  0  0  0  0  0
    6.0929  -12.9944   26.7911 C   0  0  0  0  0  0  0  0  0  0  0  0
    6.4523  -14.0322   26.0179 N   0  0  0  0  0  0  0  0  0  0  0  0
    9.2664  -16.3359   27.3997 C   0  0  0  0  0  0  0  0  0  0  0  0
    8.8929  -17.6698   27.4703 O   0  0  0  0  0  0  0  0  0  0  0  0
    9.2120  -15.6695   28.4671 O   0  0  0  0  0  0  0  0  0  0  0  0
  2  1  1  1
  2  3  1  0
  4  5  1  0
  4  2  1  0
  5  6  1  6
  7  5  1  0
  7  8  2  0
  9  7  1  0
 10  9  1  0
 10 11  1  6
 12 11  1  0
 13 12  2  0
 14 10  1  0
 15 14  2  0
 16 12  1  0
 17 14  1  0
 18 17  1  0
 18 25  1  0
 18 19  1  6
 20 19  1  0
 21 20  2  0
 22 21  1  0
 23 22  1  0
 23 24  2  0
 24 20  1  0
 25 26  1  0
 27 25  2  0
M  END
$$$$
