LDH.pdb
     RDKit          3D

 27 27  0  0  1  0  0  0  0  0999 V2000
    7.0252  -12.9282   19.1389 C   0  0  0  0  0  0  0  0  0  0  0  0
    8.4295  -13.2872   19.4981 C   0  0  1  0  0  0  0  0  0  0  0  0
    9.1667  -12.0486   19.9531 C   0  0  0  0  0  0  0  0  0  0  0  0
    8.5286  -14.3550   20.5424 C   0  0  0  0  0  0  0  0  0  0  0  0
    9.9411  -14.5718   21.0151 C   0  0  2  0  0  0  0  0  0  0  0  0
   10.7784  -14.7660   19.8470 N   0  0  0  0  0  0  0  0  0  0  0  0
   10.0334  -15.8028   21.8331 C   0  0  0  0  0  0  0  0  0  0  0  0
    9.1366  -16.0749   22.6617 O   0  0  0  0  0  0  0  0  0  0  0  0
   11.1337  -16.7257   21.7183 N   0  0  0  0  0  0  0  0  0  0  0  0
   11.2490  -17.8866   22.5639 C   0  0  1  0  0  0  0  0  0  0  0  0
   11.8293  -19.0845   21.8788 C   0  0  0  0  0  0  0  0  0  0  0  0
   11.3905  -19.2283   20.4815 C   0  0  0  0  0  0  0  0  0  0  0  0
   12.1895  -18.9136   19.5651 O   0  0  0  0  0  0  0  0  0  0  0  0
   11.9920  -17.5799   23.8278 C   0  0  0  0  0  0  0  0  0  0  0  0
   12.4904  -18.4972   24.5286 O   0  0  0  0  0  0  0  0  0  0  0  0
   10.1419  -19.6924   20.1071 O   0  0  0  0  0  0  0  0  0  0  0  0
   12.1706  -16.2442   24.2967 N   0  0  0  0  0  0  0  0  0  0  0  0
   11.9772  -15.8819   25.6906 C   0  0  1  0  0  0  0  0  0  0  0  0
   10.6546  -15.1638   25.7828 C   0  0  0  0  0  0  0  0  0  0  0  0
   10.2648  -14.8271   27.1503 C   0  0  0  0  0  0  0  0  0  0  0  0
   11.0464  -14.2762   28.1362 C   0  0  0  0  0  0  0  0  0  0  0  0
   10.2688  -14.1450   29.2203 N   0  0  0  0  0  0  0  0  0  0  0  0
    9.0444  -14.5914   28.9427 C   0  0  0  0  0  0  0  0  0  0  0  0
    9.0431  -15.0114   27.6668 N   0  0  0  0  0  0  0  0  0  0  0  0
   12.0124  -17.0899   26.5651 C   0  0  0  0  0  0  0  0  0  0  0  0
   10.9782  -18.0141   26.5640 O   0  0  0  0  0  0  0  0  0  0  0  0
   12.9812  -17.3168   27.3372 O   0  0  0  0  0  0  0  0  0  0  0  0
  2  1  1  1
  2  3  1  0
  4  5  1  0
  4  2  1  0
  5  6  1  6
  7  5  1  0
  7  8  2  0
  9  7  1  0
 10  9  1  0
 10 11  1  6
 12 11  1  0
 13 12  2  0
 14 10  1  0
 15 14  2  0
 16 12  1  0
 17 14  1  0
 18 17  1  0
 18 25  1  0
 18 19  1  6
 20 19  1  0
 21 20  2  0
 22 21  1  0
 23 22  1  0
 23 24  2  0
 24 20  1  0
 25 26  1  0
 27 25  2  0
M  END
$$$$
