HPT.pdb
     RDKit          3D

 25 26  0  0  1  0  0  0  0  0999 V2000
   22.2191   -9.5660  -17.7527 N   0  0  0  0  0  0  0  0  0  0  0  0
   22.1930  -10.4411  -16.6046 C   0  0  1  0  0  0  0  0  0  0  0  0
   21.0701  -10.0614  -15.6538 C   0  0  0  0  0  0  0  0  0  0  0  0
   21.1661   -8.6604  -15.1763 C   0  0  0  0  0  0  0  0  0  0  0  0
   20.4627   -7.5833  -15.6676 C   0  0  0  0  0  0  0  0  0  0  0  0
   20.7773   -6.4596  -15.0112 N   0  0  0  0  0  0  0  0  0  0  0  0
   21.6946   -6.8160  -14.0855 C   0  0  0  0  0  0  0  0  0  0  0  0
   21.9291   -8.1400  -14.1842 N   0  0  0  0  0  0  0  0  0  0  0  0
   22.1710  -11.8723  -16.9404 C   0  0  0  0  0  0  0  0  0  0  0  0
   21.4786  -12.2100  -17.9373 O   0  0  0  0  0  0  0  0  0  0  0  0
   22.8749  -12.9033  -16.2188 N   0  0  0  0  0  0  0  0  0  0  0  0
   23.6939  -12.6168  -15.0817 C   0  0  0  0  0  0  0  0  0  0  0  0
   24.2553  -13.9446  -14.6470 C   0  0  0  0  0  0  0  0  0  0  0  0
   24.1212  -14.8352  -15.8834 C   0  0  0  0  0  0  0  0  0  0  0  0
   22.8804  -14.2948  -16.4794 C   0  0  1  0  0  0  0  0  0  0  0  0
   21.6347  -14.9924  -16.0757 C   0  0  0  0  0  0  0  0  0  0  0  0
   21.0315  -14.7070  -15.0108 O   0  0  0  0  0  0  0  0  0  0  0  0
   18.8422  -15.5676  -18.6154 C   0  0  0  0  0  0  0  0  0  0  0  0
   19.0689  -16.9036  -17.9455 C   0  0  1  0  0  0  0  0  0  0  0  0
   19.9487  -17.6280  -18.7697 O   0  0  0  0  0  0  0  0  0  0  0  0
   19.8257  -16.6653  -16.6535 C   0  0  2  0  0  0  0  0  0  0  0  0
   21.0886  -16.0044  -16.8858 N   0  0  0  0  0  0  0  0  0  0  0  0
   19.9568  -17.9042  -15.8664 C   0  0  0  0  0  0  0  0  0  0  0  0
   21.0887  -18.4130  -15.7251 O   0  0  0  0  0  0  0  0  0  0  0  0
   18.8703  -18.4961  -15.2965 O   0  0  0  0  0  0  0  0  0  0  0  0
  2  1  1  6
  3  2  1  0
  4  3  1  0
  5  4  2  0
  6  7  1  0
  6  5  1  0
  7  8  2  0
  8  4  1  0
  9  2  1  0
  9 11  1  0
 10  9  2  0
 11 15  1  0
 12 11  1  0
 12 13  1  0
 13 14  1  0
 15 16  1  1
 15 14  1  0
 16 17  2  0
 19 18  1  6
 19 20  1  0
 19 21  1  0
 21 22  1  6
 22 16  1  0
 23 25  1  0
 23 21  1  0
 24 23  2  0
M  END
$$$$
