HPT.pdb
     RDKit          3D

 25 26  0  0  1  0  0  0  0  0999 V2000
   19.7909  -12.0754  -16.6942 N   0  0  0  0  0  0  0  0  0  0  0  0
   18.9789  -10.9239  -16.3795 C   0  0  1  0  0  0  0  0  0  0  0  0
   18.2421  -11.1178  -15.0648 C   0  0  0  0  0  0  0  0  0  0  0  0
   17.2947  -12.2586  -15.0961 C   0  0  0  0  0  0  0  0  0  0  0  0
   17.6125  -13.5857  -14.9109 C   0  0  0  0  0  0  0  0  0  0  0  0
   16.5237  -14.3604  -14.9943 N   0  0  0  0  0  0  0  0  0  0  0  0
   15.4913  -13.5231  -15.2364 C   0  0  0  0  0  0  0  0  0  0  0  0
   15.9543  -12.2584  -15.2977 N   0  0  0  0  0  0  0  0  0  0  0  0
   19.7060   -9.6466  -16.4209 C   0  0  0  0  0  0  0  0  0  0  0  0
   20.7746   -9.5810  -15.7570 O   0  0  0  0  0  0  0  0  0  0  0  0
   19.2877   -8.4790  -17.1565 N   0  0  0  0  0  0  0  0  0  0  0  0
   18.0899   -8.4567  -17.9378 C   0  0  0  0  0  0  0  0  0  0  0  0
   18.0363   -7.0823  -18.5505 C   0  0  0  0  0  0  0  0  0  0  0  0
   19.4800   -6.5813  -18.4830 C   0  0  0  0  0  0  0  0  0  0  0  0
   19.9365   -7.2228  -17.2313 C   0  0  1  0  0  0  0  0  0  0  0  0
   19.7912   -6.3917  -16.0109 C   0  0  0  0  0  0  0  0  0  0  0  0
   18.7257   -6.3740  -15.3448 O   0  0  0  0  0  0  0  0  0  0  0  0
   21.9571   -6.8134  -13.2696 C   0  0  0  0  0  0  0  0  0  0  0  0
   22.0344   -5.3122  -13.4288 C   0  0  1  0  0  0  0  0  0  0  0  0
   23.2017   -5.0406  -14.1648 O   0  0  0  0  0  0  0  0  0  0  0  0
   20.8846   -4.8679  -14.3116 C   0  0  2  0  0  0  0  0  0  0  0  0
   20.8572   -5.5915  -15.5610 N   0  0  0  0  0  0  0  0  0  0  0  0
   20.8725   -3.4051  -14.4895 C   0  0  0  0  0  0  0  0  0  0  0  0
   21.0471   -2.9342  -15.6330 O   0  0  0  0  0  0  0  0  0  0  0  0
   20.6754   -2.5677  -13.4332 O   0  0  0  0  0  0  0  0  0  0  0  0
  2  1  1  1
  3  2  1  0
  4  3  1  0
  5  4  2  0
  6  7  1  0
  6  5  1  0
  7  8  2  0
  8  4  1  0
  9  2  1  0
  9 11  1  0
 10  9  2  0
 11 15  1  0
 12 11  1  0
 12 13  1  0
 13 14  1  0
 15 16  1  1
 15 14  1  0
 16 17  2  0
 19 18  1  6
 19 20  1  0
 19 21  1  0
 21 22  1  6
 22 16  1  0
 23 25  1  0
 23 21  1  0
 24 23  2  0
M  END
$$$$
