HPT.pdb
     RDKit          3D

 25 26  0  0  1  0  0  0  0  0999 V2000
   20.3667  -12.7960  -16.6113 N   0  0  0  0  0  0  0  0  0  0  0  0
   19.5643  -11.5958  -16.6221 C   0  0  1  0  0  0  0  0  0  0  0  0
   18.4843  -11.6510  -15.5547 C   0  0  0  0  0  0  0  0  0  0  0  0
   17.5939  -12.8291  -15.6939 C   0  0  0  0  0  0  0  0  0  0  0  0
   16.5242  -12.9436  -16.5536 C   0  0  0  0  0  0  0  0  0  0  0  0
   15.9340  -14.1395  -16.4353 N   0  0  0  0  0  0  0  0  0  0  0  0
   16.6312  -14.8044  -15.4881 C   0  0  0  0  0  0  0  0  0  0  0  0
   17.6301  -14.0167  -15.0416 N   0  0  0  0  0  0  0  0  0  0  0  0
   20.3440  -10.3512  -16.5537 C   0  0  0  0  0  0  0  0  0  0  0  0
   21.1632  -10.2472  -15.6022 O   0  0  0  0  0  0  0  0  0  0  0  0
   20.2382   -9.2553  -17.4849 N   0  0  0  0  0  0  0  0  0  0  0  0
   19.3666   -9.2970  -18.6181 C   0  0  0  0  0  0  0  0  0  0  0  0
   19.5725   -7.9868  -19.3310 C   0  0  0  0  0  0  0  0  0  0  0  0
   20.9320   -7.4942  -18.8321 C   0  0  0  0  0  0  0  0  0  0  0  0
   20.9247   -8.0176  -17.4491 C   0  0  1  0  0  0  0  0  0  0  0  0
   20.4186   -7.0728  -16.4232 C   0  0  0  0  0  0  0  0  0  0  0  0
   19.1927   -6.9675  -16.1675 O   0  0  0  0  0  0  0  0  0  0  0  0
   21.6918   -7.1433  -13.0192 C   0  0  0  0  0  0  0  0  0  0  0  0
   21.8093   -5.6779  -13.3710 C   0  0  1  0  0  0  0  0  0  0  0  0
   23.1342   -5.4656  -13.7927 O   0  0  0  0  0  0  0  0  0  0  0  0
   20.9472   -5.4108  -14.5892 C   0  0  2  0  0  0  0  0  0  0  0  0
   21.3100   -6.2600  -15.6995 N   0  0  0  0  0  0  0  0  0  0  0  0
   20.9302   -3.9789  -14.9371 C   0  0  0  0  0  0  0  0  0  0  0  0
   21.4288   -3.6151  -16.0229 O   0  0  0  0  0  0  0  0  0  0  0  0
   20.3831   -3.0557  -14.0979 O   0  0  0  0  0  0  0  0  0  0  0  0
  2  1  1  1
  3  2  1  0
  4  3  1  0
  5  4  2  0
  6  7  1  0
  6  5  1  0
  7  8  2  0
  8  4  1  0
  9  2  1  0
  9 11  1  0
 10  9  2  0
 11 15  1  0
 12 11  1  0
 12 13  1  0
 13 14  1  0
 15 16  1  1
 15 14  1  0
 16 17  2  0
 19 18  1  6
 19 20  1  0
 19 21  1  0
 21 22  1  6
 22 16  1  0
 23 25  1  0
 23 21  1  0
 24 23  2  0
M  END
$$$$
