HPT.pdb
     RDKit          3D

 25 26  0  0  1  0  0  0  0  0999 V2000
   25.3628  -21.9099  -12.5660 N   0  0  0  0  0  0  0  0  0  0  0  0
   26.4898  -21.1086  -12.1509 C   0  0  1  0  0  0  0  0  0  0  0  0
   26.1768  -19.6260  -12.2632 C   0  0  0  0  0  0  0  0  0  0  0  0
   25.7955  -19.2183  -13.6374 C   0  0  0  0  0  0  0  0  0  0  0  0
   24.5208  -18.9441  -14.0806 C   0  0  0  0  0  0  0  0  0  0  0  0
   24.5221  -18.5975  -15.3739 N   0  0  0  0  0  0  0  0  0  0  0  0
   25.8129  -18.6487  -15.7696 C   0  0  0  0  0  0  0  0  0  0  0  0
   26.5797  -19.0221  -14.7254 N   0  0  0  0  0  0  0  0  0  0  0  0
   27.0222  -21.4611  -10.8266 C   0  0  0  0  0  0  0  0  0  0  0  0
   26.1888  -21.8506   -9.9659 O   0  0  0  0  0  0  0  0  0  0  0  0
   28.4118  -21.3922  -10.4474 N   0  0  0  0  0  0  0  0  0  0  0  0
   29.4385  -21.0215  -11.3717 C   0  0  0  0  0  0  0  0  0  0  0  0
   30.7251  -21.0961  -10.5930 C   0  0  0  0  0  0  0  0  0  0  0  0
   30.3967  -22.0023   -9.4053 C   0  0  0  0  0  0  0  0  0  0  0  0
   28.9779  -21.6540   -9.1764 C   0  0  1  0  0  0  0  0  0  0  0  0
   28.7483  -20.5810   -8.1777 C   0  0  0  0  0  0  0  0  0  0  0  0
   28.7460  -19.3663   -8.4998 O   0  0  0  0  0  0  0  0  0  0  0  0
   25.9330  -20.6700   -5.5923 C   0  0  0  0  0  0  0  0  0  0  0  0
   27.2058  -20.4310   -4.8127 C   0  0  1  0  0  0  0  0  0  0  0  0
   27.6516  -21.6880   -4.3662 O   0  0  0  0  0  0  0  0  0  0  0  0
   28.2688  -19.9414   -5.7765 C   0  0  2  0  0  0  0  0  0  0  0  0
   28.5234  -20.8999   -6.8262 N   0  0  0  0  0  0  0  0  0  0  0  0
   29.4904  -19.5214   -5.0674 C   0  0  0  0  0  0  0  0  0  0  0  0
   30.5490  -20.1555   -5.2603 O   0  0  0  0  0  0  0  0  0  0  0  0
   29.4804  -18.4608   -4.2125 O   0  0  0  0  0  0  0  0  0  0  0  0
  2  1  1  1
  3  2  1  0
  4  3  1  0
  5  4  2  0
  6  7  1  0
  6  5  1  0
  7  8  2  0
  8  4  1  0
  9  2  1  0
  9 11  1  0
 10  9  2  0
 11 15  1  0
 12 11  1  0
 12 13  1  0
 13 14  1  0
 15 16  1  1
 15 14  1  0
 16 17  2  0
 19 18  1  6
 19 20  1  0
 19 21  1  0
 21 22  1  6
 22 16  1  0
 23 25  1  0
 23 21  1  0
 24 23  2  0
M  END
$$$$
