HPT.pdb
     RDKit          3D

 25 26  0  0  1  0  0  0  0  0999 V2000
   19.3451  -13.1468  -17.1026 N   0  0  0  0  0  0  0  0  0  0  0  0
   20.1630  -12.0094  -17.4517 C   0  0  1  0  0  0  0  0  0  0  0  0
   19.5365  -11.2130  -18.5841 C   0  0  0  0  0  0  0  0  0  0  0  0
   19.3124  -12.0238  -19.8058 C   0  0  0  0  0  0  0  0  0  0  0  0
   20.2859  -12.5073  -20.6513 C   0  0  0  0  0  0  0  0  0  0  0  0
   19.7484  -13.2081  -21.6576 N   0  0  0  0  0  0  0  0  0  0  0  0
   18.4124  -13.1761  -21.4589 C   0  0  0  0  0  0  0  0  0  0  0  0
   18.1493  -12.4639  -20.3449 N   0  0  0  0  0  0  0  0  0  0  0  0
   20.5230  -11.1554  -16.3103 C   0  0  0  0  0  0  0  0  0  0  0  0
   19.5711  -10.6428  -15.6636 O   0  0  0  0  0  0  0  0  0  0  0  0
   21.8700  -10.8657  -15.8851 N   0  0  0  0  0  0  0  0  0  0  0  0
   23.0127  -11.4520  -16.5145 C   0  0  0  0  0  0  0  0  0  0  0  0
   24.2033  -10.9138  -15.7660 C   0  0  0  0  0  0  0  0  0  0  0  0
   23.6296  -10.4500  -14.4260 C   0  0  0  0  0  0  0  0  0  0  0  0
   22.2834  -10.0017  -14.8424 C   0  0  1  0  0  0  0  0  0  0  0  0
   22.1762   -8.5591  -15.1719 C   0  0  0  0  0  0  0  0  0  0  0  0
   22.3847   -8.1280  -16.3338 O   0  0  0  0  0  0  0  0  0  0  0  0
   19.9883   -4.3725  -14.5219 C   0  0  0  0  0  0  0  0  0  0  0  0
   20.1401   -5.8519  -14.2509 C   0  0  1  0  0  0  0  0  0  0  0  0
   19.4718   -6.5264  -15.2885 O   0  0  0  0  0  0  0  0  0  0  0  0
   21.6037   -6.2159  -14.4057 C   0  0  2  0  0  0  0  0  0  0  0  0
   21.8330   -7.6236  -14.1789 N   0  0  0  0  0  0  0  0  0  0  0  0
   22.4670   -5.3491  -13.5842 C   0  0  0  0  0  0  0  0  0  0  0  0
   22.6033   -5.6086  -12.3701 O   0  0  0  0  0  0  0  0  0  0  0  0
   23.1122   -4.2788  -14.1265 O   0  0  0  0  0  0  0  0  0  0  0  0
  2  1  1  1
  3  2  1  0
  4  3  1  0
  5  4  2  0
  6  7  1  0
  6  5  1  0
  7  8  2  0
  8  4  1  0
  9  2  1  0
  9 11  1  0
 10  9  2  0
 11 15  1  0
 12 11  1  0
 12 13  1  0
 13 14  1  0
 15 16  1  6
 15 14  1  0
 16 17  2  0
 19 18  1  6
 19 20  1  0
 19 21  1  0
 21 22  1  1
 22 16  1  0
 23 25  1  0
 23 21  1  0
 24 23  2  0
M  END
$$$$
