HPT.pdb
     RDKit          3D

 25 26  0  0  1  0  0  0  0  0999 V2000
   25.4848  -21.2542  -15.1055 N   0  0  0  0  0  0  0  0  0  0  0  0
   24.9276  -20.4099  -14.0753 C   0  0  1  0  0  0  0  0  0  0  0  0
   24.1117  -19.2786  -14.6781 C   0  0  0  0  0  0  0  0  0  0  0  0
   24.9128  -18.3939  -15.5588 C   0  0  0  0  0  0  0  0  0  0  0  0
   25.4821  -18.7437  -16.7629 C   0  0  0  0  0  0  0  0  0  0  0  0
   26.1338  -17.7094  -17.3088 N   0  0  0  0  0  0  0  0  0  0  0  0
   25.9833  -16.6802  -16.4466 C   0  0  0  0  0  0  0  0  0  0  0  0
   25.2486  -17.0911  -15.3935 N   0  0  0  0  0  0  0  0  0  0  0  0
   24.1795  -21.1387  -13.0405 C   0  0  0  0  0  0  0  0  0  0  0  0
   23.4017  -22.0470  -13.4373 O   0  0  0  0  0  0  0  0  0  0  0  0
   24.2705  -20.8904  -11.6230 N   0  0  0  0  0  0  0  0  0  0  0  0
   25.0950  -19.8555  -11.0800 C   0  0  0  0  0  0  0  0  0  0  0  0
   24.9240  -19.9484   -9.5869 C   0  0  0  0  0  0  0  0  0  0  0  0
   24.4038  -21.3678   -9.3532 C   0  0  0  0  0  0  0  0  0  0  0  0
   23.6017  -21.5730  -10.5784 C   0  0  1  0  0  0  0  0  0  0  0  0
   22.1639  -21.2289  -10.4522 C   0  0  0  0  0  0  0  0  0  0  0  0
   21.7585  -20.0416  -10.5241 O   0  0  0  0  0  0  0  0  0  0  0  0
   19.8008  -21.4030  -12.5868 C   0  0  0  0  0  0  0  0  0  0  0  0
   19.1374  -22.2970  -11.5642 C   0  0  1  0  0  0  0  0  0  0  0  0
   19.4870  -23.6193  -11.8919 O   0  0  0  0  0  0  0  0  0  0  0  0
   19.7751  -22.0304  -10.2148 C   0  0  2  0  0  0  0  0  0  0  0  0
   21.2041  -22.2367  -10.2468 N   0  0  0  0  0  0  0  0  0  0  0  0
   19.1053  -22.7851   -9.1408 C   0  0  0  0  0  0  0  0  0  0  0  0
   19.7557  -23.6455   -8.5110 O   0  0  0  0  0  0  0  0  0  0  0  0
   17.7986  -22.5590   -8.8291 O   0  0  0  0  0  0  0  0  0  0  0  0
  2  1  1  6
  3  2  1  0
  4  3  1  0
  5  4  2  0
  6  7  1  0
  6  5  1  0
  7  8  2  0
  8  4  1  0
  9  2  1  0
  9 11  1  0
 10  9  2  0
 11 15  1  0
 12 11  1  0
 12 13  1  0
 13 14  1  0
 15 16  1  1
 15 14  1  0
 16 17  2  0
 19 18  1  6
 19 20  1  0
 19 21  1  0
 21 22  1  6
 22 16  1  0
 23 25  1  0
 23 21  1  0
 24 23  2  0
M  END
$$$$
