HPT.pdb
     RDKit          3D

 25 26  0  0  1  0  0  0  0  0999 V2000
   23.5532  -21.0791  -15.8849 N   0  0  0  0  0  0  0  0  0  0  0  0
   23.5363  -20.2165  -14.7272 C   0  0  1  0  0  0  0  0  0  0  0  0
   22.5993  -19.0388  -14.9371 C   0  0  0  0  0  0  0  0  0  0  0  0
   22.9172  -18.2577  -16.1573 C   0  0  0  0  0  0  0  0  0  0  0  0
   23.7305  -17.1485  -16.2245 C   0  0  0  0  0  0  0  0  0  0  0  0
   23.8137  -16.6845  -17.4776 N   0  0  0  0  0  0  0  0  0  0  0  0
   23.0449  -17.5041  -18.2276 C   0  0  0  0  0  0  0  0  0  0  0  0
   22.5052  -18.4509  -17.4340 N   0  0  0  0  0  0  0  0  0  0  0  0
   23.2691  -20.9151  -13.4614 C   0  0  0  0  0  0  0  0  0  0  0  0
   22.2810  -21.6965  -13.4429 O   0  0  0  0  0  0  0  0  0  0  0  0
   24.0463  -20.7703  -12.2555 N   0  0  0  0  0  0  0  0  0  0  0  0
   25.2265  -19.9643  -12.1992 C   0  0  0  0  0  0  0  0  0  0  0  0
   25.7391  -20.1015  -10.7901 C   0  0  0  0  0  0  0  0  0  0  0  0
   25.0940  -21.3900  -10.2766 C   0  0  0  0  0  0  0  0  0  0  0  0
   23.7989  -21.3533  -10.9892 C   0  0  1  0  0  0  0  0  0  0  0  0
   22.6867  -20.7213  -10.2376 C   0  0  0  0  0  0  0  0  0  0  0  0
   22.3690  -19.5180  -10.4124 O   0  0  0  0  0  0  0  0  0  0  0  0
   20.2562  -20.0490  -11.0336 C   0  0  0  0  0  0  0  0  0  0  0  0
   19.6565  -21.0312  -10.0535 C   0  0  1  0  0  0  0  0  0  0  0  0
   19.6618  -22.2889  -10.6830 O   0  0  0  0  0  0  0  0  0  0  0  0
   20.6005  -21.1627   -8.8744 C   0  0  2  0  0  0  0  0  0  0  0  0
   21.9483  -21.4628   -9.2975 N   0  0  0  0  0  0  0  0  0  0  0  0
   20.0844  -22.1102   -7.8707 C   0  0  0  0  0  0  0  0  0  0  0  0
   20.7168  -23.1653   -7.6546 O   0  0  0  0  0  0  0  0  0  0  0  0
   18.9375  -21.8528   -7.1819 O   0  0  0  0  0  0  0  0  0  0  0  0
  2  1  1  6
  3  2  1  0
  4  3  1  0
  5  4  2  0
  6  7  1  0
  6  5  1  0
  7  8  2  0
  8  4  1  0
  9  2  1  0
  9 11  1  0
 10  9  2  0
 11 15  1  0
 12 11  1  0
 12 13  1  0
 13 14  1  0
 15 16  1  1
 15 14  1  0
 16 17  2  0
 19 18  1  6
 19 20  1  0
 19 21  1  0
 21 22  1  6
 22 16  1  0
 23 25  1  0
 23 21  1  0
 24 23  2  0
M  END
$$$$
