HPT.pdb
     RDKit          3D

 25 26  0  0  1  0  0  0  0  0999 V2000
   39.2367  -10.0301   -6.3933 N   0  0  0  0  0  0  0  0  0  0  0  0
   40.2914  -10.0164   -7.3792 C   0  0  1  0  0  0  0  0  0  0  0  0
   40.5875   -8.5999   -7.8426 C   0  0  0  0  0  0  0  0  0  0  0  0
   39.3983   -7.9157   -8.4062 C   0  0  0  0  0  0  0  0  0  0  0  0
   38.8557   -8.1232   -9.6548 C   0  0  0  0  0  0  0  0  0  0  0  0
   37.7804   -7.3498   -9.8499 N   0  0  0  0  0  0  0  0  0  0  0  0
   37.6275   -6.6349   -8.7138 C   0  0  0  0  0  0  0  0  0  0  0  0
   38.6005   -6.9748   -7.8446 N   0  0  0  0  0  0  0  0  0  0  0  0
   41.5099  -10.7273   -6.9652 C   0  0  0  0  0  0  0  0  0  0  0  0
   41.8325  -10.6392   -5.7505 O   0  0  0  0  0  0  0  0  0  0  0  0
   42.3515  -11.5065   -7.8391 N   0  0  0  0  0  0  0  0  0  0  0  0
   42.0417  -11.7049   -9.2212 C   0  0  0  0  0  0  0  0  0  0  0  0
   43.1430  -12.5806   -9.7575 C   0  0  0  0  0  0  0  0  0  0  0  0
   43.7380  -13.2442   -8.5144 C   0  0  0  0  0  0  0  0  0  0  0  0
   43.5605  -12.1684   -7.5155 C   0  0  1  0  0  0  0  0  0  0  0  0
   44.7242  -11.2619   -7.3560 C   0  0  0  0  0  0  0  0  0  0  0  0
   44.8414  -10.2095   -8.0327 O   0  0  0  0  0  0  0  0  0  0  0  0
   48.6074  -10.0064   -4.5762 C   0  0  0  0  0  0  0  0  0  0  0  0
   47.4817  -10.9897   -4.8015 C   0  0  1  0  0  0  0  0  0  0  0  0
   46.4569  -10.6484   -3.9007 O   0  0  0  0  0  0  0  0  0  0  0  0
   46.9067  -10.7458   -6.1830 C   0  0  2  0  0  0  0  0  0  0  0  0
   45.7401  -11.5605   -6.4298 N   0  0  0  0  0  0  0  0  0  0  0  0
   47.9363  -10.8772   -7.2290 C   0  0  0  0  0  0  0  0  0  0  0  0
   48.4563   -9.8431   -7.6981 O   0  0  0  0  0  0  0  0  0  0  0  0
   48.3247  -12.1002   -7.6866 O   0  0  0  0  0  0  0  0  0  0  0  0
  2  1  1  1
  3  2  1  0
  4  3  1  0
  5  4  2  0
  6  7  1  0
  6  5  1  0
  7  8  2  0
  8  4  1  0
  9  2  1  0
  9 11  1  0
 10  9  2  0
 11 15  1  0
 12 11  1  0
 12 13  1  0
 13 14  1  0
 15 16  1  6
 15 14  1  0
 16 17  2  0
 19 18  1  1
 19 20  1  0
 19 21  1  0
 21 22  1  6
 22 16  1  0
 23 25  1  0
 23 21  1  0
 24 23  2  0
M  END
$$$$
