HPT.pdb
     RDKit          3D

 25 26  0  0  1  0  0  0  0  0999 V2000
   25.2445  -22.0926  -12.2941 N   0  0  0  0  0  0  0  0  0  0  0  0
   26.3572  -21.2367  -11.9570 C   0  0  1  0  0  0  0  0  0  0  0  0
   25.9716  -19.7710  -12.0662 C   0  0  0  0  0  0  0  0  0  0  0  0
   25.5251  -19.3907  -13.4285 C   0  0  0  0  0  0  0  0  0  0  0  0
   25.5923  -20.1783  -14.5563 C   0  0  0  0  0  0  0  0  0  0  0  0
   25.0989  -19.5382  -15.6237 N   0  0  0  0  0  0  0  0  0  0  0  0
   24.7089  -18.3234  -15.1794 C   0  0  0  0  0  0  0  0  0  0  0  0
   24.9649  -18.2339  -13.8587 N   0  0  0  0  0  0  0  0  0  0  0  0
   26.9839  -21.5472  -10.6638 C   0  0  0  0  0  0  0  0  0  0  0  0
   26.2162  -21.9198   -9.7369 O   0  0  0  0  0  0  0  0  0  0  0  0
   28.3955  -21.4556  -10.3842 N   0  0  0  0  0  0  0  0  0  0  0  0
   29.3548  -21.1302  -11.3939 C   0  0  0  0  0  0  0  0  0  0  0  0
   30.6918  -21.1615  -10.7019 C   0  0  0  0  0  0  0  0  0  0  0  0
   30.4501  -22.0066   -9.4499 C   0  0  0  0  0  0  0  0  0  0  0  0
   29.0481  -21.6504   -9.1430 C   0  0  1  0  0  0  0  0  0  0  0  0
   28.8805  -20.5282   -8.1870 C   0  0  0  0  0  0  0  0  0  0  0  0
   28.8361  -19.3324   -8.5710 O   0  0  0  0  0  0  0  0  0  0  0  0
   26.1810  -19.6819   -6.3674 C   0  0  0  0  0  0  0  0  0  0  0  0
   27.1611  -19.8119   -5.2239 C   0  0  1  0  0  0  0  0  0  0  0  0
   27.0068  -21.1085   -4.7012 O   0  0  0  0  0  0  0  0  0  0  0  0
   28.5653  -19.7677   -5.7938 C   0  0  2  0  0  0  0  0  0  0  0  0
   28.7646  -20.7770   -6.8073 N   0  0  0  0  0  0  0  0  0  0  0  0
   29.5833  -19.8076   -4.7291 C   0  0  0  0  0  0  0  0  0  0  0  0
   30.3553  -20.7875   -4.6679 O   0  0  0  0  0  0  0  0  0  0  0  0
   29.6923  -18.7995   -3.8194 O   0  0  0  0  0  0  0  0  0  0  0  0
  2  1  1  1
  3  2  1  0
  4  3  1  0
  5  4  2  0
  6  7  1  0
  6  5  1  0
  7  8  2  0
  8  4  1  0
  9  2  1  0
  9 11  1  0
 10  9  2  0
 11 15  1  0
 12 11  1  0
 12 13  1  0
 13 14  1  0
 15 16  1  1
 15 14  1  0
 16 17  2  0
 19 18  1  6
 19 20  1  0
 19 21  1  0
 21 22  1  6
 22 16  1  0
 23 25  1  0
 23 21  1  0
 24 23  2  0
M  END
$$$$
