HPT.pdb
     RDKit          3D

 25 26  0  0  1  0  0  0  0  0999 V2000
   21.8604  -33.5341  -14.7456 N   0  0  0  0  0  0  0  0  0  0  0  0
   22.8362  -32.7933  -13.9817 C   0  0  1  0  0  0  0  0  0  0  0  0
   22.3782  -31.3627  -13.7518 C   0  0  0  0  0  0  0  0  0  0  0  0
   22.1525  -30.6182  -15.0146 C   0  0  0  0  0  0  0  0  0  0  0  0
   23.1264  -30.1416  -15.8635 C   0  0  0  0  0  0  0  0  0  0  0  0
   22.5865  -29.5201  -16.9193 N   0  0  0  0  0  0  0  0  0  0  0  0
   21.2483  -29.5966  -16.7495 C   0  0  0  0  0  0  0  0  0  0  0  0
   20.9863  -30.2572  -15.6038 N   0  0  0  0  0  0  0  0  0  0  0  0
   23.2441  -33.4495  -12.7309 C   0  0  0  0  0  0  0  0  0  0  0  0
   22.3239  -33.9282  -12.0157 O   0  0  0  0  0  0  0  0  0  0  0  0
   24.6040  -33.5811  -12.2699 N   0  0  0  0  0  0  0  0  0  0  0  0
   25.7090  -33.0111  -12.9770 C   0  0  0  0  0  0  0  0  0  0  0  0
   26.9317  -33.3935  -12.1857 C   0  0  0  0  0  0  0  0  0  0  0  0
   26.4823  -34.5942  -11.3513 C   0  0  0  0  0  0  0  0  0  0  0  0
   25.0655  -34.2469  -11.1088 C   0  0  1  0  0  0  0  0  0  0  0  0
   24.8066  -33.5130   -9.8456 C   0  0  0  0  0  0  0  0  0  0  0  0
   24.6437  -32.2671   -9.8253 O   0  0  0  0  0  0  0  0  0  0  0  0
   23.1005  -33.7682   -5.2703 C   0  0  0  0  0  0  0  0  0  0  0  0
   23.4273  -34.4754   -6.5657 C   0  0  1  0  0  0  0  0  0  0  0  0
   22.2428  -34.5043   -7.3235 O   0  0  0  0  0  0  0  0  0  0  0  0
   24.3913  -33.6077   -7.3509 C   0  0  2  0  0  0  0  0  0  0  0  0
   24.7349  -34.2022   -8.6214 N   0  0  0  0  0  0  0  0  0  0  0  0
   25.5699  -33.2421   -6.5453 C   0  0  0  0  0  0  0  0  0  0  0  0
   26.6429  -33.8533   -6.7327 O   0  0  0  0  0  0  0  0  0  0  0  0
   25.5050  -32.2558   -5.6079 O   0  0  0  0  0  0  0  0  0  0  0  0
  2  1  1  1
  3  2  1  0
  4  3  1  0
  5  4  2  0
  6  7  1  0
  6  5  1  0
  7  8  2  0
  8  4  1  0
  9  2  1  0
  9 11  1  0
 10  9  2  0
 11 15  1  0
 12 11  1  0
 12 13  1  0
 13 14  1  0
 15 16  1  1
 15 14  1  0
 16 17  2  0
 19 18  1  1
 19 20  1  0
 19 21  1  0
 21 22  1  6
 22 16  1  0
 23 25  1  0
 23 21  1  0
 24 23  2  0
M  END
$$$$
