HPT.pdb
     RDKit          3D

 25 26  0  0  1  0  0  0  0  0999 V2000
   22.5475  -19.0929  -17.8963 N   0  0  0  0  0  0  0  0  0  0  0  0
   23.0713  -18.4401  -16.7199 C   0  0  1  0  0  0  0  0  0  0  0  0
   21.9518  -18.0375  -15.7745 C   0  0  0  0  0  0  0  0  0  0  0  0
   21.0371  -17.0268  -16.3591 C   0  0  0  0  0  0  0  0  0  0  0  0
   21.3981  -15.7963  -16.8609 C   0  0  0  0  0  0  0  0  0  0  0  0
   20.3320  -15.1293  -17.3206 N   0  0  0  0  0  0  0  0  0  0  0  0
   19.2708  -15.9392  -17.1128 C   0  0  0  0  0  0  0  0  0  0  0  0
   19.6942  -17.0811  -16.5344 N   0  0  0  0  0  0  0  0  0  0  0  0
   24.1277  -19.1973  -16.0328 C   0  0  0  0  0  0  0  0  0  0  0  0
   23.9781  -20.4465  -15.9665 O   0  0  0  0  0  0  0  0  0  0  0  0
   25.3065  -18.6195  -15.4361 N   0  0  0  0  0  0  0  0  0  0  0  0
   25.6456  -17.2393  -15.5963 C   0  0  0  0  0  0  0  0  0  0  0  0
   26.9390  -17.0546  -14.8477 C   0  0  0  0  0  0  0  0  0  0  0  0
   27.5166  -18.4667  -14.7362 C   0  0  0  0  0  0  0  0  0  0  0  0
   26.2761  -19.2647  -14.6312 C   0  0  1  0  0  0  0  0  0  0  0  0
   25.8252  -19.5445  -13.2456 C   0  0  0  0  0  0  0  0  0  0  0  0
   25.1356  -18.7199  -12.5946 O   0  0  0  0  0  0  0  0  0  0  0  0
   28.0969  -21.5218  -10.9097 C   0  0  0  0  0  0  0  0  0  0  0  0
   26.8000  -21.0795  -10.2714 C   0  0  1  0  0  0  0  0  0  0  0  0
   26.9337  -19.7088   -9.9862 O   0  0  0  0  0  0  0  0  0  0  0  0
   25.7017  -21.1731  -11.3123 C   0  0  2  0  0  0  0  0  0  0  0  0
   26.1618  -20.7568  -12.6164 N   0  0  0  0  0  0  0  0  0  0  0  0
   24.4820  -20.4697  -10.8772 C   0  0  0  0  0  0  0  0  0  0  0  0
   24.1035  -19.4653  -11.5158 O   0  0  0  0  0  0  0  0  0  0  0  0
   23.7689  -20.8965   -9.7978 O   0  0  0  0  0  0  0  0  0  0  0  0
  2  1  1  6
  3  2  1  0
  4  3  1  0
  5  4  2  0
  6  7  1  0
  6  5  1  0
  7  8  2  0
  8  4  1  0
  9  2  1  0
  9 11  1  0
 10  9  2  0
 11 15  1  0
 12 11  1  0
 12 13  1  0
 13 14  1  0
 15 16  1  1
 15 14  1  0
 16 17  2  0
 19 18  1  6
 19 20  1  0
 19 21  1  0
 21 22  1  6
 22 16  1  0
 23 25  1  0
 23 21  1  0
 24 23  2  0
M  END
$$$$
