WAN.pdb
     RDKit          3D

 28 29  0  0  1  0  0  0  0  0999 V2000
   26.6575  -21.7141  -14.2269 N   0  0  0  0  0  0  0  0  0  0  0  0
   25.5650  -20.8289  -13.8105 C   0  0  1  0  0  0  0  0  0  0  0  0
   26.1385  -19.6588  -13.0210 C   0  0  0  0  0  0  0  0  0  0  0  0
   26.5074  -20.1782  -11.6806 C   0  0  0  0  0  0  0  0  0  0  0  0
   25.6886  -20.4257  -10.5931 C   0  0  0  0  0  0  0  0  0  0  0  0
   26.4424  -20.8862   -9.5924 N   0  0  0  0  0  0  0  0  0  0  0  0
   27.7346  -20.9499   -9.9879 C   0  0  0  0  0  0  0  0  0  0  0  0
   28.8872  -21.3588   -9.3187 C   0  0  0  0  0  0  0  0  0  0  0  0
   30.0978  -21.3130   -9.9964 C   0  0  0  0  0  0  0  0  0  0  0  0
   30.1445  -20.8742  -11.2924 C   0  0  0  0  0  0  0  0  0  0  0  0
   28.9834  -20.4683  -11.9502 C   0  0  0  0  0  0  0  0  0  0  0  0
   27.7843  -20.5129  -11.2809 C   0  0  0  0  0  0  0  0  0  0  0  0
   24.8725  -20.3840  -15.0232 C   0  0  0  0  0  0  0  0  0  0  0  0
   25.1947  -19.3406  -15.6427 O   0  0  0  0  0  0  0  0  0  0  0  0
   23.1432  -21.8203  -17.7213 C   0  0  0  0  0  0  0  0  0  0  0  0
   23.0006  -20.7159  -16.6751 C   0  0  2  0  0  0  0  0  0  0  0  0
   23.7886  -21.1471  -15.5397 N   0  0  0  0  0  0  0  0  0  0  0  0
   21.5836  -20.6639  -16.2739 C   0  0  0  0  0  0  0  0  0  0  0  0
   20.7309  -20.2871  -17.1113 O   0  0  0  0  0  0  0  0  0  0  0  0
   19.0555  -23.0997  -15.9852 N   0  0  0  0  0  0  0  0  0  0  0  0
   18.9784  -23.1780  -14.5681 C   0  0  0  0  0  0  0  0  0  0  0  0
   18.6644  -24.2639  -14.0619 O   0  0  0  0  0  0  0  0  0  0  0  0
   19.2679  -21.9929  -13.7719 C   0  0  0  0  0  0  0  0  0  0  0  0
   19.7563  -20.8641  -14.6237 C   0  0  2  0  0  0  0  0  0  0  0  0
   21.1529  -21.0239  -14.9797 N   0  0  0  0  0  0  0  0  0  0  0  0
   19.5477  -19.5775  -13.9282 C   0  0  0  0  0  0  0  0  0  0  0  0
   18.9807  -18.5235  -14.6910 O   0  0  0  0  0  0  0  0  0  0  0  0
   19.8147  -19.3293  -12.7610 O   0  0  0  0  0  0  0  0  0  0  0  0
  2  1  1  6
  3  2  1  0
  3  4  1  0
  4  5  2  0
  5  6  1  0
  7  6  1  0
  8  7  2  0
  9  8  1  0
 10 11  1  0
 10  9  2  0
 11 12  2  0
 12  4  1  0
 12  7  1  0
 13 17  1  0
 13  2  1  0
 14 13  2  0
 16 18  1  0
 16 15  1  6
 16 17  1  0
 18 25  1  0
 19 18  2  0
 20 21  1  0
 21 22  2  0
 23 21  1  0
 24 23  1  1
 24 26  1  0
 25 24  1  0
 26 28  2  0
 26 27  1  0
M  END
$$$$
