WAN.pdb
     RDKit          3D

 28 29  0  0  1  0  0  0  0  0999 V2000
   28.3444  -21.5739  -10.2759 N   0  0  0  0  0  0  0  0  0  0  0  0
   26.9911  -21.0649  -10.0309 C   0  0  1  0  0  0  0  0  0  0  0  0
   27.0444  -19.9952   -8.9473 C   0  0  0  0  0  0  0  0  0  0  0  0
   28.1648  -20.3500   -8.0410 C   0  0  0  0  0  0  0  0  0  0  0  0
   29.3584  -20.9797   -8.3463 C   0  0  0  0  0  0  0  0  0  0  0  0
   30.0721  -21.0995   -7.2247 N   0  0  0  0  0  0  0  0  0  0  0  0
   29.3844  -20.5672   -6.1884 C   0  0  0  0  0  0  0  0  0  0  0  0
   29.6967  -20.4489   -4.8348 C   0  0  0  0  0  0  0  0  0  0  0  0
   28.7743  -19.8427   -3.9931 C   0  0  0  0  0  0  0  0  0  0  0  0
   27.5887  -19.3759   -4.4938 C   0  0  0  0  0  0  0  0  0  0  0  0
   27.2892  -19.5003   -5.8504 C   0  0  0  0  0  0  0  0  0  0  0  0
   28.2009  -20.1001   -6.6851 C   0  0  0  0  0  0  0  0  0  0  0  0
   26.4841  -20.5343  -11.2995 C   0  0  0  0  0  0  0  0  0  0  0  0
   27.2062  -19.8936  -12.1024 O   0  0  0  0  0  0  0  0  0  0  0  0
   25.3623  -21.6707  -13.8283 C   0  0  0  0  0  0  0  0  0  0  0  0
   24.6433  -20.5935  -13.0173 C   0  0  2  0  0  0  0  0  0  0  0  0
   25.1231  -20.7396  -11.6591 N   0  0  0  0  0  0  0  0  0  0  0  0
   23.2029  -20.9034  -13.0452 C   0  0  0  0  0  0  0  0  0  0  0  0
   22.6123  -20.9369  -14.1499 O   0  0  0  0  0  0  0  0  0  0  0  0
   18.3622  -21.7931  -11.9880 N   0  0  0  0  0  0  0  0  0  0  0  0
   18.9870  -21.8281  -10.7119 C   0  0  0  0  0  0  0  0  0  0  0  0
   18.2836  -22.0911   -9.7270 O   0  0  0  0  0  0  0  0  0  0  0  0
   20.4146  -21.5567  -10.6095 C   0  0  0  0  0  0  0  0  0  0  0  0
   21.0245  -21.3072  -11.9527 C   0  0  2  0  0  0  0  0  0  0  0  0
   22.4652  -21.1640  -11.8713 N   0  0  0  0  0  0  0  0  0  0  0  0
   20.4230  -20.1058  -12.5670 C   0  0  0  0  0  0  0  0  0  0  0  0
   19.6509  -20.3069  -13.7408 O   0  0  0  0  0  0  0  0  0  0  0  0
   20.5236  -18.9552  -12.1656 O   0  0  0  0  0  0  0  0  0  0  0  0
  2  1  1  6
  3  2  1  0
  3  4  1  0
  4  5  2  0
  5  6  1  0
  7  6  1  0
  8  7  2  0
  9  8  1  0
 10 11  1  0
 10  9  2  0
 11 12  2  0
 12  4  1  0
 12  7  1  0
 13 17  1  0
 13  2  1  0
 14 13  2  0
 16 18  1  0
 16 15  1  6
 16 17  1  0
 18 25  1  0
 19 18  2  0
 20 21  1  0
 21 22  2  0
 23 21  1  0
 24 23  1  1
 24 26  1  0
 25 24  1  0
 26 28  2  0
 26 27  1  0
M  END
$$$$
