NDS.pdb
     RDKit          3D

 23 22  0  0  1  0  0  0  0  0999 V2000
    7.9134  -17.9300   14.4525 N   0  0  0  0  0  0  0  0  0  0  0  0
    6.7998  -18.3224   15.2084 C   0  0  0  0  0  0  0  0  0  0  0  0
    5.9503  -19.0898   14.7083 O   0  0  0  0  0  0  0  0  0  0  0  0
    6.6326  -17.8350   16.5780 C   0  0  0  0  0  0  0  0  0  0  0  0
    7.6188  -16.7508   16.9445 C   0  0  2  0  0  0  0  0  0  0  0  0
    8.6994  -16.6633   15.9838 N   0  0  0  0  0  0  0  0  0  0  0  0
    8.2217  -17.1639   18.2599 C   0  0  0  0  0  0  0  0  0  0  0  0
    7.4777  -17.3978   19.2625 O   0  0  0  0  0  0  0  0  0  0  0  0
    9.6109  -17.3065   18.4332 N   0  0  0  0  0  0  0  0  0  0  0  0
   10.1444  -17.6325   19.7154 C   0  0  1  0  0  0  0  0  0  0  0  0
   11.5436  -18.1948   19.6382 C   0  0  0  0  0  0  0  0  0  0  0  0
   11.8671  -19.0758   20.7875 C   0  0  0  0  0  0  0  0  0  0  0  0
   11.1629  -19.0352   21.8294 O   0  0  0  0  0  0  0  0  0  0  0  0
   10.2013  -16.4503   20.6245 C   0  0  0  0  0  0  0  0  0  0  0  0
   11.0927  -15.6034   20.3996 O   0  0  0  0  0  0  0  0  0  0  0  0
   12.9519  -19.9563   20.7270 O   0  0  0  0  0  0  0  0  0  0  0  0
    7.1586  -15.0428   22.9764 O   0  0  0  0  0  0  0  0  0  0  0  0
    8.2186  -14.2922   22.5080 C   0  0  0  0  0  0  0  0  0  0  0  0
    9.4852  -15.1133   22.5724 C   0  0  2  0  0  0  0  0  0  0  0  0
    9.3124  -16.2519   21.7024 N   0  0  0  0  0  0  0  0  0  0  0  0
    9.8248  -15.5155   23.9590 C   0  0  0  0  0  0  0  0  0  0  0  0
   10.2883  -14.6121   24.9026 O   0  0  0  0  0  0  0  0  0  0  0  0
    9.6964  -16.7135   24.3167 O   0  0  0  0  0  0  0  0  0  0  0  0
  2  1  1  0
  3  2  2  0
  4  2  1  0
  5  6  1  6
  5  4  1  0
  7  5  1  0
  7  8  2  0
  9  7  1  0
 10  9  1  0
 10 14  1  0
 10 11  1  6
 12 13  2  0
 12 11  1  0
 14 15  2  0
 14 20  1  0
 16 12  1  0
 18 17  1  0
 19 18  1  1
 19 21  1  0
 20 19  1  0
 21 23  2  0
 21 22  1  0
M  END
$$$$
