NDS.pdb
     RDKit          3D

 23 22  0  0  1  0  0  0  0  0999 V2000
    8.7081  -13.3942   14.4911 N   0  0  0  0  0  0  0  0  0  0  0  0
    7.4484  -13.8866   14.8601 C   0  0  0  0  0  0  0  0  0  0  0  0
    6.5381  -13.9618   14.0078 O   0  0  0  0  0  0  0  0  0  0  0  0
    7.2003  -14.3112   16.2383 C   0  0  0  0  0  0  0  0  0  0  0  0
    8.3769  -14.0662   17.1536 C   0  0  2  0  0  0  0  0  0  0  0  0
    9.6275  -14.4518   16.5324 N   0  0  0  0  0  0  0  0  0  0  0  0
    8.1727  -14.9644   18.3436 C   0  0  0  0  0  0  0  0  0  0  0  0
    7.0805  -14.9342   18.9913 O   0  0  0  0  0  0  0  0  0  0  0  0
    9.1649  -15.8605   18.7824 N   0  0  0  0  0  0  0  0  0  0  0  0
    8.9735  -16.6134   19.9789 C   0  0  1  0  0  0  0  0  0  0  0  0
    9.7502  -17.9082   19.9828 C   0  0  0  0  0  0  0  0  0  0  0  0
    9.4669  -18.7382   21.1796 C   0  0  0  0  0  0  0  0  0  0  0  0
    8.4372  -18.5185   21.8686 O   0  0  0  0  0  0  0  0  0  0  0  0
    9.3843  -15.8571   21.1980 C   0  0  0  0  0  0  0  0  0  0  0  0
   10.5782  -15.4927   21.2648 O   0  0  0  0  0  0  0  0  0  0  0  0
   10.3355  -19.7683   21.5541 O   0  0  0  0  0  0  0  0  0  0  0  0
    6.7662  -14.0820   23.8352 O   0  0  0  0  0  0  0  0  0  0  0  0
    8.0347  -13.6074   23.5664 C   0  0  0  0  0  0  0  0  0  0  0  0
    8.9791  -14.7715   23.3780 C   0  0  2  0  0  0  0  0  0  0  0  0
    8.5033  -15.5427   22.2546 N   0  0  0  0  0  0  0  0  0  0  0  0
    9.1103  -15.5937   24.6054 C   0  0  0  0  0  0  0  0  0  0  0  0
    8.7736  -16.9379   24.6392 O   0  0  0  0  0  0  0  0  0  0  0  0
    9.5401  -15.0763   25.6671 O   0  0  0  0  0  0  0  0  0  0  0  0
  2  1  1  0
  3  2  2  0
  4  2  1  0
  5  6  1  6
  5  4  1  0
  7  5  1  0
  7  8  2  0
  9  7  1  0
 10  9  1  0
 10 14  1  0
 10 11  1  6
 12 13  2  0
 12 11  1  0
 14 15  2  0
 14 20  1  0
 16 12  1  0
 18 17  1  0
 19 18  1  1
 19 21  1  0
 20 19  1  0
 21 23  2  0
 21 22  1  0
M  END
$$$$
