NDS.pdb
     RDKit          3D

 23 22  0  0  1  0  0  0  0  0999 V2000
    8.3440  -12.5137   16.7915 N   0  0  0  0  0  0  0  0  0  0  0  0
    7.7289  -13.7732   16.8178 C   0  0  0  0  0  0  0  0  0  0  0  0
    6.9346  -14.0944   15.9086 O   0  0  0  0  0  0  0  0  0  0  0  0
    8.0158  -14.7086   17.9060 C   0  0  0  0  0  0  0  0  0  0  0  0
    8.9446  -14.1345   18.9500 C   0  0  2  0  0  0  0  0  0  0  0  0
   10.2256  -13.7664   18.3823 N   0  0  0  0  0  0  0  0  0  0  0  0
    9.1946  -15.2411   19.9386 C   0  0  0  0  0  0  0  0  0  0  0  0
    8.2312  -15.7471   20.5937 O   0  0  0  0  0  0  0  0  0  0  0  0
   10.4832  -15.7542   20.1759 N   0  0  0  0  0  0  0  0  0  0  0  0
   10.6964  -16.7054   21.2173 C   0  0  1  0  0  0  0  0  0  0  0  0
   12.0009  -17.4509   21.0673 C   0  0  0  0  0  0  0  0  0  0  0  0
   11.8384  -18.9181   21.2173 C   0  0  0  0  0  0  0  0  0  0  0  0
   10.9470  -19.3783   21.9768 O   0  0  0  0  0  0  0  0  0  0  0  0
   10.7103  -16.0740   22.5695 C   0  0  0  0  0  0  0  0  0  0  0  0
   11.6136  -15.2407   22.7978 O   0  0  0  0  0  0  0  0  0  0  0  0
   12.6689  -19.8017   20.5207 O   0  0  0  0  0  0  0  0  0  0  0  0
    7.5245  -15.7329   24.9503 O   0  0  0  0  0  0  0  0  0  0  0  0
    8.6348  -14.9259   25.0991 C   0  0  0  0  0  0  0  0  0  0  0  0
    9.8857  -15.7425   24.8727 C   0  0  2  0  0  0  0  0  0  0  0  0
    9.7691  -16.3704   23.5784 N   0  0  0  0  0  0  0  0  0  0  0  0
   10.1159  -16.7303   25.9549 C   0  0  0  0  0  0  0  0  0  0  0  0
   10.3602  -16.3531   27.2661 O   0  0  0  0  0  0  0  0  0  0  0  0
   10.0937  -17.9608   25.6995 O   0  0  0  0  0  0  0  0  0  0  0  0
  2  1  1  0
  3  2  2  0
  4  2  1  0
  5  6  1  6
  5  4  1  0
  7  5  1  0
  7  8  2  0
  9  7  1  0
 10  9  1  0
 10 14  1  0
 10 11  1  6
 12 13  2  0
 12 11  1  0
 14 15  2  0
 14 20  1  0
 16 12  1  0
 18 17  1  0
 19 18  1  1
 19 21  1  0
 20 19  1  0
 21 23  2  0
 21 22  1  0
M  END
$$$$
