NDS.pdb
     RDKit          3D

 23 22  0  0  1  0  0  0  0  0999 V2000
    8.3158  -13.3612   14.9277 N   0  0  0  0  0  0  0  0  0  0  0  0
    7.2925  -14.1996   15.3919 C   0  0  0  0  0  0  0  0  0  0  0  0
    6.3422  -14.4947   14.6366 O   0  0  0  0  0  0  0  0  0  0  0  0
    7.3370  -14.7274   16.7560 C   0  0  0  0  0  0  0  0  0  0  0  0
    8.4995  -14.1930   17.5593 C   0  0  2  0  0  0  0  0  0  0  0  0
    9.7614  -14.4036   16.8799 N   0  0  0  0  0  0  0  0  0  0  0  0
    8.5345  -15.0005   18.8287 C   0  0  0  0  0  0  0  0  0  0  0  0
    7.5231  -15.0347   19.5964 O   0  0  0  0  0  0  0  0  0  0  0  0
    9.6686  -15.7393   19.2133 N   0  0  0  0  0  0  0  0  0  0  0  0
    9.6398  -16.5337   20.3977 C   0  0  1  0  0  0  0  0  0  0  0  0
   10.7802  -17.5212   20.4647 C   0  0  0  0  0  0  0  0  0  0  0  0
   10.6517  -18.4626   21.6043 C   0  0  0  0  0  0  0  0  0  0  0  0
    9.5279  -18.6587   22.1351 O   0  0  0  0  0  0  0  0  0  0  0  0
    9.7081  -15.7070   21.6383 C   0  0  0  0  0  0  0  0  0  0  0  0
   10.7531  -15.0465   21.8237 O   0  0  0  0  0  0  0  0  0  0  0  0
   11.7711  -19.1391   22.0992 O   0  0  0  0  0  0  0  0  0  0  0  0
    6.5036  -14.4359   23.8787 O   0  0  0  0  0  0  0  0  0  0  0  0
    7.7250  -13.8002   23.7774 C   0  0  0  0  0  0  0  0  0  0  0  0
    8.8305  -14.8300   23.7727 C   0  0  2  0  0  0  0  0  0  0  0  0
    8.6677  -15.6401   22.5893 N   0  0  0  0  0  0  0  0  0  0  0  0
    8.8447  -15.6456   25.0113 C   0  0  0  0  0  0  0  0  0  0  0  0
    8.6992  -17.0240   24.9954 O   0  0  0  0  0  0  0  0  0  0  0  0
    8.9926  -15.0906   26.1292 O   0  0  0  0  0  0  0  0  0  0  0  0
  2  1  1  0
  3  2  2  0
  4  2  1  0
  5  6  1  6
  5  4  1  0
  7  5  1  0
  7  8  2  0
  9  7  1  0
 10  9  1  0
 10 14  1  0
 10 11  1  6
 12 13  2  0
 12 11  1  0
 14 15  2  0
 14 20  1  0
 16 12  1  0
 18 17  1  0
 19 18  1  1
 19 21  1  0
 20 19  1  0
 21 23  2  0
 21 22  1  0
M  END
$$$$
