NDS.pdb
     RDKit          3D

 23 22  0  0  1  0  0  0  0  0999 V2000
    8.3608  -18.1214   16.3360 N   0  0  0  0  0  0  0  0  0  0  0  0
    7.8518  -18.2386   17.6370 C   0  0  0  0  0  0  0  0  0  0  0  0
    6.7959  -17.6464   17.9453 O   0  0  0  0  0  0  0  0  0  0  0  0
    8.5544  -19.0514   18.6304 C   0  0  0  0  0  0  0  0  0  0  0  0
    9.7147  -19.8244   18.0487 C   0  0  2  0  0  0  0  0  0  0  0  0
    9.2641  -20.8981   17.1869 N   0  0  0  0  0  0  0  0  0  0  0  0
   10.4221  -20.4555   19.2173 C   0  0  0  0  0  0  0  0  0  0  0  0
    9.7914  -21.2158   20.0158 O   0  0  0  0  0  0  0  0  0  0  0  0
   11.7884  -20.2348   19.4716 N   0  0  0  0  0  0  0  0  0  0  0  0
   12.4380  -20.9158   20.5436 C   0  0  1  0  0  0  0  0  0  0  0  0
   13.9338  -21.0033   20.3568 C   0  0  0  0  0  0  0  0  0  0  0  0
   14.3142  -21.8488   19.1984 C   0  0  0  0  0  0  0  0  0  0  0  0
   13.6352  -22.8692   18.9139 O   0  0  0  0  0  0  0  0  0  0  0  0
   12.2030  -20.2560   21.8614 C   0  0  0  0  0  0  0  0  0  0  0  0
   12.5805  -19.0701   21.9779 O   0  0  0  0  0  0  0  0  0  0  0  0
   15.4252  -21.5238   18.4135 O   0  0  0  0  0  0  0  0  0  0  0  0
    9.4769  -21.5760   24.4410 O   0  0  0  0  0  0  0  0  0  0  0  0
    9.8783  -20.2559   24.4904 C   0  0  0  0  0  0  0  0  0  0  0  0
   11.3536  -20.1654   24.1777 C   0  0  2  0  0  0  0  0  0  0  0  0
   11.5871  -20.8985   22.9565 N   0  0  0  0  0  0  0  0  0  0  0  0
   12.1965  -20.6567   25.2948 C   0  0  0  0  0  0  0  0  0  0  0  0
   13.0818  -21.7133   25.1490 O   0  0  0  0  0  0  0  0  0  0  0  0
   12.1241  -20.1121   26.4252 O   0  0  0  0  0  0  0  0  0  0  0  0
  2  1  1  0
  3  2  2  0
  4  2  1  0
  5  6  1  6
  5  4  1  0
  7  5  1  0
  7  8  2  0
  9  7  1  0
 10  9  1  0
 10 14  1  0
 10 11  1  6
 12 13  2  0
 12 11  1  0
 14 15  2  0
 14 20  1  0
 16 12  1  0
 18 17  1  0
 19 18  1  1
 19 21  1  0
 20 19  1  0
 21 23  2  0
 21 22  1  0
M  END
$$$$
