NDS.pdb
     RDKit          3D

 23 22  0  0  1  0  0  0  0  0999 V2000
    8.2993  -18.1313   14.2704 N   0  0  0  0  0  0  0  0  0  0  0  0
    7.7416  -17.0447   14.9587 C   0  0  0  0  0  0  0  0  0  0  0  0
    7.5461  -15.9659   14.3599 O   0  0  0  0  0  0  0  0  0  0  0  0
    7.3897  -17.1733   16.3732 C   0  0  0  0  0  0  0  0  0  0  0  0
    7.6383  -18.5591   16.9210 C   0  0  2  0  0  0  0  0  0  0  0  0
    6.5532  -19.4638   16.6004 N   0  0  0  0  0  0  0  0  0  0  0  0
    7.6730  -18.4148   18.4185 C   0  0  0  0  0  0  0  0  0  0  0  0
    6.7112  -17.8570   19.0326 O   0  0  0  0  0  0  0  0  0  0  0  0
    8.7530  -18.8832   19.1895 N   0  0  0  0  0  0  0  0  0  0  0  0
    8.7300  -18.7539   20.6099 C   0  0  1  0  0  0  0  0  0  0  0  0
    9.4835  -19.8608   21.3078 C   0  0  0  0  0  0  0  0  0  0  0  0
    8.8708  -21.1939   21.0863 C   0  0  0  0  0  0  0  0  0  0  0  0
    9.4898  -22.0697   20.4282 O   0  0  0  0  0  0  0  0  0  0  0  0
    9.3240  -17.4656   21.0730 C   0  0  0  0  0  0  0  0  0  0  0  0
   10.3542  -17.0714   20.4848 O   0  0  0  0  0  0  0  0  0  0  0  0
    7.6057  -21.4913   21.6029 O   0  0  0  0  0  0  0  0  0  0  0  0
    7.3518  -14.4488   21.8666 O   0  0  0  0  0  0  0  0  0  0  0  0
    8.3086  -14.4745   22.8617 C   0  0  0  0  0  0  0  0  0  0  0  0
    9.4074  -15.4386   22.4798 C   0  0  2  0  0  0  0  0  0  0  0  0
    8.7852  -16.6908   22.1222 N   0  0  0  0  0  0  0  0  0  0  0  0
   10.4126  -15.6015   23.5583 C   0  0  0  0  0  0  0  0  0  0  0  0
   11.1432  -14.5360   24.0605 O   0  0  0  0  0  0  0  0  0  0  0  0
   10.6284  -16.7371   24.0517 O   0  0  0  0  0  0  0  0  0  0  0  0
  2  1  1  0
  3  2  2  0
  4  2  1  0
  5  6  1  1
  5  4  1  0
  7  5  1  0
  7  8  2  0
  9  7  1  0
 10  9  1  0
 10 14  1  0
 10 11  1  1
 12 13  2  0
 12 11  1  0
 14 15  2  0
 14 20  1  0
 16 12  1  0
 18 17  1  0
 19 18  1  1
 19 21  1  0
 20 19  1  0
 21 23  2  0
 21 22  1  0
M  END
$$$$
