NDS.pdb
     RDKit          3D

 23 22  0  0  1  0  0  0  0  0999 V2000
    7.1211  -12.7074   16.0086 N   0  0  0  0  0  0  0  0  0  0  0  0
    7.3637  -14.0872   15.9564 C   0  0  0  0  0  0  0  0  0  0  0  0
    7.3307  -14.6814   14.8580 O   0  0  0  0  0  0  0  0  0  0  0  0
    7.6544  -14.8292   17.1837 C   0  0  0  0  0  0  0  0  0  0  0  0
    8.8200  -14.2591   17.9574 C   0  0  2  0  0  0  0  0  0  0  0  0
    9.9881  -14.0892   17.1176 N   0  0  0  0  0  0  0  0  0  0  0  0
    9.1663  -15.2838   19.0036 C   0  0  0  0  0  0  0  0  0  0  0  0
    8.2538  -15.8140   19.7104 O   0  0  0  0  0  0  0  0  0  0  0  0
   10.4921  -15.6918   19.2401 N   0  0  0  0  0  0  0  0  0  0  0  0
   10.7778  -16.6479   20.2594 C   0  0  1  0  0  0  0  0  0  0  0  0
   12.1406  -17.2785   20.1011 C   0  0  0  0  0  0  0  0  0  0  0  0
   12.2268  -18.1555   18.9074 C   0  0  0  0  0  0  0  0  0  0  0  0
   11.2024  -18.7572   18.4931 O   0  0  0  0  0  0  0  0  0  0  0  0
   10.7314  -16.0519   21.6268 C   0  0  0  0  0  0  0  0  0  0  0  0
   11.5702  -15.1624   21.8872 O   0  0  0  0  0  0  0  0  0  0  0  0
   13.4402  -18.3230   18.2326 O   0  0  0  0  0  0  0  0  0  0  0  0
    8.1940  -14.2826   23.1721 O   0  0  0  0  0  0  0  0  0  0  0  0
    8.4743  -15.2033   24.1621 C   0  0  0  0  0  0  0  0  0  0  0  0
    9.8351  -15.8113   23.9145 C   0  0  2  0  0  0  0  0  0  0  0  0
    9.8028  -16.4403   22.6158 N   0  0  0  0  0  0  0  0  0  0  0  0
   10.2312  -16.7584   24.9850 C   0  0  0  0  0  0  0  0  0  0  0  0
   10.5995  -18.0681   24.7198 O   0  0  0  0  0  0  0  0  0  0  0  0
   10.2415  -16.3842   26.1848 O   0  0  0  0  0  0  0  0  0  0  0  0
  2  1  1  0
  3  2  2  0
  4  2  1  0
  5  6  1  6
  5  4  1  0
  7  5  1  0
  7  8  2  0
  9  7  1  0
 10  9  1  0
 10 14  1  0
 10 11  1  6
 12 13  2  0
 12 11  1  0
 14 15  2  0
 14 20  1  0
 16 12  1  0
 18 17  1  0
 19 18  1  1
 19 21  1  0
 20 19  1  0
 21 23  2  0
 21 22  1  0
M  END
$$$$
