NDS.pdb
     RDKit          3D

 23 22  0  0  1  0  0  0  0  0999 V2000
    7.4489  -12.3208   17.0137 N   0  0  0  0  0  0  0  0  0  0  0  0
    7.7151  -13.6867   17.1836 C   0  0  0  0  0  0  0  0  0  0  0  0
    8.0828  -14.3730   16.2066 O   0  0  0  0  0  0  0  0  0  0  0  0
    7.5631  -14.3067   18.5003 C   0  0  0  0  0  0  0  0  0  0  0  0
    8.7279  -14.0311   19.4220 C   0  0  2  0  0  0  0  0  0  0  0  0
    9.9968  -14.1708   18.7372 N   0  0  0  0  0  0  0  0  0  0  0  0
    8.6755  -15.0920   20.4879 C   0  0  0  0  0  0  0  0  0  0  0  0
    7.6049  -15.2941   21.1410 O   0  0  0  0  0  0  0  0  0  0  0  0
    9.7899  -15.8918   20.8017 N   0  0  0  0  0  0  0  0  0  0  0  0
    9.7352  -16.7993   21.9009 C   0  0  1  0  0  0  0  0  0  0  0  0
   10.7388  -17.9211   21.7806 C   0  0  0  0  0  0  0  0  0  0  0  0
   10.6289  -18.9042   22.8864 C   0  0  0  0  0  0  0  0  0  0  0  0
   10.9344  -18.5684   24.0599 O   0  0  0  0  0  0  0  0  0  0  0  0
    9.9919  -16.1256   23.2075 C   0  0  0  0  0  0  0  0  0  0  0  0
   11.0815  -15.5258   23.3327 O   0  0  0  0  0  0  0  0  0  0  0  0
   10.1871  -20.2079   22.6393 O   0  0  0  0  0  0  0  0  0  0  0  0
    8.3463  -13.7050   26.8365 O   0  0  0  0  0  0  0  0  0  0  0  0
    8.1488  -14.4521   25.6923 C   0  0  0  0  0  0  0  0  0  0  0  0
    9.3472  -15.3419   25.4581 C   0  0  2  0  0  0  0  0  0  0  0  0
    9.0786  -16.1360   24.2832 N   0  0  0  0  0  0  0  0  0  0  0  0
    9.6645  -16.1805   26.6395 C   0  0  0  0  0  0  0  0  0  0  0  0
   10.1220  -15.6420   27.8320 O   0  0  0  0  0  0  0  0  0  0  0  0
    9.5218  -17.4279   26.5830 O   0  0  0  0  0  0  0  0  0  0  0  0
  2  1  1  0
  3  2  2  0
  4  2  1  0
  5  6  1  6
  5  4  1  0
  7  5  1  0
  7  8  2  0
  9  7  1  0
 10  9  1  0
 10 14  1  0
 10 11  1  6
 12 13  2  0
 12 11  1  0
 14 15  2  0
 14 20  1  0
 16 12  1  0
 18 17  1  0
 19 18  1  1
 19 21  1  0
 20 19  1  0
 21 23  2  0
 21 22  1  0
M  END
$$$$
