NDS.pdb
     RDKit          3D

 23 22  0  0  1  0  0  0  0  0999 V2000
    7.0212  -14.4894   16.1590 N   0  0  0  0  0  0  0  0  0  0  0  0
    7.6327  -13.6405   17.0921 C   0  0  0  0  0  0  0  0  0  0  0  0
    8.3726  -12.7148   16.6966 O   0  0  0  0  0  0  0  0  0  0  0  0
    7.4055  -13.8374   18.5242 C   0  0  0  0  0  0  0  0  0  0  0  0
    8.6790  -13.7983   19.3360 C   0  0  2  0  0  0  0  0  0  0  0  0
    9.8085  -14.3060   18.5844 N   0  0  0  0  0  0  0  0  0  0  0  0
    8.4604  -14.7287   20.4984 C   0  0  0  0  0  0  0  0  0  0  0  0
    7.4591  -14.5752   21.2647 O   0  0  0  0  0  0  0  0  0  0  0  0
    9.3399  -15.7900   20.7817 N   0  0  0  0  0  0  0  0  0  0  0  0
    9.0930  -16.6495   21.8931 C   0  0  1  0  0  0  0  0  0  0  0  0
    9.3932  -18.0974   21.5877 C   0  0  0  0  0  0  0  0  0  0  0  0
   10.7174  -18.2806   20.9440 C   0  0  0  0  0  0  0  0  0  0  0  0
   10.9791  -17.6907   19.8638 O   0  0  0  0  0  0  0  0  0  0  0  0
    9.9063  -16.2803   23.0886 C   0  0  0  0  0  0  0  0  0  0  0  0
   10.9914  -15.6962   22.8789 O   0  0  0  0  0  0  0  0  0  0  0  0
   11.6845  -19.1060   21.5263 O   0  0  0  0  0  0  0  0  0  0  0  0
   10.3091  -14.8325   27.4752 O   0  0  0  0  0  0  0  0  0  0  0  0
    9.5334  -15.2567   26.4147 C   0  0  0  0  0  0  0  0  0  0  0  0
   10.3562  -16.1464   25.5124 C   0  0  2  0  0  0  0  0  0  0  0  0
    9.5124  -16.5560   24.4154 N   0  0  0  0  0  0  0  0  0  0  0  0
   10.9319  -17.3049   26.2379 C   0  0  0  0  0  0  0  0  0  0  0  0
   10.6213  -18.6156   25.9111 O   0  0  0  0  0  0  0  0  0  0  0  0
   11.7334  -17.1179   27.1878 O   0  0  0  0  0  0  0  0  0  0  0  0
  2  1  1  0
  3  2  2  0
  4  2  1  0
  5  6  1  6
  5  4  1  0
  7  5  1  0
  7  8  2  0
  9  7  1  0
 10  9  1  0
 10 14  1  0
 10 11  1  6
 12 13  2  0
 12 11  1  0
 14 15  2  0
 14 20  1  0
 16 12  1  0
 18 17  1  0
 19 18  1  1
 19 21  1  0
 20 19  1  0
 21 23  2  0
 21 22  1  0
M  END
$$$$
