NDS.pdb
     RDKit          3D

 23 22  0  0  1  0  0  0  0  0999 V2000
    8.7787  -14.2247   18.2353 N   0  0  0  0  0  0  0  0  0  0  0  0
    8.2334  -13.4490   19.2679 C   0  0  0  0  0  0  0  0  0  0  0  0
    7.8085  -12.3002   19.0222 O   0  0  0  0  0  0  0  0  0  0  0  0
    8.1620  -13.9824   20.6287 C   0  0  0  0  0  0  0  0  0  0  0  0
    8.7183  -15.3821   20.7452 C   0  0  2  0  0  0  0  0  0  0  0  0
    7.8516  -16.3567   20.1146 N   0  0  0  0  0  0  0  0  0  0  0  0
    8.7494  -15.6966   22.2165 C   0  0  0  0  0  0  0  0  0  0  0  0
    7.6765  -15.6951   22.8966 O   0  0  0  0  0  0  0  0  0  0  0  0
    9.9466  -16.0004   22.8906 N   0  0  0  0  0  0  0  0  0  0  0  0
    9.9102  -16.5293   24.2149 C   0  0  1  0  0  0  0  0  0  0  0  0
   10.8931  -17.6574   24.4187 C   0  0  0  0  0  0  0  0  0  0  0  0
   10.8731  -18.1861   25.8050 C   0  0  0  0  0  0  0  0  0  0  0  0
    9.7900  -18.5725   26.3157 O   0  0  0  0  0  0  0  0  0  0  0  0
   10.2147  -15.4963   25.2480 C   0  0  0  0  0  0  0  0  0  0  0  0
   11.3299  -14.9358   25.1791 O   0  0  0  0  0  0  0  0  0  0  0  0
   12.0504  -18.2609   26.5559 O   0  0  0  0  0  0  0  0  0  0  0  0
    7.3738  -13.8029   27.5776 O   0  0  0  0  0  0  0  0  0  0  0  0
    8.5434  -13.1239   27.2993 C   0  0  0  0  0  0  0  0  0  0  0  0
    9.6892  -14.1055   27.2188 C   0  0  2  0  0  0  0  0  0  0  0  0
    9.3185  -15.1333   26.2758 N   0  0  0  0  0  0  0  0  0  0  0  0
   10.0443  -14.6654   28.5456 C   0  0  0  0  0  0  0  0  0  0  0  0
   10.4775  -13.8712   29.5958 O   0  0  0  0  0  0  0  0  0  0  0  0
    9.9579  -15.9024   28.7507 O   0  0  0  0  0  0  0  0  0  0  0  0
  2  1  1  0
  3  2  2  0
  4  2  1  0
  5  6  1  6
  5  4  1  0
  7  5  1  0
  7  8  2  0
  9  7  1  0
 10  9  1  0
 10 14  1  0
 10 11  1  6
 12 13  2  0
 12 11  1  0
 14 15  2  0
 14 20  1  0
 16 12  1  0
 18 17  1  0
 19 18  1  1
 19 21  1  0
 20 19  1  0
 21 23  2  0
 21 22  1  0
M  END
$$$$
