NDS.pdb
     RDKit          3D

 23 22  0  0  1  0  0  0  0  0999 V2000
    7.6551  -11.9982   18.3252 N   0  0  0  0  0  0  0  0  0  0  0  0
    8.1443  -13.3017   18.4898 C   0  0  0  0  0  0  0  0  0  0  0  0
    7.6367  -14.2409   17.8411 O   0  0  0  0  0  0  0  0  0  0  0  0
    9.2454  -13.5615   19.4179 C   0  0  0  0  0  0  0  0  0  0  0  0
    9.6060  -15.0255   19.5127 C   0  0  2  0  0  0  0  0  0  0  0  0
    8.4290  -15.8590   19.6483 N   0  0  0  0  0  0  0  0  0  0  0  0
   10.4087  -15.1755   20.7767 C   0  0  0  0  0  0  0  0  0  0  0  0
   11.4804  -14.5134   20.9396 O   0  0  0  0  0  0  0  0  0  0  0  0
   10.0140  -16.0402   21.8143 N   0  0  0  0  0  0  0  0  0  0  0  0
   10.8115  -16.1601   22.9909 C   0  0  1  0  0  0  0  0  0  0  0  0
    9.9979  -16.0589   24.2589 C   0  0  0  0  0  0  0  0  0  0  0  0
   10.8389  -16.1094   25.4803 C   0  0  0  0  0  0  0  0  0  0  0  0
   12.0932  -16.1209   25.3809 O   0  0  0  0  0  0  0  0  0  0  0  0
   11.5467  -17.4576   23.0493 C   0  0  0  0  0  0  0  0  0  0  0  0
   10.8622  -18.5015   22.9835 O   0  0  0  0  0  0  0  0  0  0  0  0
   10.2513  -16.1446   26.7489 O   0  0  0  0  0  0  0  0  0  0  0  0
   15.5986  -17.6732   22.7486 O   0  0  0  0  0  0  0  0  0  0  0  0
   14.8279  -18.7162   22.2748 C   0  0  0  0  0  0  0  0  0  0  0  0
   13.5842  -18.8496   23.1223 C   0  0  2  0  0  0  0  0  0  0  0  0
   12.9491  -17.5546   23.1728 N   0  0  0  0  0  0  0  0  0  0  0  0
   13.8799  -19.3807   24.4751 C   0  0  0  0  0  0  0  0  0  0  0  0
   14.4002  -20.6493   24.6783 O   0  0  0  0  0  0  0  0  0  0  0  0
   13.6594  -18.6744   25.4911 O   0  0  0  0  0  0  0  0  0  0  0  0
  2  1  1  0
  3  2  2  0
  4  2  1  0
  5  6  1  1
  5  4  1  0
  7  5  1  0
  7  8  2  0
  9  7  1  0
 10  9  1  0
 10 14  1  0
 10 11  1  1
 12 13  2  0
 12 11  1  0
 14 15  2  0
 14 20  1  0
 16 12  1  0
 18 17  1  0
 19 18  1  6
 19 21  1  0
 20 19  1  0
 21 23  2  0
 21 22  1  0
M  END
$$$$
