WCF.pdb
     RDKit          3D

 32 34  0  0  1  0  0  0  0  0999 V2000
   28.3131  -19.5486  -18.6686 N   0  0  0  0  0  0  0  0  0  0  0  0
   27.4450  -18.9007  -17.7175 C   0  0  1  0  0  0  0  0  0  0  0  0
   26.2190  -18.3737  -18.4359 C   0  0  0  0  0  0  0  0  0  0  0  0
   26.5027  -17.2018  -19.2901 C   0  0  0  0  0  0  0  0  0  0  0  0
   27.3259  -17.1940  -20.3937 C   0  0  0  0  0  0  0  0  0  0  0  0
   27.3798  -15.9446  -20.9093 N   0  0  0  0  0  0  0  0  0  0  0  0
   26.6104  -15.1284  -20.1709 C   0  0  0  0  0  0  0  0  0  0  0  0
   26.3206  -13.7931  -20.2685 C   0  0  0  0  0  0  0  0  0  0  0  0
   25.4793  -13.1472  -19.3866 C   0  0  0  0  0  0  0  0  0  0  0  0
   24.9376  -13.9248  -18.3890 C   0  0  0  0  0  0  0  0  0  0  0  0
   25.2142  -15.2907  -18.2624 C   0  0  0  0  0  0  0  0  0  0  0  0
   26.0578  -15.8899  -19.1626 C   0  0  0  0  0  0  0  0  0  0  0  0
   27.0776  -19.8490  -16.6414 C   0  0  0  0  0  0  0  0  0  0  0  0
   26.6625  -21.0135  -16.8860 O   0  0  0  0  0  0  0  0  0  0  0  0
   27.1753  -19.4955  -15.2510 N   0  0  0  0  0  0  0  0  0  0  0  0
   26.5268  -20.2688  -14.2075 C   0  0  1  0  0  0  0  0  0  0  0  0
   27.0721  -19.8443  -12.8334 C   0  0  0  0  0  0  0  0  0  0  0  0
   27.0646  -18.0306  -12.8023 S   0  0  0  0  0  0  0  0  0  0  0  0
   25.0755  -20.0075  -14.1456 C   0  0  0  0  0  0  0  0  0  0  0  0
   24.6071  -19.0806  -14.8650 O   0  0  0  0  0  0  0  0  0  0  0  0
   24.1656  -20.7294  -13.3326 N   0  0  0  0  0  0  0  0  0  0  0  0
   22.7271  -20.4274  -13.4133 C   0  0  1  0  0  0  0  0  0  0  0  0
   22.3165  -20.7135  -14.8413 C   0  0  0  0  0  0  0  0  0  0  0  0
   20.8649  -20.6159  -15.0844 C   0  0  0  0  0  0  0  0  0  0  0  0
   20.3717  -19.3336  -15.3641 C   0  0  0  0  0  0  0  0  0  0  0  0
   19.0271  -19.1803  -15.6023 C   0  0  0  0  0  0  0  0  0  0  0  0
   18.1929  -20.2775  -15.5630 C   0  0  0  0  0  0  0  0  0  0  0  0
   18.6840  -21.5327  -15.2879 C   0  0  0  0  0  0  0  0  0  0  0  0
   20.0219  -21.6907  -15.0500 C   0  0  0  0  0  0  0  0  0  0  0  0
   21.9388  -21.2652  -12.4939 C   0  0  0  0  0  0  0  0  0  0  0  0
   20.7848  -20.9149  -12.1333 O   0  0  0  0  0  0  0  0  0  0  0  0
   22.4108  -22.4566  -11.9884 O   0  0  0  0  0  0  0  0  0  0  0  0
  2  1  1  6
  2 13  1  0
  2  3  1  0
  4  3  1  0
  4  5  2  0
  6  5  1  0
  7  6  1  0
  8  7  2  0
  9  8  1  0
 10  9  2  0
 10 11  1  0
 11 12  2  0
 12  7  1  0
 12  4  1  0
 13 14  2  0
 15 16  1  0
 15 13  1  0
 16 17  1  1
 17 18  1  0
 19 16  1  0
 20 19  2  0
 21 19  1  0
 22 21  1  0
 22 23  1  6
 24 23  1  0
 25 24  2  0
 26 25  1  0
 27 26  2  0
 27 28  1  0
 28 29  2  0
 29 24  1  0
 30 32  1  0
 30 22  1  0
 31 30  2  0
M  END
$$$$
