WCF.pdb
     RDKit          3D

 32 34  0  0  1  0  0  0  0  0999 V2000
   28.6288  -21.6161  -10.8628 N   0  0  0  0  0  0  0  0  0  0  0  0
   27.3600  -21.0863  -10.4296 C   0  0  1  0  0  0  0  0  0  0  0  0
   27.5974  -19.8946   -9.5240 C   0  0  0  0  0  0  0  0  0  0  0  0
   28.5285  -20.1828   -8.4133 C   0  0  0  0  0  0  0  0  0  0  0  0
   29.8715  -20.4567   -8.5430 C   0  0  0  0  0  0  0  0  0  0  0  0
   30.4022  -20.7065   -7.3241 N   0  0  0  0  0  0  0  0  0  0  0  0
   29.4395  -20.6031   -6.3935 C   0  0  0  0  0  0  0  0  0  0  0  0
   29.4513  -20.7507   -5.0317 C   0  0  0  0  0  0  0  0  0  0  0  0
   28.3231  -20.5867   -4.2551 C   0  0  0  0  0  0  0  0  0  0  0  0
   27.1680  -20.2619   -4.9286 C   0  0  0  0  0  0  0  0  0  0  0  0
   27.1236  -20.1044   -6.3183 C   0  0  0  0  0  0  0  0  0  0  0  0
   28.2708  -20.2785   -7.0496 C   0  0  0  0  0  0  0  0  0  0  0  0
   26.5382  -20.7192  -11.6053 C   0  0  0  0  0  0  0  0  0  0  0  0
   26.9154  -19.8593  -12.4457 O   0  0  0  0  0  0  0  0  0  0  0  0
   25.2592  -21.3261  -11.8576 N   0  0  0  0  0  0  0  0  0  0  0  0
   24.5145  -21.0842  -13.0800 C   0  0  1  0  0  0  0  0  0  0  0  0
   25.2861  -21.6607  -14.2792 C   0  0  0  0  0  0  0  0  0  0  0  0
   25.7417  -23.3614  -13.8427 S   0  0  0  0  0  0  0  0  0  0  0  0
   23.2145  -21.7831  -13.0840 C   0  0  0  0  0  0  0  0  0  0  0  0
   23.0804  -22.7932  -12.3371 O   0  0  0  0  0  0  0  0  0  0  0  0
   22.0996  -21.3966  -13.8698 N   0  0  0  0  0  0  0  0  0  0  0  0
   20.8639  -20.9536  -13.2035 C   0  0  1  0  0  0  0  0  0  0  0  0
   21.2118  -19.6694  -12.4828 C   0  0  0  0  0  0  0  0  0  0  0  0
   20.0798  -19.0525  -11.7660 C   0  0  0  0  0  0  0  0  0  0  0  0
   19.4382  -17.9929  -12.4228 C   0  0  0  0  0  0  0  0  0  0  0  0
   18.3743  -17.3801  -11.8056 C   0  0  0  0  0  0  0  0  0  0  0  0
   17.9587  -17.8118  -10.5637 C   0  0  0  0  0  0  0  0  0  0  0  0
   18.5932  -18.8522   -9.9253 C   0  0  0  0  0  0  0  0  0  0  0  0
   19.6528  -19.4655  -10.5354 C   0  0  0  0  0  0  0  0  0  0  0  0
   19.7807  -20.7022  -14.1689 C   0  0  0  0  0  0  0  0  0  0  0  0
   18.6118  -21.1127  -13.9459 O   0  0  0  0  0  0  0  0  0  0  0  0
   19.9820  -20.0156  -15.3461 O   0  0  0  0  0  0  0  0  0  0  0  0
  2  1  1  6
  2 13  1  0
  2  3  1  0
  4  3  1  0
  4  5  2  0
  6  5  1  0
  7  6  1  0
  8  7  2  0
  9  8  1  0
 10  9  2  0
 10 11  1  0
 11 12  2  0
 12  7  1  0
 12  4  1  0
 13 14  2  0
 15 16  1  0
 15 13  1  0
 16 17  1  6
 17 18  1  0
 19 16  1  0
 20 19  2  0
 21 19  1  0
 22 21  1  0
 22 23  1  6
 24 23  1  0
 25 24  2  0
 26 25  1  0
 27 26  2  0
 27 28  1  0
 28 29  2  0
 29 24  1  0
 30 32  1  0
 30 22  1  0
 31 30  2  0
M  END
$$$$
