WCF.pdb
     RDKit          3D

 32 34  0  0  1  0  0  0  0  0999 V2000
   30.1101  -29.4422  -17.3506 N   0  0  0  0  0  0  0  0  0  0  0  0
   29.6807  -28.4678  -18.3223 C   0  0  1  0  0  0  0  0  0  0  0  0
   28.7511  -29.1302  -19.3192 C   0  0  0  0  0  0  0  0  0  0  0  0
   28.3284  -28.2281  -20.4106 C   0  0  0  0  0  0  0  0  0  0  0  0
   29.1713  -27.5354  -21.2505 C   0  0  0  0  0  0  0  0  0  0  0  0
   28.4407  -26.7820  -22.1040 N   0  0  0  0  0  0  0  0  0  0  0  0
   27.1352  -26.9626  -21.8462 C   0  0  0  0  0  0  0  0  0  0  0  0
   26.0010  -26.4477  -22.4164 C   0  0  0  0  0  0  0  0  0  0  0  0
   24.7337  -26.7850  -21.9889 C   0  0  0  0  0  0  0  0  0  0  0  0
   24.6661  -27.6788  -20.9449 C   0  0  0  0  0  0  0  0  0  0  0  0
   25.8058  -28.2220  -20.3414 C   0  0  0  0  0  0  0  0  0  0  0  0
   27.0456  -27.8563  -20.7998 C   0  0  0  0  0  0  0  0  0  0  0  0
   29.0232  -27.3301  -17.6400 C   0  0  0  0  0  0  0  0  0  0  0  0
   28.3103  -27.4850  -16.6124 O   0  0  0  0  0  0  0  0  0  0  0  0
   29.1621  -25.9785  -18.1110 N   0  0  0  0  0  0  0  0  0  0  0  0
   28.5857  -24.8489  -17.4045 C   0  0  1  0  0  0  0  0  0  0  0  0
   29.5275  -23.6374  -17.5090 C   0  0  0  0  0  0  0  0  0  0  0  0
   30.9795  -24.0105  -16.4876 S   0  0  0  0  0  0  0  0  0  0  0  0
   27.3157  -24.4054  -18.0120 C   0  0  0  0  0  0  0  0  0  0  0  0
   27.2498  -24.3418  -19.2721 O   0  0  0  0  0  0  0  0  0  0  0  0
   26.1582  -24.0462  -17.2764 N   0  0  0  0  0  0  0  0  0  0  0  0
   24.9605  -23.5808  -17.9945 C   0  0  1  0  0  0  0  0  0  0  0  0
   23.8422  -23.5557  -16.9756 C   0  0  0  0  0  0  0  0  0  0  0  0
   22.5261  -23.1879  -17.5309 C   0  0  0  0  0  0  0  0  0  0  0  0
   22.1453  -21.8473  -17.3774 C   0  0  0  0  0  0  0  0  0  0  0  0
   20.9304  -21.4441  -17.8773 C   0  0  0  0  0  0  0  0  0  0  0  0
   20.1138  -22.3538  -18.5150 C   0  0  0  0  0  0  0  0  0  0  0  0
   20.4941  -23.6677  -18.6620 C   0  0  0  0  0  0  0  0  0  0  0  0
   21.7025  -24.0742  -18.1660 C   0  0  0  0  0  0  0  0  0  0  0  0
   25.1482  -22.2331  -18.5574 C   0  0  0  0  0  0  0  0  0  0  0  0
   25.9174  -21.4053  -18.0026 O   0  0  0  0  0  0  0  0  0  0  0  0
   24.5065  -21.8120  -19.7014 O   0  0  0  0  0  0  0  0  0  0  0  0
  2  1  1  1
  2 13  1  0
  2  3  1  0
  4  3  1  0
  4  5  2  0
  6  5  1  0
  7  6  1  0
  8  7  2  0
  9  8  1  0
 10  9  2  0
 10 11  1  0
 11 12  2  0
 12  7  1  0
 12  4  1  0
 13 14  2  0
 15 16  1  0
 15 13  1  0
 16 17  1  6
 17 18  1  0
 19 16  1  0
 20 19  2  0
 21 19  1  0
 22 21  1  0
 22 23  1  1
 24 23  1  0
 25 24  2  0
 26 25  1  0
 27 26  2  0
 27 28  1  0
 28 29  2  0
 29 24  1  0
 30 32  1  0
 30 22  1  0
 31 30  2  0
M  END
$$$$
