WCF.pdb
     RDKit          3D

 32 34  0  0  1  0  0  0  0  0999 V2000
   25.0097  -20.2557  -17.6934 N   0  0  0  0  0  0  0  0  0  0  0  0
   25.2564  -19.4227  -16.5431 C   0  0  1  0  0  0  0  0  0  0  0  0
   23.9387  -18.8866  -16.0207 C   0  0  0  0  0  0  0  0  0  0  0  0
   23.4227  -17.7443  -16.8033 C   0  0  0  0  0  0  0  0  0  0  0  0
   22.6434  -17.8339  -17.9347 C   0  0  0  0  0  0  0  0  0  0  0  0
   22.3870  -16.5926  -18.4071 N   0  0  0  0  0  0  0  0  0  0  0  0
   22.9793  -15.6864  -17.6124 C   0  0  0  0  0  0  0  0  0  0  0  0
   23.0232  -14.3176  -17.6446 C   0  0  0  0  0  0  0  0  0  0  0  0
   23.6991  -13.5718  -16.7014 C   0  0  0  0  0  0  0  0  0  0  0  0
   24.3364  -14.2840  -15.7114 C   0  0  0  0  0  0  0  0  0  0  0  0
   24.3104  -15.6818  -15.6513 C   0  0  0  0  0  0  0  0  0  0  0  0
   23.6259  -16.3814  -16.6121 C   0  0  0  0  0  0  0  0  0  0  0  0
   25.9776  -20.1949  -15.5058 C   0  0  0  0  0  0  0  0  0  0  0  0
   25.6975  -21.3961  -15.2474 O   0  0  0  0  0  0  0  0  0  0  0  0
   27.0437  -19.6175  -14.7325 N   0  0  0  0  0  0  0  0  0  0  0  0
   27.5747  -20.2601  -13.5441 C   0  0  1  0  0  0  0  0  0  0  0  0
   28.9483  -19.6594  -13.2004 C   0  0  0  0  0  0  0  0  0  0  0  0
   29.9761  -19.8126  -14.6873 S   0  0  0  0  0  0  0  0  0  0  0  0
   26.7345  -20.0093  -12.3567 C   0  0  0  0  0  0  0  0  0  0  0  0
   26.2751  -18.8445  -12.1890 O   0  0  0  0  0  0  0  0  0  0  0  0
   26.4038  -20.9900  -11.3878 N   0  0  0  0  0  0  0  0  0  0  0  0
   25.5749  -20.6131  -10.2311 C   0  0  1  0  0  0  0  0  0  0  0  0
   24.2559  -21.3335  -10.4061 C   0  0  0  0  0  0  0  0  0  0  0  0
   23.4036  -20.7833  -11.4769 C   0  0  0  0  0  0  0  0  0  0  0  0
   22.5505  -19.7337  -11.1075 C   0  0  0  0  0  0  0  0  0  0  0  0
   21.7344  -19.1780  -12.0632 C   0  0  0  0  0  0  0  0  0  0  0  0
   21.7664  -19.6557  -13.3563 C   0  0  0  0  0  0  0  0  0  0  0  0
   22.6061  -20.6860  -13.7114 C   0  0  0  0  0  0  0  0  0  0  0  0
   23.4205  -21.2427  -12.7637 C   0  0  0  0  0  0  0  0  0  0  0  0
   26.1950  -21.0169   -8.9579 C   0  0  0  0  0  0  0  0  0  0  0  0
   27.2506  -21.7025   -8.9451 O   0  0  0  0  0  0  0  0  0  0  0  0
   25.6654  -20.6720   -7.7338 O   0  0  0  0  0  0  0  0  0  0  0  0
  2  1  1  6
  2 13  1  0
  2  3  1  0
  4  3  1  0
  4  5  2  0
  6  5  1  0
  7  6  1  0
  8  7  2  0
  9  8  1  0
 10  9  2  0
 10 11  1  0
 11 12  2  0
 12  7  1  0
 12  4  1  0
 13 14  2  0
 15 16  1  0
 15 13  1  0
 16 17  1  1
 17 18  1  0
 19 16  1  0
 20 19  2  0
 21 19  1  0
 22 21  1  0
 22 23  1  6
 24 23  1  0
 25 24  2  0
 26 25  1  0
 27 26  2  0
 27 28  1  0
 28 29  2  0
 29 24  1  0
 30 32  1  0
 30 22  1  0
 31 30  2  0
M  END
$$$$
