LIQ.pdb
     RDKit          3D

 26 25  0  0  1  0  0  0  0  0999 V2000
   20.0420  -17.2183  -19.1223 C   0  0  0  0  0  0  0  0  0  0  0  0
   21.1602  -16.2022  -19.3503 C   0  0  1  0  0  0  0  0  0  0  0  0
   20.8201  -15.4293  -20.5915 C   0  0  0  0  0  0  0  0  0  0  0  0
   21.3785  -15.3491  -18.1308 C   0  0  0  0  0  0  0  0  0  0  0  0
   22.4523  -14.3387  -18.4449 C   0  0  2  0  0  0  0  0  0  0  0  0
   23.6629  -15.0143  -18.7875 N   0  0  0  0  0  0  0  0  0  0  0  0
   22.7034  -13.4229  -17.3026 C   0  0  0  0  0  0  0  0  0  0  0  0
   21.7811  -13.2670  -16.4668 O   0  0  0  0  0  0  0  0  0  0  0  0
   27.5227  -13.3337  -15.0004 C   0  0  0  0  0  0  0  0  0  0  0  0
   26.0216  -13.2101  -15.1533 C   0  0  0  0  0  0  0  0  0  0  0  0
   25.6622  -11.8387  -15.7436 C   0  0  2  0  0  0  0  0  0  0  0  0
   26.0963  -10.8209  -14.7148 C   0  0  0  0  0  0  0  0  0  0  0  0
   24.2102  -11.7864  -16.0958 C   0  0  2  0  0  0  0  0  0  0  0  0
   23.9489  -12.7585  -17.1805 N   0  0  0  0  0  0  0  0  0  0  0  0
   23.7343  -10.4576  -16.5251 C   0  0  0  0  0  0  0  0  0  0  0  0
   24.2737   -9.8830  -17.5363 O   0  0  0  0  0  0  0  0  0  0  0  0
   18.4570   -8.6597  -17.9435 N   0  0  0  0  0  0  0  0  0  0  0  0
   19.0352   -7.3655  -17.9606 C   0  0  0  0  0  0  0  0  0  0  0  0
   18.4443   -6.3854  -18.4566 O   0  0  0  0  0  0  0  0  0  0  0  0
   20.4115   -7.1846  -17.3549 C   0  0  0  0  0  0  0  0  0  0  0  0
   20.9005   -8.5345  -16.9393 C   0  0  0  0  0  0  0  0  0  0  0  0
   22.2542   -8.4513  -16.3032 C   0  0  2  0  0  0  0  0  0  0  0  0
   22.6906   -9.7861  -15.8642 N   0  0  0  0  0  0  0  0  0  0  0  0
   22.2060   -7.5514  -15.1469 C   0  0  0  0  0  0  0  0  0  0  0  0
   22.4292   -6.3048  -15.1973 O   0  0  0  0  0  0  0  0  0  0  0  0
   21.8883   -8.1089  -13.8902 O   0  0  0  0  0  0  0  0  0  0  0  0
  2  3  1  6
  2  1  1  0
  4  2  1  0
  4  5  1  0
  5  6  1  1
  7  5  1  0
  7  8  2  0
  9 10  1  0
 10 11  1  0
 11 13  1  0
 11 12  1  1
 13 14  1  6
 14  7  1  0
 15 16  2  0
 15 13  1  0
 17 18  1  0
 18 19  2  0
 20 18  1  0
 20 21  1  0
 22 21  1  1
 22 24  1  0
 22 23  1  0
 23 15  1  0
 24 26  1  0
 25 24  2  0
M  END
$$$$
