LIQ.pdb
     RDKit          3D

 26 25  0  0  1  0  0  0  0  0999 V2000
   22.9435  -17.5201  -18.5017 C   0  0  0  0  0  0  0  0  0  0  0  0
   24.1642  -18.0777  -17.7711 C   0  0  1  0  0  0  0  0  0  0  0  0
   24.8507  -16.9255  -17.0968 C   0  0  0  0  0  0  0  0  0  0  0  0
   23.7796  -19.1974  -16.8431 C   0  0  0  0  0  0  0  0  0  0  0  0
   25.0137  -19.6434  -16.1010 C   0  0  2  0  0  0  0  0  0  0  0  0
   25.9180  -20.2754  -17.0077 N   0  0  0  0  0  0  0  0  0  0  0  0
   24.6877  -20.5795  -14.9948 C   0  0  0  0  0  0  0  0  0  0  0  0
   24.5350  -21.7910  -15.2822 O   0  0  0  0  0  0  0  0  0  0  0  0
   27.5756  -20.5178  -10.7340 C   0  0  0  0  0  0  0  0  0  0  0  0
   26.6261  -21.0035  -11.8085 C   0  0  0  0  0  0  0  0  0  0  0  0
   25.1752  -20.6987  -11.4081 C   0  0  2  0  0  0  0  0  0  0  0  0
   24.9185  -21.4966  -10.1511 C   0  0  0  0  0  0  0  0  0  0  0  0
   24.2465  -21.0043  -12.5391 C   0  0  2  0  0  0  0  0  0  0  0  0
   24.5583  -20.0996  -13.6678 N   0  0  0  0  0  0  0  0  0  0  0  0
   22.8155  -20.8713  -12.2060 C   0  0  0  0  0  0  0  0  0  0  0  0
   22.3278  -19.7165  -11.9373 O   0  0  0  0  0  0  0  0  0  0  0  0
   19.9555  -22.9653   -7.6094 N   0  0  0  0  0  0  0  0  0  0  0  0
   19.2042  -22.7251   -8.7873 C   0  0  0  0  0  0  0  0  0  0  0  0
   18.4161  -23.5732   -9.2516 O   0  0  0  0  0  0  0  0  0  0  0  0
   19.3750  -21.3947   -9.4905 C   0  0  0  0  0  0  0  0  0  0  0  0
   20.7123  -21.4078  -10.1580 C   0  0  0  0  0  0  0  0  0  0  0  0
   20.6072  -21.8691  -11.5793 C   0  0  2  0  0  0  0  0  0  0  0  0
   21.9471  -21.9769  -12.1775 N   0  0  0  0  0  0  0  0  0  0  0  0
   19.8050  -20.9169  -12.3532 C   0  0  0  0  0  0  0  0  0  0  0  0
   20.0778  -19.6858  -12.4816 O   0  0  0  0  0  0  0  0  0  0  0  0
   18.6497  -21.4021  -13.0020 O   0  0  0  0  0  0  0  0  0  0  0  0
  2  3  1  1
  2  1  1  0
  4  2  1  0
  4  5  1  0
  5  6  1  6
  7  5  1  0
  7  8  2  0
  9 10  1  0
 10 11  1  0
 11 13  1  0
 11 12  1  1
 13 14  1  6
 14  7  1  0
 15 16  2  0
 15 13  1  0
 17 18  1  0
 18 19  2  0
 20 18  1  0
 20 21  1  0
 22 21  1  1
 22 24  1  0
 22 23  1  0
 23 15  1  0
 24 26  1  0
 25 24  2  0
M  END
$$$$
