LIQ.pdb
     RDKit          3D

 26 25  0  0  1  0  0  0  0  0999 V2000
   29.4935  -19.7704  -12.2007 C   0  0  0  0  0  0  0  0  0  0  0  0
   28.3845  -20.8213  -12.2202 C   0  0  1  0  0  0  0  0  0  0  0  0
   28.7047  -21.8336  -11.1590 C   0  0  0  0  0  0  0  0  0  0  0  0
   27.0285  -20.1855  -12.0795 C   0  0  0  0  0  0  0  0  0  0  0  0
   25.9855  -21.2715  -12.1542 C   0  0  2  0  0  0  0  0  0  0  0  0
   26.1852  -22.0497  -13.3348 N   0  0  0  0  0  0  0  0  0  0  0  0
   24.6072  -20.7176  -12.1544 C   0  0  0  0  0  0  0  0  0  0  0  0
   24.2879  -19.9481  -11.2165 O   0  0  0  0  0  0  0  0  0  0  0  0
   23.4667  -18.4043  -16.1730 C   0  0  0  0  0  0  0  0  0  0  0  0
   23.0767  -18.6085  -14.7245 C   0  0  0  0  0  0  0  0  0  0  0  0
   22.1604  -19.8337  -14.5922 C   0  0  2  0  0  0  0  0  0  0  0  0
   20.7611  -19.3328  -14.8641 C   0  0  0  0  0  0  0  0  0  0  0  0
   22.3410  -20.4786  -13.2555 C   0  0  2  0  0  0  0  0  0  0  0  0
   23.7003  -21.0596  -13.1880 N   0  0  0  0  0  0  0  0  0  0  0  0
   21.3579  -21.5354  -12.9505 C   0  0  0  0  0  0  0  0  0  0  0  0
   21.2943  -22.5803  -13.6907 O   0  0  0  0  0  0  0  0  0  0  0  0
   19.5463  -23.4801   -7.7873 N   0  0  0  0  0  0  0  0  0  0  0  0
   18.4573  -24.0771   -8.4707 C   0  0  0  0  0  0  0  0  0  0  0  0
   17.8048  -25.0186   -7.9771 O   0  0  0  0  0  0  0  0  0  0  0  0
   18.0881  -23.5445   -9.8396 C   0  0  0  0  0  0  0  0  0  0  0  0
   19.0387  -22.4370  -10.1622 C   0  0  0  0  0  0  0  0  0  0  0  0
   19.5041  -22.5156  -11.5838 C   0  0  2  0  0  0  0  0  0  0  0  0
   20.4768  -21.4463  -11.8583 N   0  0  0  0  0  0  0  0  0  0  0  0
   18.3603  -22.3759  -12.4901 C   0  0  0  0  0  0  0  0  0  0  0  0
   17.8018  -21.2749  -12.7773 O   0  0  0  0  0  0  0  0  0  0  0  0
   17.8444  -23.5463  -13.0860 O   0  0  0  0  0  0  0  0  0  0  0  0
  2  3  1  1
  2  1  1  0
  4  2  1  0
  4  5  1  0
  5  6  1  6
  7  5  1  0
  7  8  2  0
  9 10  1  0
 10 11  1  0
 11 13  1  0
 11 12  1  1
 13 14  1  6
 14  7  1  0
 15 16  2  0
 15 13  1  0
 17 18  1  0
 18 19  2  0
 20 18  1  0
 20 21  1  0
 22 21  1  1
 22 24  1  0
 22 23  1  0
 23 15  1  0
 24 26  1  0
 25 24  2  0
M  END
$$$$
