LIQ.pdb
     RDKit          3D

 26 25  0  0  1  0  0  0  0  0999 V2000
   27.7660  -17.5024  -17.4488 C   0  0  0  0  0  0  0  0  0  0  0  0
   28.2792  -18.4745  -16.3874 C   0  0  1  0  0  0  0  0  0  0  0  0
   29.0318  -17.6709  -15.3671 C   0  0  0  0  0  0  0  0  0  0  0  0
   27.1590  -19.3022  -15.8192 C   0  0  0  0  0  0  0  0  0  0  0  0
   27.7271  -20.1969  -14.7470 C   0  0  2  0  0  0  0  0  0  0  0  0
   28.6157  -21.1477  -15.3351 N   0  0  0  0  0  0  0  0  0  0  0  0
   26.6615  -20.9125  -13.9996 C   0  0  0  0  0  0  0  0  0  0  0  0
   26.3247  -22.0492  -14.4094 O   0  0  0  0  0  0  0  0  0  0  0  0
   26.5696  -20.7171   -8.6604 C   0  0  0  0  0  0  0  0  0  0  0  0
   26.3473  -21.2495  -10.0601 C   0  0  0  0  0  0  0  0  0  0  0  0
   25.0887  -20.6169  -10.6719 C   0  0  2  0  0  0  0  0  0  0  0  0
   23.9357  -21.0790   -9.8117 C   0  0  0  0  0  0  0  0  0  0  0  0
   24.9713  -20.9812  -12.1171 C   0  0  2  0  0  0  0  0  0  0  0  0
   26.0593  -20.3134  -12.8654 N   0  0  0  0  0  0  0  0  0  0  0  0
   23.6806  -20.6206  -12.7339 C   0  0  0  0  0  0  0  0  0  0  0  0
   23.3333  -19.3890  -12.8126 O   0  0  0  0  0  0  0  0  0  0  0  0
   20.9740  -23.1357  -17.4309 N   0  0  0  0  0  0  0  0  0  0  0  0
   19.8119  -22.4794  -16.9529 C   0  0  0  0  0  0  0  0  0  0  0  0
   18.7784  -22.3808  -17.6442 O   0  0  0  0  0  0  0  0  0  0  0  0
   19.8427  -21.8861  -15.5598 C   0  0  0  0  0  0  0  0  0  0  0  0
   21.1859  -22.1821  -14.9748 C   0  0  0  0  0  0  0  0  0  0  0  0
   21.5463  -21.1924  -13.9098 C   0  0  2  0  0  0  0  0  0  0  0  0
   22.8031  -21.5879  -13.2549 N   0  0  0  0  0  0  0  0  0  0  0  0
   20.4769  -21.1270  -12.9091 C   0  0  0  0  0  0  0  0  0  0  0  0
   20.4309  -21.8366  -11.8599 O   0  0  0  0  0  0  0  0  0  0  0  0
   19.4259  -20.2109  -13.1261 O   0  0  0  0  0  0  0  0  0  0  0  0
  2  3  1  1
  2  1  1  0
  4  2  1  0
  4  5  1  0
  5  6  1  6
  7  5  1  0
  7  8  2  0
  9 10  1  0
 10 11  1  0
 11 13  1  0
 11 12  1  1
 13 14  1  6
 14  7  1  0
 15 16  2  0
 15 13  1  0
 17 18  1  0
 18 19  2  0
 20 18  1  0
 20 21  1  0
 22 21  1  6
 22 24  1  0
 22 23  1  0
 23 15  1  0
 24 26  1  0
 25 24  2  0
M  END
$$$$
