LIQ.pdb
     RDKit          3D

 26 25  0  0  1  0  0  0  0  0999 V2000
   25.6020  -25.6794  -18.9420 C   0  0  0  0  0  0  0  0  0  0  0  0
   26.7400  -24.6881  -18.7033 C   0  0  1  0  0  0  0  0  0  0  0  0
   26.8400  -23.8157  -19.9209 C   0  0  0  0  0  0  0  0  0  0  0  0
   26.5452  -23.9340  -17.4164 C   0  0  0  0  0  0  0  0  0  0  0  0
   27.7342  -23.0300  -17.2118 C   0  0  2  0  0  0  0  0  0  0  0  0
   28.8783  -23.8113  -16.8656 N   0  0  0  0  0  0  0  0  0  0  0  0
   27.4865  -22.0192  -16.1519 C   0  0  0  0  0  0  0  0  0  0  0  0
   27.7578  -22.3364  -14.9690 O   0  0  0  0  0  0  0  0  0  0  0  0
   28.4509  -16.9471  -17.3835 C   0  0  0  0  0  0  0  0  0  0  0  0
   28.3328  -18.1631  -16.4893 C   0  0  0  0  0  0  0  0  0  0  0  0
   26.8707  -18.3675  -16.0666 C   0  0  2  0  0  0  0  0  0  0  0  0
   26.5428  -17.2145  -15.1468 C   0  0  0  0  0  0  0  0  0  0  0  0
   26.6879  -19.7204  -15.4571 C   0  0  2  0  0  0  0  0  0  0  0  0
   26.9613  -20.7467  -16.4875 N   0  0  0  0  0  0  0  0  0  0  0  0
   25.3454  -19.9593  -14.8942 C   0  0  0  0  0  0  0  0  0  0  0  0
   24.3452  -20.1261  -15.6788 O   0  0  0  0  0  0  0  0  0  0  0  0
   23.8720  -20.5005   -8.8463 N   0  0  0  0  0  0  0  0  0  0  0  0
   22.5910  -20.7156   -9.4140 C   0  0  0  0  0  0  0  0  0  0  0  0
   21.5884  -20.9503   -8.7101 O   0  0  0  0  0  0  0  0  0  0  0  0
   22.4529  -20.6551  -10.9210 C   0  0  0  0  0  0  0  0  0  0  0  0
   23.8006  -20.3366  -11.4834 C   0  0  0  0  0  0  0  0  0  0  0  0
   23.7621  -20.2583  -12.9788 C   0  0  2  0  0  0  0  0  0  0  0  0
   25.1139  -20.0199  -13.5086 N   0  0  0  0  0  0  0  0  0  0  0  0
   22.8771  -19.1669  -13.3971 C   0  0  0  0  0  0  0  0  0  0  0  0
   23.2175  -17.9472  -13.4518 O   0  0  0  0  0  0  0  0  0  0  0  0
   21.5551  -19.4944  -13.7658 O   0  0  0  0  0  0  0  0  0  0  0  0
  2  3  1  6
  2  1  1  0
  4  2  1  0
  4  5  1  0
  5  6  1  1
  7  5  1  0
  7  8  2  0
  9 10  1  0
 10 11  1  0
 11 13  1  0
 11 12  1  1
 13 14  1  6
 14  7  1  0
 15 16  2  0
 15 13  1  0
 17 18  1  0
 18 19  2  0
 20 18  1  0
 20 21  1  0
 22 21  1  1
 22 24  1  0
 22 23  1  0
 23 15  1  0
 24 26  1  0
 25 24  2  0
M  END
$$$$
