LIQ.pdb
     RDKit          3D

 26 25  0  0  1  0  0  0  0  0999 V2000
   26.7514  -25.1004  -16.1362 C   0  0  0  0  0  0  0  0  0  0  0  0
   26.5231  -23.6360  -16.5079 C   0  0  1  0  0  0  0  0  0  0  0  0
   26.1845  -23.5899  -17.9697 C   0  0  0  0  0  0  0  0  0  0  0  0
   25.4933  -23.0009  -15.6141 C   0  0  0  0  0  0  0  0  0  0  0  0
   25.3566  -21.5510  -16.0037 C   0  0  2  0  0  0  0  0  0  0  0  0
   26.5774  -20.8624  -15.7301 N   0  0  0  0  0  0  0  0  0  0  0  0
   24.2413  -20.8857  -15.2827 C   0  0  0  0  0  0  0  0  0  0  0  0
   24.4344  -20.5547  -14.0883 O   0  0  0  0  0  0  0  0  0  0  0  0
   22.6757  -16.5576  -16.9288 C   0  0  0  0  0  0  0  0  0  0  0  0
   22.8555  -17.7172  -15.9724 C   0  0  0  0  0  0  0  0  0  0  0  0
   21.6401  -18.6532  -16.0431 C   0  0  2  0  0  0  0  0  0  0  0  0
   20.4683  -17.8460  -15.5349 C   0  0  0  0  0  0  0  0  0  0  0  0
   21.9054  -19.9116  -15.2808 C   0  0  2  0  0  0  0  0  0  0  0  0
   23.0099  -20.6429  -15.9404 N   0  0  0  0  0  0  0  0  0  0  0  0
   20.7423  -20.8119  -15.1663 C   0  0  0  0  0  0  0  0  0  0  0  0
   20.2057  -21.2985  -16.2241 O   0  0  0  0  0  0  0  0  0  0  0  0
   19.1441  -24.1893  -10.2841 N   0  0  0  0  0  0  0  0  0  0  0  0
   17.9895  -24.4249  -11.0721 C   0  0  0  0  0  0  0  0  0  0  0  0
   17.0825  -25.1959  -10.6995 O   0  0  0  0  0  0  0  0  0  0  0  0
   17.8691  -23.7119  -12.4029 C   0  0  0  0  0  0  0  0  0  0  0  0
   19.1024  -22.8871  -12.5839 C   0  0  0  0  0  0  0  0  0  0  0  0
   19.0361  -22.0772  -13.8423 C   0  0  2  0  0  0  0  0  0  0  0  0
   20.1923  -21.1708  -13.9230 N   0  0  0  0  0  0  0  0  0  0  0  0
   17.7995  -21.2899  -13.8624 C   0  0  0  0  0  0  0  0  0  0  0  0
   17.6753  -20.1347  -13.3557 O   0  0  0  0  0  0  0  0  0  0  0  0
   16.6685  -21.8543  -14.4895 O   0  0  0  0  0  0  0  0  0  0  0  0
  2  3  1  6
  2  1  1  0
  4  2  1  0
  4  5  1  0
  5  6  1  1
  7  5  1  0
  7  8  2  0
  9 10  1  0
 10 11  1  0
 11 13  1  0
 11 12  1  1
 13 14  1  6
 14  7  1  0
 15 16  2  0
 15 13  1  0
 17 18  1  0
 18 19  2  0
 20 18  1  0
 20 21  1  0
 22 21  1  1
 22 24  1  0
 22 23  1  0
 23 15  1  0
 24 26  1  0
 25 24  2  0
M  END
$$$$
