WKN.pdb
     RDKit          3D

 32 33  0  0  1  0  0  0  0  0999 V2000
    6.1486  -17.8478   25.5036 N   0  0  0  0  0  0  0  0  0  0  0  0
    6.8467  -16.6754   25.0304 C   0  0  1  0  0  0  0  0  0  0  0  0
    7.9933  -16.3094   25.9374 C   0  0  0  0  0  0  0  0  0  0  0  0
    7.8313  -15.1508   26.7780 C   0  0  0  0  0  0  0  0  0  0  0  0
    8.1866  -15.1007   28.1342 C   0  0  0  0  0  0  0  0  0  0  0  0
    7.9305  -13.8790   28.6027 N   0  0  0  0  0  0  0  0  0  0  0  0
    7.4205  -13.1177   27.6220 C   0  0  0  0  0  0  0  0  0  0  0  0
    7.0148  -11.8053   27.6648 C   0  0  0  0  0  0  0  0  0  0  0  0
    6.5129  -11.2319   26.5156 C   0  0  0  0  0  0  0  0  0  0  0  0
    6.4336  -11.9859   25.3644 C   0  0  0  0  0  0  0  0  0  0  0  0
    6.8430  -13.2852   25.3460 C   0  0  0  0  0  0  0  0  0  0  0  0
    7.3532  -13.9097   26.4657 C   0  0  0  0  0  0  0  0  0  0  0  0
    7.2895  -16.7287   23.6437 C   0  0  0  0  0  0  0  0  0  0  0  0
    7.4701  -17.7955   23.0019 O   0  0  0  0  0  0  0  0  0  0  0  0
    7.5574  -15.5158   22.8833 N   0  0  0  0  0  0  0  0  0  0  0  0
    7.9955  -15.5074   21.5249 C   0  0  1  0  0  0  0  0  0  0  0  0
    7.7506  -14.3057   20.7047 C   0  0  0  0  0  0  0  0  0  0  0  0
    8.1831  -14.3050   19.3006 C   0  0  0  0  0  0  0  0  0  0  0  0
    7.7680  -13.1445   18.4567 C   0  0  0  0  0  0  0  0  0  0  0  0
    8.3174  -13.3541   17.0258 C   0  0  0  0  0  0  0  0  0  0  0  0
    7.5612  -14.4194   16.4139 N   0  0  0  0  0  0  0  0  0  0  0  0
    9.4953  -15.7671   21.5833 C   0  0  0  0  0  0  0  0  0  0  0  0
   10.2988  -14.9672   22.1150 O   0  0  0  0  0  0  0  0  0  0  0  0
   10.9492  -18.3595   23.3504 N   0  0  0  0  0  0  0  0  0  0  0  0
   11.3530  -19.2361   22.2949 C   0  0  0  0  0  0  0  0  0  0  0  0
   11.3867  -20.4644   22.5384 O   0  0  0  0  0  0  0  0  0  0  0  0
   11.7067  -18.6717   20.9775 C   0  0  0  0  0  0  0  0  0  0  0  0
   11.5030  -17.1658   21.0360 C   0  0  2  0  0  0  0  0  0  0  0  0
   10.0581  -16.9455   21.0315 N   0  0  0  0  0  0  0  0  0  0  0  0
   12.1486  -16.4700   19.9018 C   0  0  0  0  0  0  0  0  0  0  0  0
   11.4782  -16.1635   18.8847 O   0  0  0  0  0  0  0  0  0  0  0  0
   13.4956  -16.1242   19.8961 O   0  0  0  0  0  0  0  0  0  0  0  0
  2  3  1  0
  2  1  1  1
  3  4  1  0
  4  5  2  0
  6  5  1  0
  7  6  1  0
  8  7  2  0
  9  8  1  0
 10  9  2  0
 10 11  1  0
 11 12  2  0
 12  7  1  0
 12  4  1  0
 13  2  1  0
 13 14  2  0
 15 13  1  0
 16 22  1  0
 16 15  1  0
 16 17  1  1
 18 17  1  0
 19 18  1  0
 20 21  1  0
 20 19  1  0
 22 29  1  0
 23 22  2  0
 24 25  1  0
 25 26  2  0
 27 25  1  0
 28 27  1  6
 28 30  1  0
 29 28  1  0
 30 31  2  0
 30 32  1  0
M  END
$$$$
