WKN.pdb
     RDKit          3D

 32 33  0  0  1  0  0  0  0  0999 V2000
    6.1269  -17.0568   23.9384 N   0  0  0  0  0  0  0  0  0  0  0  0
    6.9580  -15.9415   23.5495 C   0  0  1  0  0  0  0  0  0  0  0  0
    7.9294  -15.5676   24.6394 C   0  0  0  0  0  0  0  0  0  0  0  0
    7.4100  -14.8462   25.7729 C   0  0  0  0  0  0  0  0  0  0  0  0
    6.9765  -15.4482   26.9635 C   0  0  0  0  0  0  0  0  0  0  0  0
    6.5837  -14.4963   27.8104 N   0  0  0  0  0  0  0  0  0  0  0  0
    6.7342  -13.2922   27.2368 C   0  0  0  0  0  0  0  0  0  0  0  0
    6.4520  -12.0474   27.7464 C   0  0  0  0  0  0  0  0  0  0  0  0
    6.6890  -10.9420   26.9570 C   0  0  0  0  0  0  0  0  0  0  0  0
    7.1993  -11.1156   25.6883 C   0  0  0  0  0  0  0  0  0  0  0  0
    7.4721  -12.3599   25.2051 C   0  0  0  0  0  0  0  0  0  0  0  0
    7.2550  -13.5005   25.9506 C   0  0  0  0  0  0  0  0  0  0  0  0
    7.6513  -16.0924   22.2772 C   0  0  0  0  0  0  0  0  0  0  0  0
    7.6734  -17.1577   21.6085 O   0  0  0  0  0  0  0  0  0  0  0  0
    8.3839  -14.9875   21.6742 N   0  0  0  0  0  0  0  0  0  0  0  0
    9.0001  -15.0477   20.3882 C   0  0  1  0  0  0  0  0  0  0  0  0
    9.2201  -13.7928   19.6440 C   0  0  0  0  0  0  0  0  0  0  0  0
    8.3611  -13.4920   18.4907 C   0  0  0  0  0  0  0  0  0  0  0  0
    7.9017  -14.6452   17.6598 C   0  0  0  0  0  0  0  0  0  0  0  0
    6.9939  -14.1069   16.5286 C   0  0  0  0  0  0  0  0  0  0  0  0
    7.8356  -13.4362   15.5680 N   0  0  0  0  0  0  0  0  0  0  0  0
   10.3440  -15.7275   20.6163 C   0  0  0  0  0  0  0  0  0  0  0  0
   11.0588  -16.1428   19.6757 O   0  0  0  0  0  0  0  0  0  0  0  0
   13.4688  -15.4398   20.3399 N   0  0  0  0  0  0  0  0  0  0  0  0
   13.8526  -15.2150   21.6992 C   0  0  0  0  0  0  0  0  0  0  0  0
   14.8412  -14.4756   21.9108 O   0  0  0  0  0  0  0  0  0  0  0  0
   13.0807  -15.8493   22.7859 C   0  0  0  0  0  0  0  0  0  0  0  0
   12.0331  -16.7554   22.1580 C   0  0  2  0  0  0  0  0  0  0  0  0
   10.8553  -15.9221   21.9242 N   0  0  0  0  0  0  0  0  0  0  0  0
   11.7026  -17.9097   23.0215 C   0  0  0  0  0  0  0  0  0  0  0  0
   10.5594  -18.0094   23.5324 O   0  0  0  0  0  0  0  0  0  0  0  0
   12.6114  -18.9224   23.3088 O   0  0  0  0  0  0  0  0  0  0  0  0
  2  3  1  0
  2  1  1  1
  3  4  1  0
  4  5  2  0
  6  5  1  0
  7  6  1  0
  8  7  2  0
  9  8  1  0
 10  9  2  0
 10 11  1  0
 11 12  2  0
 12  7  1  0
 12  4  1  0
 13  2  1  0
 13 14  2  0
 15 13  1  0
 16 22  1  0
 16 15  1  0
 16 17  1  1
 18 17  1  0
 19 18  1  0
 20 21  1  0
 20 19  1  0
 22 29  1  0
 23 22  2  0
 24 25  1  0
 25 26  2  0
 27 25  1  0
 28 27  1  1
 28 30  1  0
 29 28  1  0
 30 31  2  0
 30 32  1  0
M  END
$$$$
