WKN.pdb
     RDKit          3D

 32 33  0  0  1  0  0  0  0  0999 V2000
    6.2102  -17.9602   24.2767 N   0  0  0  0  0  0  0  0  0  0  0  0
    6.7054  -16.6425   23.9536 C   0  0  1  0  0  0  0  0  0  0  0  0
    7.7287  -16.1739   24.9558 C   0  0  0  0  0  0  0  0  0  0  0  0
    7.3117  -15.1870   25.9187 C   0  0  0  0  0  0  0  0  0  0  0  0
    6.7218  -15.4874   27.1556 C   0  0  0  0  0  0  0  0  0  0  0  0
    6.4850  -14.3493   27.8086 N   0  0  0  0  0  0  0  0  0  0  0  0
    6.8879  -13.3089   27.0624 C   0  0  0  0  0  0  0  0  0  0  0  0
    6.8298  -11.9651   27.3446 C   0  0  0  0  0  0  0  0  0  0  0  0
    7.3075  -11.0730   26.4081 C   0  0  0  0  0  0  0  0  0  0  0  0
    7.8266  -11.5509   25.2240 C   0  0  0  0  0  0  0  0  0  0  0  0
    7.8745  -12.8880   24.9670 C   0  0  0  0  0  0  0  0  0  0  0  0
    7.4114  -13.8254   25.8674 C   0  0  0  0  0  0  0  0  0  0  0  0
    7.2079  -16.4791   22.5961 C   0  0  0  0  0  0  0  0  0  0  0  0
    7.6788  -17.4161   21.9012 O   0  0  0  0  0  0  0  0  0  0  0  0
    7.1956  -15.1835   21.9311 N   0  0  0  0  0  0  0  0  0  0  0  0
    7.7554  -14.9453   20.6399 C   0  0  1  0  0  0  0  0  0  0  0  0
    7.4869  -13.6566   19.9735 C   0  0  0  0  0  0  0  0  0  0  0  0
    8.1265  -13.3799   18.6802 C   0  0  0  0  0  0  0  0  0  0  0  0
    7.8140  -14.3049   17.5498 C   0  0  0  0  0  0  0  0  0  0  0  0
    8.6347  -13.8673   16.3135 C   0  0  0  0  0  0  0  0  0  0  0  0
    8.3003  -14.7531   15.2251 N   0  0  0  0  0  0  0  0  0  0  0  0
    9.2598  -15.1047   20.8168 C   0  0  0  0  0  0  0  0  0  0  0  0
    9.8684  -14.6883   21.8290 O   0  0  0  0  0  0  0  0  0  0  0  0
   12.5966  -19.3107   21.6712 N   0  0  0  0  0  0  0  0  0  0  0  0
   12.4556  -17.8884   21.6217 C   0  0  0  0  0  0  0  0  0  0  0  0
   13.4650  -17.1935   21.8811 O   0  0  0  0  0  0  0  0  0  0  0  0
   11.1484  -17.3001   21.2693 C   0  0  0  0  0  0  0  0  0  0  0  0
   11.3675  -16.2900   20.1537 C   0  0  2  0  0  0  0  0  0  0  0  0
   10.0514  -15.7435   19.8292 N   0  0  0  0  0  0  0  0  0  0  0  0
   11.9961  -16.9007   18.9624 C   0  0  0  0  0  0  0  0  0  0  0  0
   11.2959  -17.5326   18.1327 O   0  0  0  0  0  0  0  0  0  0  0  0
   13.3587  -16.8127   18.6989 O   0  0  0  0  0  0  0  0  0  0  0  0
  2  3  1  0
  2  1  1  1
  3  4  1  0
  4  5  2  0
  6  5  1  0
  7  6  1  0
  8  7  2  0
  9  8  1  0
 10  9  2  0
 10 11  1  0
 11 12  2  0
 12  7  1  0
 12  4  1  0
 13  2  1  0
 13 14  2  0
 15 13  1  0
 16 22  1  0
 16 15  1  0
 16 17  1  1
 18 17  1  0
 19 18  1  0
 20 21  1  0
 20 19  1  0
 22 29  1  0
 23 22  2  0
 24 25  1  0
 25 26  2  0
 27 25  1  0
 28 27  1  1
 28 30  1  0
 29 28  1  0
 30 31  2  0
 30 32  1  0
M  END
$$$$
