WKN.pdb
     RDKit          3D

 32 33  0  0  1  0  0  0  0  0999 V2000
    6.6278  -17.8310   24.8855 N   0  0  0  0  0  0  0  0  0  0  0  0
    7.0832  -16.5679   24.3534 C   0  0  1  0  0  0  0  0  0  0  0  0
    8.3324  -16.0915   25.0490 C   0  0  0  0  0  0  0  0  0  0  0  0
    8.1717  -15.1734   26.1473 C   0  0  0  0  0  0  0  0  0  0  0  0
    8.3686  -15.5091   27.4951 C   0  0  0  0  0  0  0  0  0  0  0  0
    8.1637  -14.4254   28.2443 N   0  0  0  0  0  0  0  0  0  0  0  0
    7.8382  -13.3880   27.4573 C   0  0  0  0  0  0  0  0  0  0  0  0
    7.5427  -12.0925   27.8080 C   0  0  0  0  0  0  0  0  0  0  0  0
    7.2292  -11.1939   26.8103 C   0  0  0  0  0  0  0  0  0  0  0  0
    7.2218  -11.6173   25.4986 C   0  0  0  0  0  0  0  0  0  0  0  0
    7.5191  -12.9069   25.1751 C   0  0  0  0  0  0  0  0  0  0  0  0
    7.8401  -13.8482   26.1317 C   0  0  0  0  0  0  0  0  0  0  0  0
    7.2557  -16.5246   22.9075 C   0  0  0  0  0  0  0  0  0  0  0  0
    7.3210  -17.5448   22.1745 O   0  0  0  0  0  0  0  0  0  0  0  0
    7.3638  -15.2608   22.1917 N   0  0  0  0  0  0  0  0  0  0  0  0
    7.4743  -15.1559   20.7726 C   0  0  1  0  0  0  0  0  0  0  0  0
    7.1451  -13.8715   20.1254 C   0  0  0  0  0  0  0  0  0  0  0  0
    7.1637  -13.7910   18.6585 C   0  0  0  0  0  0  0  0  0  0  0  0
    8.2916  -13.0418   18.0280 C   0  0  0  0  0  0  0  0  0  0  0  0
    8.4926  -13.5730   16.5889 C   0  0  0  0  0  0  0  0  0  0  0  0
    7.1884  -13.7902   16.0120 N   0  0  0  0  0  0  0  0  0  0  0  0
    8.9203  -15.5125   20.4532 C   0  0  0  0  0  0  0  0  0  0  0  0
    9.2967  -15.8412   19.3050 O   0  0  0  0  0  0  0  0  0  0  0  0
   14.4352  -14.1878   21.1473 N   0  0  0  0  0  0  0  0  0  0  0  0
   13.5817  -15.1637   21.7513 C   0  0  0  0  0  0  0  0  0  0  0  0
   14.0877  -16.2656   22.0656 O   0  0  0  0  0  0  0  0  0  0  0  0
   12.1597  -14.8415   21.9817 C   0  0  0  0  0  0  0  0  0  0  0  0
   11.3164  -15.7859   21.1393 C   0  0  2  0  0  0  0  0  0  0  0  0
    9.9215  -15.4859   21.4566 N   0  0  0  0  0  0  0  0  0  0  0  0
   11.6279  -17.2060   21.4105 C   0  0  0  0  0  0  0  0  0  0  0  0
   12.2959  -17.8752   20.5835 O   0  0  0  0  0  0  0  0  0  0  0  0
   11.2121  -17.8634   22.5632 O   0  0  0  0  0  0  0  0  0  0  0  0
  2  3  1  0
  2  1  1  1
  3  4  1  0
  4  5  2  0
  6  5  1  0
  7  6  1  0
  8  7  2  0
  9  8  1  0
 10  9  2  0
 10 11  1  0
 11 12  2  0
 12  7  1  0
 12  4  1  0
 13  2  1  0
 13 14  2  0
 15 13  1  0
 16 22  1  0
 16 15  1  0
 16 17  1  1
 18 17  1  0
 19 18  1  0
 20 21  1  0
 20 19  1  0
 22 29  1  0
 23 22  2  0
 24 25  1  0
 25 26  2  0
 27 25  1  0
 28 27  1  1
 28 30  1  0
 29 28  1  0
 30 31  2  0
 30 32  1  0
M  END
$$$$
