WKN.pdb
     RDKit          3D

 32 33  0  0  1  0  0  0  0  0999 V2000
    6.2584  -18.0025   24.5965 N   0  0  0  0  0  0  0  0  0  0  0  0
    6.7319  -16.6936   24.2109 C   0  0  1  0  0  0  0  0  0  0  0  0
    7.5365  -16.0492   25.3103 C   0  0  0  0  0  0  0  0  0  0  0  0
    6.8933  -15.0223   26.0893 C   0  0  0  0  0  0  0  0  0  0  0  0
    5.8649  -15.2573   27.0140 C   0  0  0  0  0  0  0  0  0  0  0  0
    5.5167  -14.0993   27.5759 N   0  0  0  0  0  0  0  0  0  0  0  0
    6.2640  -13.1079   27.0658 C   0  0  0  0  0  0  0  0  0  0  0  0
    6.2371  -11.7646   27.3552 C   0  0  0  0  0  0  0  0  0  0  0  0
    7.1088  -10.9287   26.6900 C   0  0  0  0  0  0  0  0  0  0  0  0
    7.9769  -11.4605   25.7607 C   0  0  0  0  0  0  0  0  0  0  0  0
    7.9858  -12.7959   25.4912 C   0  0  0  0  0  0  0  0  0  0  0  0
    7.1364  -13.6784   26.1265 C   0  0  0  0  0  0  0  0  0  0  0  0
    7.4560  -16.6379   22.9481 C   0  0  0  0  0  0  0  0  0  0  0  0
    8.1311  -17.5906   22.4800 O   0  0  0  0  0  0  0  0  0  0  0  0
    7.4444  -15.4423   22.1165 N   0  0  0  0  0  0  0  0  0  0  0  0
    8.1430  -15.3270   20.8773 C   0  0  1  0  0  0  0  0  0  0  0  0
    8.0000  -14.0864   20.0915 C   0  0  0  0  0  0  0  0  0  0  0  0
    8.6924  -13.9809   18.8000 C   0  0  0  0  0  0  0  0  0  0  0  0
    7.8462  -13.8063   17.5815 C   0  0  0  0  0  0  0  0  0  0  0  0
    8.7705  -13.7620   16.3417 C   0  0  0  0  0  0  0  0  0  0  0  0
    7.9334  -13.7416   15.1670 N   0  0  0  0  0  0  0  0  0  0  0  0
    9.6132  -15.5246   21.2232 C   0  0  0  0  0  0  0  0  0  0  0  0
   10.2460  -14.7329   21.9588 O   0  0  0  0  0  0  0  0  0  0  0  0
   11.0870  -19.7565   22.8257 N   0  0  0  0  0  0  0  0  0  0  0  0
   11.8700  -18.6033   22.5056 C   0  0  0  0  0  0  0  0  0  0  0  0
   12.3583  -17.9486   23.4552 O   0  0  0  0  0  0  0  0  0  0  0  0
   12.0741  -18.2341   21.0909 C   0  0  0  0  0  0  0  0  0  0  0  0
   11.7830  -16.7490   20.9412 C   0  0  2  0  0  0  0  0  0  0  0  0
   10.3427  -16.6320   20.7220 N   0  0  0  0  0  0  0  0  0  0  0  0
   12.5399  -16.1408   19.8256 C   0  0  0  0  0  0  0  0  0  0  0  0
   13.7907  -16.0446   19.8892 O   0  0  0  0  0  0  0  0  0  0  0  0
   11.9286  -15.6549   18.6748 O   0  0  0  0  0  0  0  0  0  0  0  0
  2  3  1  0
  2  1  1  1
  3  4  1  0
  4  5  2  0
  6  5  1  0
  7  6  1  0
  8  7  2  0
  9  8  1  0
 10  9  2  0
 10 11  1  0
 11 12  2  0
 12  7  1  0
 12  4  1  0
 13  2  1  0
 13 14  2  0
 15 13  1  0
 16 22  1  0
 16 15  1  0
 16 17  1  1
 18 17  1  0
 19 18  1  0
 20 21  1  0
 20 19  1  0
 22 29  1  0
 23 22  2  0
 24 25  1  0
 25 26  2  0
 27 25  1  0
 28 27  1  6
 28 30  1  0
 29 28  1  0
 30 31  2  0
 30 32  1  0
M  END
$$$$
