WKN.pdb
     RDKit          3D

 32 33  0  0  1  0  0  0  0  0999 V2000
    6.7641  -18.0872   24.6902 N   0  0  0  0  0  0  0  0  0  0  0  0
    7.0485  -16.7532   24.2156 C   0  0  1  0  0  0  0  0  0  0  0  0
    7.7304  -15.9226   25.2722 C   0  0  0  0  0  0  0  0  0  0  0  0
    6.9213  -14.9779   25.9988 C   0  0  0  0  0  0  0  0  0  0  0  0
    5.7720  -15.3162   26.7286 C   0  0  0  0  0  0  0  0  0  0  0  0
    5.2818  -14.2144   27.2972 N   0  0  0  0  0  0  0  0  0  0  0  0
    6.0504  -13.1616   26.9772 C   0  0  0  0  0  0  0  0  0  0  0  0
    5.9111  -11.8436   27.3409 C   0  0  0  0  0  0  0  0  0  0  0  0
    6.8348  -10.9303   26.8786 C   0  0  0  0  0  0  0  0  0  0  0  0
    7.8649  -11.3622   26.0710 C   0  0  0  0  0  0  0  0  0  0  0  0
    7.9830  -12.6745   25.7244 C   0  0  0  0  0  0  0  0  0  0  0  0
    7.0883  -13.6313   26.1580 C   0  0  0  0  0  0  0  0  0  0  0  0
    7.7795  -16.6798   22.9577 C   0  0  0  0  0  0  0  0  0  0  0  0
    8.4464  -17.6302   22.4735 O   0  0  0  0  0  0  0  0  0  0  0  0
    7.7852  -15.4676   22.1505 N   0  0  0  0  0  0  0  0  0  0  0  0
    8.3911  -15.3712   20.8618 C   0  0  1  0  0  0  0  0  0  0  0  0
    8.1415  -14.1679   20.0453 C   0  0  0  0  0  0  0  0  0  0  0  0
    8.6658  -14.1201   18.6737 C   0  0  0  0  0  0  0  0  0  0  0  0
    7.8260  -13.4393   17.6429 C   0  0  0  0  0  0  0  0  0  0  0  0
    8.4550  -13.6886   16.2516 C   0  0  0  0  0  0  0  0  0  0  0  0
    7.7040  -12.9263   15.2842 N   0  0  0  0  0  0  0  0  0  0  0  0
    9.8887  -15.4966   21.1100 C   0  0  0  0  0  0  0  0  0  0  0  0
   10.4780  -14.8650   22.0166 O   0  0  0  0  0  0  0  0  0  0  0  0
   14.6383  -17.8118   21.5490 N   0  0  0  0  0  0  0  0  0  0  0  0
   13.3595  -18.3854   21.2644 C   0  0  0  0  0  0  0  0  0  0  0  0
   12.9746  -19.3365   21.9828 O   0  0  0  0  0  0  0  0  0  0  0  0
   12.5510  -17.8429   20.1548 C   0  0  0  0  0  0  0  0  0  0  0  0
   12.1414  -16.4235   20.5156 C   0  0  2  0  0  0  0  0  0  0  0  0
   10.6956  -16.3488   20.3146 N   0  0  0  0  0  0  0  0  0  0  0  0
   12.8433  -15.4133   19.6946 C   0  0  0  0  0  0  0  0  0  0  0  0
   13.9227  -14.9119   20.0965 O   0  0  0  0  0  0  0  0  0  0  0  0
   12.3636  -14.9732   18.4657 O   0  0  0  0  0  0  0  0  0  0  0  0
  2  3  1  0
  2  1  1  1
  3  4  1  0
  4  5  2  0
  6  5  1  0
  7  6  1  0
  8  7  2  0
  9  8  1  0
 10  9  2  0
 10 11  1  0
 11 12  2  0
 12  7  1  0
 12  4  1  0
 13  2  1  0
 13 14  2  0
 15 13  1  0
 16 22  1  0
 16 15  1  0
 16 17  1  1
 18 17  1  0
 19 18  1  0
 20 21  1  0
 20 19  1  0
 22 29  1  0
 23 22  2  0
 24 25  1  0
 25 26  2  0
 27 25  1  0
 28 27  1  6
 28 30  1  0
 29 28  1  0
 30 31  2  0
 30 32  1  0
M  END
$$$$
