WKN.pdb
     RDKit          3D

 32 33  0  0  1  0  0  0  0  0999 V2000
    5.8218  -17.1857   25.2562 N   0  0  0  0  0  0  0  0  0  0  0  0
    6.7038  -16.1443   24.7834 C   0  0  1  0  0  0  0  0  0  0  0  0
    7.9068  -15.9885   25.6777 C   0  0  0  0  0  0  0  0  0  0  0  0
    7.9178  -14.8716   26.5873 C   0  0  0  0  0  0  0  0  0  0  0  0
    8.5715  -14.8679   27.8286 C   0  0  0  0  0  0  0  0  0  0  0  0
    8.4049  -13.6751   28.4006 N   0  0  0  0  0  0  0  0  0  0  0  0
    7.6699  -12.8889   27.5984 C   0  0  0  0  0  0  0  0  0  0  0  0
    7.2588  -11.5923   27.7946 C   0  0  0  0  0  0  0  0  0  0  0  0
    6.4972  -10.9866   26.8177 C   0  0  0  0  0  0  0  0  0  0  0  0
    6.1726  -11.6936   25.6799 C   0  0  0  0  0  0  0  0  0  0  0  0
    6.5926  -12.9781   25.5073 C   0  0  0  0  0  0  0  0  0  0  0  0
    7.3567  -13.6334   26.4510 C   0  0  0  0  0  0  0  0  0  0  0  0
    7.1143  -16.2577   23.3903 C   0  0  0  0  0  0  0  0  0  0  0  0
    7.2015  -17.3471   22.7675 O   0  0  0  0  0  0  0  0  0  0  0  0
    7.4580  -15.0833   22.6005 N   0  0  0  0  0  0  0  0  0  0  0  0
    7.9320  -15.1386   21.2553 C   0  0  1  0  0  0  0  0  0  0  0  0
    7.9960  -13.8909   20.4705 C   0  0  0  0  0  0  0  0  0  0  0  0
    8.6915  -13.9016   19.1764 C   0  0  0  0  0  0  0  0  0  0  0  0
    7.8660  -14.1541   17.9574 C   0  0  0  0  0  0  0  0  0  0  0  0
    8.7942  -14.1301   16.7199 C   0  0  0  0  0  0  0  0  0  0  0  0
    7.9774  -14.3468   15.5507 N   0  0  0  0  0  0  0  0  0  0  0  0
    9.3299  -15.7370   21.3446 C   0  0  0  0  0  0  0  0  0  0  0  0
   10.1726  -15.3606   22.1910 O   0  0  0  0  0  0  0  0  0  0  0  0
   13.4191  -18.6170   20.6468 N   0  0  0  0  0  0  0  0  0  0  0  0
   12.3195  -19.3866   20.1527 C   0  0  0  0  0  0  0  0  0  0  0  0
   12.5397  -20.5766   19.8298 O   0  0  0  0  0  0  0  0  0  0  0  0
   10.9862  -18.7622   20.0457 C   0  0  0  0  0  0  0  0  0  0  0  0
   11.0928  -17.3276   20.5388 C   0  0  2  0  0  0  0  0  0  0  0  0
    9.7462  -16.7646   20.4610 N   0  0  0  0  0  0  0  0  0  0  0  0
   12.0472  -16.5308   19.7379 C   0  0  0  0  0  0  0  0  0  0  0  0
   11.6827  -16.0113   18.6538 O   0  0  0  0  0  0  0  0  0  0  0  0
   13.3649  -16.3161   20.1274 O   0  0  0  0  0  0  0  0  0  0  0  0
  2  3  1  0
  2  1  1  1
  3  4  1  0
  4  5  2  0
  6  5  1  0
  7  6  1  0
  8  7  2  0
  9  8  1  0
 10  9  2  0
 10 11  1  0
 11 12  2  0
 12  7  1  0
 12  4  1  0
 13  2  1  0
 13 14  2  0
 15 13  1  0
 16 22  1  0
 16 15  1  0
 16 17  1  1
 18 17  1  0
 19 18  1  0
 20 21  1  0
 20 19  1  0
 22 29  1  0
 23 22  2  0
 24 25  1  0
 25 26  2  0
 27 25  1  0
 28 27  1  6
 28 30  1  0
 29 28  1  0
 30 31  2  0
 30 32  1  0
M  END
$$$$
