WKN.pdb
     RDKit          3D

 32 33  0  0  1  0  0  0  0  0999 V2000
    7.2538  -17.1692   23.4414 N   0  0  0  0  0  0  0  0  0  0  0  0
    8.2867  -16.2108   23.1242 C   0  0  1  0  0  0  0  0  0  0  0  0
    7.8141  -14.7958   23.3381 C   0  0  0  0  0  0  0  0  0  0  0  0
    7.1556  -14.4968   24.5840 C   0  0  0  0  0  0  0  0  0  0  0  0
    6.3977  -15.4196   25.3202 C   0  0  0  0  0  0  0  0  0  0  0  0
    5.9541  -14.8267   26.4290 N   0  0  0  0  0  0  0  0  0  0  0  0
    6.3802  -13.5543   26.4615 C   0  0  0  0  0  0  0  0  0  0  0  0
    6.1552  -12.5883   27.4128 C   0  0  0  0  0  0  0  0  0  0  0  0
    6.6996  -11.3358   27.2231 C   0  0  0  0  0  0  0  0  0  0  0  0
    7.4494  -11.0901   26.0929 C   0  0  0  0  0  0  0  0  0  0  0  0
    7.6596  -12.0642   25.1638 C   0  0  0  0  0  0  0  0  0  0  0  0
    7.1395  -13.3347   25.3021 C   0  0  0  0  0  0  0  0  0  0  0  0
    9.5656  -16.4278   23.7869 C   0  0  0  0  0  0  0  0  0  0  0  0
    9.7612  -16.2508   25.0169 O   0  0  0  0  0  0  0  0  0  0  0  0
   10.7372  -16.8808   23.0498 N   0  0  0  0  0  0  0  0  0  0  0  0
   11.1269  -18.2491   22.9358 C   0  0  1  0  0  0  0  0  0  0  0  0
   10.1035  -19.2553   22.5934 C   0  0  0  0  0  0  0  0  0  0  0  0
   10.5182  -20.6512   22.3987 C   0  0  0  0  0  0  0  0  0  0  0  0
    9.9859  -21.6641   23.3588 C   0  0  0  0  0  0  0  0  0  0  0  0
   10.4280  -23.0698   22.8878 C   0  0  0  0  0  0  0  0  0  0  0  0
    9.9485  -24.0299   23.8519 N   0  0  0  0  0  0  0  0  0  0  0  0
   12.2155  -18.2710   21.8706 C   0  0  0  0  0  0  0  0  0  0  0  0
   12.6297  -19.3322   21.3504 O   0  0  0  0  0  0  0  0  0  0  0  0
   16.3983  -14.8691   22.3503 N   0  0  0  0  0  0  0  0  0  0  0  0
   15.5967  -15.5661   23.3080 C   0  0  0  0  0  0  0  0  0  0  0  0
   16.1219  -15.8542   24.4080 O   0  0  0  0  0  0  0  0  0  0  0  0
   14.2015  -15.9124   22.9725 C   0  0  0  0  0  0  0  0  0  0  0  0
   14.2135  -16.7645   21.7130 C   0  0  2  0  0  0  0  0  0  0  0  0
   12.8169  -17.0723   21.4111 N   0  0  0  0  0  0  0  0  0  0  0  0
   15.0041  -18.0027   21.8833 C   0  0  0  0  0  0  0  0  0  0  0  0
   15.0277  -18.5893   22.9938 O   0  0  0  0  0  0  0  0  0  0  0  0
   15.7451  -18.5730   20.8539 O   0  0  0  0  0  0  0  0  0  0  0  0
  2  3  1  0
  2  1  1  1
  3  4  1  0
  4  5  2  0
  6  5  1  0
  7  6  1  0
  8  7  2  0
  9  8  1  0
 10  9  2  0
 10 11  1  0
 11 12  2  0
 12  7  1  0
 12  4  1  0
 13  2  1  0
 13 14  2  0
 15 13  1  0
 16 22  1  0
 16 15  1  0
 16 17  1  6
 18 17  1  0
 19 18  1  0
 20 21  1  0
 20 19  1  0
 22 29  1  0
 23 22  2  0
 24 25  1  0
 25 26  2  0
 27 25  1  0
 28 27  1  1
 28 30  1  0
 29 28  1  0
 30 31  2  0
 30 32  1  0
M  END
$$$$
