WKN.pdb
     RDKit          3D

 32 33  0  0  1  0  0  0  0  0999 V2000
    6.3344  -18.1227   24.6282 N   0  0  0  0  0  0  0  0  0  0  0  0
    6.7462  -16.7975   24.2280 C   0  0  1  0  0  0  0  0  0  0  0  0
    7.5742  -16.1286   25.2949 C   0  0  0  0  0  0  0  0  0  0  0  0
    6.9751  -15.0304   26.0093 C   0  0  0  0  0  0  0  0  0  0  0  0
    5.8913  -15.1567   26.8910 C   0  0  0  0  0  0  0  0  0  0  0  0
    5.6058  -13.9572   27.3985 N   0  0  0  0  0  0  0  0  0  0  0  0
    6.4473  -13.0418   26.8933 C   0  0  0  0  0  0  0  0  0  0  0  0
    6.5080  -11.6908   27.1381 C   0  0  0  0  0  0  0  0  0  0  0  0
    7.4690  -10.9450   26.4889 C   0  0  0  0  0  0  0  0  0  0  0  0
    8.3359  -11.5714   25.6194 C   0  0  0  0  0  0  0  0  0  0  0  0
    8.2571  -12.9126   25.3934 C   0  0  0  0  0  0  0  0  0  0  0  0
    7.3161  -13.7075   26.0152 C   0  0  0  0  0  0  0  0  0  0  0  0
    7.4139  -16.7139   22.9360 C   0  0  0  0  0  0  0  0  0  0  0  0
    8.1885  -17.5962   22.4845 O   0  0  0  0  0  0  0  0  0  0  0  0
    7.2216  -15.5721   22.0527 N   0  0  0  0  0  0  0  0  0  0  0  0
    7.9067  -15.3999   20.8124 C   0  0  1  0  0  0  0  0  0  0  0  0
    7.6801  -14.1641   20.0388 C   0  0  0  0  0  0  0  0  0  0  0  0
    8.3668  -13.9976   18.7507 C   0  0  0  0  0  0  0  0  0  0  0  0
    7.5155  -13.9207   17.5257 C   0  0  0  0  0  0  0  0  0  0  0  0
    8.4386  -13.7851   16.2917 C   0  0  0  0  0  0  0  0  0  0  0  0
    7.6053  -13.5275   15.1427 N   0  0  0  0  0  0  0  0  0  0  0  0
    9.3879  -15.5043   21.1520 C   0  0  0  0  0  0  0  0  0  0  0  0
    9.8883  -14.9623   22.1639 O   0  0  0  0  0  0  0  0  0  0  0  0
   13.3658  -18.7397   23.1699 N   0  0  0  0  0  0  0  0  0  0  0  0
   13.0805  -17.7251   22.2031 C   0  0  0  0  0  0  0  0  0  0  0  0
   14.0486  -17.1040   21.7073 O   0  0  0  0  0  0  0  0  0  0  0  0
   11.6789  -17.4531   21.8280 C   0  0  0  0  0  0  0  0  0  0  0  0
   11.6782  -16.4234   20.7089 C   0  0  2  0  0  0  0  0  0  0  0  0
   10.2806  -16.2328   20.3260 N   0  0  0  0  0  0  0  0  0  0  0  0
   12.4905  -16.8557   19.5511 C   0  0  0  0  0  0  0  0  0  0  0  0
   12.2423  -17.9450   18.9768 O   0  0  0  0  0  0  0  0  0  0  0  0
   13.5449  -16.1031   19.0453 O   0  0  0  0  0  0  0  0  0  0  0  0
  2  3  1  0
  2  1  1  1
  3  4  1  0
  4  5  2  0
  6  5  1  0
  7  6  1  0
  8  7  2  0
  9  8  1  0
 10  9  2  0
 10 11  1  0
 11 12  2  0
 12  7  1  0
 12  4  1  0
 13  2  1  0
 13 14  2  0
 15 13  1  0
 16 22  1  0
 16 15  1  0
 16 17  1  1
 18 17  1  0
 19 18  1  0
 20 21  1  0
 20 19  1  0
 22 29  1  0
 23 22  2  0
 24 25  1  0
 25 26  2  0
 27 25  1  0
 28 27  1  1
 28 30  1  0
 29 28  1  0
 30 31  2  0
 30 32  1  0
M  END
$$$$
