WKN.pdb
     RDKit          3D

 32 33  0  0  1  0  0  0  0  0999 V2000
    6.2311  -18.0831   24.4527 N   0  0  0  0  0  0  0  0  0  0  0  0
    6.7799  -16.8462   23.9479 C   0  0  1  0  0  0  0  0  0  0  0  0
    7.7863  -16.2563   24.9021 C   0  0  0  0  0  0  0  0  0  0  0  0
    7.3211  -15.2447   25.8161 C   0  0  0  0  0  0  0  0  0  0  0  0
    6.4262  -15.4812   26.8702 C   0  0  0  0  0  0  0  0  0  0  0  0
    6.2283  -14.3410   27.5324 N   0  0  0  0  0  0  0  0  0  0  0  0
    6.9477  -13.3597   26.9659 C   0  0  0  0  0  0  0  0  0  0  0  0
    7.0380  -12.0349   27.3204 C   0  0  0  0  0  0  0  0  0  0  0  0
    7.8493  -11.2061   26.5748 C   0  0  0  0  0  0  0  0  0  0  0  0
    8.5425  -11.7262   25.5029 C   0  0  0  0  0  0  0  0  0  0  0  0
    8.4378  -13.0435   25.1711 C   0  0  0  0  0  0  0  0  0  0  0  0
    7.6416  -13.9182   25.8817 C   0  0  0  0  0  0  0  0  0  0  0  0
    7.3301  -16.9103   22.6006 C   0  0  0  0  0  0  0  0  0  0  0  0
    7.6827  -17.9762   22.0332 O   0  0  0  0  0  0  0  0  0  0  0  0
    7.5112  -15.7107   21.7948 N   0  0  0  0  0  0  0  0  0  0  0  0
    7.9893  -15.7189   20.4500 C   0  0  1  0  0  0  0  0  0  0  0  0
    7.6958  -14.5621   19.5824 C   0  0  0  0  0  0  0  0  0  0  0  0
    8.1568  -14.5864   18.1877 C   0  0  0  0  0  0  0  0  0  0  0  0
    7.8036  -13.4161   17.3292 C   0  0  0  0  0  0  0  0  0  0  0  0
    8.2441  -13.7191   15.8774 C   0  0  0  0  0  0  0  0  0  0  0  0
    8.0941  -12.5079   15.1083 N   0  0  0  0  0  0  0  0  0  0  0  0
    9.4998  -15.8819   20.5599 C   0  0  0  0  0  0  0  0  0  0  0  0
   10.2463  -15.9489   19.5567 O   0  0  0  0  0  0  0  0  0  0  0  0
   14.3180  -14.4197   22.3800 N   0  0  0  0  0  0  0  0  0  0  0  0
   13.4615  -15.1950   23.2231 C   0  0  0  0  0  0  0  0  0  0  0  0
   13.9998  -15.9252   24.0868 O   0  0  0  0  0  0  0  0  0  0  0  0
   11.9982  -15.1059   23.0502 C   0  0  0  0  0  0  0  0  0  0  0  0
   11.5944  -16.0493   21.9278 C   0  0  2  0  0  0  0  0  0  0  0  0
   10.1391  -15.9645   21.8226 N   0  0  0  0  0  0  0  0  0  0  0  0
   12.0270  -17.4401   22.1839 C   0  0  0  0  0  0  0  0  0  0  0  0
   13.1190  -17.8569   21.7236 O   0  0  0  0  0  0  0  0  0  0  0  0
   11.2724  -18.3408   22.9278 O   0  0  0  0  0  0  0  0  0  0  0  0
  2  3  1  0
  2  1  1  1
  3  4  1  0
  4  5  2  0
  6  5  1  0
  7  6  1  0
  8  7  2  0
  9  8  1  0
 10  9  2  0
 10 11  1  0
 11 12  2  0
 12  7  1  0
 12  4  1  0
 13  2  1  0
 13 14  2  0
 15 13  1  0
 16 22  1  0
 16 15  1  0
 16 17  1  1
 18 17  1  0
 19 18  1  0
 20 21  1  0
 20 19  1  0
 22 29  1  0
 23 22  2  0
 24 25  1  0
 25 26  2  0
 27 25  1  0
 28 27  1  1
 28 30  1  0
 29 28  1  0
 30 31  2  0
 30 32  1  0
M  END
$$$$
