WKN.pdb
     RDKit          3D

 32 33  0  0  1  0  0  0  0  0999 V2000
    6.6185  -17.6391   24.3453 N   0  0  0  0  0  0  0  0  0  0  0  0
    7.0016  -16.3220   23.8931 C   0  0  1  0  0  0  0  0  0  0  0  0
    8.0843  -15.7318   24.7594 C   0  0  0  0  0  0  0  0  0  0  0  0
    7.6720  -14.9603   25.9040 C   0  0  0  0  0  0  0  0  0  0  0  0
    7.5463  -15.4758   27.2026 C   0  0  0  0  0  0  0  0  0  0  0  0
    7.1734  -14.4930   28.0229 N   0  0  0  0  0  0  0  0  0  0  0  0
    7.0440  -13.3513   27.3293 C   0  0  0  0  0  0  0  0  0  0  0  0
    6.6770  -12.1035   27.7733 C   0  0  0  0  0  0  0  0  0  0  0  0
    6.6084  -11.0721   26.8608 C   0  0  0  0  0  0  0  0  0  0  0  0
    6.9083  -11.3199   25.5385 C   0  0  0  0  0  0  0  0  0  0  0  0
    7.2707  -12.5655   25.1219 C   0  0  0  0  0  0  0  0  0  0  0  0
    7.3561  -13.6339   25.9908 C   0  0  0  0  0  0  0  0  0  0  0  0
    7.3644  -16.2255   22.4855 C   0  0  0  0  0  0  0  0  0  0  0  0
    7.5598  -17.2183   21.7382 O   0  0  0  0  0  0  0  0  0  0  0  0
    7.5266  -14.9359   21.8284 N   0  0  0  0  0  0  0  0  0  0  0  0
    7.9608  -14.7789   20.4778 C   0  0  1  0  0  0  0  0  0  0  0  0
    7.9103  -13.4379   19.8645 C   0  0  0  0  0  0  0  0  0  0  0  0
    8.5244  -13.2378   18.5449 C   0  0  0  0  0  0  0  0  0  0  0  0
    8.2681  -14.2793   17.5053 C   0  0  0  0  0  0  0  0  0  0  0  0
    8.0226  -13.5735   16.1506 C   0  0  0  0  0  0  0  0  0  0  0  0
    7.8274  -14.5939   15.1498 N   0  0  0  0  0  0  0  0  0  0  0  0
    9.4001  -15.2769   20.4564 C   0  0  0  0  0  0  0  0  0  0  0  0
   10.0241  -15.4925   19.3922 O   0  0  0  0  0  0  0  0  0  0  0  0
   14.4817  -15.2496   22.4276 N   0  0  0  0  0  0  0  0  0  0  0  0
   13.4847  -16.0736   23.0379 C   0  0  0  0  0  0  0  0  0  0  0  0
   13.8604  -17.1396   23.5777 O   0  0  0  0  0  0  0  0  0  0  0  0
   12.0727  -15.6437   23.0132 C   0  0  0  0  0  0  0  0  0  0  0  0
   11.5058  -15.9548   21.6367 C   0  0  2  0  0  0  0  0  0  0  0  0
   10.1102  -15.5209   21.6589 N   0  0  0  0  0  0  0  0  0  0  0  0
   11.6088  -17.3915   21.3015 C   0  0  0  0  0  0  0  0  0  0  0  0
   12.5614  -17.8090   20.5970 O   0  0  0  0  0  0  0  0  0  0  0  0
   10.6845  -18.3360   21.7344 O   0  0  0  0  0  0  0  0  0  0  0  0
  2  3  1  0
  2  1  1  1
  3  4  1  0
  4  5  2  0
  6  5  1  0
  7  6  1  0
  8  7  2  0
  9  8  1  0
 10  9  2  0
 10 11  1  0
 11 12  2  0
 12  7  1  0
 12  4  1  0
 13  2  1  0
 13 14  2  0
 15 13  1  0
 16 22  1  0
 16 15  1  0
 16 17  1  1
 18 17  1  0
 19 18  1  0
 20 21  1  0
 20 19  1  0
 22 29  1  0
 23 22  2  0
 24 25  1  0
 25 26  2  0
 27 25  1  0
 28 27  1  1
 28 30  1  0
 29 28  1  0
 30 31  2  0
 30 32  1  0
M  END
$$$$
