QCA.pdb
     RDKit          3D

 21 20  0  0  1  0  0  0  0  0999 V2000
   17.7326  -12.3002  -19.7724 N   0  0  0  0  0  0  0  0  0  0  0  0
   18.9915  -12.9044  -19.5368 C   0  0  0  0  0  0  0  0  0  0  0  0
   19.4525  -13.7366  -20.3474 O   0  0  0  0  0  0  0  0  0  0  0  0
   19.8108  -12.5853  -18.3378 C   0  0  0  0  0  0  0  0  0  0  0  0
   19.1296  -11.6241  -17.4275 C   0  0  0  0  0  0  0  0  0  0  0  0
   19.7905  -10.2648  -17.5229 C   0  0  2  0  0  0  0  0  0  0  0  0
   21.1738  -10.3278  -17.1213 N   0  0  0  0  0  0  0  0  0  0  0  0
   19.0938   -9.2270  -16.7434 C   0  0  0  0  0  0  0  0  0  0  0  0
   17.8782   -9.0033  -16.9570 O   0  0  0  0  0  0  0  0  0  0  0  0
   19.7823   -8.4887  -15.7662 N   0  0  0  0  0  0  0  0  0  0  0  0
   19.1891   -7.3999  -15.0108 C   0  0  1  0  0  0  0  0  0  0  0  0
   19.7055   -7.4974  -13.5921 C   0  0  0  0  0  0  0  0  0  0  0  0
   18.5678   -8.4295  -12.5445 S   0  0  0  0  0  0  0  0  0  0  0  0
   19.5631   -6.1292  -15.6501 C   0  0  0  0  0  0  0  0  0  0  0  0
   20.7677   -5.8040  -15.7637 O   0  0  0  0  0  0  0  0  0  0  0  0
   17.7094   -3.5507  -17.5989 C   0  0  0  0  0  0  0  0  0  0  0  0
   18.9291   -4.0349  -16.8340 C   0  0  2  0  0  0  0  0  0  0  0  0
   18.5673   -5.2563  -16.1456 N   0  0  0  0  0  0  0  0  0  0  0  0
   19.3207   -2.9971  -15.8537 C   0  0  0  0  0  0  0  0  0  0  0  0
   19.7718   -1.9028  -16.2494 O   0  0  0  0  0  0  0  0  0  0  0  0
   19.1954   -3.2179  -14.4965 O   0  0  0  0  0  0  0  0  0  0  0  0
  2  1  1  0
  2  3  2  0
  4  5  1  0
  4  2  1  0
  6  8  1  0
  6  5  1  0
  6  7  1  1
  8 10  1  0
  9  8  2  0
 10 11  1  0
 11 14  1  0
 12 13  1  0
 11 12  1  1
 14 15  2  0
 14 18  1  0
 17 16  1  1
 17 19  1  0
 18 17  1  0
 19 21  1  0
 20 19  2  0
M  END
$$$$
