QCA.pdb
     RDKit          3D

 21 20  0  0  1  0  0  0  0  0999 V2000
   25.7392  -32.1923  -11.6200 N   0  0  0  0  0  0  0  0  0  0  0  0
   24.8936  -33.3244  -11.7124 C   0  0  0  0  0  0  0  0  0  0  0  0
   24.4469  -33.6884  -12.8215 O   0  0  0  0  0  0  0  0  0  0  0  0
   24.5029  -34.1202  -10.5187 C   0  0  0  0  0  0  0  0  0  0  0  0
   25.0654  -33.5616   -9.2585 C   0  0  0  0  0  0  0  0  0  0  0  0
   26.5392  -33.8950   -9.1578 C   0  0  2  0  0  0  0  0  0  0  0  0
   26.7519  -35.3209   -9.1432 N   0  0  0  0  0  0  0  0  0  0  0  0
   27.1918  -33.2835   -7.9872 C   0  0  0  0  0  0  0  0  0  0  0  0
   26.8930  -32.1120   -7.6530 O   0  0  0  0  0  0  0  0  0  0  0  0
   28.1447  -34.0032   -7.2469 N   0  0  0  0  0  0  0  0  0  0  0  0
   28.7800  -33.4987   -6.0429 C   0  0  1  0  0  0  0  0  0  0  0  0
   27.6987  -33.3187   -5.0002 C   0  0  0  0  0  0  0  0  0  0  0  0
   26.9910  -34.9064   -4.5109 S   0  0  0  0  0  0  0  0  0  0  0  0
   29.8055  -34.4629   -5.6163 C   0  0  0  0  0  0  0  0  0  0  0  0
   29.5824  -35.6946   -5.6686 O   0  0  0  0  0  0  0  0  0  0  0  0
   33.3818  -34.2103   -4.5744 C   0  0  0  0  0  0  0  0  0  0  0  0
   32.0629  -34.9545   -4.6932 C   0  0  2  0  0  0  0  0  0  0  0  0
   31.0586  -34.0124   -5.1408 N   0  0  0  0  0  0  0  0  0  0  0  0
   31.6970  -35.4925   -3.3636 C   0  0  0  0  0  0  0  0  0  0  0  0
   32.4032  -36.3723   -2.8300 O   0  0  0  0  0  0  0  0  0  0  0  0
   30.5786  -35.0356   -2.6951 O   0  0  0  0  0  0  0  0  0  0  0  0
  2  1  1  0
  2  3  2  0
  4  5  1  0
  4  2  1  0
  6  8  1  0
  6  5  1  0
  6  7  1  1
  8 10  1  0
  9  8  2  0
 10 11  1  0
 11 14  1  0
 12 13  1  0
 11 12  1  1
 14 15  2  0
 14 18  1  0
 17 16  1  1
 17 19  1  0
 18 17  1  0
 19 21  1  0
 20 19  2  0
M  END
$$$$
