QCA.pdb
     RDKit          3D

 21 20  0  0  1  0  0  0  0  0999 V2000
   37.1858  -31.6881  -19.6974 N   0  0  0  0  0  0  0  0  0  0  0  0
   36.6156  -32.6604  -18.8402 C   0  0  0  0  0  0  0  0  0  0  0  0
   36.9288  -33.8647  -18.9569 O   0  0  0  0  0  0  0  0  0  0  0  0
   35.6356  -32.3041  -17.7803 C   0  0  0  0  0  0  0  0  0  0  0  0
   35.3337  -30.8464  -17.7568 C   0  0  0  0  0  0  0  0  0  0  0  0
   33.8523  -30.6217  -17.9772 C   0  0  2  0  0  0  0  0  0  0  0  0
   33.5476  -29.2164  -18.0818 N   0  0  0  0  0  0  0  0  0  0  0  0
   33.0128  -31.2356  -16.9340 C   0  0  0  0  0  0  0  0  0  0  0  0
   32.7871  -30.6083  -15.8715 O   0  0  0  0  0  0  0  0  0  0  0  0
   32.4666  -32.5163  -17.1225 N   0  0  0  0  0  0  0  0  0  0  0  0
   31.3733  -33.0517  -16.3313 C   0  0  1  0  0  0  0  0  0  0  0  0
   30.1802  -32.1433  -16.5320 C   0  0  0  0  0  0  0  0  0  0  0  0
   28.6825  -32.8653  -15.8276 S   0  0  0  0  0  0  0  0  0  0  0  0
   31.1033  -34.4270  -16.7772 C   0  0  0  0  0  0  0  0  0  0  0  0
   31.0469  -34.7009  -17.9984 O   0  0  0  0  0  0  0  0  0  0  0  0
   30.8984  -37.7213  -15.0305 C   0  0  0  0  0  0  0  0  0  0  0  0
   30.7690  -36.8372  -16.2589 C   0  0  2  0  0  0  0  0  0  0  0  0
   30.9032  -35.4600  -15.8326 N   0  0  0  0  0  0  0  0  0  0  0  0
   29.4354  -37.0532  -16.8640 C   0  0  0  0  0  0  0  0  0  0  0  0
   28.5179  -36.2315  -16.6629 O   0  0  0  0  0  0  0  0  0  0  0  0
   29.1837  -38.1570  -17.6544 O   0  0  0  0  0  0  0  0  0  0  0  0
  2  1  1  0
  2  3  2  0
  4  5  1  0
  4  2  1  0
  6  8  1  0
  6  5  1  0
  6  7  1  1
  8 10  1  0
  9  8  2  0
 10 11  1  0
 11 14  1  0
 12 13  1  0
 11 12  1  6
 14 15  2  0
 14 18  1  0
 17 16  1  1
 17 19  1  0
 18 17  1  0
 19 21  1  0
 20 19  2  0
M  END
$$$$
