QCA.pdb
     RDKit          3D

 21 20  0  0  1  0  0  0  0  0999 V2000
   27.1583  -15.5791  -15.0918 N   0  0  0  0  0  0  0  0  0  0  0  0
   26.8525  -16.5898  -16.0353 C   0  0  0  0  0  0  0  0  0  0  0  0
   26.5661  -16.2862  -17.2134 O   0  0  0  0  0  0  0  0  0  0  0  0
   26.8568  -18.0332  -15.6786 C   0  0  0  0  0  0  0  0  0  0  0  0
   27.2470  -18.2636  -14.2605 C   0  0  0  0  0  0  0  0  0  0  0  0
   27.7590  -19.6785  -14.0885 C   0  0  2  0  0  0  0  0  0  0  0  0
   28.4520  -20.1298  -15.2695 N   0  0  0  0  0  0  0  0  0  0  0  0
   26.6984  -20.6387  -13.7375 C   0  0  0  0  0  0  0  0  0  0  0  0
   26.2402  -21.4051  -14.6185 O   0  0  0  0  0  0  0  0  0  0  0  0
   26.1987  -20.6990  -12.4258 N   0  0  0  0  0  0  0  0  0  0  0  0
   25.1066  -21.5640  -12.0173 C   0  0  1  0  0  0  0  0  0  0  0  0
   25.1556  -21.6760  -10.5094 C   0  0  0  0  0  0  0  0  0  0  0  0
   24.6735  -20.1241   -9.7222 S   0  0  0  0  0  0  0  0  0  0  0  0
   23.8433  -20.9761  -12.4881 C   0  0  0  0  0  0  0  0  0  0  0  0
   23.7081  -19.7327  -12.5615 O   0  0  0  0  0  0  0  0  0  0  0  0
   20.9337  -22.1850  -14.3705 C   0  0  0  0  0  0  0  0  0  0  0  0
   21.5203  -21.2357  -13.3399 C   0  0  2  0  0  0  0  0  0  0  0  0
   22.7629  -21.8069  -12.8645 N   0  0  0  0  0  0  0  0  0  0  0  0
   20.5636  -21.0981  -12.2187 C   0  0  0  0  0  0  0  0  0  0  0  0
   20.8678  -21.5172  -11.0832 O   0  0  0  0  0  0  0  0  0  0  0  0
   19.3288  -20.5093  -12.4060 O   0  0  0  0  0  0  0  0  0  0  0  0
  2  1  1  0
  2  3  2  0
  4  5  1  0
  4  2  1  0
  6  8  1  0
  6  5  1  0
  6  7  1  6
  8 10  1  0
  9  8  2  0
 10 11  1  0
 11 14  1  0
 12 13  1  0
 11 12  1  1
 14 15  2  0
 14 18  1  0
 17 16  1  6
 17 19  1  0
 18 17  1  0
 19 21  1  0
 20 19  2  0
M  END
$$$$
