QCA.pdb
     RDKit          3D

 21 20  0  0  1  0  0  0  0  0999 V2000
   18.5286  -14.7785  -16.1990 N   0  0  0  0  0  0  0  0  0  0  0  0
   17.2192  -14.2417  -16.1480 C   0  0  0  0  0  0  0  0  0  0  0  0
   16.2524  -14.8951  -16.5956 O   0  0  0  0  0  0  0  0  0  0  0  0
   16.9352  -12.9011  -15.5708 C   0  0  0  0  0  0  0  0  0  0  0  0
   18.1552  -12.2568  -15.0114 C   0  0  0  0  0  0  0  0  0  0  0  0
   18.4581  -10.9797  -15.7670 C   0  0  2  0  0  0  0  0  0  0  0  0
   18.7757  -11.2524  -17.1466 N   0  0  0  0  0  0  0  0  0  0  0  0
   19.5397  -10.1885  -15.1552 C   0  0  0  0  0  0  0  0  0  0  0  0
   19.4656   -9.8698  -13.9443 O   0  0  0  0  0  0  0  0  0  0  0  0
   20.6492   -9.7896  -15.9194 N   0  0  0  0  0  0  0  0  0  0  0  0
   21.7682   -9.0350  -15.3843 C   0  0  1  0  0  0  0  0  0  0  0  0
   22.9780   -9.3515  -16.2357 C   0  0  0  0  0  0  0  0  0  0  0  0
   23.7580  -10.8949  -15.7158 S   0  0  0  0  0  0  0  0  0  0  0  0
   21.4263   -7.6048  -15.4180 C   0  0  0  0  0  0  0  0  0  0  0  0
   20.7614   -7.1314  -16.3683 O   0  0  0  0  0  0  0  0  0  0  0  0
   21.8757   -4.7362  -13.0634 C   0  0  0  0  0  0  0  0  0  0  0  0
   21.5462   -5.3276  -14.4232 C   0  0  2  0  0  0  0  0  0  0  0  0
   21.8440   -6.7438  -14.3771 N   0  0  0  0  0  0  0  0  0  0  0  0
   22.3854   -4.6660  -15.4475 C   0  0  0  0  0  0  0  0  0  0  0  0
   23.4919   -5.1527  -15.7578 O   0  0  0  0  0  0  0  0  0  0  0  0
   21.9642   -3.5092  -16.0728 O   0  0  0  0  0  0  0  0  0  0  0  0
  2  1  1  0
  2  3  2  0
  4  5  1  0
  4  2  1  0
  6  8  1  0
  6  5  1  0
  6  7  1  6
  8 10  1  0
  9  8  2  0
 10 11  1  0
 11 14  1  0
 12 13  1  0
 11 12  1  6
 14 15  2  0
 14 18  1  0
 17 16  1  1
 17 19  1  0
 18 17  1  0
 19 21  1  0
 20 19  2  0
M  END
$$$$
