QCA.pdb
     RDKit          3D

 21 20  0  0  1  0  0  0  0  0999 V2000
   23.8777  -21.6534  -11.5359 N   0  0  0  0  0  0  0  0  0  0  0  0
   24.3300  -21.0281  -10.3486 C   0  0  0  0  0  0  0  0  0  0  0  0
   23.5286  -20.7813   -9.4217 O   0  0  0  0  0  0  0  0  0  0  0  0
   25.7519  -20.6417  -10.1496 C   0  0  0  0  0  0  0  0  0  0  0  0
   26.5507  -20.7630  -11.4002 C   0  0  0  0  0  0  0  0  0  0  0  0
   25.6272  -20.9180  -12.5904 C   0  0  2  0  0  0  0  0  0  0  0  0
   26.1130  -21.9255  -13.5001 N   0  0  0  0  0  0  0  0  0  0  0  0
   25.4056  -19.6567  -13.3185 C   0  0  0  0  0  0  0  0  0  0  0  0
   24.7068  -18.7549  -12.7972 O   0  0  0  0  0  0  0  0  0  0  0  0
   25.9702  -19.4604  -14.5900 N   0  0  0  0  0  0  0  0  0  0  0  0
   25.8565  -18.2231  -15.3411 C   0  0  1  0  0  0  0  0  0  0  0  0
   27.0740  -18.1199  -16.2332 C   0  0  0  0  0  0  0  0  0  0  0  0
   28.5975  -18.3347  -15.2880 S   0  0  0  0  0  0  0  0  0  0  0  0
   24.6054  -18.2586  -16.1137 C   0  0  0  0  0  0  0  0  0  0  0  0
   24.2742  -19.2905  -16.7421 O   0  0  0  0  0  0  0  0  0  0  0  0
   21.7424  -15.8932  -16.5695 C   0  0  0  0  0  0  0  0  0  0  0  0
   22.5075  -17.1667  -16.8858 C   0  0  2  0  0  0  0  0  0  0  0  0
   23.7585  -17.1272  -16.1578 N   0  0  0  0  0  0  0  0  0  0  0  0
   22.7693  -17.2171  -18.3418 C   0  0  0  0  0  0  0  0  0  0  0  0
   21.9153  -17.6994  -19.1136 O   0  0  0  0  0  0  0  0  0  0  0  0
   23.9515  -16.7361  -18.8686 O   0  0  0  0  0  0  0  0  0  0  0  0
  2  1  1  0
  2  3  2  0
  4  5  1  0
  4  2  1  0
  6  8  1  0
  6  5  1  0
  6  7  1  6
  8 10  1  0
  9  8  2  0
 10 11  1  0
 11 14  1  0
 12 13  1  0
 11 12  1  6
 14 15  2  0
 14 18  1  0
 17 16  1  6
 17 19  1  0
 18 17  1  0
 19 21  1  0
 20 19  2  0
M  END
$$$$
