QCA.pdb
     RDKit          3D

 21 20  0  0  1  0  0  0  0  0999 V2000
   17.6119  -10.6318  -16.1819 N   0  0  0  0  0  0  0  0  0  0  0  0
   17.8454  -11.6624  -15.2392 C   0  0  0  0  0  0  0  0  0  0  0  0
   18.3952  -12.7275  -15.5933 O   0  0  0  0  0  0  0  0  0  0  0  0
   17.4561  -11.5312  -13.8102 C   0  0  0  0  0  0  0  0  0  0  0  0
   16.8674  -10.1983  -13.5050 C   0  0  0  0  0  0  0  0  0  0  0  0
   16.3605  -10.1714  -12.0782 C   0  0  2  0  0  0  0  0  0  0  0  0
   15.4120  -11.2311  -11.8414 N   0  0  0  0  0  0  0  0  0  0  0  0
   15.7650   -8.8781  -11.7003 C   0  0  0  0  0  0  0  0  0  0  0  0
   14.5892   -8.6124  -12.0472 O   0  0  0  0  0  0  0  0  0  0  0  0
   16.5055   -7.9439  -10.9568 N   0  0  0  0  0  0  0  0  0  0  0  0
   15.9823   -6.6609  -10.5230 C   0  0  1  0  0  0  0  0  0  0  0  0
   16.4245   -6.4507   -9.0915 C   0  0  0  0  0  0  0  0  0  0  0  0
   15.4354   -7.4398   -7.9495 S   0  0  0  0  0  0  0  0  0  0  0  0
   16.4994   -5.6173  -11.4212 C   0  0  0  0  0  0  0  0  0  0  0  0
   17.7306   -5.5040  -11.6232 O   0  0  0  0  0  0  0  0  0  0  0  0
   14.9693   -3.3211  -13.9045 C   0  0  0  0  0  0  0  0  0  0  0  0
   16.1113   -3.7234  -12.9872 C   0  0  2  0  0  0  0  0  0  0  0  0
   15.6131   -4.7265  -12.0694 N   0  0  0  0  0  0  0  0  0  0  0  0
   16.5643   -2.5302  -12.2374 C   0  0  0  0  0  0  0  0  0  0  0  0
   16.1368   -2.3177  -11.0843 O   0  0  0  0  0  0  0  0  0  0  0  0
   17.4595   -1.6385  -12.7940 O   0  0  0  0  0  0  0  0  0  0  0  0
  2  1  1  0
  2  3  2  0
  4  5  1  0
  4  2  1  0
  6  8  1  0
  6  5  1  0
  6  7  1  6
  8 10  1  0
  9  8  2  0
 10 11  1  0
 11 14  1  0
 12 13  1  0
 11 12  1  1
 14 15  2  0
 14 18  1  0
 17 16  1  6
 17 19  1  0
 18 17  1  0
 19 21  1  0
 20 19  2  0
M  END
$$$$
