LRF.pdb
     RDKit          3D

 31 31  0  0  1  0  0  0  0  0999 V2000
    9.6079  -12.7182   19.5298 C   0  0  0  0  0  0  0  0  0  0  0  0
    8.1973  -13.1956   19.3641 C   0  0  2  0  0  0  0  0  0  0  0  0
    7.2171  -12.0972   19.6444 C   0  0  0  0  0  0  0  0  0  0  0  0
    7.8686  -14.4387   20.1477 C   0  0  0  0  0  0  0  0  0  0  0  0
    8.8337  -15.5763   19.8897 C   0  0  2  0  0  0  0  0  0  0  0  0
    8.5753  -16.2776   18.6678 N   0  0  0  0  0  0  0  0  0  0  0  0
    8.8277  -16.4529   21.0723 C   0  0  0  0  0  0  0  0  0  0  0  0
    7.9735  -17.3989   21.0900 O   0  0  0  0  0  0  0  0  0  0  0  0
   12.4280  -18.9831   19.1210 N   0  0  0  0  0  0  0  0  0  0  0  0
   13.4577  -19.3887   20.0109 C   0  0  0  0  0  0  0  0  0  0  0  0
   14.6976  -19.3152   19.6073 N   0  0  0  0  0  0  0  0  0  0  0  0
   13.1929  -19.8644   21.3029 N   0  0  0  0  0  0  0  0  0  0  0  0
   11.8482  -19.9040   21.8123 C   0  0  0  0  0  0  0  0  0  0  0  0
   11.3709  -18.5542   22.3009 C   0  0  0  0  0  0  0  0  0  0  0  0
    9.9655  -18.6492   22.8772 C   0  0  0  0  0  0  0  0  0  0  0  0
    9.5639  -17.2479   23.2930 C   0  0  2  0  0  0  0  0  0  0  0  0
    9.6837  -16.3417   22.1917 N   0  0  0  0  0  0  0  0  0  0  0  0
   10.4041  -16.7750   24.4406 C   0  0  0  0  0  0  0  0  0  0  0  0
   11.6377  -16.6639   24.2729 O   0  0  0  0  0  0  0  0  0  0  0  0
   15.4764  -19.6031   20.2267 N   0  0  0  0  0  0  0  0  0  0  0  0
    9.8382  -16.4577   25.6865 C   0  0  1  0  0  0  0  0  0  0  0  0
   10.5272  -15.9075   26.8320 C   0  0  0  0  0  0  0  0  0  0  0  0
   10.6519  -14.4394   26.6604 C   0  0  0  0  0  0  0  0  0  0  0  0
    9.3906  -13.7066   26.4859 C   0  0  0  0  0  0  0  0  0  0  0  0
    8.9247  -12.8756   27.4714 C   0  0  0  0  0  0  0  0  0  0  0  0
    7.7249  -12.1791   27.3013 C   0  0  0  0  0  0  0  0  0  0  0  0
    7.0383  -12.3600   26.1171 C   0  0  0  0  0  0  0  0  0  0  0  0
    7.4771  -13.1905   25.0990 C   0  0  0  0  0  0  0  0  0  0  0  0
    8.6798  -13.8625   25.3186 C   0  0  0  0  0  0  0  0  0  0  0  0
    9.9963  -16.3538   28.1352 O   0  0  0  0  0  0  0  0  0  0  0  0
    8.8605  -17.1423   28.2564 O   0  0  0  0  0  0  0  0  0  0  0  0
  2  1  1  1
  3  2  1  0
  4  5  1  0
  4  2  1  0
  5  6  1  6
  7  5  1  0
  7  8  2  0
  9 10  1  0
 10 12  1  0
 11 10  2  0
 12 13  1  0
 13 14  1  0
 14 15  1  0
 16 15  1  6
 16 17  1  0
 17  7  1  0
 18 16  1  0
 19 18  2  0
 20 18  1  0
 21 20  1  0
 21 22  1  1
 22 23  1  0
 23 28  2  0
 24 25  2  0
 24 23  1  0
 25 26  1  0
 26 27  2  0
 28 27  1  0
 29 21  1  0
 30 29  1  0
 31 29  2  0
M  END
$$$$
