LRF.pdb
     RDKit          3D

 31 31  0  0  1  0  0  0  0  0999 V2000
    9.3040  -13.2589   19.0604 C   0  0  0  0  0  0  0  0  0  0  0  0
    7.8688  -13.4069   19.4649 C   0  0  2  0  0  0  0  0  0  0  0  0
    7.2455  -12.0738   19.7481 C   0  0  0  0  0  0  0  0  0  0  0  0
    7.6418  -14.3716   20.5987 C   0  0  0  0  0  0  0  0  0  0  0  0
    8.1728  -15.7602   20.3127 C   0  0  2  0  0  0  0  0  0  0  0  0
    7.3456  -16.5145   19.4192 N   0  0  0  0  0  0  0  0  0  0  0  0
    8.3967  -16.4343   21.6020 C   0  0  0  0  0  0  0  0  0  0  0  0
    7.6645  -17.4442   21.8645 O   0  0  0  0  0  0  0  0  0  0  0  0
   12.9336  -18.8795   17.9795 N   0  0  0  0  0  0  0  0  0  0  0  0
   12.6758  -19.0639   19.3638 C   0  0  0  0  0  0  0  0  0  0  0  0
   13.6725  -18.9726   20.2028 N   0  0  0  0  0  0  0  0  0  0  0  0
   11.3946  -19.3400   19.8613 N   0  0  0  0  0  0  0  0  0  0  0  0
   11.1472  -19.3809   21.2778 C   0  0  0  0  0  0  0  0  0  0  0  0
   10.4765  -18.1246   21.7881 C   0  0  0  0  0  0  0  0  0  0  0  0
   10.1487  -18.2452   23.2694 C   0  0  0  0  0  0  0  0  0  0  0  0
    9.5981  -16.9034   23.7098 C   0  0  2  0  0  0  0  0  0  0  0  0
    9.3507  -16.0640   22.5772 N   0  0  0  0  0  0  0  0  0  0  0  0
   10.5455  -16.2263   24.6534 C   0  0  0  0  0  0  0  0  0  0  0  0
   11.7674  -16.4674   24.5496 O   0  0  0  0  0  0  0  0  0  0  0  0
   14.6331  -18.7764   19.8682 N   0  0  0  0  0  0  0  0  0  0  0  0
   10.0916  -15.3359   25.6406 C   0  0  2  0  0  0  0  0  0  0  0  0
    9.8132  -15.6504   27.0237 C   0  0  0  0  0  0  0  0  0  0  0  0
    8.3661  -15.4511   27.2818 C   0  0  0  0  0  0  0  0  0  0  0  0
    7.8159  -14.1528   26.8698 C   0  0  0  0  0  0  0  0  0  0  0  0
    8.6182  -13.0432   26.8082 C   0  0  0  0  0  0  0  0  0  0  0  0
    8.0915  -11.8098   26.4146 C   0  0  0  0  0  0  0  0  0  0  0  0
    6.7492  -11.7560   26.0953 C   0  0  0  0  0  0  0  0  0  0  0  0
    5.9075  -12.8550   26.1454 C   0  0  0  0  0  0  0  0  0  0  0  0
    6.4825  -14.0618   26.5441 C   0  0  0  0  0  0  0  0  0  0  0  0
   10.3701  -16.9393   27.4800 O   0  0  0  0  0  0  0  0  0  0  0  0
   11.2362  -17.0464   28.5592 O   0  0  0  0  0  0  0  0  0  0  0  0
  2  1  1  1
  3  2  1  0
  4  5  1  0
  4  2  1  0
  5  6  1  6
  7  5  1  0
  7  8  2  0
  9 10  1  0
 10 12  1  0
 11 10  2  0
 12 13  1  0
 13 14  1  0
 14 15  1  0
 16 15  1  6
 16 17  1  0
 17  7  1  0
 18 16  1  0
 19 18  2  0
 20 18  1  0
 21 20  1  0
 21 22  1  6
 22 23  1  0
 23 28  2  0
 24 25  2  0
 24 23  1  0
 25 26  1  0
 26 27  2  0
 28 27  1  0
 29 21  1  0
 30 29  1  0
 31 29  2  0
M  END
$$$$
