LRF.pdb
     RDKit          3D

 31 31  0  0  1  0  0  0  0  0999 V2000
    5.0043  -21.5455   24.2180 C   0  0  0  0  0  0  0  0  0  0  0  0
    5.3872  -21.3785   22.7790 C   0  0  2  0  0  0  0  0  0  0  0  0
    5.1532  -22.6408   22.0060 C   0  0  0  0  0  0  0  0  0  0  0  0
    6.7831  -20.8550   22.5669 C   0  0  0  0  0  0  0  0  0  0  0  0
    7.0705  -19.5934   23.3529 C   0  0  2  0  0  0  0  0  0  0  0  0
    6.1027  -18.5583   23.1443 N   0  0  0  0  0  0  0  0  0  0  0  0
    8.4461  -19.1702   23.0438 C   0  0  0  0  0  0  0  0  0  0  0  0
    9.3638  -20.0473   23.1600 O   0  0  0  0  0  0  0  0  0  0  0  0
    7.9278  -14.4438   17.5646 N   0  0  0  0  0  0  0  0  0  0  0  0
    8.2709  -13.4713   18.5408 C   0  0  0  0  0  0  0  0  0  0  0  0
    7.6902  -12.3025   18.4899 N   0  0  0  0  0  0  0  0  0  0  0  0
    9.2078  -13.7187   19.5540 N   0  0  0  0  0  0  0  0  0  0  0  0
    9.8944  -14.9804   19.6307 C   0  0  0  0  0  0  0  0  0  0  0  0
    9.7153  -15.6601   20.9702 C   0  0  0  0  0  0  0  0  0  0  0  0
   10.4061  -17.0161   20.9898 C   0  0  0  0  0  0  0  0  0  0  0  0
   10.2222  -17.5845   22.3829 C   0  0  2  0  0  0  0  0  0  0  0  0
    8.8433  -17.8785   22.6291 N   0  0  0  0  0  0  0  0  0  0  0  0
   10.7358  -16.6285   23.4168 C   0  0  0  0  0  0  0  0  0  0  0  0
   11.3336  -15.5993   23.0353 O   0  0  0  0  0  0  0  0  0  0  0  0
    7.9230  -11.5627   19.1767 N   0  0  0  0  0  0  0  0  0  0  0  0
   10.5599  -16.8643   24.7904 C   0  0  2  0  0  0  0  0  0  0  0  0
    9.8594  -16.0163   25.7284 C   0  0  0  0  0  0  0  0  0  0  0  0
    8.7487  -15.3314   25.0230 C   0  0  0  0  0  0  0  0  0  0  0  0
    7.9840  -14.3641   25.8217 C   0  0  0  0  0  0  0  0  0  0  0  0
    6.6135  -14.3772   25.8081 C   0  0  0  0  0  0  0  0  0  0  0  0
    5.8892  -13.4562   26.5702 C   0  0  0  0  0  0  0  0  0  0  0  0
    6.6008  -12.5458   27.3260 C   0  0  0  0  0  0  0  0  0  0  0  0
    7.9848  -12.5018   27.3654 C   0  0  0  0  0  0  0  0  0  0  0  0
    8.6599  -13.4424   26.5871 C   0  0  0  0  0  0  0  0  0  0  0  0
    9.4960  -16.6797   26.9962 O   0  0  0  0  0  0  0  0  0  0  0  0
    8.8910  -17.9278   27.0475 O   0  0  0  0  0  0  0  0  0  0  0  0
  2  1  1  1
  3  2  1  0
  4  5  1  0
  4  2  1  0
  5  6  1  6
  7  5  1  0
  7  8  2  0
  9 10  1  0
 10 12  1  0
 11 10  2  0
 12 13  1  0
 13 14  1  0
 14 15  1  0
 16 15  1  6
 16 17  1  0
 17  7  1  0
 18 16  1  0
 19 18  2  0
 20 18  1  0
 21 20  1  0
 21 22  1  1
 22 23  1  0
 23 28  2  0
 24 25  2  0
 24 23  1  0
 25 26  1  0
 26 27  2  0
 28 27  1  0
 29 21  1  0
 30 29  1  0
 31 29  2  0
M  END
$$$$
