LRF.pdb
     RDKit          3D

 31 31  0  0  1  0  0  0  0  0999 V2000
    9.6084  -13.3521   17.8737 C   0  0  0  0  0  0  0  0  0  0  0  0
    8.2440  -13.5147   18.4713 C   0  0  2  0  0  0  0  0  0  0  0  0
    7.6809  -12.1949   18.9037 C   0  0  0  0  0  0  0  0  0  0  0  0
    8.1707  -14.5326   19.5786 C   0  0  0  0  0  0  0  0  0  0  0  0
    8.8222  -15.8509   19.2181 C   0  0  2  0  0  0  0  0  0  0  0  0
    8.1132  -16.5805   18.2098 N   0  0  0  0  0  0  0  0  0  0  0  0
    9.0129  -16.6170   20.4605 C   0  0  0  0  0  0  0  0  0  0  0  0
    7.9660  -17.0657   21.0329 O   0  0  0  0  0  0  0  0  0  0  0  0
   10.2568  -20.3651   19.1416 N   0  0  0  0  0  0  0  0  0  0  0  0
   10.9614  -21.5707   19.3998 C   0  0  0  0  0  0  0  0  0  0  0  0
   10.7946  -22.5787   18.5863 N   0  0  0  0  0  0  0  0  0  0  0  0
   11.8264  -21.7185   20.4931 N   0  0  0  0  0  0  0  0  0  0  0  0
   11.7671  -20.8110   21.6076 C   0  0  0  0  0  0  0  0  0  0  0  0
   11.6315  -19.3674   21.1762 C   0  0  0  0  0  0  0  0  0  0  0  0
   11.5968  -18.4393   22.3819 C   0  0  0  0  0  0  0  0  0  0  0  0
   10.3044  -17.6520   22.2953 C   0  0  2  0  0  0  0  0  0  0  0  0
   10.2523  -16.9014   21.0778 N   0  0  0  0  0  0  0  0  0  0  0  0
   10.1644  -16.7332   23.4711 C   0  0  0  0  0  0  0  0  0  0  0  0
   11.1552  -16.0579   23.8239 O   0  0  0  0  0  0  0  0  0  0  0  0
   11.2604  -23.4870   18.7625 N   0  0  0  0  0  0  0  0  0  0  0  0
    8.9548  -16.6177   24.1760 C   0  0  2  0  0  0  0  0  0  0  0  0
    8.6912  -15.7480   25.3001 C   0  0  0  0  0  0  0  0  0  0  0  0
    7.6596  -14.7558   24.9108 C   0  0  0  0  0  0  0  0  0  0  0  0
    7.2619  -13.8031   25.9561 C   0  0  0  0  0  0  0  0  0  0  0  0
    8.1943  -12.9986   26.5578 C   0  0  0  0  0  0  0  0  0  0  0  0
    7.8121  -12.0926   27.5511 C   0  0  0  0  0  0  0  0  0  0  0  0
    6.4761  -12.0422   27.8962 C   0  0  0  0  0  0  0  0  0  0  0  0
    5.5055  -12.8386   27.3110 C   0  0  0  0  0  0  0  0  0  0  0  0
    5.9391  -13.7255   26.3254 C   0  0  0  0  0  0  0  0  0  0  0  0
    8.4474  -16.4543   26.5735 O   0  0  0  0  0  0  0  0  0  0  0  0
    9.1332  -16.1579   27.7431 O   0  0  0  0  0  0  0  0  0  0  0  0
  2  1  1  1
  3  2  1  0
  4  5  1  0
  4  2  1  0
  5  6  1  6
  7  5  1  0
  7  8  2  0
  9 10  1  0
 10 12  1  0
 11 10  2  0
 12 13  1  0
 13 14  1  0
 14 15  1  0
 16 15  1  1
 16 17  1  0
 17  7  1  0
 18 16  1  0
 19 18  2  0
 20 18  1  0
 21 20  1  0
 21 22  1  6
 22 23  1  0
 23 28  2  0
 24 25  2  0
 24 23  1  0
 25 26  1  0
 26 27  2  0
 28 27  1  0
 29 21  1  0
 30 29  1  0
 31 29  2  0
M  END
$$$$
