LRF.pdb
     RDKit          3D

 31 31  0  0  1  0  0  0  0  0999 V2000
    8.9008  -12.9510   19.0368 C   0  0  0  0  0  0  0  0  0  0  0  0
    7.6204  -13.0522   19.8083 C   0  0  2  0  0  0  0  0  0  0  0  0
    7.1228  -11.6976   20.2125 C   0  0  0  0  0  0  0  0  0  0  0  0
    7.6796  -13.9896   20.9854 C   0  0  0  0  0  0  0  0  0  0  0  0
    8.2048  -15.3631   20.6254 C   0  0  2  0  0  0  0  0  0  0  0  0
    7.3306  -16.0999   19.7625 N   0  0  0  0  0  0  0  0  0  0  0  0
    8.5148  -16.0724   21.8775 C   0  0  0  0  0  0  0  0  0  0  0  0
    7.5356  -16.3540   22.6435 O   0  0  0  0  0  0  0  0  0  0  0  0
   10.9049  -21.8379   21.4765 N   0  0  0  0  0  0  0  0  0  0  0  0
   11.2681  -21.2817   20.2214 C   0  0  0  0  0  0  0  0  0  0  0  0
   11.0057  -21.9608   19.1371 N   0  0  0  0  0  0  0  0  0  0  0  0
   11.8969  -20.0341   20.1038 N   0  0  0  0  0  0  0  0  0  0  0  0
   12.1129  -19.2059   21.2599 C   0  0  0  0  0  0  0  0  0  0  0  0
   10.8794  -19.0837   22.1270 C   0  0  0  0  0  0  0  0  0  0  0  0
   11.1495  -18.2016   23.3375 C   0  0  0  0  0  0  0  0  0  0  0  0
    9.9588  -17.2748   23.4821 C   0  0  2  0  0  0  0  0  0  0  0  0
    9.8007  -16.4706   22.3088 N   0  0  0  0  0  0  0  0  0  0  0  0
   10.1134  -16.3985   24.6882 C   0  0  0  0  0  0  0  0  0  0  0  0
   10.8981  -15.4277   24.6255 O   0  0  0  0  0  0  0  0  0  0  0  0
   11.3336  -21.6318   18.2111 N   0  0  0  0  0  0  0  0  0  0  0  0
    9.4013  -16.6443   25.8738 C   0  0  1  0  0  0  0  0  0  0  0  0
    9.6791  -16.0868   27.1783 C   0  0  0  0  0  0  0  0  0  0  0  0
    8.4574  -15.4166   27.6865 C   0  0  0  0  0  0  0  0  0  0  0  0
    8.1164  -14.1384   27.0476 C   0  0  0  0  0  0  0  0  0  0  0  0
    7.0232  -14.0387   26.2268 C   0  0  0  0  0  0  0  0  0  0  0  0
    6.7011  -12.8207   25.6216 C   0  0  0  0  0  0  0  0  0  0  0  0
    7.5178  -11.7379   25.8807 C   0  0  0  0  0  0  0  0  0  0  0  0
    8.6301  -11.7998   26.7039 C   0  0  0  0  0  0  0  0  0  0  0  0
    8.9076  -13.0381   27.2833 C   0  0  0  0  0  0  0  0  0  0  0  0
   10.3287  -17.0239   28.1161 O   0  0  0  0  0  0  0  0  0  0  0  0
   10.9196  -16.6139   29.3031 O   0  0  0  0  0  0  0  0  0  0  0  0
  2  1  1  1
  3  2  1  0
  4  5  1  0
  4  2  1  0
  5  6  1  1
  7  5  1  0
  7  8  2  0
  9 10  1  0
 10 12  1  0
 11 10  2  0
 12 13  1  0
 13 14  1  0
 14 15  1  0
 16 15  1  6
 16 17  1  0
 17  7  1  0
 18 16  1  0
 19 18  2  0
 20 18  1  0
 21 20  1  0
 21 22  1  1
 22 23  1  0
 23 28  2  0
 24 25  2  0
 24 23  1  0
 25 26  1  0
 26 27  2  0
 28 27  1  0
 29 21  1  0
 30 29  1  0
 31 29  2  0
M  END
$$$$
