LRF.pdb
     RDKit          3D

 31 31  0  0  1  0  0  0  0  0999 V2000
    9.0986  -13.3296   18.7788 C   0  0  0  0  0  0  0  0  0  0  0  0
    7.8291  -13.1194   19.5464 C   0  0  2  0  0  0  0  0  0  0  0  0
    7.6376  -11.6737   19.8915 C   0  0  0  0  0  0  0  0  0  0  0  0
    7.6880  -13.9977   20.7614 C   0  0  0  0  0  0  0  0  0  0  0  0
    7.7503  -15.4752   20.4372 C   0  0  2  0  0  0  0  0  0  0  0  0
    6.6643  -15.9261   19.6193 N   0  0  0  0  0  0  0  0  0  0  0  0
    7.8645  -16.2133   21.7057 C   0  0  0  0  0  0  0  0  0  0  0  0
    6.7852  -16.4411   22.3445 O   0  0  0  0  0  0  0  0  0  0  0  0
   11.5684  -19.2679   19.2446 N   0  0  0  0  0  0  0  0  0  0  0  0
   12.8117  -19.2852   19.9306 C   0  0  0  0  0  0  0  0  0  0  0  0
   13.9053  -19.0756   19.2480 N   0  0  0  0  0  0  0  0  0  0  0  0
   12.9082  -19.5188   21.3095 N   0  0  0  0  0  0  0  0  0  0  0  0
   11.7311  -19.7618   22.0999 C   0  0  0  0  0  0  0  0  0  0  0  0
   10.9288  -18.5042   22.3512 C   0  0  0  0  0  0  0  0  0  0  0  0
    9.7678  -18.7783   23.2962 C   0  0  0  0  0  0  0  0  0  0  0  0
    9.0344  -17.4654   23.4860 C   0  0  2  0  0  0  0  0  0  0  0  0
    9.0631  -16.6935   22.2811 N   0  0  0  0  0  0  0  0  0  0  0  0
    9.6360  -16.6810   24.6126 C   0  0  0  0  0  0  0  0  0  0  0  0
   10.6641  -16.0062   24.3896 O   0  0  0  0  0  0  0  0  0  0  0  0
   14.8341  -19.1214   19.7044 N   0  0  0  0  0  0  0  0  0  0  0  0
    9.0728  -16.6894   25.8995 C   0  0  1  0  0  0  0  0  0  0  0  0
    9.5821  -16.0085   27.0684 C   0  0  0  0  0  0  0  0  0  0  0  0
    8.4588  -15.3282   27.7581 C   0  0  0  0  0  0  0  0  0  0  0  0
    7.8715  -14.1839   27.0484 C   0  0  0  0  0  0  0  0  0  0  0  0
    6.5715  -14.2239   26.6158 C   0  0  0  0  0  0  0  0  0  0  0  0
    6.0158  -13.1328   25.9419 C   0  0  0  0  0  0  0  0  0  0  0  0
    6.8186  -12.0291   25.7327 C   0  0  0  0  0  0  0  0  0  0  0  0
    8.1357  -11.9516   26.1548 C   0  0  0  0  0  0  0  0  0  0  0  0
    8.6421  -13.0670   26.8224 C   0  0  0  0  0  0  0  0  0  0  0  0
   10.4486  -16.8387   27.9284 O   0  0  0  0  0  0  0  0  0  0  0  0
   11.2418  -16.3075   28.9360 O   0  0  0  0  0  0  0  0  0  0  0  0
  2  1  1  1
  3  2  1  0
  4  5  1  0
  4  2  1  0
  5  6  1  1
  7  5  1  0
  7  8  2  0
  9 10  1  0
 10 12  1  0
 11 10  2  0
 12 13  1  0
 13 14  1  0
 14 15  1  0
 16 15  1  6
 16 17  1  0
 17  7  1  0
 18 16  1  0
 19 18  2  0
 20 18  1  0
 21 20  1  0
 21 22  1  1
 22 23  1  0
 23 28  2  0
 24 25  2  0
 24 23  1  0
 25 26  1  0
 26 27  2  0
 28 27  1  0
 29 21  1  0
 30 29  1  0
 31 29  2  0
M  END
$$$$
