LRF.pdb
     RDKit          3D

 31 31  0  0  1  0  0  0  0  0999 V2000
    8.9073  -13.7039   18.4226 C   0  0  0  0  0  0  0  0  0  0  0  0
    7.8387  -13.5329   19.4590 C   0  0  2  0  0  0  0  0  0  0  0  0
    7.7215  -12.1010   19.8852 C   0  0  0  0  0  0  0  0  0  0  0  0
    7.9751  -14.4500   20.6456 C   0  0  0  0  0  0  0  0  0  0  0  0
    8.0450  -15.9127   20.2612 C   0  0  2  0  0  0  0  0  0  0  0  0
    6.8236  -16.4159   19.7073 N   0  0  0  0  0  0  0  0  0  0  0  0
    8.5014  -16.6694   21.4384 C   0  0  0  0  0  0  0  0  0  0  0  0
    7.6033  -17.1852   22.1816 O   0  0  0  0  0  0  0  0  0  0  0  0
   13.9097  -19.5512   20.0442 N   0  0  0  0  0  0  0  0  0  0  0  0
   12.9334  -20.0681   19.1518 C   0  0  0  0  0  0  0  0  0  0  0  0
   13.1600  -19.9965   17.8675 N   0  0  0  0  0  0  0  0  0  0  0  0
   11.7384  -20.6501   19.5974 N   0  0  0  0  0  0  0  0  0  0  0  0
   11.4578  -20.7730   21.0029 C   0  0  0  0  0  0  0  0  0  0  0  0
   10.5042  -19.7097   21.5013 C   0  0  0  0  0  0  0  0  0  0  0  0
   11.1942  -18.7779   22.4872 C   0  0  0  0  0  0  0  0  0  0  0  0
   10.1675  -17.7466   22.9114 C   0  0  2  0  0  0  0  0  0  0  0  0
    9.8463  -16.8771   21.8208 N   0  0  0  0  0  0  0  0  0  0  0  0
   10.6703  -16.9465   24.0748 C   0  0  0  0  0  0  0  0  0  0  0  0
   11.3199  -17.5324   24.9675 O   0  0  0  0  0  0  0  0  0  0  0  0
   12.5153  -20.4393   17.1883 N   0  0  0  0  0  0  0  0  0  0  0  0
   10.4286  -15.5667   24.1798 C   0  0  2  0  0  0  0  0  0  0  0  0
    9.7747  -14.8864   25.2748 C   0  0  0  0  0  0  0  0  0  0  0  0
    8.5011  -14.3023   24.7881 C   0  0  0  0  0  0  0  0  0  0  0  0
    7.7235  -13.5475   25.7800 C   0  0  0  0  0  0  0  0  0  0  0  0
    6.4398  -13.1525   25.5061 C   0  0  0  0  0  0  0  0  0  0  0  0
    5.7026  -12.4355   26.4526 C   0  0  0  0  0  0  0  0  0  0  0  0
    6.3118  -12.1455   27.6573 C   0  0  0  0  0  0  0  0  0  0  0  0
    7.6060  -12.5275   27.9702 C   0  0  0  0  0  0  0  0  0  0  0  0
    8.2984  -13.2409   26.9915 C   0  0  0  0  0  0  0  0  0  0  0  0
    9.6784  -15.6806   26.5156 O   0  0  0  0  0  0  0  0  0  0  0  0
   10.3299  -15.3275   27.6891 O   0  0  0  0  0  0  0  0  0  0  0  0
  2  1  1  6
  3  2  1  0
  4  5  1  0
  4  2  1  0
  5  6  1  1
  7  5  1  0
  7  8  2  0
  9 10  1  0
 10 12  1  0
 11 10  2  0
 12 13  1  0
 13 14  1  0
 14 15  1  0
 16 15  1  6
 16 17  1  0
 17  7  1  0
 18 16  1  0
 19 18  2  0
 20 18  1  0
 21 20  1  0
 21 22  1  6
 22 23  1  0
 23 28  2  0
 24 25  2  0
 24 23  1  0
 25 26  1  0
 26 27  2  0
 28 27  1  0
 29 21  1  0
 30 29  1  0
 31 29  2  0
M  END
$$$$
