LRF.pdb
     RDKit          3D

 31 31  0  0  1  0  0  0  0  0999 V2000
    8.5881  -12.6433   18.6838 C   0  0  0  0  0  0  0  0  0  0  0  0
    7.3139  -13.0250   19.3735 C   0  0  2  0  0  0  0  0  0  0  0  0
    6.6323  -11.8242   19.9559 C   0  0  0  0  0  0  0  0  0  0  0  0
    7.4678  -14.1195   20.3963 C   0  0  0  0  0  0  0  0  0  0  0  0
    8.0859  -15.3800   19.8294 C   0  0  2  0  0  0  0  0  0  0  0  0
    7.3279  -15.9554   18.7589 N   0  0  0  0  0  0  0  0  0  0  0  0
    8.3140  -16.3139   20.9441 C   0  0  0  0  0  0  0  0  0  0  0  0
    7.9411  -17.5213   20.7760 O   0  0  0  0  0  0  0  0  0  0  0  0
   12.4766  -22.1959   20.8441 N   0  0  0  0  0  0  0  0  0  0  0  0
   12.6763  -22.0619   22.2437 C   0  0  0  0  0  0  0  0  0  0  0  0
   12.9059  -23.1374   22.9482 N   0  0  0  0  0  0  0  0  0  0  0  0
   12.6356  -20.8212   22.8952 N   0  0  0  0  0  0  0  0  0  0  0  0
   12.2114  -19.6365   22.1982 C   0  0  0  0  0  0  0  0  0  0  0  0
   11.1424  -18.8718   22.9472 C   0  0  0  0  0  0  0  0  0  0  0  0
   10.6237  -17.7063   22.1174 C   0  0  0  0  0  0  0  0  0  0  0  0
    9.5752  -17.0011   22.9548 C   0  0  2  0  0  0  0  0  0  0  0  0
    8.9095  -15.9943   22.1856 N   0  0  0  0  0  0  0  0  0  0  0  0
   10.1954  -16.3891   24.1743 C   0  0  0  0  0  0  0  0  0  0  0  0
   10.8065  -15.3054   24.0548 O   0  0  0  0  0  0  0  0  0  0  0  0
   13.0844  -23.0777   23.9669 N   0  0  0  0  0  0  0  0  0  0  0  0
   10.1039  -17.0029   25.4345 C   0  0  2  0  0  0  0  0  0  0  0  0
    9.3820  -16.5078   26.5848 C   0  0  0  0  0  0  0  0  0  0  0  0
    8.0634  -15.9929   26.1417 C   0  0  0  0  0  0  0  0  0  0  0  0
    7.9014  -14.5332   26.1791 C   0  0  0  0  0  0  0  0  0  0  0  0
    8.8438  -13.7422   26.7832 C   0  0  0  0  0  0  0  0  0  0  0  0
    8.6869  -12.3537   26.8158 C   0  0  0  0  0  0  0  0  0  0  0  0
    7.5599  -11.8196   26.2233 C   0  0  0  0  0  0  0  0  0  0  0  0
    6.5866  -12.5861   25.6038 C   0  0  0  0  0  0  0  0  0  0  0  0
    6.7907  -13.9661   25.5986 C   0  0  0  0  0  0  0  0  0  0  0  0
    9.3505  -17.4373   27.7313 O   0  0  0  0  0  0  0  0  0  0  0  0
    9.7814  -18.7539   27.6463 O   0  0  0  0  0  0  0  0  0  0  0  0
  2  1  1  1
  3  2  1  0
  4  5  1  0
  4  2  1  0
  5  6  1  6
  7  5  1  0
  7  8  2  0
  9 10  1  0
 10 12  1  0
 11 10  2  0
 12 13  1  0
 13 14  1  0
 14 15  1  0
 16 15  1  6
 16 17  1  0
 17  7  1  0
 18 16  1  0
 19 18  2  0
 20 18  1  0
 21 20  1  0
 21 22  1  6
 22 23  1  0
 23 28  2  0
 24 25  2  0
 24 23  1  0
 25 26  1  0
 26 27  2  0
 28 27  1  0
 29 21  1  0
 30 29  1  0
 31 29  2  0
M  END
$$$$
