LRF.pdb
     RDKit          3D

 31 31  0  0  1  0  0  0  0  0999 V2000
    8.8235  -13.1510   18.9005 C   0  0  0  0  0  0  0  0  0  0  0  0
    7.6598  -12.9538   19.8235 C   0  0  2  0  0  0  0  0  0  0  0  0
    7.5488  -11.5238   20.2578 C   0  0  0  0  0  0  0  0  0  0  0  0
    7.6403  -13.8894   21.0033 C   0  0  0  0  0  0  0  0  0  0  0  0
    7.6905  -15.3492   20.6050 C   0  0  2  0  0  0  0  0  0  0  0  0
    6.4428  -15.8486   20.1096 N   0  0  0  0  0  0  0  0  0  0  0  0
    8.2056  -16.1146   21.7521 C   0  0  0  0  0  0  0  0  0  0  0  0
    7.3481  -16.5782   22.5734 O   0  0  0  0  0  0  0  0  0  0  0  0
   14.1648  -19.4169   25.4298 N   0  0  0  0  0  0  0  0  0  0  0  0
   13.5515  -20.6964   25.4883 C   0  0  0  0  0  0  0  0  0  0  0  0
   13.9198  -21.5237   26.4294 N   0  0  0  0  0  0  0  0  0  0  0  0
   12.5685  -21.1032   24.5753 N   0  0  0  0  0  0  0  0  0  0  0  0
   12.2155  -20.2737   23.4543 C   0  0  0  0  0  0  0  0  0  0  0  0
   11.1848  -19.2244   23.8083 C   0  0  0  0  0  0  0  0  0  0  0  0
   10.9381  -18.2858   22.6360 C   0  0  0  0  0  0  0  0  0  0  0  0
    9.9342  -17.2508   23.1037 C   0  0  2  0  0  0  0  0  0  0  0  0
    9.5660  -16.3832   22.0266 N   0  0  0  0  0  0  0  0  0  0  0  0
   10.4912  -16.4492   24.2411 C   0  0  0  0  0  0  0  0  0  0  0  0
   11.7321  -16.3824   24.3746 O   0  0  0  0  0  0  0  0  0  0  0  0
   13.4879  -22.4617   26.5118 N   0  0  0  0  0  0  0  0  0  0  0  0
    9.6550  -15.7790   25.1493 C   0  0  2  0  0  0  0  0  0  0  0  0
    9.6959  -15.8739   26.5912 C   0  0  0  0  0  0  0  0  0  0  0  0
    8.3727  -15.4857   27.1378 C   0  0  0  0  0  0  0  0  0  0  0  0
    7.8839  -14.1568   26.7463 C   0  0  0  0  0  0  0  0  0  0  0  0
    8.7196  -13.0707   26.7726 C   0  0  0  0  0  0  0  0  0  0  0  0
    8.2514  -11.8081   26.3983 C   0  0  0  0  0  0  0  0  0  0  0  0
    6.9316  -11.7015   26.0070 C   0  0  0  0  0  0  0  0  0  0  0  0
    6.0574  -12.7754   25.9675 C   0  0  0  0  0  0  0  0  0  0  0  0
    6.5744  -14.0131   26.3506 C   0  0  0  0  0  0  0  0  0  0  0  0
   10.2493  -17.1432   27.1033 O   0  0  0  0  0  0  0  0  0  0  0  0
   11.1727  -17.1999   28.1379 O   0  0  0  0  0  0  0  0  0  0  0  0
  2  1  1  1
  3  2  1  0
  4  5  1  0
  4  2  1  0
  5  6  1  1
  7  5  1  0
  7  8  2  0
  9 10  1  0
 10 12  1  0
 11 10  2  0
 12 13  1  0
 13 14  1  0
 14 15  1  0
 16 15  1  6
 16 17  1  0
 17  7  1  0
 18 16  1  0
 19 18  2  0
 20 18  1  0
 21 20  1  0
 21 22  1  6
 22 23  1  0
 23 28  2  0
 24 25  2  0
 24 23  1  0
 25 26  1  0
 26 27  2  0
 28 27  1  0
 29 21  1  0
 30 29  1  0
 31 29  2  0
M  END
$$$$
