GSL.pdb
     RDKit          3D

 19 18  0  0  1  0  0  0  0  0999 V2000
   16.2189  -13.8196  -15.0540 N   0  0  0  0  0  0  0  0  0  0  0  0
   15.8162  -12.5039  -15.4836 C   0  0  0  0  0  0  0  0  0  0  0  0
   17.0027  -11.7425  -15.9549 C   0  0  0  0  0  0  0  0  0  0  0  0
   18.1036  -12.3045  -16.0377 O   0  0  0  0  0  0  0  0  0  0  0  0
   16.5855   -7.6879  -17.0235 O   0  0  0  0  0  0  0  0  0  0  0  0
   17.4616   -8.4819  -17.7759 C   0  0  0  0  0  0  0  0  0  0  0  0
   17.9411   -9.5791  -16.8765 C   0  0  2  0  0  0  0  0  0  0  0  0
   16.8865  -10.3720  -16.3127 N   0  0  0  0  0  0  0  0  0  0  0  0
   18.8681   -9.1042  -15.8124 C   0  0  0  0  0  0  0  0  0  0  0  0
   18.4025   -8.8484  -14.6868 O   0  0  0  0  0  0  0  0  0  0  0  0
   22.4040  -10.8796  -13.7172 C   0  0  0  0  0  0  0  0  0  0  0  0
   22.8490  -10.3094  -15.0305 C   0  0  2  0  0  0  0  0  0  0  0  0
   24.3463  -10.5919  -15.2608 C   0  0  0  0  0  0  0  0  0  0  0  0
   22.5748   -8.8627  -15.2357 C   0  0  0  0  0  0  0  0  0  0  0  0
   21.1534   -8.4208  -15.0941 C   0  0  2  0  0  0  0  0  0  0  0  0
   20.2670   -8.9456  -16.0810 N   0  0  0  0  0  0  0  0  0  0  0  0
   21.0321   -6.9481  -14.9450 C   0  0  0  0  0  0  0  0  0  0  0  0
   20.5522   -6.2707  -15.8897 O   0  0  0  0  0  0  0  0  0  0  0  0
   21.4247   -6.2751  -13.8060 O   0  0  0  0  0  0  0  0  0  0  0  0
  2  3  1  0
  2  1  1  0
  3  4  2  0
  5  6  1  0
  7  6  1  1
  7  9  1  0
  8  7  1  0
  8  3  1  0
  9 10  2  0
 12 11  1  1
 13 12  1  0
 14 12  1  0
 15 14  1  6
 15 17  1  0
 16  9  1  0
 16 15  1  0
 17 18  2  0
 17 19  1  0
M  END
$$$$
