GSL.pdb
     RDKit          3D

 19 18  0  0  1  0  0  0  0  0999 V2000
   15.2360  -12.8094  -16.2500 N   0  0  0  0  0  0  0  0  0  0  0  0
   15.1836  -11.3821  -16.4448 C   0  0  0  0  0  0  0  0  0  0  0  0
   16.4288  -10.9185  -17.1114 C   0  0  0  0  0  0  0  0  0  0  0  0
   16.8859  -11.5508  -18.0735 O   0  0  0  0  0  0  0  0  0  0  0  0
   17.5149   -6.9993  -17.1786 O   0  0  0  0  0  0  0  0  0  0  0  0
   18.0314   -7.9610  -18.0576 C   0  0  0  0  0  0  0  0  0  0  0  0
   18.2823   -9.1996  -17.2542 C   0  0  2  0  0  0  0  0  0  0  0  0
   17.1023   -9.7533  -16.6545 N   0  0  0  0  0  0  0  0  0  0  0  0
   19.3594   -9.0341  -16.2395 C   0  0  0  0  0  0  0  0  0  0  0  0
   19.0497   -8.6396  -15.1003 O   0  0  0  0  0  0  0  0  0  0  0  0
   25.4921  -10.1736  -15.3782 C   0  0  0  0  0  0  0  0  0  0  0  0
   24.1179   -9.7668  -14.9381 C   0  0  2  0  0  0  0  0  0  0  0  0
   23.6206  -10.6863  -13.8058 C   0  0  0  0  0  0  0  0  0  0  0  0
   23.0898   -9.6904  -16.0094 C   0  0  0  0  0  0  0  0  0  0  0  0
   21.7767   -9.0788  -15.6391 C   0  0  2  0  0  0  0  0  0  0  0  0
   20.7237   -9.3236  -16.5699 N   0  0  0  0  0  0  0  0  0  0  0  0
   21.9025   -7.6416  -15.2865 C   0  0  0  0  0  0  0  0  0  0  0  0
   21.8950   -6.7797  -16.2023 O   0  0  0  0  0  0  0  0  0  0  0  0
   22.0290   -7.1970  -13.9863 O   0  0  0  0  0  0  0  0  0  0  0  0
  2  3  1  0
  2  1  1  0
  3  4  2  0
  5  6  1  0
  7  6  1  1
  7  9  1  0
  8  7  1  0
  8  3  1  0
  9 10  2  0
 12 11  1  6
 13 12  1  0
 14 12  1  0
 15 14  1  6
 15 17  1  0
 16  9  1  0
 16 15  1  0
 17 18  2  0
 17 19  1  0
M  END
$$$$
