GSL.pdb
     RDKit          3D

 19 18  0  0  1  0  0  0  0  0999 V2000
   19.7917  -13.0970  -16.4035 N   0  0  0  0  0  0  0  0  0  0  0  0
   20.2509  -12.3705  -17.5608 C   0  0  0  0  0  0  0  0  0  0  0  0
   20.0807  -10.9105  -17.3393 C   0  0  0  0  0  0  0  0  0  0  0  0
   20.7692  -10.1047  -17.9806 O   0  0  0  0  0  0  0  0  0  0  0  0
   17.7801   -9.3501  -14.1148 O   0  0  0  0  0  0  0  0  0  0  0  0
   17.5703   -8.8168  -15.3938 C   0  0  0  0  0  0  0  0  0  0  0  0
   18.8274   -9.0439  -16.1752 C   0  0  2  0  0  0  0  0  0  0  0  0
   19.1331  -10.4281  -16.3963 N   0  0  0  0  0  0  0  0  0  0  0  0
   20.0062   -8.3285  -15.6132 C   0  0  0  0  0  0  0  0  0  0  0  0
   20.7115   -8.9122  -14.7700 O   0  0  0  0  0  0  0  0  0  0  0  0
   24.3336   -5.9429  -14.9456 C   0  0  0  0  0  0  0  0  0  0  0  0
   23.7879   -5.4419  -16.2490 C   0  0  2  0  0  0  0  0  0  0  0  0
   23.6906   -3.9040  -16.2368 C   0  0  0  0  0  0  0  0  0  0  0  0
   22.4870   -6.0229  -16.6736 C   0  0  0  0  0  0  0  0  0  0  0  0
   21.5063   -6.3398  -15.5905 C   0  0  2  0  0  0  0  0  0  0  0  0
   20.3202   -6.9954  -16.0360 N   0  0  0  0  0  0  0  0  0  0  0  0
   21.2182   -5.1653  -14.7283 C   0  0  0  0  0  0  0  0  0  0  0  0
   22.1536   -4.6364  -14.0750 O   0  0  0  0  0  0  0  0  0  0  0  0
   19.9579   -4.6164  -14.6056 O   0  0  0  0  0  0  0  0  0  0  0  0
  2  3  1  0
  2  1  1  0
  3  4  2  0
  5  6  1  0
  7  6  1  1
  7  9  1  0
  8  7  1  0
  8  3  1  0
  9 10  2  0
 12 11  1  1
 13 12  1  0
 14 12  1  0
 15 14  1  6
 15 17  1  0
 16  9  1  0
 16 15  1  0
 17 18  2  0
 17 19  1  0
M  END
$$$$
