GSL.pdb
     RDKit          3D

 19 18  0  0  1  0  0  0  0  0999 V2000
   13.8551  -12.8723  -14.4813 N   0  0  0  0  0  0  0  0  0  0  0  0
   15.1855  -13.3308  -14.1688 C   0  0  0  0  0  0  0  0  0  0  0  0
   15.9584  -12.2351  -13.5269 C   0  0  0  0  0  0  0  0  0  0  0  0
   16.2741  -12.3205  -12.3321 O   0  0  0  0  0  0  0  0  0  0  0  0
   18.4045   -8.0997  -14.0825 O   0  0  0  0  0  0  0  0  0  0  0  0
   17.7112   -9.1073  -14.7668 C   0  0  0  0  0  0  0  0  0  0  0  0
   17.0311   -9.9511  -13.7334 C   0  0  2  0  0  0  0  0  0  0  0  0
   16.3399  -11.0869  -14.2725 N   0  0  0  0  0  0  0  0  0  0  0  0
   16.1383   -9.1714  -12.8323 C   0  0  0  0  0  0  0  0  0  0  0  0
   14.9645   -8.9635  -13.1903 O   0  0  0  0  0  0  0  0  0  0  0  0
   13.3469   -7.2346   -9.1252 C   0  0  0  0  0  0  0  0  0  0  0  0
   14.7038   -7.4577   -8.5279 C   0  0  2  0  0  0  0  0  0  0  0  0
   15.3429   -6.1143   -8.1260 C   0  0  0  0  0  0  0  0  0  0  0  0
   15.6581   -8.2377   -9.3593 C   0  0  0  0  0  0  0  0  0  0  0  0
   15.8306   -7.7970  -10.7775 C   0  0  2  0  0  0  0  0  0  0  0  0
   16.6226   -8.6717  -11.5793 N   0  0  0  0  0  0  0  0  0  0  0  0
   16.2655   -6.3806  -10.8798 C   0  0  0  0  0  0  0  0  0  0  0  0
   17.4880   -6.1199  -11.0175 O   0  0  0  0  0  0  0  0  0  0  0  0
   15.3836   -5.3202  -10.8307 O   0  0  0  0  0  0  0  0  0  0  0  0
  2  3  1  0
  2  1  1  0
  3  4  2  0
  5  6  1  0
  7  6  1  6
  7  9  1  0
  8  7  1  0
  8  3  1  0
  9 10  2  0
 12 11  1  6
 13 12  1  0
 14 12  1  0
 15 14  1  1
 15 17  1  0
 16  9  1  0
 16 15  1  0
 17 18  2  0
 17 19  1  0
M  END
$$$$
