GSL.pdb
     RDKit          3D

 19 18  0  0  1  0  0  0  0  0999 V2000
   18.7365   -9.9275  -20.1233 N   0  0  0  0  0  0  0  0  0  0  0  0
   20.0016   -9.6861  -19.4758 C   0  0  0  0  0  0  0  0  0  0  0  0
   19.7991   -8.8299  -18.2775 C   0  0  0  0  0  0  0  0  0  0  0  0
   19.6172   -7.6122  -18.4128 O   0  0  0  0  0  0  0  0  0  0  0  0
   19.1031   -8.6553  -13.4888 O   0  0  0  0  0  0  0  0  0  0  0  0
   19.4168   -9.5145  -14.5506 C   0  0  0  0  0  0  0  0  0  0  0  0
   19.6451   -8.6563  -15.7564 C   0  0  2  0  0  0  0  0  0  0  0  0
   19.8122   -9.3964  -16.9741 N   0  0  0  0  0  0  0  0  0  0  0  0
   20.7529   -7.6773  -15.5799 C   0  0  0  0  0  0  0  0  0  0  0  0
   21.9215   -8.0573  -15.7782 O   0  0  0  0  0  0  0  0  0  0  0  0
   22.0522   -1.8124  -15.1564 C   0  0  0  0  0  0  0  0  0  0  0  0
   22.4250   -3.1126  -15.8030 C   0  0  2  0  0  0  0  0  0  0  0  0
   23.0104   -2.8675  -17.2073 C   0  0  0  0  0  0  0  0  0  0  0  0
   21.3450   -4.1313  -15.8811 C   0  0  0  0  0  0  0  0  0  0  0  0
   21.5250   -5.3669  -15.0587 C   0  0  2  0  0  0  0  0  0  0  0  0
   20.4771   -6.3259  -15.1899 N   0  0  0  0  0  0  0  0  0  0  0  0
   21.8420   -5.0601  -13.6405 C   0  0  0  0  0  0  0  0  0  0  0  0
   20.9399   -5.1666  -12.7708 O   0  0  0  0  0  0  0  0  0  0  0  0
   23.0941   -4.6580  -13.2222 O   0  0  0  0  0  0  0  0  0  0  0  0
  2  3  1  0
  2  1  1  0
  3  4  2  0
  5  6  1  0
  7  6  1  1
  7  9  1  0
  8  7  1  0
  8  3  1  0
  9 10  2  0
 12 11  1  6
 13 12  1  0
 14 12  1  0
 15 14  1  6
 15 17  1  0
 16  9  1  0
 16 15  1  0
 17 18  2  0
 17 19  1  0
M  END
$$$$
