GSL.pdb
     RDKit          3D

 19 18  0  0  1  0  0  0  0  0999 V2000
   28.8702  -23.3100  -17.0254 N   0  0  0  0  0  0  0  0  0  0  0  0
   27.4589  -23.5799  -17.1414 C   0  0  0  0  0  0  0  0  0  0  0  0
   26.6933  -22.6348  -16.2867 C   0  0  0  0  0  0  0  0  0  0  0  0
   27.0532  -22.4280  -15.1196 O   0  0  0  0  0  0  0  0  0  0  0  0
   23.3899  -19.1117  -16.1584 O   0  0  0  0  0  0  0  0  0  0  0  0
   23.9280  -20.1233  -16.9654 C   0  0  0  0  0  0  0  0  0  0  0  0
   24.7967  -20.9696  -16.0869 C   0  0  2  0  0  0  0  0  0  0  0  0
   25.5488  -21.9641  -16.7967 N   0  0  0  0  0  0  0  0  0  0  0  0
   24.0605  -21.5817  -14.9466 C   0  0  0  0  0  0  0  0  0  0  0  0
   23.4109  -22.6243  -15.1473 O   0  0  0  0  0  0  0  0  0  0  0  0
   26.1316  -21.0116   -9.8411 C   0  0  0  0  0  0  0  0  0  0  0  0
   25.0931  -20.6731  -10.8680 C   0  0  2  0  0  0  0  0  0  0  0  0
   24.1947  -19.5253  -10.3676 C   0  0  0  0  0  0  0  0  0  0  0  0
   24.2480  -21.8044  -11.3332 C   0  0  0  0  0  0  0  0  0  0  0  0
   23.4046  -21.5606  -12.5435 C   0  0  2  0  0  0  0  0  0  0  0  0
   24.1005  -20.9812  -13.6458 N   0  0  0  0  0  0  0  0  0  0  0  0
   22.1481  -20.8380  -12.2199 C   0  0  0  0  0  0  0  0  0  0  0  0
   21.3207  -21.3635  -11.4319 O   0  0  0  0  0  0  0  0  0  0  0  0
   21.8374  -19.6011  -12.7472 O   0  0  0  0  0  0  0  0  0  0  0  0
  2  3  1  0
  2  1  1  0
  3  4  2  0
  5  6  1  0
  7  6  1  6
  7  9  1  0
  8  7  1  0
  8  3  1  0
  9 10  2  0
 12 11  1  1
 13 12  1  0
 14 12  1  0
 15 14  1  1
 15 17  1  0
 16  9  1  0
 16 15  1  0
 17 18  2  0
 17 19  1  0
M  END
$$$$
