GSL.pdb
     RDKit          3D

 19 18  0  0  1  0  0  0  0  0999 V2000
   22.4367  -21.6999  -13.5474 N   0  0  0  0  0  0  0  0  0  0  0  0
   23.4388  -20.7117  -13.2355 C   0  0  0  0  0  0  0  0  0  0  0  0
   24.4564  -21.2966  -12.3233 C   0  0  0  0  0  0  0  0  0  0  0  0
   24.1403  -22.2136  -11.5529 O   0  0  0  0  0  0  0  0  0  0  0  0
   28.3979  -21.4985  -13.0751 O   0  0  0  0  0  0  0  0  0  0  0  0
   28.2011  -20.8736  -11.8362 C   0  0  0  0  0  0  0  0  0  0  0  0
   26.8096  -21.2060  -11.3935 C   0  0  2  0  0  0  0  0  0  0  0  0
   25.7928  -20.8127  -12.3262 N   0  0  0  0  0  0  0  0  0  0  0  0
   26.4920  -20.7056  -10.0276 C   0  0  0  0  0  0  0  0  0  0  0  0
   25.6729  -19.7760   -9.9087 O   0  0  0  0  0  0  0  0  0  0  0  0
   28.2293  -18.9750   -5.2308 C   0  0  0  0  0  0  0  0  0  0  0  0
   28.0896  -20.4667   -5.2861 C   0  0  2  0  0  0  0  0  0  0  0  0
   29.1442  -21.1402   -4.3865 C   0  0  0  0  0  0  0  0  0  0  0  0
   28.1288  -21.0720   -6.6435 C   0  0  0  0  0  0  0  0  0  0  0  0
   27.0716  -20.6343   -7.6058 C   0  0  2  0  0  0  0  0  0  0  0  0
   27.1176  -21.2841   -8.8750 N   0  0  0  0  0  0  0  0  0  0  0  0
   26.9938  -19.1560   -7.7253 C   0  0  0  0  0  0  0  0  0  0  0  0
   27.9086  -18.5376   -8.3273 O   0  0  0  0  0  0  0  0  0  0  0  0
   25.9537  -18.4152   -7.2019 O   0  0  0  0  0  0  0  0  0  0  0  0
  2  3  1  0
  2  1  1  0
  3  4  2  0
  5  6  1  0
  7  6  1  6
  7  9  1  0
  8  7  1  0
  8  3  1  0
  9 10  2  0
 12 11  1  6
 13 12  1  0
 14 12  1  0
 15 14  1  1
 15 17  1  0
 16  9  1  0
 16 15  1  0
 17 18  2  0
 17 19  1  0
M  END
$$$$
