GSL.pdb
     RDKit          3D

 19 18  0  0  1  0  0  0  0  0999 V2000
   28.5116  -20.6504  -15.5471 N   0  0  0  0  0  0  0  0  0  0  0  0
   27.9989  -20.0804  -14.3264 C   0  0  0  0  0  0  0  0  0  0  0  0
   26.8443  -20.8817  -13.8422 C   0  0  0  0  0  0  0  0  0  0  0  0
   26.3580  -21.7625  -14.5647 O   0  0  0  0  0  0  0  0  0  0  0  0
   25.3435  -19.9422  -10.1534 O   0  0  0  0  0  0  0  0  0  0  0  0
   25.0823  -21.2730  -10.5072 C   0  0  0  0  0  0  0  0  0  0  0  0
   25.1739  -21.3560  -11.9996 C   0  0  2  0  0  0  0  0  0  0  0  0
   26.2908  -20.6466  -12.5544 N   0  0  0  0  0  0  0  0  0  0  0  0
   23.9115  -20.9702  -12.6884 C   0  0  0  0  0  0  0  0  0  0  0  0
   23.7026  -19.7651  -12.9193 O   0  0  0  0  0  0  0  0  0  0  0  0
   19.6946  -23.3727  -16.5791 C   0  0  0  0  0  0  0  0  0  0  0  0
   20.2248  -22.2752  -15.7061 C   0  0  2  0  0  0  0  0  0  0  0  0
   20.6036  -21.0466  -16.5557 C   0  0  0  0  0  0  0  0  0  0  0  0
   21.3616  -22.6423  -14.8212 C   0  0  0  0  0  0  0  0  0  0  0  0
   21.7872  -21.6219  -13.8146 C   0  0  2  0  0  0  0  0  0  0  0  0
   22.9581  -21.9675  -13.0767 N   0  0  0  0  0  0  0  0  0  0  0  0
   20.6678  -21.1923  -12.9381 C   0  0  0  0  0  0  0  0  0  0  0  0
   19.8912  -20.2845  -13.3311 O   0  0  0  0  0  0  0  0  0  0  0  0
   20.4327  -21.7464  -11.6963 O   0  0  0  0  0  0  0  0  0  0  0  0
  2  3  1  0
  2  1  1  0
  3  4  2  0
  5  6  1  0
  7  6  1  1
  7  9  1  0
  8  7  1  0
  8  3  1  0
  9 10  2  0
 12 11  1  6
 13 12  1  0
 14 12  1  0
 15 14  1  1
 15 17  1  0
 16  9  1  0
 16 15  1  0
 17 18  2  0
 17 19  1  0
M  END
$$$$
