GSL.pdb
     RDKit          3D

 19 18  0  0  1  0  0  0  0  0999 V2000
   27.1435  -20.8330  -15.4333 N   0  0  0  0  0  0  0  0  0  0  0  0
   26.9375  -21.5813  -14.2186 C   0  0  0  0  0  0  0  0  0  0  0  0
   26.6257  -20.6519  -13.1011 C   0  0  0  0  0  0  0  0  0  0  0  0
   26.9927  -19.4703  -13.1604 O   0  0  0  0  0  0  0  0  0  0  0  0
   23.4584  -21.3215  -10.5379 O   0  0  0  0  0  0  0  0  0  0  0  0
   24.0441  -20.0651  -10.7438 C   0  0  0  0  0  0  0  0  0  0  0  0
   25.5217  -20.2826  -10.8527 C   0  0  2  0  0  0  0  0  0  0  0  0
   25.9084  -21.1069  -11.9616 N   0  0  0  0  0  0  0  0  0  0  0  0
   26.1378  -20.7767   -9.5904 C   0  0  0  0  0  0  0  0  0  0  0  0
   26.2184  -22.0052   -9.4074 O   0  0  0  0  0  0  0  0  0  0  0  0
   28.7270  -18.6260   -4.2644 C   0  0  0  0  0  0  0  0  0  0  0  0
   28.2956  -19.7253   -5.1882 C   0  0  2  0  0  0  0  0  0  0  0  0
   29.4225  -20.7633   -5.3535 C   0  0  0  0  0  0  0  0  0  0  0  0
   27.8103  -19.2951   -6.5260 C   0  0  0  0  0  0  0  0  0  0  0  0
   27.0360  -20.3010   -7.3160 C   0  0  2  0  0  0  0  0  0  0  0  0
   26.6273  -19.8549   -8.6080 N   0  0  0  0  0  0  0  0  0  0  0  0
   25.9176  -20.8911   -6.5371 C   0  0  0  0  0  0  0  0  0  0  0  0
   24.7543  -20.4383   -6.6898 O   0  0  0  0  0  0  0  0  0  0  0  0
   26.0920  -21.9262   -5.6412 O   0  0  0  0  0  0  0  0  0  0  0  0
  2  3  1  0
  2  1  1  0
  3  4  2  0
  5  6  1  0
  7  6  1  1
  7  9  1  0
  8  7  1  0
  8  3  1  0
  9 10  2  0
 12 11  1  6
 13 12  1  0
 14 12  1  0
 15 14  1  1
 15 17  1  0
 16  9  1  0
 16 15  1  0
 17 18  2  0
 17 19  1  0
M  END
$$$$
