GSL.pdb
     RDKit          3D

 19 18  0  0  1  0  0  0  0  0999 V2000
   23.6692  -30.8719  -16.2180 N   0  0  0  0  0  0  0  0  0  0  0  0
   23.1656  -32.2134  -16.0610 C   0  0  0  0  0  0  0  0  0  0  0  0
   22.6255  -32.3914  -14.6876 C   0  0  0  0  0  0  0  0  0  0  0  0
   22.6967  -31.4625  -13.8712 O   0  0  0  0  0  0  0  0  0  0  0  0
   20.0348  -35.1350  -14.2801 O   0  0  0  0  0  0  0  0  0  0  0  0
   20.4451  -34.9369  -12.9547 C   0  0  0  0  0  0  0  0  0  0  0  0
   21.5423  -33.9182  -12.9829 C   0  0  2  0  0  0  0  0  0  0  0  0
   22.0263  -33.6207  -14.3004 N   0  0  0  0  0  0  0  0  0  0  0  0
   22.6717  -34.2452  -12.0693 C   0  0  0  0  0  0  0  0  0  0  0  0
   23.7194  -34.7063  -12.5580 O   0  0  0  0  0  0  0  0  0  0  0  0
   25.9767  -32.1714   -7.5892 C   0  0  0  0  0  0  0  0  0  0  0  0
   25.5598  -33.3437   -8.4256 C   0  0  2  0  0  0  0  0  0  0  0  0
   26.7621  -33.8969   -9.2152 C   0  0  0  0  0  0  0  0  0  0  0  0
   24.4192  -33.1082   -9.3497 C   0  0  0  0  0  0  0  0  0  0  0  0
   23.6382  -34.3105   -9.7743 C   0  0  2  0  0  0  0  0  0  0  0  0
   22.5525  -34.0324  -10.6569 N   0  0  0  0  0  0  0  0  0  0  0  0
   23.2337  -35.1566   -8.6227 C   0  0  0  0  0  0  0  0  0  0  0  0
   22.0965  -34.9966   -8.1101 O   0  0  0  0  0  0  0  0  0  0  0  0
   24.0539  -36.1238   -8.0784 O   0  0  0  0  0  0  0  0  0  0  0  0
  2  3  1  0
  2  1  1  0
  3  4  2  0
  5  6  1  0
  7  6  1  6
  7  9  1  0
  8  7  1  0
  8  3  1  0
  9 10  2  0
 12 11  1  6
 13 12  1  0
 14 12  1  0
 15 14  1  1
 15 17  1  0
 16  9  1  0
 16 15  1  0
 17 18  2  0
 17 19  1  0
M  END
$$$$
