GSL.pdb
     RDKit          3D

 19 18  0  0  1  0  0  0  0  0999 V2000
   16.5174   -9.7530  -17.9600 N   0  0  0  0  0  0  0  0  0  0  0  0
   17.6734   -8.9316  -18.2189 C   0  0  0  0  0  0  0  0  0  0  0  0
   18.1594   -8.3311  -16.9489 C   0  0  0  0  0  0  0  0  0  0  0  0
   17.4101   -7.6021  -16.2845 O   0  0  0  0  0  0  0  0  0  0  0  0
   20.0864   -9.9631  -13.8462 O   0  0  0  0  0  0  0  0  0  0  0  0
   20.9163   -9.0851  -14.5566 C   0  0  0  0  0  0  0  0  0  0  0  0
   20.0237   -8.1034  -15.2511 C   0  0  2  0  0  0  0  0  0  0  0  0
   19.4796   -8.5856  -16.4879 N   0  0  0  0  0  0  0  0  0  0  0  0
   20.6533   -6.7673  -15.4392 C   0  0  0  0  0  0  0  0  0  0  0  0
   21.3689   -6.5811  -16.4405 O   0  0  0  0  0  0  0  0  0  0  0  0
   19.2306   -2.6390  -16.7109 C   0  0  0  0  0  0  0  0  0  0  0  0
   18.9252   -3.1617  -15.3393 C   0  0  2  0  0  0  0  0  0  0  0  0
   17.8232   -2.3151  -14.6732 C   0  0  0  0  0  0  0  0  0  0  0  0
   20.0865   -3.2859  -14.4192 C   0  0  0  0  0  0  0  0  0  0  0  0
   21.0195   -4.4282  -14.6642 C   0  0  2  0  0  0  0  0  0  0  0  0
   20.4384   -5.7188  -14.4858 N   0  0  0  0  0  0  0  0  0  0  0  0
   22.3032   -4.2756  -13.9331 C   0  0  0  0  0  0  0  0  0  0  0  0
   22.6239   -5.1288  -13.0666 O   0  0  0  0  0  0  0  0  0  0  0  0
   23.1750   -3.2300  -14.1591 O   0  0  0  0  0  0  0  0  0  0  0  0
  2  3  1  0
  2  1  1  0
  3  4  2  0
  5  6  1  0
  7  6  1  6
  7  9  1  0
  8  7  1  0
  8  3  1  0
  9 10  2  0
 12 11  1  6
 13 12  1  0
 14 12  1  0
 15 14  1  1
 15 17  1  0
 16  9  1  0
 16 15  1  0
 17 18  2  0
 17 19  1  0
M  END
$$$$
