HID.pdb
     RDKit          3D

 27 27  0  0  1  0  0  0  0  0999 V2000
   18.7195  -14.7249  -17.4603 N   0  0  0  0  0  0  0  0  0  0  0  0
   19.3415  -13.5452  -17.9787 C   0  0  1  0  0  0  0  0  0  0  0  0
   18.4310  -12.8236  -18.9628 C   0  0  0  0  0  0  0  0  0  0  0  0
   18.1034  -13.6493  -20.1211 C   0  0  0  0  0  0  0  0  0  0  0  0
   18.2692  -13.2872  -21.4363 C   0  0  0  0  0  0  0  0  0  0  0  0
   17.8570  -14.3069  -22.2350 N   0  0  0  0  0  0  0  0  0  0  0  0
   17.4466  -15.2736  -21.3889 C   0  0  0  0  0  0  0  0  0  0  0  0
   17.5918  -14.8853  -20.1071 N   0  0  0  0  0  0  0  0  0  0  0  0
   19.7443  -12.6045  -16.8686 C   0  0  0  0  0  0  0  0  0  0  0  0
   18.9947  -12.4330  -15.8860 O   0  0  0  0  0  0  0  0  0  0  0  0
   24.5328  -12.8974  -14.5544 C   0  0  0  0  0  0  0  0  0  0  0  0
   23.0757  -12.6218  -14.9046 C   0  0  0  0  0  0  0  0  0  0  0  0
   22.8872  -11.2741  -15.5092 C   0  0  2  0  0  0  0  0  0  0  0  0
   23.2823  -10.2707  -14.4108 C   0  0  0  0  0  0  0  0  0  0  0  0
   21.5280  -10.9853  -16.0649 C   0  0  2  0  0  0  0  0  0  0  0  0
   20.9809  -11.9386  -16.9843 N   0  0  0  0  0  0  0  0  0  0  0  0
   21.2158   -9.6014  -16.3810 C   0  0  0  0  0  0  0  0  0  0  0  0
   21.6553   -9.0171  -17.4030 O   0  0  0  0  0  0  0  0  0  0  0  0
   20.3750   -8.7654  -15.5572 N   0  0  0  0  0  0  0  0  0  0  0  0
   20.0938   -7.3961  -15.8382 C   0  0  1  0  0  0  0  0  0  0  0  0
   18.6592   -7.0603  -16.0278 C   0  0  0  0  0  0  0  0  0  0  0  0
   18.4253   -5.6184  -16.2459 C   0  0  0  0  0  0  0  0  0  0  0  0
   18.7010   -5.0441  -17.3215 O   0  0  0  0  0  0  0  0  0  0  0  0
   20.7277   -6.4661  -14.8671 C   0  0  0  0  0  0  0  0  0  0  0  0
   21.0059   -5.1813  -15.2823 O   0  0  0  0  0  0  0  0  0  0  0  0
   17.8751   -4.7995  -15.2506 O   0  0  0  0  0  0  0  0  0  0  0  0
   21.0063   -6.8152  -13.7128 O   0  0  0  0  0  0  0  0  0  0  0  0
  2  1  1  1
  2  3  1  0
  4  3  1  0
  5  4  2  0
  6  7  1  0
  6  5  1  0
  7  8  2  0
  8  4  1  0
  9 16  1  0
  9  2  1  0
 10  9  2  0
 12 11  1  0
 13 12  1  0
 13 14  1  1
 15 13  1  0
 15 16  1  6
 17 15  1  0
 18 17  2  0
 19 17  1  0
 20 19  1  0
 21 22  1  0
 20 21  1  1
 22 26  1  0
 23 22  2  0
 24 20  1  0
 24 25  1  0
 27 24  2  0
M  END
$$$$
