HID.pdb
     RDKit          3D

 27 27  0  0  1  0  0  0  0  0999 V2000
   22.9226  -20.5946  -14.2694 N   0  0  0  0  0  0  0  0  0  0  0  0
   22.0799  -20.0796  -13.2340 C   0  0  1  0  0  0  0  0  0  0  0  0
   20.6685  -19.8210  -13.7433 C   0  0  0  0  0  0  0  0  0  0  0  0
   20.6365  -18.8084  -14.7941 C   0  0  0  0  0  0  0  0  0  0  0  0
   21.6638  -17.9540  -15.1155 C   0  0  0  0  0  0  0  0  0  0  0  0
   21.2732  -17.1533  -16.1421 N   0  0  0  0  0  0  0  0  0  0  0  0
   20.0119  -17.5361  -16.4276 C   0  0  0  0  0  0  0  0  0  0  0  0
   19.6174  -18.5373  -15.6171 N   0  0  0  0  0  0  0  0  0  0  0  0
   22.0340  -21.0138  -12.0488 C   0  0  0  0  0  0  0  0  0  0  0  0
   21.8362  -22.2342  -12.2167 O   0  0  0  0  0  0  0  0  0  0  0  0
   25.6632  -20.0184   -8.0662 C   0  0  0  0  0  0  0  0  0  0  0  0
   24.7217  -20.7152   -9.0407 C   0  0  0  0  0  0  0  0  0  0  0  0
   23.3201  -20.7537   -8.5392 C   0  0  2  0  0  0  0  0  0  0  0  0
   23.3490  -21.6735   -7.3053 C   0  0  0  0  0  0  0  0  0  0  0  0
   22.2785  -21.1783   -9.5264 C   0  0  2  0  0  0  0  0  0  0  0  0
   22.2207  -20.4614  -10.7658 N   0  0  0  0  0  0  0  0  0  0  0  0
   20.9815  -21.5716   -9.0012 C   0  0  0  0  0  0  0  0  0  0  0  0
   20.0478  -20.7547   -8.8019 O   0  0  0  0  0  0  0  0  0  0  0  0
   20.6391  -22.9317   -8.6584 N   0  0  0  0  0  0  0  0  0  0  0  0
   19.3571  -23.3340   -8.1814 C   0  0  1  0  0  0  0  0  0  0  0  0
   18.7092  -24.4391   -8.9335 C   0  0  0  0  0  0  0  0  0  0  0  0
   17.3800  -24.8014   -8.4011 C   0  0  0  0  0  0  0  0  0  0  0  0
   17.2010  -25.7720   -7.6339 O   0  0  0  0  0  0  0  0  0  0  0  0
   19.3468  -23.6146   -6.7216 C   0  0  0  0  0  0  0  0  0  0  0  0
   18.1346  -23.6057   -6.0652 O   0  0  0  0  0  0  0  0  0  0  0  0
   16.2288  -24.0719   -8.7271 O   0  0  0  0  0  0  0  0  0  0  0  0
   20.3865  -23.8522   -6.0935 O   0  0  0  0  0  0  0  0  0  0  0  0
  2  1  1  6
  2  3  1  0
  4  3  1  0
  5  4  2  0
  6  7  1  0
  6  5  1  0
  7  8  2  0
  8  4  1  0
  9 16  1  0
  9  2  1  0
 10  9  2  0
 12 11  1  0
 13 12  1  0
 13 14  1  1
 15 13  1  0
 15 16  1  6
 17 15  1  0
 18 17  2  0
 19 17  1  0
 20 19  1  0
 21 22  1  0
 20 21  1  6
 22 26  1  0
 23 22  2  0
 24 20  1  0
 24 25  1  0
 27 24  2  0
M  END
$$$$
