HID.pdb
     RDKit          3D

 27 27  0  0  1  0  0  0  0  0999 V2000
   22.4958  -20.2682  -14.7787 N   0  0  0  0  0  0  0  0  0  0  0  0
   22.3965  -19.3258  -15.8507 C   0  0  1  0  0  0  0  0  0  0  0  0
   21.0255  -19.3773  -16.5108 C   0  0  0  0  0  0  0  0  0  0  0  0
   20.7408  -20.6850  -17.0936 C   0  0  0  0  0  0  0  0  0  0  0  0
   20.3457  -21.8031  -16.3992 C   0  0  0  0  0  0  0  0  0  0  0  0
   20.1743  -22.8320  -17.2708 N   0  0  0  0  0  0  0  0  0  0  0  0
   20.4691  -22.3198  -18.4830 C   0  0  0  0  0  0  0  0  0  0  0  0
   20.8132  -21.0209  -18.3864 N   0  0  0  0  0  0  0  0  0  0  0  0
   22.6841  -17.9219  -15.3754 C   0  0  0  0  0  0  0  0  0  0  0  0
   22.2189  -17.5171  -14.2908 O   0  0  0  0  0  0  0  0  0  0  0  0
   27.1670  -17.2174  -15.7234 C   0  0  0  0  0  0  0  0  0  0  0  0
   26.1390  -16.4074  -14.9430 C   0  0  0  0  0  0  0  0  0  0  0  0
   25.3620  -15.4891  -15.8207 C   0  0  2  0  0  0  0  0  0  0  0  0
   25.6564  -14.0717  -15.2975 C   0  0  0  0  0  0  0  0  0  0  0  0
   23.8920  -15.7542  -15.9147 C   0  0  2  0  0  0  0  0  0  0  0  0
   23.4863  -17.1002  -16.1922 N   0  0  0  0  0  0  0  0  0  0  0  0
   23.0694  -14.7379  -16.5496 C   0  0  0  0  0  0  0  0  0  0  0  0
   23.0895  -14.5157  -17.7862 O   0  0  0  0  0  0  0  0  0  0  0  0
   22.1531  -13.8878  -15.8271 N   0  0  0  0  0  0  0  0  0  0  0  0
   21.3599  -12.8720  -16.4370 C   0  0  1  0  0  0  0  0  0  0  0  0
   20.3268  -12.2540  -15.5667 C   0  0  0  0  0  0  0  0  0  0  0  0
   19.4962  -11.2565  -16.2716 C   0  0  0  0  0  0  0  0  0  0  0  0
   19.5685  -11.0673  -17.5050 O   0  0  0  0  0  0  0  0  0  0  0  0
   22.1771  -11.8264  -17.1069 C   0  0  0  0  0  0  0  0  0  0  0  0
   22.0137  -11.6418  -18.4632 O   0  0  0  0  0  0  0  0  0  0  0  0
   18.5683  -10.4548  -15.5933 O   0  0  0  0  0  0  0  0  0  0  0  0
   22.9878  -11.1298  -16.4829 O   0  0  0  0  0  0  0  0  0  0  0  0
  2  1  1  1
  2  3  1  0
  4  3  1  0
  5  4  2  0
  6  7  1  0
  6  5  1  0
  7  8  2  0
  8  4  1  0
  9 16  1  0
  9  2  1  0
 10  9  2  0
 12 11  1  0
 13 12  1  0
 13 14  1  1
 15 13  1  0
 15 16  1  6
 17 15  1  0
 18 17  2  0
 19 17  1  0
 20 19  1  0
 21 22  1  0
 20 21  1  1
 22 26  1  0
 23 22  2  0
 24 20  1  0
 24 25  1  0
 27 24  2  0
M  END
$$$$
