HID.pdb
     RDKit          3D

 27 27  0  0  1  0  0  0  0  0999 V2000
   21.7227  -13.5037  -19.3474 N   0  0  0  0  0  0  0  0  0  0  0  0
   21.7625  -12.0768  -19.4459 C   0  0  1  0  0  0  0  0  0  0  0  0
   20.5108  -11.5312  -20.1196 C   0  0  0  0  0  0  0  0  0  0  0  0
   20.3564  -12.0264  -21.4840 C   0  0  0  0  0  0  0  0  0  0  0  0
   19.4358  -12.9585  -21.8990 C   0  0  0  0  0  0  0  0  0  0  0  0
   19.5875  -13.1719  -23.2328 N   0  0  0  0  0  0  0  0  0  0  0  0
   20.6003  -12.3635  -23.6062 C   0  0  0  0  0  0  0  0  0  0  0  0
   21.0725  -11.6660  -22.5549 N   0  0  0  0  0  0  0  0  0  0  0  0
   21.9341  -11.4379  -18.0888 C   0  0  0  0  0  0  0  0  0  0  0  0
   21.2432  -11.8185  -17.1221 O   0  0  0  0  0  0  0  0  0  0  0  0
   26.2028   -9.7928  -14.2638 C   0  0  0  0  0  0  0  0  0  0  0  0
   24.8695   -9.3483  -14.8524 C   0  0  0  0  0  0  0  0  0  0  0  0
   24.5331  -10.0836  -16.1028 C   0  0  2  0  0  0  0  0  0  0  0  0
   25.7326   -9.8679  -17.0432 C   0  0  0  0  0  0  0  0  0  0  0  0
   23.2388   -9.7137  -16.7569 C   0  0  2  0  0  0  0  0  0  0  0  0
   22.8906  -10.4110  -17.9593 N   0  0  0  0  0  0  0  0  0  0  0  0
   22.8640   -8.3094  -16.7491 C   0  0  0  0  0  0  0  0  0  0  0  0
   23.3508   -7.4670  -17.5444 O   0  0  0  0  0  0  0  0  0  0  0  0
   21.9010   -7.7461  -15.8328 N   0  0  0  0  0  0  0  0  0  0  0  0
   21.5701   -6.3602  -15.7777 C   0  0  1  0  0  0  0  0  0  0  0  0
   20.1188   -6.0474  -15.7305 C   0  0  0  0  0  0  0  0  0  0  0  0
   19.8396   -4.5979  -15.6803 C   0  0  0  0  0  0  0  0  0  0  0  0
   19.9381   -3.8557  -16.6813 O   0  0  0  0  0  0  0  0  0  0  0  0
   22.2996   -5.6353  -14.7044 C   0  0  0  0  0  0  0  0  0  0  0  0
   22.5821   -4.2997  -14.8966 O   0  0  0  0  0  0  0  0  0  0  0  0
   19.4436   -3.9615  -14.4962 O   0  0  0  0  0  0  0  0  0  0  0  0
   22.6528   -6.1962  -13.6591 O   0  0  0  0  0  0  0  0  0  0  0  0
  2  1  1  1
  2  3  1  0
  4  3  1  0
  5  4  2  0
  6  7  1  0
  6  5  1  0
  7  8  2  0
  8  4  1  0
  9 16  1  0
  9  2  1  0
 10  9  2  0
 12 11  1  0
 13 12  1  0
 13 14  1  6
 15 13  1  0
 15 16  1  6
 17 15  1  0
 18 17  2  0
 19 17  1  0
 20 19  1  0
 21 22  1  0
 20 21  1  1
 22 26  1  0
 23 22  2  0
 24 20  1  0
 24 25  1  0
 27 24  2  0
M  END
$$$$
