HID.pdb
     RDKit          3D

 27 27  0  0  1  0  0  0  0  0999 V2000
   22.2428  -12.1588  -19.7121 N   0  0  0  0  0  0  0  0  0  0  0  0
   22.8484  -11.1822  -18.8595 C   0  0  1  0  0  0  0  0  0  0  0  0
   23.8516  -10.3260  -19.6203 C   0  0  0  0  0  0  0  0  0  0  0  0
   24.9754  -11.1084  -20.1261 C   0  0  0  0  0  0  0  0  0  0  0  0
   25.2964  -12.3891  -19.7451 C   0  0  0  0  0  0  0  0  0  0  0  0
   26.4021  -12.7927  -20.4248 N   0  0  0  0  0  0  0  0  0  0  0  0
   26.7348  -11.7473  -21.2093 C   0  0  0  0  0  0  0  0  0  0  0  0
   25.8773  -10.7229  -21.0357 N   0  0  0  0  0  0  0  0  0  0  0  0
   21.8089  -10.2998  -18.2113 C   0  0  0  0  0  0  0  0  0  0  0  0
   20.9086   -9.7779  -18.8997 O   0  0  0  0  0  0  0  0  0  0  0  0
   18.1852  -11.8115  -15.0562 C   0  0  0  0  0  0  0  0  0  0  0  0
   19.0775  -10.9819  -15.9712 C   0  0  0  0  0  0  0  0  0  0  0  0
   19.9835  -10.0801  -15.2076 C   0  0  2  0  0  0  0  0  0  0  0  0
   19.0573   -9.1370  -14.4188 C   0  0  0  0  0  0  0  0  0  0  0  0
   20.9932   -9.3242  -16.0132 C   0  0  2  0  0  0  0  0  0  0  0  0
   21.8944  -10.0924  -16.8200 N   0  0  0  0  0  0  0  0  0  0  0  0
   21.5905   -8.1485  -15.4020 C   0  0  0  0  0  0  0  0  0  0  0  0
   22.5357   -8.2121  -14.5764 O   0  0  0  0  0  0  0  0  0  0  0  0
   21.1599   -6.7989  -15.6809 N   0  0  0  0  0  0  0  0  0  0  0  0
   21.7309   -5.6401  -15.0774 C   0  0  1  0  0  0  0  0  0  0  0  0
   21.5950   -4.3794  -15.8511 C   0  0  0  0  0  0  0  0  0  0  0  0
   22.2494   -3.2264  -15.2002 C   0  0  0  0  0  0  0  0  0  0  0  0
   23.4908   -3.1253  -15.0938 O   0  0  0  0  0  0  0  0  0  0  0  0
   21.2887   -5.4447  -13.6717 C   0  0  0  0  0  0  0  0  0  0  0  0
   22.2091   -4.9759  -12.7587 O   0  0  0  0  0  0  0  0  0  0  0  0
   21.5109   -2.1663  -14.6574 O   0  0  0  0  0  0  0  0  0  0  0  0
   20.1307   -5.6899  -13.3097 O   0  0  0  0  0  0  0  0  0  0  0  0
  2  1  1  6
  2  3  1  0
  4  3  1  0
  5  4  2  0
  6  7  1  0
  6  5  1  0
  7  8  2  0
  8  4  1  0
  9 16  1  0
  9  2  1  0
 10  9  2  0
 12 11  1  0
 13 12  1  0
 13 14  1  6
 15 13  1  0
 15 16  1  1
 17 15  1  0
 18 17  2  0
 19 17  1  0
 20 19  1  0
 21 22  1  0
 20 21  1  6
 22 26  1  0
 23 22  2  0
 24 20  1  0
 24 25  1  0
 27 24  2  0
M  END
$$$$
