HID.pdb
     RDKit          3D

 27 27  0  0  1  0  0  0  0  0999 V2000
   22.5470  -12.1924  -19.2564 N   0  0  0  0  0  0  0  0  0  0  0  0
   22.9175  -10.8269  -19.0427 C   0  0  1  0  0  0  0  0  0  0  0  0
   22.7984  -10.0119  -20.3232 C   0  0  0  0  0  0  0  0  0  0  0  0
   23.6770  -10.5075  -21.3782 C   0  0  0  0  0  0  0  0  0  0  0  0
   25.0003  -10.8454  -21.2263 C   0  0  0  0  0  0  0  0  0  0  0  0
   25.4934  -11.2651  -22.4214 N   0  0  0  0  0  0  0  0  0  0  0  0
   24.4583  -11.1747  -23.2812 C   0  0  0  0  0  0  0  0  0  0  0  0
   23.3543  -10.7172  -22.6594 N   0  0  0  0  0  0  0  0  0  0  0  0
   22.0830  -10.1961  -17.9541 C   0  0  0  0  0  0  0  0  0  0  0  0
   20.8397  -10.2997  -17.9742 O   0  0  0  0  0  0  0  0  0  0  0  0
   21.9585   -9.4560  -11.9942 C   0  0  0  0  0  0  0  0  0  0  0  0
   21.7722   -8.7114  -13.3104 C   0  0  0  0  0  0  0  0  0  0  0  0
   22.3005   -9.4796  -14.4715 C   0  0  2  0  0  0  0  0  0  0  0  0
   23.7745   -9.7706  -14.1367 C   0  0  0  0  0  0  0  0  0  0  0  0
   22.1511   -8.8326  -15.8127 C   0  0  2  0  0  0  0  0  0  0  0  0
   22.7533   -9.4970  -16.9304 N   0  0  0  0  0  0  0  0  0  0  0  0
   22.2264   -7.3821  -15.8666 C   0  0  0  0  0  0  0  0  0  0  0  0
   23.3125   -6.7514  -15.8236 O   0  0  0  0  0  0  0  0  0  0  0  0
   21.0683   -6.5268  -15.9744 N   0  0  0  0  0  0  0  0  0  0  0  0
   21.1297   -5.1025  -15.9995 C   0  0  1  0  0  0  0  0  0  0  0  0
   20.5444   -4.4551  -17.2014 C   0  0  0  0  0  0  0  0  0  0  0  0
   20.6075   -2.9802  -17.1541 C   0  0  0  0  0  0  0  0  0  0  0  0
   21.6796   -2.3460  -17.2589 O   0  0  0  0  0  0  0  0  0  0  0  0
   20.6012   -4.4805  -14.7571 C   0  0  0  0  0  0  0  0  0  0  0  0
   21.1388   -3.2776  -14.3515 O   0  0  0  0  0  0  0  0  0  0  0  0
   19.4584   -2.1957  -16.9872 O   0  0  0  0  0  0  0  0  0  0  0  0
   19.7036   -5.0110  -14.0901 O   0  0  0  0  0  0  0  0  0  0  0  0
  2  1  1  6
  2  3  1  0
  4  3  1  0
  5  4  2  0
  6  7  1  0
  6  5  1  0
  7  8  2  0
  8  4  1  0
  9 16  1  0
  9  2  1  0
 10  9  2  0
 12 11  1  0
 13 12  1  0
 13 14  1  1
 15 13  1  0
 15 16  1  6
 17 15  1  0
 18 17  2  0
 19 17  1  0
 20 19  1  0
 21 22  1  0
 20 21  1  6
 22 26  1  0
 23 22  2  0
 24 20  1  0
 24 25  1  0
 27 24  2  0
M  END
$$$$
