HID.pdb
     RDKit          3D

 27 27  0  0  1  0  0  0  0  0999 V2000
   25.7942  -21.0692  -13.2869 N   0  0  0  0  0  0  0  0  0  0  0  0
   25.0020  -20.3637  -12.3267 C   0  0  1  0  0  0  0  0  0  0  0  0
   23.5520  -20.2514  -12.7774 C   0  0  0  0  0  0  0  0  0  0  0  0
   23.4213  -19.5506  -14.0512 C   0  0  0  0  0  0  0  0  0  0  0  0
   23.3194  -20.1447  -15.2861 C   0  0  0  0  0  0  0  0  0  0  0  0
   23.2131  -19.1800  -16.2377 N   0  0  0  0  0  0  0  0  0  0  0  0
   23.2524  -18.0131  -15.5627 C   0  0  0  0  0  0  0  0  0  0  0  0
   23.3783  -18.2267  -14.2385 N   0  0  0  0  0  0  0  0  0  0  0  0
   25.0675  -21.0236  -10.9703 C   0  0  0  0  0  0  0  0  0  0  0  0
   24.7613  -22.2260  -10.8400 O   0  0  0  0  0  0  0  0  0  0  0  0
   28.0336  -20.0501   -5.5789 C   0  0  0  0  0  0  0  0  0  0  0  0
   26.8547  -20.6659   -6.3224 C   0  0  0  0  0  0  0  0  0  0  0  0
   26.7151  -20.1251   -7.7027 C   0  0  2  0  0  0  0  0  0  0  0  0
   26.6338  -18.5965   -7.5402 C   0  0  0  0  0  0  0  0  0  0  0  0
   25.5734  -20.6612   -8.5082 C   0  0  2  0  0  0  0  0  0  0  0  0
   25.4820  -20.2399   -9.8747 N   0  0  0  0  0  0  0  0  0  0  0  0
   24.2913  -20.8022   -7.8380 C   0  0  0  0  0  0  0  0  0  0  0  0
   23.4139  -19.9026   -7.8436 O   0  0  0  0  0  0  0  0  0  0  0  0
   23.9008  -21.9824   -7.1039 N   0  0  0  0  0  0  0  0  0  0  0  0
   22.6695  -22.1088   -6.3961 C   0  0  1  0  0  0  0  0  0  0  0  0
   22.0052  -23.4339   -6.4937 C   0  0  0  0  0  0  0  0  0  0  0  0
   21.0329  -23.5147   -7.6025 C   0  0  0  0  0  0  0  0  0  0  0  0
   20.5939  -22.5033   -8.1914 O   0  0  0  0  0  0  0  0  0  0  0  0
   22.7722  -21.6751   -4.9780 C   0  0  0  0  0  0  0  0  0  0  0  0
   21.6205  -21.2754   -4.3343 O   0  0  0  0  0  0  0  0  0  0  0  0
   20.5394  -24.7419   -8.0655 O   0  0  0  0  0  0  0  0  0  0  0  0
   23.8519  -21.6656   -4.3730 O   0  0  0  0  0  0  0  0  0  0  0  0
  2  1  1  6
  2  3  1  0
  4  3  1  0
  5  4  2  0
  6  7  1  0
  6  5  1  0
  7  8  2  0
  8  4  1  0
  9 16  1  0
  9  2  1  0
 10  9  2  0
 12 11  1  0
 13 12  1  0
 13 14  1  1
 15 13  1  0
 15 16  1  6
 17 15  1  0
 18 17  2  0
 19 17  1  0
 20 19  1  0
 21 22  1  0
 20 21  1  1
 22 26  1  0
 23 22  2  0
 24 20  1  0
 24 25  1  0
 27 24  2  0
M  END
$$$$
