HID.pdb
     RDKit          3D

 27 27  0  0  1  0  0  0  0  0999 V2000
   18.5678  -14.6944  -16.9403 N   0  0  0  0  0  0  0  0  0  0  0  0
   19.1968  -13.5617  -17.5474 C   0  0  1  0  0  0  0  0  0  0  0  0
   18.2215  -12.7879  -18.4238 C   0  0  0  0  0  0  0  0  0  0  0  0
   17.6566  -13.6145  -19.4861 C   0  0  0  0  0  0  0  0  0  0  0  0
   16.3501  -14.0326  -19.5674 C   0  0  0  0  0  0  0  0  0  0  0  0
   16.1910  -14.7829  -20.6896 N   0  0  0  0  0  0  0  0  0  0  0  0
   17.4070  -14.8078  -21.2723 C   0  0  0  0  0  0  0  0  0  0  0  0
   18.3010  -14.1035  -20.5515 N   0  0  0  0  0  0  0  0  0  0  0  0
   19.7923  -12.6425  -16.5081 C   0  0  0  0  0  0  0  0  0  0  0  0
   19.1393  -12.3371  -15.4898 O   0  0  0  0  0  0  0  0  0  0  0  0
   24.6909  -13.7649  -14.8175 C   0  0  0  0  0  0  0  0  0  0  0  0
   23.2622  -13.2892  -15.0505 C   0  0  0  0  0  0  0  0  0  0  0  0
   23.2019  -11.8479  -15.4197 C   0  0  2  0  0  0  0  0  0  0  0  0
   23.7522  -11.0868  -14.2001 C   0  0  0  0  0  0  0  0  0  0  0  0
   21.8621  -11.3310  -15.8409 C   0  0  2  0  0  0  0  0  0  0  0  0
   21.0944  -12.1513  -16.7303 N   0  0  0  0  0  0  0  0  0  0  0  0
   21.7454   -9.9040  -16.0915 C   0  0  0  0  0  0  0  0  0  0  0  0
   22.3742   -9.3166  -17.0072 O   0  0  0  0  0  0  0  0  0  0  0  0
   20.9006   -9.0250  -15.3181 N   0  0  0  0  0  0  0  0  0  0  0  0
   20.7633   -7.6282  -15.5692 C   0  0  1  0  0  0  0  0  0  0  0  0
   19.3704   -7.1385  -15.7328 C   0  0  0  0  0  0  0  0  0  0  0  0
   18.6349   -7.8319  -16.8097 C   0  0  0  0  0  0  0  0  0  0  0  0
   19.2025   -8.3145  -17.8135 O   0  0  0  0  0  0  0  0  0  0  0  0
   21.5035   -6.7906  -14.5892 C   0  0  0  0  0  0  0  0  0  0  0  0
   21.6433   -5.4455  -14.8567 O   0  0  0  0  0  0  0  0  0  0  0  0
   17.2433   -7.9921  -16.7705 O   0  0  0  0  0  0  0  0  0  0  0  0
   21.9889   -7.2675  -13.5554 O   0  0  0  0  0  0  0  0  0  0  0  0
  2  1  1  1
  2  3  1  0
  4  3  1  0
  5  4  2  0
  6  7  1  0
  6  5  1  0
  7  8  2  0
  8  4  1  0
  9 16  1  0
  9  2  1  0
 10  9  2  0
 12 11  1  0
 13 12  1  0
 13 14  1  1
 15 13  1  0
 15 16  1  6
 17 15  1  0
 18 17  2  0
 19 17  1  0
 20 19  1  0
 21 22  1  0
 20 21  1  1
 22 26  1  0
 23 22  2  0
 24 20  1  0
 24 25  1  0
 27 24  2  0
M  END
$$$$
