HID.pdb
     RDKit          3D

 27 27  0  0  1  0  0  0  0  0999 V2000
   29.3082  -23.0979  -16.4327 N   0  0  0  0  0  0  0  0  0  0  0  0
   28.0232  -22.7765  -16.9739 C   0  0  1  0  0  0  0  0  0  0  0  0
   27.2153  -24.0324  -17.2708 C   0  0  0  0  0  0  0  0  0  0  0  0
   27.8354  -24.8580  -18.3026 C   0  0  0  0  0  0  0  0  0  0  0  0
   27.4040  -24.9752  -19.6021 C   0  0  0  0  0  0  0  0  0  0  0  0
   28.2250  -25.8287  -20.2693 N   0  0  0  0  0  0  0  0  0  0  0  0
   29.1436  -26.2164  -19.3611 C   0  0  0  0  0  0  0  0  0  0  0  0
   28.9164  -25.6344  -18.1676 N   0  0  0  0  0  0  0  0  0  0  0  0
   27.2464  -21.8752  -16.0444 C   0  0  0  0  0  0  0  0  0  0  0  0
   27.3098  -22.0401  -14.8093 O   0  0  0  0  0  0  0  0  0  0  0  0
   28.3540  -17.1300  -16.3389 C   0  0  0  0  0  0  0  0  0  0  0  0
   27.7115  -18.3068  -15.6151 C   0  0  0  0  0  0  0  0  0  0  0  0
   26.2683  -18.4544  -15.9510 C   0  0  2  0  0  0  0  0  0  0  0  0
   25.5217  -17.5223  -14.9799 C   0  0  0  0  0  0  0  0  0  0  0  0
   25.7228  -19.8476  -15.9164 C   0  0  2  0  0  0  0  0  0  0  0  0
   26.4597  -20.8564  -16.6182 N   0  0  0  0  0  0  0  0  0  0  0  0
   24.2793  -20.0016  -15.9881 C   0  0  0  0  0  0  0  0  0  0  0  0
   23.6511  -20.0637  -17.0746 O   0  0  0  0  0  0  0  0  0  0  0  0
   23.4288  -20.0979  -14.8254 N   0  0  0  0  0  0  0  0  0  0  0  0
   22.0076  -20.1963  -14.8843 C   0  0  1  0  0  0  0  0  0  0  0  0
   21.4383  -21.5145  -14.5038 C   0  0  0  0  0  0  0  0  0  0  0  0
   19.9655  -21.5610  -14.6054 C   0  0  0  0  0  0  0  0  0  0  0  0
   19.3691  -21.7848  -15.6810 O   0  0  0  0  0  0  0  0  0  0  0  0
   21.3226  -19.0972  -14.1545 C   0  0  0  0  0  0  0  0  0  0  0  0
   20.0935  -18.6763  -14.6156 O   0  0  0  0  0  0  0  0  0  0  0  0
   19.1405  -21.3551  -13.4916 O   0  0  0  0  0  0  0  0  0  0  0  0
   21.8243  -18.5609  -13.1582 O   0  0  0  0  0  0  0  0  0  0  0  0
  2  1  1  1
  2  3  1  0
  4  3  1  0
  5  4  2  0
  6  7  1  0
  6  5  1  0
  7  8  2  0
  8  4  1  0
  9 16  1  0
  9  2  1  0
 10  9  2  0
 12 11  1  0
 13 12  1  0
 13 14  1  1
 15 13  1  0
 15 16  1  6
 17 15  1  0
 18 17  2  0
 19 17  1  0
 20 19  1  0
 21 22  1  0
 20 21  1  1
 22 26  1  0
 23 22  2  0
 24 20  1  0
 24 25  1  0
 27 24  2  0
M  END
$$$$
