HID.pdb
     RDKit          3D

 27 27  0  0  1  0  0  0  0  0999 V2000
   18.7517  -14.8341  -16.2818 N   0  0  0  0  0  0  0  0  0  0  0  0
   18.7487  -13.5318  -16.8744 C   0  0  1  0  0  0  0  0  0  0  0  0
   17.3358  -13.0812  -17.2190 C   0  0  0  0  0  0  0  0  0  0  0  0
   16.6795  -13.9872  -18.1566 C   0  0  0  0  0  0  0  0  0  0  0  0
   17.1067  -14.2679  -19.4322 C   0  0  0  0  0  0  0  0  0  0  0  0
   16.2480  -15.1518  -20.0058 N   0  0  0  0  0  0  0  0  0  0  0  0
   15.3112  -15.3934  -19.0662 C   0  0  0  0  0  0  0  0  0  0  0  0
   15.5635  -14.6932  -17.9433 N   0  0  0  0  0  0  0  0  0  0  0  0
   19.4044  -12.5161  -15.9699 C   0  0  0  0  0  0  0  0  0  0  0  0
   18.9843  -12.3445  -14.8076 O   0  0  0  0  0  0  0  0  0  0  0  0
   24.5465  -12.6234  -14.9741 C   0  0  0  0  0  0  0  0  0  0  0  0
   23.0442  -12.3692  -14.9864 C   0  0  0  0  0  0  0  0  0  0  0  0
   22.7022  -11.0443  -15.5739 C   0  0  2  0  0  0  0  0  0  0  0  0
   23.3425  -10.0017  -14.6399 C   0  0  0  0  0  0  0  0  0  0  0  0
   21.2461  -10.7766  -15.7927 C   0  0  2  0  0  0  0  0  0  0  0  0
   20.4925  -11.7815  -16.4823 N   0  0  0  0  0  0  0  0  0  0  0  0
   20.8585   -9.4127  -16.1124 C   0  0  0  0  0  0  0  0  0  0  0  0
   21.0880   -8.8797  -17.2270 O   0  0  0  0  0  0  0  0  0  0  0  0
   20.1754   -8.5401  -15.1871 N   0  0  0  0  0  0  0  0  0  0  0  0
   19.7954   -7.1995  -15.4894 C   0  0  1  0  0  0  0  0  0  0  0  0
   18.6464   -6.6665  -14.7132 C   0  0  0  0  0  0  0  0  0  0  0  0
   18.2296   -5.3176  -15.1469 C   0  0  0  0  0  0  0  0  0  0  0  0
   17.5279   -5.1211  -16.1625 O   0  0  0  0  0  0  0  0  0  0  0  0
   20.9407   -6.2526  -15.4505 C   0  0  0  0  0  0  0  0  0  0  0  0
   21.0842   -5.3610  -16.4921 O   0  0  0  0  0  0  0  0  0  0  0  0
   18.5994   -4.1660  -14.4392 O   0  0  0  0  0  0  0  0  0  0  0  0
   21.7547   -6.2480  -14.5181 O   0  0  0  0  0  0  0  0  0  0  0  0
  2  1  1  1
  2  3  1  0
  4  3  1  0
  5  4  2  0
  6  7  1  0
  6  5  1  0
  7  8  2  0
  8  4  1  0
  9 16  1  0
  9  2  1  0
 10  9  2  0
 12 11  1  0
 13 12  1  0
 13 14  1  1
 15 13  1  0
 15 16  1  6
 17 15  1  0
 18 17  2  0
 19 17  1  0
 20 19  1  0
 21 22  1  0
 20 21  1  1
 22 26  1  0
 23 22  2  0
 24 20  1  0
 24 25  1  0
 27 24  2  0
M  END
$$$$
