HID.pdb
     RDKit          3D

 27 27  0  0  1  0  0  0  0  0999 V2000
   20.0214  -13.4652  -16.8342 N   0  0  0  0  0  0  0  0  0  0  0  0
   20.5189  -12.2665  -17.4367 C   0  0  1  0  0  0  0  0  0  0  0  0
   19.4112  -11.5001  -18.1465 C   0  0  0  0  0  0  0  0  0  0  0  0
   18.7822  -12.2880  -19.2021 C   0  0  0  0  0  0  0  0  0  0  0  0
   19.2101  -12.3683  -20.5055 C   0  0  0  0  0  0  0  0  0  0  0  0
   18.3807  -13.1937  -21.1972 N   0  0  0  0  0  0  0  0  0  0  0  0
   17.4606  -13.6018  -20.2996 C   0  0  0  0  0  0  0  0  0  0  0  0
   17.6949  -13.0591  -19.0890 N   0  0  0  0  0  0  0  0  0  0  0  0
   21.1859  -11.3757  -16.4163 C   0  0  0  0  0  0  0  0  0  0  0  0
   20.6388  -11.1600  -15.3158 O   0  0  0  0  0  0  0  0  0  0  0  0
   26.4485  -11.8775  -15.2570 C   0  0  0  0  0  0  0  0  0  0  0  0
   24.9503  -11.6022  -15.2952 C   0  0  0  0  0  0  0  0  0  0  0  0
   24.6439  -10.2169  -15.7473 C   0  0  2  0  0  0  0  0  0  0  0  0
   25.2943   -9.2898  -14.7047 C   0  0  0  0  0  0  0  0  0  0  0  0
   23.1967   -9.8957  -15.9527 C   0  0  2  0  0  0  0  0  0  0  0  0
   22.4311  -10.8069  -16.7507 N   0  0  0  0  0  0  0  0  0  0  0  0
   22.8420   -8.4977  -16.1334 C   0  0  0  0  0  0  0  0  0  0  0  0
   23.1203   -7.8503  -17.1738 O   0  0  0  0  0  0  0  0  0  0  0  0
   22.1389   -7.7188  -15.1418 N   0  0  0  0  0  0  0  0  0  0  0  0
   21.8160   -6.3385  -15.2955 C   0  0  1  0  0  0  0  0  0  0  0  0
   20.3796   -6.0359  -15.5232 C   0  0  0  0  0  0  0  0  0  0  0  0
   20.1102   -4.5931  -15.6880 C   0  0  0  0  0  0  0  0  0  0  0  0
   20.9404   -3.8034  -16.1876 O   0  0  0  0  0  0  0  0  0  0  0  0
   22.3650   -5.4926  -14.2033 C   0  0  0  0  0  0  0  0  0  0  0  0
   22.5231   -4.1439  -14.4410 O   0  0  0  0  0  0  0  0  0  0  0  0
   18.8961   -4.0173  -15.2904 O   0  0  0  0  0  0  0  0  0  0  0  0
   22.6779   -5.9659  -13.1033 O   0  0  0  0  0  0  0  0  0  0  0  0
  2  1  1  1
  2  3  1  0
  4  3  1  0
  5  4  2  0
  6  7  1  0
  6  5  1  0
  7  8  2  0
  8  4  1  0
  9 16  1  0
  9  2  1  0
 10  9  2  0
 12 11  1  0
 13 12  1  0
 13 14  1  1
 15 13  1  0
 15 16  1  6
 17 15  1  0
 18 17  2  0
 19 17  1  0
 20 19  1  0
 21 22  1  0
 20 21  1  1
 22 26  1  0
 23 22  2  0
 24 20  1  0
 24 25  1  0
 27 24  2  0
M  END
$$$$
