HID.pdb
     RDKit          3D

 27 27  0  0  1  0  0  0  0  0999 V2000
   27.9004  -22.4220  -16.5951 N   0  0  0  0  0  0  0  0  0  0  0  0
   27.2708  -21.2887  -15.9897 C   0  0  1  0  0  0  0  0  0  0  0  0
   26.6526  -20.3716  -17.0361 C   0  0  0  0  0  0  0  0  0  0  0  0
   27.6572  -19.7716  -17.9088 C   0  0  0  0  0  0  0  0  0  0  0  0
   27.9007  -20.1272  -19.2137 C   0  0  0  0  0  0  0  0  0  0  0  0
   28.9043  -19.3542  -19.7066 N   0  0  0  0  0  0  0  0  0  0  0  0
   29.2542  -18.5401  -18.6899 C   0  0  0  0  0  0  0  0  0  0  0  0
   28.5052  -18.7850  -17.5973 N   0  0  0  0  0  0  0  0  0  0  0  0
   26.2183  -21.7129  -14.9938 C   0  0  0  0  0  0  0  0  0  0  0  0
   25.5426  -22.7428  -15.1925 O   0  0  0  0  0  0  0  0  0  0  0  0
   25.1879  -20.8850   -8.9220 C   0  0  0  0  0  0  0  0  0  0  0  0
   24.6019  -21.1605  -10.3014 C   0  0  0  0  0  0  0  0  0  0  0  0
   25.6044  -20.9735  -11.3865 C   0  0  2  0  0  0  0  0  0  0  0  0
   26.2011  -19.5728  -11.1593 C   0  0  0  0  0  0  0  0  0  0  0  0
   25.1008  -21.1444  -12.7854 C   0  0  2  0  0  0  0  0  0  0  0  0
   26.0324  -20.9122  -13.8491 N   0  0  0  0  0  0  0  0  0  0  0  0
   23.7468  -20.6973  -13.0671 C   0  0  0  0  0  0  0  0  0  0  0  0
   23.4668  -19.5092  -13.3656 O   0  0  0  0  0  0  0  0  0  0  0  0
   22.5959  -21.5683  -13.0322 N   0  0  0  0  0  0  0  0  0  0  0  0
   21.2759  -21.1582  -13.3821 C   0  0  1  0  0  0  0  0  0  0  0  0
   20.6317  -21.9301  -14.4756 C   0  0  0  0  0  0  0  0  0  0  0  0
   19.3108  -21.3945  -14.8630 C   0  0  0  0  0  0  0  0  0  0  0  0
   19.1268  -20.1916  -15.1489 O   0  0  0  0  0  0  0  0  0  0  0  0
   20.3722  -21.0579  -12.2060 C   0  0  0  0  0  0  0  0  0  0  0  0
   19.1551  -20.4321  -12.3715 O   0  0  0  0  0  0  0  0  0  0  0  0
   18.1738  -22.2105  -14.9340 O   0  0  0  0  0  0  0  0  0  0  0  0
   20.6844  -21.5170  -11.0998 O   0  0  0  0  0  0  0  0  0  0  0  0
  2  1  1  6
  2  3  1  0
  4  3  1  0
  5  4  2  0
  6  7  1  0
  6  5  1  0
  7  8  2  0
  8  4  1  0
  9 16  1  0
  9  2  1  0
 10  9  2  0
 12 11  1  0
 13 12  1  0
 13 14  1  6
 15 13  1  0
 15 16  1  6
 17 15  1  0
 18 17  2  0
 19 17  1  0
 20 19  1  0
 21 22  1  0
 20 21  1  6
 22 26  1  0
 23 22  2  0
 24 20  1  0
 24 25  1  0
 27 24  2  0
M  END
$$$$
