RYW.pdb
     RDKit          3D

 38 40  0  0  1  0  0  0  0  0999 V2000
   11.1459  -14.5363   14.6209 N   0  0  0  0  0  0  0  0  0  0  0  0
    9.9483  -15.2787   14.5958 C   0  0  0  0  0  0  0  0  0  0  0  0
    8.7959  -14.7321   14.3606 N   0  0  0  0  0  0  0  0  0  0  0  0
   10.0279  -16.6646   14.8377 N   0  0  0  0  0  0  0  0  0  0  0  0
   11.3004  -17.2444   15.2050 C   0  0  0  0  0  0  0  0  0  0  0  0
   11.1610  -18.1664   16.3908 C   0  0  0  0  0  0  0  0  0  0  0  0
   11.0087  -17.3237   17.6309 C   0  0  0  0  0  0  0  0  0  0  0  0
   10.8900  -18.1795   18.8710 C   0  0  2  0  0  0  0  0  0  0  0  0
    9.7412  -19.0452   18.8361 N   0  0  0  0  0  0  0  0  0  0  0  0
   10.7782  -17.3292   20.0924 C   0  0  0  0  0  0  0  0  0  0  0  0
   11.7286  -16.5465   20.4377 O   0  0  0  0  0  0  0  0  0  0  0  0
    7.9646  -15.3194   14.2165 O   0  0  0  0  0  0  0  0  0  0  0  0
    7.4802  -12.8169   17.1361 C   0  0  0  0  0  0  0  0  0  0  0  0
    7.6450  -13.5409   18.3098 C   0  0  0  0  0  0  0  0  0  0  0  0
    7.1652  -14.8358   18.4655 C   0  0  0  0  0  0  0  0  0  0  0  0
    7.3421  -15.5146   19.6219 C   0  0  0  0  0  0  0  0  0  0  0  0
    8.0032  -14.9373   20.6760 C   0  0  0  0  0  0  0  0  0  0  0  0
    8.2042  -15.6467   21.9624 C   0  0  2  0  0  0  0  0  0  0  0  0
    9.4835  -16.4069   22.0464 N   0  0  0  0  0  0  0  0  0  0  0  0
    9.6458  -17.3306   20.9273 C   0  0  0  0  0  0  0  0  0  0  0  0
    9.4973  -17.1953   23.2832 O   0  0  0  0  0  0  0  0  0  0  0  0
    8.7201  -18.1690   23.5004 C   0  0  0  0  0  0  0  0  0  0  0  0
    8.4913  -13.6583   20.5583 C   0  0  0  0  0  0  0  0  0  0  0  0
    8.3137  -12.9707   19.3901 N   0  0  0  0  0  0  0  0  0  0  0  0
   10.4212  -16.8682   24.3039 C   0  0  1  0  0  0  0  0  0  0  0  0
   10.0398  -16.1761   25.5293 C   0  0  0  0  0  0  0  0  0  0  0  0
    9.7851  -14.7493   25.0975 C   0  0  0  0  0  0  0  0  0  0  0  0
    9.2685  -13.9849   26.2482 C   0  0  0  0  0  0  0  0  0  0  0  0
    9.7630  -14.0734   27.5455 N   0  0  0  0  0  0  0  0  0  0  0  0
    9.1036  -13.2097   28.3134 C   0  0  0  0  0  0  0  0  0  0  0  0
    8.2013  -12.5623   27.5779 C   0  0  0  0  0  0  0  0  0  0  0  0
    7.2691  -11.5891   27.8784 C   0  0  0  0  0  0  0  0  0  0  0  0
    6.4243  -11.0811   26.9153 C   0  0  0  0  0  0  0  0  0  0  0  0
    6.5024  -11.5482   25.6182 C   0  0  0  0  0  0  0  0  0  0  0  0
    7.4352  -12.5160   25.3348 C   0  0  0  0  0  0  0  0  0  0  0  0
    8.2911  -13.0368   26.2830 C   0  0  0  0  0  0  0  0  0  0  0  0
    8.9787  -16.8433   26.2468 O   0  0  0  0  0  0  0  0  0  0  0  0
    9.1148  -17.2428   27.4349 O   0  0  0  0  0  0  0  0  0  0  0  0
  2  1  1  0
  2  3  2  0
  4  5  1  0
  4  2  1  0
  5  6  1  0
  6  7  1  0
  7  8  1  0
  8  9  1  6
 10 11  2  0
 10  8  1  0
 12 13  1  0
 13 23  2  0
 13 14  1  0
 14 15  2  0
 15 16  1  0
 16 17  1  0
 18 17  1  6
 18 19  1  0
 18 20  1  0
 19 10  1  0
 20 21  2  0
 22 16  2  0
 23 22  1  0
 24 20  1  0
 24 25  1  0
 25 26  1  1
 26 27  1  0
 27 28  2  0
 28 29  1  0
 30 31  2  0
 30 29  1  0
 32 31  1  0
 33 32  2  0
 34 33  1  0
 34 35  2  0
 35 27  1  0
 35 30  1  0
 36 25  1  0
 36 38  1  0
 37 36  2  0
M  END
$$$$
