RYW.pdb
     RDKit          3D

 38 40  0  0  1  0  0  0  0  0999 V2000
    9.5490  -14.1814   16.2945 N   0  0  0  0  0  0  0  0  0  0  0  0
    9.5791  -15.3081   15.4486 C   0  0  0  0  0  0  0  0  0  0  0  0
    9.0496  -15.3034   14.2646 N   0  0  0  0  0  0  0  0  0  0  0  0
   10.2127  -16.4727   15.9259 N   0  0  0  0  0  0  0  0  0  0  0  0
   10.7421  -16.4865   17.2713 C   0  0  0  0  0  0  0  0  0  0  0  0
    9.6913  -16.0890   18.2781 C   0  0  0  0  0  0  0  0  0  0  0  0
   10.3405  -16.0140   19.6361 C   0  0  0  0  0  0  0  0  0  0  0  0
    9.3141  -15.8408   20.7318 C   0  0  2  0  0  0  0  0  0  0  0  0
    8.8726  -14.4777   20.8639 N   0  0  0  0  0  0  0  0  0  0  0  0
    9.8702  -16.2655   22.0501 C   0  0  0  0  0  0  0  0  0  0  0  0
   10.3652  -17.4336   22.2092 O   0  0  0  0  0  0  0  0  0  0  0  0
    9.1664  -16.1133   13.6425 O   0  0  0  0  0  0  0  0  0  0  0  0
   11.5502  -15.5584   30.7729 C   0  0  0  0  0  0  0  0  0  0  0  0
   11.4222  -15.3541   29.4051 C   0  0  0  0  0  0  0  0  0  0  0  0
   12.2279  -15.9965   28.4727 C   0  0  0  0  0  0  0  0  0  0  0  0
   12.0780  -15.7760   27.1466 C   0  0  0  0  0  0  0  0  0  0  0  0
   11.1214  -14.9071   26.6872 C   0  0  0  0  0  0  0  0  0  0  0  0
   10.9374  -14.6315   25.2420 C   0  0  1  0  0  0  0  0  0  0  0  0
   10.5071  -15.8155   24.4452 N   0  0  0  0  0  0  0  0  0  0  0  0
    9.8875  -15.4287   23.1810 C   0  0  0  0  0  0  0  0  0  0  0  0
    9.5190  -16.5814   25.2123 O   0  0  0  0  0  0  0  0  0  0  0  0
    9.8091  -17.2784   26.2270 C   0  0  0  0  0  0  0  0  0  0  0  0
   10.3065  -14.2538   27.5802 C   0  0  0  0  0  0  0  0  0  0  0  0
   10.4562  -14.4756   28.9209 N   0  0  0  0  0  0  0  0  0  0  0  0
    8.1610  -16.5551   24.8154 C   0  0  1  0  0  0  0  0  0  0  0  0
    7.1432  -17.4154   25.4070 C   0  0  0  0  0  0  0  0  0  0  0  0
    5.9145  -16.5393   25.5061 C   0  0  0  0  0  0  0  0  0  0  0  0
    6.3255  -15.1254   25.4220 C   0  0  0  0  0  0  0  0  0  0  0  0
    6.5995  -14.4483   24.2381 N   0  0  0  0  0  0  0  0  0  0  0  0
    6.8850  -13.1813   24.5273 C   0  0  0  0  0  0  0  0  0  0  0  0
    6.8109  -13.0003   25.8449 C   0  0  0  0  0  0  0  0  0  0  0  0
    7.0176  -11.9009   26.6544 C   0  0  0  0  0  0  0  0  0  0  0  0
    6.8861  -11.9817   28.0238 C   0  0  0  0  0  0  0  0  0  0  0  0
    6.5407  -13.1831   28.6106 C   0  0  0  0  0  0  0  0  0  0  0  0
    6.3378  -14.2675   27.7920 C   0  0  0  0  0  0  0  0  0  0  0  0
    6.4626  -14.2080   26.4194 C   0  0  0  0  0  0  0  0  0  0  0  0
    6.9966  -18.6742   24.7142 O   0  0  0  0  0  0  0  0  0  0  0  0
    7.5421  -18.8987   23.5999 O   0  0  0  0  0  0  0  0  0  0  0  0
  2  1  1  0
  2  3  2  0
  4  5  1  0
  4  2  1  0
  5  6  1  0
  6  7  1  0
  7  8  1  0
  8  9  1  1
 10 11  2  0
 10  8  1  0
 12 13  1  0
 13 23  2  0
 13 14  1  0
 14 15  2  0
 15 16  1  0
 16 17  1  0
 18 17  1  6
 18 19  1  0
 18 20  1  0
 19 10  1  0
 20 21  2  0
 22 16  2  0
 23 22  1  0
 24 20  1  0
 24 25  1  0
 25 26  1  1
 26 27  1  0
 27 28  2  0
 28 29  1  0
 30 31  2  0
 30 29  1  0
 32 31  1  0
 33 32  2  0
 34 33  1  0
 34 35  2  0
 35 27  1  0
 35 30  1  0
 36 25  1  0
 36 38  1  0
 37 36  2  0
M  END
$$$$
