RYW.pdb
     RDKit          3D

 38 40  0  0  1  0  0  0  0  0999 V2000
    8.9369  -17.0159   14.6909 N   0  0  0  0  0  0  0  0  0  0  0  0
    9.2489  -18.3750   14.8947 C   0  0  0  0  0  0  0  0  0  0  0  0
    8.8725  -19.3058   14.0736 N   0  0  0  0  0  0  0  0  0  0  0  0
    9.9983  -18.7138   16.0389 N   0  0  0  0  0  0  0  0  0  0  0  0
   10.3085  -17.6869   17.0082 C   0  0  0  0  0  0  0  0  0  0  0  0
   11.1171  -18.2414   18.1547 C   0  0  0  0  0  0  0  0  0  0  0  0
   11.3968  -17.1209   19.1229 C   0  0  0  0  0  0  0  0  0  0  0  0
   10.9870  -17.4896   20.5301 C   0  0  2  0  0  0  0  0  0  0  0  0
    9.7867  -18.2825   20.5654 N   0  0  0  0  0  0  0  0  0  0  0  0
   10.7443  -16.2656   21.3489 C   0  0  0  0  0  0  0  0  0  0  0  0
   11.6463  -15.3678   21.4721 O   0  0  0  0  0  0  0  0  0  0  0  0
    9.0781  -20.2917   14.2799 O   0  0  0  0  0  0  0  0  0  0  0  0
    7.6373  -12.9800   16.7775 C   0  0  0  0  0  0  0  0  0  0  0  0
    7.7245  -13.2465   18.1377 C   0  0  0  0  0  0  0  0  0  0  0  0
    8.3324  -12.3762   19.0346 C   0  0  0  0  0  0  0  0  0  0  0  0
    8.4010  -12.6649   20.3542 C   0  0  0  0  0  0  0  0  0  0  0  0
    7.8694  -13.8313   20.8422 C   0  0  0  0  0  0  0  0  0  0  0  0
    7.9377  -14.1863   22.2802 C   0  0  2  0  0  0  0  0  0  0  0  0
    9.2450  -14.7628   22.7048 N   0  0  0  0  0  0  0  0  0  0  0  0
    9.5346  -16.0219   22.0247 C   0  0  0  0  0  0  0  0  0  0  0  0
    9.2102  -15.0302   24.1465 O   0  0  0  0  0  0  0  0  0  0  0  0
    8.9314  -14.1530   25.0138 C   0  0  0  0  0  0  0  0  0  0  0  0
    7.2608  -14.7159   19.9848 C   0  0  0  0  0  0  0  0  0  0  0  0
    7.1901  -14.4258   18.6506 N   0  0  0  0  0  0  0  0  0  0  0  0
    9.5008  -16.3326   24.6176 C   0  0  2  0  0  0  0  0  0  0  0  0
    9.6500  -16.6512   26.0326 C   0  0  0  0  0  0  0  0  0  0  0  0
    8.2705  -17.0879   26.4723 C   0  0  0  0  0  0  0  0  0  0  0  0
    7.3277  -15.9714   26.2730 C   0  0  0  0  0  0  0  0  0  0  0  0
    6.1383  -16.0561   25.5565 N   0  0  0  0  0  0  0  0  0  0  0  0
    5.5137  -14.8833   25.6262 C   0  0  0  0  0  0  0  0  0  0  0  0
    6.2404  -14.0370   26.3541 C   0  0  0  0  0  0  0  0  0  0  0  0
    6.0579  -12.7184   26.7207 C   0  0  0  0  0  0  0  0  0  0  0  0
    6.9881  -12.0499   27.4870 C   0  0  0  0  0  0  0  0  0  0  0  0
    8.1316  -12.7028   27.9028 C   0  0  0  0  0  0  0  0  0  0  0  0
    8.2986  -14.0146   27.5305 C   0  0  0  0  0  0  0  0  0  0  0  0
    7.3795  -14.7025   26.7656 C   0  0  0  0  0  0  0  0  0  0  0  0
   10.7402  -17.5618   26.2936 O   0  0  0  0  0  0  0  0  0  0  0  0
   11.4382  -18.0613   25.3701 O   0  0  0  0  0  0  0  0  0  0  0  0
  2  1  1  0
  2  3  2  0
  4  5  1  0
  4  2  1  0
  5  6  1  0
  6  7  1  0
  7  8  1  0
  8  9  1  6
 10 11  2  0
 10  8  1  0
 12 13  1  0
 13 23  2  0
 13 14  1  0
 14 15  2  0
 15 16  1  0
 16 17  1  0
 18 17  1  6
 18 19  1  0
 18 20  1  0
 19 10  1  0
 20 21  2  0
 22 16  2  0
 23 22  1  0
 24 20  1  0
 24 25  1  0
 25 26  1  1
 26 27  1  0
 27 28  2  0
 28 29  1  0
 30 31  2  0
 30 29  1  0
 32 31  1  0
 33 32  2  0
 34 33  1  0
 34 35  2  0
 35 27  1  0
 35 30  1  0
 36 25  1  0
 36 38  1  0
 37 36  2  0
M  END
$$$$
