RYW.pdb
     RDKit          3D

 38 40  0  0  1  0  0  0  0  0999 V2000
   10.8914  -16.7200   15.2490 N   0  0  0  0  0  0  0  0  0  0  0  0
    9.8804  -17.5369   14.7044 C   0  0  0  0  0  0  0  0  0  0  0  0
    9.2124  -17.2033   13.6439 N   0  0  0  0  0  0  0  0  0  0  0  0
    9.6007  -18.7572   15.3512 N   0  0  0  0  0  0  0  0  0  0  0  0
   10.2493  -19.0536   16.6089 C   0  0  0  0  0  0  0  0  0  0  0  0
    9.5472  -18.3777   17.7605 C   0  0  0  0  0  0  0  0  0  0  0  0
   10.5893  -17.7347   18.6392 C   0  0  0  0  0  0  0  0  0  0  0  0
   10.3966  -18.1082   20.0909 C   0  0  2  0  0  0  0  0  0  0  0  0
    9.0413  -18.4904   20.3872 N   0  0  0  0  0  0  0  0  0  0  0  0
   10.7490  -16.9649   20.9831 C   0  0  0  0  0  0  0  0  0  0  0  0
   11.9418  -16.5061   21.0234 O   0  0  0  0  0  0  0  0  0  0  0  0
    8.4886  -17.8301   13.2701 O   0  0  0  0  0  0  0  0  0  0  0  0
    7.3304  -12.7298   17.2279 C   0  0  0  0  0  0  0  0  0  0  0  0
    7.7443  -13.0514   18.5140 C   0  0  0  0  0  0  0  0  0  0  0  0
    8.7981  -12.4027   19.1464 C   0  0  0  0  0  0  0  0  0  0  0  0
    9.1771  -12.7394   20.4004 C   0  0  0  0  0  0  0  0  0  0  0  0
    8.5267  -13.7359   21.0824 C   0  0  0  0  0  0  0  0  0  0  0  0
    8.9231  -14.1400   22.4528 C   0  0  2  0  0  0  0  0  0  0  0  0
   10.0891  -15.0671   22.5022 N   0  0  0  0  0  0  0  0  0  0  0  0
    9.8145  -16.3287   21.8206 C   0  0  0  0  0  0  0  0  0  0  0  0
   10.4045  -15.3735   23.9015 O   0  0  0  0  0  0  0  0  0  0  0  0
   11.2097  -14.6946   24.6015 C   0  0  0  0  0  0  0  0  0  0  0  0
    7.4801  -14.3994   20.4886 C   0  0  0  0  0  0  0  0  0  0  0  0
    7.0953  -14.0603   19.2212 N   0  0  0  0  0  0  0  0  0  0  0  0
    9.7871  -16.4840   24.5244 C   0  0  2  0  0  0  0  0  0  0  0  0
    9.9899  -16.8221   25.9282 C   0  0  0  0  0  0  0  0  0  0  0  0
    9.5711  -15.5807   26.6835 C   0  0  0  0  0  0  0  0  0  0  0  0
    8.1991  -15.2161   26.2839 C   0  0  0  0  0  0  0  0  0  0  0  0
    7.2583  -16.1057   25.7753 N   0  0  0  0  0  0  0  0  0  0  0  0
    6.1170  -15.4517   25.5751 C   0  0  0  0  0  0  0  0  0  0  0  0
    6.2694  -14.1765   25.9286 C   0  0  0  0  0  0  0  0  0  0  0  0
    5.4175  -13.0900   25.9130 C   0  0  0  0  0  0  0  0  0  0  0  0
    5.8338  -11.8441   26.3299 C   0  0  0  0  0  0  0  0  0  0  0  0
    7.1290  -11.6664   26.7747 C   0  0  0  0  0  0  0  0  0  0  0  0
    7.9643  -12.7570   26.7848 C   0  0  0  0  0  0  0  0  0  0  0  0
    7.5675  -14.0125   26.3735 C   0  0  0  0  0  0  0  0  0  0  0  0
    9.3571  -18.0642   26.3062 O   0  0  0  0  0  0  0  0  0  0  0  0
    9.3407  -18.4782   27.4969 O   0  0  0  0  0  0  0  0  0  0  0  0
  2  1  1  0
  2  3  2  0
  4  5  1  0
  4  2  1  0
  5  6  1  0
  6  7  1  0
  7  8  1  0
  8  9  1  6
 10 11  2  0
 10  8  1  0
 12 13  1  0
 13 23  2  0
 13 14  1  0
 14 15  2  0
 15 16  1  0
 16 17  1  0
 18 17  1  6
 18 19  1  0
 18 20  1  0
 19 10  1  0
 20 21  2  0
 22 16  2  0
 23 22  1  0
 24 20  1  0
 24 25  1  0
 25 26  1  6
 26 27  1  0
 27 28  2  0
 28 29  1  0
 30 31  2  0
 30 29  1  0
 32 31  1  0
 33 32  2  0
 34 33  1  0
 34 35  2  0
 35 27  1  0
 35 30  1  0
 36 25  1  0
 36 38  1  0
 37 36  2  0
M  END
$$$$
