RYW.pdb
     RDKit          3D

 38 40  0  0  1  0  0  0  0  0999 V2000
    9.1186  -14.9898   14.5096 N   0  0  0  0  0  0  0  0  0  0  0  0
    8.0136  -15.2092   15.3562 C   0  0  0  0  0  0  0  0  0  0  0  0
    7.0147  -15.9627   15.0149 N   0  0  0  0  0  0  0  0  0  0  0  0
    8.0138  -14.5773   16.6156 N   0  0  0  0  0  0  0  0  0  0  0  0
    9.1714  -13.8113   17.0201 C   0  0  0  0  0  0  0  0  0  0  0  0
   10.3446  -14.7097   17.3238 C   0  0  0  0  0  0  0  0  0  0  0  0
   11.1826  -14.0508   18.3891 C   0  0  0  0  0  0  0  0  0  0  0  0
   11.4883  -15.0038   19.5216 C   0  0  2  0  0  0  0  0  0  0  0  0
   11.2251  -16.3753   19.1749 N   0  0  0  0  0  0  0  0  0  0  0  0
   10.6684  -14.6766   20.7250 C   0  0  0  0  0  0  0  0  0  0  0  0
   10.2763  -13.4801   20.9476 O   0  0  0  0  0  0  0  0  0  0  0  0
    6.2778  -16.1849   15.6964 O   0  0  0  0  0  0  0  0  0  0  0  0
    5.2971  -18.0767   18.9053 C   0  0  0  0  0  0  0  0  0  0  0  0
    6.0236  -17.2799   19.7806 C   0  0  0  0  0  0  0  0  0  0  0  0
    7.3715  -16.9973   19.5938 C   0  0  0  0  0  0  0  0  0  0  0  0
    8.0513  -16.2173   20.4650 C   0  0  0  0  0  0  0  0  0  0  0  0
    7.4229  -15.6834   21.5610 C   0  0  0  0  0  0  0  0  0  0  0  0
    8.1397  -14.8348   22.5433 C   0  0  1  0  0  0  0  0  0  0  0  0
    9.5136  -15.3100   22.8720 N   0  0  0  0  0  0  0  0  0  0  0  0
   10.2800  -15.6400   21.6739 C   0  0  0  0  0  0  0  0  0  0  0  0
    9.4226  -16.5219   23.6933 O   0  0  0  0  0  0  0  0  0  0  0  0
    9.7386  -17.6737   23.2772 C   0  0  0  0  0  0  0  0  0  0  0  0
    6.0909  -15.9414   21.7780 C   0  0  0  0  0  0  0  0  0  0  0  0
    5.4019  -16.7294   20.8984 N   0  0  0  0  0  0  0  0  0  0  0  0
    8.9590  -16.4231   25.0266 C   0  0  2  0  0  0  0  0  0  0  0  0
    9.8345  -16.5586   26.1846 C   0  0  0  0  0  0  0  0  0  0  0  0
    9.0442  -15.9684   27.3309 C   0  0  0  0  0  0  0  0  0  0  0  0
    7.8648  -15.2674   26.7897 C   0  0  0  0  0  0  0  0  0  0  0  0
    6.7029  -15.8933   26.3499 N   0  0  0  0  0  0  0  0  0  0  0  0
    5.8294  -14.9602   25.9801 C   0  0  0  0  0  0  0  0  0  0  0  0
    6.3674  -13.7546   26.1574 C   0  0  0  0  0  0  0  0  0  0  0  0
    5.9006  -12.4756   25.9281 C   0  0  0  0  0  0  0  0  0  0  0  0
    6.6785  -11.3686   26.1903 C   0  0  0  0  0  0  0  0  0  0  0  0
    7.9544  -11.5299   26.6933 C   0  0  0  0  0  0  0  0  0  0  0  0
    8.4043  -12.8086   26.9167 C   0  0  0  0  0  0  0  0  0  0  0  0
    7.6417  -13.9297   26.6627 C   0  0  0  0  0  0  0  0  0  0  0  0
   10.3369  -17.9016   26.3576 O   0  0  0  0  0  0  0  0  0  0  0  0
    9.8950  -18.8782   25.6938 O   0  0  0  0  0  0  0  0  0  0  0  0
  2  1  1  0
  2  3  2  0
  4  5  1  0
  4  2  1  0
  5  6  1  0
  6  7  1  0
  7  8  1  0
  8  9  1  6
 10 11  2  0
 10  8  1  0
 12 13  1  0
 13 23  2  0
 13 14  1  0
 14 15  2  0
 15 16  1  0
 16 17  1  0
 18 17  1  6
 18 19  1  0
 18 20  1  0
 19 10  1  0
 20 21  2  0
 22 16  2  0
 23 22  1  0
 24 20  1  0
 24 25  1  0
 25 26  1  6
 26 27  1  0
 27 28  2  0
 28 29  1  0
 30 31  2  0
 30 29  1  0
 32 31  1  0
 33 32  2  0
 34 33  1  0
 34 35  2  0
 35 27  1  0
 35 30  1  0
 36 25  1  0
 36 38  1  0
 37 36  2  0
M  END
$$$$
