RYW.pdb
     RDKit          3D

 38 40  0  0  1  0  0  0  0  0999 V2000
    9.2227  -14.9568   15.7447 N   0  0  0  0  0  0  0  0  0  0  0  0
    8.5822  -16.1913   15.9715 C   0  0  0  0  0  0  0  0  0  0  0  0
    7.7123  -16.6856   15.1461 N   0  0  0  0  0  0  0  0  0  0  0  0
    8.9133  -16.8990   17.1441 N   0  0  0  0  0  0  0  0  0  0  0  0
    8.0379  -17.9549   17.6015 C   0  0  0  0  0  0  0  0  0  0  0  0
    8.8234  -19.1101   18.1711 C   0  0  0  0  0  0  0  0  0  0  0  0
    9.8494  -18.5594   19.1278 C   0  0  0  0  0  0  0  0  0  0  0  0
    9.3190  -18.5129   20.5423 C   0  0  2  0  0  0  0  0  0  0  0  0
    7.8853  -18.4011   20.5906 N   0  0  0  0  0  0  0  0  0  0  0  0
    9.8883  -17.3490   21.2832 C   0  0  0  0  0  0  0  0  0  0  0  0
   11.1474  -17.1268   21.2907 O   0  0  0  0  0  0  0  0  0  0  0  0
    7.5417  -16.2304   14.2404 O   0  0  0  0  0  0  0  0  0  0  0  0
    7.5935  -13.1882   16.9057 C   0  0  0  0  0  0  0  0  0  0  0  0
    7.8541  -13.4124   18.2513 C   0  0  0  0  0  0  0  0  0  0  0  0
    6.9092  -13.9471   19.1188 C   0  0  0  0  0  0  0  0  0  0  0  0
    7.1943  -14.1536   20.4248 C   0  0  0  0  0  0  0  0  0  0  0  0
    8.4306  -13.8378   20.9278 C   0  0  0  0  0  0  0  0  0  0  0  0
    8.7737  -14.0386   22.3563 C   0  0  2  0  0  0  0  0  0  0  0  0
    9.6367  -15.2260   22.6152 N   0  0  0  0  0  0  0  0  0  0  0  0
    9.0966  -16.4383   22.0066 C   0  0  0  0  0  0  0  0  0  0  0  0
    9.7261  -15.4527   24.0616 O   0  0  0  0  0  0  0  0  0  0  0  0
   10.2783  -14.6451   24.8630 C   0  0  0  0  0  0  0  0  0  0  0  0
    9.3899  -13.3070   20.0995 C   0  0  0  0  0  0  0  0  0  0  0  0
    9.1038  -13.0979   18.7791 N   0  0  0  0  0  0  0  0  0  0  0  0
    9.1720  -16.6316   24.6144 C   0  0  1  0  0  0  0  0  0  0  0  0
    9.3521  -17.0162   26.0092 C   0  0  0  0  0  0  0  0  0  0  0  0
    7.9576  -16.9933   26.5938 C   0  0  0  0  0  0  0  0  0  0  0  0
    7.3059  -15.7211   26.2303 C   0  0  0  0  0  0  0  0  0  0  0  0
    6.3172  -15.5851   25.2612 N   0  0  0  0  0  0  0  0  0  0  0  0
    5.9186  -14.3160   25.2333 C   0  0  0  0  0  0  0  0  0  0  0  0
    6.6017  -13.6172   26.1386 C   0  0  0  0  0  0  0  0  0  0  0  0
    6.5845  -12.2861   26.5051 C   0  0  0  0  0  0  0  0  0  0  0  0
    7.4208  -11.8000   27.4867 C   0  0  0  0  0  0  0  0  0  0  0  0
    8.2996  -12.6533   28.1243 C   0  0  0  0  0  0  0  0  0  0  0  0
    8.3045  -13.9748   27.7490 C   0  0  0  0  0  0  0  0  0  0  0  0
    7.4749  -14.4821   26.7704 C   0  0  0  0  0  0  0  0  0  0  0  0
   10.1080  -18.2371   26.1645 O   0  0  0  0  0  0  0  0  0  0  0  0
   10.4978  -18.9194   25.1785 O   0  0  0  0  0  0  0  0  0  0  0  0
  2  1  1  0
  2  3  2  0
  4  5  1  0
  4  2  1  0
  5  6  1  0
  6  7  1  0
  7  8  1  0
  8  9  1  6
 10 11  2  0
 10  8  1  0
 12 13  1  0
 13 23  2  0
 13 14  1  0
 14 15  2  0
 15 16  1  0
 16 17  1  0
 18 17  1  6
 18 19  1  0
 18 20  1  0
 19 10  1  0
 20 21  2  0
 22 16  2  0
 23 22  1  0
 24 20  1  0
 24 25  1  0
 25 26  1  1
 26 27  1  0
 27 28  2  0
 28 29  1  0
 30 31  2  0
 30 29  1  0
 32 31  1  0
 33 32  2  0
 34 33  1  0
 34 35  2  0
 35 27  1  0
 35 30  1  0
 36 25  1  0
 36 38  1  0
 37 36  2  0
M  END
$$$$
