RYW.pdb
     RDKit          3D

 38 40  0  0  1  0  0  0  0  0999 V2000
    9.1114  -17.7069   14.0842 N   0  0  0  0  0  0  0  0  0  0  0  0
   10.4957  -17.6167   14.3323 C   0  0  0  0  0  0  0  0  0  0  0  0
   11.1932  -16.5712   14.0120 N   0  0  0  0  0  0  0  0  0  0  0  0
   11.1261  -18.7140   14.9521 N   0  0  0  0  0  0  0  0  0  0  0  0
   10.3217  -19.8293   15.3989 C   0  0  0  0  0  0  0  0  0  0  0  0
    9.6818  -19.5435   16.7348 C   0  0  0  0  0  0  0  0  0  0  0  0
   10.2669  -20.4887   17.7524 C   0  0  0  0  0  0  0  0  0  0  0  0
    9.6465  -20.2880   19.1158 C   0  0  2  0  0  0  0  0  0  0  0  0
    8.2146  -20.4288   19.0966 N   0  0  0  0  0  0  0  0  0  0  0  0
    9.9598  -18.9282   19.6451 C   0  0  0  0  0  0  0  0  0  0  0  0
   10.7220  -18.1307   18.9986 O   0  0  0  0  0  0  0  0  0  0  0  0
   12.2153  -16.5777   14.1216 O   0  0  0  0  0  0  0  0  0  0  0  0
    7.3888  -10.8859   21.0632 C   0  0  0  0  0  0  0  0  0  0  0  0
    7.6588  -12.2294   20.8373 C   0  0  0  0  0  0  0  0  0  0  0  0
    8.9167  -12.6889   20.4659 C   0  0  0  0  0  0  0  0  0  0  0  0
    9.1476  -14.0046   20.2532 C   0  0  0  0  0  0  0  0  0  0  0  0
    8.1392  -14.9228   20.3994 C   0  0  0  0  0  0  0  0  0  0  0  0
    8.3530  -16.3708   20.1622 C   0  0  1  0  0  0  0  0  0  0  0  0
    9.2735  -17.0195   21.1386 N   0  0  0  0  0  0  0  0  0  0  0  0
    9.4494  -18.4425   20.8629 C   0  0  0  0  0  0  0  0  0  0  0  0
    8.7150  -16.8908   22.4888 O   0  0  0  0  0  0  0  0  0  0  0  0
    7.6796  -16.2153   22.7556 C   0  0  0  0  0  0  0  0  0  0  0  0
    6.8825  -14.5049   20.7655 C   0  0  0  0  0  0  0  0  0  0  0  0
    6.6472  -13.1755   20.9812 N   0  0  0  0  0  0  0  0  0  0  0  0
    9.3511  -17.5486   23.5682 C   0  0  1  0  0  0  0  0  0  0  0  0
   10.0110  -16.8359   24.6556 C   0  0  0  0  0  0  0  0  0  0  0  0
    9.7693  -15.3737   24.3548 C   0  0  0  0  0  0  0  0  0  0  0  0
    9.0366  -14.7668   25.4818 C   0  0  0  0  0  0  0  0  0  0  0  0
    9.1225  -15.1909   26.8039 N   0  0  0  0  0  0  0  0  0  0  0  0
    8.3759  -14.3889   27.5587 C   0  0  0  0  0  0  0  0  0  0  0  0
    7.8061  -13.4617   26.7906 C   0  0  0  0  0  0  0  0  0  0  0  0
    6.9478  -12.4150   27.0632 C   0  0  0  0  0  0  0  0  0  0  0  0
    6.4818  -11.5885   26.0637 C   0  0  0  0  0  0  0  0  0  0  0  0
    6.8750  -11.8022   24.7573 C   0  0  0  0  0  0  0  0  0  0  0  0
    7.7296  -12.8471   24.5022 C   0  0  0  0  0  0  0  0  0  0  0  0
    8.2089  -13.6850   25.4877 C   0  0  0  0  0  0  0  0  0  0  0  0
    9.6171  -17.3103   25.9616 O   0  0  0  0  0  0  0  0  0  0  0  0
    8.5403  -17.9370   26.1555 O   0  0  0  0  0  0  0  0  0  0  0  0
  2  1  1  0
  2  3  2  0
  4  5  1  0
  4  2  1  0
  5  6  1  0
  6  7  1  0
  7  8  1  0
  8  9  1  6
 10 11  2  0
 10  8  1  0
 12 13  1  0
 13 23  2  0
 13 14  1  0
 14 15  2  0
 15 16  1  0
 16 17  1  0
 18 17  1  6
 18 19  1  0
 18 20  1  0
 19 10  1  0
 20 21  2  0
 22 16  2  0
 23 22  1  0
 24 20  1  0
 24 25  1  0
 25 26  1  6
 26 27  1  0
 27 28  2  0
 28 29  1  0
 30 31  2  0
 30 29  1  0
 32 31  1  0
 33 32  2  0
 34 33  1  0
 34 35  2  0
 35 27  1  0
 35 30  1  0
 36 25  1  0
 36 38  1  0
 37 36  2  0
M  END
$$$$
