QTG.pdb
     RDKit          3D

 21 20  0  0  1  0  0  0  0  0999 V2000
   16.1096  -13.6352   18.0590 N   0  0  0  0  0  0  0  0  0  0  0  0
   15.7780  -14.4981   16.9804 C   0  0  0  0  0  0  0  0  0  0  0  0
   16.6403  -14.7007   16.0895 O   0  0  0  0  0  0  0  0  0  0  0  0
   14.4303  -15.1287   16.9414 C   0  0  0  0  0  0  0  0  0  0  0  0
   13.6804  -14.6698   18.1723 C   0  0  0  0  0  0  0  0  0  0  0  0
   12.5695  -15.5947   18.5496 C   0  0  2  0  0  0  0  0  0  0  0  0
   11.8817  -16.0249   17.3758 N   0  0  0  0  0  0  0  0  0  0  0  0
   11.6930  -14.9381   19.5413 C   0  0  0  0  0  0  0  0  0  0  0  0
   12.2279  -14.3742   20.5301 O   0  0  0  0  0  0  0  0  0  0  0  0
    8.7594  -12.4711   19.0626 C   0  0  0  0  0  0  0  0  0  0  0  0
    8.3051  -13.6004   19.9314 C   0  0  1  0  0  0  0  0  0  0  0  0
    7.4853  -14.4382   19.1703 O   0  0  0  0  0  0  0  0  0  0  0  0
    9.4533  -14.3877   20.5195 C   0  0  2  0  0  0  0  0  0  0  0  0
   10.2732  -14.9057   19.4439 N   0  0  0  0  0  0  0  0  0  0  0  0
    8.9842  -15.4619   21.4260 C   0  0  0  0  0  0  0  0  0  0  0  0
    8.4397  -16.5048   20.9868 O   0  0  0  0  0  0  0  0  0  0  0  0
    9.1297  -15.3603   22.8370 N   0  0  0  0  0  0  0  0  0  0  0  0
    8.6771  -16.3955   23.7440 C   0  0  0  0  0  0  0  0  0  0  0  0
    9.0322  -16.0606   25.1288 C   0  0  0  0  0  0  0  0  0  0  0  0
    8.6088  -16.8954   26.1516 O   0  0  0  0  0  0  0  0  0  0  0  0
    9.7087  -15.0434   25.4392 O   0  0  0  0  0  0  0  0  0  0  0  0
  1  2  1  0
  2  3  2  0
  4  5  1  0
  4  2  1  0
  6  8  1  0
  6  5  1  0
  6  7  1  6
  8  9  2  0
 11 10  1  6
 11 13  1  0
 12 11  1  0
 13 15  1  0
 13 14  1  6
 14  8  1  0
 15 17  1  0
 15 16  2  0
 17 18  1  0
 18 19  1  0
 19 21  2  0
 19 20  1  0
M  END
$$$$
