QTG.pdb
     RDKit          3D

 21 20  0  0  1  0  0  0  0  0999 V2000
    5.9590  -25.4755   35.1722 N   0  0  0  0  0  0  0  0  0  0  0  0
    6.7668  -26.1609   36.1186 C   0  0  0  0  0  0  0  0  0  0  0  0
    6.1982  -26.8205   37.0240 O   0  0  0  0  0  0  0  0  0  0  0  0
    8.2487  -26.0757   36.0072 C   0  0  0  0  0  0  0  0  0  0  0  0
    8.5631  -25.1130   34.8837 C   0  0  0  0  0  0  0  0  0  0  0  0
    8.8633  -25.8075   33.5956 C   0  0  2  0  0  0  0  0  0  0  0  0
    8.8754  -27.2194   33.8014 N   0  0  0  0  0  0  0  0  0  0  0  0
   10.1231  -25.2815   33.0306 C   0  0  0  0  0  0  0  0  0  0  0  0
   11.2088  -25.7720   33.4337 O   0  0  0  0  0  0  0  0  0  0  0  0
   10.2856  -22.1596   30.0017 C   0  0  0  0  0  0  0  0  0  0  0  0
   11.2045  -23.3375   30.0686 C   0  0  1  0  0  0  0  0  0  0  0  0
   12.4169  -22.9837   29.4701 O   0  0  0  0  0  0  0  0  0  0  0  0
   11.4409  -23.8186   31.4816 C   0  0  2  0  0  0  0  0  0  0  0  0
   10.1814  -24.2483   32.0531 N   0  0  0  0  0  0  0  0  0  0  0  0
   12.1059  -22.7897   32.3153 C   0  0  0  0  0  0  0  0  0  0  0  0
   11.4548  -21.8765   32.8801 O   0  0  0  0  0  0  0  0  0  0  0  0
   13.5141  -22.7900   32.5138 N   0  0  0  0  0  0  0  0  0  0  0  0
   14.1866  -21.7995   33.3297 C   0  0  0  0  0  0  0  0  0  0  0  0
   15.1014  -20.9921   32.5129 C   0  0  0  0  0  0  0  0  0  0  0  0
   15.7864  -19.9439   33.1083 O   0  0  0  0  0  0  0  0  0  0  0  0
   15.2985  -21.2044   31.2861 O   0  0  0  0  0  0  0  0  0  0  0  0
  1  2  1  0
  2  3  2  0
  4  5  1  0
  4  2  1  0
  6  8  1  0
  6  5  1  0
  6  7  1  1
  8  9  2  0
 11 10  1  1
 11 13  1  0
 12 11  1  0
 13 15  1  0
 13 14  1  1
 14  8  1  0
 15 17  1  0
 15 16  2  0
 17 18  1  0
 18 19  1  0
 19 21  2  0
 19 20  1  0
M  END
$$$$
