QTG.pdb
     RDKit          3D

 21 20  0  0  1  0  0  0  0  0999 V2000
   11.0973  -26.5702   38.3177 N   0  0  0  0  0  0  0  0  0  0  0  0
   11.7573  -27.6962   37.7568 C   0  0  0  0  0  0  0  0  0  0  0  0
   12.6633  -28.2529   38.4256 O   0  0  0  0  0  0  0  0  0  0  0  0
   11.3567  -28.1755   36.4057 C   0  0  0  0  0  0  0  0  0  0  0  0
   10.2915  -27.2339   35.8892 C   0  0  0  0  0  0  0  0  0  0  0  0
    9.8010  -27.6081   34.5286 C   0  0  2  0  0  0  0  0  0  0  0  0
    9.8000  -29.0283   34.3909 N   0  0  0  0  0  0  0  0  0  0  0  0
   10.6078  -26.9152   33.5029 C   0  0  0  0  0  0  0  0  0  0  0  0
   11.4731  -27.5782   32.8755 O   0  0  0  0  0  0  0  0  0  0  0  0
    9.0592  -24.8570   30.6946 C   0  0  0  0  0  0  0  0  0  0  0  0
   10.1966  -24.0803   31.2774 C   0  0  1  0  0  0  0  0  0  0  0  0
    9.6703  -23.0809   32.1005 O   0  0  0  0  0  0  0  0  0  0  0  0
   11.1599  -24.9451   32.0571 C   0  0  2  0  0  0  0  0  0  0  0  0
   10.4634  -25.5360   33.1811 N   0  0  0  0  0  0  0  0  0  0  0  0
   12.3628  -24.1922   32.4837 C   0  0  0  0  0  0  0  0  0  0  0  0
   12.6876  -24.0982   33.6931 O   0  0  0  0  0  0  0  0  0  0  0  0
   13.2053  -23.5409   31.5412 N   0  0  0  0  0  0  0  0  0  0  0  0
   14.3186  -22.7034   31.9388 C   0  0  0  0  0  0  0  0  0  0  0  0
   14.9164  -22.0487   30.7683 C   0  0  0  0  0  0  0  0  0  0  0  0
   15.9365  -21.1295   30.9606 O   0  0  0  0  0  0  0  0  0  0  0  0
   14.5468  -22.2811   29.5859 O   0  0  0  0  0  0  0  0  0  0  0  0
  1  2  1  0
  2  3  2  0
  4  5  1  0
  4  2  1  0
  6  8  1  0
  6  5  1  0
  6  7  1  6
  8  9  2  0
 11 10  1  1
 11 13  1  0
 12 11  1  0
 13 15  1  0
 13 14  1  1
 14  8  1  0
 15 17  1  0
 15 16  2  0
 17 18  1  0
 18 19  1  0
 19 21  2  0
 19 20  1  0
M  END
$$$$
