QTG.pdb
     RDKit          3D

 21 20  0  0  1  0  0  0  0  0999 V2000
    8.2028  -12.6796   17.1806 N   0  0  0  0  0  0  0  0  0  0  0  0
    8.1132  -13.9159   16.4866 C   0  0  0  0  0  0  0  0  0  0  0  0
    7.7831  -13.8988   15.2746 O   0  0  0  0  0  0  0  0  0  0  0  0
    8.4109  -15.1807   17.2125 C   0  0  0  0  0  0  0  0  0  0  0  0
    8.7774  -14.8116   18.6328 C   0  0  0  0  0  0  0  0  0  0  0  0
    9.0128  -16.0069   19.4974 C   0  0  2  0  0  0  0  0  0  0  0  0
    7.9299  -16.9250   19.3547 N   0  0  0  0  0  0  0  0  0  0  0  0
    9.2406  -15.5733   20.8914 C   0  0  0  0  0  0  0  0  0  0  0  0
   10.2072  -14.8038   21.1269 O   0  0  0  0  0  0  0  0  0  0  0  0
    7.5282  -13.4885   23.1887 C   0  0  0  0  0  0  0  0  0  0  0  0
    7.7128  -14.7645   23.9466 C   0  0  1  0  0  0  0  0  0  0  0  0
    6.4896  -15.4399   23.9748 O   0  0  0  0  0  0  0  0  0  0  0  0
    8.7843  -15.6500   23.3536 C   0  0  2  0  0  0  0  0  0  0  0  0
    8.4277  -15.9765   21.9883 N   0  0  0  0  0  0  0  0  0  0  0  0
    9.0180  -16.8637   24.1710 C   0  0  0  0  0  0  0  0  0  0  0  0
    8.4359  -17.9483   23.9228 O   0  0  0  0  0  0  0  0  0  0  0  0
    9.9136  -16.8550   25.2756 N   0  0  0  0  0  0  0  0  0  0  0  0
   10.0645  -17.9880   26.1659 C   0  0  0  0  0  0  0  0  0  0  0  0
   11.0452  -17.6915   27.2177 C   0  0  0  0  0  0  0  0  0  0  0  0
   11.2571  -18.6247   28.2211 O   0  0  0  0  0  0  0  0  0  0  0  0
   11.7113  -16.6221   27.2563 O   0  0  0  0  0  0  0  0  0  0  0  0
  1  2  1  0
  2  3  2  0
  4  5  1  0
  4  2  1  0
  6  8  1  0
  6  5  1  0
  6  7  1  1
  8  9  2  0
 11 10  1  6
 11 13  1  0
 12 11  1  0
 13 15  1  0
 13 14  1  6
 14  8  1  0
 15 17  1  0
 15 16  2  0
 17 18  1  0
 18 19  1  0
 19 21  2  0
 19 20  1  0
M  END
$$$$
