QHA.pdb
     RDKit          3D

 25 25  0  0  1  0  0  0  0  0999 V2000
    8.4385  -13.3308   17.6488 N   0  0  0  0  0  0  0  0  0  0  0  0
    8.2014  -14.4529   18.4908 C   0  0  0  0  0  0  0  0  0  0  0  0
    7.6019  -15.4841   18.0558 O   0  0  0  0  0  0  0  0  0  0  0  0
    8.6861  -14.3606   19.8947 C   0  0  0  0  0  0  0  0  0  0  0  0
   10.0716  -14.9641   19.9494 C   0  0  0  0  0  0  0  0  0  0  0  0
   10.1536  -15.8933   21.1236 C   0  0  2  0  0  0  0  0  0  0  0  0
    9.1172  -16.8925   21.0187 N   0  0  0  0  0  0  0  0  0  0  0  0
   10.0071  -15.1254   22.3962 C   0  0  0  0  0  0  0  0  0  0  0  0
   10.7445  -14.1365   22.6396 O   0  0  0  0  0  0  0  0  0  0  0  0
    9.0296  -15.5238   23.3234 N   0  0  0  0  0  0  0  0  0  0  0  0
    8.7722  -14.7315   24.5585 C   0  0  1  0  0  0  0  0  0  0  0  0
    7.3054  -14.7838   24.7654 C   0  0  0  0  0  0  0  0  0  0  0  0
    6.7567  -13.6543   25.5267 C   0  0  0  0  0  0  0  0  0  0  0  0
    7.4724  -12.5447   25.9365 C   0  0  0  0  0  0  0  0  0  0  0  0
    6.6120  -11.7541   26.5997 N   0  0  0  0  0  0  0  0  0  0  0  0
    5.4166  -12.3295   26.6104 C   0  0  0  0  0  0  0  0  0  0  0  0
    5.5149  -13.4903   25.9522 N   0  0  0  0  0  0  0  0  0  0  0  0
    9.6419  -15.2582   25.5856 C   0  0  0  0  0  0  0  0  0  0  0  0
   10.3945  -16.2556   25.2958 O   0  0  0  0  0  0  0  0  0  0  0  0
   10.8606  -14.3980   29.0540 C   0  0  0  0  0  0  0  0  0  0  0  0
   10.6692  -15.2804   27.8350 C   0  0  2  0  0  0  0  0  0  0  0  0
    9.7269  -14.7385   26.9087 N   0  0  0  0  0  0  0  0  0  0  0  0
   10.2829  -16.6055   28.3051 C   0  0  0  0  0  0  0  0  0  0  0  0
    9.0927  -16.9997   28.0347 O   0  0  0  0  0  0  0  0  0  0  0  0
   11.1073  -17.4516   29.0137 O   0  0  0  0  0  0  0  0  0  0  0  0
  2  4  1  0
  2  1  1  0
  3  2  2  0
  5  6  1  0
  5  4  1  0
  6  7  1  6
  6  8  1  0
  8  9  2  0
 10  8  1  0
 10 11  1  0
 11 12  1  1
 12 13  1  0
 13 14  2  0
 14 15  1  0
 16 15  1  0
 17 13  1  0
 17 16  2  0
 18 22  1  0
 18 11  1  0
 19 18  2  0
 21 20  1  1
 21 23  1  0
 21 22  1  0
 23 25  1  0
 24 23  2  0
M  END
$$$$
