QHA.pdb
     RDKit          3D

 25 25  0  0  1  0  0  0  0  0999 V2000
   15.0452  -13.6273   17.9024 N   0  0  0  0  0  0  0  0  0  0  0  0
   14.3547  -14.5639   17.0838 C   0  0  0  0  0  0  0  0  0  0  0  0
   14.6299  -14.6846   15.8502 O   0  0  0  0  0  0  0  0  0  0  0  0
   13.3027  -15.3888   17.7376 C   0  0  0  0  0  0  0  0  0  0  0  0
   13.2173  -14.9698   19.1881 C   0  0  0  0  0  0  0  0  0  0  0  0
   12.5195  -16.0448   19.9668 C   0  0  2  0  0  0  0  0  0  0  0  0
   11.7082  -16.8359   19.0726 N   0  0  0  0  0  0  0  0  0  0  0  0
   11.6715  -15.4359   21.0349 C   0  0  0  0  0  0  0  0  0  0  0  0
   12.1574  -14.6115   21.8505 O   0  0  0  0  0  0  0  0  0  0  0  0
   10.3165  -15.7976   21.1176 N   0  0  0  0  0  0  0  0  0  0  0  0
    9.3835  -15.0821   22.0327 C   0  0  1  0  0  0  0  0  0  0  0  0
    8.0760  -15.0677   21.3349 C   0  0  0  0  0  0  0  0  0  0  0  0
    8.0840  -14.3758   20.0396 C   0  0  0  0  0  0  0  0  0  0  0  0
    8.2221  -13.0113   19.8642 C   0  0  0  0  0  0  0  0  0  0  0  0
    8.1767  -12.7862   18.5404 N   0  0  0  0  0  0  0  0  0  0  0  0
    8.0187  -13.9431   17.9104 C   0  0  0  0  0  0  0  0  0  0  0  0
    7.9631  -14.9087   18.8349 N   0  0  0  0  0  0  0  0  0  0  0  0
    9.4804  -15.7279   23.3220 C   0  0  0  0  0  0  0  0  0  0  0  0
    9.9179  -16.9328   23.3699 O   0  0  0  0  0  0  0  0  0  0  0  0
    8.9320  -14.9746   26.9948 C   0  0  0  0  0  0  0  0  0  0  0  0
    9.3037  -15.8140   25.7871 C   0  0  2  0  0  0  0  0  0  0  0  0
    9.1259  -15.1122   24.5561 N   0  0  0  0  0  0  0  0  0  0  0  0
    8.5171  -17.0406   25.8428 C   0  0  0  0  0  0  0  0  0  0  0  0
    7.5944  -17.1859   24.9639 O   0  0  0  0  0  0  0  0  0  0  0  0
    8.7011  -18.0424   26.7702 O   0  0  0  0  0  0  0  0  0  0  0  0
  2  4  1  0
  2  1  1  0
  3  2  2  0
  5  6  1  0
  5  4  1  0
  6  7  1  6
  6  8  1  0
  8  9  2  0
 10  8  1  0
 10 11  1  0
 11 12  1  6
 12 13  1  0
 13 14  2  0
 14 15  1  0
 16 15  1  0
 17 13  1  0
 17 16  2  0
 18 22  1  0
 18 11  1  0
 19 18  2  0
 21 20  1  1
 21 23  1  0
 21 22  1  0
 23 25  1  0
 24 23  2  0
M  END
$$$$
