QHA.pdb
     RDKit          3D

 25 25  0  0  1  0  0  0  0  0999 V2000
    7.9953  -13.0660   18.1036 N   0  0  0  0  0  0  0  0  0  0  0  0
    8.5223  -14.3285   17.7129 C   0  0  0  0  0  0  0  0  0  0  0  0
    8.4839  -14.7087   16.5021 O   0  0  0  0  0  0  0  0  0  0  0  0
    9.1159  -15.1752   18.7831 C   0  0  0  0  0  0  0  0  0  0  0  0
    8.9738  -14.4355   20.0944 C   0  0  0  0  0  0  0  0  0  0  0  0
    9.8182  -15.1137   21.1316 C   0  0  2  0  0  0  0  0  0  0  0  0
    9.7142  -16.5448   20.9750 N   0  0  0  0  0  0  0  0  0  0  0  0
    9.3750  -14.7078   22.4989 C   0  0  0  0  0  0  0  0  0  0  0  0
    9.1753  -13.4982   22.7781 O   0  0  0  0  0  0  0  0  0  0  0  0
    9.1829  -15.6999   23.4750 N   0  0  0  0  0  0  0  0  0  0  0  0
    8.6348  -15.3616   24.8185 C   0  0  1  0  0  0  0  0  0  0  0  0
    7.5202  -16.3123   25.0435 C   0  0  0  0  0  0  0  0  0  0  0  0
    6.2089  -15.6795   25.2351 C   0  0  0  0  0  0  0  0  0  0  0  0
    5.8891  -14.7965   26.2498 C   0  0  0  0  0  0  0  0  0  0  0  0
    4.6024  -14.4537   26.0714 N   0  0  0  0  0  0  0  0  0  0  0  0
    4.1313  -15.0837   25.0030 C   0  0  0  0  0  0  0  0  0  0  0  0
    5.1204  -15.8305   24.4987 N   0  0  0  0  0  0  0  0  0  0  0  0
    9.7486  -15.3602   25.7394 C   0  0  0  0  0  0  0  0  0  0  0  0
   10.7966  -16.0326   25.4311 O   0  0  0  0  0  0  0  0  0  0  0  0
   10.8637  -13.7607   28.9762 C   0  0  0  0  0  0  0  0  0  0  0  0
   10.8666  -14.8026   27.8736 C   0  0  2  0  0  0  0  0  0  0  0  0
    9.7666  -14.6529   26.9753 N   0  0  0  0  0  0  0  0  0  0  0  0
   10.8887  -16.1158   28.5068 C   0  0  0  0  0  0  0  0  0  0  0  0
   11.9073  -16.3998   29.2327 O   0  0  0  0  0  0  0  0  0  0  0  0
    9.8946  -17.0604   28.3761 O   0  0  0  0  0  0  0  0  0  0  0  0
  2  4  1  0
  2  1  1  0
  3  2  2  0
  5  6  1  0
  5  4  1  0
  6  7  1  1
  6  8  1  0
  8  9  2  0
 10  8  1  0
 10 11  1  0
 11 12  1  1
 12 13  1  0
 13 14  2  0
 14 15  1  0
 16 15  1  0
 17 13  1  0
 17 16  2  0
 18 22  1  0
 18 11  1  0
 19 18  2  0
 21 20  1  1
 21 23  1  0
 21 22  1  0
 23 25  1  0
 24 23  2  0
M  END
$$$$
