QHA.pdb
     RDKit          3D

 25 25  0  0  1  0  0  0  0  0999 V2000
   10.3449  -13.7583   18.1827 N   0  0  0  0  0  0  0  0  0  0  0  0
    9.0041  -13.3210   18.3703 C   0  0  0  0  0  0  0  0  0  0  0  0
    8.6990  -12.0908   18.2948 O   0  0  0  0  0  0  0  0  0  0  0  0
    7.9846  -14.3664   18.6571 C   0  0  0  0  0  0  0  0  0  0  0  0
    7.5885  -14.2437   20.1114 C   0  0  0  0  0  0  0  0  0  0  0  0
    8.7278  -14.7081   20.9687 C   0  0  2  0  0  0  0  0  0  0  0  0
    9.3225  -15.8848   20.3811 N   0  0  0  0  0  0  0  0  0  0  0  0
    8.2422  -15.0065   22.3492 C   0  0  0  0  0  0  0  0  0  0  0  0
    7.4566  -14.2214   22.9387 O   0  0  0  0  0  0  0  0  0  0  0  0
    8.6764  -16.1818   22.9847 N   0  0  0  0  0  0  0  0  0  0  0  0
    8.2638  -16.4993   24.3806 C   0  0  1  0  0  0  0  0  0  0  0  0
    8.1628  -17.9769   24.4385 C   0  0  0  0  0  0  0  0  0  0  0  0
    7.9853  -18.5231   25.7901 C   0  0  0  0  0  0  0  0  0  0  0  0
    6.9708  -18.1783   26.6638 C   0  0  0  0  0  0  0  0  0  0  0  0
    7.1664  -18.8944   27.7837 N   0  0  0  0  0  0  0  0  0  0  0  0
    8.2448  -19.6517   27.6297 C   0  0  0  0  0  0  0  0  0  0  0  0
    8.7385  -19.4179   26.4083 N   0  0  0  0  0  0  0  0  0  0  0  0
    9.1952  -15.8277   25.2582 C   0  0  0  0  0  0  0  0  0  0  0  0
   10.4433  -15.8605   24.9640 O   0  0  0  0  0  0  0  0  0  0  0  0
    9.4166  -13.2833   27.9438 C   0  0  0  0  0  0  0  0  0  0  0  0
    9.8209  -14.6024   27.3131 C   0  0  2  0  0  0  0  0  0  0  0  0
    8.8202  -15.1199   26.4356 N   0  0  0  0  0  0  0  0  0  0  0  0
   10.1419  -15.5282   28.3929 C   0  0  0  0  0  0  0  0  0  0  0  0
    9.4110  -16.5764   28.5032 O   0  0  0  0  0  0  0  0  0  0  0  0
   11.1700  -15.3498   29.2922 O   0  0  0  0  0  0  0  0  0  0  0  0
  2  4  1  0
  2  1  1  0
  3  2  2  0
  5  6  1  0
  5  4  1  0
  6  7  1  6
  6  8  1  0
  8  9  2  0
 10  8  1  0
 10 11  1  0
 11 12  1  6
 12 13  1  0
 13 14  2  0
 14 15  1  0
 16 15  1  0
 17 13  1  0
 17 16  2  0
 18 22  1  0
 18 11  1  0
 19 18  2  0
 21 20  1  1
 21 23  1  0
 21 22  1  0
 23 25  1  0
 24 23  2  0
M  END
$$$$
