QHA.pdb
     RDKit          3D

 25 25  0  0  1  0  0  0  0  0999 V2000
   14.5508  -18.9955   16.4746 N   0  0  0  0  0  0  0  0  0  0  0  0
   13.5022  -19.7533   15.8826 C   0  0  0  0  0  0  0  0  0  0  0  0
   13.7496  -20.8020   15.2109 O   0  0  0  0  0  0  0  0  0  0  0  0
   12.1126  -19.2616   16.0867 C   0  0  0  0  0  0  0  0  0  0  0  0
   12.1763  -18.0444   16.9819 C   0  0  0  0  0  0  0  0  0  0  0  0
   10.7853  -17.5332   17.2109 C   0  0  2  0  0  0  0  0  0  0  0  0
   10.3766  -16.7310   16.0826 N   0  0  0  0  0  0  0  0  0  0  0  0
   10.7360  -16.7259   18.4665 C   0  0  0  0  0  0  0  0  0  0  0  0
   11.5325  -15.7703   18.6488 O   0  0  0  0  0  0  0  0  0  0  0  0
    9.7832  -17.0492   19.4470 N   0  0  0  0  0  0  0  0  0  0  0  0
    9.6447  -16.2315   20.6847 C   0  0  1  0  0  0  0  0  0  0  0  0
    8.2248  -15.8083   20.7242 C   0  0  0  0  0  0  0  0  0  0  0  0
    7.8990  -14.6840   19.8375 C   0  0  0  0  0  0  0  0  0  0  0  0
    8.7863  -14.0604   18.9800 C   0  0  0  0  0  0  0  0  0  0  0  0
    8.1001  -13.0891   18.3547 N   0  0  0  0  0  0  0  0  0  0  0  0
    6.8471  -13.0956   18.7908 C   0  0  0  0  0  0  0  0  0  0  0  0
    6.7338  -14.0737   19.6967 N   0  0  0  0  0  0  0  0  0  0  0  0
   10.1682  -17.0242   21.7738 C   0  0  0  0  0  0  0  0  0  0  0  0
    9.9784  -18.2926   21.7520 O   0  0  0  0  0  0  0  0  0  0  0  0
   12.7379  -16.8639   24.4460 C   0  0  0  0  0  0  0  0  0  0  0  0
   11.4221  -17.3617   23.8785 C   0  0  2  0  0  0  0  0  0  0  0  0
   10.8923  -16.4911   22.8781 N   0  0  0  0  0  0  0  0  0  0  0  0
   10.5017  -17.5467   24.9942 C   0  0  0  0  0  0  0  0  0  0  0  0
    9.4329  -16.8376   24.9964 O   0  0  0  0  0  0  0  0  0  0  0  0
   10.7056  -18.4261   26.0346 O   0  0  0  0  0  0  0  0  0  0  0  0
  2  4  1  0
  2  1  1  0
  3  2  2  0
  5  6  1  0
  5  4  1  0
  6  7  1  6
  6  8  1  0
  8  9  2  0
 10  8  1  0
 10 11  1  0
 11 12  1  1
 12 13  1  0
 13 14  2  0
 14 15  1  0
 16 15  1  0
 17 13  1  0
 17 16  2  0
 18 22  1  0
 18 11  1  0
 19 18  2  0
 21 20  1  1
 21 23  1  0
 21 22  1  0
 23 25  1  0
 24 23  2  0
M  END
$$$$
