QHA.pdb
     RDKit          3D

 25 25  0  0  1  0  0  0  0  0999 V2000
   13.2558  -20.3004   23.8302 N   0  0  0  0  0  0  0  0  0  0  0  0
   13.0931  -20.7016   22.4750 C   0  0  0  0  0  0  0  0  0  0  0  0
   13.5272  -21.8226   22.0663 O   0  0  0  0  0  0  0  0  0  0  0  0
   12.3952  -19.7517   21.5665 C   0  0  0  0  0  0  0  0  0  0  0  0
   11.9419  -18.5675   22.3905 C   0  0  0  0  0  0  0  0  0  0  0  0
   11.1396  -17.6460   21.5211 C   0  0  2  0  0  0  0  0  0  0  0  0
   11.9145  -17.2880   20.3570 N   0  0  0  0  0  0  0  0  0  0  0  0
   10.7577  -16.4218   22.2867 C   0  0  0  0  0  0  0  0  0  0  0  0
   11.4176  -15.3579   22.1700 O   0  0  0  0  0  0  0  0  0  0  0  0
    9.6457  -16.4738   23.1437 N   0  0  0  0  0  0  0  0  0  0  0  0
    9.2036  -15.2716   23.9045 C   0  0  1  0  0  0  0  0  0  0  0  0
    7.7747  -15.0854   23.5577 C   0  0  0  0  0  0  0  0  0  0  0  0
    7.5404  -14.5125   22.2260 C   0  0  0  0  0  0  0  0  0  0  0  0
    7.0423  -15.2024   21.1363 C   0  0  0  0  0  0  0  0  0  0  0  0
    6.9814  -14.3258   20.1199 N   0  0  0  0  0  0  0  0  0  0  0  0
    7.4166  -13.1452   20.5407 C   0  0  0  0  0  0  0  0  0  0  0  0
    7.7559  -13.2691   21.8290 N   0  0  0  0  0  0  0  0  0  0  0  0
    9.5642  -15.4918   25.2866 C   0  0  0  0  0  0  0  0  0  0  0  0
    9.8767  -16.6803   25.6541 O   0  0  0  0  0  0  0  0  0  0  0  0
   10.1585  -13.5161   28.4654 C   0  0  0  0  0  0  0  0  0  0  0  0
   10.1854  -14.7299   27.5558 C   0  0  2  0  0  0  0  0  0  0  0  0
    9.6029  -14.4703   26.2780 N   0  0  0  0  0  0  0  0  0  0  0  0
    9.5185  -15.8214   28.2560 C   0  0  0  0  0  0  0  0  0  0  0  0
    8.3897  -16.2138   27.7903 O   0  0  0  0  0  0  0  0  0  0  0  0
   10.0195  -16.4509   29.3741 O   0  0  0  0  0  0  0  0  0  0  0  0
  2  4  1  0
  2  1  1  0
  3  2  2  0
  5  6  1  0
  5  4  1  0
  6  7  1  6
  6  8  1  0
  8  9  2  0
 10  8  1  0
 10 11  1  0
 11 12  1  1
 12 13  1  0
 13 14  2  0
 14 15  1  0
 16 15  1  0
 17 13  1  0
 17 16  2  0
 18 22  1  0
 18 11  1  0
 19 18  2  0
 21 20  1  1
 21 23  1  0
 21 22  1  0
 23 25  1  0
 24 23  2  0
M  END
$$$$
