QHA.pdb
     RDKit          3D

 25 25  0  0  1  0  0  0  0  0999 V2000
    7.8915  -12.3802   18.6429 N   0  0  0  0  0  0  0  0  0  0  0  0
    8.1745  -13.6358   18.0367 C   0  0  0  0  0  0  0  0  0  0  0  0
    8.3155  -13.7399   16.7791 O   0  0  0  0  0  0  0  0  0  0  0  0
    8.2962  -14.8121   18.9401 C   0  0  0  0  0  0  0  0  0  0  0  0
    7.9955  -14.3503   20.3484 C   0  0  0  0  0  0  0  0  0  0  0  0
    8.9886  -14.9677   21.2873 C   0  0  2  0  0  0  0  0  0  0  0  0
    9.3673  -16.2713   20.7966 N   0  0  0  0  0  0  0  0  0  0  0  0
    8.4001  -15.0792   22.6554 C   0  0  0  0  0  0  0  0  0  0  0  0
    7.7115  -14.1443   23.1378 O   0  0  0  0  0  0  0  0  0  0  0  0
    8.6266  -16.2481   23.4011 N   0  0  0  0  0  0  0  0  0  0  0  0
    8.0965  -16.3923   24.7860 C   0  0  1  0  0  0  0  0  0  0  0  0
    7.7590  -17.8279   24.9346 C   0  0  0  0  0  0  0  0  0  0  0  0
    6.6584  -18.2870   24.0777 C   0  0  0  0  0  0  0  0  0  0  0  0
    5.5047  -17.5740   23.8092 C   0  0  0  0  0  0  0  0  0  0  0  0
    4.7603  -18.3383   22.9925 N   0  0  0  0  0  0  0  0  0  0  0  0
    5.4053  -19.4733   22.7556 C   0  0  0  0  0  0  0  0  0  0  0  0
    6.5642  -19.4328   23.4231 N   0  0  0  0  0  0  0  0  0  0  0  0
    9.0758  -15.8091   25.6745 C   0  0  0  0  0  0  0  0  0  0  0  0
   10.3169  -16.0499   25.4577 O   0  0  0  0  0  0  0  0  0  0  0  0
    9.4140  -13.1658   28.3007 C   0  0  0  0  0  0  0  0  0  0  0  0
    9.7931  -14.4708   27.6264 C   0  0  2  0  0  0  0  0  0  0  0  0
    8.7566  -14.9727   26.7819 N   0  0  0  0  0  0  0  0  0  0  0  0
   10.1612  -15.4177   28.6723 C   0  0  0  0  0  0  0  0  0  0  0  0
    9.4261  -16.4604   28.8046 O   0  0  0  0  0  0  0  0  0  0  0  0
   11.2376  -15.2646   29.5182 O   0  0  0  0  0  0  0  0  0  0  0  0
  2  4  1  0
  2  1  1  0
  3  2  2  0
  5  6  1  0
  5  4  1  0
  6  7  1  6
  6  8  1  0
  8  9  2  0
 10  8  1  0
 10 11  1  0
 11 12  1  1
 12 13  1  0
 13 14  2  0
 14 15  1  0
 16 15  1  0
 17 13  1  0
 17 16  2  0
 18 22  1  0
 18 11  1  0
 19 18  2  0
 21 20  1  1
 21 23  1  0
 21 22  1  0
 23 25  1  0
 24 23  2  0
M  END
$$$$
