QHA.pdb
     RDKit          3D

 25 25  0  0  1  0  0  0  0  0999 V2000
   14.5386  -17.7780   15.2923 N   0  0  0  0  0  0  0  0  0  0  0  0
   13.3253  -17.2664   14.7537 C   0  0  0  0  0  0  0  0  0  0  0  0
   13.3225  -16.5609   13.6980 O   0  0  0  0  0  0  0  0  0  0  0  0
   12.0694  -17.5952   15.4812 C   0  0  0  0  0  0  0  0  0  0  0  0
   11.8625  -16.5458   16.5503 C   0  0  0  0  0  0  0  0  0  0  0  0
   11.7503  -17.2227   17.8838 C   0  0  2  0  0  0  0  0  0  0  0  0
   10.8061  -18.3106   17.7922 N   0  0  0  0  0  0  0  0  0  0  0  0
   11.3126  -16.2417   18.9214 C   0  0  0  0  0  0  0  0  0  0  0  0
   11.9894  -15.2084   19.1563 O   0  0  0  0  0  0  0  0  0  0  0  0
   10.1285  -16.4891   19.6360 N   0  0  0  0  0  0  0  0  0  0  0  0
    9.6260  -15.5214   20.6512 C   0  0  1  0  0  0  0  0  0  0  0  0
    8.1754  -15.3806   20.3818 C   0  0  0  0  0  0  0  0  0  0  0  0
    7.8529  -14.7337   19.1034 C   0  0  0  0  0  0  0  0  0  0  0  0
    7.9249  -13.3755   18.8553 C   0  0  0  0  0  0  0  0  0  0  0  0
    7.5499  -13.1965   17.5776 N   0  0  0  0  0  0  0  0  0  0  0  0
    7.2562  -14.3753   17.0441 C   0  0  0  0  0  0  0  0  0  0  0  0
    7.4444  -15.3086   17.9842 N   0  0  0  0  0  0  0  0  0  0  0  0
   10.0527  -16.0075   21.9437 C   0  0  0  0  0  0  0  0  0  0  0  0
   10.6927  -17.1178   21.9974 O   0  0  0  0  0  0  0  0  0  0  0  0
   10.0344  -14.9663   25.5867 C   0  0  0  0  0  0  0  0  0  0  0  0
   10.3234  -15.8627   24.3975 C   0  0  2  0  0  0  0  0  0  0  0  0
    9.8149  -15.3304   23.1737 N   0  0  0  0  0  0  0  0  0  0  0  0
    9.7779  -17.1816   24.6957 C   0  0  0  0  0  0  0  0  0  0  0  0
    8.7594  -17.5625   24.0155 O   0  0  0  0  0  0  0  0  0  0  0  0
   10.2826  -18.0353   25.6517 O   0  0  0  0  0  0  0  0  0  0  0  0
  2  4  1  0
  2  1  1  0
  3  2  2  0
  5  6  1  0
  5  4  1  0
  6  7  1  6
  6  8  1  0
  8  9  2  0
 10  8  1  0
 10 11  1  0
 11 12  1  1
 12 13  1  0
 13 14  2  0
 14 15  1  0
 16 15  1  0
 17 13  1  0
 17 16  2  0
 18 22  1  0
 18 11  1  0
 19 18  2  0
 21 20  1  1
 21 23  1  0
 21 22  1  0
 23 25  1  0
 24 23  2  0
M  END
$$$$
