QHA.pdb
     RDKit          3D

 25 25  0  0  1  0  0  0  0  0999 V2000
    7.2169  -18.7933   20.0220 N   0  0  0  0  0  0  0  0  0  0  0  0
    8.1569  -19.2214   19.0436 C   0  0  0  0  0  0  0  0  0  0  0  0
    7.7760  -19.6368   17.9058 O   0  0  0  0  0  0  0  0  0  0  0  0
    9.5967  -19.1593   19.4149 C   0  0  0  0  0  0  0  0  0  0  0  0
    9.6985  -18.5102   20.7769 C   0  0  0  0  0  0  0  0  0  0  0  0
    9.7064  -17.0201   20.6084 C   0  0  2  0  0  0  0  0  0  0  0  0
   10.8118  -16.6383   19.7622 N   0  0  0  0  0  0  0  0  0  0  0  0
    9.8185  -16.3540   21.9404 C   0  0  0  0  0  0  0  0  0  0  0  0
   10.9382  -16.2035   22.4924 O   0  0  0  0  0  0  0  0  0  0  0  0
    8.6509  -15.8951   22.5728 N   0  0  0  0  0  0  0  0  0  0  0  0
    8.7119  -15.1925   23.8851 C   0  0  1  0  0  0  0  0  0  0  0  0
    7.4193  -14.4787   24.0139 C   0  0  0  0  0  0  0  0  0  0  0  0
    7.2471  -13.7534   25.2791 C   0  0  0  0  0  0  0  0  0  0  0  0
    8.1279  -13.7857   26.3443 C   0  0  0  0  0  0  0  0  0  0  0  0
    7.6079  -12.9960   27.2988 N   0  0  0  0  0  0  0  0  0  0  0  0
    6.4609  -12.4904   26.8640 C   0  0  0  0  0  0  0  0  0  0  0  0
    6.2488  -12.9589   25.6288 N   0  0  0  0  0  0  0  0  0  0  0  0
    9.0651  -16.1826   24.8769 C   0  0  0  0  0  0  0  0  0  0  0  0
    8.3239  -17.2232   24.9917 O   0  0  0  0  0  0  0  0  0  0  0  0
   11.9833  -17.5475   26.5548 C   0  0  0  0  0  0  0  0  0  0  0  0
   10.5179  -17.1609   26.6228 C   0  0  2  0  0  0  0  0  0  0  0  0
   10.1932  -16.0858   25.7406 N   0  0  0  0  0  0  0  0  0  0  0  0
   10.2075  -16.8485   28.0128 C   0  0  0  0  0  0  0  0  0  0  0  0
    9.7500  -15.6766   28.2624 O   0  0  0  0  0  0  0  0  0  0  0  0
   10.3729  -17.7238   29.0635 O   0  0  0  0  0  0  0  0  0  0  0  0
  2  4  1  0
  2  1  1  0
  3  2  2  0
  5  6  1  0
  5  4  1  0
  6  7  1  6
  6  8  1  0
  8  9  2  0
 10  8  1  0
 10 11  1  0
 11 12  1  1
 12 13  1  0
 13 14  2  0
 14 15  1  0
 16 15  1  0
 17 13  1  0
 17 16  2  0
 18 22  1  0
 18 11  1  0
 19 18  2  0
 21 20  1  1
 21 23  1  0
 21 22  1  0
 23 25  1  0
 24 23  2  0
M  END
$$$$
