QHA.pdb
     RDKit          3D

 25 25  0  0  1  0  0  0  0  0999 V2000
    8.5774  -12.6106   18.2766 N   0  0  0  0  0  0  0  0  0  0  0  0
    8.1067  -13.8646   17.7970 C   0  0  0  0  0  0  0  0  0  0  0  0
    8.1984  -14.1733   16.5689 O   0  0  0  0  0  0  0  0  0  0  0  0
    7.5064  -14.7899   18.7961 C   0  0  0  0  0  0  0  0  0  0  0  0
    7.4081  -14.0527   20.1129 C   0  0  0  0  0  0  0  0  0  0  0  0
    8.5597  -14.4551   20.9851 C   0  0  2  0  0  0  0  0  0  0  0  0
    9.2235  -15.5989   20.4067 N   0  0  0  0  0  0  0  0  0  0  0  0
    8.0734  -14.7777   22.3599 C   0  0  0  0  0  0  0  0  0  0  0  0
    7.1859  -14.0769   22.9094 O   0  0  0  0  0  0  0  0  0  0  0  0
    8.6231  -15.8801   23.0354 N   0  0  0  0  0  0  0  0  0  0  0  0
    8.1487  -16.2644   24.3944 C   0  0  1  0  0  0  0  0  0  0  0  0
    8.1585  -17.7464   24.4140 C   0  0  0  0  0  0  0  0  0  0  0  0
    7.0629  -18.3731   23.6632 C   0  0  0  0  0  0  0  0  0  0  0  0
    5.7469  -17.9494   23.6682 C   0  0  0  0  0  0  0  0  0  0  0  0
    5.0701  -18.7838   22.8616 N   0  0  0  0  0  0  0  0  0  0  0  0
    5.9094  -19.6871   22.3717 C   0  0  0  0  0  0  0  0  0  0  0  0
    7.1249  -19.4279   22.8672 N   0  0  0  0  0  0  0  0  0  0  0  0
    8.9683  -15.5477   25.3448 C   0  0  0  0  0  0  0  0  0  0  0  0
   10.2431  -15.6621   25.2602 O   0  0  0  0  0  0  0  0  0  0  0  0
    8.7130  -12.8853   27.9902 C   0  0  0  0  0  0  0  0  0  0  0  0
    9.3429  -14.0802   27.2997 C   0  0  2  0  0  0  0  0  0  0  0  0
    8.4548  -14.7102   26.3757 N   0  0  0  0  0  0  0  0  0  0  0  0
    9.8041  -14.9966   28.3358 C   0  0  0  0  0  0  0  0  0  0  0  0
    9.2258  -16.1391   28.4079 O   0  0  0  0  0  0  0  0  0  0  0  0
   10.8114  -14.7154   29.2324 O   0  0  0  0  0  0  0  0  0  0  0  0
  2  4  1  0
  2  1  1  0
  3  2  2  0
  5  6  1  0
  5  4  1  0
  6  7  1  6
  6  8  1  0
  8  9  2  0
 10  8  1  0
 10 11  1  0
 11 12  1  1
 12 13  1  0
 13 14  2  0
 14 15  1  0
 16 15  1  0
 17 13  1  0
 17 16  2  0
 18 22  1  0
 18 11  1  0
 19 18  2  0
 21 20  1  1
 21 23  1  0
 21 22  1  0
 23 25  1  0
 24 23  2  0
M  END
$$$$
