QHA.pdb
     RDKit          3D

 25 25  0  0  1  0  0  0  0  0999 V2000
   18.8569  -15.3008   17.6315 N   0  0  0  0  0  0  0  0  0  0  0  0
   18.0702  -14.7221   16.5969 C   0  0  0  0  0  0  0  0  0  0  0  0
   18.1675  -13.4888   16.3111 O   0  0  0  0  0  0  0  0  0  0  0  0
   17.1352  -15.6245   15.8716 C   0  0  0  0  0  0  0  0  0  0  0  0
   15.9986  -15.9672   16.8084 C   0  0  0  0  0  0  0  0  0  0  0  0
   15.0542  -16.8994   16.1099 C   0  0  2  0  0  0  0  0  0  0  0  0
   14.6592  -16.3249   14.8460 N   0  0  0  0  0  0  0  0  0  0  0  0
   13.8545  -17.1487   16.9639 C   0  0  0  0  0  0  0  0  0  0  0  0
   12.7027  -16.8487   16.5589 O   0  0  0  0  0  0  0  0  0  0  0  0
   14.0299  -17.7259   18.2327 N   0  0  0  0  0  0  0  0  0  0  0  0
   12.8603  -18.1228   19.0659 C   0  0  1  0  0  0  0  0  0  0  0  0
   12.8703  -19.6048   19.0840 C   0  0  0  0  0  0  0  0  0  0  0  0
   11.8898  -20.2098   19.9947 C   0  0  0  0  0  0  0  0  0  0  0  0
   12.1925  -21.0511   21.0493 C   0  0  0  0  0  0  0  0  0  0  0  0
   11.0249  -21.3824   21.6256 N   0  0  0  0  0  0  0  0  0  0  0  0
   10.0360  -20.7849   20.9735 C   0  0  0  0  0  0  0  0  0  0  0  0
   10.5743  -20.0705   19.9785 N   0  0  0  0  0  0  0  0  0  0  0  0
   12.9724  -17.4079   20.3169 C   0  0  0  0  0  0  0  0  0  0  0  0
   14.1437  -17.1126   20.7484 O   0  0  0  0  0  0  0  0  0  0  0  0
   10.7801  -15.8159   22.9622 C   0  0  0  0  0  0  0  0  0  0  0  0
   12.0736  -16.3097   22.3421 C   0  0  2  0  0  0  0  0  0  0  0  0
   11.8622  -16.9992   21.1095 N   0  0  0  0  0  0  0  0  0  0  0  0
   12.7488  -17.1407   23.3318 C   0  0  0  0  0  0  0  0  0  0  0  0
   12.6941  -18.4114   23.1661 O   0  0  0  0  0  0  0  0  0  0  0  0
   13.4348  -16.6520   24.4218 O   0  0  0  0  0  0  0  0  0  0  0  0
  2  4  1  0
  2  1  1  0
  3  2  2  0
  5  6  1  0
  5  4  1  0
  6  7  1  6
  6  8  1  0
  8  9  2  0
 10  8  1  0
 10 11  1  0
 11 12  1  1
 12 13  1  0
 13 14  2  0
 14 15  1  0
 16 15  1  0
 17 13  1  0
 17 16  2  0
 18 22  1  0
 18 11  1  0
 19 18  2  0
 21 20  1  1
 21 23  1  0
 21 22  1  0
 23 25  1  0
 24 23  2  0
M  END
$$$$
