QHA.pdb
     RDKit          3D

 25 25  0  0  1  0  0  0  0  0999 V2000
   13.6095  -14.1583   14.5979 N   0  0  0  0  0  0  0  0  0  0  0  0
   14.2239  -15.4386   14.6844 C   0  0  0  0  0  0  0  0  0  0  0  0
   14.7108  -16.0031   13.6566 O   0  0  0  0  0  0  0  0  0  0  0  0
   14.2682  -16.0794   16.0268 C   0  0  0  0  0  0  0  0  0  0  0  0
   13.6187  -15.1361   17.0144 C   0  0  0  0  0  0  0  0  0  0  0  0
   13.7170  -15.7255   18.3898 C   0  0  2  0  0  0  0  0  0  0  0  0
   13.4682  -17.1458   18.3227 N   0  0  0  0  0  0  0  0  0  0  0  0
   12.7322  -15.0688   19.3006 C   0  0  0  0  0  0  0  0  0  0  0  0
   12.8408  -13.8514   19.5956 O   0  0  0  0  0  0  0  0  0  0  0  0
   11.6767  -15.8324   19.8267 N   0  0  0  0  0  0  0  0  0  0  0  0
   10.7216  -15.2501   20.8108 C   0  0  1  0  0  0  0  0  0  0  0  0
    9.3712  -15.5497   20.2785 C   0  0  0  0  0  0  0  0  0  0  0  0
    8.8604  -14.5606   19.3207 C   0  0  0  0  0  0  0  0  0  0  0  0
    9.5047  -13.3917   18.9600 C   0  0  0  0  0  0  0  0  0  0  0  0
    8.7112  -12.7728   18.0699 N   0  0  0  0  0  0  0  0  0  0  0  0
    7.6236  -13.5076   17.8761 C   0  0  0  0  0  0  0  0  0  0  0  0
    7.7239  -14.5982   18.6448 N   0  0  0  0  0  0  0  0  0  0  0  0
   11.0903  -15.7641   22.1102 C   0  0  0  0  0  0  0  0  0  0  0  0
   12.1318  -16.5075   22.1997 O   0  0  0  0  0  0  0  0  0  0  0  0
    9.9148  -15.6817   25.7111 C   0  0  0  0  0  0  0  0  0  0  0  0
   10.7312  -16.1590   24.5249 C   0  0  2  0  0  0  0  0  0  0  0  0
   10.3744  -15.4956   23.3116 N   0  0  0  0  0  0  0  0  0  0  0  0
   10.5712  -17.6053   24.4320 C   0  0  0  0  0  0  0  0  0  0  0  0
   11.0304  -18.3095   25.4006 O   0  0  0  0  0  0  0  0  0  0  0  0
    9.9640  -18.2559   23.3805 O   0  0  0  0  0  0  0  0  0  0  0  0
  2  4  1  0
  2  1  1  0
  3  2  2  0
  5  6  1  0
  5  4  1  0
  6  7  1  6
  6  8  1  0
  8  9  2  0
 10  8  1  0
 10 11  1  0
 11 12  1  6
 12 13  1  0
 13 14  2  0
 14 15  1  0
 16 15  1  0
 17 13  1  0
 17 16  2  0
 18 22  1  0
 18 11  1  0
 19 18  2  0
 21 20  1  1
 21 23  1  0
 21 22  1  0
 23 25  1  0
 24 23  2  0
M  END
$$$$
