QHA.pdb
     RDKit          3D

 25 25  0  0  1  0  0  0  0  0999 V2000
   14.7080  -20.7943   17.8586 N   0  0  0  0  0  0  0  0  0  0  0  0
   14.8531  -19.5848   18.5936 C   0  0  0  0  0  0  0  0  0  0  0  0
   15.7010  -19.4864   19.5335 O   0  0  0  0  0  0  0  0  0  0  0  0
   13.9703  -18.4496   18.2108 C   0  0  0  0  0  0  0  0  0  0  0  0
   12.5685  -18.9890   18.0348 C   0  0  0  0  0  0  0  0  0  0  0  0
   11.6667  -17.8726   17.5999 C   0  0  2  0  0  0  0  0  0  0  0  0
   12.3050  -17.1229   16.5444 N   0  0  0  0  0  0  0  0  0  0  0  0
   11.3603  -16.9804   18.7578 C   0  0  0  0  0  0  0  0  0  0  0  0
   12.1961  -16.1279   19.1521 O   0  0  0  0  0  0  0  0  0  0  0  0
   10.1195  -17.1061   19.4047 N   0  0  0  0  0  0  0  0  0  0  0  0
    9.7113  -16.1563   20.4775 C   0  0  1  0  0  0  0  0  0  0  0  0
    8.2569  -15.9436   20.2873 C   0  0  0  0  0  0  0  0  0  0  0  0
    7.9160  -14.8609   19.3556 C   0  0  0  0  0  0  0  0  0  0  0  0
    8.8276  -14.0440   18.7129 C   0  0  0  0  0  0  0  0  0  0  0  0
    8.1155  -13.1908   17.9579 N   0  0  0  0  0  0  0  0  0  0  0  0
    6.8238  -13.4513   18.1125 C   0  0  0  0  0  0  0  0  0  0  0  0
    6.7117  -14.4735   18.9685 N   0  0  0  0  0  0  0  0  0  0  0  0
   10.1791  -16.7080   21.7287 C   0  0  0  0  0  0  0  0  0  0  0  0
   10.4249  -17.9655   21.7875 O   0  0  0  0  0  0  0  0  0  0  0  0
   11.0601  -15.6009   25.2442 C   0  0  0  0  0  0  0  0  0  0  0  0
   10.8567  -16.5802   24.1036 C   0  0  2  0  0  0  0  0  0  0  0  0
   10.3940  -15.9445   22.9114 N   0  0  0  0  0  0  0  0  0  0  0  0
    9.9419  -17.6160   24.5687 C   0  0  0  0  0  0  0  0  0  0  0  0
    8.7376  -17.5751   24.1294 O   0  0  0  0  0  0  0  0  0  0  0  0
   10.2864  -18.6253   25.4407 O   0  0  0  0  0  0  0  0  0  0  0  0
  2  4  1  0
  2  1  1  0
  3  2  2  0
  5  6  1  0
  5  4  1  0
  6  7  1  6
  6  8  1  0
  8  9  2  0
 10  8  1  0
 10 11  1  0
 11 12  1  1
 12 13  1  0
 13 14  2  0
 14 15  1  0
 16 15  1  0
 17 13  1  0
 17 16  2  0
 18 22  1  0
 18 11  1  0
 19 18  2  0
 21 20  1  1
 21 23  1  0
 21 22  1  0
 23 25  1  0
 24 23  2  0
M  END
$$$$
