QFR.pdb
     RDKit          3D

 32 32  0  0  1  0  0  0  0  0999 V2000
   28.6095  -19.7070  -19.0778 N   0  0  0  0  0  0  0  0  0  0  0  0
   27.7356  -20.7127  -19.5481 C   0  0  0  0  0  0  0  0  0  0  0  0
   27.9437  -21.2511  -20.6658 O   0  0  0  0  0  0  0  0  0  0  0  0
   26.5853  -21.1250  -18.7260 C   0  0  0  0  0  0  0  0  0  0  0  0
   26.8917  -22.4258  -17.9928 C   0  0  0  0  0  0  0  0  0  0  0  0
   27.6312  -22.0345  -16.7291 C   0  0  2  0  0  0  0  0  0  0  0  0
   28.7725  -22.8849  -16.4891 N   0  0  0  0  0  0  0  0  0  0  0  0
   26.7086  -22.1775  -15.5650 C   0  0  0  0  0  0  0  0  0  0  0  0
   26.3571  -23.2844  -15.1202 O   0  0  0  0  0  0  0  0  0  0  0  0
   26.2086  -21.0062  -14.9358 N   0  0  0  0  0  0  0  0  0  0  0  0
   25.4416  -21.0671  -13.6661 C   0  0  1  0  0  0  0  0  0  0  0  0
   26.1266  -20.1402  -12.7585 C   0  0  0  0  0  0  0  0  0  0  0  0
   27.3816  -20.4869  -12.1520 C   0  0  0  0  0  0  0  0  0  0  0  0
   27.5028  -21.3661  -11.0705 C   0  0  0  0  0  0  0  0  0  0  0  0
   28.7369  -21.6770  -10.5420 C   0  0  0  0  0  0  0  0  0  0  0  0
   29.8912  -21.1478  -11.0423 C   0  0  0  0  0  0  0  0  0  0  0  0
   29.7895  -20.2800  -12.1073 C   0  0  0  0  0  0  0  0  0  0  0  0
   28.5572  -19.9655  -12.6401 C   0  0  0  0  0  0  0  0  0  0  0  0
   24.0451  -20.7606  -14.0222 C   0  0  0  0  0  0  0  0  0  0  0  0
   23.8052  -19.7895  -14.8258 O   0  0  0  0  0  0  0  0  0  0  0  0
   18.8175  -24.5016  -10.1262 N   0  0  0  0  0  0  0  0  0  0  0  0
   17.7567  -24.1520  -11.0463 C   0  0  0  0  0  0  0  0  0  0  0  0
   16.5654  -24.0333  -10.6191 N   0  0  0  0  0  0  0  0  0  0  0  0
   18.0928  -23.9496  -12.4061 N   0  0  0  0  0  0  0  0  0  0  0  0
   19.4487  -24.0674  -12.8664 C   0  0  0  0  0  0  0  0  0  0  0  0
   20.2737  -22.8076  -12.7243 C   0  0  0  0  0  0  0  0  0  0  0  0
   20.6291  -22.2114  -14.0499 C   0  0  0  0  0  0  0  0  0  0  0  0
   21.5453  -21.0395  -14.0251 C   0  0  2  0  0  0  0  0  0  0  0  0
   22.8910  -21.4415  -13.5673 N   0  0  0  0  0  0  0  0  0  0  0  0
   21.0319  -20.0116  -13.0920 C   0  0  0  0  0  0  0  0  0  0  0  0
   19.9438  -19.2236  -13.3878 O   0  0  0  0  0  0  0  0  0  0  0  0
   21.5685  -19.7987  -11.9655 O   0  0  0  0  0  0  0  0  0  0  0  0
  1  2  1  0
  2  4  1  0
  3  2  2  0
  4  5  1  0
  6  7  1  1
  6  5  1  0
  8  9  2  0
  8  6  1  0
 10  8  1  0
 11 10  1  0
 11 12  1  1
 13 14  2  0
 13 12  1  0
 15 14  1  0
 16 15  2  0
 17 16  1  0
 17 18  2  0
 18 13  1  0
 19 20  2  0
 19 11  1  0
 22 23  2  0
 22 21  1  0
 24 22  1  0
 25 24  1  0
 26 27  1  0
 26 25  1  0
 28 29  1  0
 28 27  1  1
 29 19  1  0
 30 28  1  0
 31 30  1  0
 32 30  2  0
M  END
$$$$
