QFR.pdb
     RDKit          3D

 32 32  0  0  1  0  0  0  0  0999 V2000
   27.1296  -17.0521  -13.7141 N   0  0  0  0  0  0  0  0  0  0  0  0
   27.6965  -17.6093  -14.8822 C   0  0  0  0  0  0  0  0  0  0  0  0
   28.2086  -16.8568  -15.7505 O   0  0  0  0  0  0  0  0  0  0  0  0
   27.6846  -19.0692  -15.0761 C   0  0  0  0  0  0  0  0  0  0  0  0
   27.1495  -19.7690  -13.8322 C   0  0  0  0  0  0  0  0  0  0  0  0
   28.3482  -20.4031  -13.1555 C   0  0  2  0  0  0  0  0  0  0  0  0
   28.8672  -21.5160  -13.9141 N   0  0  0  0  0  0  0  0  0  0  0  0
   27.9310  -20.9223  -11.8201 C   0  0  0  0  0  0  0  0  0  0  0  0
   27.2403  -21.9477  -11.6854 O   0  0  0  0  0  0  0  0  0  0  0  0
   28.3360  -20.2215  -10.6527 N   0  0  0  0  0  0  0  0  0  0  0  0
   27.8492  -20.6031   -9.3030 C   0  0  1  0  0  0  0  0  0  0  0  0
   28.7964  -19.9902   -8.3654 C   0  0  0  0  0  0  0  0  0  0  0  0
   28.5176  -19.9371   -6.9574 C   0  0  0  0  0  0  0  0  0  0  0  0
   28.0481  -18.7931   -6.3031 C   0  0  0  0  0  0  0  0  0  0  0  0
   27.7791  -18.8071   -4.9517 C   0  0  0  0  0  0  0  0  0  0  0  0
   27.9556  -19.9267   -4.1915 C   0  0  0  0  0  0  0  0  0  0  0  0
   28.4175  -21.0621   -4.8202 C   0  0  0  0  0  0  0  0  0  0  0  0
   28.6883  -21.0536   -6.1722 C   0  0  0  0  0  0  0  0  0  0  0  0
   26.4461  -20.1580   -9.2384 C   0  0  0  0  0  0  0  0  0  0  0  0
   26.1760  -18.9178   -9.4262 O   0  0  0  0  0  0  0  0  0  0  0  0
   22.5797  -19.7908  -14.6952 N   0  0  0  0  0  0  0  0  0  0  0  0
   21.2130  -19.6581  -14.2385 C   0  0  0  0  0  0  0  0  0  0  0  0
   20.4216  -18.8658  -14.8399 N   0  0  0  0  0  0  0  0  0  0  0  0
   20.8037  -20.4300  -13.1251 N   0  0  0  0  0  0  0  0  0  0  0  0
   21.7428  -21.2193  -12.3771 C   0  0  0  0  0  0  0  0  0  0  0  0
   22.1020  -20.6533  -11.0212 C   0  0  0  0  0  0  0  0  0  0  0  0
   23.4903  -21.0235  -10.6032 C   0  0  0  0  0  0  0  0  0  0  0  0
   23.9532  -20.4883   -9.2946 C   0  0  2  0  0  0  0  0  0  0  0  0
   25.3152  -20.9710   -8.9881 N   0  0  0  0  0  0  0  0  0  0  0  0
   23.0518  -20.9418   -8.2116 C   0  0  0  0  0  0  0  0  0  0  0  0
   23.4993  -21.6758   -7.1376 O   0  0  0  0  0  0  0  0  0  0  0  0
   21.8136  -20.6792   -8.2139 O   0  0  0  0  0  0  0  0  0  0  0  0
  1  2  1  0
  2  4  1  0
  3  2  2  0
  4  5  1  0
  6  7  1  6
  6  5  1  0
  8  9  2  0
  8  6  1  0
 10  8  1  0
 11 10  1  0
 11 12  1  1
 13 14  2  0
 13 12  1  0
 15 14  1  0
 16 15  2  0
 17 16  1  0
 17 18  2  0
 18 13  1  0
 19 20  2  0
 19 11  1  0
 22 23  2  0
 22 21  1  0
 24 22  1  0
 25 24  1  0
 26 27  1  0
 26 25  1  0
 28 29  1  0
 28 27  1  6
 29 19  1  0
 30 28  1  0
 31 30  1  0
 32 30  2  0
M  END
$$$$
