QFR.pdb
     RDKit          3D

 32 32  0  0  1  0  0  0  0  0999 V2000
   25.9754  -21.8200  -19.3961 N   0  0  0  0  0  0  0  0  0  0  0  0
   26.5825  -20.5947  -19.0407 C   0  0  0  0  0  0  0  0  0  0  0  0
   26.7759  -19.7137  -19.9176 O   0  0  0  0  0  0  0  0  0  0  0  0
   26.9853  -20.3559  -17.6444 C   0  0  0  0  0  0  0  0  0  0  0  0
   26.7365  -21.5982  -16.7968 C   0  0  0  0  0  0  0  0  0  0  0  0
   27.8935  -21.6830  -15.8216 C   0  0  2  0  0  0  0  0  0  0  0  0
   28.7513  -22.8094  -16.1020 N   0  0  0  0  0  0  0  0  0  0  0  0
   27.3514  -21.8604  -14.4425 C   0  0  0  0  0  0  0  0  0  0  0  0
   26.5606  -22.7731  -14.1454 O   0  0  0  0  0  0  0  0  0  0  0  0
   27.7511  -20.9538  -13.4247 N   0  0  0  0  0  0  0  0  0  0  0  0
   27.3084  -21.1140  -12.0166 C   0  0  1  0  0  0  0  0  0  0  0  0
   28.2960  -20.3804  -11.2174 C   0  0  0  0  0  0  0  0  0  0  0  0
   28.0635  -20.0962   -9.8288 C   0  0  0  0  0  0  0  0  0  0  0  0
   27.0662  -19.2277   -9.3721 C   0  0  0  0  0  0  0  0  0  0  0  0
   26.8769  -19.0085   -8.0249 C   0  0  0  0  0  0  0  0  0  0  0  0
   27.6453  -19.6216   -7.0782 C   0  0  0  0  0  0  0  0  0  0  0  0
   28.6321  -20.4800   -7.5110 C   0  0  0  0  0  0  0  0  0  0  0  0
   28.8258  -20.7030   -8.8578 C   0  0  0  0  0  0  0  0  0  0  0  0
   25.9140  -20.6399  -11.9746 C   0  0  0  0  0  0  0  0  0  0  0  0
   25.5780  -19.6271  -12.6873 O   0  0  0  0  0  0  0  0  0  0  0  0
   20.2840  -24.4231  -15.8029 N   0  0  0  0  0  0  0  0  0  0  0  0
   21.1021  -23.2755  -16.1314 C   0  0  0  0  0  0  0  0  0  0  0  0
   21.4728  -23.0889  -17.3329 N   0  0  0  0  0  0  0  0  0  0  0  0
   21.4604  -22.3905  -15.0866 N   0  0  0  0  0  0  0  0  0  0  0  0
   20.8564  -22.4857  -13.7865 C   0  0  0  0  0  0  0  0  0  0  0  0
   21.3887  -21.4992  -12.7710 C   0  0  0  0  0  0  0  0  0  0  0  0
   22.8390  -21.7186  -12.4751 C   0  0  0  0  0  0  0  0  0  0  0  0
   23.4554  -20.8100  -11.4713 C   0  0  2  0  0  0  0  0  0  0  0  0
   24.8580  -21.1951  -11.2136 N   0  0  0  0  0  0  0  0  0  0  0  0
   22.7161  -20.8888  -10.1914 C   0  0  0  0  0  0  0  0  0  0  0  0
   23.3136  -21.2836   -9.0169 O   0  0  0  0  0  0  0  0  0  0  0  0
   21.4873  -20.5971  -10.1063 O   0  0  0  0  0  0  0  0  0  0  0  0
  1  2  1  0
  2  4  1  0
  3  2  2  0
  4  5  1  0
  6  7  1  6
  6  5  1  0
  8  9  2  0
  8  6  1  0
 10  8  1  0
 11 10  1  0
 11 12  1  1
 13 14  2  0
 13 12  1  0
 15 14  1  0
 16 15  2  0
 17 16  1  0
 17 18  2  0
 18 13  1  0
 19 20  2  0
 19 11  1  0
 22 23  2  0
 22 21  1  0
 24 22  1  0
 25 24  1  0
 26 27  1  0
 26 25  1  0
 28 29  1  0
 28 27  1  6
 29 19  1  0
 30 28  1  0
 31 30  1  0
 32 30  2  0
M  END
$$$$
