QFR.pdb
     RDKit          3D

 32 32  0  0  1  0  0  0  0  0999 V2000
   29.5574  -19.3385  -16.3488 N   0  0  0  0  0  0  0  0  0  0  0  0
   28.2711  -19.0056  -15.8680 C   0  0  0  0  0  0  0  0  0  0  0  0
   27.2750  -19.0932  -16.6312 O   0  0  0  0  0  0  0  0  0  0  0  0
   28.1043  -18.5578  -14.4749 C   0  0  0  0  0  0  0  0  0  0  0  0
   27.3030  -19.5803  -13.6775 C   0  0  0  0  0  0  0  0  0  0  0  0
   28.3173  -20.5145  -13.0487 C   0  0  2  0  0  0  0  0  0  0  0  0
   28.5417  -21.6879  -13.8586 N   0  0  0  0  0  0  0  0  0  0  0  0
   27.7991  -20.9711  -11.7258 C   0  0  0  0  0  0  0  0  0  0  0  0
   26.8774  -21.7988  -11.6163 O   0  0  0  0  0  0  0  0  0  0  0  0
   28.3777  -20.4426  -10.5410 N   0  0  0  0  0  0  0  0  0  0  0  0
   27.8813  -20.8185   -9.1932 C   0  0  1  0  0  0  0  0  0  0  0  0
   28.8971  -20.3235   -8.2577 C   0  0  0  0  0  0  0  0  0  0  0  0
   28.6280  -20.2330   -6.8497 C   0  0  0  0  0  0  0  0  0  0  0  0
   28.8434  -21.2831   -5.9506 C   0  0  0  0  0  0  0  0  0  0  0  0
   28.5850  -21.1315   -4.6056 C   0  0  0  0  0  0  0  0  0  0  0  0
   28.1107  -19.9610   -4.0884 C   0  0  0  0  0  0  0  0  0  0  0  0
   27.8931  -18.9167   -4.9601 C   0  0  0  0  0  0  0  0  0  0  0  0
   28.1499  -19.0629   -6.3070 C   0  0  0  0  0  0  0  0  0  0  0  0
   26.5265  -20.2489   -9.0879 C   0  0  0  0  0  0  0  0  0  0  0  0
   26.2806  -19.1182   -9.6422 O   0  0  0  0  0  0  0  0  0  0  0  0
   21.5382  -20.7583  -14.7066 N   0  0  0  0  0  0  0  0  0  0  0  0
   20.9559  -19.6522  -13.9775 C   0  0  0  0  0  0  0  0  0  0  0  0
   20.2089  -18.8212  -14.5836 N   0  0  0  0  0  0  0  0  0  0  0  0
   21.2426  -19.5389  -12.5962 N   0  0  0  0  0  0  0  0  0  0  0  0
   21.9221  -20.5866  -11.8856 C   0  0  0  0  0  0  0  0  0  0  0  0
   22.2310  -20.2690  -10.4394 C   0  0  0  0  0  0  0  0  0  0  0  0
   23.6536  -20.5692  -10.0854 C   0  0  0  0  0  0  0  0  0  0  0  0
   24.0476  -20.3358   -8.6700 C   0  0  2  0  0  0  0  0  0  0  0  0
   25.4187  -20.8276   -8.4243 N   0  0  0  0  0  0  0  0  0  0  0  0
   23.1313  -21.0596   -7.7604 C   0  0  0  0  0  0  0  0  0  0  0  0
   21.8038  -20.7234   -7.6290 O   0  0  0  0  0  0  0  0  0  0  0  0
   23.5200  -22.0318   -7.0491 O   0  0  0  0  0  0  0  0  0  0  0  0
  1  2  1  0
  2  4  1  0
  3  2  2  0
  4  5  1  0
  6  7  1  6
  6  5  1  0
  8  9  2  0
  8  6  1  0
 10  8  1  0
 11 10  1  0
 11 12  1  1
 13 14  2  0
 13 12  1  0
 15 14  1  0
 16 15  2  0
 17 16  1  0
 17 18  2  0
 18 13  1  0
 19 20  2  0
 19 11  1  0
 22 23  2  0
 22 21  1  0
 24 22  1  0
 25 24  1  0
 26 27  1  0
 26 25  1  0
 28 29  1  0
 28 27  1  6
 29 19  1  0
 30 28  1  0
 31 30  1  0
 32 30  2  0
M  END
$$$$
