QFR.pdb
     RDKit          3D

 32 32  0  0  1  0  0  0  0  0999 V2000
   27.5829  -17.1816  -16.0354 N   0  0  0  0  0  0  0  0  0  0  0  0
   27.7471  -17.6065  -17.3729 C   0  0  0  0  0  0  0  0  0  0  0  0
   28.1780  -16.8011  -18.2378 O   0  0  0  0  0  0  0  0  0  0  0  0
   27.4126  -18.9913  -17.7466 C   0  0  0  0  0  0  0  0  0  0  0  0
   26.9328  -19.7722  -16.5286 C   0  0  0  0  0  0  0  0  0  0  0  0
   28.1630  -20.4312  -15.9377 C   0  0  2  0  0  0  0  0  0  0  0  0
   28.6481  -21.5068  -16.7689 N   0  0  0  0  0  0  0  0  0  0  0  0
   27.8098  -21.0113  -14.6089 C   0  0  0  0  0  0  0  0  0  0  0  0
   27.2604  -22.1202  -14.4862 O   0  0  0  0  0  0  0  0  0  0  0  0
   28.1106  -20.2719  -13.4339 N   0  0  0  0  0  0  0  0  0  0  0  0
   27.7328  -20.7608  -12.0840 C   0  0  1  0  0  0  0  0  0  0  0  0
   28.5777  -20.0064  -11.1516 C   0  0  0  0  0  0  0  0  0  0  0  0
   28.2831  -19.9702   -9.7463 C   0  0  0  0  0  0  0  0  0  0  0  0
   27.3143  -19.1353   -9.1790 C   0  0  0  0  0  0  0  0  0  0  0  0
   27.0613  -19.1581   -7.8246 C   0  0  0  0  0  0  0  0  0  0  0  0
   27.7365  -19.9881   -6.9773 C   0  0  0  0  0  0  0  0  0  0  0  0
   28.6940  -20.8167   -7.5198 C   0  0  0  0  0  0  0  0  0  0  0  0
   28.9513  -20.7981   -8.8743 C   0  0  0  0  0  0  0  0  0  0  0  0
   26.2747  -20.5758  -11.9803 C   0  0  0  0  0  0  0  0  0  0  0  0
   25.7667  -19.4392  -12.2906 O   0  0  0  0  0  0  0  0  0  0  0  0
   19.2231  -23.5111  -14.5303 N   0  0  0  0  0  0  0  0  0  0  0  0
   19.1276  -22.0868  -14.7672 C   0  0  0  0  0  0  0  0  0  0  0  0
   18.0017  -21.5689  -15.0500 N   0  0  0  0  0  0  0  0  0  0  0  0
   20.3090  -21.3135  -14.6699 N   0  0  0  0  0  0  0  0  0  0  0  0
   21.5353  -21.8808  -14.1813 C   0  0  0  0  0  0  0  0  0  0  0  0
   21.7226  -21.7810  -12.6837 C   0  0  0  0  0  0  0  0  0  0  0  0
   23.0892  -22.2135  -12.2542 C   0  0  0  0  0  0  0  0  0  0  0  0
   23.8915  -21.2171  -11.4948 C   0  0  2  0  0  0  0  0  0  0  0  0
   25.3300  -21.5448  -11.5665 N   0  0  0  0  0  0  0  0  0  0  0  0
   23.4911  -21.2207  -10.0698 C   0  0  0  0  0  0  0  0  0  0  0  0
   22.3813  -20.5483   -9.6131 O   0  0  0  0  0  0  0  0  0  0  0  0
   24.1512  -21.8447   -9.1881 O   0  0  0  0  0  0  0  0  0  0  0  0
  1  2  1  0
  2  4  1  0
  3  2  2  0
  4  5  1  0
  6  7  1  6
  6  5  1  0
  8  9  2  0
  8  6  1  0
 10  8  1  0
 11 10  1  0
 11 12  1  1
 13 14  2  0
 13 12  1  0
 15 14  1  0
 16 15  2  0
 17 16  1  0
 17 18  2  0
 18 13  1  0
 19 20  2  0
 19 11  1  0
 22 23  2  0
 22 21  1  0
 24 22  1  0
 25 24  1  0
 26 27  1  0
 26 25  1  0
 28 29  1  0
 28 27  1  6
 29 19  1  0
 30 28  1  0
 31 30  1  0
 32 30  2  0
M  END
$$$$
