QFR.pdb
     RDKit          3D

 32 32  0  0  1  0  0  0  0  0999 V2000
   29.2653  -21.1027  -18.2061 N   0  0  0  0  0  0  0  0  0  0  0  0
   28.5878  -19.8791  -18.0056 C   0  0  0  0  0  0  0  0  0  0  0  0
   29.0258  -18.8261  -18.5365 O   0  0  0  0  0  0  0  0  0  0  0  0
   27.3717  -19.8439  -17.1755 C   0  0  0  0  0  0  0  0  0  0  0  0
   27.0178  -21.2438  -16.6870 C   0  0  0  0  0  0  0  0  0  0  0  0
   27.8128  -21.4610  -15.4152 C   0  0  2  0  0  0  0  0  0  0  0  0
   28.6564  -22.6290  -15.5016 N   0  0  0  0  0  0  0  0  0  0  0  0
   26.8646  -21.6716  -14.2822 C   0  0  0  0  0  0  0  0  0  0  0  0
   26.3401  -22.7735  -14.0430 O   0  0  0  0  0  0  0  0  0  0  0  0
   26.5447  -20.5732  -13.4401 N   0  0  0  0  0  0  0  0  0  0  0  0
   25.7418  -20.7441  -12.2030 C   0  0  1  0  0  0  0  0  0  0  0  0
   26.2576  -19.7381  -11.2681 C   0  0  0  0  0  0  0  0  0  0  0  0
   27.0688  -20.1159  -10.1446 C   0  0  0  0  0  0  0  0  0  0  0  0
   28.3086  -20.7533  -10.2635 C   0  0  0  0  0  0  0  0  0  0  0  0
   29.0524  -21.0746   -9.1490 C   0  0  0  0  0  0  0  0  0  0  0  0
   28.6211  -20.7899   -7.8858 C   0  0  0  0  0  0  0  0  0  0  0  0
   27.4022  -20.1624   -7.7510 C   0  0  0  0  0  0  0  0  0  0  0  0
   26.6537  -19.8386   -8.8628 C   0  0  0  0  0  0  0  0  0  0  0  0
   24.3324  -20.6270  -12.6164 C   0  0  0  0  0  0  0  0  0  0  0  0
   23.9746  -19.6268  -13.3360 O   0  0  0  0  0  0  0  0  0  0  0  0
   22.0216  -25.2821  -16.5082 N   0  0  0  0  0  0  0  0  0  0  0  0
   21.8959  -25.8644  -15.1894 C   0  0  0  0  0  0  0  0  0  0  0  0
   22.6621  -26.8189  -14.8461 N   0  0  0  0  0  0  0  0  0  0  0  0
   20.9120  -25.3382  -14.3187 N   0  0  0  0  0  0  0  0  0  0  0  0
   20.1522  -24.1700  -14.6686 C   0  0  0  0  0  0  0  0  0  0  0  0
   20.8945  -22.8627  -14.5016 C   0  0  0  0  0  0  0  0  0  0  0  0
   21.2239  -22.5778  -13.0700 C   0  0  0  0  0  0  0  0  0  0  0  0
   21.9119  -21.2883  -12.7923 C   0  0  2  0  0  0  0  0  0  0  0  0
   23.2856  -21.5267  -12.3043 N   0  0  0  0  0  0  0  0  0  0  0  0
   21.1796  -20.5347  -11.7498 C   0  0  0  0  0  0  0  0  0  0  0  0
   20.0361  -19.8200  -12.0216 O   0  0  0  0  0  0  0  0  0  0  0  0
   21.5671  -20.5051  -10.5451 O   0  0  0  0  0  0  0  0  0  0  0  0
  1  2  1  0
  2  4  1  0
  3  2  2  0
  4  5  1  0
  6  7  1  6
  6  5  1  0
  8  9  2  0
  8  6  1  0
 10  8  1  0
 11 10  1  0
 11 12  1  1
 13 14  2  0
 13 12  1  0
 15 14  1  0
 16 15  2  0
 17 16  1  0
 17 18  2  0
 18 13  1  0
 19 20  2  0
 19 11  1  0
 22 23  2  0
 22 21  1  0
 24 22  1  0
 25 24  1  0
 26 27  1  0
 26 25  1  0
 28 29  1  0
 28 27  1  1
 29 19  1  0
 30 28  1  0
 31 30  1  0
 32 30  2  0
M  END
$$$$
