QFR.pdb
     RDKit          3D

 32 32  0  0  1  0  0  0  0  0999 V2000
   27.2952  -17.3203  -13.7103 N   0  0  0  0  0  0  0  0  0  0  0  0
   27.6308  -17.9087  -14.9502 C   0  0  0  0  0  0  0  0  0  0  0  0
   28.1933  -17.2190  -15.8393 O   0  0  0  0  0  0  0  0  0  0  0  0
   27.3198  -19.3274  -15.1945 C   0  0  0  0  0  0  0  0  0  0  0  0
   26.8256  -19.9938  -13.9158 C   0  0  0  0  0  0  0  0  0  0  0  0
   28.0476  -20.6005  -13.2559 C   0  0  2  0  0  0  0  0  0  0  0  0
   28.5453  -21.7391  -13.9902 N   0  0  0  0  0  0  0  0  0  0  0  0
   27.6757  -21.0717  -11.8897 C   0  0  0  0  0  0  0  0  0  0  0  0
   26.9417  -22.0569  -11.6971 O   0  0  0  0  0  0  0  0  0  0  0  0
   28.1770  -20.3708  -10.7604 N   0  0  0  0  0  0  0  0  0  0  0  0
   27.7214  -20.6810   -9.3818 C   0  0  1  0  0  0  0  0  0  0  0  0
   28.7850  -20.1806   -8.5039 C   0  0  0  0  0  0  0  0  0  0  0  0
   28.5582  -19.9884   -7.0987 C   0  0  0  0  0  0  0  0  0  0  0  0
   28.1437  -18.7747   -6.5396 C   0  0  0  0  0  0  0  0  0  0  0  0
   27.9229  -18.6549   -5.1848 C   0  0  0  0  0  0  0  0  0  0  0  0
   28.0959  -19.7038   -4.3290 C   0  0  0  0  0  0  0  0  0  0  0  0
   28.5041  -20.9063   -4.8632 C   0  0  0  0  0  0  0  0  0  0  0  0
   28.7264  -21.0318   -6.2182 C   0  0  0  0  0  0  0  0  0  0  0  0
   26.3878  -20.0688   -9.2493 C   0  0  0  0  0  0  0  0  0  0  0  0
   26.1663  -18.9312   -9.8000 O   0  0  0  0  0  0  0  0  0  0  0  0
   20.2060  -23.1925  -12.3673 N   0  0  0  0  0  0  0  0  0  0  0  0
   19.8883  -21.9026  -12.9413 C   0  0  0  0  0  0  0  0  0  0  0  0
   18.7184  -21.6817  -13.3866 N   0  0  0  0  0  0  0  0  0  0  0  0
   20.9073  -20.9212  -12.9820 N   0  0  0  0  0  0  0  0  0  0  0  0
   22.1863  -21.1460  -12.3671 C   0  0  0  0  0  0  0  0  0  0  0  0
   22.2893  -20.6689  -10.9355 C   0  0  0  0  0  0  0  0  0  0  0  0
   23.6685  -20.8384  -10.3803 C   0  0  0  0  0  0  0  0  0  0  0  0
   23.8972  -20.3208   -9.0044 C   0  0  2  0  0  0  0  0  0  0  0  0
   25.2762  -20.6118   -8.5622 N   0  0  0  0  0  0  0  0  0  0  0  0
   22.9651  -20.9695   -8.0550 C   0  0  0  0  0  0  0  0  0  0  0  0
   23.3837  -21.8891   -7.1215 O   0  0  0  0  0  0  0  0  0  0  0  0
   21.7254  -20.7138   -8.0500 O   0  0  0  0  0  0  0  0  0  0  0  0
  1  2  1  0
  2  4  1  0
  3  2  2  0
  4  5  1  0
  6  7  1  6
  6  5  1  0
  8  9  2  0
  8  6  1  0
 10  8  1  0
 11 10  1  0
 11 12  1  1
 13 14  2  0
 13 12  1  0
 15 14  1  0
 16 15  2  0
 17 16  1  0
 17 18  2  0
 18 13  1  0
 19 20  2  0
 19 11  1  0
 22 23  2  0
 22 21  1  0
 24 22  1  0
 25 24  1  0
 26 27  1  0
 26 25  1  0
 28 29  1  0
 28 27  1  6
 29 19  1  0
 30 28  1  0
 31 30  1  0
 32 30  2  0
M  END
$$$$
