QFR.pdb
     RDKit          3D

 32 32  0  0  1  0  0  0  0  0999 V2000
   26.3938  -16.6166  -16.3901 N   0  0  0  0  0  0  0  0  0  0  0  0
   27.7715  -16.6235  -16.7034 C   0  0  0  0  0  0  0  0  0  0  0  0
   28.2899  -15.6280  -17.2714 O   0  0  0  0  0  0  0  0  0  0  0  0
   28.5932  -17.7973  -16.3626 C   0  0  0  0  0  0  0  0  0  0  0  0
   27.7470  -18.8584  -15.6686 C   0  0  0  0  0  0  0  0  0  0  0  0
   28.7072  -19.9483  -15.2362 C   0  0  2  0  0  0  0  0  0  0  0  0
   29.0077  -20.8589  -16.3150 N   0  0  0  0  0  0  0  0  0  0  0  0
   28.0777  -20.7400  -14.1390 C   0  0  0  0  0  0  0  0  0  0  0  0
   27.5020  -21.8239  -14.3396 O   0  0  0  0  0  0  0  0  0  0  0  0
   28.1350  -20.2405  -12.8105 N   0  0  0  0  0  0  0  0  0  0  0  0
   27.4846  -20.9493  -11.6796 C   0  0  1  0  0  0  0  0  0  0  0  0
   28.3345  -20.6767  -10.5154 C   0  0  0  0  0  0  0  0  0  0  0  0
   29.5987  -21.3378  -10.3484 C   0  0  0  0  0  0  0  0  0  0  0  0
   30.8096  -20.8268  -10.8279 C   0  0  0  0  0  0  0  0  0  0  0  0
   31.9957  -21.4967  -10.6204 C   0  0  0  0  0  0  0  0  0  0  0  0
   32.0480  -22.6806   -9.9435 C   0  0  0  0  0  0  0  0  0  0  0  0
   30.8644  -23.1979   -9.4646 C   0  0  0  0  0  0  0  0  0  0  0  0
   29.6746  -22.5317   -9.6693 C   0  0  0  0  0  0  0  0  0  0  0  0
   26.0970  -20.4555  -11.6374 C   0  0  0  0  0  0  0  0  0  0  0  0
   25.8785  -19.1976  -11.7653 O   0  0  0  0  0  0  0  0  0  0  0  0
   17.9246  -21.8549  -12.9757 N   0  0  0  0  0  0  0  0  0  0  0  0
   18.6438  -21.3679  -14.1331 C   0  0  0  0  0  0  0  0  0  0  0  0
   18.0394  -20.6607  -14.9994 N   0  0  0  0  0  0  0  0  0  0  0  0
   20.0141  -21.7005  -14.2557 N   0  0  0  0  0  0  0  0  0  0  0  0
   20.6861  -22.4812  -13.2541 C   0  0  0  0  0  0  0  0  0  0  0  0
   21.3752  -21.6691  -12.1801 C   0  0  0  0  0  0  0  0  0  0  0  0
   22.7587  -21.2617  -12.5788 C   0  0  0  0  0  0  0  0  0  0  0  0
   23.5894  -20.6183  -11.5257 C   0  0  2  0  0  0  0  0  0  0  0  0
   24.9294  -21.2374  -11.4702 N   0  0  0  0  0  0  0  0  0  0  0  0
   22.9517  -20.7867  -10.2006 C   0  0  0  0  0  0  0  0  0  0  0  0
   23.5222  -21.5340   -9.1964 O   0  0  0  0  0  0  0  0  0  0  0  0
   21.8404  -20.2510   -9.9169 O   0  0  0  0  0  0  0  0  0  0  0  0
  1  2  1  0
  2  4  1  0
  3  2  2  0
  4  5  1  0
  6  7  1  6
  6  5  1  0
  8  9  2  0
  8  6  1  0
 10  8  1  0
 11 10  1  0
 11 12  1  1
 13 14  2  0
 13 12  1  0
 15 14  1  0
 16 15  2  0
 17 16  1  0
 17 18  2  0
 18 13  1  0
 19 20  2  0
 19 11  1  0
 22 23  2  0
 22 21  1  0
 24 22  1  0
 25 24  1  0
 26 27  1  0
 26 25  1  0
 28 29  1  0
 28 27  1  6
 29 19  1  0
 30 28  1  0
 31 30  1  0
 32 30  2  0
M  END
$$$$
