QFR.pdb
     RDKit          3D

 32 32  0  0  1  0  0  0  0  0999 V2000
   27.2974  -17.3579  -13.4479 N   0  0  0  0  0  0  0  0  0  0  0  0
   27.8236  -18.0836  -14.5400 C   0  0  0  0  0  0  0  0  0  0  0  0
   28.5208  -17.4949  -15.4059 O   0  0  0  0  0  0  0  0  0  0  0  0
   27.5525  -19.5264  -14.6580 C   0  0  0  0  0  0  0  0  0  0  0  0
   26.7566  -20.0205  -13.4556 C   0  0  0  0  0  0  0  0  0  0  0  0
   27.7755  -20.3737  -12.3906 C   0  0  2  0  0  0  0  0  0  0  0  0
   28.6555  -21.4343  -12.8195 N   0  0  0  0  0  0  0  0  0  0  0  0
   27.0566  -20.8483  -11.1721 C   0  0  0  0  0  0  0  0  0  0  0  0
   26.9475  -22.0533  -10.8848 O   0  0  0  0  0  0  0  0  0  0  0  0
   26.4714  -19.8900  -10.3019 N   0  0  0  0  0  0  0  0  0  0  0  0
   25.8605  -20.2802   -9.0062 C   0  0  1  0  0  0  0  0  0  0  0  0
   26.1353  -19.1604   -8.0991 C   0  0  0  0  0  0  0  0  0  0  0  0
   27.1345  -19.2650   -7.0726 C   0  0  0  0  0  0  0  0  0  0  0  0
   28.0064  -18.2254   -6.7312 C   0  0  0  0  0  0  0  0  0  0  0  0
   28.9331  -18.3772   -5.7227 C   0  0  0  0  0  0  0  0  0  0  0  0
   29.0456  -19.5379   -5.0136 C   0  0  0  0  0  0  0  0  0  0  0  0
   28.1946  -20.5717   -5.3372 C   0  0  0  0  0  0  0  0  0  0  0  0
   27.2654  -20.4253   -6.3453 C   0  0  0  0  0  0  0  0  0  0  0  0
   24.4492  -20.5850   -9.3001 C   0  0  0  0  0  0  0  0  0  0  0  0
   23.9006  -20.0612  -10.3350 O   0  0  0  0  0  0  0  0  0  0  0  0
   17.6746  -24.4858   -6.2385 N   0  0  0  0  0  0  0  0  0  0  0  0
   17.2548  -24.3718   -7.6187 C   0  0  0  0  0  0  0  0  0  0  0  0
   16.0193  -24.4407   -7.9096 N   0  0  0  0  0  0  0  0  0  0  0  0
   18.2514  -24.1818   -8.6056 N   0  0  0  0  0  0  0  0  0  0  0  0
   19.6162  -23.9114   -8.2471 C   0  0  0  0  0  0  0  0  0  0  0  0
   19.9463  -22.4440   -8.0870 C   0  0  0  0  0  0  0  0  0  0  0  0
   21.4030  -22.2163   -7.8314 C   0  0  0  0  0  0  0  0  0  0  0  0
   22.1887  -21.6313   -8.9512 C   0  0  2  0  0  0  0  0  0  0  0  0
   23.5945  -21.4248   -8.5474 N   0  0  0  0  0  0  0  0  0  0  0  0
   21.6251  -20.3181   -9.3369 C   0  0  0  0  0  0  0  0  0  0  0  0
   21.8457  -19.1758   -8.6029 O   0  0  0  0  0  0  0  0  0  0  0  0
   20.9049  -20.1727  -10.3676 O   0  0  0  0  0  0  0  0  0  0  0  0
  1  2  1  0
  2  4  1  0
  3  2  2  0
  4  5  1  0
  6  7  1  6
  6  5  1  0
  8  9  2  0
  8  6  1  0
 10  8  1  0
 11 10  1  0
 11 12  1  1
 13 14  2  0
 13 12  1  0
 15 14  1  0
 16 15  2  0
 17 16  1  0
 17 18  2  0
 18 13  1  0
 19 20  2  0
 19 11  1  0
 22 23  2  0
 22 21  1  0
 24 22  1  0
 25 24  1  0
 26 27  1  0
 26 25  1  0
 28 29  1  0
 28 27  1  1
 29 19  1  0
 30 28  1  0
 31 30  1  0
 32 30  2  0
M  END
$$$$
