NSP.pdb
     RDKit          3D

 22 22  0  0  1  0  0  0  0  0999 V2000
   16.9028  -17.1633  -16.7920 N   0  0  0  0  0  0  0  0  0  0  0  0
   18.0467  -17.2884  -15.9906 C   0  0  0  0  0  0  0  0  0  0  0  0
   18.0496  -18.2808  -15.1812 O   0  0  0  0  0  0  0  0  0  0  0  0
   19.2152  -16.3890  -16.0114 C   0  0  0  0  0  0  0  0  0  0  0  0
   19.1071  -15.2628  -16.9603 C   0  0  2  0  0  0  0  0  0  0  0  0
   19.1571  -15.7440  -18.3611 N   0  0  0  0  0  0  0  0  0  0  0  0
   20.1869  -14.2272  -16.8312 C   0  0  0  0  0  0  0  0  0  0  0  0
   21.3887  -14.5811  -16.8236 O   0  0  0  0  0  0  0  0  0  0  0  0
   22.1332  -10.3614  -18.2634 O   0  0  0  0  0  0  0  0  0  0  0  0
   21.2300  -11.4216  -18.1610 C   0  0  0  0  0  0  0  0  0  0  0  0
   20.8324  -11.7511  -16.7564 C   0  0  2  0  0  0  0  0  0  0  0  0
   19.8928  -12.8514  -16.7158 N   0  0  0  0  0  0  0  0  0  0  0  0
   20.3233  -10.5427  -16.0343 C   0  0  0  0  0  0  0  0  0  0  0  0
   19.2248  -10.1133  -16.4422 O   0  0  0  0  0  0  0  0  0  0  0  0
   20.9971   -9.9128  -14.9771 N   0  0  0  0  0  0  0  0  0  0  0  0
   22.1022  -10.5305  -14.1630 C   0  0  0  0  0  0  0  0  0  0  0  0
   23.1356   -9.4633  -14.3572 C   0  0  0  0  0  0  0  0  0  0  0  0
   22.3386   -8.1500  -14.4505 C   0  0  0  0  0  0  0  0  0  0  0  0
   20.8953   -8.6599  -14.3063 C   0  0  1  0  0  0  0  0  0  0  0  0
   19.9213   -7.6746  -14.6805 C   0  0  0  0  0  0  0  0  0  0  0  0
   19.7333   -7.2830  -15.8462 O   0  0  0  0  0  0  0  0  0  0  0  0
   19.1026   -7.0893  -13.6734 O   0  0  0  0  0  0  0  0  0  0  0  0
  1  2  1  0
  2  3  2  0
  4  5  1  0
  4  2  1  0
  5  6  1  6
  7  5  1  0
  8  7  2  0
 10  9  1  0
 11 10  1  6
 11 13  1  0
 11 12  1  0
 12  7  1  0
 13 15  1  0
 14 13  2  0
 15 19  1  0
 15 16  1  0
 16 17  1  0
 18 17  1  0
 19 18  1  0
 19 20  1  6
 20 22  1  0
 21 20  2  0
M  END
$$$$
