NSP.pdb
     RDKit          3D

 22 22  0  0  1  0  0  0  0  0999 V2000
   14.4705  -14.6080  -14.0605 N   0  0  0  0  0  0  0  0  0  0  0  0
   15.6470  -15.2393  -14.4887 C   0  0  0  0  0  0  0  0  0  0  0  0
   15.8079  -16.4435  -14.0838 O   0  0  0  0  0  0  0  0  0  0  0  0
   16.6831  -14.6378  -15.3487 C   0  0  0  0  0  0  0  0  0  0  0  0
   16.4070  -13.2476  -15.7630 C   0  0  2  0  0  0  0  0  0  0  0  0
   15.4054  -13.2095  -16.8546 N   0  0  0  0  0  0  0  0  0  0  0  0
   17.6045  -12.4917  -16.2626 C   0  0  0  0  0  0  0  0  0  0  0  0
   18.4503  -13.0732  -16.9810 O   0  0  0  0  0  0  0  0  0  0  0  0
   19.4615   -8.7691  -18.2535 O   0  0  0  0  0  0  0  0  0  0  0  0
   18.4755   -9.6016  -17.7199 C   0  0  0  0  0  0  0  0  0  0  0  0
   18.8699  -10.2736  -16.4422 C   0  0  2  0  0  0  0  0  0  0  0  0
   17.8147  -11.1320  -15.9472 N   0  0  0  0  0  0  0  0  0  0  0  0
   19.3209   -9.2795  -15.4179 C   0  0  0  0  0  0  0  0  0  0  0  0
   18.4201   -8.5365  -14.9776 O   0  0  0  0  0  0  0  0  0  0  0  0
   20.6423   -9.1605  -14.9618 N   0  0  0  0  0  0  0  0  0  0  0  0
   21.6899  -10.2378  -15.0491 C   0  0  0  0  0  0  0  0  0  0  0  0
   22.7467   -9.4535  -15.7650 C   0  0  0  0  0  0  0  0  0  0  0  0
   22.5855   -8.0105  -15.2547 C   0  0  0  0  0  0  0  0  0  0  0  0
   21.4011   -8.1616  -14.2862 C   0  0  1  0  0  0  0  0  0  0  0  0
   20.8310   -6.8996  -13.9095 C   0  0  0  0  0  0  0  0  0  0  0  0
   20.0259   -6.2582  -14.6081 O   0  0  0  0  0  0  0  0  0  0  0  0
   21.1919   -6.3190  -12.6606 O   0  0  0  0  0  0  0  0  0  0  0  0
  1  2  1  0
  2  3  2  0
  4  5  1  0
  4  2  1  0
  5  6  1  6
  7  5  1  0
  8  7  2  0
 10  9  1  0
 11 10  1  6
 11 13  1  0
 11 12  1  0
 12  7  1  0
 13 15  1  0
 14 13  2  0
 15 19  1  0
 15 16  1  0
 16 17  1  0
 18 17  1  0
 19 18  1  0
 19 20  1  6
 20 22  1  0
 21 20  2  0
M  END
$$$$
