NSP.pdb
     RDKit          3D

 22 22  0  0  1  0  0  0  0  0999 V2000
   13.8273  -14.1725  -16.1783 N   0  0  0  0  0  0  0  0  0  0  0  0
   14.2355  -13.0984  -15.3746 C   0  0  0  0  0  0  0  0  0  0  0  0
   13.2922  -12.3888  -14.8781 O   0  0  0  0  0  0  0  0  0  0  0  0
   15.6312  -12.7362  -15.0651 C   0  0  0  0  0  0  0  0  0  0  0  0
   16.6454  -13.6146  -15.6817 C   0  0  2  0  0  0  0  0  0  0  0  0
   16.6354  -14.9569  -15.0537 N   0  0  0  0  0  0  0  0  0  0  0  0
   18.0567  -13.1118  -15.5803 C   0  0  0  0  0  0  0  0  0  0  0  0
   18.7618  -13.4355  -14.5965 O   0  0  0  0  0  0  0  0  0  0  0  0
   21.8245  -11.2738  -18.0963 O   0  0  0  0  0  0  0  0  0  0  0  0
   20.4728  -11.6116  -18.0027 C   0  0  0  0  0  0  0  0  0  0  0  0
   19.9762  -11.7583  -16.5987 C   0  0  2  0  0  0  0  0  0  0  0  0
   18.6248  -12.2761  -16.5659 N   0  0  0  0  0  0  0  0  0  0  0  0
   20.1127  -10.4789  -15.8336 C   0  0  0  0  0  0  0  0  0  0  0  0
   19.2475   -9.6182  -16.0945 O   0  0  0  0  0  0  0  0  0  0  0  0
   21.1192  -10.2277  -14.8891 N   0  0  0  0  0  0  0  0  0  0  0  0
   21.8658  -11.2820  -14.1166 C   0  0  0  0  0  0  0  0  0  0  0  0
   23.2594  -10.8693  -14.4798 C   0  0  0  0  0  0  0  0  0  0  0  0
   23.1974   -9.3377  -14.6183 C   0  0  0  0  0  0  0  0  0  0  0  0
   21.7142   -9.0656  -14.3185 C   0  0  1  0  0  0  0  0  0  0  0  0
   21.3084   -7.7415  -14.6947 C   0  0  0  0  0  0  0  0  0  0  0  0
   21.3285   -7.3075  -15.8603 O   0  0  0  0  0  0  0  0  0  0  0  0
   20.8486   -6.8437  -13.6899 O   0  0  0  0  0  0  0  0  0  0  0  0
  1  2  1  0
  2  3  2  0
  4  5  1  0
  4  2  1  0
  5  6  1  1
  7  5  1  0
  8  7  2  0
 10  9  1  0
 11 10  1  6
 11 13  1  0
 11 12  1  0
 12  7  1  0
 13 15  1  0
 14 13  2  0
 15 19  1  0
 15 16  1  0
 16 17  1  0
 18 17  1  0
 19 18  1  0
 19 20  1  6
 20 22  1  0
 21 20  2  0
M  END
$$$$
