NSP.pdb
     RDKit          3D

 22 22  0  0  1  0  0  0  0  0999 V2000
   21.3524  -15.2145  -16.3022 N   0  0  0  0  0  0  0  0  0  0  0  0
   21.4918  -14.4560  -17.4734 C   0  0  0  0  0  0  0  0  0  0  0  0
   22.1664  -15.0066  -18.4123 O   0  0  0  0  0  0  0  0  0  0  0  0
   20.9332  -13.1100  -17.6992 C   0  0  0  0  0  0  0  0  0  0  0  0
   20.1286  -12.5825  -16.5790 C   0  0  2  0  0  0  0  0  0  0  0  0
   18.8643  -13.3415  -16.4319 N   0  0  0  0  0  0  0  0  0  0  0  0
   19.7406  -11.1378  -16.7103 C   0  0  0  0  0  0  0  0  0  0  0  0
   19.0796  -10.7606  -17.7056 O   0  0  0  0  0  0  0  0  0  0  0  0
   17.9060   -7.2485  -15.2616 O   0  0  0  0  0  0  0  0  0  0  0  0
   18.3226   -8.5813  -15.2717 C   0  0  0  0  0  0  0  0  0  0  0  0
   19.7360   -8.7757  -15.7236 C   0  0  2  0  0  0  0  0  0  0  0  0
   20.0991  -10.1768  -15.7405 N   0  0  0  0  0  0  0  0  0  0  0  0
   20.6875   -7.9521  -14.9130 C   0  0  0  0  0  0  0  0  0  0  0  0
   20.7159   -8.2306  -13.6968 O   0  0  0  0  0  0  0  0  0  0  0  0
   21.5012   -6.9383  -15.4406 N   0  0  0  0  0  0  0  0  0  0  0  0
   21.9435   -6.8406  -16.8760 C   0  0  0  0  0  0  0  0  0  0  0  0
   21.4593   -5.4509  -17.1569 C   0  0  0  0  0  0  0  0  0  0  0  0
   21.6192   -4.6971  -15.8247 C   0  0  0  0  0  0  0  0  0  0  0  0
   22.1826   -5.8021  -14.9163 C   0  0  1  0  0  0  0  0  0  0  0  0
   22.1244   -5.4565  -13.5247 C   0  0  0  0  0  0  0  0  0  0  0  0
   23.0772   -4.9831  -12.8801 O   0  0  0  0  0  0  0  0  0  0  0  0
   20.9102   -5.6577  -12.8089 O   0  0  0  0  0  0  0  0  0  0  0  0
  1  2  1  0
  2  3  2  0
  4  5  1  0
  4  2  1  0
  5  6  1  6
  7  5  1  0
  8  7  2  0
 10  9  1  0
 11 10  1  1
 11 13  1  0
 11 12  1  0
 12  7  1  0
 13 15  1  0
 14 13  2  0
 15 19  1  0
 15 16  1  0
 16 17  1  0
 18 17  1  0
 19 18  1  0
 19 20  1  1
 20 22  1  0
 21 20  2  0
M  END
$$$$
