NSP.pdb
     RDKit          3D

 22 22  0  0  1  0  0  0  0  0999 V2000
   20.6973  -20.8109  -11.4332 N   0  0  0  0  0  0  0  0  0  0  0  0
   21.9578  -20.5947  -12.0083 C   0  0  0  0  0  0  0  0  0  0  0  0
   22.9603  -20.8062  -11.2400 O   0  0  0  0  0  0  0  0  0  0  0  0
   22.2085  -20.1564  -13.3939 C   0  0  0  0  0  0  0  0  0  0  0  0
   20.9899  -19.9212  -14.1941 C   0  0  2  0  0  0  0  0  0  0  0  0
   20.2089  -21.1711  -14.3491 N   0  0  0  0  0  0  0  0  0  0  0  0
   21.2400  -19.4051  -15.5819 C   0  0  0  0  0  0  0  0  0  0  0  0
   21.4156  -20.2137  -16.5226 O   0  0  0  0  0  0  0  0  0  0  0  0
   19.2638  -16.2587  -17.0901 O   0  0  0  0  0  0  0  0  0  0  0  0
   20.6452  -16.1161  -17.2365 C   0  0  0  0  0  0  0  0  0  0  0  0
   21.4021  -17.4055  -17.1720 C   0  0  2  0  0  0  0  0  0  0  0  0
   21.2859  -18.0236  -15.8684 N   0  0  0  0  0  0  0  0  0  0  0  0
   22.8282  -17.2240  -17.5894 C   0  0  0  0  0  0  0  0  0  0  0  0
   23.5240  -16.5550  -16.7983 O   0  0  0  0  0  0  0  0  0  0  0  0
   23.3784  -17.7486  -18.7685 N   0  0  0  0  0  0  0  0  0  0  0  0
   22.8009  -18.8902  -19.5615 C   0  0  0  0  0  0  0  0  0  0  0  0
   22.7150  -18.2070  -20.8921 C   0  0  0  0  0  0  0  0  0  0  0  0
   23.9151  -17.2439  -20.9230 C   0  0  0  0  0  0  0  0  0  0  0  0
   24.5471  -17.5022  -19.5454 C   0  0  1  0  0  0  0  0  0  0  0  0
   25.5046  -16.4977  -19.1798 C   0  0  0  0  0  0  0  0  0  0  0  0
   25.2683  -15.2764  -19.1672 O   0  0  0  0  0  0  0  0  0  0  0  0
   26.8188  -16.8948  -18.8027 O   0  0  0  0  0  0  0  0  0  0  0  0
  1  2  1  0
  2  3  2  0
  4  5  1  0
  4  2  1  0
  5  6  1  6
  7  5  1  0
  8  7  2  0
 10  9  1  0
 11 10  1  1
 11 13  1  0
 11 12  1  0
 12  7  1  0
 13 15  1  0
 14 13  2  0
 15 19  1  0
 15 16  1  0
 16 17  1  0
 18 17  1  0
 19 18  1  0
 19 20  1  1
 20 22  1  0
 21 20  2  0
M  END
$$$$
