NSP.pdb
     RDKit          3D

 22 22  0  0  1  0  0  0  0  0999 V2000
   29.6469  -22.6714  -16.3237 N   0  0  0  0  0  0  0  0  0  0  0  0
   28.2529  -22.7562  -16.4496 C   0  0  0  0  0  0  0  0  0  0  0  0
   27.7554  -23.9286  -16.3158 O   0  0  0  0  0  0  0  0  0  0  0  0
   27.3419  -21.6273  -16.7150 C   0  0  0  0  0  0  0  0  0  0  0  0
   26.0924  -21.9961  -17.4102 C   0  0  2  0  0  0  0  0  0  0  0  0
   26.3618  -22.3776  -18.8167 N   0  0  0  0  0  0  0  0  0  0  0  0
   25.0567  -20.9099  -17.4587 C   0  0  0  0  0  0  0  0  0  0  0  0
   25.3950  -19.7428  -17.7640 O   0  0  0  0  0  0  0  0  0  0  0  0
   20.8734  -19.4323  -18.7956 O   0  0  0  0  0  0  0  0  0  0  0  0
   21.9096  -20.3488  -18.6053 C   0  0  0  0  0  0  0  0  0  0  0  0
   22.5956  -20.2282  -17.2808 C   0  0  2  0  0  0  0  0  0  0  0  0
   23.6981  -21.1594  -17.1681 N   0  0  0  0  0  0  0  0  0  0  0  0
   21.6251  -20.3575  -16.1484 C   0  0  0  0  0  0  0  0  0  0  0  0
   21.1186  -21.4908  -16.0200 O   0  0  0  0  0  0  0  0  0  0  0  0
   21.2849  -19.3117  -15.2773 N   0  0  0  0  0  0  0  0  0  0  0  0
   22.1394  -18.1050  -14.9960 C   0  0  0  0  0  0  0  0  0  0  0  0
   21.1322  -17.0459  -15.3255 C   0  0  0  0  0  0  0  0  0  0  0  0
   19.7755  -17.6458  -14.9154 C   0  0  0  0  0  0  0  0  0  0  0  0
   20.1996  -19.0301  -14.3980 C   0  0  1  0  0  0  0  0  0  0  0  0
   19.0900  -19.9278  -14.2488 C   0  0  0  0  0  0  0  0  0  0  0  0
   18.7885  -20.4979  -13.1850 O   0  0  0  0  0  0  0  0  0  0  0  0
   18.2627  -20.2034  -15.3743 O   0  0  0  0  0  0  0  0  0  0  0  0
  1  2  1  0
  2  3  2  0
  4  5  1  0
  4  2  1  0
  5  6  1  6
  7  5  1  0
  8  7  2  0
 10  9  1  0
 11 10  1  6
 11 13  1  0
 11 12  1  0
 12  7  1  0
 13 15  1  0
 14 13  2  0
 15 19  1  0
 15 16  1  0
 16 17  1  0
 18 17  1  0
 19 18  1  0
 19 20  1  6
 20 22  1  0
 21 20  2  0
M  END
$$$$
