NSP.pdb
     RDKit          3D

 22 22  0  0  1  0  0  0  0  0999 V2000
   27.6652  -18.6986  -18.2430 N   0  0  0  0  0  0  0  0  0  0  0  0
   27.5412  -17.4055  -17.7151 C   0  0  0  0  0  0  0  0  0  0  0  0
   27.5850  -16.4524  -18.5693 O   0  0  0  0  0  0  0  0  0  0  0  0
   27.3666  -17.0704  -16.2896 C   0  0  0  0  0  0  0  0  0  0  0  0
   27.3434  -18.2355  -15.3827 C   0  0  2  0  0  0  0  0  0  0  0  0
   27.0647  -19.4838  -16.1314 N   0  0  0  0  0  0  0  0  0  0  0  0
   26.3160  -18.1605  -14.2902 C   0  0  0  0  0  0  0  0  0  0  0  0
   25.9535  -17.0431  -13.8546 O   0  0  0  0  0  0  0  0  0  0  0  0
   22.4435  -19.4534  -12.0714 O   0  0  0  0  0  0  0  0  0  0  0  0
   23.3910  -19.4599  -13.0973 C   0  0  0  0  0  0  0  0  0  0  0  0
   24.8073  -19.3809  -12.6205 C   0  0  2  0  0  0  0  0  0  0  0  0
   25.7368  -19.3187  -13.7284 N   0  0  0  0  0  0  0  0  0  0  0  0
   25.1279  -20.4937  -11.6719 C   0  0  0  0  0  0  0  0  0  0  0  0
   25.0378  -21.6391  -12.1592 O   0  0  0  0  0  0  0  0  0  0  0  0
   25.5045  -20.3060  -10.3336 N   0  0  0  0  0  0  0  0  0  0  0  0
   26.4839  -19.2726   -9.8452 C   0  0  0  0  0  0  0  0  0  0  0  0
   25.6098  -18.6133   -8.8226 C   0  0  0  0  0  0  0  0  0  0  0  0
   24.7212  -19.7424   -8.2712 C   0  0  0  0  0  0  0  0  0  0  0  0
   25.2129  -20.9447   -9.0937 C   0  0  1  0  0  0  0  0  0  0  0  0
   24.3278  -22.0711   -9.0090 C   0  0  0  0  0  0  0  0  0  0  0  0
   24.6084  -23.1412   -8.4401 O   0  0  0  0  0  0  0  0  0  0  0  0
   23.0378  -21.9878   -9.6058 O   0  0  0  0  0  0  0  0  0  0  0  0
  1  2  1  0
  2  3  2  0
  4  5  1  0
  4  2  1  0
  5  6  1  6
  7  5  1  0
  8  7  2  0
 10  9  1  0
 11 10  1  6
 11 13  1  0
 11 12  1  0
 12  7  1  0
 13 15  1  0
 14 13  2  0
 15 19  1  0
 15 16  1  0
 16 17  1  0
 18 17  1  0
 19 18  1  0
 19 20  1  6
 20 22  1  0
 21 20  2  0
M  END
$$$$
