NSP.pdb
     RDKit          3D

 22 22  0  0  1  0  0  0  0  0999 V2000
   18.7585  -13.7359  -18.2192 N   0  0  0  0  0  0  0  0  0  0  0  0
   18.5281  -12.3591  -18.3518 C   0  0  0  0  0  0  0  0  0  0  0  0
   18.5253  -11.9113  -19.5515 O   0  0  0  0  0  0  0  0  0  0  0  0
   18.2929  -11.4148  -17.2437 C   0  0  0  0  0  0  0  0  0  0  0  0
   19.4530  -10.5678  -16.9013 C   0  0  2  0  0  0  0  0  0  0  0  0
   20.5736  -11.3885  -16.3845 N   0  0  0  0  0  0  0  0  0  0  0  0
   19.1807   -9.5215  -15.8591 C   0  0  0  0  0  0  0  0  0  0  0  0
   18.2376   -9.6819  -15.0501 O   0  0  0  0  0  0  0  0  0  0  0  0
   21.2743   -8.4169  -13.0785 O   0  0  0  0  0  0  0  0  0  0  0  0
   20.0028   -7.9146  -13.3633 C   0  0  0  0  0  0  0  0  0  0  0  0
   19.8711   -7.3282  -14.7338 C   0  0  2  0  0  0  0  0  0  0  0  0
   19.9588   -8.3481  -15.7572 N   0  0  0  0  0  0  0  0  0  0  0  0
   20.8532   -6.2197  -14.9512 C   0  0  0  0  0  0  0  0  0  0  0  0
   22.0504   -6.5722  -14.9447 O   0  0  0  0  0  0  0  0  0  0  0  0
   20.4970   -4.8774  -15.1508 N   0  0  0  0  0  0  0  0  0  0  0  0
   19.1449   -4.3979  -15.6062 C   0  0  0  0  0  0  0  0  0  0  0  0
   18.8688   -3.4384  -14.4891 C   0  0  0  0  0  0  0  0  0  0  0  0
   20.2465   -2.8724  -14.1012 C   0  0  0  0  0  0  0  0  0  0  0  0
   21.1684   -3.6230  -15.0762 C   0  0  1  0  0  0  0  0  0  0  0  0
   22.5536   -3.5229  -14.7145 C   0  0  0  0  0  0  0  0  0  0  0  0
   23.3760   -2.7870  -15.2887 O   0  0  0  0  0  0  0  0  0  0  0  0
   23.0476   -4.3050  -13.6322 O   0  0  0  0  0  0  0  0  0  0  0  0
  1  2  1  0
  2  3  2  0
  4  5  1  0
  4  2  1  0
  5  6  1  1
  7  5  1  0
  8  7  2  0
 10  9  1  0
 11 10  1  1
 11 13  1  0
 11 12  1  0
 12  7  1  0
 13 15  1  0
 14 13  2  0
 15 19  1  0
 15 16  1  0
 16 17  1  0
 18 17  1  0
 19 18  1  0
 19 20  1  1
 20 22  1  0
 21 20  2  0
M  END
$$$$
