NSP.pdb
     RDKit          3D

 22 22  0  0  1  0  0  0  0  0999 V2000
   22.6670  -21.0689   -8.4240 N   0  0  0  0  0  0  0  0  0  0  0  0
   24.0325  -21.0414   -8.1063 C   0  0  0  0  0  0  0  0  0  0  0  0
   24.3201  -21.2703   -6.8796 O   0  0  0  0  0  0  0  0  0  0  0  0
   25.1318  -20.7780   -9.0533 C   0  0  0  0  0  0  0  0  0  0  0  0
   24.6955  -20.3631  -10.4016 C   0  0  2  0  0  0  0  0  0  0  0  0
   23.7566  -21.3521  -10.9819 N   0  0  0  0  0  0  0  0  0  0  0  0
   25.8064  -20.2004  -11.3988 C   0  0  0  0  0  0  0  0  0  0  0  0
   26.8278  -19.5445  -11.0887 O   0  0  0  0  0  0  0  0  0  0  0  0
   28.2016  -21.8443  -15.2188 O   0  0  0  0  0  0  0  0  0  0  0  0
   27.2582  -21.9320  -14.1929 C   0  0  0  0  0  0  0  0  0  0  0  0
   26.7006  -20.6118  -13.7619 C   0  0  2  0  0  0  0  0  0  0  0  0
   25.7401  -20.7667  -12.6901 N   0  0  0  0  0  0  0  0  0  0  0  0
   26.1392  -19.8502  -14.9219 C   0  0  0  0  0  0  0  0  0  0  0  0
   25.1792  -20.4036  -15.4961 O   0  0  0  0  0  0  0  0  0  0  0  0
   26.6248  -18.6093  -15.3607 N   0  0  0  0  0  0  0  0  0  0  0  0
   27.4753  -17.6734  -14.5444 C   0  0  0  0  0  0  0  0  0  0  0  0
   28.6136  -17.5216  -15.5066 C   0  0  0  0  0  0  0  0  0  0  0  0
   27.9695  -17.6085  -16.9017 C   0  0  0  0  0  0  0  0  0  0  0  0
   26.4904  -17.8216  -16.5403 C   0  0  1  0  0  0  0  0  0  0  0  0
   25.7056  -18.2578  -17.6599 C   0  0  0  0  0  0  0  0  0  0  0  0
   24.5869  -17.7989  -17.9523 O   0  0  0  0  0  0  0  0  0  0  0  0
   26.2145  -19.2812  -18.5088 O   0  0  0  0  0  0  0  0  0  0  0  0
  1  2  1  0
  2  3  2  0
  4  5  1  0
  4  2  1  0
  5  6  1  6
  7  5  1  0
  8  7  2  0
 10  9  1  0
 11 10  1  6
 11 13  1  0
 11 12  1  0
 12  7  1  0
 13 15  1  0
 14 13  2  0
 15 19  1  0
 15 16  1  0
 16 17  1  0
 18 17  1  0
 19 18  1  0
 19 20  1  6
 20 22  1  0
 21 20  2  0
M  END
$$$$
