CAG.pdb
     RDKit          3D

 16 15  0  0  1  0  0  0  0  0999 V2000
   24.7086  -14.8512  -17.1639 N   0  0  0  0  0  0  0  0  0  0  0  0
   24.4405  -13.4830  -17.5263 C   0  0  1  0  0  0  0  0  0  0  0  0
   22.9432  -13.2800  -17.5958 C   0  0  0  0  0  0  0  0  0  0  0  0
   22.3821  -14.0137  -19.1659 S   0  0  0  0  0  0  0  0  0  0  0  0
   25.0686  -12.6163  -16.4977 C   0  0  0  0  0  0  0  0  0  0  0  0
   24.9561  -12.8990  -15.2791 O   0  0  0  0  0  0  0  0  0  0  0  0
   27.7666  -10.0438  -16.3134 C   0  0  0  0  0  0  0  0  0  0  0  0
   26.4391  -10.5966  -15.8622 C   0  0  2  0  0  0  0  0  0  0  0  0
   25.8203  -11.4356  -16.8478 N   0  0  0  0  0  0  0  0  0  0  0  0
   25.4954   -9.5575  -15.4339 C   0  0  0  0  0  0  0  0  0  0  0  0
   25.8248   -8.7977  -14.4868 O   0  0  0  0  0  0  0  0  0  0  0  0
   24.2140   -9.3731  -16.0505 N   0  0  0  0  0  0  0  0  0  0  0  0
   23.4193   -8.2584  -15.6376 C   0  0  0  0  0  0  0  0  0  0  0  0
   23.3690   -7.1681  -16.6447 C   0  0  0  0  0  0  0  0  0  0  0  0
   24.0323   -7.3319  -17.6981 O   0  0  0  0  0  0  0  0  0  0  0  0
   22.6347   -6.0091  -16.4645 O   0  0  0  0  0  0  0  0  0  0  0  0
  2  1  1  1
  2  3  1  0
  3  4  1  0
  5  2  1  0
  6  5  2  0
  8  7  1  6
  8  9  1  0
  9  5  1  0
 10  8  1  0
 11 10  2  0
 12 10  1  0
 13 14  1  0
 13 12  1  0
 14 16  1  0
 15 14  2  0
M  END
$$$$
