CAG.pdb
     RDKit          3D

 16 15  0  0  1  0  0  0  0  0999 V2000
   17.3411  -10.7321  -14.7157 N   0  0  0  0  0  0  0  0  0  0  0  0
   18.4269  -10.6332  -15.6572 C   0  0  1  0  0  0  0  0  0  0  0  0
   17.8958  -10.0771  -16.9596 C   0  0  0  0  0  0  0  0  0  0  0  0
   17.0574  -11.4481  -17.8176 S   0  0  0  0  0  0  0  0  0  0  0  0
   19.4590   -9.7497  -15.0589 C   0  0  0  0  0  0  0  0  0  0  0  0
   19.1178   -8.7451  -14.3866 O   0  0  0  0  0  0  0  0  0  0  0  0
   23.2160   -9.8157  -14.5340 C   0  0  0  0  0  0  0  0  0  0  0  0
   21.8754   -9.1406  -14.6699 C   0  0  2  0  0  0  0  0  0  0  0  0
   20.8701  -10.0029  -15.2213 N   0  0  0  0  0  0  0  0  0  0  0  0
   21.9320   -7.8918  -15.4386 C   0  0  0  0  0  0  0  0  0  0  0  0
   21.7709   -7.9437  -16.6853 O   0  0  0  0  0  0  0  0  0  0  0  0
   22.1633   -6.6156  -14.8270 N   0  0  0  0  0  0  0  0  0  0  0  0
   22.1776   -5.4570  -15.6650 C   0  0  0  0  0  0  0  0  0  0  0  0
   22.5348   -4.2117  -14.9390 C   0  0  0  0  0  0  0  0  0  0  0  0
   21.6036   -3.6005  -14.3599 O   0  0  0  0  0  0  0  0  0  0  0  0
   23.8259   -3.7168  -14.8818 O   0  0  0  0  0  0  0  0  0  0  0  0
  2  1  1  1
  2  3  1  0
  3  4  1  0
  5  2  1  0
  6  5  2  0
  8  7  1  6
  8  9  1  0
  9  5  1  0
 10  8  1  0
 11 10  2  0
 12 10  1  0
 13 14  1  0
 13 12  1  0
 14 16  1  0
 15 14  2  0
M  END
$$$$
