CAG.pdb
     RDKit          3D

 16 15  0  0  1  0  0  0  0  0999 V2000
   17.7952  -10.8598  -15.7479 N   0  0  0  0  0  0  0  0  0  0  0  0
   19.1327  -11.3829  -15.6357 C   0  0  1  0  0  0  0  0  0  0  0  0
   19.2835  -12.5486  -16.5877 C   0  0  0  0  0  0  0  0  0  0  0  0
   18.2629  -13.9059  -15.9282 S   0  0  0  0  0  0  0  0  0  0  0  0
   20.0730  -10.2805  -15.9583 C   0  0  0  0  0  0  0  0  0  0  0  0
   21.3119  -10.4540  -15.8463 O   0  0  0  0  0  0  0  0  0  0  0  0
   19.9566   -6.9519  -17.7263 C   0  0  0  0  0  0  0  0  0  0  0  0
   20.5119   -7.9120  -16.7059 C   0  0  2  0  0  0  0  0  0  0  0  0
   19.6123   -8.9884  -16.4054 N   0  0  0  0  0  0  0  0  0  0  0  0
   20.9312   -7.2556  -15.4622 C   0  0  0  0  0  0  0  0  0  0  0  0
   20.1211   -7.2131  -14.5005 O   0  0  0  0  0  0  0  0  0  0  0  0
   22.2257   -6.6610  -15.2985 N   0  0  0  0  0  0  0  0  0  0  0  0
   22.5665   -6.1255  -14.0171 C   0  0  0  0  0  0  0  0  0  0  0  0
   22.1266   -4.7192  -13.8327 C   0  0  0  0  0  0  0  0  0  0  0  0
   21.4621   -4.2012  -14.7635 O   0  0  0  0  0  0  0  0  0  0  0  0
   22.4176   -3.9812  -12.6987 O   0  0  0  0  0  0  0  0  0  0  0  0
  2  1  1  6
  2  3  1  0
  3  4  1  0
  5  2  1  0
  6  5  2  0
  8  7  1  6
  8  9  1  0
  9  5  1  0
 10  8  1  0
 11 10  2  0
 12 10  1  0
 13 14  1  0
 13 12  1  0
 14 16  1  0
 15 14  2  0
M  END
$$$$
