CAG.pdb
     RDKit          3D

 16 15  0  0  1  0  0  0  0  0999 V2000
   19.2835  -12.7107  -17.0356 N   0  0  0  0  0  0  0  0  0  0  0  0
   18.7792  -11.6694  -16.1774 C   0  0  1  0  0  0  0  0  0  0  0  0
   18.8100  -12.1576  -14.7461 C   0  0  0  0  0  0  0  0  0  0  0  0
   17.4073  -13.3028  -14.5474 S   0  0  0  0  0  0  0  0  0  0  0  0
   19.6375  -10.4740  -16.3722 C   0  0  0  0  0  0  0  0  0  0  0  0
   20.8742  -10.6062  -16.5478 O   0  0  0  0  0  0  0  0  0  0  0  0
   19.1562   -6.8143  -17.1537 C   0  0  0  0  0  0  0  0  0  0  0  0
   19.9170   -7.9749  -16.5657 C   0  0  2  0  0  0  0  0  0  0  0  0
   19.0978   -9.1360  -16.3682 N   0  0  0  0  0  0  0  0  0  0  0  0
   20.6091   -7.6391  -15.3160 C   0  0  0  0  0  0  0  0  0  0  0  0
   20.0642   -7.9458  -14.2242 O   0  0  0  0  0  0  0  0  0  0  0  0
   21.8802   -6.9761  -15.2885 N   0  0  0  0  0  0  0  0  0  0  0  0
   22.4868   -6.7295  -14.0172 C   0  0  0  0  0  0  0  0  0  0  0  0
   22.1117   -5.4170  -13.4325 C   0  0  0  0  0  0  0  0  0  0  0  0
   21.3347   -4.6936  -14.1027 O   0  0  0  0  0  0  0  0  0  0  0  0
   22.5782   -4.9776  -12.2060 O   0  0  0  0  0  0  0  0  0  0  0  0
  2  1  1  6
  2  3  1  0
  3  4  1  0
  5  2  1  0
  6  5  2  0
  8  7  1  1
  8  9  1  0
  9  5  1  0
 10  8  1  0
 11 10  2  0
 12 10  1  0
 13 14  1  0
 13 12  1  0
 14 16  1  0
 15 14  2  0
M  END
$$$$
