CAG.pdb
     RDKit          3D

 16 15  0  0  1  0  0  0  0  0999 V2000
   20.8329  -11.4837  -16.4461 N   0  0  0  0  0  0  0  0  0  0  0  0
   19.9199  -10.3714  -16.5118 C   0  0  1  0  0  0  0  0  0  0  0  0
   19.0585  -10.3715  -15.2685 C   0  0  0  0  0  0  0  0  0  0  0  0
   17.9463  -11.8086  -15.3954 S   0  0  0  0  0  0  0  0  0  0  0  0
   20.7306   -9.1328  -16.6225 C   0  0  0  0  0  0  0  0  0  0  0  0
   21.7749   -8.9982  -15.9378 O   0  0  0  0  0  0  0  0  0  0  0  0
   20.9459   -6.1915  -18.9889 C   0  0  0  0  0  0  0  0  0  0  0  0
   21.1703   -6.8796  -17.6670 C   0  0  2  0  0  0  0  0  0  0  0  0
   20.3603   -8.0525  -17.5042 N   0  0  0  0  0  0  0  0  0  0  0  0
   20.9902   -5.9899  -16.5139 C   0  0  0  0  0  0  0  0  0  0  0  0
   19.8280   -5.8111  -16.0665 O   0  0  0  0  0  0  0  0  0  0  0  0
   22.0842   -5.3164  -15.8769 N   0  0  0  0  0  0  0  0  0  0  0  0
   21.8111   -4.5389  -14.7083 C   0  0  0  0  0  0  0  0  0  0  0  0
   21.8708   -5.3274  -13.4513 C   0  0  0  0  0  0  0  0  0  0  0  0
   20.9050   -6.0924  -13.2098 O   0  0  0  0  0  0  0  0  0  0  0  0
   22.9280   -5.2484  -12.5617 O   0  0  0  0  0  0  0  0  0  0  0  0
  2  1  1  1
  2  3  1  0
  3  4  1  0
  5  2  1  0
  6  5  2  0
  8  7  1  6
  8  9  1  0
  9  5  1  0
 10  8  1  0
 11 10  2  0
 12 10  1  0
 13 14  1  0
 13 12  1  0
 14 16  1  0
 15 14  2  0
M  END
$$$$
