CAG.pdb
     RDKit          3D

 16 15  0  0  1  0  0  0  0  0999 V2000
   13.6710  -10.4833  -10.6381 N   0  0  0  0  0  0  0  0  0  0  0  0
   15.0544  -10.3997  -10.2452 C   0  0  1  0  0  0  0  0  0  0  0  0
   15.8428  -11.4425  -11.0060 C   0  0  0  0  0  0  0  0  0  0  0  0
   15.5893  -13.0286  -10.1467 S   0  0  0  0  0  0  0  0  0  0  0  0
   15.5229   -9.0238  -10.5467 C   0  0  0  0  0  0  0  0  0  0  0  0
   15.3216   -8.5222  -11.6805 O   0  0  0  0  0  0  0  0  0  0  0  0
   16.5668   -5.9447   -8.7265 C   0  0  0  0  0  0  0  0  0  0  0  0
   16.7278   -6.9141   -9.8692 C   0  0  2  0  0  0  0  0  0  0  0  0
   16.2156   -8.2202   -9.5690 N   0  0  0  0  0  0  0  0  0  0  0  0
   18.1117   -7.0225  -10.3451 C   0  0  0  0  0  0  0  0  0  0  0  0
   18.8748   -7.8572   -9.7939 O   0  0  0  0  0  0  0  0  0  0  0  0
   18.6293   -6.2165  -11.4121 N   0  0  0  0  0  0  0  0  0  0  0  0
   20.0004   -6.3840  -11.7821 C   0  0  0  0  0  0  0  0  0  0  0  0
   20.4423   -5.4407  -12.8405 C   0  0  0  0  0  0  0  0  0  0  0  0
   19.5532   -4.7567  -13.4043 O   0  0  0  0  0  0  0  0  0  0  0  0
   21.7665   -5.2953  -13.2152 O   0  0  0  0  0  0  0  0  0  0  0  0
  2  1  1  6
  2  3  1  0
  3  4  1  0
  5  2  1  0
  6  5  2  0
  8  7  1  1
  8  9  1  0
  9  5  1  0
 10  8  1  0
 11 10  2  0
 12 10  1  0
 13 14  1  0
 13 12  1  0
 14 16  1  0
 15 14  2  0
M  END
$$$$
