CAG.pdb
     RDKit          3D

 16 15  0  0  1  0  0  0  0  0999 V2000
   17.6313  -12.1291  -16.7767 N   0  0  0  0  0  0  0  0  0  0  0  0
   18.9373  -11.9123  -17.3447 C   0  0  1  0  0  0  0  0  0  0  0  0
   18.7797  -11.2442  -18.6924 C   0  0  0  0  0  0  0  0  0  0  0  0
   18.2137  -12.5266  -19.8559 S   0  0  0  0  0  0  0  0  0  0  0  0
   19.7037  -11.0672  -16.3950 C   0  0  0  0  0  0  0  0  0  0  0  0
   19.1321  -10.1369  -15.7742 O   0  0  0  0  0  0  0  0  0  0  0  0
   23.1650  -11.1658  -14.8167 C   0  0  0  0  0  0  0  0  0  0  0  0
   21.8338  -10.5428  -15.1503 C   0  0  2  0  0  0  0  0  0  0  0  0
   21.1103  -11.2749  -16.1497 N   0  0  0  0  0  0  0  0  0  0  0  0
   21.9379   -9.1339  -15.5473 C   0  0  0  0  0  0  0  0  0  0  0  0
   22.0561   -8.8593  -16.7694 O   0  0  0  0  0  0  0  0  0  0  0  0
   21.9103   -8.0581  -14.5997 N   0  0  0  0  0  0  0  0  0  0  0  0
   22.0123   -6.7198  -15.0931 C   0  0  0  0  0  0  0  0  0  0  0  0
   21.8163   -5.6898  -14.0414 C   0  0  0  0  0  0  0  0  0  0  0  0
   22.0142   -4.4939  -14.3684 O   0  0  0  0  0  0  0  0  0  0  0  0
   21.4331   -5.9973  -12.7477 O   0  0  0  0  0  0  0  0  0  0  0  0
  2  1  1  1
  2  3  1  0
  3  4  1  0
  5  2  1  0
  6  5  2  0
  8  7  1  6
  8  9  1  0
  9  5  1  0
 10  8  1  0
 11 10  2  0
 12 10  1  0
 13 14  1  0
 13 12  1  0
 14 16  1  0
 15 14  2  0
M  END
$$$$
