CAG.pdb
     RDKit          3D

 16 15  0  0  1  0  0  0  0  0999 V2000
   19.3307  -11.8674  -17.8236 N   0  0  0  0  0  0  0  0  0  0  0  0
   20.5903  -11.1719  -17.8929 C   0  0  1  0  0  0  0  0  0  0  0  0
   20.6570  -10.4096  -19.1975 C   0  0  0  0  0  0  0  0  0  0  0  0
   21.0586  -11.6203  -20.4980 S   0  0  0  0  0  0  0  0  0  0  0  0
   20.6667  -10.2665  -16.7190 C   0  0  0  0  0  0  0  0  0  0  0  0
   19.6677   -9.5842  -16.3815 O   0  0  0  0  0  0  0  0  0  0  0  0
   22.9874   -9.7147  -13.7910 C   0  0  0  0  0  0  0  0  0  0  0  0
   21.9496   -9.2704  -14.7895 C   0  0  2  0  0  0  0  0  0  0  0  0
   21.8685  -10.1346  -15.9317 N   0  0  0  0  0  0  0  0  0  0  0  0
   22.1286   -7.8823  -15.2308 C   0  0  0  0  0  0  0  0  0  0  0  0
   22.7208   -7.6680  -16.3200 O   0  0  0  0  0  0  0  0  0  0  0  0
   21.6564   -6.7611  -14.4718 N   0  0  0  0  0  0  0  0  0  0  0  0
   21.7809   -5.4566  -15.0441 C   0  0  0  0  0  0  0  0  0  0  0  0
   21.3291   -4.3717  -14.1363 C   0  0  0  0  0  0  0  0  0  0  0  0
   20.6463   -4.7087  -13.1381 O   0  0  0  0  0  0  0  0  0  0  0  0
   21.6283   -3.0375  -14.3494 O   0  0  0  0  0  0  0  0  0  0  0  0
  2  1  1  6
  2  3  1  0
  3  4  1  0
  5  2  1  0
  6  5  2  0
  8  7  1  1
  8  9  1  0
  9  5  1  0
 10  8  1  0
 11 10  2  0
 12 10  1  0
 13 14  1  0
 13 12  1  0
 14 16  1  0
 15 14  2  0
M  END
$$$$
