MKV.pdb
     RDKit          3D

 25 24  0  0  1  0  0  0  0  0999 V2000
   21.7455  -17.2522  -15.8106 C   0  0  0  0  0  0  0  0  0  0  0  0
   21.8716  -17.0116  -17.5906 S   0  0  0  0  0  0  0  0  0  0  0  0
   23.3449  -17.8225  -18.2872 C   0  0  0  0  0  0  0  0  0  0  0  0
   23.9182  -18.7111  -17.2118 C   0  0  0  0  0  0  0  0  0  0  0  0
   25.2424  -19.3205  -17.5981 C   0  0  2  0  0  0  0  0  0  0  0  0
   25.1540  -20.3150  -18.6205 N   0  0  0  0  0  0  0  0  0  0  0  0
   25.8137  -19.9235  -16.3595 C   0  0  0  0  0  0  0  0  0  0  0  0
   25.3598  -21.0023  -15.8983 O   0  0  0  0  0  0  0  0  0  0  0  0
   26.8889  -19.3208  -15.6409 N   0  0  0  0  0  0  0  0  0  0  0  0
   27.4454  -19.8746  -14.4412 C   0  0  1  0  0  0  0  0  0  0  0  0
   28.8195  -19.3174  -14.1273 C   0  0  0  0  0  0  0  0  0  0  0  0
   29.2746  -19.7919  -12.7930 C   0  0  0  0  0  0  0  0  0  0  0  0
   30.3852  -20.8017  -12.8553 C   0  0  0  0  0  0  0  0  0  0  0  0
   30.8982  -21.1195  -11.4725 C   0  0  0  0  0  0  0  0  0  0  0  0
   31.9381  -22.1369  -11.6363 N   0  0  0  0  0  0  0  0  0  0  0  0
   26.4944  -19.6285  -13.3288 C   0  0  0  0  0  0  0  0  0  0  0  0
   26.0984  -18.4424  -13.1649 O   0  0  0  0  0  0  0  0  0  0  0  0
   23.6386  -22.2243  -11.5768 C   0  0  0  0  0  0  0  0  0  0  0  0
   23.7193  -20.7151  -11.5272 C   0  0  2  0  0  0  0  0  0  0  0  0
   23.2534  -20.1802  -12.8862 C   0  0  0  0  0  0  0  0  0  0  0  0
   25.1510  -20.2584  -11.3655 C   0  0  2  0  0  0  0  0  0  0  0  0
   26.0030  -20.6146  -12.4462 N   0  0  0  0  0  0  0  0  0  0  0  0
   25.7391  -20.7244  -10.0908 C   0  0  0  0  0  0  0  0  0  0  0  0
   25.1930  -20.3583   -8.8779 O   0  0  0  0  0  0  0  0  0  0  0  0
   26.7472  -21.4630  -10.0763 O   0  0  0  0  0  0  0  0  0  0  0  0
  2  3  1  0
  2  1  1  0
  4  5  1  0
  4  3  1  0
  5  7  1  0
  5  6  1  6
  7  8  2  0
  9  7  1  0
  9 10  1  0
 10 11  1  1
 11 12  1  0
 13 12  1  0
 13 14  1  0
 15 14  1  0
 16 10  1  0
 16 17  2  0
 19 18  1  6
 19 21  1  0
 20 19  1  0
 21 22  1  6
 21 23  1  0
 22 16  1  0
 23 24  1  0
 25 23  2  0
M  END
$$$$
