MKV.pdb
     RDKit          3D

 25 24  0  0  1  0  0  0  0  0999 V2000
   26.7506  -25.4072  -16.0924 C   0  0  0  0  0  0  0  0  0  0  0  0
   28.3946  -25.7087  -16.7621 S   0  0  0  0  0  0  0  0  0  0  0  0
   29.3131  -24.1622  -17.0411 C   0  0  0  0  0  0  0  0  0  0  0  0
   28.5750  -23.0652  -16.3156 C   0  0  0  0  0  0  0  0  0  0  0  0
   28.0446  -22.0012  -17.2434 C   0  0  2  0  0  0  0  0  0  0  0  0
   29.0561  -21.1888  -17.8426 N   0  0  0  0  0  0  0  0  0  0  0  0
   27.1279  -21.1466  -16.4351 C   0  0  0  0  0  0  0  0  0  0  0  0
   27.5805  -20.3522  -15.5710 O   0  0  0  0  0  0  0  0  0  0  0  0
   25.7104  -21.1816  -16.5942 N   0  0  0  0  0  0  0  0  0  0  0  0
   24.8136  -20.3249  -15.8749 C   0  0  1  0  0  0  0  0  0  0  0  0
   23.4847  -20.1502  -16.5823 C   0  0  0  0  0  0  0  0  0  0  0  0
   22.5695  -19.3152  -15.7589 C   0  0  0  0  0  0  0  0  0  0  0  0
   21.1968  -19.1586  -16.3489 C   0  0  0  0  0  0  0  0  0  0  0  0
   20.3610  -18.2166  -15.5179 C   0  0  0  0  0  0  0  0  0  0  0  0
   19.0316  -18.1864  -16.1305 N   0  0  0  0  0  0  0  0  0  0  0  0
   24.6319  -20.8798  -14.5105 C   0  0  0  0  0  0  0  0  0  0  0  0
   24.3927  -22.1147  -14.4210 O   0  0  0  0  0  0  0  0  0  0  0  0
   26.8308  -20.7100  -11.2716 C   0  0  0  0  0  0  0  0  0  0  0  0
   25.4058  -20.3132  -10.9581 C   0  0  2  0  0  0  0  0  0  0  0  0
   24.9770  -21.0768   -9.7000 C   0  0  0  0  0  0  0  0  0  0  0  0
   24.4695  -20.7583  -12.0581 C   0  0  2  0  0  0  0  0  0  0  0  0
   24.7058  -20.1351  -13.3135 N   0  0  0  0  0  0  0  0  0  0  0  0
   23.0501  -20.5918  -11.6766 C   0  0  0  0  0  0  0  0  0  0  0  0
   22.2541  -19.6449  -12.2874 O   0  0  0  0  0  0  0  0  0  0  0  0
   22.5315  -21.3043  -10.7903 O   0  0  0  0  0  0  0  0  0  0  0  0
  2  3  1  0
  2  1  1  0
  4  5  1  0
  4  3  1  0
  5  7  1  0
  5  6  1  1
  7  8  2  0
  9  7  1  0
  9 10  1  0
 10 11  1  6
 11 12  1  0
 13 12  1  0
 13 14  1  0
 15 14  1  0
 16 10  1  0
 16 17  2  0
 19 18  1  6
 19 21  1  0
 20 19  1  0
 21 22  1  6
 21 23  1  0
 22 16  1  0
 23 24  1  0
 25 23  2  0
M  END
$$$$
