MKV.pdb
     RDKit          3D

 25 24  0  0  1  0  0  0  0  0999 V2000
   23.1545  -14.7454  -14.0553 C   0  0  0  0  0  0  0  0  0  0  0  0
   22.8249  -16.1240  -15.1656 S   0  0  0  0  0  0  0  0  0  0  0  0
   21.1349  -16.0697  -15.8395 C   0  0  0  0  0  0  0  0  0  0  0  0
   20.8936  -14.6650  -16.3326 C   0  0  0  0  0  0  0  0  0  0  0  0
   19.5391  -14.4920  -16.9726 C   0  0  2  0  0  0  0  0  0  0  0  0
   19.4000  -15.1456  -18.2357 N   0  0  0  0  0  0  0  0  0  0  0  0
   19.3293  -13.0251  -17.1408 C   0  0  0  0  0  0  0  0  0  0  0  0
   19.8112  -12.4133  -18.1287 O   0  0  0  0  0  0  0  0  0  0  0  0
   18.5828  -12.2470  -16.2065 N   0  0  0  0  0  0  0  0  0  0  0  0
   18.3705  -10.8358  -16.3453 C   0  0  1  0  0  0  0  0  0  0  0  0
   16.9732  -10.4157  -15.9354 C   0  0  0  0  0  0  0  0  0  0  0  0
   16.8414   -8.9354  -15.9998 C   0  0  0  0  0  0  0  0  0  0  0  0
   15.5401   -8.4187  -15.4553 C   0  0  0  0  0  0  0  0  0  0  0  0
   15.4778   -6.9145  -15.5543 C   0  0  0  0  0  0  0  0  0  0  0  0
   14.2902   -6.4954  -14.8076 N   0  0  0  0  0  0  0  0  0  0  0  0
   19.4040  -10.1280  -15.5496 C   0  0  0  0  0  0  0  0  0  0  0  0
   19.5481  -10.4860  -14.3490 O   0  0  0  0  0  0  0  0  0  0  0  0
   22.7299   -7.9835  -17.0360 C   0  0  0  0  0  0  0  0  0  0  0  0
   22.5902   -8.5051  -15.6235 C   0  0  2  0  0  0  0  0  0  0  0  0
   22.9626   -9.9920  -15.6385 C   0  0  0  0  0  0  0  0  0  0  0  0
   21.1512   -8.4381  -15.1657 C   0  0  2  0  0  0  0  0  0  0  0  0
   20.2322   -9.0912  -16.0313 N   0  0  0  0  0  0  0  0  0  0  0  0
   20.7112   -7.0460  -14.9281 C   0  0  0  0  0  0  0  0  0  0  0  0
   21.2528   -6.2915  -13.9080 O   0  0  0  0  0  0  0  0  0  0  0  0
   19.8364   -6.5138  -15.6447 O   0  0  0  0  0  0  0  0  0  0  0  0
  2  3  1  0
  2  1  1  0
  4  5  1  0
  4  3  1  0
  5  7  1  0
  5  6  1  6
  7  8  2  0
  9  7  1  0
  9 10  1  0
 10 11  1  1
 11 12  1  0
 13 12  1  0
 13 14  1  0
 15 14  1  0
 16 10  1  0
 16 17  2  0
 19 18  1  6
 19 21  1  0
 20 19  1  0
 21 22  1  6
 21 23  1  0
 22 16  1  0
 23 24  1  0
 25 23  2  0
M  END
$$$$
