MKV.pdb
     RDKit          3D

 25 24  0  0  1  0  0  0  0  0999 V2000
   28.6038  -18.1308   -6.4357 C   0  0  0  0  0  0  0  0  0  0  0  0
   28.0793  -19.7727   -5.9148 S   0  0  0  0  0  0  0  0  0  0  0  0
   28.0865  -20.9617   -7.2930 C   0  0  0  0  0  0  0  0  0  0  0  0
   27.2491  -20.3708   -8.3994 C   0  0  0  0  0  0  0  0  0  0  0  0
   27.0638  -21.3127   -9.5624 C   0  0  2  0  0  0  0  0  0  0  0  0
   28.2844  -21.7421  -10.1691 N   0  0  0  0  0  0  0  0  0  0  0  0
   26.2298  -20.5930  -10.5676 C   0  0  0  0  0  0  0  0  0  0  0  0
   26.5413  -19.4378  -10.9564 O   0  0  0  0  0  0  0  0  0  0  0  0
   25.0521  -21.1647  -11.1349 N   0  0  0  0  0  0  0  0  0  0  0  0
   24.3148  -20.5565  -12.2036 C   0  0  1  0  0  0  0  0  0  0  0  0
   24.8604  -20.9247  -13.5688 C   0  0  0  0  0  0  0  0  0  0  0  0
   24.8426  -22.4012  -13.7488 C   0  0  0  0  0  0  0  0  0  0  0  0
   25.4731  -22.8628  -15.0319 C   0  0  0  0  0  0  0  0  0  0  0  0
   25.3779  -24.3625  -15.1660 C   0  0  0  0  0  0  0  0  0  0  0  0
   26.0949  -24.7188  -16.3918 N   0  0  0  0  0  0  0  0  0  0  0  0
   22.8891  -20.9454  -12.0673 C   0  0  0  0  0  0  0  0  0  0  0  0
   22.6450  -22.0289  -11.4699 O   0  0  0  0  0  0  0  0  0  0  0  0
   19.4839  -18.4760  -13.0620 C   0  0  0  0  0  0  0  0  0  0  0  0
   19.4838  -19.5474  -11.9948 C   0  0  2  0  0  0  0  0  0  0  0  0
   19.9977  -18.9114  -10.6981 C   0  0  0  0  0  0  0  0  0  0  0  0
   20.4614  -20.6479  -12.3379 C   0  0  2  0  0  0  0  0  0  0  0  0
   21.7931  -20.1998  -12.5527 N   0  0  0  0  0  0  0  0  0  0  0  0
   20.0095  -21.4466  -13.4980 C   0  0  0  0  0  0  0  0  0  0  0  0
   18.8918  -22.2515  -13.4176 O   0  0  0  0  0  0  0  0  0  0  0  0
   20.6272  -21.4149  -14.5841 O   0  0  0  0  0  0  0  0  0  0  0  0
  2  3  1  0
  2  1  1  0
  4  5  1  0
  4  3  1  0
  5  7  1  0
  5  6  1  6
  7  8  2  0
  9  7  1  0
  9 10  1  0
 10 11  1  6
 11 12  1  0
 13 12  1  0
 13 14  1  0
 15 14  1  0
 16 10  1  0
 16 17  2  0
 19 18  1  6
 19 21  1  0
 20 19  1  0
 21 22  1  6
 21 23  1  0
 22 16  1  0
 23 24  1  0
 25 23  2  0
M  END
$$$$
