MKV.pdb
     RDKit          3D

 25 24  0  0  1  0  0  0  0  0999 V2000
   23.9017   -9.7041  -14.6311 C   0  0  0  0  0  0  0  0  0  0  0  0
   22.3821   -9.0253  -13.9439 S   0  0  0  0  0  0  0  0  0  0  0  0
   20.9205   -9.9976  -14.4248 C   0  0  0  0  0  0  0  0  0  0  0  0
   19.7206   -9.3540  -13.7764 C   0  0  0  0  0  0  0  0  0  0  0  0
   18.4309  -10.0726  -14.0841 C   0  0  2  0  0  0  0  0  0  0  0  0
   18.0708  -10.0642  -15.4670 N   0  0  0  0  0  0  0  0  0  0  0  0
   17.3658   -9.4021  -13.2840 C   0  0  0  0  0  0  0  0  0  0  0  0
   16.8533   -8.3201  -13.6701 O   0  0  0  0  0  0  0  0  0  0  0  0
   16.8769   -9.9415  -12.0570 N   0  0  0  0  0  0  0  0  0  0  0  0
   15.8005   -9.3578  -11.3110 C   0  0  1  0  0  0  0  0  0  0  0  0
   14.9953  -10.3907  -10.5483 C   0  0  0  0  0  0  0  0  0  0  0  0
   13.9289   -9.7263   -9.7520 C   0  0  0  0  0  0  0  0  0  0  0  0
   12.5407  -10.1868  -10.0949 C   0  0  0  0  0  0  0  0  0  0  0  0
   11.5091   -9.3889   -9.3365 C   0  0  0  0  0  0  0  0  0  0  0  0
   10.2007   -9.8156   -9.8358 N   0  0  0  0  0  0  0  0  0  0  0  0
   16.3665   -8.3319  -10.4001 C   0  0  0  0  0  0  0  0  0  0  0  0
   17.3408   -8.6803   -9.6791 O   0  0  0  0  0  0  0  0  0  0  0  0
   16.4576   -4.2219  -10.9501 C   0  0  0  0  0  0  0  0  0  0  0  0
   17.2880   -4.9962   -9.9513 C   0  0  2  0  0  0  0  0  0  0  0  0
   18.4314   -5.6684  -10.7198 C   0  0  0  0  0  0  0  0  0  0  0  0
   16.4815   -6.1164   -9.3354 C   0  0  2  0  0  0  0  0  0  0  0  0
   15.9001   -7.0049  -10.2802 N   0  0  0  0  0  0  0  0  0  0  0  0
   15.4373   -5.6069   -8.4199 C   0  0  0  0  0  0  0  0  0  0  0  0
   15.7706   -4.9643   -7.2455 O   0  0  0  0  0  0  0  0  0  0  0  0
   14.2235   -5.7439   -8.6844 O   0  0  0  0  0  0  0  0  0  0  0  0
  2  3  1  0
  2  1  1  0
  4  5  1  0
  4  3  1  0
  5  7  1  0
  5  6  1  6
  7  8  2  0
  9  7  1  0
  9 10  1  0
 10 11  1  1
 11 12  1  0
 13 12  1  0
 13 14  1  0
 15 14  1  0
 16 10  1  0
 16 17  2  0
 19 18  1  6
 19 21  1  0
 20 19  1  0
 21 22  1  6
 21 23  1  0
 22 16  1  0
 23 24  1  0
 25 23  2  0
M  END
$$$$
