MKV.pdb
     RDKit          3D

 25 24  0  0  1  0  0  0  0  0999 V2000
   26.5614  -20.1033   -5.4556 C   0  0  0  0  0  0  0  0  0  0  0  0
   27.5720  -20.4193   -6.9119 S   0  0  0  0  0  0  0  0  0  0  0  0
   27.1751  -19.2843   -8.2785 C   0  0  0  0  0  0  0  0  0  0  0  0
   25.9912  -19.8627   -9.0122 C   0  0  0  0  0  0  0  0  0  0  0  0
   26.3785  -20.9378   -9.9963 C   0  0  2  0  0  0  0  0  0  0  0  0
   27.7838  -21.0333  -10.2372 N   0  0  0  0  0  0  0  0  0  0  0  0
   25.6707  -20.6261  -11.2715 C   0  0  0  0  0  0  0  0  0  0  0  0
   25.9875  -19.6193  -11.9560 O   0  0  0  0  0  0  0  0  0  0  0  0
   24.6129  -21.4388  -11.7777 N   0  0  0  0  0  0  0  0  0  0  0  0
   23.9647  -21.1991  -13.0339 C   0  0  1  0  0  0  0  0  0  0  0  0
   23.9387  -22.4297  -13.9181 C   0  0  0  0  0  0  0  0  0  0  0  0
   25.2507  -22.6030  -14.5974 C   0  0  0  0  0  0  0  0  0  0  0  0
   25.3252  -23.8246  -15.4687 C   0  0  0  0  0  0  0  0  0  0  0  0
   26.6979  -23.9641  -16.0790 C   0  0  0  0  0  0  0  0  0  0  0  0
   26.6945  -25.2190  -16.8330 N   0  0  0  0  0  0  0  0  0  0  0  0
   22.5944  -20.6975  -12.7637 C   0  0  0  0  0  0  0  0  0  0  0  0
   22.0623  -21.0420  -11.6736 O   0  0  0  0  0  0  0  0  0  0  0  0
   21.3258  -16.9900  -12.9648 C   0  0  0  0  0  0  0  0  0  0  0  0
   20.3410  -17.9195  -13.6379 C   0  0  2  0  0  0  0  0  0  0  0  0
   18.9409  -17.5625  -13.1260 C   0  0  0  0  0  0  0  0  0  0  0  0
   20.5857  -19.3526  -13.2244 C   0  0  2  0  0  0  0  0  0  0  0  0
   21.8464  -19.8697  -13.6287 N   0  0  0  0  0  0  0  0  0  0  0  0
   19.5055  -20.2525  -13.6840 C   0  0  0  0  0  0  0  0  0  0  0  0
   18.3744  -20.4563  -12.9209 O   0  0  0  0  0  0  0  0  0  0  0  0
   19.5868  -20.8536  -14.7768 O   0  0  0  0  0  0  0  0  0  0  0  0
  2  3  1  0
  2  1  1  0
  4  5  1  0
  4  3  1  0
  5  7  1  0
  5  6  1  6
  7  8  2  0
  9  7  1  0
  9 10  1  0
 10 11  1  6
 11 12  1  0
 13 12  1  0
 13 14  1  0
 15 14  1  0
 16 10  1  0
 16 17  2  0
 19 18  1  1
 19 21  1  0
 20 19  1  0
 21 22  1  6
 21 23  1  0
 22 16  1  0
 23 24  1  0
 25 23  2  0
M  END
$$$$
