MKV.pdb
     RDKit          3D

 25 24  0  0  1  0  0  0  0  0999 V2000
   23.1958  -16.2993  -14.0590 C   0  0  0  0  0  0  0  0  0  0  0  0
   22.5651  -14.7629  -14.7546 S   0  0  0  0  0  0  0  0  0  0  0  0
   23.8654  -13.4987  -14.9102 C   0  0  0  0  0  0  0  0  0  0  0  0
   23.1962  -12.2179  -15.3416 C   0  0  0  0  0  0  0  0  0  0  0  0
   22.4648  -12.3507  -16.6538 C   0  0  2  0  0  0  0  0  0  0  0  0
   23.3148  -12.5939  -17.7765 N   0  0  0  0  0  0  0  0  0  0  0  0
   21.7163  -11.0770  -16.8575 C   0  0  0  0  0  0  0  0  0  0  0  0
   22.3029  -10.0420  -17.2665 O   0  0  0  0  0  0  0  0  0  0  0  0
   20.3168  -10.9633  -16.6044 N   0  0  0  0  0  0  0  0  0  0  0  0
   19.5762   -9.7501  -16.7927 C   0  0  1  0  0  0  0  0  0  0  0  0
   18.0812   -9.9878  -16.8665 C   0  0  0  0  0  0  0  0  0  0  0  0
   17.3723   -8.7158  -17.1701 C   0  0  0  0  0  0  0  0  0  0  0  0
   15.8807   -8.8627  -17.2720 C   0  0  0  0  0  0  0  0  0  0  0  0
   15.2301   -7.5325  -17.5609 C   0  0  0  0  0  0  0  0  0  0  0  0
   13.7988   -7.7939  -17.7233 N   0  0  0  0  0  0  0  0  0  0  0  0
   19.9223   -8.8165  -15.6923 C   0  0  0  0  0  0  0  0  0  0  0  0
   19.9343   -9.2881  -14.5228 O   0  0  0  0  0  0  0  0  0  0  0  0
   23.0107   -7.3563  -14.7394 C   0  0  0  0  0  0  0  0  0  0  0  0
   22.0558   -6.1844  -14.7774 C   0  0  2  0  0  0  0  0  0  0  0  0
   22.2696   -5.3693  -13.4968 C   0  0  0  0  0  0  0  0  0  0  0  0
   20.6211   -6.6587  -14.7377 C   0  0  2  0  0  0  0  0  0  0  0  0
   20.2368   -7.4499  -15.8543 N   0  0  0  0  0  0  0  0  0  0  0  0
   19.6725   -5.5362  -14.5702 C   0  0  0  0  0  0  0  0  0  0  0  0
   19.4646   -4.9568  -13.3355 O   0  0  0  0  0  0  0  0  0  0  0  0
   19.0324   -5.0808  -15.5423 O   0  0  0  0  0  0  0  0  0  0  0  0
  2  3  1  0
  2  1  1  0
  4  5  1  0
  4  3  1  0
  5  7  1  0
  5  6  1  6
  7  8  2  0
  9  7  1  0
  9 10  1  0
 10 11  1  1
 11 12  1  0
 13 12  1  0
 13 14  1  0
 15 14  1  0
 16 10  1  0
 16 17  2  0
 19 18  1  1
 19 21  1  0
 20 19  1  0
 21 22  1  6
 21 23  1  0
 22 16  1  0
 23 24  1  0
 25 23  2  0
M  END
$$$$
