ANK.pdb
     RDKit          3D

 23 22  0  0  1  0  0  0  0  0999 V2000
    6.8431  -18.8570   16.4476 C   0  0  0  0  0  0  0  0  0  0  0  0
    7.5998  -17.6091   15.9997 C   0  0  2  0  0  0  0  0  0  0  0  0
    8.6648  -18.0668   15.1330 N   0  0  0  0  0  0  0  0  0  0  0  0
    8.2174  -16.9222   17.1571 C   0  0  0  0  0  0  0  0  0  0  0  0
    9.3307  -17.3262   17.5960 O   0  0  0  0  0  0  0  0  0  0  0  0
    7.2065  -11.7870   20.5083 N   0  0  0  0  0  0  0  0  0  0  0  0
    7.9339  -12.9349   20.1396 C   0  0  0  0  0  0  0  0  0  0  0  0
    9.0246  -13.1702   20.6811 O   0  0  0  0  0  0  0  0  0  0  0  0
    7.3894  -13.8390   19.1168 C   0  0  0  0  0  0  0  0  0  0  0  0
    8.1587  -15.0790   18.8685 C   0  0  2  0  0  0  0  0  0  0  0  0
    7.5849  -15.8166   17.7870 N   0  0  0  0  0  0  0  0  0  0  0  0
    8.3699  -15.9177   20.0705 C   0  0  0  0  0  0  0  0  0  0  0  0
    7.3631  -16.4627   20.5742 O   0  0  0  0  0  0  0  0  0  0  0  0
    9.6282  -16.1296   20.6665 N   0  0  0  0  0  0  0  0  0  0  0  0
    9.9136  -16.9272   21.8271 C   0  0  1  0  0  0  0  0  0  0  0  0
   10.3001  -18.3087   21.4544 C   0  0  0  0  0  0  0  0  0  0  0  0
   10.5495  -19.2611   22.5667 C   0  0  0  0  0  0  0  0  0  0  0  0
   10.8567  -20.6681   22.1172 C   0  0  0  0  0  0  0  0  0  0  0  0
   10.9785  -21.6117   23.2981 C   0  0  0  0  0  0  0  0  0  0  0  0
   11.2269  -22.9709   22.8660 N   0  0  0  0  0  0  0  0  0  0  0  0
   10.8193  -16.2594   22.8026 C   0  0  0  0  0  0  0  0  0  0  0  0
   10.7973  -16.6101   24.1431 O   0  0  0  0  0  0  0  0  0  0  0  0
   11.6338  -15.3652   22.4637 O   0  0  0  0  0  0  0  0  0  0  0  0
  2  3  1  0
  2  1  1  1
  4  2  1  0
  5  4  2  0
  6  7  1  0
  7  9  1  0
  7  8  2  0
 10  9  1  1
 10 11  1  0
 10 12  1  0
 11  4  1  0
 12 14  1  0
 13 12  2  0
 14 15  1  0
 15 16  1  6
 15 21  1  0
 17 16  1  0
 18 17  1  0
 19 18  1  0
 19 20  1  0
 21 22  1  0
 23 21  2  0
M  END
$$$$
