ANK.pdb
     RDKit          3D

 23 22  0  0  1  0  0  0  0  0999 V2000
    8.0592  -12.3549   20.1151 C   0  0  0  0  0  0  0  0  0  0  0  0
    8.0772  -13.6253   19.2688 C   0  0  2  0  0  0  0  0  0  0  0  0
    6.7323  -13.7973   18.7624 N   0  0  0  0  0  0  0  0  0  0  0  0
    8.4067  -14.8073   20.0978 C   0  0  0  0  0  0  0  0  0  0  0  0
    7.4961  -15.3644   20.7729 O   0  0  0  0  0  0  0  0  0  0  0  0
    9.1433  -19.2617   19.6865 N   0  0  0  0  0  0  0  0  0  0  0  0
    9.9475  -18.2002   19.2287 C   0  0  0  0  0  0  0  0  0  0  0  0
    9.9328  -17.8936   18.0271 O   0  0  0  0  0  0  0  0  0  0  0  0
   10.7938  -17.4700   20.1829 C   0  0  0  0  0  0  0  0  0  0  0  0
   10.1184  -16.4244   20.9838 C   0  0  2  0  0  0  0  0  0  0  0  0
    9.7269  -15.3304   20.1515 N   0  0  0  0  0  0  0  0  0  0  0  0
   10.8792  -15.9802   22.1741 C   0  0  0  0  0  0  0  0  0  0  0  0
   11.8787  -15.2543   21.9783 O   0  0  0  0  0  0  0  0  0  0  0  0
   10.5395  -16.3286   23.4957 N   0  0  0  0  0  0  0  0  0  0  0  0
   11.2950  -16.0511   24.6861 C   0  0  1  0  0  0  0  0  0  0  0  0
   10.4102  -15.6847   25.8173 C   0  0  0  0  0  0  0  0  0  0  0  0
   11.0670  -15.3818   27.1147 C   0  0  0  0  0  0  0  0  0  0  0  0
   10.1243  -14.8835   28.1820 C   0  0  0  0  0  0  0  0  0  0  0  0
   10.8613  -14.5768   29.4714 C   0  0  0  0  0  0  0  0  0  0  0  0
    9.9607  -14.0810   30.4907 N   0  0  0  0  0  0  0  0  0  0  0  0
   12.3216  -17.0844   24.9962 C   0  0  0  0  0  0  0  0  0  0  0  0
   12.2023  -18.3720   24.4977 O   0  0  0  0  0  0  0  0  0  0  0  0
   13.3277  -16.8431   25.7084 O   0  0  0  0  0  0  0  0  0  0  0  0
  2  3  1  0
  2  1  1  1
  4  2  1  0
  5  4  2  0
  6  7  1  0
  7  9  1  0
  7  8  2  0
 10  9  1  6
 10 11  1  0
 10 12  1  0
 11  4  1  0
 12 14  1  0
 13 12  2  0
 14 15  1  0
 15 16  1  1
 15 21  1  0
 17 16  1  0
 18 17  1  0
 19 18  1  0
 19 20  1  0
 21 22  1  0
 23 21  2  0
M  END
$$$$
