ANK.pdb
     RDKit          3D

 23 22  0  0  1  0  0  0  0  0999 V2000
    7.3141  -13.0820   18.1176 C   0  0  0  0  0  0  0  0  0  0  0  0
    8.6134  -13.3220   18.8823 C   0  0  2  0  0  0  0  0  0  0  0  0
    9.5544  -13.8669   17.9271 N   0  0  0  0  0  0  0  0  0  0  0  0
    8.4180  -14.3260   19.9532 C   0  0  0  0  0  0  0  0  0  0  0  0
    7.5213  -14.1384   20.8227 O   0  0  0  0  0  0  0  0  0  0  0  0
    9.7608  -19.9777   21.5531 N   0  0  0  0  0  0  0  0  0  0  0  0
   10.0791  -18.6400   21.8568 C   0  0  0  0  0  0  0  0  0  0  0  0
   10.4218  -18.3377   23.0098 O   0  0  0  0  0  0  0  0  0  0  0  0
   10.0006  -17.6200   20.8017 C   0  0  0  0  0  0  0  0  0  0  0  0
    9.1608  -16.4383   21.1004 C   0  0  2  0  0  0  0  0  0  0  0  0
    9.2180  -15.4982   20.0253 N   0  0  0  0  0  0  0  0  0  0  0  0
    9.4369  -15.8087   22.4121 C   0  0  0  0  0  0  0  0  0  0  0  0
   10.5835  -15.3439   22.5955 O   0  0  0  0  0  0  0  0  0  0  0  0
    8.4879  -15.7083   23.4479 N   0  0  0  0  0  0  0  0  0  0  0  0
    8.6058  -14.9449   24.6595 C   0  0  1  0  0  0  0  0  0  0  0  0
    7.4187  -14.0843   24.8763 C   0  0  0  0  0  0  0  0  0  0  0  0
    7.4739  -13.1369   26.0189 C   0  0  0  0  0  0  0  0  0  0  0  0
    6.2044  -12.3493   26.2293 C   0  0  0  0  0  0  0  0  0  0  0  0
    6.3054  -11.4529   27.4483 C   0  0  0  0  0  0  0  0  0  0  0  0
    5.0470  -10.7930   27.7258 N   0  0  0  0  0  0  0  0  0  0  0  0
    9.0221  -15.7551   25.8376 C   0  0  0  0  0  0  0  0  0  0  0  0
    9.6949  -15.1683   26.8977 O   0  0  0  0  0  0  0  0  0  0  0  0
    8.7855  -16.9854   25.9276 O   0  0  0  0  0  0  0  0  0  0  0  0
  2  3  1  0
  2  1  1  6
  4  2  1  0
  5  4  2  0
  6  7  1  0
  7  9  1  0
  7  8  2  0
 10  9  1  6
 10 11  1  0
 10 12  1  0
 11  4  1  0
 12 14  1  0
 13 12  2  0
 14 15  1  0
 15 16  1  1
 15 21  1  0
 17 16  1  0
 18 17  1  0
 19 18  1  0
 19 20  1  0
 21 22  1  0
 23 21  2  0
M  END
$$$$
