ANK.pdb
     RDKit          3D

 23 22  0  0  1  0  0  0  0  0999 V2000
    8.2864  -12.5878   18.3735 C   0  0  0  0  0  0  0  0  0  0  0  0
    8.8443  -13.9098   17.8521 C   0  0  2  0  0  0  0  0  0  0  0  0
    8.1088  -14.2146   16.6434 N   0  0  0  0  0  0  0  0  0  0  0  0
    8.6027  -15.0035   18.8208 C   0  0  0  0  0  0  0  0  0  0  0  0
    8.1636  -16.1129   18.4064 O   0  0  0  0  0  0  0  0  0  0  0  0
    9.3473  -19.3934   21.0866 N   0  0  0  0  0  0  0  0  0  0  0  0
    9.9135  -18.1745   21.5066 C   0  0  0  0  0  0  0  0  0  0  0  0
   10.5059  -18.1160   22.5946 O   0  0  0  0  0  0  0  0  0  0  0  0
    9.7943  -16.9875   20.6483 C   0  0  0  0  0  0  0  0  0  0  0  0
    8.9108  -15.9098   21.1474 C   0  0  2  0  0  0  0  0  0  0  0  0
    8.8543  -14.8332   20.2090 N   0  0  0  0  0  0  0  0  0  0  0  0
    9.2289  -15.4447   22.5170 C   0  0  0  0  0  0  0  0  0  0  0  0
   10.3824  -15.0065   22.7208 O   0  0  0  0  0  0  0  0  0  0  0  0
    8.3118  -15.4704   23.5855 N   0  0  0  0  0  0  0  0  0  0  0  0
    8.4547  -14.8324   24.8651 C   0  0  1  0  0  0  0  0  0  0  0  0
    7.2098  -14.1351   25.2657 C   0  0  0  0  0  0  0  0  0  0  0  0
    7.3499  -12.9970   26.2100 C   0  0  0  0  0  0  0  0  0  0  0  0
    6.0468  -12.3225   26.5611 C   0  0  0  0  0  0  0  0  0  0  0  0
    6.2608  -11.1787   27.5335 C   0  0  0  0  0  0  0  0  0  0  0  0
    5.0031  -10.5900   27.9432 N   0  0  0  0  0  0  0  0  0  0  0  0
    9.0490  -15.7133   25.9085 C   0  0  0  0  0  0  0  0  0  0  0  0
    9.8722  -15.1888   26.8922 O   0  0  0  0  0  0  0  0  0  0  0  0
    8.8345  -16.9503   25.9488 O   0  0  0  0  0  0  0  0  0  0  0  0
  2  3  1  0
  2  1  1  1
  4  2  1  0
  5  4  2  0
  6  7  1  0
  7  9  1  0
  7  8  2  0
 10  9  1  6
 10 11  1  0
 10 12  1  0
 11  4  1  0
 12 14  1  0
 13 12  2  0
 14 15  1  0
 15 16  1  1
 15 21  1  0
 17 16  1  0
 18 17  1  0
 19 18  1  0
 19 20  1  0
 21 22  1  0
 23 21  2  0
M  END
$$$$
