ANK.pdb
     RDKit          3D

 23 22  0  0  1  0  0  0  0  0999 V2000
    6.8578  -13.2505   19.1682 C   0  0  0  0  0  0  0  0  0  0  0  0
    8.3011  -13.0964   19.6413 C   0  0  2  0  0  0  0  0  0  0  0  0
    9.0730  -12.7139   18.4783 N   0  0  0  0  0  0  0  0  0  0  0  0
    8.8342  -14.3854   20.1385 C   0  0  0  0  0  0  0  0  0  0  0  0
    8.1978  -15.0180   21.0274 O   0  0  0  0  0  0  0  0  0  0  0  0
   10.7925  -16.3163   16.5712 N   0  0  0  0  0  0  0  0  0  0  0  0
   10.5084  -17.0652   17.7293 C   0  0  0  0  0  0  0  0  0  0  0  0
    9.5933  -17.9021   17.7093 O   0  0  0  0  0  0  0  0  0  0  0  0
   11.3014  -16.8440   18.9467 C   0  0  0  0  0  0  0  0  0  0  0  0
   10.6017  -16.1744   20.0661 C   0  0  2  0  0  0  0  0  0  0  0  0
   10.0480  -14.9284   19.6374 N   0  0  0  0  0  0  0  0  0  0  0  0
   11.4131  -16.0344   21.2970 C   0  0  0  0  0  0  0  0  0  0  0  0
   12.1487  -15.0269   21.3880 O   0  0  0  0  0  0  0  0  0  0  0  0
   11.3988  -16.9644   22.3546 N   0  0  0  0  0  0  0  0  0  0  0  0
   12.2387  -16.9632   23.5204 C   0  0  1  0  0  0  0  0  0  0  0  0
   11.6086  -17.6964   24.6438 C   0  0  0  0  0  0  0  0  0  0  0  0
   12.3984  -17.8170   25.8961 C   0  0  0  0  0  0  0  0  0  0  0  0
   11.7189  -18.6174   26.9795 C   0  0  0  0  0  0  0  0  0  0  0  0
   12.4873  -18.5448   28.2849 C   0  0  0  0  0  0  0  0  0  0  0  0
   11.8049  -19.2621   29.3412 N   0  0  0  0  0  0  0  0  0  0  0  0
   13.6529  -17.3347   23.2379 C   0  0  0  0  0  0  0  0  0  0  0  0
   14.6979  -16.6390   23.8249 O   0  0  0  0  0  0  0  0  0  0  0  0
   13.9614  -18.2805   22.4710 O   0  0  0  0  0  0  0  0  0  0  0  0
  2  3  1  0
  2  1  1  6
  4  2  1  0
  5  4  2  0
  6  7  1  0
  7  9  1  0
  7  8  2  0
 10  9  1  6
 10 11  1  0
 10 12  1  0
 11  4  1  0
 12 14  1  0
 13 12  2  0
 14 15  1  0
 15 16  1  1
 15 21  1  0
 17 16  1  0
 18 17  1  0
 19 18  1  0
 19 20  1  0
 21 22  1  0
 23 21  2  0
M  END
$$$$
