ANK.pdb
     RDKit          3D

 23 22  0  0  1  0  0  0  0  0999 V2000
   12.9531  -20.4472   18.7752 C   0  0  0  0  0  0  0  0  0  0  0  0
   12.5220  -20.7179   20.2145 C   0  0  2  0  0  0  0  0  0  0  0  0
   11.1142  -20.3899   20.2873 N   0  0  0  0  0  0  0  0  0  0  0  0
   13.2453  -19.8344   21.1573 C   0  0  0  0  0  0  0  0  0  0  0  0
   14.4876  -19.9900   21.3238 O   0  0  0  0  0  0  0  0  0  0  0  0
   15.1784  -15.2291   23.0847 N   0  0  0  0  0  0  0  0  0  0  0  0
   13.8192  -15.5624   23.2407 C   0  0  0  0  0  0  0  0  0  0  0  0
   13.1516  -15.0147   24.1309 O   0  0  0  0  0  0  0  0  0  0  0  0
   13.2104  -16.5559   22.3450 C   0  0  0  0  0  0  0  0  0  0  0  0
   13.2101  -17.9546   22.8292 C   0  0  2  0  0  0  0  0  0  0  0  0
   12.5724  -18.8131   21.8808 N   0  0  0  0  0  0  0  0  0  0  0  0
   12.6680  -18.1274   24.1964 C   0  0  0  0  0  0  0  0  0  0  0  0
   13.2598  -17.5379   25.1272 O   0  0  0  0  0  0  0  0  0  0  0  0
   11.5365  -18.9104   24.4971 N   0  0  0  0  0  0  0  0  0  0  0  0
   10.9461  -19.1184   25.7905 C   0  0  1  0  0  0  0  0  0  0  0  0
    9.5109  -19.4719   25.6813 C   0  0  0  0  0  0  0  0  0  0  0  0
    9.1744  -20.6835   24.8907 C   0  0  0  0  0  0  0  0  0  0  0  0
    7.7038  -21.0201   24.8731 C   0  0  0  0  0  0  0  0  0  0  0  0
    7.4279  -22.2489   24.0283 C   0  0  0  0  0  0  0  0  0  0  0  0
    6.0227  -22.5969   24.0434 N   0  0  0  0  0  0  0  0  0  0  0  0
   11.7491  -20.0049   26.6777 C   0  0  0  0  0  0  0  0  0  0  0  0
   12.6708  -20.8920   26.1447 O   0  0  0  0  0  0  0  0  0  0  0  0
   11.6345  -19.9897   27.9285 O   0  0  0  0  0  0  0  0  0  0  0  0
  2  3  1  0
  2  1  1  6
  4  2  1  0
  5  4  2  0
  6  7  1  0
  7  9  1  0
  7  8  2  0
 10  9  1  6
 10 11  1  0
 10 12  1  0
 11  4  1  0
 12 14  1  0
 13 12  2  0
 14 15  1  0
 15 16  1  6
 15 21  1  0
 17 16  1  0
 18 17  1  0
 19 18  1  0
 19 20  1  0
 21 22  1  0
 23 21  2  0
M  END
$$$$
