ANK.pdb
     RDKit          3D

 23 22  0  0  1  0  0  0  0  0999 V2000
    6.4033  -19.9733   20.0028 C   0  0  0  0  0  0  0  0  0  0  0  0
    6.3124  -18.9391   18.8836 C   0  0  2  0  0  0  0  0  0  0  0  0
    6.6306  -19.6370   17.6563 N   0  0  0  0  0  0  0  0  0  0  0  0
    7.3167  -17.8673   19.0722 C   0  0  0  0  0  0  0  0  0  0  0  0
    8.5181  -18.0790   18.7449 O   0  0  0  0  0  0  0  0  0  0  0  0
    7.5987  -11.8060   20.2014 N   0  0  0  0  0  0  0  0  0  0  0  0
    8.1542  -13.0869   20.0181 C   0  0  0  0  0  0  0  0  0  0  0  0
    9.3866  -13.2261   20.0135 O   0  0  0  0  0  0  0  0  0  0  0  0
    7.2643  -14.2420   19.8346 C   0  0  0  0  0  0  0  0  0  0  0  0
    7.9007  -15.5751   19.9292 C   0  0  2  0  0  0  0  0  0  0  0  0
    6.9591  -16.6033   19.6142 N   0  0  0  0  0  0  0  0  0  0  0  0
    8.6010  -15.8280   21.2093 C   0  0  0  0  0  0  0  0  0  0  0  0
    7.9390  -15.6937   22.2619 O   0  0  0  0  0  0  0  0  0  0  0  0
    9.9546  -16.2065   21.3000 N   0  0  0  0  0  0  0  0  0  0  0  0
   10.7189  -16.4081   22.5000 C   0  0  1  0  0  0  0  0  0  0  0  0
   10.6343  -17.8119   22.9677 C   0  0  0  0  0  0  0  0  0  0  0  0
   10.9504  -18.0654   24.3968 C   0  0  0  0  0  0  0  0  0  0  0  0
   10.7864  -19.5044   24.8192 C   0  0  0  0  0  0  0  0  0  0  0  0
   11.1233  -19.6919   26.2859 C   0  0  0  0  0  0  0  0  0  0  0  0
   10.9417  -21.0676   26.6989 N   0  0  0  0  0  0  0  0  0  0  0  0
   12.0968  -15.8472   22.4315 C   0  0  0  0  0  0  0  0  0  0  0  0
   12.8271  -15.6220   23.5876 O   0  0  0  0  0  0  0  0  0  0  0  0
   12.6545  -15.5593   21.3434 O   0  0  0  0  0  0  0  0  0  0  0  0
  2  3  1  0
  2  1  1  1
  4  2  1  0
  5  4  2  0
  6  7  1  0
  7  9  1  0
  7  8  2  0
 10  9  1  1
 10 11  1  0
 10 12  1  0
 11  4  1  0
 12 14  1  0
 13 12  2  0
 14 15  1  0
 15 16  1  6
 15 21  1  0
 17 16  1  0
 18 17  1  0
 19 18  1  0
 19 20  1  0
 21 22  1  0
 23 21  2  0
M  END
$$$$
