ANK.pdb
     RDKit          3D

 23 22  0  0  1  0  0  0  0  0999 V2000
    7.8228  -12.5991   19.6465 C   0  0  0  0  0  0  0  0  0  0  0  0
    8.1034  -14.0982   19.7144 C   0  0  2  0  0  0  0  0  0  0  0  0
    6.8263  -14.7427   19.9343 N   0  0  0  0  0  0  0  0  0  0  0  0
    8.9802  -14.4196   20.8636 C   0  0  0  0  0  0  0  0  0  0  0  0
   10.1899  -14.0573   20.8408 O   0  0  0  0  0  0  0  0  0  0  0  0
    9.4514  -14.7977   26.5452 N   0  0  0  0  0  0  0  0  0  0  0  0
    9.0776  -15.7942   25.6232 C   0  0  0  0  0  0  0  0  0  0  0  0
    9.3083  -16.9853   25.8803 O   0  0  0  0  0  0  0  0  0  0  0  0
    8.4186  -15.4078   24.3677 C   0  0  0  0  0  0  0  0  0  0  0  0
    9.2712  -15.4108   23.1577 C   0  0  2  0  0  0  0  0  0  0  0  0
    8.4908  -15.1280   21.9941 N   0  0  0  0  0  0  0  0  0  0  0  0
   10.0986  -16.6284   22.9966 C   0  0  0  0  0  0  0  0  0  0  0  0
    9.5636  -17.6175   22.4492 O   0  0  0  0  0  0  0  0  0  0  0  0
   11.4374  -16.7274   23.4224 N   0  0  0  0  0  0  0  0  0  0  0  0
   12.3717  -17.7724   23.1062 C   0  0  1  0  0  0  0  0  0  0  0  0
   13.0255  -17.5378   21.7969 C   0  0  0  0  0  0  0  0  0  0  0  0
   13.9963  -18.5632   21.3360 C   0  0  0  0  0  0  0  0  0  0  0  0
   14.6942  -18.2157   20.0443 C   0  0  0  0  0  0  0  0  0  0  0  0
   15.6976  -19.2835   19.6535 C   0  0  0  0  0  0  0  0  0  0  0  0
   16.2364  -19.0448   18.3311 N   0  0  0  0  0  0  0  0  0  0  0  0
   13.2980  -18.1036   24.2242 C   0  0  0  0  0  0  0  0  0  0  0  0
   13.8737  -19.3608   24.3171 O   0  0  0  0  0  0  0  0  0  0  0  0
   13.5992  -17.2746   25.1186 O   0  0  0  0  0  0  0  0  0  0  0  0
  2  3  1  0
  2  1  1  1
  4  2  1  0
  5  4  2  0
  6  7  1  0
  7  9  1  0
  7  8  2  0
 10  9  1  1
 10 11  1  0
 10 12  1  0
 11  4  1  0
 12 14  1  0
 13 12  2  0
 14 15  1  0
 15 16  1  6
 15 21  1  0
 17 16  1  0
 18 17  1  0
 19 18  1  0
 19 20  1  0
 21 22  1  0
 23 21  2  0
M  END
$$$$
