ANK.pdb
     RDKit          3D

 23 22  0  0  1  0  0  0  0  0999 V2000
    9.3273  -12.2274   19.1696 C   0  0  0  0  0  0  0  0  0  0  0  0
    8.8359  -13.5428   18.5706 C   0  0  2  0  0  0  0  0  0  0  0  0
    7.7585  -13.2021   17.6663 N   0  0  0  0  0  0  0  0  0  0  0  0
    8.2857  -14.4288   19.6219 C   0  0  0  0  0  0  0  0  0  0  0  0
    7.0924  -14.8324   19.5305 O   0  0  0  0  0  0  0  0  0  0  0  0
    7.3271  -18.8683   21.8001 N   0  0  0  0  0  0  0  0  0  0  0  0
    8.6158  -18.4888   21.3780 C   0  0  0  0  0  0  0  0  0  0  0  0
    9.5799  -19.2357   21.6035 O   0  0  0  0  0  0  0  0  0  0  0  0
    8.8001  -17.2112   20.6754 C   0  0  0  0  0  0  0  0  0  0  0  0
    8.7972  -15.9969   21.5217 C   0  0  2  0  0  0  0  0  0  0  0  0
    9.0712  -14.8363   20.7338 N   0  0  0  0  0  0  0  0  0  0  0  0
    9.6682  -16.0830   22.7163 C   0  0  0  0  0  0  0  0  0  0  0  0
   10.2062  -17.1865   22.9559 O   0  0  0  0  0  0  0  0  0  0  0  0
    9.9178  -15.0015   23.5832 N   0  0  0  0  0  0  0  0  0  0  0  0
    9.3068  -14.7566   24.8605 C   0  0  1  0  0  0  0  0  0  0  0  0
    8.0932  -13.9160   24.7292 C   0  0  0  0  0  0  0  0  0  0  0  0
    7.2892  -13.6979   25.9590 C   0  0  0  0  0  0  0  0  0  0  0  0
    6.5227  -12.3985   25.9728 C   0  0  0  0  0  0  0  0  0  0  0  0
    5.8104  -12.1908   27.2953 C   0  0  0  0  0  0  0  0  0  0  0  0
    5.1915  -10.8837   27.3636 N   0  0  0  0  0  0  0  0  0  0  0  0
    9.1386  -15.9839   25.6871 C   0  0  0  0  0  0  0  0  0  0  0  0
    8.4274  -17.0706   25.2034 O   0  0  0  0  0  0  0  0  0  0  0  0
    9.6263  -16.0930   26.8395 O   0  0  0  0  0  0  0  0  0  0  0  0
  2  3  1  0
  2  1  1  1
  4  2  1  0
  5  4  2  0
  6  7  1  0
  7  9  1  0
  7  8  2  0
 10  9  1  6
 10 11  1  0
 10 12  1  0
 11  4  1  0
 12 14  1  0
 13 12  2  0
 14 15  1  0
 15 16  1  6
 15 21  1  0
 17 16  1  0
 18 17  1  0
 19 18  1  0
 19 20  1  0
 21 22  1  0
 23 21  2  0
M  END
$$$$
