ANK.pdb
     RDKit          3D

 23 22  0  0  1  0  0  0  0  0999 V2000
    8.2655  -14.9077   18.1514 C   0  0  0  0  0  0  0  0  0  0  0  0
    7.7233  -13.8308   19.0877 C   0  0  2  0  0  0  0  0  0  0  0  0
    8.3479  -12.5885   18.6859 N   0  0  0  0  0  0  0  0  0  0  0  0
    8.1136  -14.1047   20.4897 C   0  0  0  0  0  0  0  0  0  0  0  0
    9.2189  -13.6721   20.9213 O   0  0  0  0  0  0  0  0  0  0  0  0
    6.5619  -15.1709   25.8919 N   0  0  0  0  0  0  0  0  0  0  0  0
    6.6750  -16.0939   24.8344 C   0  0  0  0  0  0  0  0  0  0  0  0
    6.9741  -17.2725   25.0784 O   0  0  0  0  0  0  0  0  0  0  0  0
    6.4366  -15.6466   23.4549 C   0  0  0  0  0  0  0  0  0  0  0  0
    7.6314  -15.2146   22.6955 C   0  0  2  0  0  0  0  0  0  0  0  0
    7.2712  -14.8448   21.3626 N   0  0  0  0  0  0  0  0  0  0  0  0
    8.7559  -16.1777   22.7265 C   0  0  0  0  0  0  0  0  0  0  0  0
    8.7306  -17.1163   21.9001 O   0  0  0  0  0  0  0  0  0  0  0  0
    9.8361  -16.0917   23.6260 N   0  0  0  0  0  0  0  0  0  0  0  0
   10.9507  -16.9927   23.7297 C   0  0  1  0  0  0  0  0  0  0  0  0
   12.1517  -16.4505   23.0512 C   0  0  0  0  0  0  0  0  0  0  0  0
   13.3663  -17.3055   23.0477 C   0  0  0  0  0  0  0  0  0  0  0  0
   14.5375  -16.7106   22.3058 C   0  0  0  0  0  0  0  0  0  0  0  0
   15.7118  -17.6694   22.2663 C   0  0  0  0  0  0  0  0  0  0  0  0
   16.8582  -17.0755   21.6113 N   0  0  0  0  0  0  0  0  0  0  0  0
   11.1809  -17.5013   25.1103 C   0  0  0  0  0  0  0  0  0  0  0  0
   10.8046  -16.7505   26.2127 O   0  0  0  0  0  0  0  0  0  0  0  0
   11.7142  -18.6155   25.3384 O   0  0  0  0  0  0  0  0  0  0  0  0
  2  3  1  0
  2  1  1  6
  4  2  1  0
  5  4  2  0
  6  7  1  0
  7  9  1  0
  7  8  2  0
 10  9  1  6
 10 11  1  0
 10 12  1  0
 11  4  1  0
 12 14  1  0
 13 12  2  0
 14 15  1  0
 15 16  1  1
 15 21  1  0
 17 16  1  0
 18 17  1  0
 19 18  1  0
 19 20  1  0
 21 22  1  0
 23 21  2  0
M  END
$$$$
