HQT.pdb
     RDKit          3D

 27 27  0  0  1  0  0  0  0  0999 V2000
   20.0699  -13.4557  -17.3471 N   0  0  0  0  0  0  0  0  0  0  0  0
   20.9769  -12.4288  -17.8343 C   0  0  1  0  0  0  0  0  0  0  0  0
   21.1545  -12.6759  -19.3182 C   0  0  0  0  0  0  0  0  0  0  0  0
   21.8374  -13.9704  -19.5748 C   0  0  0  0  0  0  0  0  0  0  0  0
   23.1663  -14.2074  -19.8452 C   0  0  0  0  0  0  0  0  0  0  0  0
   23.3991  -15.5182  -20.0202 N   0  0  0  0  0  0  0  0  0  0  0  0
   22.2130  -16.1274  -19.8615 C   0  0  0  0  0  0  0  0  0  0  0  0
   21.2549  -15.2049  -19.5909 N   0  0  0  0  0  0  0  0  0  0  0  0
   20.4005  -11.0964  -17.5582 C   0  0  0  0  0  0  0  0  0  0  0  0
   19.1649  -10.9004  -17.6869 O   0  0  0  0  0  0  0  0  0  0  0  0
   20.7037   -7.8177  -12.7210 N   0  0  0  0  0  0  0  0  0  0  0  0
   19.6297   -8.6621  -13.1998 C   0  0  0  0  0  0  0  0  0  0  0  0
   18.8278   -9.0494  -12.3379 O   0  0  0  0  0  0  0  0  0  0  0  0
   19.6139   -8.9573  -14.6314 C   0  0  0  0  0  0  0  0  0  0  0  0
   20.7131   -8.3373  -15.4151 C   0  0  0  0  0  0  0  0  0  0  0  0
   20.6193   -8.6992  -16.8601 C   0  0  2  0  0  0  0  0  0  0  0  0
   21.2039  -10.0014  -17.1433 N   0  0  0  0  0  0  0  0  0  0  0  0
   21.2181   -7.6547  -17.7403 C   0  0  0  0  0  0  0  0  0  0  0  0
   22.4255   -7.7879  -18.0502 O   0  0  0  0  0  0  0  0  0  0  0  0
   20.9243   -3.7222  -20.6985 C   0  0  0  0  0  0  0  0  0  0  0  0
   20.2076   -4.7452  -19.8468 C   0  0  1  0  0  0  0  0  0  0  0  0
   19.4650   -5.6001  -20.6800 O   0  0  0  0  0  0  0  0  0  0  0  0
   21.2004   -5.5543  -19.0189 C   0  0  2  0  0  0  0  0  0  0  0  0
   20.5043   -6.5519  -18.2272 N   0  0  0  0  0  0  0  0  0  0  0  0
   21.9835   -4.6372  -18.1506 C   0  0  0  0  0  0  0  0  0  0  0  0
   21.6124   -4.3924  -16.9762 O   0  0  0  0  0  0  0  0  0  0  0  0
   23.1543   -4.0090  -18.5862 O   0  0  0  0  0  0  0  0  0  0  0  0
  2  1  1  6
  2  3  1  0
  3  4  1  0
  4  8  1  0
  5  4  2  0
  5  6  1  0
  6  7  1  0
  8  7  2  0
  9 10  2  0
  9  2  1  0
 11 12  1  0
 12 13  2  0
 12 14  1  0
 14 15  1  0
 16 15  1  1
 16 17  1  0
 17  9  1  0
 18 24  1  0
 18 16  1  0
 19 18  2  0
 21 20  1  6
 21 22  1  0
 21 23  1  0
 23 24  1  1
 23 25  1  0
 25 27  1  0
 26 25  2  0
M  END
$$$$
