HQT.pdb
     RDKit          3D

 27 27  0  0  1  0  0  0  0  0999 V2000
   19.9818  -16.4014  -17.6521 N   0  0  0  0  0  0  0  0  0  0  0  0
   20.2855  -15.6021  -16.4759 C   0  0  1  0  0  0  0  0  0  0  0  0
   21.7165  -15.9196  -16.0938 C   0  0  0  0  0  0  0  0  0  0  0  0
   21.8590  -17.3301  -15.6486 C   0  0  0  0  0  0  0  0  0  0  0  0
   22.5648  -18.3549  -16.2377 C   0  0  0  0  0  0  0  0  0  0  0  0
   22.4500  -19.4912  -15.5316 N   0  0  0  0  0  0  0  0  0  0  0  0
   21.6659  -19.1951  -14.4823 C   0  0  0  0  0  0  0  0  0  0  0  0
   21.2983  -17.8898  -14.5368 N   0  0  0  0  0  0  0  0  0  0  0  0
   20.1005  -14.1714  -16.7959 C   0  0  0  0  0  0  0  0  0  0  0  0
   20.2420  -13.7616  -17.9764 O   0  0  0  0  0  0  0  0  0  0  0  0
   15.4276  -10.6700  -16.0765 N   0  0  0  0  0  0  0  0  0  0  0  0
   16.4039   -9.6503  -16.3974 C   0  0  0  0  0  0  0  0  0  0  0  0
   15.9448   -8.5220  -16.6252 O   0  0  0  0  0  0  0  0  0  0  0  0
   17.8056  -10.0644  -16.4147 C   0  0  0  0  0  0  0  0  0  0  0  0
   18.0471  -11.4871  -16.0619 C   0  0  0  0  0  0  0  0  0  0  0  0
   19.4980  -11.8273  -16.1446 C   0  0  2  0  0  0  0  0  0  0  0  0
   19.7610  -13.2167  -15.8009 N   0  0  0  0  0  0  0  0  0  0  0  0
   20.3366  -10.9156  -15.3140 C   0  0  0  0  0  0  0  0  0  0  0  0
   20.3958  -11.1509  -14.0842 O   0  0  0  0  0  0  0  0  0  0  0  0
   24.0092  -10.1640  -15.3965 C   0  0  0  0  0  0  0  0  0  0  0  0
   23.2601   -8.8532  -15.4763 C   0  0  1  0  0  0  0  0  0  0  0  0
   23.2282   -8.4210  -16.8137 O   0  0  0  0  0  0  0  0  0  0  0  0
   21.8399   -9.0056  -14.9417 C   0  0  2  0  0  0  0  0  0  0  0  0
   21.0478   -9.8280  -15.8377 N   0  0  0  0  0  0  0  0  0  0  0  0
   21.2284   -7.6620  -14.7720 C   0  0  0  0  0  0  0  0  0  0  0  0
   20.2798   -7.2912  -15.5065 O   0  0  0  0  0  0  0  0  0  0  0  0
   21.6680   -6.7546  -13.8033 O   0  0  0  0  0  0  0  0  0  0  0  0
  2  1  1  6
  2  3  1  0
  3  4  1  0
  4  8  1  0
  5  4  2  0
  5  6  1  0
  6  7  1  0
  8  7  2  0
  9 10  2  0
  9  2  1  0
 11 12  1  0
 12 13  2  0
 12 14  1  0
 14 15  1  0
 16 15  1  1
 16 17  1  0
 17  9  1  0
 18 24  1  0
 18 16  1  0
 19 18  2  0
 21 20  1  6
 21 22  1  0
 21 23  1  0
 23 24  1  6
 23 25  1  0
 25 27  1  0
 26 25  2  0
M  END
$$$$
