HQT.pdb
     RDKit          3D

 27 27  0  0  1  0  0  0  0  0999 V2000
   32.2044  -30.7331  -17.4164 N   0  0  0  0  0  0  0  0  0  0  0  0
   31.4454  -31.9643  -17.2663 C   0  0  1  0  0  0  0  0  0  0  0  0
   32.2974  -32.8999  -16.4337 C   0  0  0  0  0  0  0  0  0  0  0  0
   33.3669  -33.5308  -17.2498 C   0  0  0  0  0  0  0  0  0  0  0  0
   34.7329  -33.4337  -17.1078 C   0  0  0  0  0  0  0  0  0  0  0  0
   35.3701  -34.1533  -18.0455 N   0  0  0  0  0  0  0  0  0  0  0  0
   34.4082  -34.7162  -18.7946 C   0  0  0  0  0  0  0  0  0  0  0  0
   33.1879  -34.3501  -18.3270 N   0  0  0  0  0  0  0  0  0  0  0  0
   30.1520  -31.6653  -16.6172 C   0  0  0  0  0  0  0  0  0  0  0  0
   30.0897  -30.8250  -15.6836 O   0  0  0  0  0  0  0  0  0  0  0  0
   25.4251  -29.1822  -18.8033 N   0  0  0  0  0  0  0  0  0  0  0  0
   24.8589  -29.5910  -17.5352 C   0  0  0  0  0  0  0  0  0  0  0  0
   23.7701  -29.0757  -17.2437 O   0  0  0  0  0  0  0  0  0  0  0  0
   25.6283  -30.5562  -16.7523 C   0  0  0  0  0  0  0  0  0  0  0  0
   26.9609  -30.9017  -17.3108 C   0  0  0  0  0  0  0  0  0  0  0  0
   27.6623  -31.9057  -16.4577 C   0  0  2  0  0  0  0  0  0  0  0  0
   28.9469  -32.3033  -17.0139 N   0  0  0  0  0  0  0  0  0  0  0  0
   26.8155  -33.1037  -16.1893 C   0  0  0  0  0  0  0  0  0  0  0  0
   26.6929  -33.9396  -17.1154 O   0  0  0  0  0  0  0  0  0  0  0  0
   26.7897  -35.4027  -12.8883 C   0  0  0  0  0  0  0  0  0  0  0  0
   25.4073  -34.9757  -13.3267 C   0  0  1  0  0  0  0  0  0  0  0  0
   24.9777  -33.9066  -12.5211 O   0  0  0  0  0  0  0  0  0  0  0  0
   25.4073  -34.5583  -14.7936 C   0  0  2  0  0  0  0  0  0  0  0  0
   26.1631  -33.3320  -14.9705 N   0  0  0  0  0  0  0  0  0  0  0  0
   24.0064  -34.3923  -15.2607 C   0  0  0  0  0  0  0  0  0  0  0  0
   23.2557  -35.3886  -15.4048 O   0  0  0  0  0  0  0  0  0  0  0  0
   23.4584  -33.1411  -15.5594 O   0  0  0  0  0  0  0  0  0  0  0  0
  2  1  1  1
  2  3  1  0
  3  4  1  0
  4  8  1  0
  5  4  2  0
  5  6  1  0
  6  7  1  0
  8  7  2  0
  9 10  2  0
  9  2  1  0
 11 12  1  0
 12 13  2  0
 12 14  1  0
 14 15  1  0
 16 15  1  6
 16 17  1  0
 17  9  1  0
 18 24  1  0
 18 16  1  0
 19 18  2  0
 21 20  1  1
 21 22  1  0
 21 23  1  0
 23 24  1  1
 23 25  1  0
 25 27  1  0
 26 25  2  0
M  END
$$$$
