HQT.pdb
     RDKit          3D

 27 27  0  0  1  0  0  0  0  0999 V2000
   27.4088  -16.7941  -17.4366 N   0  0  0  0  0  0  0  0  0  0  0  0
   26.6505  -16.5592  -16.2183 C   0  0  1  0  0  0  0  0  0  0  0  0
   25.8138  -15.3200  -16.4606 C   0  0  0  0  0  0  0  0  0  0  0  0
   26.6599  -14.1013  -16.5416 C   0  0  0  0  0  0  0  0  0  0  0  0
   27.3008  -13.4254  -15.5278 C   0  0  0  0  0  0  0  0  0  0  0  0
   27.9723  -12.3636  -16.0017 N   0  0  0  0  0  0  0  0  0  0  0  0
   27.7618  -12.3567  -17.3280 C   0  0  0  0  0  0  0  0  0  0  0  0
   26.9687  -13.4026  -17.6731 N   0  0  0  0  0  0  0  0  0  0  0  0
   25.8169  -17.7437  -15.9252 C   0  0  0  0  0  0  0  0  0  0  0  0
   25.3657  -18.4499  -16.8628 O   0  0  0  0  0  0  0  0  0  0  0  0
   26.2938  -21.6738  -11.1216 N   0  0  0  0  0  0  0  0  0  0  0  0
   25.2099  -22.2386  -11.8974 C   0  0  0  0  0  0  0  0  0  0  0  0
   24.8713  -23.3894  -11.5861 O   0  0  0  0  0  0  0  0  0  0  0  0
   24.6438  -21.3944  -12.9479 C   0  0  0  0  0  0  0  0  0  0  0  0
   25.3168  -20.0832  -13.1339 C   0  0  0  0  0  0  0  0  0  0  0  0
   24.7700  -19.3565  -14.3175 C   0  0  2  0  0  0  0  0  0  0  0  0
   25.4965  -18.1267  -14.5957 N   0  0  0  0  0  0  0  0  0  0  0  0
   23.3102  -19.0822  -14.1826 C   0  0  0  0  0  0  0  0  0  0  0  0
   22.9648  -18.2022  -13.3593 O   0  0  0  0  0  0  0  0  0  0  0  0
   20.7005  -17.9486  -16.7260 C   0  0  0  0  0  0  0  0  0  0  0  0
   20.2246  -19.2131  -16.0475 C   0  0  1  0  0  0  0  0  0  0  0  0
   20.4719  -20.3102  -16.8911 O   0  0  0  0  0  0  0  0  0  0  0  0
   20.9312  -19.4113  -14.7106 C   0  0  2  0  0  0  0  0  0  0  0  0
   22.3262  -19.7520  -14.9215 N   0  0  0  0  0  0  0  0  0  0  0  0
   20.2356  -20.4714  -13.9358 C   0  0  0  0  0  0  0  0  0  0  0  0
   20.7660  -21.5974  -13.7694 O   0  0  0  0  0  0  0  0  0  0  0  0
   18.9761  -20.2762  -13.3608 O   0  0  0  0  0  0  0  0  0  0  0  0
  2  1  1  6
  2  3  1  0
  3  4  1  0
  4  8  1  0
  5  4  2  0
  5  6  1  0
  6  7  1  0
  8  7  2  0
  9 10  2  0
  9  2  1  0
 11 12  1  0
 12 13  2  0
 12 14  1  0
 14 15  1  0
 16 15  1  1
 16 17  1  0
 17  9  1  0
 18 24  1  0
 18 16  1  0
 19 18  2  0
 21 20  1  6
 21 22  1  0
 21 23  1  0
 23 24  1  6
 23 25  1  0
 25 27  1  0
 26 25  2  0
M  END
$$$$
