HQT.pdb
     RDKit          3D

 27 27  0  0  1  0  0  0  0  0999 V2000
   16.7101  -10.7887  -15.7934 N   0  0  0  0  0  0  0  0  0  0  0  0
   17.9345  -10.5355  -15.0510 C   0  0  1  0  0  0  0  0  0  0  0  0
   19.0823  -10.8303  -15.9945 C   0  0  0  0  0  0  0  0  0  0  0  0
   19.1545  -12.2770  -16.3258 C   0  0  0  0  0  0  0  0  0  0  0  0
   19.7393  -13.2987  -15.6119 C   0  0  0  0  0  0  0  0  0  0  0  0
   19.5950  -14.4753  -16.2426 N   0  0  0  0  0  0  0  0  0  0  0  0
   18.9135  -14.2085  -17.3685 C   0  0  0  0  0  0  0  0  0  0  0  0
   18.6380  -12.8812  -17.4357 N   0  0  0  0  0  0  0  0  0  0  0  0
   17.9436   -9.1327  -14.5866 C   0  0  0  0  0  0  0  0  0  0  0  0
   17.4619   -8.2222  -15.3081 O   0  0  0  0  0  0  0  0  0  0  0  0
   16.4402   -7.1217   -9.1250 N   0  0  0  0  0  0  0  0  0  0  0  0
   15.6574   -7.5241  -10.2743 C   0  0  0  0  0  0  0  0  0  0  0  0
   14.4768   -7.8202  -10.0413 O   0  0  0  0  0  0  0  0  0  0  0  0
   16.3425   -7.5340  -11.5656 C   0  0  0  0  0  0  0  0  0  0  0  0
   17.8041   -7.2750  -11.5057 C   0  0  0  0  0  0  0  0  0  0  0  0
   18.4298   -7.3859  -12.8563 C   0  0  2  0  0  0  0  0  0  0  0  0
   18.4870   -8.7612  -13.3282 N   0  0  0  0  0  0  0  0  0  0  0  0
   19.7833   -6.7612  -12.9008 C   0  0  0  0  0  0  0  0  0  0  0  0
   20.6817   -7.2868  -12.2022 O   0  0  0  0  0  0  0  0  0  0  0  0
   22.4254   -6.6942  -15.2745 C   0  0  0  0  0  0  0  0  0  0  0  0
   22.1143   -5.2430  -14.9868 C   0  0  1  0  0  0  0  0  0  0  0  0
   21.2817   -4.7399  -16.0017 O   0  0  0  0  0  0  0  0  0  0  0  0
   21.4350   -5.0917  -13.6298 C   0  0  2  0  0  0  0  0  0  0  0  0
   20.0895   -5.6339  -13.6745 N   0  0  0  0  0  0  0  0  0  0  0  0
   21.4183   -3.6572  -13.2422 C   0  0  0  0  0  0  0  0  0  0  0  0
   20.3456   -3.0044  -13.2440 O   0  0  0  0  0  0  0  0  0  0  0  0
   22.5746   -2.9694  -12.8615 O   0  0  0  0  0  0  0  0  0  0  0  0
  2  1  1  6
  2  3  1  0
  3  4  1  0
  4  8  1  0
  5  4  2  0
  5  6  1  0
  6  7  1  0
  8  7  2  0
  9 10  2  0
  9  2  1  0
 11 12  1  0
 12 13  2  0
 12 14  1  0
 14 15  1  0
 16 15  1  1
 16 17  1  0
 17  9  1  0
 18 24  1  0
 18 16  1  0
 19 18  2  0
 21 20  1  6
 21 22  1  0
 21 23  1  0
 23 24  1  6
 23 25  1  0
 25 27  1  0
 26 25  2  0
M  END
$$$$
