HQT.pdb
     RDKit          3D

 27 27  0  0  1  0  0  0  0  0999 V2000
   19.7407  -18.9541  -14.5456 N   0  0  0  0  0  0  0  0  0  0  0  0
   20.6051  -19.8764  -15.2644 C   0  0  1  0  0  0  0  0  0  0  0  0
   20.3589  -19.6402  -16.7402 C   0  0  0  0  0  0  0  0  0  0  0  0
   18.9982  -20.0825  -17.1410 C   0  0  0  0  0  0  0  0  0  0  0  0
   18.6107  -21.2717  -17.7162 C   0  0  0  0  0  0  0  0  0  0  0  0
   17.2855  -21.2972  -17.9311 N   0  0  0  0  0  0  0  0  0  0  0  0
   16.8183  -20.1175  -17.4914 C   0  0  0  0  0  0  0  0  0  0  0  0
   17.8421  -19.3684  -17.0091 N   0  0  0  0  0  0  0  0  0  0  0  0
   22.0114  -19.6224  -14.8883 C   0  0  0  0  0  0  0  0  0  0  0  0
   22.4907  -18.4626  -14.9701 O   0  0  0  0  0  0  0  0  0  0  0  0
   25.2532  -21.0360  -10.0112 N   0  0  0  0  0  0  0  0  0  0  0  0
   26.3147  -20.6121  -10.8996 C   0  0  0  0  0  0  0  0  0  0  0  0
   27.4328  -20.4911  -10.3789 O   0  0  0  0  0  0  0  0  0  0  0  0
   25.9497  -20.3787  -12.2957 C   0  0  0  0  0  0  0  0  0  0  0  0
   24.5252  -20.6396  -12.6268 C   0  0  0  0  0  0  0  0  0  0  0  0
   24.2519  -20.3962  -14.0739 C   0  0  2  0  0  0  0  0  0  0  0  0
   22.8649  -20.6594  -14.4268 N   0  0  0  0  0  0  0  0  0  0  0  0
   25.1718  -21.1700  -14.9567 C   0  0  0  0  0  0  0  0  0  0  0  0
   24.9827  -22.4063  -15.0405 O   0  0  0  0  0  0  0  0  0  0  0  0
   26.8145  -19.8382  -18.4949 C   0  0  0  0  0  0  0  0  0  0  0  0
   27.7713  -20.5566  -17.5707 C   0  0  1  0  0  0  0  0  0  0  0  0
   28.5579  -19.6083  -16.8935 O   0  0  0  0  0  0  0  0  0  0  0  0
   27.0129  -21.4195  -16.5676 C   0  0  2  0  0  0  0  0  0  0  0  0
   26.2184  -20.5870  -15.6831 N   0  0  0  0  0  0  0  0  0  0  0  0
   27.9778  -22.2457  -15.7967 C   0  0  0  0  0  0  0  0  0  0  0  0
   28.6280  -23.1628  -16.3565 O   0  0  0  0  0  0  0  0  0  0  0  0
   28.2099  -22.0506  -14.4318 O   0  0  0  0  0  0  0  0  0  0  0  0
  2  1  1  1
  2  3  1  0
  3  4  1  0
  4  8  1  0
  5  4  2  0
  5  6  1  0
  6  7  1  0
  8  7  2  0
  9 10  2  0
  9  2  1  0
 11 12  1  0
 12 13  2  0
 12 14  1  0
 14 15  1  0
 16 15  1  1
 16 17  1  0
 17  9  1  0
 18 24  1  0
 18 16  1  0
 19 18  2  0
 21 20  1  6
 21 22  1  0
 21 23  1  0
 23 24  1  1
 23 25  1  0
 25 27  1  0
 26 25  2  0
M  END
$$$$
