HQT.pdb
     RDKit          3D

 27 27  0  0  1  0  0  0  0  0999 V2000
   21.3602  -11.9210  -17.0328 N   0  0  0  0  0  0  0  0  0  0  0  0
   20.5125  -11.6995  -18.1933 C   0  0  1  0  0  0  0  0  0  0  0  0
   19.8012  -13.0086  -18.4668 C   0  0  0  0  0  0  0  0  0  0  0  0
   20.7555  -14.0673  -18.8865 C   0  0  0  0  0  0  0  0  0  0  0  0
   22.1216  -13.9884  -19.0382 C   0  0  0  0  0  0  0  0  0  0  0  0
   22.6341  -15.1643  -19.4350 N   0  0  0  0  0  0  0  0  0  0  0  0
   21.5915  -16.0041  -19.5390 C   0  0  0  0  0  0  0  0  0  0  0  0
   20.4449  -15.3566  -19.2105 N   0  0  0  0  0  0  0  0  0  0  0  0
   19.5654  -10.6025  -17.9047 C   0  0  0  0  0  0  0  0  0  0  0  0
   18.6898  -10.2816  -18.7484 O   0  0  0  0  0  0  0  0  0  0  0  0
   16.9584   -9.4162  -12.5215 N   0  0  0  0  0  0  0  0  0  0  0  0
   16.4449  -10.2429  -13.5932 C   0  0  0  0  0  0  0  0  0  0  0  0
   15.5340  -11.0223  -13.2791 O   0  0  0  0  0  0  0  0  0  0  0  0
   17.0531  -10.0644  -14.9104 C   0  0  0  0  0  0  0  0  0  0  0  0
   18.0730   -8.9874  -14.9930 C   0  0  0  0  0  0  0  0  0  0  0  0
   18.6128   -8.8575  -16.3785 C   0  0  2  0  0  0  0  0  0  0  0  0
   19.6043   -9.8779  -16.6839 N   0  0  0  0  0  0  0  0  0  0  0  0
   19.1649   -7.4971  -16.6405 C   0  0  0  0  0  0  0  0  0  0  0  0
   20.3214   -7.2560  -16.2212 O   0  0  0  0  0  0  0  0  0  0  0  0
   17.2915   -4.6571  -19.2107 C   0  0  0  0  0  0  0  0  0  0  0  0
   18.7877   -4.7777  -19.0304 C   0  0  1  0  0  0  0  0  0  0  0  0
   19.3850   -3.5310  -19.2866 O   0  0  0  0  0  0  0  0  0  0  0  0
   19.1291   -5.2410  -17.6180 C   0  0  2  0  0  0  0  0  0  0  0  0
   18.4614   -6.4952  -17.3219 N   0  0  0  0  0  0  0  0  0  0  0  0
   18.7400   -4.1879  -16.6444 C   0  0  0  0  0  0  0  0  0  0  0  0
   17.8240   -4.3922  -15.8101 O   0  0  0  0  0  0  0  0  0  0  0  0
   19.3613   -2.9359  -16.6053 O   0  0  0  0  0  0  0  0  0  0  0  0
  2  1  1  1
  2  3  1  0
  3  4  1  0
  4  8  1  0
  5  4  2  0
  5  6  1  0
  6  7  1  0
  8  7  2  0
  9 10  2  0
  9  2  1  0
 11 12  1  0
 12 13  2  0
 12 14  1  0
 14 15  1  0
 16 15  1  1
 16 17  1  0
 17  9  1  0
 18 24  1  0
 18 16  1  0
 19 18  2  0
 21 20  1  1
 21 22  1  0
 21 23  1  0
 23 24  1  1
 23 25  1  0
 25 27  1  0
 26 25  2  0
M  END
$$$$
