HQT.pdb
     RDKit          3D

 27 27  0  0  1  0  0  0  0  0999 V2000
   20.4097  -14.9479  -19.0169 N   0  0  0  0  0  0  0  0  0  0  0  0
   20.6549  -13.5680  -19.4046 C   0  0  1  0  0  0  0  0  0  0  0  0
   19.3621  -13.0484  -19.9989 C   0  0  0  0  0  0  0  0  0  0  0  0
   19.0652  -13.6965  -21.3026 C   0  0  0  0  0  0  0  0  0  0  0  0
   19.9426  -14.1466  -22.2634 C   0  0  0  0  0  0  0  0  0  0  0  0
   19.2870  -14.6762  -23.3087 N   0  0  0  0  0  0  0  0  0  0  0  0
   17.9805  -14.5660  -23.0183 C   0  0  0  0  0  0  0  0  0  0  0  0
   17.8272  -13.9746  -21.8064 N   0  0  0  0  0  0  0  0  0  0  0  0
   21.0712  -12.7932  -18.2172 C   0  0  0  0  0  0  0  0  0  0  0  0
   20.6097  -13.0748  -17.0817 O   0  0  0  0  0  0  0  0  0  0  0  0
   26.6276  -11.3545  -16.3735 N   0  0  0  0  0  0  0  0  0  0  0  0
   25.8440  -10.5682  -15.4443 C   0  0  0  0  0  0  0  0  0  0  0  0
   26.4701  -10.0864  -14.4895 O   0  0  0  0  0  0  0  0  0  0  0  0
   24.4182  -10.4332  -15.7368 C   0  0  0  0  0  0  0  0  0  0  0  0
   23.9501  -11.1636  -16.9427 C   0  0  0  0  0  0  0  0  0  0  0  0
   22.4737  -11.0308  -17.1176 C   0  0  2  0  0  0  0  0  0  0  0  0
   21.9937  -11.7172  -18.3076 N   0  0  0  0  0  0  0  0  0  0  0  0
   22.0351   -9.6054  -17.1236 C   0  0  0  0  0  0  0  0  0  0  0  0
   22.3946   -8.8978  -18.0939 O   0  0  0  0  0  0  0  0  0  0  0  0
   19.5713   -7.8728  -14.0967 C   0  0  0  0  0  0  0  0  0  0  0  0
   19.5382   -7.3914  -15.5295 C   0  0  1  0  0  0  0  0  0  0  0  0
   19.2286   -6.0201  -15.5482 O   0  0  0  0  0  0  0  0  0  0  0  0
   20.8785   -7.6345  -16.2155 C   0  0  2  0  0  0  0  0  0  0  0  0
   21.2535   -9.0327  -16.1115 N   0  0  0  0  0  0  0  0  0  0  0  0
   21.9125   -6.7592  -15.6050 C   0  0  0  0  0  0  0  0  0  0  0  0
   22.8079   -7.2413  -14.8683 O   0  0  0  0  0  0  0  0  0  0  0  0
   21.9439   -5.3770  -15.8140 O   0  0  0  0  0  0  0  0  0  0  0  0
  2  1  1  1
  2  3  1  0
  3  4  1  0
  4  8  1  0
  5  4  2  0
  5  6  1  0
  6  7  1  0
  8  7  2  0
  9 10  2  0
  9  2  1  0
 11 12  1  0
 12 13  2  0
 12 14  1  0
 14 15  1  0
 16 15  1  6
 16 17  1  0
 17  9  1  0
 18 24  1  0
 18 16  1  0
 19 18  2  0
 21 20  1  1
 21 22  1  0
 21 23  1  0
 23 24  1  1
 23 25  1  0
 25 27  1  0
 26 25  2  0
M  END
$$$$
