RCM.pdb
     RDKit          3D

 26 25  0  0  1  0  0  0  0  0999 V2000
    9.5461  -13.4639   15.3207 N   0  0  0  0  0  0  0  0  0  0  0  0
    8.3354  -14.1817   15.1499 C   0  0  0  0  0  0  0  0  0  0  0  0
    7.2392  -13.6179   14.7116 N   0  0  0  0  0  0  0  0  0  0  0  0
    8.2159  -15.5681   15.4394 N   0  0  0  0  0  0  0  0  0  0  0  0
    8.9308  -16.1671   16.5472 C   0  0  0  0  0  0  0  0  0  0  0  0
    8.6821  -15.2771   17.7456 C   0  0  0  0  0  0  0  0  0  0  0  0
    9.4058  -15.8008   18.9249 C   0  0  0  0  0  0  0  0  0  0  0  0
    8.4340  -16.2866   19.9721 C   0  0  2  0  0  0  0  0  0  0  0  0
    7.0760  -15.8989   19.6604 N   0  0  0  0  0  0  0  0  0  0  0  0
    8.7969  -15.6263   21.2683 C   0  0  0  0  0  0  0  0  0  0  0  0
    9.9119  -15.0027   21.3389 O   0  0  0  0  0  0  0  0  0  0  0  0
    6.4079  -14.2649   14.6047 N   0  0  0  0  0  0  0  0  0  0  0  0
    7.9504  -15.6737   22.3978 C   0  0  1  0  0  0  0  0  0  0  0  0
    8.4186  -15.0868   23.6387 C   0  0  0  0  0  0  0  0  0  0  0  0
    7.1920  -14.7564   24.4681 S   0  0  0  0  0  0  0  0  0  0  0  0
    6.3535  -13.2648   23.9339 C   0  0  0  0  0  0  0  0  0  0  0  0
    9.3334  -16.0099   24.3630 O   0  0  0  0  0  0  0  0  0  0  0  0
    9.5141  -17.1918   23.9314 C   0  0  0  0  0  0  0  0  0  0  0  0
   10.1302  -13.7411   30.9469 S   0  0  0  0  0  0  0  0  0  0  0  0
   11.2458  -14.5265   29.7849 C   0  0  0  0  0  0  0  0  0  0  0  0
   10.3792  -15.2182   28.3373 C   0  0  0  0  0  0  0  0  0  0  0  0
   11.4052  -15.8925   27.4958 C   0  0  1  0  0  0  0  0  0  0  0  0
   10.8824  -16.5787   26.2698 N   0  0  0  0  0  0  0  0  0  0  0  0
   10.0265  -15.6395   25.5265 C   0  0  0  0  0  0  0  0  0  0  0  0
   10.1278  -17.8090   26.5152 O   0  0  0  0  0  0  0  0  0  0  0  0
   10.7300  -19.0263   26.8024 O   0  0  0  0  0  0  0  0  0  0  0  0
  2  1  1  0
  3  2  2  0
  4  2  1  0
  5  4  1  0
  6  5  1  0
  7  6  1  0
  8  7  1  0
  8  9  1  6
 10  8  1  0
 10 11  2  0
 12 10  1  0
 13 12  1  0
 13 14  1  6
 15 14  1  0
 16 13  1  0
 17 16  2  0
 19 18  1  0
 20 21  1  0
 20 19  1  0
 22 21  1  6
 22 23  1  0
 22 24  1  0
 23 16  1  0
 24 26  2  0
 24 25  1  0
M  END
$$$$
