RCM.pdb
     RDKit          3D

 26 25  0  0  1  0  0  0  0  0999 V2000
    8.6950  -12.4558   18.0371 N   0  0  0  0  0  0  0  0  0  0  0  0
    9.5805  -13.1488   18.9008 C   0  0  0  0  0  0  0  0  0  0  0  0
   10.8018  -13.4622   18.5518 N   0  0  0  0  0  0  0  0  0  0  0  0
    9.2138  -13.5566   20.2121 N   0  0  0  0  0  0  0  0  0  0  0  0
    7.8616  -13.3832   20.7006 C   0  0  0  0  0  0  0  0  0  0  0  0
    7.0646  -14.5566   20.1734 C   0  0  0  0  0  0  0  0  0  0  0  0
    6.6062  -15.4036   21.2964 C   0  0  0  0  0  0  0  0  0  0  0  0
    7.2438  -16.7695   21.2264 C   0  0  2  0  0  0  0  0  0  0  0  0
    6.2601  -17.8069   21.0078 N   0  0  0  0  0  0  0  0  0  0  0  0
    7.8843  -17.0392   22.5550 C   0  0  0  0  0  0  0  0  0  0  0  0
    7.1385  -17.4286   23.5188 O   0  0  0  0  0  0  0  0  0  0  0  0
   11.3755  -13.9492   19.2968 N   0  0  0  0  0  0  0  0  0  0  0  0
    9.2713  -16.8774   22.7664 C   0  0  2  0  0  0  0  0  0  0  0  0
    9.8205  -17.2351   24.0601 C   0  0  0  0  0  0  0  0  0  0  0  0
   11.1705  -17.8806   23.8102 S   0  0  0  0  0  0  0  0  0  0  0  0
   12.3206  -16.8112   22.9458 C   0  0  0  0  0  0  0  0  0  0  0  0
    9.9414  -16.0450   24.9449 O   0  0  0  0  0  0  0  0  0  0  0  0
    9.9360  -14.8776   24.4420 C   0  0  0  0  0  0  0  0  0  0  0  0
    5.8126  -13.2969   26.7999 S   0  0  0  0  0  0  0  0  0  0  0  0
    7.0794  -12.1974   27.4308 C   0  0  0  0  0  0  0  0  0  0  0  0
    8.5658  -13.0895   27.9960 C   0  0  0  0  0  0  0  0  0  0  0  0
    8.7798  -14.2216   27.0537 C   0  0  1  0  0  0  0  0  0  0  0  0
   10.0752  -14.9583   27.2164 N   0  0  0  0  0  0  0  0  0  0  0  0
   10.0639  -16.1413   26.3403 C   0  0  0  0  0  0  0  0  0  0  0  0
   10.3837  -15.3874   28.5817 O   0  0  0  0  0  0  0  0  0  0  0  0
   10.7979  -14.5143   29.5783 O   0  0  0  0  0  0  0  0  0  0  0  0
  2  1  1  0
  3  2  2  0
  4  2  1  0
  5  4  1  0
  6  5  1  0
  7  6  1  0
  8  7  1  0
  8  9  1  1
 10  8  1  0
 10 11  2  0
 12 10  1  0
 13 12  1  0
 13 14  1  6
 15 14  1  0
 16 13  1  0
 17 16  2  0
 19 18  1  0
 20 21  1  0
 20 19  1  0
 22 21  1  6
 22 23  1  0
 22 24  1  0
 23 16  1  0
 24 26  2  0
 24 25  1  0
M  END
$$$$
