RCM.pdb
     RDKit          3D

 26 25  0  0  1  0  0  0  0  0999 V2000
    9.0785  -13.6442   13.4714 N   0  0  0  0  0  0  0  0  0  0  0  0
    8.4081  -13.8453   14.7045 C   0  0  0  0  0  0  0  0  0  0  0  0
    8.6018  -13.0752   15.7441 N   0  0  0  0  0  0  0  0  0  0  0  0
    7.4735  -14.8964   14.9092 N   0  0  0  0  0  0  0  0  0  0  0  0
    6.8245  -15.0837   16.1901 C   0  0  0  0  0  0  0  0  0  0  0  0
    7.9040  -15.5261   17.1539 C   0  0  0  0  0  0  0  0  0  0  0  0
    7.3125  -15.8192   18.4779 C   0  0  0  0  0  0  0  0  0  0  0  0
    8.3486  -16.4066   19.4044 C   0  0  2  0  0  0  0  0  0  0  0  0
    8.3464  -17.8522   19.3593 N   0  0  0  0  0  0  0  0  0  0  0  0
    7.9850  -16.0065   20.8029 C   0  0  0  0  0  0  0  0  0  0  0  0
    8.0528  -14.7676   21.1152 O   0  0  0  0  0  0  0  0  0  0  0  0
    8.1127  -13.3806   16.6322 N   0  0  0  0  0  0  0  0  0  0  0  0
    7.5744  -16.9494   21.7708 C   0  0  1  0  0  0  0  0  0  0  0  0
    7.2389  -16.4757   23.0998 C   0  0  0  0  0  0  0  0  0  0  0  0
    6.2089  -17.4329   23.6693 S   0  0  0  0  0  0  0  0  0  0  0  0
    6.8933  -19.0268   24.1215 C   0  0  0  0  0  0  0  0  0  0  0  0
    8.4455  -16.3952   23.9666 O   0  0  0  0  0  0  0  0  0  0  0  0
    9.5377  -16.9209   23.5837 C   0  0  0  0  0  0  0  0  0  0  0  0
   11.1098  -13.3712   30.8549 S   0  0  0  0  0  0  0  0  0  0  0  0
    9.9036  -13.5773   29.5455 C   0  0  0  0  0  0  0  0  0  0  0  0
   10.4260  -14.7971   28.2950 C   0  0  0  0  0  0  0  0  0  0  0  0
    9.3804  -14.8111   27.2357 C   0  0  1  0  0  0  0  0  0  0  0  0
    9.6059  -15.7883   26.1215 N   0  0  0  0  0  0  0  0  0  0  0  0
    8.4458  -15.7545   25.2160 C   0  0  0  0  0  0  0  0  0  0  0  0
    9.8353  -17.1723   26.5401 O   0  0  0  0  0  0  0  0  0  0  0  0
    8.8132  -18.0979   26.7007 O   0  0  0  0  0  0  0  0  0  0  0  0
  2  1  1  0
  3  2  2  0
  4  2  1  0
  5  4  1  0
  6  5  1  0
  7  6  1  0
  8  7  1  0
  8  9  1  1
 10  8  1  0
 10 11  2  0
 12 10  1  0
 13 12  1  0
 13 14  1  1
 15 14  1  0
 16 13  1  0
 17 16  2  0
 19 18  1  0
 20 21  1  0
 20 19  1  0
 22 21  1  6
 22 23  1  0
 22 24  1  0
 23 16  1  0
 24 26  2  0
 24 25  1  0
M  END
$$$$
