RCM.pdb
     RDKit          3D

 26 25  0  0  1  0  0  0  0  0999 V2000
    8.3924  -13.0617   15.6827 N   0  0  0  0  0  0  0  0  0  0  0  0
    8.0897  -13.6716   16.9263 C   0  0  0  0  0  0  0  0  0  0  0  0
    8.4284  -13.1386   18.0721 N   0  0  0  0  0  0  0  0  0  0  0  0
    7.3947  -14.9073   17.0279 N   0  0  0  0  0  0  0  0  0  0  0  0
    8.0253  -16.0771   17.6030 C   0  0  0  0  0  0  0  0  0  0  0  0
    7.1766  -16.4785   18.7899 C   0  0  0  0  0  0  0  0  0  0  0  0
    7.7337  -17.6936   19.4238 C   0  0  0  0  0  0  0  0  0  0  0  0
    8.8967  -17.3406   20.3181 C   0  0  2  0  0  0  0  0  0  0  0  0
    9.8650  -18.4131   20.3824 N   0  0  0  0  0  0  0  0  0  0  0  0
    8.3596  -17.1451   21.7042 C   0  0  0  0  0  0  0  0  0  0  0  0
    7.5347  -16.1879   21.9045 O   0  0  0  0  0  0  0  0  0  0  0  0
    8.1718  -13.7048   18.9292 N   0  0  0  0  0  0  0  0  0  0  0  0
    8.7355  -17.9798   22.7797 C   0  0  2  0  0  0  0  0  0  0  0  0
    8.1266  -17.7542   24.0765 C   0  0  0  0  0  0  0  0  0  0  0  0
    8.2225  -19.0566   24.8485 S   0  0  0  0  0  0  0  0  0  0  0  0
    9.9037  -19.5055   25.2791 C   0  0  0  0  0  0  0  0  0  0  0  0
    8.7949  -16.6404   24.8021 O   0  0  0  0  0  0  0  0  0  0  0  0
   10.0101  -16.3612   24.5548 C   0  0  0  0  0  0  0  0  0  0  0  0
    7.2162  -10.6300   27.0698 S   0  0  0  0  0  0  0  0  0  0  0  0
    6.2724  -11.7742   26.0640 C   0  0  0  0  0  0  0  0  0  0  0  0
    7.2317  -13.2518   25.5935 C   0  0  0  0  0  0  0  0  0  0  0  0
    7.9963  -13.6772   26.7976 C   0  0  2  0  0  0  0  0  0  0  0  0
    8.8561  -14.8920   26.6181 N   0  0  0  0  0  0  0  0  0  0  0  0
    8.1420  -15.8600   25.7696 C   0  0  0  0  0  0  0  0  0  0  0  0
    9.2607  -15.5607   27.8560 O   0  0  0  0  0  0  0  0  0  0  0  0
   10.1553  -15.0076   28.7620 O   0  0  0  0  0  0  0  0  0  0  0  0
  2  1  1  0
  3  2  2  0
  4  2  1  0
  5  4  1  0
  6  5  1  0
  7  6  1  0
  8  7  1  0
  8  9  1  1
 10  8  1  0
 10 11  2  0
 12 10  1  0
 13 12  1  0
 13 14  1  6
 15 14  1  0
 16 13  1  0
 17 16  2  0
 19 18  1  0
 20 21  1  0
 20 19  1  0
 22 21  1  6
 22 23  1  0
 22 24  1  0
 23 16  1  0
 24 26  2  0
 24 25  1  0
M  END
$$$$
