RCM.pdb
     RDKit          3D

 26 25  0  0  1  0  0  0  0  0999 V2000
    9.1447  -15.6878   16.1879 N   0  0  0  0  0  0  0  0  0  0  0  0
    8.7592  -14.3458   15.9419 C   0  0  0  0  0  0  0  0  0  0  0  0
    8.5149  -13.8934   14.7389 N   0  0  0  0  0  0  0  0  0  0  0  0
    8.6066  -13.3869   16.9800 N   0  0  0  0  0  0  0  0  0  0  0  0
    8.8379  -13.7386   18.3655 C   0  0  0  0  0  0  0  0  0  0  0  0
    7.5071  -13.5898   19.0706 C   0  0  0  0  0  0  0  0  0  0  0  0
    7.5499  -14.2709   20.3832 C   0  0  0  0  0  0  0  0  0  0  0  0
    7.9213  -15.7238   20.2160 C   0  0  2  0  0  0  0  0  0  0  0  0
    6.8132  -16.5027   19.7086 N   0  0  0  0  0  0  0  0  0  0  0  0
    8.2583  -16.2646   21.5731 C   0  0  0  0  0  0  0  0  0  0  0  0
    7.3073  -16.4264   22.4137 O   0  0  0  0  0  0  0  0  0  0  0  0
    8.2715  -12.8644   14.6822 N   0  0  0  0  0  0  0  0  0  0  0  0
    9.5806  -16.5963   21.9420 C   0  0  2  0  0  0  0  0  0  0  0  0
    9.8171  -17.1186   23.2741 C   0  0  0  0  0  0  0  0  0  0  0  0
   11.0772  -17.9608   23.2073 S   0  0  0  0  0  0  0  0  0  0  0  0
   11.6330  -18.5369   24.8112 C   0  0  0  0  0  0  0  0  0  0  0  0
    9.9475  -16.0216   24.2707 O   0  0  0  0  0  0  0  0  0  0  0  0
   10.5802  -14.9615   23.9679 C   0  0  0  0  0  0  0  0  0  0  0  0
    5.6118  -11.7915   27.4923 S   0  0  0  0  0  0  0  0  0  0  0  0
    7.2855  -11.6832   26.8608 C   0  0  0  0  0  0  0  0  0  0  0  0
    8.3620  -13.0123   27.4927 C   0  0  0  0  0  0  0  0  0  0  0  0
    8.4269  -14.0600   26.4374 C   0  0  1  0  0  0  0  0  0  0  0  0
    9.5707  -15.0219   26.5548 N   0  0  0  0  0  0  0  0  0  0  0  0
    9.3965  -16.0930   25.5601 C   0  0  0  0  0  0  0  0  0  0  0  0
    9.7437  -15.6301   27.8752 O   0  0  0  0  0  0  0  0  0  0  0  0
   10.1781  -14.9224   28.9877 O   0  0  0  0  0  0  0  0  0  0  0  0
  2  1  1  0
  3  2  2  0
  4  2  1  0
  5  4  1  0
  6  5  1  0
  7  6  1  0
  8  7  1  0
  8  9  1  1
 10  8  1  0
 10 11  2  0
 12 10  1  0
 13 12  1  0
 13 14  1  6
 15 14  1  0
 16 13  1  0
 17 16  2  0
 19 18  1  0
 20 21  1  0
 20 19  1  0
 22 21  1  6
 22 23  1  0
 22 24  1  0
 23 16  1  0
 24 26  2  0
 24 25  1  0
M  END
$$$$
