RCM.pdb
     RDKit          3D

 26 25  0  0  1  0  0  0  0  0999 V2000
    8.9314  -15.3413   16.0284 N   0  0  0  0  0  0  0  0  0  0  0  0
    8.2147  -14.1329   15.8380 C   0  0  0  0  0  0  0  0  0  0  0  0
    7.6258  -13.8349   14.7084 N   0  0  0  0  0  0  0  0  0  0  0  0
    8.0777  -13.1513   16.8568 N   0  0  0  0  0  0  0  0  0  0  0  0
    8.2872  -13.4831   18.2507 C   0  0  0  0  0  0  0  0  0  0  0  0
    7.4708  -14.7286   18.5194 C   0  0  0  0  0  0  0  0  0  0  0  0
    7.9366  -15.3818   19.7624 C   0  0  0  0  0  0  0  0  0  0  0  0
    6.8055  -15.5054   20.7536 C   0  0  2  0  0  0  0  0  0  0  0  0
    5.6797  -14.6758   20.3846 N   0  0  0  0  0  0  0  0  0  0  0  0
    7.3063  -15.0094   22.0769 C   0  0  0  0  0  0  0  0  0  0  0  0
    7.3665  -13.7455   22.2665 O   0  0  0  0  0  0  0  0  0  0  0  0
    7.1375  -12.8957   14.6856 N   0  0  0  0  0  0  0  0  0  0  0  0
    7.7071  -15.8899   23.1058 C   0  0  1  0  0  0  0  0  0  0  0  0
    8.1040  -15.3277   24.3824 C   0  0  0  0  0  0  0  0  0  0  0  0
    6.8639  -15.2794   25.2550 S   0  0  0  0  0  0  0  0  0  0  0  0
    6.7359  -16.6647   26.3855 C   0  0  0  0  0  0  0  0  0  0  0  0
    9.1845  -16.1310   25.0155 O   0  0  0  0  0  0  0  0  0  0  0  0
    9.5667  -17.2167   24.4760 C   0  0  0  0  0  0  0  0  0  0  0  0
   10.1791  -13.6446   30.2911 S   0  0  0  0  0  0  0  0  0  0  0  0
   11.7221  -13.5447   29.3851 C   0  0  0  0  0  0  0  0  0  0  0  0
   11.6308  -14.3497   27.7515 C   0  0  0  0  0  0  0  0  0  0  0  0
   11.4492  -15.8071   27.9929 C   0  0  2  0  0  0  0  0  0  0  0  0
   10.8496  -16.5781   26.8556 N   0  0  0  0  0  0  0  0  0  0  0  0
    9.8226  -15.7474   26.2059 C   0  0  0  0  0  0  0  0  0  0  0  0
   10.2533  -17.8651   27.2177 O   0  0  0  0  0  0  0  0  0  0  0  0
   10.9825  -19.0429   27.3077 O   0  0  0  0  0  0  0  0  0  0  0  0
  2  1  1  0
  3  2  2  0
  4  2  1  0
  5  4  1  0
  6  5  1  0
  7  6  1  0
  8  7  1  0
  8  9  1  6
 10  8  1  0
 10 11  2  0
 12 10  1  0
 13 12  1  0
 13 14  1  1
 15 14  1  0
 16 13  1  0
 17 16  2  0
 19 18  1  0
 20 21  1  0
 20 19  1  0
 22 21  1  6
 22 23  1  0
 22 24  1  0
 23 16  1  0
 24 26  2  0
 24 25  1  0
M  END
$$$$
