RCM.pdb
     RDKit          3D

 26 25  0  0  1  0  0  0  0  0999 V2000
    6.6202  -13.1614   18.4325 N   0  0  0  0  0  0  0  0  0  0  0  0
    7.5718  -13.6334   17.4934 C   0  0  0  0  0  0  0  0  0  0  0  0
    8.0914  -12.8644   16.5713 N   0  0  0  0  0  0  0  0  0  0  0  0
    8.0372  -14.9764   17.4790 N   0  0  0  0  0  0  0  0  0  0  0  0
    7.2483  -16.0494   18.0474 C   0  0  0  0  0  0  0  0  0  0  0  0
    8.1950  -16.8714   18.8948 C   0  0  0  0  0  0  0  0  0  0  0  0
    8.4864  -16.1637   20.1609 C   0  0  0  0  0  0  0  0  0  0  0  0
    9.3703  -17.0051   21.0486 C   0  0  2  0  0  0  0  0  0  0  0  0
    9.4389  -18.3747   20.5889 N   0  0  0  0  0  0  0  0  0  0  0  0
    8.7520  -17.0266   22.4143 C   0  0  0  0  0  0  0  0  0  0  0  0
    8.4166  -15.9117   22.9448 O   0  0  0  0  0  0  0  0  0  0  0  0
    8.7183  -13.3543   15.8726 N   0  0  0  0  0  0  0  0  0  0  0  0
    8.5327  -18.2300   23.1202 C   0  0  1  0  0  0  0  0  0  0  0  0
    8.1393  -18.1530   24.5140 C   0  0  0  0  0  0  0  0  0  0  0  0
    7.4506  -19.4604   24.8575 S   0  0  0  0  0  0  0  0  0  0  0  0
    7.0740  -19.6284   26.6020 C   0  0  0  0  0  0  0  0  0  0  0  0
    9.3128  -17.9077   25.3951 O   0  0  0  0  0  0  0  0  0  0  0  0
   10.4310  -18.4500   25.1279 C   0  0  0  0  0  0  0  0  0  0  0  0
    9.3249  -12.8136   29.1780 S   0  0  0  0  0  0  0  0  0  0  0  0
   11.0432  -13.2886   29.3618 C   0  0  0  0  0  0  0  0  0  0  0  0
   11.3395  -15.0346   28.9278 C   0  0  0  0  0  0  0  0  0  0  0  0
   10.2947  -15.4222   27.9411 C   0  0  1  0  0  0  0  0  0  0  0  0
   10.4362  -16.7972   27.3606 N   0  0  0  0  0  0  0  0  0  0  0  0
    9.2533  -17.0896   26.5346 C   0  0  0  0  0  0  0  0  0  0  0  0
   10.6053  -17.8743   28.3375 O   0  0  0  0  0  0  0  0  0  0  0  0
    9.5630  -18.6873   28.7616 O   0  0  0  0  0  0  0  0  0  0  0  0
  2  1  1  0
  3  2  2  0
  4  2  1  0
  5  4  1  0
  6  5  1  0
  7  6  1  0
  8  7  1  0
  8  9  1  6
 10  8  1  0
 10 11  2  0
 12 10  1  0
 13 12  1  0
 13 14  1  1
 15 14  1  0
 16 13  1  0
 17 16  2  0
 19 18  1  0
 20 21  1  0
 20 19  1  0
 22 21  1  6
 22 23  1  0
 22 24  1  0
 23 16  1  0
 24 26  2  0
 24 25  1  0
M  END
$$$$
