TWG.pdb
     RDKit          3D

 26 27  0  0  1  0  0  0  0  0999 V2000
    9.3797  -17.2959   20.1215 C   0  0  0  0  0  0  0  0  0  0  0  0
    8.5213  -16.0600   19.9160 C   0  0  1  0  0  0  0  0  0  0  0  0
    7.7685  -16.2295   18.7677 O   0  0  0  0  0  0  0  0  0  0  0  0
    7.7045  -15.7309   21.1190 C   0  0  2  0  0  0  0  0  0  0  0  0
    6.7550  -14.6839   20.7056 N   0  0  0  0  0  0  0  0  0  0  0  0
    8.4514  -15.3317   22.3104 C   0  0  0  0  0  0  0  0  0  0  0  0
    8.9020  -14.1452   22.4011 O   0  0  0  0  0  0  0  0  0  0  0  0
    8.7089  -16.2026   23.3925 N   0  0  0  0  0  0  0  0  0  0  0  0
    9.5692  -15.8013   24.4792 C   0  0  1  0  0  0  0  0  0  0  0  0
    8.8146  -16.0924   25.7586 C   0  0  0  0  0  0  0  0  0  0  0  0
    7.5959  -15.2465   25.8289 C   0  0  0  0  0  0  0  0  0  0  0  0
    6.2765  -15.6142   25.6736 C   0  0  0  0  0  0  0  0  0  0  0  0
    5.4556  -14.5694   25.8050 N   0  0  0  0  0  0  0  0  0  0  0  0
    6.2333  -13.5004   26.0492 C   0  0  0  0  0  0  0  0  0  0  0  0
    5.8756  -12.1686   26.2646 C   0  0  0  0  0  0  0  0  0  0  0  0
    6.8588  -11.2196   26.5027 C   0  0  0  0  0  0  0  0  0  0  0  0
    8.1739  -11.6352   26.5176 C   0  0  0  0  0  0  0  0  0  0  0  0
    8.5426  -12.9476   26.3063 C   0  0  0  0  0  0  0  0  0  0  0  0
    7.5579  -13.8895   26.0694 C   0  0  0  0  0  0  0  0  0  0  0  0
   10.8619  -16.5058   24.4204 C   0  0  0  0  0  0  0  0  0  0  0  0
   11.7045  -16.4738   25.3572 O   0  0  0  0  0  0  0  0  0  0  0  0
   11.1891  -17.2551   23.2732 N   0  0  0  0  0  0  0  0  0  0  0  0
   12.4601  -17.9471   23.2180 C   0  0  0  0  0  0  0  0  0  0  0  0
   13.5469  -17.1250   22.6793 C   0  0  0  0  0  0  0  0  0  0  0  0
   13.2861  -15.9549   22.3037 O   0  0  0  0  0  0  0  0  0  0  0  0
   14.8595  -17.5506   22.5529 O   0  0  0  0  0  0  0  0  0  0  0  0
  2  1  1  1
  3  2  1  0
  4  2  1  0
  4  6  1  0
  4  5  1  6
  6  7  2  0
  8  6  1  0
  8  9  1  0
  9 10  1  1
 10 11  1  0
 11 19  1  0
 12 13  1  0
 12 11  2  0
 13 14  1  0
 14 19  2  0
 14 15  1  0
 15 16  2  0
 16 17  1  0
 18 17  2  0
 19 18  1  0
 20  9  1  0
 20 22  1  0
 21 20  2  0
 23 24  1  0
 23 22  1  0
 24 26  1  0
 25 24  2  0
M  END
$$$$
