TWG.pdb
     RDKit          3D

 26 27  0  0  1  0  0  0  0  0999 V2000
    6.9704  -16.7135   18.9892 C   0  0  0  0  0  0  0  0  0  0  0  0
    7.9523  -16.4809   20.1241 C   0  0  1  0  0  0  0  0  0  0  0  0
    9.1658  -16.0902   19.5869 O   0  0  0  0  0  0  0  0  0  0  0  0
    7.4227  -15.5342   21.1468 C   0  0  2  0  0  0  0  0  0  0  0  0
    7.0954  -14.2884   20.4331 N   0  0  0  0  0  0  0  0  0  0  0  0
    8.2924  -15.2780   22.2933 C   0  0  0  0  0  0  0  0  0  0  0  0
    8.9604  -14.1963   22.3458 O   0  0  0  0  0  0  0  0  0  0  0  0
    8.4394  -16.1783   23.3720 N   0  0  0  0  0  0  0  0  0  0  0  0
    9.3534  -15.8981   24.4529 C   0  0  1  0  0  0  0  0  0  0  0  0
    8.5831  -16.1140   25.7379 C   0  0  0  0  0  0  0  0  0  0  0  0
    7.4171  -15.1954   25.7873 C   0  0  0  0  0  0  0  0  0  0  0  0
    6.0909  -15.4647   25.5251 C   0  0  0  0  0  0  0  0  0  0  0  0
    5.3292  -14.3782   25.6736 N   0  0  0  0  0  0  0  0  0  0  0  0
    6.1534  -13.3802   26.0368 C   0  0  0  0  0  0  0  0  0  0  0  0
    5.8652  -12.0437   26.3172 C   0  0  0  0  0  0  0  0  0  0  0  0
    6.8871  -11.1784   26.6793 C   0  0  0  0  0  0  0  0  0  0  0  0
    8.1699  -11.6802   26.7494 C   0  0  0  0  0  0  0  0  0  0  0  0
    8.4701  -12.9983   26.4750 C   0  0  0  0  0  0  0  0  0  0  0  0
    7.4471  -13.8565   26.1145 C   0  0  0  0  0  0  0  0  0  0  0  0
   10.5512  -16.7519   24.3694 C   0  0  0  0  0  0  0  0  0  0  0  0
   10.6191  -17.8932   24.9000 O   0  0  0  0  0  0  0  0  0  0  0  0
   11.6823  -16.2893   23.6687 N   0  0  0  0  0  0  0  0  0  0  0  0
   12.8864  -17.0940   23.6573 C   0  0  0  0  0  0  0  0  0  0  0  0
   13.9366  -16.5569   22.7878 C   0  0  0  0  0  0  0  0  0  0  0  0
   13.6548  -15.5980   22.0268 O   0  0  0  0  0  0  0  0  0  0  0  0
   15.2358  -17.0366   22.7441 O   0  0  0  0  0  0  0  0  0  0  0  0
  2  1  1  6
  3  2  1  0
  4  2  1  0
  4  6  1  0
  4  5  1  6
  6  7  2  0
  8  6  1  0
  8  9  1  0
  9 10  1  1
 10 11  1  0
 11 19  1  0
 12 13  1  0
 12 11  2  0
 13 14  1  0
 14 19  2  0
 14 15  1  0
 15 16  2  0
 16 17  1  0
 18 17  2  0
 19 18  1  0
 20  9  1  0
 20 22  1  0
 21 20  2  0
 23 24  1  0
 23 22  1  0
 24 26  1  0
 25 24  2  0
M  END
$$$$
