TWG.pdb
     RDKit          3D

 26 27  0  0  1  0  0  0  0  0999 V2000
    8.0195  -13.3481   20.1414 C   0  0  0  0  0  0  0  0  0  0  0  0
    7.2734  -14.5840   20.6131 C   0  0  1  0  0  0  0  0  0  0  0  0
    6.4324  -15.0076   19.5996 O   0  0  0  0  0  0  0  0  0  0  0  0
    8.1940  -15.6483   21.1053 C   0  0  2  0  0  0  0  0  0  0  0  0
    7.3625  -16.8381   21.3534 N   0  0  0  0  0  0  0  0  0  0  0  0
    8.9984  -15.3075   22.2773 C   0  0  0  0  0  0  0  0  0  0  0  0
    9.7067  -14.2505   22.2673 O   0  0  0  0  0  0  0  0  0  0  0  0
    9.0377  -16.0977   23.4476 N   0  0  0  0  0  0  0  0  0  0  0  0
    9.8626  -15.7206   24.5700 C   0  0  1  0  0  0  0  0  0  0  0  0
    9.1042  -16.1198   25.8177 C   0  0  0  0  0  0  0  0  0  0  0  0
    7.8235  -15.3713   25.8905 C   0  0  0  0  0  0  0  0  0  0  0  0
    6.5458  -15.8134   25.6224 C   0  0  0  0  0  0  0  0  0  0  0  0
    5.6429  -14.8456   25.7983 N   0  0  0  0  0  0  0  0  0  0  0  0
    6.3239  -13.7532   26.1858 C   0  0  0  0  0  0  0  0  0  0  0  0
    5.8563  -12.4761   26.4996 C   0  0  0  0  0  0  0  0  0  0  0  0
    6.7513  -11.4881   26.8827 C   0  0  0  0  0  0  0  0  0  0  0  0
    8.0911  -11.8107   26.9396 C   0  0  0  0  0  0  0  0  0  0  0  0
    8.5680  -13.0681   26.6323 C   0  0  0  0  0  0  0  0  0  0  0  0
    7.6710  -14.0494   26.2510 C   0  0  0  0  0  0  0  0  0  0  0  0
   11.1876  -16.3602   24.4929 C   0  0  0  0  0  0  0  0  0  0  0  0
   12.1024  -16.1478   25.3337 O   0  0  0  0  0  0  0  0  0  0  0  0
   11.4639  -17.2532   23.4390 N   0  0  0  0  0  0  0  0  0  0  0  0
   12.7795  -17.8512   23.3439 C   0  0  0  0  0  0  0  0  0  0  0  0
   12.9492  -19.0235   24.2065 C   0  0  0  0  0  0  0  0  0  0  0  0
   14.0493  -19.6297   24.1874 O   0  0  0  0  0  0  0  0  0  0  0  0
   11.9706  -19.5184   25.0536 O   0  0  0  0  0  0  0  0  0  0  0  0
  2  1  1  6
  3  2  1  0
  4  2  1  0
  4  6  1  0
  4  5  1  1
  6  7  2  0
  8  6  1  0
  8  9  1  0
  9 10  1  1
 10 11  1  0
 11 19  1  0
 12 13  1  0
 12 11  2  0
 13 14  1  0
 14 19  2  0
 14 15  1  0
 15 16  2  0
 16 17  1  0
 18 17  2  0
 19 18  1  0
 20  9  1  0
 20 22  1  0
 21 20  2  0
 23 24  1  0
 23 22  1  0
 24 26  1  0
 25 24  2  0
M  END
$$$$
