TWG.pdb
     RDKit          3D

 26 27  0  0  1  0  0  0  0  0999 V2000
    8.0541  -13.0407   20.0753 C   0  0  0  0  0  0  0  0  0  0  0  0
    7.3373  -14.3323   20.4280 C   0  0  1  0  0  0  0  0  0  0  0  0
    6.5508  -14.7099   19.3543 O   0  0  0  0  0  0  0  0  0  0  0  0
    8.2776  -15.3974   20.8796 C   0  0  2  0  0  0  0  0  0  0  0  0
    7.4882  -16.6365   20.9800 N   0  0  0  0  0  0  0  0  0  0  0  0
    9.0037  -15.1270   22.1191 C   0  0  0  0  0  0  0  0  0  0  0  0
    9.6729  -14.0508   22.2332 O   0  0  0  0  0  0  0  0  0  0  0  0
    9.0073  -16.0075   23.2238 N   0  0  0  0  0  0  0  0  0  0  0  0
    9.6932  -15.6621   24.4455 C   0  0  1  0  0  0  0  0  0  0  0  0
    8.8325  -16.1686   25.5830 C   0  0  0  0  0  0  0  0  0  0  0  0
    7.5867  -15.3647   25.6694 C   0  0  0  0  0  0  0  0  0  0  0  0
    6.2892  -15.7473   25.4048 C   0  0  0  0  0  0  0  0  0  0  0  0
    5.4312  -14.7419   25.5940 N   0  0  0  0  0  0  0  0  0  0  0  0
    6.1621  -13.6842   25.9869 C   0  0  0  0  0  0  0  0  0  0  0  0
    5.7534  -12.3905   26.3141 C   0  0  0  0  0  0  0  0  0  0  0  0
    6.6934  -11.4465   26.7005 C   0  0  0  0  0  0  0  0  0  0  0  0
    8.0178  -11.8288   26.7471 C   0  0  0  0  0  0  0  0  0  0  0  0
    8.4367  -13.1033   26.4264 C   0  0  0  0  0  0  0  0  0  0  0  0
    7.4950  -14.0405   26.0420 C   0  0  0  0  0  0  0  0  0  0  0  0
   11.0497  -16.2364   24.4728 C   0  0  0  0  0  0  0  0  0  0  0  0
   11.7603  -16.2699   25.5133 O   0  0  0  0  0  0  0  0  0  0  0  0
   11.5948  -16.7781   23.2921 N   0  0  0  0  0  0  0  0  0  0  0  0
   12.9033  -17.3973   23.3353 C   0  0  0  0  0  0  0  0  0  0  0  0
   13.3220  -17.9624   22.0497 C   0  0  0  0  0  0  0  0  0  0  0  0
   12.6595  -18.9145   21.5673 O   0  0  0  0  0  0  0  0  0  0  0  0
   14.4105  -17.5161   21.3175 O   0  0  0  0  0  0  0  0  0  0  0  0
  2  1  1  6
  3  2  1  0
  4  2  1  0
  4  6  1  0
  4  5  1  1
  6  7  2  0
  8  6  1  0
  8  9  1  0
  9 10  1  1
 10 11  1  0
 11 19  1  0
 12 13  1  0
 12 11  2  0
 13 14  1  0
 14 19  2  0
 14 15  1  0
 15 16  2  0
 16 17  1  0
 18 17  2  0
 19 18  1  0
 20  9  1  0
 20 22  1  0
 21 20  2  0
 23 24  1  0
 23 22  1  0
 24 26  1  0
 25 24  2  0
M  END
$$$$
