TWG.pdb
     RDKit          3D

 26 27  0  0  1  0  0  0  0  0999 V2000
    7.1642  -17.8127   19.0637 C   0  0  0  0  0  0  0  0  0  0  0  0
    8.0565  -17.2930   20.1773 C   0  0  1  0  0  0  0  0  0  0  0  0
    9.2241  -16.8052   19.6182 O   0  0  0  0  0  0  0  0  0  0  0  0
    7.3579  -16.3064   21.0497 C   0  0  2  0  0  0  0  0  0  0  0  0
    6.8040  -15.2762   20.1550 N   0  0  0  0  0  0  0  0  0  0  0  0
    8.1629  -15.7100   22.1141 C   0  0  0  0  0  0  0  0  0  0  0  0
    8.4815  -14.4799   22.0465 O   0  0  0  0  0  0  0  0  0  0  0  0
    8.6186  -16.4322   23.2394 N   0  0  0  0  0  0  0  0  0  0  0  0
    9.4096  -15.7910   24.2618 C   0  0  1  0  0  0  0  0  0  0  0  0
    8.7364  -16.0938   25.5832 C   0  0  0  0  0  0  0  0  0  0  0  0
    7.5657  -15.1990   25.7695 C   0  0  0  0  0  0  0  0  0  0  0  0
    6.2233  -15.5013   25.6891 C   0  0  0  0  0  0  0  0  0  0  0  0
    5.4625  -14.4281   25.9173 N   0  0  0  0  0  0  0  0  0  0  0  0
    6.3035  -13.4058   26.1510 C   0  0  0  0  0  0  0  0  0  0  0  0
    6.0234  -12.0701   26.4432 C   0  0  0  0  0  0  0  0  0  0  0  0
    7.0634  -11.1763   26.6521 C   0  0  0  0  0  0  0  0  0  0  0  0
    8.3558  -11.6496   26.5615 C   0  0  0  0  0  0  0  0  0  0  0  0
    8.6481  -12.9665   26.2734 C   0  0  0  0  0  0  0  0  0  0  0  0
    7.6070  -13.8533   26.0661 C   0  0  0  0  0  0  0  0  0  0  0  0
   10.8055  -16.2613   24.2253 C   0  0  0  0  0  0  0  0  0  0  0  0
   11.5612  -16.2473   25.2340 O   0  0  0  0  0  0  0  0  0  0  0  0
   11.3379  -16.7528   23.0173 N   0  0  0  0  0  0  0  0  0  0  0  0
   12.7004  -17.2432   22.9913 C   0  0  0  0  0  0  0  0  0  0  0  0
   13.1362  -17.6795   21.6621 C   0  0  0  0  0  0  0  0  0  0  0  0
   12.3257  -17.5952   20.7060 O   0  0  0  0  0  0  0  0  0  0  0  0
   14.3951  -18.1850   21.3795 O   0  0  0  0  0  0  0  0  0  0  0  0
  2  1  1  6
  3  2  1  0
  4  2  1  0
  4  6  1  0
  4  5  1  6
  6  7  2  0
  8  6  1  0
  8  9  1  0
  9 10  1  1
 10 11  1  0
 11 19  1  0
 12 13  1  0
 12 11  2  0
 13 14  1  0
 14 19  2  0
 14 15  1  0
 15 16  2  0
 16 17  1  0
 18 17  2  0
 19 18  1  0
 20  9  1  0
 20 22  1  0
 21 20  2  0
 23 24  1  0
 23 22  1  0
 24 26  1  0
 25 24  2  0
M  END
$$$$
