TWG.pdb
     RDKit          3D

 26 27  0  0  1  0  0  0  0  0999 V2000
    6.5276  -18.8524   18.8509 C   0  0  0  0  0  0  0  0  0  0  0  0
    7.5106  -18.4175   19.9238 C   0  0  1  0  0  0  0  0  0  0  0  0
    8.5809  -19.2941   19.9255 O   0  0  0  0  0  0  0  0  0  0  0  0
    7.9124  -16.9892   19.7789 C   0  0  2  0  0  0  0  0  0  0  0  0
    8.4637  -16.8459   18.4209 N   0  0  0  0  0  0  0  0  0  0  0  0
    8.8406  -16.4798   20.7866 C   0  0  0  0  0  0  0  0  0  0  0  0
   10.0885  -16.4611   20.5389 O   0  0  0  0  0  0  0  0  0  0  0  0
    8.4272  -15.9951   22.0475 N   0  0  0  0  0  0  0  0  0  0  0  0
    9.3934  -15.5849   23.0377 C   0  0  1  0  0  0  0  0  0  0  0  0
    9.0385  -14.1658   23.4267 C   0  0  0  0  0  0  0  0  0  0  0  0
    7.9328  -14.1761   24.4182 C   0  0  0  0  0  0  0  0  0  0  0  0
    7.0907  -15.2107   24.7653 C   0  0  0  0  0  0  0  0  0  0  0  0
    6.2136  -14.8389   25.7007 N   0  0  0  0  0  0  0  0  0  0  0  0
    6.4736  -13.5493   25.9777 C   0  0  0  0  0  0  0  0  0  0  0  0
    5.8492  -12.6883   26.8814 C   0  0  0  0  0  0  0  0  0  0  0  0
    6.2905  -11.3792   27.0053 C   0  0  0  0  0  0  0  0  0  0  0  0
    7.3469  -10.9717   26.2176 C   0  0  0  0  0  0  0  0  0  0  0  0
    7.9738  -11.8110   25.3201 C   0  0  0  0  0  0  0  0  0  0  0  0
    7.5294  -13.1153   25.2009 C   0  0  0  0  0  0  0  0  0  0  0  0
    9.3889  -16.4987   24.1935 C   0  0  0  0  0  0  0  0  0  0  0  0
    8.3299  -16.9374   24.7177 O   0  0  0  0  0  0  0  0  0  0  0  0
   10.6141  -16.9125   24.7522 N   0  0  0  0  0  0  0  0  0  0  0  0
   10.6139  -17.9220   25.7907 C   0  0  0  0  0  0  0  0  0  0  0  0
   11.9284  -18.1235   26.4061 C   0  0  0  0  0  0  0  0  0  0  0  0
   12.9008  -18.4133   25.6654 O   0  0  0  0  0  0  0  0  0  0  0  0
   12.1799  -18.0158   27.7644 O   0  0  0  0  0  0  0  0  0  0  0  0
  2  1  1  6
  3  2  1  0
  4  2  1  0
  4  6  1  0
  4  5  1  6
  6  7  2  0
  8  6  1  0
  8  9  1  0
  9 10  1  1
 10 11  1  0
 11 19  1  0
 12 13  1  0
 12 11  2  0
 13 14  1  0
 14 19  2  0
 14 15  1  0
 15 16  2  0
 16 17  1  0
 18 17  2  0
 19 18  1  0
 20  9  1  0
 20 22  1  0
 21 20  2  0
 23 24  1  0
 23 22  1  0
 24 26  1  0
 25 24  2  0
M  END
$$$$
