TWG.pdb
     RDKit          3D

 26 27  0  0  1  0  0  0  0  0999 V2000
    7.1354  -17.8636   19.2624 C   0  0  0  0  0  0  0  0  0  0  0  0
    8.0754  -17.3494   20.3387 C   0  0  1  0  0  0  0  0  0  0  0  0
    9.2710  -16.9850   19.7455 O   0  0  0  0  0  0  0  0  0  0  0  0
    7.4620  -16.2635   21.1555 C   0  0  2  0  0  0  0  0  0  0  0  0
    6.9794  -15.2475   20.2049 N   0  0  0  0  0  0  0  0  0  0  0  0
    8.3199  -15.6697   22.1791 C   0  0  0  0  0  0  0  0  0  0  0  0
    8.8180  -14.5144   21.9886 O   0  0  0  0  0  0  0  0  0  0  0  0
    8.6367  -16.3147   23.3954 N   0  0  0  0  0  0  0  0  0  0  0  0
    9.5264  -15.7004   24.3511 C   0  0  1  0  0  0  0  0  0  0  0  0
    8.9194  -15.9319   25.7183 C   0  0  0  0  0  0  0  0  0  0  0  0
    7.6961  -15.1042   25.8737 C   0  0  0  0  0  0  0  0  0  0  0  0
    6.3755  -15.4788   25.7488 C   0  0  0  0  0  0  0  0  0  0  0  0
    5.5501  -14.4509   25.9604 N   0  0  0  0  0  0  0  0  0  0  0  0
    6.3260  -13.3861   26.2276 C   0  0  0  0  0  0  0  0  0  0  0  0
    5.9639  -12.0703   26.5200 C   0  0  0  0  0  0  0  0  0  0  0  0
    6.9461  -11.1228   26.7679 C   0  0  0  0  0  0  0  0  0  0  0  0
    8.2648  -11.5239   26.7148 C   0  0  0  0  0  0  0  0  0  0  0  0
    8.6379  -12.8203   26.4270 C   0  0  0  0  0  0  0  0  0  0  0  0
    7.6541  -13.7608   26.1808 C   0  0  0  0  0  0  0  0  0  0  0  0
   10.8867  -16.2557   24.2425 C   0  0  0  0  0  0  0  0  0  0  0  0
   11.8228  -15.9370   25.0241 O   0  0  0  0  0  0  0  0  0  0  0  0
   11.1740  -17.1871   23.2254 N   0  0  0  0  0  0  0  0  0  0  0  0
   12.5433  -17.6118   23.0200 C   0  0  0  0  0  0  0  0  0  0  0  0
   12.9754  -18.6540   23.9550 C   0  0  0  0  0  0  0  0  0  0  0  0
   13.1615  -19.8161   23.5156 O   0  0  0  0  0  0  0  0  0  0  0  0
   13.1969  -18.4476   25.3071 O   0  0  0  0  0  0  0  0  0  0  0  0
  2  1  1  6
  3  2  1  0
  4  2  1  0
  4  6  1  0
  4  5  1  6
  6  7  2  0
  8  6  1  0
  8  9  1  0
  9 10  1  1
 10 11  1  0
 11 19  1  0
 12 13  1  0
 12 11  2  0
 13 14  1  0
 14 19  2  0
 14 15  1  0
 15 16  2  0
 16 17  1  0
 18 17  2  0
 19 18  1  0
 20  9  1  0
 20 22  1  0
 21 20  2  0
 23 24  1  0
 23 22  1  0
 24 26  1  0
 25 24  2  0
M  END
$$$$
