QWT.pdb
     RDKit          3D

 31 32  0  0  1  0  0  0  0  0999 V2000
   27.8519  -22.8235  -17.1661 N   0  0  0  0  0  0  0  0  0  0  0  0
   29.0562  -22.0661  -16.9549 C   0  0  0  0  0  0  0  0  0  0  0  0
   29.7628  -21.8745  -17.9753 O   0  0  0  0  0  0  0  0  0  0  0  0
   29.4409  -21.5564  -15.6643 C   0  0  0  0  0  0  0  0  0  0  0  0
   28.5321  -21.7049  -14.5160 C   0  0  0  0  0  0  0  0  0  0  0  0
   27.4592  -20.7086  -14.3216 C   0  0  2  0  0  0  0  0  0  0  0  0
   27.8281  -19.3590  -14.0988 N   0  0  0  0  0  0  0  0  0  0  0  0
   26.5837  -21.1653  -13.2031 C   0  0  0  0  0  0  0  0  0  0  0  0
   26.1549  -22.3446  -13.2403 O   0  0  0  0  0  0  0  0  0  0  0  0
   26.1968  -20.3736  -12.1049 N   0  0  0  0  0  0  0  0  0  0  0  0
   25.1757  -20.8360  -11.1976 C   0  0  1  0  0  0  0  0  0  0  0  0
   25.3798  -20.2975   -9.8041 C   0  0  0  0  0  0  0  0  0  0  0  0
   26.7428  -20.6636   -9.3516 C   0  0  0  0  0  0  0  0  0  0  0  0
   27.6273  -21.5070  -10.0245 C   0  0  0  0  0  0  0  0  0  0  0  0
   28.7792  -21.6226   -9.3375 N   0  0  0  0  0  0  0  0  0  0  0  0
   28.6713  -20.8755   -8.2316 C   0  0  0  0  0  0  0  0  0  0  0  0
   29.5842  -20.6638   -7.2072 C   0  0  0  0  0  0  0  0  0  0  0  0
   29.2598  -19.8462   -6.1572 C   0  0  0  0  0  0  0  0  0  0  0  0
   27.9949  -19.2388   -6.1429 C   0  0  0  0  0  0  0  0  0  0  0  0
   27.1158  -19.4700   -7.1700 C   0  0  0  0  0  0  0  0  0  0  0  0
   27.4277  -20.2800   -8.2276 C   0  0  0  0  0  0  0  0  0  0  0  0
   23.8408  -20.4223  -11.7359 C   0  0  0  0  0  0  0  0  0  0  0  0
   23.5191  -19.2172  -11.5980 O   0  0  0  0  0  0  0  0  0  0  0  0
   22.4623  -21.1783  -15.2738 C   0  0  0  0  0  0  0  0  0  0  0  0
   21.4473  -21.6448  -14.2681 C   0  0  1  0  0  0  0  0  0  0  0  0
   21.6792  -23.0027  -13.9617 O   0  0  0  0  0  0  0  0  0  0  0  0
   21.6678  -20.8851  -12.9528 C   0  0  2  0  0  0  0  0  0  0  0  0
   22.9497  -21.3100  -12.3806 N   0  0  0  0  0  0  0  0  0  0  0  0
   20.6136  -21.1573  -11.9888 C   0  0  0  0  0  0  0  0  0  0  0  0
   20.8204  -21.8434  -10.9686 O   0  0  0  0  0  0  0  0  0  0  0  0
   19.3306  -20.6538  -12.1795 O   0  0  0  0  0  0  0  0  0  0  0  0
  2  3  2  0
  2  1  1  0
  4  2  1  0
  5  4  1  0
  6  5  1  0
  6  7  1  1
  8  9  2  0
  8  6  1  0
 10  8  1  0
 11 10  1  0
 11 12  1  1
 12 13  1  0
 13 21  1  0
 13 14  2  0
 14 15  1  0
 16 15  1  0
 16 17  2  0
 18 17  1  0
 19 18  2  0
 20 21  2  0
 20 19  1  0
 21 16  1  0
 22 28  1  0
 22 11  1  0
 23 22  2  0
 25 27  1  0
 25 24  1  6
 26 25  1  0
 27 29  1  0
 27 28  1  1
 29 31  1  0
 30 29  2  0
M  END
$$$$
