QWT.pdb
     RDKit          3D

 31 32  0  0  1  0  0  0  0  0999 V2000
   25.8515  -18.4818  -21.2571 N   0  0  0  0  0  0  0  0  0  0  0  0
   26.6877  -17.4484  -20.7082 C   0  0  0  0  0  0  0  0  0  0  0  0
   27.1243  -16.6081  -21.5331 O   0  0  0  0  0  0  0  0  0  0  0  0
   27.0138  -17.3704  -19.3078 C   0  0  0  0  0  0  0  0  0  0  0  0
   26.4632  -18.3622  -18.3698 C   0  0  0  0  0  0  0  0  0  0  0  0
   27.3825  -19.3217  -17.7250 C   0  0  2  0  0  0  0  0  0  0  0  0
   28.2194  -20.1100  -18.5527 N   0  0  0  0  0  0  0  0  0  0  0  0
   26.5864  -20.2208  -16.8396 C   0  0  0  0  0  0  0  0  0  0  0  0
   25.6342  -20.8559  -17.3554 O   0  0  0  0  0  0  0  0  0  0  0  0
   26.8186  -20.4128  -15.4642 N   0  0  0  0  0  0  0  0  0  0  0  0
   26.0592  -21.3926  -14.7273 C   0  0  1  0  0  0  0  0  0  0  0  0
   26.7740  -21.8263  -13.4725 C   0  0  0  0  0  0  0  0  0  0  0  0
   26.7514  -20.7041  -12.5046 C   0  0  0  0  0  0  0  0  0  0  0  0
   27.1942  -19.4043  -12.7514 C   0  0  0  0  0  0  0  0  0  0  0  0
   27.0282  -18.6370  -11.6578 N   0  0  0  0  0  0  0  0  0  0  0  0
   26.4874  -19.4017  -10.7011 C   0  0  0  0  0  0  0  0  0  0  0  0
   26.1263  -19.0783   -9.4001 C   0  0  0  0  0  0  0  0  0  0  0  0
   25.5792  -20.0316   -8.5828 C   0  0  0  0  0  0  0  0  0  0  0  0
   25.3989  -21.3283   -9.0878 C   0  0  0  0  0  0  0  0  0  0  0  0
   25.7676  -21.6151  -10.3774 C   0  0  0  0  0  0  0  0  0  0  0  0
   26.3105  -20.6722  -11.2069 C   0  0  0  0  0  0  0  0  0  0  0  0
   24.7208  -20.8061  -14.3995 C   0  0  0  0  0  0  0  0  0  0  0  0
   24.6736  -19.5675  -14.2037 O   0  0  0  0  0  0  0  0  0  0  0  0
   21.7415  -20.2057  -16.1939 C   0  0  0  0  0  0  0  0  0  0  0  0
   21.2752  -21.1184  -15.0944 C   0  0  1  0  0  0  0  0  0  0  0  0
   21.3690  -22.4590  -15.5251 O   0  0  0  0  0  0  0  0  0  0  0  0
   22.2432  -21.0007  -13.9091 C   0  0  2  0  0  0  0  0  0  0  0  0
   23.5352  -21.5699  -14.3067 N   0  0  0  0  0  0  0  0  0  0  0  0
   21.7568  -21.7184  -12.7415 C   0  0  0  0  0  0  0  0  0  0  0  0
   22.1650  -22.8619  -12.4588 O   0  0  0  0  0  0  0  0  0  0  0  0
   20.8124  -21.1425  -11.8974 O   0  0  0  0  0  0  0  0  0  0  0  0
  2  3  2  0
  2  1  1  0
  4  2  1  0
  5  4  1  0
  6  5  1  0
  6  7  1  6
  8  9  2  0
  8  6  1  0
 10  8  1  0
 11 10  1  0
 11 12  1  1
 12 13  1  0
 13 21  1  0
 13 14  2  0
 14 15  1  0
 16 15  1  0
 16 17  2  0
 18 17  1  0
 19 18  2  0
 20 21  2  0
 20 19  1  0
 21 16  1  0
 22 28  1  0
 22 11  1  0
 23 22  2  0
 25 27  1  0
 25 24  1  6
 26 25  1  0
 27 29  1  0
 27 28  1  6
 29 31  1  0
 30 29  2  0
M  END
$$$$
