QWT.pdb
     RDKit          3D

 31 32  0  0  1  0  0  0  0  0999 V2000
   28.5843  -24.0839  -16.5958 N   0  0  0  0  0  0  0  0  0  0  0  0
   28.4300  -22.9372  -17.4501 C   0  0  0  0  0  0  0  0  0  0  0  0
   28.9762  -23.0231  -18.5777 O   0  0  0  0  0  0  0  0  0  0  0  0
   27.7021  -21.7602  -17.0522 C   0  0  0  0  0  0  0  0  0  0  0  0
   27.1264  -21.6757  -15.7002 C   0  0  0  0  0  0  0  0  0  0  0  0
   27.6846  -20.6953  -14.7469 C   0  0  2  0  0  0  0  0  0  0  0  0
   29.0877  -20.5006  -14.7281 N   0  0  0  0  0  0  0  0  0  0  0  0
   27.2238  -21.0525  -13.3735 C   0  0  0  0  0  0  0  0  0  0  0  0
   26.3254  -21.9227  -13.2659 O   0  0  0  0  0  0  0  0  0  0  0  0
   27.7181  -20.4866  -12.1827 N   0  0  0  0  0  0  0  0  0  0  0  0
   27.1059  -20.8046  -10.9163 C   0  0  1  0  0  0  0  0  0  0  0  0
   27.9831  -20.4084   -9.7557 C   0  0  0  0  0  0  0  0  0  0  0  0
   27.2030  -20.5526   -8.5038 C   0  0  0  0  0  0  0  0  0  0  0  0
   25.9375  -21.1295   -8.3924 C   0  0  0  0  0  0  0  0  0  0  0  0
   25.5201  -21.1003   -7.1129 N   0  0  0  0  0  0  0  0  0  0  0  0
   26.4806  -20.5191   -6.3835 C   0  0  0  0  0  0  0  0  0  0  0  0
   26.5289  -20.2570   -5.0209 C   0  0  0  0  0  0  0  0  0  0  0  0
   27.6282  -19.6459   -4.4783 C   0  0  0  0  0  0  0  0  0  0  0  0
   28.6892  -19.2930   -5.3261 C   0  0  0  0  0  0  0  0  0  0  0  0
   28.6092  -19.5649   -6.6681 C   0  0  0  0  0  0  0  0  0  0  0  0
   27.5200  -20.1792   -7.2233 C   0  0  0  0  0  0  0  0  0  0  0  0
   25.7818  -20.1089  -10.8421 C   0  0  0  0  0  0  0  0  0  0  0  0
   25.7997  -18.8576  -10.7484 O   0  0  0  0  0  0  0  0  0  0  0  0
   22.9306  -21.7416  -13.0372 C   0  0  0  0  0  0  0  0  0  0  0  0
   23.0198  -20.2776  -12.7086 C   0  0  1  0  0  0  0  0  0  0  0  0
   21.7698  -19.6663  -12.9436 O   0  0  0  0  0  0  0  0  0  0  0  0
   23.2745  -20.1225  -11.2029 C   0  0  2  0  0  0  0  0  0  0  0  0
   24.5413  -20.7854  -10.8758 N   0  0  0  0  0  0  0  0  0  0  0  0
   22.2144  -20.7257  -10.4110 C   0  0  0  0  0  0  0  0  0  0  0  0
   22.4197  -21.7257   -9.6954 O   0  0  0  0  0  0  0  0  0  0  0  0
   20.9272  -20.1977  -10.4293 O   0  0  0  0  0  0  0  0  0  0  0  0
  2  3  2  0
  2  1  1  0
  4  2  1  0
  5  4  1  0
  6  5  1  0
  6  7  1  1
  8  9  2  0
  8  6  1  0
 10  8  1  0
 11 10  1  0
 11 12  1  1
 12 13  1  0
 13 21  1  0
 13 14  2  0
 14 15  1  0
 16 15  1  0
 16 17  2  0
 18 17  1  0
 19 18  2  0
 20 21  2  0
 20 19  1  0
 21 16  1  0
 22 28  1  0
 22 11  1  0
 23 22  2  0
 25 27  1  0
 25 24  1  1
 26 25  1  0
 27 29  1  0
 27 28  1  1
 29 31  1  0
 30 29  2  0
M  END
$$$$
