QWT.pdb
     RDKit          3D

 31 32  0  0  1  0  0  0  0  0999 V2000
   28.9732  -19.5546  -14.9700 N   0  0  0  0  0  0  0  0  0  0  0  0
   29.6627  -20.8148  -15.0415 C   0  0  0  0  0  0  0  0  0  0  0  0
   30.0958  -21.1328  -16.1766 O   0  0  0  0  0  0  0  0  0  0  0  0
   29.8499  -21.6676  -13.8965 C   0  0  0  0  0  0  0  0  0  0  0  0
   29.4039  -21.2199  -12.5672 C   0  0  0  0  0  0  0  0  0  0  0  0
   28.0286  -20.7041  -12.4122 C   0  0  2  0  0  0  0  0  0  0  0  0
   27.8003  -19.3234  -12.6322 N   0  0  0  0  0  0  0  0  0  0  0  0
   27.5347  -21.0690  -11.0525 C   0  0  0  0  0  0  0  0  0  0  0  0
   27.8209  -22.2096  -10.6129 O   0  0  0  0  0  0  0  0  0  0  0  0
   26.7674  -20.2319  -10.2200 N   0  0  0  0  0  0  0  0  0  0  0  0
   25.5263  -20.7039   -9.6574 C   0  0  1  0  0  0  0  0  0  0  0  0
   25.2565  -20.0927   -8.3057 C   0  0  0  0  0  0  0  0  0  0  0  0
   26.5539  -19.7690   -7.6666 C   0  0  0  0  0  0  0  0  0  0  0  0
   27.4130  -18.7354   -8.0412 C   0  0  0  0  0  0  0  0  0  0  0  0
   28.5022  -18.7213   -7.2501 N   0  0  0  0  0  0  0  0  0  0  0  0
   28.3776  -19.7194   -6.3665 C   0  0  0  0  0  0  0  0  0  0  0  0
   29.2307  -20.1171   -5.3458 C   0  0  0  0  0  0  0  0  0  0  0  0
   28.8981  -21.1803   -4.5488 C   0  0  0  0  0  0  0  0  0  0  0  0
   27.6893  -21.8507   -4.7907 C   0  0  0  0  0  0  0  0  0  0  0  0
   26.8699  -21.4332   -5.8083 C   0  0  0  0  0  0  0  0  0  0  0  0
   27.1863  -20.3700   -6.6090 C   0  0  0  0  0  0  0  0  0  0  0  0
   24.4200  -20.3837  -10.6147 C   0  0  0  0  0  0  0  0  0  0  0  0
   24.4662  -19.2677  -11.1866 O   0  0  0  0  0  0  0  0  0  0  0  0
   23.6548  -21.7055  -13.7794 C   0  0  0  0  0  0  0  0  0  0  0  0
   22.3814  -21.9569  -13.0215 C   0  0  1  0  0  0  0  0  0  0  0  0
   22.4380  -23.2309  -12.4173 O   0  0  0  0  0  0  0  0  0  0  0  0
   22.2903  -20.9570  -11.8606 C   0  0  2  0  0  0  0  0  0  0  0  0
   23.3526  -21.2658  -10.8976 N   0  0  0  0  0  0  0  0  0  0  0  0
   21.0072  -21.0347  -11.1805 C   0  0  0  0  0  0  0  0  0  0  0  0
   20.9121  -21.4425  -10.0063 O   0  0  0  0  0  0  0  0  0  0  0  0
   19.8368  -20.6513  -11.8280 O   0  0  0  0  0  0  0  0  0  0  0  0
  2  3  2  0
  2  1  1  0
  4  2  1  0
  5  4  1  0
  6  5  1  0
  6  7  1  1
  8  9  2  0
  8  6  1  0
 10  8  1  0
 11 10  1  0
 11 12  1  1
 12 13  1  0
 13 21  1  0
 13 14  2  0
 14 15  1  0
 16 15  1  0
 16 17  2  0
 18 17  1  0
 19 18  2  0
 20 21  2  0
 20 19  1  0
 21 16  1  0
 22 28  1  0
 22 11  1  0
 23 22  2  0
 25 27  1  0
 25 24  1  1
 26 25  1  0
 27 29  1  0
 27 28  1  1
 29 31  1  0
 30 29  2  0
M  END
$$$$
