QWT.pdb
     RDKit          3D

 31 32  0  0  1  0  0  0  0  0999 V2000
   29.6625  -17.6950  -16.4369 N   0  0  0  0  0  0  0  0  0  0  0  0
   28.3687  -18.2707  -16.6883 C   0  0  0  0  0  0  0  0  0  0  0  0
   27.4270  -17.4510  -16.8238 O   0  0  0  0  0  0  0  0  0  0  0  0
   28.1513  -19.6913  -16.7792 C   0  0  0  0  0  0  0  0  0  0  0  0
   27.3939  -20.3866  -15.7260 C   0  0  0  0  0  0  0  0  0  0  0  0
   27.7898  -20.1930  -14.3163 C   0  0  2  0  0  0  0  0  0  0  0  0
   29.0511  -20.6850  -13.8992 N   0  0  0  0  0  0  0  0  0  0  0  0
   26.7281  -20.7699  -13.4411 C   0  0  0  0  0  0  0  0  0  0  0  0
   26.1205  -21.7886  -13.8526 O   0  0  0  0  0  0  0  0  0  0  0  0
   26.3504  -20.2586  -12.1847 N   0  0  0  0  0  0  0  0  0  0  0  0
   25.3125  -20.9027  -11.4183 C   0  0  1  0  0  0  0  0  0  0  0  0
   25.3973  -20.5506   -9.9547 C   0  0  0  0  0  0  0  0  0  0  0  0
   26.7725  -20.8334   -9.4801 C   0  0  0  0  0  0  0  0  0  0  0  0
   27.7271  -21.5974  -10.1522 C   0  0  0  0  0  0  0  0  0  0  0  0
   28.8696  -21.6505   -9.4422 N   0  0  0  0  0  0  0  0  0  0  0  0
   28.6873  -20.9401   -8.3221 C   0  0  0  0  0  0  0  0  0  0  0  0
   29.5617  -20.6915   -7.2727 C   0  0  0  0  0  0  0  0  0  0  0  0
   29.1597  -19.9241   -6.2118 C   0  0  0  0  0  0  0  0  0  0  0  0
   27.8558  -19.4054   -6.2119 C   0  0  0  0  0  0  0  0  0  0  0  0
   27.0165  -19.6710   -7.2637 C   0  0  0  0  0  0  0  0  0  0  0  0
   27.4057  -20.4315   -8.3324 C   0  0  0  0  0  0  0  0  0  0  0  0
   23.9859  -20.5000  -11.9848 C   0  0  0  0  0  0  0  0  0  0  0  0
   23.7575  -19.2699  -12.0826 O   0  0  0  0  0  0  0  0  0  0  0  0
   22.5157  -21.5302  -15.2765 C   0  0  0  0  0  0  0  0  0  0  0  0
   21.4727  -21.8687  -14.2485 C   0  0  1  0  0  0  0  0  0  0  0  0
   21.6363  -23.2085  -13.8367 O   0  0  0  0  0  0  0  0  0  0  0  0
   21.7213  -21.0214  -12.9930 C   0  0  2  0  0  0  0  0  0  0  0  0
   23.0042  -21.4247  -12.4075 N   0  0  0  0  0  0  0  0  0  0  0  0
   20.6759  -21.2084  -11.9997 C   0  0  0  0  0  0  0  0  0  0  0  0
   20.8852  -21.8258  -10.9369 O   0  0  0  0  0  0  0  0  0  0  0  0
   19.3986  -20.6976  -12.2092 O   0  0  0  0  0  0  0  0  0  0  0  0
  2  3  2  0
  2  1  1  0
  4  2  1  0
  5  4  1  0
  6  5  1  0
  6  7  1  6
  8  9  2  0
  8  6  1  0
 10  8  1  0
 11 10  1  0
 11 12  1  1
 12 13  1  0
 13 21  1  0
 13 14  2  0
 14 15  1  0
 16 15  1  0
 16 17  2  0
 18 17  1  0
 19 18  2  0
 20 21  2  0
 20 19  1  0
 21 16  1  0
 22 28  1  0
 22 11  1  0
 23 22  2  0
 25 27  1  0
 25 24  1  6
 26 25  1  0
 27 29  1  0
 27 28  1  1
 29 31  1  0
 30 29  2  0
M  END
$$$$
