QWT.pdb
     RDKit          3D

 31 32  0  0  1  0  0  0  0  0999 V2000
   27.9706  -17.7162  -16.5594 N   0  0  0  0  0  0  0  0  0  0  0  0
   28.3426  -18.6680  -17.5714 C   0  0  0  0  0  0  0  0  0  0  0  0
   29.1435  -18.2484  -18.4430 O   0  0  0  0  0  0  0  0  0  0  0  0
   27.8368  -20.0160  -17.5982 C   0  0  0  0  0  0  0  0  0  0  0  0
   27.0727  -20.5359  -16.4527 C   0  0  0  0  0  0  0  0  0  0  0  0
   27.7979  -21.2173  -15.3613 C   0  0  2  0  0  0  0  0  0  0  0  0
   28.4475  -22.4430  -15.6491 N   0  0  0  0  0  0  0  0  0  0  0  0
   26.8580  -21.4202  -14.2204 C   0  0  0  0  0  0  0  0  0  0  0  0
   26.4247  -22.5812  -14.0191 O   0  0  0  0  0  0  0  0  0  0  0  0
   26.4149  -20.4073  -13.3486 N   0  0  0  0  0  0  0  0  0  0  0  0
   25.5711  -20.7313  -12.2249 C   0  0  1  0  0  0  0  0  0  0  0  0
   25.9248  -19.9167  -11.0063 C   0  0  0  0  0  0  0  0  0  0  0  0
   27.1515  -20.4848  -10.3987 C   0  0  0  0  0  0  0  0  0  0  0  0
   28.1681  -21.1514  -11.0832 C   0  0  0  0  0  0  0  0  0  0  0  0
   29.1352  -21.5349  -10.2288 N   0  0  0  0  0  0  0  0  0  0  0  0
   28.7775  -21.1356   -9.0019 C   0  0  0  0  0  0  0  0  0  0  0  0
   29.4343  -21.2892   -7.7883 C   0  0  0  0  0  0  0  0  0  0  0  0
   28.8781  -20.7924   -6.6395 C   0  0  0  0  0  0  0  0  0  0  0  0
   27.6406  -20.1357   -6.7200 C   0  0  0  0  0  0  0  0  0  0  0  0
   27.0174  -20.0021   -7.9345 C   0  0  0  0  0  0  0  0  0  0  0  0
   27.5632  -20.4886   -9.0910 C   0  0  0  0  0  0  0  0  0  0  0  0
   24.1453  -20.5012  -12.6211 C   0  0  0  0  0  0  0  0  0  0  0  0
   23.7719  -19.3091  -12.7404 O   0  0  0  0  0  0  0  0  0  0  0  0
   22.6376  -21.9698  -15.6797 C   0  0  0  0  0  0  0  0  0  0  0  0
   21.6688  -22.3009  -14.5793 C   0  0  1  0  0  0  0  0  0  0  0  0
   21.9700  -23.5765  -14.0562 O   0  0  0  0  0  0  0  0  0  0  0  0
   21.8847  -21.3209  -13.4179 C   0  0  2  0  0  0  0  0  0  0  0  0
   23.2242  -21.5453  -12.8641 N   0  0  0  0  0  0  0  0  0  0  0  0
   20.9048  -21.5124  -12.3606 C   0  0  0  0  0  0  0  0  0  0  0  0
   21.2272  -21.9580  -11.2418 O   0  0  0  0  0  0  0  0  0  0  0  0
   19.5651  -21.1998  -12.5698 O   0  0  0  0  0  0  0  0  0  0  0  0
  2  3  2  0
  2  1  1  0
  4  2  1  0
  5  4  1  0
  6  5  1  0
  6  7  1  6
  8  9  2  0
  8  6  1  0
 10  8  1  0
 11 10  1  0
 11 12  1  1
 12 13  1  0
 13 21  1  0
 13 14  2  0
 14 15  1  0
 16 15  1  0
 16 17  2  0
 18 17  1  0
 19 18  2  0
 20 21  2  0
 20 19  1  0
 21 16  1  0
 22 28  1  0
 22 11  1  0
 23 22  2  0
 25 27  1  0
 25 24  1  6
 26 25  1  0
 27 29  1  0
 27 28  1  1
 29 31  1  0
 30 29  2  0
M  END
$$$$
