QIV.pdb
     RDKit          3D

 25 24  0  0  1  0  0  0  0  0999 V2000
    5.5055  -19.0909   20.9698 N   0  0  0  0  0  0  0  0  0  0  0  0
    6.9228  -18.9812   20.7575 C   0  0  0  0  0  0  0  0  0  0  0  0
    7.5142  -20.0275   20.4486 O   0  0  0  0  0  0  0  0  0  0  0  0
    7.5255  -17.6752   20.9243 C   0  0  0  0  0  0  0  0  0  0  0  0
    6.6268  -16.5314   21.2724 C   0  0  0  0  0  0  0  0  0  0  0  0
    7.3048  -15.2169   21.3258 C   0  0  2  0  0  0  0  0  0  0  0  0
    8.0327  -14.8477   20.1705 N   0  0  0  0  0  0  0  0  0  0  0  0
    8.0839  -15.0337   22.6063 C   0  0  0  0  0  0  0  0  0  0  0  0
    9.3308  -15.0845   22.6001 O   0  0  0  0  0  0  0  0  0  0  0  0
    6.0685  -11.6028   26.2534 C   0  0  0  0  0  0  0  0  0  0  0  0
    6.9670  -12.3702   25.2529 C   0  0  0  0  0  0  0  0  0  0  0  0
    7.3743  -13.6124   25.9368 C   0  0  2  0  0  0  0  0  0  0  0  0
    7.9905  -13.3853   27.3020 C   0  0  0  0  0  0  0  0  0  0  0  0
    8.0592  -14.6423   25.1271 C   0  0  2  0  0  0  0  0  0  0  0  0
    7.4124  -14.8029   23.8288 N   0  0  0  0  0  0  0  0  0  0  0  0
    8.4855  -15.9004   25.7365 C   0  0  0  0  0  0  0  0  0  0  0  0
    7.6279  -16.8056   26.0826 O   0  0  0  0  0  0  0  0  0  0  0  0
   10.9895  -18.3377   24.2418 C   0  0  0  0  0  0  0  0  0  0  0  0
   11.3166  -18.2267   25.7192 C   0  0  1  0  0  0  0  0  0  0  0  0
   12.5403  -17.3433   25.8335 C   0  0  0  0  0  0  0  0  0  0  0  0
   10.1958  -17.6066   26.5004 C   0  0  2  0  0  0  0  0  0  0  0  0
    9.8056  -16.3066   26.0207 N   0  0  0  0  0  0  0  0  0  0  0  0
   10.5170  -17.5392   27.9491 C   0  0  0  0  0  0  0  0  0  0  0  0
   10.6830  -16.4489   28.5556 O   0  0  0  0  0  0  0  0  0  0  0  0
   10.6575  -18.6875   28.7419 O   0  0  0  0  0  0  0  0  0  0  0  0
  2  1  1  0
  3  2  2  0
  4  2  1  0
  5  4  1  0
  6  7  1  6
  6  5  1  0
  8  6  1  0
  9  8  2  0
 11 12  1  0
 11 10  1  0
 12 14  1  0
 12 13  1  1
 14 15  1  6
 15  8  1  0
 16 17  2  0
 16 14  1  0
 19 21  1  0
 19 18  1  6
 20 19  1  0
 21 22  1  6
 22 16  1  0
 23 21  1  0
 24 23  2  0
 25 23  1  0
M  END
$$$$
