QIV.pdb
     RDKit          3D

 25 24  0  0  1  0  0  0  0  0999 V2000
    9.0794  -19.1560   23.1183 N   0  0  0  0  0  0  0  0  0  0  0  0
   10.1675  -18.5698   22.3845 C   0  0  0  0  0  0  0  0  0  0  0  0
   11.3077  -18.9423   22.7022 O   0  0  0  0  0  0  0  0  0  0  0  0
    9.8382  -17.6065   21.3547 C   0  0  0  0  0  0  0  0  0  0  0  0
    8.4183  -17.1462   21.2583 C   0  0  0  0  0  0  0  0  0  0  0  0
    8.2554  -15.6760   21.2088 C   0  0  2  0  0  0  0  0  0  0  0  0
    8.7279  -15.0392   20.0375 N   0  0  0  0  0  0  0  0  0  0  0  0
    8.7257  -15.0116   22.4807 C   0  0  0  0  0  0  0  0  0  0  0  0
    9.8142  -14.4020   22.5102 O   0  0  0  0  0  0  0  0  0  0  0  0
    5.2254  -12.1410   25.2820 C   0  0  0  0  0  0  0  0  0  0  0  0
    6.4383  -12.7168   24.5110 C   0  0  0  0  0  0  0  0  0  0  0  0
    7.1008  -13.6587   25.4332 C   0  0  2  0  0  0  0  0  0  0  0  0
    7.2877  -13.1137   26.8344 C   0  0  0  0  0  0  0  0  0  0  0  0
    8.2625  -14.4134   24.9171 C   0  0  2  0  0  0  0  0  0  0  0  0
    7.9404  -15.0712   23.6549 N   0  0  0  0  0  0  0  0  0  0  0  0
    9.0766  -15.2265   25.8183 C   0  0  0  0  0  0  0  0  0  0  0  0
    9.5313  -16.3827   25.4563 O   0  0  0  0  0  0  0  0  0  0  0  0
   11.7937  -15.7703   30.0140 C   0  0  0  0  0  0  0  0  0  0  0  0
   10.7073  -15.0264   29.2602 C   0  0  1  0  0  0  0  0  0  0  0  0
   11.2080  -13.6141   29.0470 C   0  0  0  0  0  0  0  0  0  0  0  0
   10.4214  -15.6466   27.9242 C   0  0  2  0  0  0  0  0  0  0  0  0
    9.4758  -14.9047   27.1318 N   0  0  0  0  0  0  0  0  0  0  0  0
    9.9725  -17.0555   28.0653 C   0  0  0  0  0  0  0  0  0  0  0  0
    8.7725  -17.3647   28.2859 O   0  0  0  0  0  0  0  0  0  0  0  0
   10.8562  -18.1396   27.9625 O   0  0  0  0  0  0  0  0  0  0  0  0
  2  1  1  0
  3  2  2  0
  4  2  1  0
  5  4  1  0
  6  7  1  6
  6  5  1  0
  8  6  1  0
  9  8  2  0
 11 12  1  0
 11 10  1  0
 12 14  1  0
 12 13  1  1
 14 15  1  6
 15  8  1  0
 16 17  2  0
 16 14  1  0
 19 21  1  0
 19 18  1  6
 20 19  1  0
 21 22  1  1
 22 16  1  0
 23 21  1  0
 24 23  2  0
 25 23  1  0
M  END
$$$$
