QIV.pdb
     RDKit          3D

 25 24  0  0  1  0  0  0  0  0999 V2000
    7.7709  -17.4148   17.5524 N   0  0  0  0  0  0  0  0  0  0  0  0
    8.0997  -16.0922   18.0090 C   0  0  0  0  0  0  0  0  0  0  0  0
    8.9444  -15.4751   17.3415 O   0  0  0  0  0  0  0  0  0  0  0  0
    7.4253  -15.6066   19.1949 C   0  0  0  0  0  0  0  0  0  0  0  0
    8.2597  -15.3122   20.4008 C   0  0  0  0  0  0  0  0  0  0  0  0
    7.7844  -15.9584   21.6444 C   0  0  2  0  0  0  0  0  0  0  0  0
    6.3814  -16.0203   21.8135 N   0  0  0  0  0  0  0  0  0  0  0  0
    8.5105  -15.4420   22.8636 C   0  0  0  0  0  0  0  0  0  0  0  0
    9.7483  -15.2851   22.8428 O   0  0  0  0  0  0  0  0  0  0  0  0
    5.9807  -11.8129   25.8952 C   0  0  0  0  0  0  0  0  0  0  0  0
    7.0039  -12.5953   25.0360 C   0  0  0  0  0  0  0  0  0  0  0  0
    7.5882  -13.6181   25.9244 C   0  0  2  0  0  0  0  0  0  0  0  0
    8.1822  -13.0543   27.1989 C   0  0  0  0  0  0  0  0  0  0  0  0
    8.4007  -14.6815   25.2963 C   0  0  2  0  0  0  0  0  0  0  0  0
    7.7988  -15.1297   24.0447 N   0  0  0  0  0  0  0  0  0  0  0  0
    8.9584  -15.7627   26.1062 C   0  0  0  0  0  0  0  0  0  0  0  0
    8.2102  -16.7105   26.5713 O   0  0  0  0  0  0  0  0  0  0  0  0
   12.7069  -18.7323   27.4199 C   0  0  0  0  0  0  0  0  0  0  0  0
   12.1951  -17.5054   26.6887 C   0  0  1  0  0  0  0  0  0  0  0  0
   12.0999  -17.8743   25.2239 C   0  0  0  0  0  0  0  0  0  0  0  0
   10.8384  -17.0851   27.1724 C   0  0  2  0  0  0  0  0  0  0  0  0
   10.3062  -15.9401   26.4809 N   0  0  0  0  0  0  0  0  0  0  0  0
   10.8367  -16.8410   28.6375 C   0  0  0  0  0  0  0  0  0  0  0  0
   10.9322  -15.6872   29.1316 O   0  0  0  0  0  0  0  0  0  0  0  0
   10.7285  -17.8806   29.5726 O   0  0  0  0  0  0  0  0  0  0  0  0
  2  1  1  0
  3  2  2  0
  4  2  1  0
  5  4  1  0
  6  7  1  1
  6  5  1  0
  8  6  1  0
  9  8  2  0
 11 12  1  0
 11 10  1  0
 12 14  1  0
 12 13  1  1
 14 15  1  6
 15  8  1  0
 16 17  2  0
 16 14  1  0
 19 21  1  0
 19 18  1  1
 20 19  1  0
 21 22  1  6
 22 16  1  0
 23 21  1  0
 24 23  2  0
 25 23  1  0
M  END
$$$$
