QIV.pdb
     RDKit          3D

 25 24  0  0  1  0  0  0  0  0999 V2000
    7.8109  -19.0714   19.9564 N   0  0  0  0  0  0  0  0  0  0  0  0
    6.6911  -18.3091   19.4757 C   0  0  0  0  0  0  0  0  0  0  0  0
    5.9041  -18.9045   18.7234 O   0  0  0  0  0  0  0  0  0  0  0  0
    6.5859  -16.9304   19.9058 C   0  0  0  0  0  0  0  0  0  0  0  0
    7.6074  -16.4213   20.8725 C   0  0  0  0  0  0  0  0  0  0  0  0
    7.4271  -15.0047   21.2611 C   0  0  2  0  0  0  0  0  0  0  0  0
    7.5532  -14.0556   20.2199 N   0  0  0  0  0  0  0  0  0  0  0  0
    8.2258  -14.6497   22.4925 C   0  0  0  0  0  0  0  0  0  0  0  0
    9.4400  -14.3766   22.4012 O   0  0  0  0  0  0  0  0  0  0  0  0
    6.3089  -11.5887   26.4153 C   0  0  0  0  0  0  0  0  0  0  0  0
    7.1931  -12.2715   25.3433 C   0  0  0  0  0  0  0  0  0  0  0  0
    7.6423  -13.5468   25.9338 C   0  0  2  0  0  0  0  0  0  0  0  0
    8.3021  -13.3946   27.2891 C   0  0  0  0  0  0  0  0  0  0  0  0
    8.3138  -14.5125   25.0384 C   0  0  2  0  0  0  0  0  0  0  0  0
    7.6099  -14.6223   23.7649 N   0  0  0  0  0  0  0  0  0  0  0  0
    8.8010  -15.7887   25.5582 C   0  0  0  0  0  0  0  0  0  0  0  0
    7.9900  -16.7615   25.8233 O   0  0  0  0  0  0  0  0  0  0  0  0
   12.3186  -19.2537   25.9764 C   0  0  0  0  0  0  0  0  0  0  0  0
   11.8658  -17.8739   25.5369 C   0  0  1  0  0  0  0  0  0  0  0  0
   11.6264  -17.9444   24.0441 C   0  0  0  0  0  0  0  0  0  0  0  0
   10.5934  -17.4555   26.2131 C   0  0  2  0  0  0  0  0  0  0  0  0
   10.1381  -16.1446   25.8301 N   0  0  0  0  0  0  0  0  0  0  0  0
   10.7113  -17.5416   27.6913 C   0  0  0  0  0  0  0  0  0  0  0  0
   10.8206  -18.6385   28.2988 O   0  0  0  0  0  0  0  0  0  0  0  0
   10.7088  -16.4051   28.5129 O   0  0  0  0  0  0  0  0  0  0  0  0
  2  1  1  0
  3  2  2  0
  4  2  1  0
  5  4  1  0
  6  7  1  6
  6  5  1  0
  8  6  1  0
  9  8  2  0
 11 12  1  0
 11 10  1  0
 12 14  1  0
 12 13  1  1
 14 15  1  6
 15  8  1  0
 16 17  2  0
 16 14  1  0
 19 21  1  0
 19 18  1  1
 20 19  1  0
 21 22  1  1
 22 16  1  0
 23 21  1  0
 24 23  2  0
 25 23  1  0
M  END
$$$$
