QIV.pdb
     RDKit          3D

 25 24  0  0  1  0  0  0  0  0999 V2000
    7.4261  -12.7453   18.0265 N   0  0  0  0  0  0  0  0  0  0  0  0
    8.1424  -13.9011   17.5607 C   0  0  0  0  0  0  0  0  0  0  0  0
    8.5289  -13.8693   16.3819 O   0  0  0  0  0  0  0  0  0  0  0  0
    8.3433  -14.9866   18.4978 C   0  0  0  0  0  0  0  0  0  0  0  0
    7.7300  -14.8583   19.8559 C   0  0  0  0  0  0  0  0  0  0  0  0
    8.3214  -15.7490   20.8793 C   0  0  2  0  0  0  0  0  0  0  0  0
    7.6073  -16.9390   21.1523 N   0  0  0  0  0  0  0  0  0  0  0  0
    8.7209  -14.9934   22.1242 C   0  0  0  0  0  0  0  0  0  0  0  0
    9.5825  -14.0924   22.0675 O   0  0  0  0  0  0  0  0  0  0  0  0
    5.8845  -12.4246   26.4997 C   0  0  0  0  0  0  0  0  0  0  0  0
    7.3059  -12.7778   25.9978 C   0  0  0  0  0  0  0  0  0  0  0  0
    7.1569  -13.9818   25.1581 C   0  0  2  0  0  0  0  0  0  0  0  0
    6.1494  -14.9792   25.6922 C   0  0  0  0  0  0  0  0  0  0  0  0
    8.3906  -14.5951   24.6223 C   0  0  2  0  0  0  0  0  0  0  0  0
    8.1254  -15.2962   23.3703 N   0  0  0  0  0  0  0  0  0  0  0  0
    9.3142  -15.2978   25.5109 C   0  0  0  0  0  0  0  0  0  0  0  0
    9.4505  -16.5836   25.4600 O   0  0  0  0  0  0  0  0  0  0  0  0
    9.7996  -14.2683   29.3909 C   0  0  0  0  0  0  0  0  0  0  0  0
   11.1088  -14.7061   28.7613 C   0  0  1  0  0  0  0  0  0  0  0  0
   11.7949  -15.6137   29.7594 C   0  0  0  0  0  0  0  0  0  0  0  0
   10.8954  -15.4633   27.4838 C   0  0  2  0  0  0  0  0  0  0  0  0
   10.1512  -14.7299   26.4934 N   0  0  0  0  0  0  0  0  0  0  0  0
   10.2513  -16.7781   27.7339 C   0  0  0  0  0  0  0  0  0  0  0  0
   10.9086  -17.8479   27.8224 O   0  0  0  0  0  0  0  0  0  0  0  0
    8.8645  -16.9184   27.8889 O   0  0  0  0  0  0  0  0  0  0  0  0
  2  1  1  0
  3  2  2  0
  4  2  1  0
  5  4  1  0
  6  7  1  1
  6  5  1  0
  8  6  1  0
  9  8  2  0
 11 12  1  0
 11 10  1  0
 12 14  1  0
 12 13  1  1
 14 15  1  6
 15  8  1  0
 16 17  2  0
 16 14  1  0
 19 21  1  0
 19 18  1  1
 20 19  1  0
 21 22  1  6
 22 16  1  0
 23 21  1  0
 24 23  2  0
 25 23  1  0
M  END
$$$$
