QIV.pdb
     RDKit          3D

 25 24  0  0  1  0  0  0  0  0999 V2000
    8.5461  -12.3145   17.8098 N   0  0  0  0  0  0  0  0  0  0  0  0
    8.0444  -13.6600   17.8729 C   0  0  0  0  0  0  0  0  0  0  0  0
    8.4443  -14.4369   16.9917 O   0  0  0  0  0  0  0  0  0  0  0  0
    7.1260  -13.9823   18.9450 C   0  0  0  0  0  0  0  0  0  0  0  0
    7.5837  -13.7481   20.3496 C   0  0  0  0  0  0  0  0  0  0  0  0
    7.5888  -14.9595   21.1998 C   0  0  2  0  0  0  0  0  0  0  0  0
    6.3370  -15.5912   21.3859 N   0  0  0  0  0  0  0  0  0  0  0  0
    8.3458  -14.7432   22.4884 C   0  0  0  0  0  0  0  0  0  0  0  0
    9.5563  -14.4405   22.4671 O   0  0  0  0  0  0  0  0  0  0  0  0
    6.1496  -11.8344   26.1774 C   0  0  0  0  0  0  0  0  0  0  0  0
    7.1035  -12.5271   25.1737 C   0  0  0  0  0  0  0  0  0  0  0  0
    7.6235  -13.7242   25.8616 C   0  0  2  0  0  0  0  0  0  0  0  0
    8.2908  -13.4258   27.1885 C   0  0  0  0  0  0  0  0  0  0  0  0
    8.3322  -14.7278   25.0394 C   0  0  2  0  0  0  0  0  0  0  0  0
    7.6947  -14.8810   23.7358 N   0  0  0  0  0  0  0  0  0  0  0  0
    8.7804  -15.9867   25.6315 C   0  0  0  0  0  0  0  0  0  0  0  0
    7.9426  -16.9269   25.9289 O   0  0  0  0  0  0  0  0  0  0  0  0
   12.1745  -19.5042   26.4487 C   0  0  0  0  0  0  0  0  0  0  0  0
   11.8038  -18.1379   25.9032 C   0  0  1  0  0  0  0  0  0  0  0  0
   11.6504  -18.2894   24.4051 C   0  0  0  0  0  0  0  0  0  0  0  0
   10.5115  -17.6335   26.4747 C   0  0  2  0  0  0  0  0  0  0  0  0
   10.1037  -16.3577   25.9470 N   0  0  0  0  0  0  0  0  0  0  0  0
   10.5595  -17.5788   27.9583 C   0  0  0  0  0  0  0  0  0  0  0  0
   10.8367  -16.5248   28.5881 O   0  0  0  0  0  0  0  0  0  0  0  0
   10.2989  -18.6991   28.7605 O   0  0  0  0  0  0  0  0  0  0  0  0
  2  1  1  0
  3  2  2  0
  4  2  1  0
  5  4  1  0
  6  7  1  1
  6  5  1  0
  8  6  1  0
  9  8  2  0
 11 12  1  0
 11 10  1  0
 12 14  1  0
 12 13  1  1
 14 15  1  6
 15  8  1  0
 16 17  2  0
 16 14  1  0
 19 21  1  0
 19 18  1  1
 20 19  1  0
 21 22  1  6
 22 16  1  0
 23 21  1  0
 24 23  2  0
 25 23  1  0
M  END
$$$$
