QIV.pdb
     RDKit          3D

 25 24  0  0  1  0  0  0  0  0999 V2000
    5.0540  -19.7778   23.2729 N   0  0  0  0  0  0  0  0  0  0  0  0
    4.5345  -19.2823   22.0276 C   0  0  0  0  0  0  0  0  0  0  0  0
    3.5114  -19.8389   21.5993 O   0  0  0  0  0  0  0  0  0  0  0  0
    5.2457  -18.1930   21.3916 C   0  0  0  0  0  0  0  0  0  0  0  0
    6.4298  -17.6222   22.1052 C   0  0  0  0  0  0  0  0  0  0  0  0
    6.6068  -16.1640   21.9240 C   0  0  2  0  0  0  0  0  0  0  0  0
    6.8313  -15.7271   20.5976 N   0  0  0  0  0  0  0  0  0  0  0  0
    7.5863  -15.5853   22.9171 C   0  0  0  0  0  0  0  0  0  0  0  0
    8.7939  -15.4749   22.6226 O   0  0  0  0  0  0  0  0  0  0  0  0
    6.0585  -11.7523   26.3967 C   0  0  0  0  0  0  0  0  0  0  0  0
    6.9112  -12.5466   25.3773 C   0  0  0  0  0  0  0  0  0  0  0  0
    7.4458  -13.7109   26.1090 C   0  0  2  0  0  0  0  0  0  0  0  0
    8.2570  -13.3435   27.3346 C   0  0  0  0  0  0  0  0  0  0  0  0
    8.0229  -14.8116   25.3085 C   0  0  2  0  0  0  0  0  0  0  0  0
    7.1494  -15.1613   24.1931 N   0  0  0  0  0  0  0  0  0  0  0  0
    8.6335  -15.9646   25.9672 C   0  0  0  0  0  0  0  0  0  0  0  0
    7.9244  -16.8015   26.6536 O   0  0  0  0  0  0  0  0  0  0  0  0
   12.3619  -19.2458   26.5410 C   0  0  0  0  0  0  0  0  0  0  0  0
   11.7929  -18.0102   25.8691 C   0  0  1  0  0  0  0  0  0  0  0  0
   11.4582  -18.3987   24.4451 C   0  0  0  0  0  0  0  0  0  0  0  0
   10.5449  -17.5241   26.5455 C   0  0  2  0  0  0  0  0  0  0  0  0
    9.9953  -16.3302   25.9580 N   0  0  0  0  0  0  0  0  0  0  0  0
   10.7605  -17.3222   28.0011 C   0  0  0  0  0  0  0  0  0  0  0  0
   11.0666  -16.2040   28.4913 O   0  0  0  0  0  0  0  0  0  0  0  0
   10.6377  -18.3650   28.9308 O   0  0  0  0  0  0  0  0  0  0  0  0
  2  1  1  0
  3  2  2  0
  4  2  1  0
  5  4  1  0
  6  7  1  6
  6  5  1  0
  8  6  1  0
  9  8  2  0
 11 12  1  0
 11 10  1  0
 12 14  1  0
 12 13  1  1
 14 15  1  1
 15  8  1  0
 16 17  2  0
 16 14  1  0
 19 21  1  0
 19 18  1  1
 20 19  1  0
 21 22  1  6
 22 16  1  0
 23 21  1  0
 24 23  2  0
 25 23  1  0
M  END
$$$$
