HLH.pdb
     RDKit          3D

 29 30  0  0  1  0  0  0  0  0999 V2000
    9.4659  -15.6148   20.5903 N   0  0  0  0  0  0  0  0  0  0  0  0
    8.7393  -16.4090   21.5406 C   0  0  1  0  0  0  0  0  0  0  0  0
    9.1368  -17.8640   21.4063 C   0  0  0  0  0  0  0  0  0  0  0  0
    8.6871  -18.3962   20.0757 C   0  0  0  0  0  0  0  0  0  0  0  0
    7.4687  -18.1139   19.5222 C   0  0  0  0  0  0  0  0  0  0  0  0
    7.3997  -18.7458   18.3433 N   0  0  0  0  0  0  0  0  0  0  0  0
    8.5486  -19.4089   18.1625 C   0  0  0  0  0  0  0  0  0  0  0  0
    9.3292  -19.1871   19.2302 N   0  0  0  0  0  0  0  0  0  0  0  0
    9.1568  -15.9976   22.9319 C   0  0  0  0  0  0  0  0  0  0  0  0
   10.3633  -15.8212   23.1828 O   0  0  0  0  0  0  0  0  0  0  0  0
    8.0848  -12.3966   25.7079 C   0  0  0  0  0  0  0  0  0  0  0  0
    7.0253  -13.5080   25.6396 C   0  0  2  0  0  0  0  0  0  0  0  0
    5.7361  -13.0272   26.1451 C   0  0  0  0  0  0  0  0  0  0  0  0
    7.5581  -14.8071   26.0390 C   0  0  0  0  0  0  0  0  0  0  0  0
    8.6515  -15.4856   25.3340 C   0  0  2  0  0  0  0  0  0  0  0  0
    8.2048  -15.8105   23.9489 N   0  0  0  0  0  0  0  0  0  0  0  0
    9.3296  -16.6452   25.8908 C   0  0  0  0  0  0  0  0  0  0  0  0
    9.6333  -17.6535   25.1177 O   0  0  0  0  0  0  0  0  0  0  0  0
    9.7267  -16.8119   27.2179 N   0  0  0  0  0  0  0  0  0  0  0  0
   10.5170  -18.0219   27.6103 C   0  0  1  0  0  0  0  0  0  0  0  0
   11.8415  -17.7944   26.9328 C   0  0  0  0  0  0  0  0  0  0  0  0
   11.9996  -18.4211   25.6208 C   0  0  0  0  0  0  0  0  0  0  0  0
   11.2481  -19.3384   24.9503 C   0  0  0  0  0  0  0  0  0  0  0  0
   11.8036  -19.5344   23.7232 N   0  0  0  0  0  0  0  0  0  0  0  0
   12.8809  -18.7497   23.6350 C   0  0  0  0  0  0  0  0  0  0  0  0
   13.0089  -18.0806   24.7590 N   0  0  0  0  0  0  0  0  0  0  0  0
   10.6475  -17.9832   29.0718 C   0  0  0  0  0  0  0  0  0  0  0  0
   11.1779  -18.9976   29.8489 O   0  0  0  0  0  0  0  0  0  0  0  0
   10.2591  -16.9636   29.7166 O   0  0  0  0  0  0  0  0  0  0  0  0
  2  1  1  6
  2  9  1  0
  3  2  1  0
  4  3  1  0
  5  4  2  0
  6  5  1  0
  7  6  1  0
  7  8  2  0
  8  4  1  0
  9 16  1  0
  9 10  2  0
 12 11  1  1
 12 13  1  0
 15 14  1  1
 14 12  1  0
 15 17  1  0
 16 15  1  0
 17 18  2  0
 19 20  1  0
 19 17  1  0
 20 27  1  0
 20 21  1  6
 22 21  1  0
 23 22  2  0
 24 23  1  0
 25 24  1  0
 25 26  2  0
 26 22  1  0
 27 28  1  0
 29 27  2  0
M  END
$$$$
