HLH.pdb
     RDKit          3D

 29 30  0  0  1  0  0  0  0  0999 V2000
   10.1977  -14.0944   20.8661 N   0  0  0  0  0  0  0  0  0  0  0  0
    8.8705  -14.1365   21.4126 C   0  0  1  0  0  0  0  0  0  0  0  0
    8.0614  -15.2114   20.7176 C   0  0  0  0  0  0  0  0  0  0  0  0
    7.8234  -14.8266   19.2854 C   0  0  0  0  0  0  0  0  0  0  0  0
    8.4019  -13.7401   18.6893 C   0  0  0  0  0  0  0  0  0  0  0  0
    7.9751  -13.6952   17.4206 N   0  0  0  0  0  0  0  0  0  0  0  0
    7.1482  -14.7299   17.2263 C   0  0  0  0  0  0  0  0  0  0  0  0
    7.0632  -15.4157   18.3757 N   0  0  0  0  0  0  0  0  0  0  0  0
    8.9580  -14.5611   22.8588 C   0  0  0  0  0  0  0  0  0  0  0  0
   10.0326  -15.0054   23.3032 O   0  0  0  0  0  0  0  0  0  0  0  0
    8.0324  -11.9082   26.6515 C   0  0  0  0  0  0  0  0  0  0  0  0
    6.8103  -12.5499   25.9756 C   0  0  2  0  0  0  0  0  0  0  0  0
    5.5716  -11.9110   26.4295 C   0  0  0  0  0  0  0  0  0  0  0  0
    6.9246  -14.0027   25.8876 C   0  0  0  0  0  0  0  0  0  0  0  0
    8.0096  -14.6882   25.1766 C   0  0  2  0  0  0  0  0  0  0  0  0
    7.8451  -14.4629   23.7118 N   0  0  0  0  0  0  0  0  0  0  0  0
    8.3177  -16.0913   25.4023 C   0  0  0  0  0  0  0  0  0  0  0  0
    7.3975  -16.9979   25.2074 O   0  0  0  0  0  0  0  0  0  0  0  0
    9.5459  -16.6124   25.8103 N   0  0  0  0  0  0  0  0  0  0  0  0
    9.6515  -18.0582   26.1860 C   0  0  1  0  0  0  0  0  0  0  0  0
   11.0389  -18.4244   25.7320 C   0  0  0  0  0  0  0  0  0  0  0  0
   11.2359  -18.4934   24.2843 C   0  0  0  0  0  0  0  0  0  0  0  0
   10.3579  -18.5096   23.2429 C   0  0  0  0  0  0  0  0  0  0  0  0
   11.0685  -18.5107   22.0820 N   0  0  0  0  0  0  0  0  0  0  0  0
   12.3656  -18.4939   22.3998 C   0  0  0  0  0  0  0  0  0  0  0  0
   12.4794  -18.4831   23.7091 N   0  0  0  0  0  0  0  0  0  0  0  0
    9.5298  -18.1229   27.6473 C   0  0  0  0  0  0  0  0  0  0  0  0
    9.3835  -19.2867   28.3812 O   0  0  0  0  0  0  0  0  0  0  0  0
    9.5559  -17.0580   28.3339 O   0  0  0  0  0  0  0  0  0  0  0  0
  2  1  1  6
  2  9  1  0
  3  2  1  0
  4  3  1  0
  5  4  2  0
  6  5  1  0
  7  6  1  0
  7  8  2  0
  8  4  1  0
  9 16  1  0
  9 10  2  0
 12 11  1  1
 12 13  1  0
 15 14  1  1
 14 12  1  0
 15 17  1  0
 16 15  1  0
 17 18  2  0
 19 20  1  0
 19 17  1  0
 20 27  1  0
 20 21  1  1
 22 21  1  0
 23 22  2  0
 24 23  1  0
 25 24  1  0
 25 26  2  0
 26 22  1  0
 27 28  1  0
 29 27  2  0
M  END
$$$$
