HLH.pdb
     RDKit          3D

 29 30  0  0  1  0  0  0  0  0999 V2000
    9.8531  -13.2069   20.3476 N   0  0  0  0  0  0  0  0  0  0  0  0
    8.6340  -13.7715   20.8542 C   0  0  1  0  0  0  0  0  0  0  0  0
    8.3524  -15.0905   20.1656 C   0  0  0  0  0  0  0  0  0  0  0  0
    8.0414  -14.8541   18.7154 C   0  0  0  0  0  0  0  0  0  0  0  0
    8.2127  -13.6482   18.0932 C   0  0  0  0  0  0  0  0  0  0  0  0
    7.8416  -13.7925   16.8144 N   0  0  0  0  0  0  0  0  0  0  0  0
    7.4470  -15.0597   16.6394 C   0  0  0  0  0  0  0  0  0  0  0  0
    7.5739  -15.7002   17.8109 N   0  0  0  0  0  0  0  0  0  0  0  0
    8.8273  -14.1051   22.3138 C   0  0  0  0  0  0  0  0  0  0  0  0
    9.9679  -14.3709   22.7360 O   0  0  0  0  0  0  0  0  0  0  0  0
    7.9537  -11.6287   26.2116 C   0  0  0  0  0  0  0  0  0  0  0  0
    6.7090  -12.2828   25.5911 C   0  0  2  0  0  0  0  0  0  0  0  0
    5.4849  -11.7207   26.1695 C   0  0  0  0  0  0  0  0  0  0  0  0
    6.8700  -13.7228   25.4130 C   0  0  0  0  0  0  0  0  0  0  0  0
    7.9760  -14.3274   24.6620 C   0  0  2  0  0  0  0  0  0  0  0  0
    7.7398  -14.1206   23.2042 N   0  0  0  0  0  0  0  0  0  0  0  0
    8.3972  -15.7025   24.8770 C   0  0  0  0  0  0  0  0  0  0  0  0
    7.6120  -16.6852   24.5242 O   0  0  0  0  0  0  0  0  0  0  0  0
    9.6079  -16.1187   25.4315 N   0  0  0  0  0  0  0  0  0  0  0  0
    9.8955  -17.5814   25.5745 C   0  0  1  0  0  0  0  0  0  0  0  0
   11.3272  -17.6895   25.1233 C   0  0  0  0  0  0  0  0  0  0  0  0
   11.9578  -18.9947   25.3188 C   0  0  0  0  0  0  0  0  0  0  0  0
   11.4866  -20.1709   25.8186 C   0  0  0  0  0  0  0  0  0  0  0  0
   12.4698  -21.1065   25.7147 N   0  0  0  0  0  0  0  0  0  0  0  0
   13.5322  -20.5189   25.1579 C   0  0  0  0  0  0  0  0  0  0  0  0
   13.2404  -19.2603   24.9166 N   0  0  0  0  0  0  0  0  0  0  0  0
    9.7562  -17.8999   27.0005 C   0  0  0  0  0  0  0  0  0  0  0  0
    9.4201  -16.9910   27.9881 O   0  0  0  0  0  0  0  0  0  0  0  0
    9.9479  -19.0848   27.4077 O   0  0  0  0  0  0  0  0  0  0  0  0
  2  1  1  6
  2  9  1  0
  3  2  1  0
  4  3  1  0
  5  4  2  0
  6  5  1  0
  7  6  1  0
  7  8  2  0
  8  4  1  0
  9 16  1  0
  9 10  2  0
 12 11  1  1
 12 13  1  0
 15 14  1  1
 14 12  1  0
 15 17  1  0
 16 15  1  0
 17 18  2  0
 19 20  1  0
 19 17  1  0
 20 27  1  0
 20 21  1  1
 22 21  1  0
 23 22  2  0
 24 23  1  0
 25 24  1  0
 25 26  2  0
 26 22  1  0
 27 28  1  0
 29 27  2  0
M  END
$$$$
