HLH.pdb
     RDKit          3D

 29 30  0  0  1  0  0  0  0  0999 V2000
    9.4748  -16.2692   13.6338 N   0  0  0  0  0  0  0  0  0  0  0  0
    8.6684  -16.4547   14.8073 C   0  0  1  0  0  0  0  0  0  0  0  0
    8.8114  -17.8756   15.3109 C   0  0  0  0  0  0  0  0  0  0  0  0
    7.8721  -18.7795   14.5648 C   0  0  0  0  0  0  0  0  0  0  0  0
    6.6554  -19.1713   15.0513 C   0  0  0  0  0  0  0  0  0  0  0  0
    6.0867  -19.9666   14.1359 N   0  0  0  0  0  0  0  0  0  0  0  0
    6.9279  -20.0706   13.0997 C   0  0  0  0  0  0  0  0  0  0  0  0
    8.0180  -19.3391   13.3740 N   0  0  0  0  0  0  0  0  0  0  0  0
    9.2093  -15.5742   15.9080 C   0  0  0  0  0  0  0  0  0  0  0  0
   10.3363  -15.0602   15.7837 O   0  0  0  0  0  0  0  0  0  0  0  0
    9.1091  -12.0705   19.8605 C   0  0  0  0  0  0  0  0  0  0  0  0
    7.7083  -12.6848   19.7101 C   0  0  2  0  0  0  0  0  0  0  0  0
    7.0715  -12.8510   21.0199 C   0  0  0  0  0  0  0  0  0  0  0  0
    7.6741  -13.7490   18.7112 C   0  0  0  0  0  0  0  0  0  0  0  0
    8.8615  -14.2222   17.9910 C   0  0  2  0  0  0  0  0  0  0  0  0
    8.4607  -15.3255   17.0713 N   0  0  0  0  0  0  0  0  0  0  0  0
   10.0822  -14.6084   18.6805 C   0  0  0  0  0  0  0  0  0  0  0  0
   10.7877  -13.7052   19.3074 O   0  0  0  0  0  0  0  0  0  0  0  0
   10.6094  -15.8972   18.7678 N   0  0  0  0  0  0  0  0  0  0  0  0
   11.8514  -16.1389   19.5690 C   0  0  1  0  0  0  0  0  0  0  0  0
   12.6425  -14.8768   19.3542 C   0  0  0  0  0  0  0  0  0  0  0  0
   13.9545  -14.8321   19.9992 C   0  0  0  0  0  0  0  0  0  0  0  0
   14.3634  -15.1463   21.2600 C   0  0  0  0  0  0  0  0  0  0  0  0
   15.7142  -14.9915   21.3246 N   0  0  0  0  0  0  0  0  0  0  0  0
   16.1348  -14.5893   20.1224 C   0  0  0  0  0  0  0  0  0  0  0  0
   15.0961  -14.4907   19.3230 N   0  0  0  0  0  0  0  0  0  0  0  0
   11.4292  -16.2768   20.9680 C   0  0  0  0  0  0  0  0  0  0  0  0
   10.1161  -16.2903   21.4036 O   0  0  0  0  0  0  0  0  0  0  0  0
   12.2972  -16.3962   21.8838 O   0  0  0  0  0  0  0  0  0  0  0  0
  2  1  1  6
  2  9  1  0
  3  2  1  0
  4  3  1  0
  5  4  2  0
  6  5  1  0
  7  6  1  0
  7  8  2  0
  8  4  1  0
  9 16  1  0
  9 10  2  0
 12 11  1  1
 12 13  1  0
 15 14  1  1
 14 12  1  0
 15 17  1  0
 16 15  1  0
 17 18  2  0
 19 20  1  0
 19 17  1  0
 20 27  1  0
 20 21  1  1
 22 21  1  0
 23 22  2  0
 24 23  1  0
 25 24  1  0
 25 26  2  0
 26 22  1  0
 27 28  1  0
 29 27  2  0
M  END
$$$$
