HLH.pdb
     RDKit          3D

 29 30  0  0  1  0  0  0  0  0999 V2000
   11.7008  -16.3920   14.2567 N   0  0  0  0  0  0  0  0  0  0  0  0
   11.1143  -16.9368   15.4487 C   0  0  1  0  0  0  0  0  0  0  0  0
   12.0186  -18.0061   16.0250 C   0  0  0  0  0  0  0  0  0  0  0  0
   12.0192  -19.2121   15.1299 C   0  0  0  0  0  0  0  0  0  0  0  0
   10.9950  -19.5203   14.2774 C   0  0  0  0  0  0  0  0  0  0  0  0
   11.3228  -20.6503   13.6374 N   0  0  0  0  0  0  0  0  0  0  0  0
   12.5247  -21.0410   14.0788 C   0  0  0  0  0  0  0  0  0  0  0  0
   12.9411  -20.1522   14.9927 N   0  0  0  0  0  0  0  0  0  0  0  0
   11.0489  -15.8495   16.4941 C   0  0  0  0  0  0  0  0  0  0  0  0
   11.9676  -15.0126   16.5665 O   0  0  0  0  0  0  0  0  0  0  0  0
    6.6640  -13.4534   20.0533 C   0  0  0  0  0  0  0  0  0  0  0  0
    8.1595  -13.3551   19.7129 C   0  0  2  0  0  0  0  0  0  0  0  0
    8.5899  -11.9547   19.6662 C   0  0  0  0  0  0  0  0  0  0  0  0
    8.5556  -14.3037   18.6762 C   0  0  0  0  0  0  0  0  0  0  0  0
    9.9460  -14.7039   18.4330 C   0  0  2  0  0  0  0  0  0  0  0  0
    9.9668  -15.7669   17.3875 N   0  0  0  0  0  0  0  0  0  0  0  0
   10.8399  -15.0920   19.5123 C   0  0  0  0  0  0  0  0  0  0  0  0
   10.8340  -14.4216   20.6335 O   0  0  0  0  0  0  0  0  0  0  0  0
   11.7398  -16.1580   19.4969 N   0  0  0  0  0  0  0  0  0  0  0  0
   12.4045  -16.5874   20.7683 C   0  0  1  0  0  0  0  0  0  0  0  0
   11.2632  -17.1491   21.5727 C   0  0  0  0  0  0  0  0  0  0  0  0
   11.2508  -16.7937   22.9914 C   0  0  0  0  0  0  0  0  0  0  0  0
   11.9994  -15.9199   23.7206 C   0  0  0  0  0  0  0  0  0  0  0  0
   11.5325  -15.9171   24.9992 N   0  0  0  0  0  0  0  0  0  0  0  0
   10.5101  -16.7745   25.0600 C   0  0  0  0  0  0  0  0  0  0  0  0
   10.3315  -17.3035   23.8702 N   0  0  0  0  0  0  0  0  0  0  0  0
   13.3711  -17.6309   20.4060 C   0  0  0  0  0  0  0  0  0  0  0  0
   14.4406  -18.0289   21.1883 O   0  0  0  0  0  0  0  0  0  0  0  0
   13.2592  -18.2436   19.3022 O   0  0  0  0  0  0  0  0  0  0  0  0
  2  1  1  6
  2  9  1  0
  3  2  1  0
  4  3  1  0
  5  4  2  0
  6  5  1  0
  7  6  1  0
  7  8  2  0
  8  4  1  0
  9 16  1  0
  9 10  2  0
 12 11  1  6
 12 13  1  0
 15 14  1  1
 14 12  1  0
 15 17  1  0
 16 15  1  0
 17 18  2  0
 19 20  1  0
 19 17  1  0
 20 27  1  0
 20 21  1  1
 22 21  1  0
 23 22  2  0
 24 23  1  0
 25 24  1  0
 25 26  2  0
 26 22  1  0
 27 28  1  0
 29 27  2  0
M  END
$$$$
