AGR.pdb
     RDKit          3D

 21 20  0  0  1  0  0  0  0  0999 V2000
    8.8102  -13.5524   17.9416 C   0  0  0  0  0  0  0  0  0  0  0  0
    7.7312  -13.7385   19.0163 C   0  0  2  0  0  0  0  0  0  0  0  0
    7.8330  -12.6895   20.0093 N   0  0  0  0  0  0  0  0  0  0  0  0
    7.9335  -15.0407   19.6725 C   0  0  0  0  0  0  0  0  0  0  0  0
    7.6639  -16.0898   18.9853 O   0  0  0  0  0  0  0  0  0  0  0  0
    8.4024  -15.1904   20.9996 N   0  0  0  0  0  0  0  0  0  0  0  0
    8.4887  -16.4948   21.5746 C   0  0  0  0  0  0  0  0  0  0  0  0
    9.0533  -16.5028   22.9377 C   0  0  0  0  0  0  0  0  0  0  0  0
    8.5345  -15.7574   23.8288 O   0  0  0  0  0  0  0  0  0  0  0  0
   13.9936  -21.7080   28.8172 N   0  0  0  0  0  0  0  0  0  0  0  0
   12.6220  -21.3629   28.9146 C   0  0  0  0  0  0  0  0  0  0  0  0
   11.8530  -22.0937   29.6331 N   0  0  0  0  0  0  0  0  0  0  0  0
   12.0895  -20.2437   28.2446 N   0  0  0  0  0  0  0  0  0  0  0  0
   12.2941  -20.0833   26.8338 C   0  0  0  0  0  0  0  0  0  0  0  0
   11.6960  -18.7223   26.4645 C   0  0  0  0  0  0  0  0  0  0  0  0
   11.1967  -18.6632   25.0580 C   0  0  0  0  0  0  0  0  0  0  0  0
   10.6989  -17.3147   24.6954 C   0  0  2  0  0  0  0  0  0  0  0  0
   10.1510  -17.2951   23.3333 N   0  0  0  0  0  0  0  0  0  0  0  0
   11.6585  -16.2587   24.9176 C   0  0  0  0  0  0  0  0  0  0  0  0
   12.3163  -15.8015   23.9208 O   0  0  0  0  0  0  0  0  0  0  0  0
   11.9157  -15.7028   26.1381 O   0  0  0  0  0  0  0  0  0  0  0  0
  2  1  1  6
  2  4  1  0
  2  3  1  0
  4  5  2  0
  6  4  1  0
  6  7  1  0
  7  8  1  0
  8  9  2  0
 10 11  1  0
 11 13  1  0
 11 12  2  0
 13 14  1  0
 14 15  1  0
 15 16  1  0
 17 16  1  6
 17 19  1  0
 18  8  1  0
 18 17  1  0
 19 21  1  0
 20 19  2  0
M  END
$$$$
