AGR.pdb
     RDKit          3D

 21 20  0  0  1  0  0  0  0  0999 V2000
    7.9734  -14.7067   16.2834 C   0  0  0  0  0  0  0  0  0  0  0  0
    8.0583  -14.5861   17.8105 C   0  0  2  0  0  0  0  0  0  0  0  0
    7.4079  -13.3691   18.2497 N   0  0  0  0  0  0  0  0  0  0  0  0
    9.4758  -14.5413   18.2057 C   0  0  0  0  0  0  0  0  0  0  0  0
   10.2125  -15.5303   17.8530 O   0  0  0  0  0  0  0  0  0  0  0  0
   10.0559  -13.4806   18.9417 N   0  0  0  0  0  0  0  0  0  0  0  0
   11.4484  -13.5187   19.2562 C   0  0  0  0  0  0  0  0  0  0  0  0
   11.7564  -14.2832   20.4799 C   0  0  0  0  0  0  0  0  0  0  0  0
   12.9619  -14.3541   20.8806 O   0  0  0  0  0  0  0  0  0  0  0  0
    5.8265  -13.9307   26.3350 N   0  0  0  0  0  0  0  0  0  0  0  0
    6.6085  -12.8846   25.7837 C   0  0  0  0  0  0  0  0  0  0  0  0
    6.3086  -11.6732   26.0740 N   0  0  0  0  0  0  0  0  0  0  0  0
    7.6991  -13.1446   24.9304 N   0  0  0  0  0  0  0  0  0  0  0  0
    8.0939  -14.4962   24.6563 C   0  0  0  0  0  0  0  0  0  0  0  0
    9.3648  -14.4089   23.8057 C   0  0  0  0  0  0  0  0  0  0  0  0
    9.8730  -15.7447   23.3716 C   0  0  0  0  0  0  0  0  0  0  0  0
   11.0836  -15.6360   22.5230 C   0  0  2  0  0  0  0  0  0  0  0  0
   10.7892  -14.9559   21.2554 N   0  0  0  0  0  0  0  0  0  0  0  0
   11.7741  -16.8892   22.3274 C   0  0  0  0  0  0  0  0  0  0  0  0
   11.6191  -17.5144   21.2227 O   0  0  0  0  0  0  0  0  0  0  0  0
   12.5970  -17.4623   23.2543 O   0  0  0  0  0  0  0  0  0  0  0  0
  2  1  1  6
  2  4  1  0
  2  3  1  0
  4  5  2  0
  6  4  1  0
  6  7  1  0
  7  8  1  0
  8  9  2  0
 10 11  1  0
 11 13  1  0
 11 12  2  0
 13 14  1  0
 14 15  1  0
 15 16  1  0
 17 16  1  6
 17 19  1  0
 18  8  1  0
 18 17  1  0
 19 21  1  0
 20 19  2  0
M  END
$$$$
