AGR.pdb
     RDKit          3D

 21 20  0  0  1  0  0  0  0  0999 V2000
    8.4552  -22.5699   18.1148 C   0  0  0  0  0  0  0  0  0  0  0  0
    8.7879  -21.0756   18.0143 C   0  0  2  0  0  0  0  0  0  0  0  0
   10.1015  -20.8972   17.4316 N   0  0  0  0  0  0  0  0  0  0  0  0
    8.7811  -20.4952   19.3673 C   0  0  0  0  0  0  0  0  0  0  0  0
    7.8999  -19.5961   19.6133 O   0  0  0  0  0  0  0  0  0  0  0  0
    9.6818  -20.8730   20.3917 N   0  0  0  0  0  0  0  0  0  0  0  0
    9.5149  -20.3449   21.7081 C   0  0  0  0  0  0  0  0  0  0  0  0
   10.4355  -19.2349   22.0199 C   0  0  0  0  0  0  0  0  0  0  0  0
   11.6612  -19.3346   21.6930 O   0  0  0  0  0  0  0  0  0  0  0  0
    6.7841  -12.4500   20.1711 N   0  0  0  0  0  0  0  0  0  0  0  0
    7.6206  -13.1724   19.2833 C   0  0  0  0  0  0  0  0  0  0  0  0
    7.5047  -12.9669   18.0239 N   0  0  0  0  0  0  0  0  0  0  0  0
    8.5689  -14.1040   19.7505 N   0  0  0  0  0  0  0  0  0  0  0  0
    8.7480  -14.3055   21.1594 C   0  0  0  0  0  0  0  0  0  0  0  0
    9.8448  -15.3646   21.3064 C   0  0  0  0  0  0  0  0  0  0  0  0
   10.2318  -15.6150   22.7272 C   0  0  0  0  0  0  0  0  0  0  0  0
   10.9434  -16.9045   22.8962 C   0  0  2  0  0  0  0  0  0  0  0  0
   10.0464  -18.0444   22.6684 N   0  0  0  0  0  0  0  0  0  0  0  0
   11.6663  -17.0137   24.1416 C   0  0  0  0  0  0  0  0  0  0  0  0
   11.1678  -17.7173   25.0859 O   0  0  0  0  0  0  0  0  0  0  0  0
   12.8666  -16.4098   24.3851 O   0  0  0  0  0  0  0  0  0  0  0  0
  2  1  1  1
  2  4  1  0
  2  3  1  0
  4  5  2  0
  6  4  1  0
  6  7  1  0
  7  8  1  0
  8  9  2  0
 10 11  1  0
 11 13  1  0
 11 12  2  0
 13 14  1  0
 14 15  1  0
 15 16  1  0
 17 16  1  1
 17 19  1  0
 18  8  1  0
 18 17  1  0
 19 21  1  0
 20 19  2  0
M  END
$$$$
