AGR.pdb
     RDKit          3D

 21 20  0  0  1  0  0  0  0  0999 V2000
    7.2012  -12.5990   19.3024 C   0  0  0  0  0  0  0  0  0  0  0  0
    8.5226  -13.3777   19.2650 C   0  0  2  0  0  0  0  0  0  0  0  0
    8.6710  -14.0432   17.9876 N   0  0  0  0  0  0  0  0  0  0  0  0
    8.5080  -14.3901   20.3339 C   0  0  0  0  0  0  0  0  0  0  0  0
    8.3485  -13.9696   21.5352 O   0  0  0  0  0  0  0  0  0  0  0  0
    8.6582  -15.7790   20.1063 N   0  0  0  0  0  0  0  0  0  0  0  0
    8.4560  -16.6962   21.1820 C   0  0  0  0  0  0  0  0  0  0  0  0
    9.3829  -16.4943   22.3121 C   0  0  0  0  0  0  0  0  0  0  0  0
   10.6007  -16.2133   22.0735 O   0  0  0  0  0  0  0  0  0  0  0  0
    4.8964  -12.8545   26.5646 N   0  0  0  0  0  0  0  0  0  0  0  0
    6.0075  -12.0545   26.1971 C   0  0  0  0  0  0  0  0  0  0  0  0
    5.8724  -10.7803   26.1879 N   0  0  0  0  0  0  0  0  0  0  0  0
    7.2471  -12.6239   25.8444 N   0  0  0  0  0  0  0  0  0  0  0  0
    7.3963  -14.0496   25.7905 C   0  0  0  0  0  0  0  0  0  0  0  0
    8.8713  -14.3161   25.4746 C   0  0  0  0  0  0  0  0  0  0  0  0
    9.3271  -15.6726   25.9027 C   0  0  0  0  0  0  0  0  0  0  0  0
    9.9423  -16.4350   24.7900 C   0  0  2  0  0  0  0  0  0  0  0  0
    9.0080  -16.5921   23.6683 N   0  0  0  0  0  0  0  0  0  0  0  0
   10.5296  -17.6900   25.1967 C   0  0  0  0  0  0  0  0  0  0  0  0
   11.4639  -17.6811   26.0698 O   0  0  0  0  0  0  0  0  0  0  0  0
   10.1493  -18.9070   24.7077 O   0  0  0  0  0  0  0  0  0  0  0  0
  2  1  1  6
  2  4  1  0
  2  3  1  0
  4  5  2  0
  6  4  1  0
  6  7  1  0
  7  8  1  0
  8  9  2  0
 10 11  1  0
 11 13  1  0
 11 12  2  0
 13 14  1  0
 14 15  1  0
 15 16  1  0
 17 16  1  1
 17 19  1  0
 18  8  1  0
 18 17  1  0
 19 21  1  0
 20 19  2  0
M  END
$$$$
