AGR.pdb
     RDKit          3D

 21 20  0  0  1  0  0  0  0  0999 V2000
   11.5273  -22.4266   23.0978 C   0  0  0  0  0  0  0  0  0  0  0  0
   12.5114  -21.6919   22.1783 C   0  0  2  0  0  0  0  0  0  0  0  0
   13.6699  -21.2616   22.9330 N   0  0  0  0  0  0  0  0  0  0  0  0
   11.8413  -20.5091   21.6131 C   0  0  0  0  0  0  0  0  0  0  0  0
   10.5586  -20.5065   21.6165 O   0  0  0  0  0  0  0  0  0  0  0  0
   12.5292  -19.3947   21.0763 N   0  0  0  0  0  0  0  0  0  0  0  0
   11.7874  -18.2820   20.5750 C   0  0  0  0  0  0  0  0  0  0  0  0
   11.5518  -17.2284   21.5806 C   0  0  0  0  0  0  0  0  0  0  0  0
   12.4000  -16.2883   21.7050 O   0  0  0  0  0  0  0  0  0  0  0  0
    8.2125  -12.9156   17.8241 N   0  0  0  0  0  0  0  0  0  0  0  0
    7.9648  -13.0164   19.2163 C   0  0  0  0  0  0  0  0  0  0  0  0
    8.2782  -12.0291   19.9704 N   0  0  0  0  0  0  0  0  0  0  0  0
    7.3865  -14.1685   19.7852 N   0  0  0  0  0  0  0  0  0  0  0  0
    7.3812  -14.3445   21.2089 C   0  0  0  0  0  0  0  0  0  0  0  0
    8.7298  -14.9753   21.5692 C   0  0  0  0  0  0  0  0  0  0  0  0
    8.7891  -15.4682   22.9780 C   0  0  0  0  0  0  0  0  0  0  0  0
   10.1086  -16.0555   23.3121 C   0  0  2  0  0  0  0  0  0  0  0  0
   10.4287  -17.1870   22.4329 N   0  0  0  0  0  0  0  0  0  0  0  0
   10.2648  -16.3835   24.7098 C   0  0  0  0  0  0  0  0  0  0  0  0
   10.0049  -17.5738   25.0980 O   0  0  0  0  0  0  0  0  0  0  0  0
   10.6798  -15.4971   25.6621 O   0  0  0  0  0  0  0  0  0  0  0  0
  2  1  1  1
  2  4  1  0
  2  3  1  0
  4  5  2  0
  6  4  1  0
  6  7  1  0
  7  8  1  0
  8  9  2  0
 10 11  1  0
 11 13  1  0
 11 12  2  0
 13 14  1  0
 14 15  1  0
 15 16  1  0
 17 16  1  1
 17 19  1  0
 18  8  1  0
 18 17  1  0
 19 21  1  0
 20 19  2  0
M  END
$$$$
