AGR.pdb
     RDKit          3D

 21 20  0  0  1  0  0  0  0  0999 V2000
    9.4848  -19.7662   15.9758 C   0  0  0  0  0  0  0  0  0  0  0  0
   10.3842  -19.0307   16.9779 C   0  0  2  0  0  0  0  0  0  0  0  0
   11.0766  -19.9856   17.8179 N   0  0  0  0  0  0  0  0  0  0  0  0
    9.5450  -18.1673   17.8250 C   0  0  0  0  0  0  0  0  0  0  0  0
    9.0652  -17.1073   17.2852 O   0  0  0  0  0  0  0  0  0  0  0  0
    9.2465  -18.4435   19.1807 N   0  0  0  0  0  0  0  0  0  0  0  0
    8.3440  -17.5951   19.8916 C   0  0  0  0  0  0  0  0  0  0  0  0
    8.8771  -17.1143   21.1805 C   0  0  0  0  0  0  0  0  0  0  0  0
    9.9963  -17.5569   21.5932 O   0  0  0  0  0  0  0  0  0  0  0  0
   10.5711  -15.7535   28.5299 N   0  0  0  0  0  0  0  0  0  0  0  0
   10.0573  -14.4405   28.3823 C   0  0  0  0  0  0  0  0  0  0  0  0
   10.1391  -13.6324   29.3733 N   0  0  0  0  0  0  0  0  0  0  0  0
    9.4632  -14.0073   27.1804 N   0  0  0  0  0  0  0  0  0  0  0  0
    8.8993  -14.9618   26.2700 C   0  0  0  0  0  0  0  0  0  0  0  0
    8.2629  -14.1513   25.1367 C   0  0  0  0  0  0  0  0  0  0  0  0
    7.6622  -15.0065   24.0695 C   0  0  0  0  0  0  0  0  0  0  0  0
    8.6827  -15.8055   23.3499 C   0  0  2  0  0  0  0  0  0  0  0  0
    8.2211  -16.1783   22.0068 N   0  0  0  0  0  0  0  0  0  0  0  0
    9.1706  -16.9400   24.0984 C   0  0  0  0  0  0  0  0  0  0  0  0
    8.4126  -17.9604   24.2382 O   0  0  0  0  0  0  0  0  0  0  0  0
   10.4066  -17.0018   24.6756 O   0  0  0  0  0  0  0  0  0  0  0  0
  2  1  1  6
  2  4  1  0
  2  3  1  0
  4  5  2  0
  6  4  1  0
  6  7  1  0
  7  8  1  0
  8  9  2  0
 10 11  1  0
 11 13  1  0
 11 12  2  0
 13 14  1  0
 14 15  1  0
 15 16  1  0
 17 16  1  1
 17 19  1  0
 18  8  1  0
 18 17  1  0
 19 21  1  0
 20 19  2  0
M  END
$$$$
