AGR.pdb
     RDKit          3D

 21 20  0  0  1  0  0  0  0  0999 V2000
    8.6363  -20.0030   17.2689 C   0  0  0  0  0  0  0  0  0  0  0  0
    9.4491  -18.8715   17.9114 C   0  0  2  0  0  0  0  0  0  0  0  0
   10.7751  -18.8212   17.3318 N   0  0  0  0  0  0  0  0  0  0  0  0
    9.5670  -19.1318   19.3557 C   0  0  0  0  0  0  0  0  0  0  0  0
    8.4929  -19.0567   20.0528 O   0  0  0  0  0  0  0  0  0  0  0  0
   10.7841  -19.4553   20.0016 N   0  0  0  0  0  0  0  0  0  0  0  0
   10.7784  -19.7939   21.3890 C   0  0  0  0  0  0  0  0  0  0  0  0
   11.1725  -18.6784   22.2705 C   0  0  0  0  0  0  0  0  0  0  0  0
   12.4065  -18.3979   22.4027 O   0  0  0  0  0  0  0  0  0  0  0  0
    6.3665  -13.5457   20.0713 N   0  0  0  0  0  0  0  0  0  0  0  0
    7.7230  -13.4446   19.6720 C   0  0  0  0  0  0  0  0  0  0  0  0
    7.9947  -12.8884   18.5502 N   0  0  0  0  0  0  0  0  0  0  0  0
    8.7710  -13.9381   20.4742 N   0  0  0  0  0  0  0  0  0  0  0  0
    8.4797  -14.6082   21.7087 C   0  0  0  0  0  0  0  0  0  0  0  0
    9.8319  -14.9406   22.3471 C   0  0  0  0  0  0  0  0  0  0  0  0
    9.7044  -15.6097   23.6764 C   0  0  0  0  0  0  0  0  0  0  0  0
   10.6512  -16.7402   23.8288 C   0  0  2  0  0  0  0  0  0  0  0  0
   10.2597  -17.8824   22.9933 N   0  0  0  0  0  0  0  0  0  0  0  0
   10.8916  -17.1195   25.2014 C   0  0  0  0  0  0  0  0  0  0  0  0
   10.4526  -18.2463   25.6171 O   0  0  0  0  0  0  0  0  0  0  0  0
   11.5684  -16.3471   26.1014 O   0  0  0  0  0  0  0  0  0  0  0  0
  2  1  1  6
  2  4  1  0
  2  3  1  0
  4  5  2  0
  6  4  1  0
  6  7  1  0
  7  8  1  0
  8  9  2  0
 10 11  1  0
 11 13  1  0
 11 12  2  0
 13 14  1  0
 14 15  1  0
 15 16  1  0
 17 16  1  1
 17 19  1  0
 18  8  1  0
 18 17  1  0
 19 21  1  0
 20 19  2  0
M  END
$$$$
