KNV.pdb
     RDKit          3D

 25 24  0  0  1  0  0  0  0  0999 V2000
   20.5774  -21.7768  -13.9421 N   0  0  0  0  0  0  0  0  0  0  0  0
   20.4275  -21.1024  -12.6632 C   0  0  1  0  0  0  0  0  0  0  0  0
   20.2861  -22.1868  -11.6187 C   0  0  0  0  0  0  0  0  0  0  0  0
   19.0993  -23.0482  -12.0237 C   0  0  0  0  0  0  0  0  0  0  0  0
   18.2301  -23.3771  -10.8287 C   0  0  0  0  0  0  0  0  0  0  0  0
   18.8131  -24.5527  -10.1121 C   0  0  0  0  0  0  0  0  0  0  0  0
   17.9725  -24.8241   -8.9358 N   0  0  0  0  0  0  0  0  0  0  0  0
   21.5903  -20.2168  -12.3837 C   0  0  0  0  0  0  0  0  0  0  0  0
   21.7358  -19.7149  -11.2350 O   0  0  0  0  0  0  0  0  0  0  0  0
   26.3787  -21.9613  -11.1279 N   0  0  0  0  0  0  0  0  0  0  0  0
   25.7417  -21.5896  -12.3355 C   0  0  0  0  0  0  0  0  0  0  0  0
   26.4310  -21.4131  -13.4060 O   0  0  0  0  0  0  0  0  0  0  0  0
   24.2933  -21.3735  -12.4896 C   0  0  0  0  0  0  0  0  0  0  0  0
   24.0234  -20.0326  -13.0945 C   0  0  2  0  0  0  0  0  0  0  0  0
   22.5640  -19.8982  -13.3542 N   0  0  0  0  0  0  0  0  0  0  0  0
   24.7521  -19.7111  -14.3239 C   0  0  0  0  0  0  0  0  0  0  0  0
   24.5759  -20.4588  -15.3573 O   0  0  0  0  0  0  0  0  0  0  0  0
   25.9903  -15.7112  -15.0822 C   0  0  0  0  0  0  0  0  0  0  0  0
   26.6148  -16.7960  -15.9080 C   0  0  2  0  0  0  0  0  0  0  0  0
   26.9202  -16.3260  -17.3264 C   0  0  0  0  0  0  0  0  0  0  0  0
   25.9314  -18.0971  -15.8489 C   0  0  2  0  0  0  0  0  0  0  0  0
   25.6519  -18.6787  -14.5869 N   0  0  0  0  0  0  0  0  0  0  0  0
   26.6672  -19.0680  -16.6845 C   0  0  0  0  0  0  0  0  0  0  0  0
   26.6961  -18.8998  -18.0538 O   0  0  0  0  0  0  0  0  0  0  0  0
   27.2814  -20.0593  -16.2082 O   0  0  0  0  0  0  0  0  0  0  0  0
  2  3  1  0
  2  1  1  6
  4  3  1  0
  5  4  1  0
  6  5  1  0
  7  6  1  0
  8  9  2  0
  8  2  1  0
 10 11  1  0
 11 13  1  0
 12 11  2  0
 14 13  1  6
 14 15  1  0
 15  8  1  0
 16 14  1  0
 16 17  2  0
 19 18  1  6
 20 19  1  0
 21 19  1  0
 21 22  1  1
 22 16  1  0
 23 21  1  0
 24 23  1  0
 25 23  2  0
M  END
$$$$
