KNV.pdb
     RDKit          3D

 25 24  0  0  1  0  0  0  0  0999 V2000
   20.3069  -21.6208  -14.1982 N   0  0  0  0  0  0  0  0  0  0  0  0
   20.6052  -20.2136  -14.4070 C   0  0  1  0  0  0  0  0  0  0  0  0
   19.5216  -19.4338  -13.6967 C   0  0  0  0  0  0  0  0  0  0  0  0
   18.2023  -19.7847  -14.3682 C   0  0  0  0  0  0  0  0  0  0  0  0
   18.3978  -20.0654  -15.8429 C   0  0  0  0  0  0  0  0  0  0  0  0
   17.0588  -20.2195  -16.4903 C   0  0  0  0  0  0  0  0  0  0  0  0
   17.2795  -20.6001  -17.8940 N   0  0  0  0  0  0  0  0  0  0  0  0
   21.9586  -19.8696  -13.8926 C   0  0  0  0  0  0  0  0  0  0  0  0
   22.3380  -18.6662  -13.8787 O   0  0  0  0  0  0  0  0  0  0  0  0
   26.9093  -20.2497  -12.0941 N   0  0  0  0  0  0  0  0  0  0  0  0
   26.0393  -21.1664  -11.4579 C   0  0  0  0  0  0  0  0  0  0  0  0
   26.4605  -21.8939  -10.4855 O   0  0  0  0  0  0  0  0  0  0  0  0
   24.6285  -21.3779  -11.8228 C   0  0  0  0  0  0  0  0  0  0  0  0
   24.2407  -20.4877  -12.9604 C   0  0  2  0  0  0  0  0  0  0  0  0
   22.8645  -20.8367  -13.4071 N   0  0  0  0  0  0  0  0  0  0  0  0
   25.1289  -20.4907  -14.1252 C   0  0  0  0  0  0  0  0  0  0  0  0
   25.1684  -21.5428  -14.8664 O   0  0  0  0  0  0  0  0  0  0  0  0
   28.1977  -17.5290  -15.6099 C   0  0  0  0  0  0  0  0  0  0  0  0
   27.0913  -18.1674  -16.3954 C   0  0  2  0  0  0  0  0  0  0  0  0
   25.9721  -17.1793  -16.7070 C   0  0  0  0  0  0  0  0  0  0  0  0
   26.6151  -19.4557  -15.8691 C   0  0  2  0  0  0  0  0  0  0  0  0
   25.9854  -19.4980  -14.6000 N   0  0  0  0  0  0  0  0  0  0  0  0
   27.7251  -20.4301  -15.8989 C   0  0  0  0  0  0  0  0  0  0  0  0
   28.2913  -20.7766  -17.1086 O   0  0  0  0  0  0  0  0  0  0  0  0
   28.1926  -20.9724  -14.8625 O   0  0  0  0  0  0  0  0  0  0  0  0
  2  3  1  0
  2  1  1  1
  4  3  1  0
  5  4  1  0
  6  5  1  0
  7  6  1  0
  8  9  2  0
  8  2  1  0
 10 11  1  0
 11 13  1  0
 12 11  2  0
 14 13  1  1
 14 15  1  0
 15  8  1  0
 16 14  1  0
 16 17  2  0
 19 18  1  1
 20 19  1  0
 21 19  1  0
 21 22  1  1
 22 16  1  0
 23 21  1  0
 24 23  1  0
 25 23  2  0
M  END
$$$$
