KNV.pdb
     RDKit          3D

 25 24  0  0  1  0  0  0  0  0999 V2000
   16.3778  -12.2729  -14.7185 N   0  0  0  0  0  0  0  0  0  0  0  0
   15.8598  -10.9172  -14.7996 C   0  0  1  0  0  0  0  0  0  0  0  0
   14.3543  -11.0254  -14.7079 C   0  0  0  0  0  0  0  0  0  0  0  0
   13.8613  -11.5697  -16.0403 C   0  0  0  0  0  0  0  0  0  0  0  0
   12.3517  -11.6808  -16.0601 C   0  0  0  0  0  0  0  0  0  0  0  0
   11.9198  -12.2009  -17.3937 C   0  0  0  0  0  0  0  0  0  0  0  0
   10.4531  -12.3130  -17.3787 N   0  0  0  0  0  0  0  0  0  0  0  0
   16.4177  -10.0636  -13.7157 C   0  0  0  0  0  0  0  0  0  0  0  0
   16.6357  -10.5588  -12.5756 O   0  0  0  0  0  0  0  0  0  0  0  0
   19.7470   -9.0732  -13.6564 N   0  0  0  0  0  0  0  0  0  0  0  0
   19.5628   -7.6789  -13.8114 C   0  0  0  0  0  0  0  0  0  0  0  0
   20.4959   -6.9524  -14.3153 O   0  0  0  0  0  0  0  0  0  0  0  0
   18.3447   -6.9445  -13.4303 C   0  0  0  0  0  0  0  0  0  0  0  0
   17.3412   -7.8713  -12.8213 C   0  0  2  0  0  0  0  0  0  0  0  0
   16.7246   -8.6978  -13.8945 N   0  0  0  0  0  0  0  0  0  0  0  0
   16.2739   -7.2521  -12.0318 C   0  0  0  0  0  0  0  0  0  0  0  0
   15.2805   -6.7172  -12.6522 O   0  0  0  0  0  0  0  0  0  0  0  0
   13.5252   -6.4128   -7.9616 C   0  0  0  0  0  0  0  0  0  0  0  0
   14.7745   -6.9810   -8.5659 C   0  0  2  0  0  0  0  0  0  0  0  0
   15.9735   -6.8350   -7.6348 C   0  0  0  0  0  0  0  0  0  0  0  0
   15.0444   -6.5625   -9.9499 C   0  0  2  0  0  0  0  0  0  0  0  0
   16.1360   -7.1356  -10.6490 N   0  0  0  0  0  0  0  0  0  0  0  0
   15.1497   -5.0898   -9.9978 C   0  0  0  0  0  0  0  0  0  0  0  0
   14.0148   -4.3227   -9.8323 O   0  0  0  0  0  0  0  0  0  0  0  0
   16.2380   -4.4836  -10.1846 O   0  0  0  0  0  0  0  0  0  0  0  0
  2  3  1  0
  2  1  1  1
  4  3  1  0
  5  4  1  0
  6  5  1  0
  7  6  1  0
  8  9  2  0
  8  2  1  0
 10 11  1  0
 11 13  1  0
 12 11  2  0
 14 13  1  6
 14 15  1  0
 15  8  1  0
 16 14  1  0
 16 17  2  0
 19 18  1  1
 20 19  1  0
 21 19  1  0
 21 22  1  1
 22 16  1  0
 23 21  1  0
 24 23  1  0
 25 23  2  0
M  END
$$$$
