KNV.pdb
     RDKit          3D

 25 24  0  0  1  0  0  0  0  0999 V2000
   20.0149  -20.1994  -15.3572 N   0  0  0  0  0  0  0  0  0  0  0  0
   20.6137  -21.0022  -14.3038 C   0  0  1  0  0  0  0  0  0  0  0  0
   20.2615  -22.4414  -14.6065 C   0  0  0  0  0  0  0  0  0  0  0  0
   18.9489  -22.4302  -15.3756 C   0  0  0  0  0  0  0  0  0  0  0  0
   17.7888  -22.0729  -14.4710 C   0  0  0  0  0  0  0  0  0  0  0  0
   16.9694  -23.2988  -14.2238 C   0  0  0  0  0  0  0  0  0  0  0  0
   15.9520  -22.9635  -13.2157 N   0  0  0  0  0  0  0  0  0  0  0  0
   22.0863  -20.7966  -14.2433 C   0  0  0  0  0  0  0  0  0  0  0  0
   22.8099  -21.6178  -13.6152 O   0  0  0  0  0  0  0  0  0  0  0  0
   27.1763  -21.8304  -15.6320 N   0  0  0  0  0  0  0  0  0  0  0  0
   26.2985  -20.7756  -15.2868 C   0  0  0  0  0  0  0  0  0  0  0  0
   26.7655  -19.6397  -14.9075 O   0  0  0  0  0  0  0  0  0  0  0  0
   24.8288  -20.8602  -15.3207 C   0  0  0  0  0  0  0  0  0  0  0  0
   24.2177  -19.5679  -14.8809 C   0  0  2  0  0  0  0  0  0  0  0  0
   22.7361  -19.7085  -14.8640 N   0  0  0  0  0  0  0  0  0  0  0  0
   24.5693  -18.3793  -15.6614 C   0  0  0  0  0  0  0  0  0  0  0  0
   24.0999  -18.2657  -16.8550 O   0  0  0  0  0  0  0  0  0  0  0  0
   26.3978  -13.7786  -16.4092 C   0  0  0  0  0  0  0  0  0  0  0  0
   26.2643  -14.9688  -15.5068 C   0  0  2  0  0  0  0  0  0  0  0  0
   27.5666  -15.2758  -14.7748 C   0  0  0  0  0  0  0  0  0  0  0  0
   25.6363  -16.1493  -16.1196 C   0  0  2  0  0  0  0  0  0  0  0  0
   25.3658  -17.2871  -15.3189 N   0  0  0  0  0  0  0  0  0  0  0  0
   26.4235  -16.5569  -17.3014 C   0  0  0  0  0  0  0  0  0  0  0  0
   26.1644  -15.9717  -18.5239 O   0  0  0  0  0  0  0  0  0  0  0  0
   27.3352  -17.4248  -17.2548 O   0  0  0  0  0  0  0  0  0  0  0  0
  2  3  1  0
  2  1  1  6
  4  3  1  0
  5  4  1  0
  6  5  1  0
  7  6  1  0
  8  9  2  0
  8  2  1  0
 10 11  1  0
 11 13  1  0
 12 11  2  0
 14 13  1  6
 14 15  1  0
 15  8  1  0
 16 14  1  0
 16 17  2  0
 19 18  1  6
 20 19  1  0
 21 19  1  0
 21 22  1  1
 22 16  1  0
 23 21  1  0
 24 23  1  0
 25 23  2  0
M  END
$$$$
