KNV.pdb
     RDKit          3D

 25 24  0  0  1  0  0  0  0  0999 V2000
   20.2309  -24.8904  -13.8401 N   0  0  0  0  0  0  0  0  0  0  0  0
   19.8496  -23.8311  -12.9207 C   0  0  1  0  0  0  0  0  0  0  0  0
   18.8590  -22.9576  -13.6574 C   0  0  0  0  0  0  0  0  0  0  0  0
   19.6121  -22.2870  -14.7965 C   0  0  0  0  0  0  0  0  0  0  0  0
   18.7115  -21.3453  -15.5670 C   0  0  0  0  0  0  0  0  0  0  0  0
   18.8514  -19.9678  -15.0027 C   0  0  0  0  0  0  0  0  0  0  0  0
   18.0487  -19.0579  -15.8342 N   0  0  0  0  0  0  0  0  0  0  0  0
   19.2678  -24.3894  -11.6699 C   0  0  0  0  0  0  0  0  0  0  0  0
   18.7947  -25.5593  -11.6649 O   0  0  0  0  0  0  0  0  0  0  0  0
   18.9028  -25.2521   -6.0843 N   0  0  0  0  0  0  0  0  0  0  0  0
   18.5504  -24.0827   -6.7987 C   0  0  0  0  0  0  0  0  0  0  0  0
   17.5862  -23.3375   -6.3899 O   0  0  0  0  0  0  0  0  0  0  0  0
   19.2147  -23.6161   -8.0273 C   0  0  0  0  0  0  0  0  0  0  0  0
   18.5614  -24.2084   -9.2353 C   0  0  2  0  0  0  0  0  0  0  0  0
   19.2139  -23.6672  -10.4587 N   0  0  0  0  0  0  0  0  0  0  0  0
   17.1131  -24.0228   -9.3526 C   0  0  0  0  0  0  0  0  0  0  0  0
   16.6702  -22.8925   -9.7818 O   0  0  0  0  0  0  0  0  0  0  0  0
   13.5615  -25.5584  -11.4439 C   0  0  0  0  0  0  0  0  0  0  0  0
   13.9552  -25.8159  -10.0200 C   0  0  2  0  0  0  0  0  0  0  0  0
   12.7856  -26.3391   -9.1927 C   0  0  0  0  0  0  0  0  0  0  0  0
   14.6992  -24.7255   -9.3712 C   0  0  2  0  0  0  0  0  0  0  0  0
   16.0718  -24.9053   -9.0672 N   0  0  0  0  0  0  0  0  0  0  0  0
   13.9774  -24.3062   -8.1523 C   0  0  0  0  0  0  0  0  0  0  0  0
   12.8411  -23.5322   -8.2692 O   0  0  0  0  0  0  0  0  0  0  0  0
   14.3481  -24.6216   -6.9905 O   0  0  0  0  0  0  0  0  0  0  0  0
  2  3  1  0
  2  1  1  6
  4  3  1  0
  5  4  1  0
  6  5  1  0
  7  6  1  0
  8  9  2  0
  8  2  1  0
 10 11  1  0
 11 13  1  0
 12 11  2  0
 14 13  1  1
 14 15  1  0
 15  8  1  0
 16 14  1  0
 16 17  2  0
 19 18  1  6
 20 19  1  0
 21 19  1  0
 21 22  1  1
 22 16  1  0
 23 21  1  0
 24 23  1  0
 25 23  2  0
M  END
$$$$
