KNV.pdb
     RDKit          3D

 25 24  0  0  1  0  0  0  0  0999 V2000
   16.8011  -10.8614  -13.3104 N   0  0  0  0  0  0  0  0  0  0  0  0
   16.4169   -9.7908  -14.2153 C   0  0  1  0  0  0  0  0  0  0  0  0
   14.9197   -9.8986  -14.3987 C   0  0  0  0  0  0  0  0  0  0  0  0
   14.6581  -11.1432  -15.2337 C   0  0  0  0  0  0  0  0  0  0  0  0
   13.5018  -11.9436  -14.6735 C   0  0  0  0  0  0  0  0  0  0  0  0
   13.2870  -13.1513  -15.5284 C   0  0  0  0  0  0  0  0  0  0  0  0
   12.2611  -13.9835  -14.8810 N   0  0  0  0  0  0  0  0  0  0  0  0
   16.8111   -8.4622  -13.6731 C   0  0  0  0  0  0  0  0  0  0  0  0
   16.5733   -7.4166  -14.3384 O   0  0  0  0  0  0  0  0  0  0  0  0
   18.9431   -5.6019   -8.8127 N   0  0  0  0  0  0  0  0  0  0  0  0
   17.9361   -5.6790   -9.8037 C   0  0  0  0  0  0  0  0  0  0  0  0
   17.3643   -4.6110  -10.2335 O   0  0  0  0  0  0  0  0  0  0  0  0
   17.4559   -6.9280  -10.4185 C   0  0  0  0  0  0  0  0  0  0  0  0
   17.7980   -6.9626  -11.8741 C   0  0  2  0  0  0  0  0  0  0  0  0
   17.4516   -8.3008  -12.4260 N   0  0  0  0  0  0  0  0  0  0  0  0
   19.1853   -6.6522  -12.2274 C   0  0  0  0  0  0  0  0  0  0  0  0
   20.1293   -7.3148  -11.6548 O   0  0  0  0  0  0  0  0  0  0  0  0
   21.1458   -5.6133  -15.8577 C   0  0  0  0  0  0  0  0  0  0  0  0
   21.7327   -5.9926  -14.5309 C   0  0  2  0  0  0  0  0  0  0  0  0
   21.9684   -7.4955  -14.4225 C   0  0  0  0  0  0  0  0  0  0  0  0
   21.0564   -5.4127  -13.3606 C   0  0  2  0  0  0  0  0  0  0  0  0
   19.6913   -5.7141  -13.1266 N   0  0  0  0  0  0  0  0  0  0  0  0
   21.2401   -3.9470  -13.3731 C   0  0  0  0  0  0  0  0  0  0  0  0
   22.5114   -3.4216  -13.2647 O   0  0  0  0  0  0  0  0  0  0  0  0
   20.2833   -3.1345  -13.4794 O   0  0  0  0  0  0  0  0  0  0  0  0
  2  3  1  0
  2  1  1  1
  4  3  1  0
  5  4  1  0
  6  5  1  0
  7  6  1  0
  8  9  2  0
  8  2  1  0
 10 11  1  0
 11 13  1  0
 12 11  2  0
 14 13  1  1
 14 15  1  0
 15  8  1  0
 16 14  1  0
 16 17  2  0
 19 18  1  6
 20 19  1  0
 21 19  1  0
 21 22  1  6
 22 16  1  0
 23 21  1  0
 24 23  1  0
 25 23  2  0
M  END
$$$$
