EHY.pdb
     RDKit          3D

 32 33  0  0  1  0  0  0  0  0999 V2000
   18.6152  -15.7693  -23.5016 N   0  0  0  0  0  0  0  0  0  0  0  0
   17.9689  -15.8625  -22.2421 C   0  0  1  0  0  0  0  0  0  0  0  0
   16.5174  -16.1969  -22.2908 C   0  0  0  0  0  0  0  0  0  0  0  0
   15.5946  -15.1740  -22.8544 C   0  0  0  0  0  0  0  0  0  0  0  0
   15.5635  -13.8585  -22.2277 C   0  0  0  0  0  0  0  0  0  0  0  0
   16.1203  -13.6435  -21.1355 O   0  0  0  0  0  0  0  0  0  0  0  0
   18.5999  -16.8809  -21.3240 C   0  0  0  0  0  0  0  0  0  0  0  0
   18.8582  -17.9961  -21.8477 O   0  0  0  0  0  0  0  0  0  0  0  0
   14.8871  -12.7962  -22.8682 O   0  0  0  0  0  0  0  0  0  0  0  0
   18.8978  -16.6458  -19.9666 N   0  0  0  0  0  0  0  0  0  0  0  0
   19.5137  -17.6427  -19.1023 C   0  0  1  0  0  0  0  0  0  0  0  0
   20.7400  -16.9879  -18.5129 C   0  0  0  0  0  0  0  0  0  0  0  0
   21.5726  -17.9415  -17.7470 C   0  0  0  0  0  0  0  0  0  0  0  0
   21.2634  -19.2767  -17.5955 C   0  0  0  0  0  0  0  0  0  0  0  0
   22.2234  -19.8376  -16.8435 N   0  0  0  0  0  0  0  0  0  0  0  0
   23.1344  -18.8956  -16.5125 C   0  0  0  0  0  0  0  0  0  0  0  0
   22.7163  -17.7581  -17.0720 N   0  0  0  0  0  0  0  0  0  0  0  0
   18.5770  -18.1657  -18.0987 C   0  0  0  0  0  0  0  0  0  0  0  0
   17.9348  -17.3604  -17.3761 O   0  0  0  0  0  0  0  0  0  0  0  0
   12.3107  -18.0321  -20.1320 O   0  0  0  0  0  0  0  0  0  0  0  0
   13.2853  -18.7223  -19.4434 C   0  0  0  0  0  0  0  0  0  0  0  0
   14.3976  -19.1760  -20.1384 C   0  0  0  0  0  0  0  0  0  0  0  0
   15.3918  -19.8710  -19.4768 C   0  0  0  0  0  0  0  0  0  0  0  0
   15.3202  -20.1362  -18.1266 C   0  0  0  0  0  0  0  0  0  0  0  0
   16.3562  -20.8820  -17.4378 C   0  0  0  0  0  0  0  0  0  0  0  0
   17.4379  -20.0346  -16.8163 C   0  0  2  0  0  0  0  0  0  0  0  0
   18.3277  -19.5432  -17.8690 N   0  0  0  0  0  0  0  0  0  0  0  0
   18.1564  -20.7998  -15.8092 C   0  0  0  0  0  0  0  0  0  0  0  0
   17.5184  -21.3857  -14.7330 O   0  0  0  0  0  0  0  0  0  0  0  0
   14.2146  -19.6833  -17.4447 C   0  0  0  0  0  0  0  0  0  0  0  0
   13.2012  -18.9811  -18.0916 C   0  0  0  0  0  0  0  0  0  0  0  0
   19.4112  -20.9457  -15.9009 O   0  0  0  0  0  0  0  0  0  0  0  0
  2  1  1  6
  2  3  1  0
  3  4  1  0
  5  4  1  0
  5  9  1  0
  6  5  2  0
  7  2  1  0
  8  7  2  0
 10  7  1  0
 11 10  1  0
 11 12  1  1
 13 12  1  0
 13 14  2  0
 15 14  1  0
 16 15  1  0
 17 16  2  0
 17 13  1  0
 18 11  1  0
 18 19  2  0
 21 22  2  0
 21 20  1  0
 23 22  1  0
 24 23  2  0
 25 24  1  0
 26 25  1  6
 26 27  1  0
 27 18  1  0
 28 26  1  0
 29 28  1  0
 30 24  1  0
 30 31  2  0
 31 21  1  0
 32 28  2  0
M  END
$$$$
