EHY.pdb
     RDKit          3D

 32 33  0  0  1  0  0  0  0  0999 V2000
   46.2591   -8.2272   -4.9510 N   0  0  0  0  0  0  0  0  0  0  0  0
   44.8864   -8.4009   -4.6374 C   0  0  1  0  0  0  0  0  0  0  0  0
   44.2569   -7.2835   -3.8785 C   0  0  0  0  0  0  0  0  0  0  0  0
   43.9207   -6.0443   -4.6314 C   0  0  0  0  0  0  0  0  0  0  0  0
   42.8822   -5.1749   -4.0930 C   0  0  0  0  0  0  0  0  0  0  0  0
   42.5094   -5.2609   -2.9086 O   0  0  0  0  0  0  0  0  0  0  0  0
   44.0210   -8.6163   -5.8552 C   0  0  0  0  0  0  0  0  0  0  0  0
   44.2641   -7.8617   -6.8330 O   0  0  0  0  0  0  0  0  0  0  0  0
   42.2786   -4.2086   -4.9286 O   0  0  0  0  0  0  0  0  0  0  0  0
   42.9986   -9.5827   -5.9388 N   0  0  0  0  0  0  0  0  0  0  0  0
   42.2514   -9.8479   -7.1602 C   0  0  1  0  0  0  0  0  0  0  0  0
   41.9324  -11.3237   -7.1456 C   0  0  0  0  0  0  0  0  0  0  0  0
   43.1136  -12.1567   -7.4622 C   0  0  0  0  0  0  0  0  0  0  0  0
   43.4308  -12.5820   -8.7349 C   0  0  0  0  0  0  0  0  0  0  0  0
   44.5519  -13.3159   -8.6550 N   0  0  0  0  0  0  0  0  0  0  0  0
   44.9561  -13.3688   -7.3664 C   0  0  0  0  0  0  0  0  0  0  0  0
   44.0682  -12.6593   -6.6663 N   0  0  0  0  0  0  0  0  0  0  0  0
   41.0701   -8.9842   -7.2898 C   0  0  0  0  0  0  0  0  0  0  0  0
   40.2011   -8.9878   -6.3799 O   0  0  0  0  0  0  0  0  0  0  0  0
   35.6448   -2.3235   -9.1616 O   0  0  0  0  0  0  0  0  0  0  0  0
   36.7046   -3.1782   -8.9454 C   0  0  0  0  0  0  0  0  0  0  0  0
   37.3139   -3.7745  -10.0404 C   0  0  0  0  0  0  0  0  0  0  0  0
   38.3784   -4.6361   -9.8569 C   0  0  0  0  0  0  0  0  0  0  0  0
   38.8681   -4.9321   -8.6035 C   0  0  0  0  0  0  0  0  0  0  0  0
   39.9737   -5.8512   -8.4120 C   0  0  0  0  0  0  0  0  0  0  0  0
   39.6068   -7.3106   -8.5116 C   0  0  2  0  0  0  0  0  0  0  0  0
   40.8194   -8.1204   -8.3867 N   0  0  0  0  0  0  0  0  0  0  0  0
   38.9073   -7.5667   -9.7611 C   0  0  0  0  0  0  0  0  0  0  0  0
   37.5979   -7.1774   -9.9671 O   0  0  0  0  0  0  0  0  0  0  0  0
   38.2587   -4.3373   -7.5230 C   0  0  0  0  0  0  0  0  0  0  0  0
   37.1848   -3.4661   -7.6853 C   0  0  0  0  0  0  0  0  0  0  0  0
   39.4989   -8.1674  -10.7062 O   0  0  0  0  0  0  0  0  0  0  0  0
  2  1  1  6
  2  3  1  0
  3  4  1  0
  5  4  1  0
  5  9  1  0
  6  5  2  0
  7  2  1  0
  8  7  2  0
 10  7  1  0
 11 10  1  0
 11 12  1  1
 13 12  1  0
 13 14  2  0
 15 14  1  0
 16 15  1  0
 17 16  2  0
 17 13  1  0
 18 11  1  0
 18 19  2  0
 21 22  2  0
 21 20  1  0
 23 22  1  0
 24 23  2  0
 25 24  1  0
 26 25  1  6
 26 27  1  0
 27 18  1  0
 28 26  1  0
 29 28  1  0
 30 24  1  0
 30 31  2  0
 31 21  1  0
 32 28  2  0
M  END
$$$$
