EHY.pdb
     RDKit          3D

 32 33  0  0  1  0  0  0  0  0999 V2000
   24.4265  -12.7939  -20.3193 N   0  0  0  0  0  0  0  0  0  0  0  0
   23.9048  -11.4746  -20.3366 C   0  0  1  0  0  0  0  0  0  0  0  0
   22.4739  -11.3575  -20.7360 C   0  0  0  0  0  0  0  0  0  0  0  0
   22.1660  -11.3343  -22.1921 C   0  0  0  0  0  0  0  0  0  0  0  0
   20.7887  -11.0839  -22.5982 C   0  0  0  0  0  0  0  0  0  0  0  0
   20.3087   -9.9356  -22.6017 O   0  0  0  0  0  0  0  0  0  0  0  0
   24.0248  -10.7704  -19.0071 C   0  0  0  0  0  0  0  0  0  0  0  0
   23.8750  -11.4998  -17.9921 O   0  0  0  0  0  0  0  0  0  0  0  0
   19.9719  -12.1649  -22.9988 O   0  0  0  0  0  0  0  0  0  0  0  0
   24.2851   -9.3929  -18.8616 N   0  0  0  0  0  0  0  0  0  0  0  0
   24.5123   -8.7573  -17.5713 C   0  0  1  0  0  0  0  0  0  0  0  0
   25.8377   -8.0426  -17.6825 C   0  0  0  0  0  0  0  0  0  0  0  0
   26.9861   -8.9703  -17.5819 C   0  0  0  0  0  0  0  0  0  0  0  0
   26.8586  -10.3220  -17.3413 C   0  0  0  0  0  0  0  0  0  0  0  0
   28.0919  -10.8509  -17.3076 N   0  0  0  0  0  0  0  0  0  0  0  0
   28.9998   -9.8726  -17.5201 C   0  0  0  0  0  0  0  0  0  0  0  0
   28.3038   -8.7452  -17.6829 N   0  0  0  0  0  0  0  0  0  0  0  0
   23.3974   -7.8868  -17.1745 C   0  0  0  0  0  0  0  0  0  0  0  0
   22.8981   -7.1005  -18.0204 O   0  0  0  0  0  0  0  0  0  0  0  0
   19.0776  -12.9955  -15.2844 O   0  0  0  0  0  0  0  0  0  0  0  0
   19.3952  -11.6771  -15.5324 C   0  0  0  0  0  0  0  0  0  0  0  0
   20.1824  -11.3775  -16.6354 C   0  0  0  0  0  0  0  0  0  0  0  0
   20.5182  -10.0659  -16.9110 C   0  0  0  0  0  0  0  0  0  0  0  0
   20.0932   -9.0230  -16.1173 C   0  0  0  0  0  0  0  0  0  0  0  0
   20.4623   -7.6486  -16.3980 C   0  0  0  0  0  0  0  0  0  0  0  0
   21.5982   -7.1158  -15.5611 C   0  0  2  0  0  0  0  0  0  0  0  0
   22.8188   -7.8575  -15.8797 N   0  0  0  0  0  0  0  0  0  0  0  0
   21.2620   -7.2014  -14.1484 C   0  0  0  0  0  0  0  0  0  0  0  0
   20.2179   -6.4868  -13.5936 O   0  0  0  0  0  0  0  0  0  0  0  0
   19.3133   -9.3280  -15.0258 C   0  0  0  0  0  0  0  0  0  0  0  0
   18.9632  -10.6426  -14.7297 C   0  0  0  0  0  0  0  0  0  0  0  0
   21.9373   -7.9493  -13.3812 O   0  0  0  0  0  0  0  0  0  0  0  0
  2  1  1  1
  2  3  1  0
  3  4  1  0
  5  4  1  0
  5  9  1  0
  6  5  2  0
  7  2  1  0
  8  7  2  0
 10  7  1  0
 11 10  1  0
 11 12  1  6
 13 12  1  0
 13 14  2  0
 15 14  1  0
 16 15  1  0
 17 16  2  0
 17 13  1  0
 18 11  1  0
 18 19  2  0
 21 22  2  0
 21 20  1  0
 23 22  1  0
 24 23  2  0
 25 24  1  0
 26 25  1  6
 26 27  1  0
 27 18  1  0
 28 26  1  0
 29 28  1  0
 30 24  1  0
 30 31  2  0
 31 21  1  0
 32 28  2  0
M  END
$$$$
