EHY.pdb
     RDKit          3D

 32 33  0  0  1  0  0  0  0  0999 V2000
   16.2183  -20.3712    1.9797 N   0  0  0  0  0  0  0  0  0  0  0  0
   15.5800  -19.3576    2.7399 C   0  0  1  0  0  0  0  0  0  0  0  0
   14.5203  -19.8304    3.6751 C   0  0  0  0  0  0  0  0  0  0  0  0
   13.1041  -19.6778    3.2432 C   0  0  0  0  0  0  0  0  0  0  0  0
   12.6158  -18.3353    2.9540 C   0  0  0  0  0  0  0  0  0  0  0  0
   12.8544  -17.7748    1.8686 O   0  0  0  0  0  0  0  0  0  0  0  0
   16.5408  -18.5470    3.5754 C   0  0  0  0  0  0  0  0  0  0  0  0
   17.4616  -19.2018    4.1306 O   0  0  0  0  0  0  0  0  0  0  0  0
   11.8529  -17.6463    3.9233 O   0  0  0  0  0  0  0  0  0  0  0  0
   16.4534  -17.1515    3.7521 N   0  0  0  0  0  0  0  0  0  0  0  0
   17.3848  -16.3932    4.5754 C   0  0  1  0  0  0  0  0  0  0  0  0
   17.1421  -14.9382    4.2530 C   0  0  0  0  0  0  0  0  0  0  0  0
   18.1615  -14.0516    4.8565 C   0  0  0  0  0  0  0  0  0  0  0  0
   19.2527  -14.5109    5.5634 C   0  0  0  0  0  0  0  0  0  0  0  0
   19.9580  -13.4432    5.9690 N   0  0  0  0  0  0  0  0  0  0  0  0
   19.3451  -12.3178    5.5395 C   0  0  0  0  0  0  0  0  0  0  0  0
   18.2610  -12.7147    4.8693 N   0  0  0  0  0  0  0  0  0  0  0  0
   17.2579  -16.7164    6.0028 C   0  0  0  0  0  0  0  0  0  0  0  0
   16.1316  -17.0337    6.4652 O   0  0  0  0  0  0  0  0  0  0  0  0
   24.2968  -15.5227    9.5224 O   0  0  0  0  0  0  0  0  0  0  0  0
   23.0882  -16.1528    9.3160 C   0  0  0  0  0  0  0  0  0  0  0  0
   21.9192  -15.4627    9.6044 C   0  0  0  0  0  0  0  0  0  0  0  0
   20.6920  -16.0666    9.4083 C   0  0  0  0  0  0  0  0  0  0  0  0
   20.5817  -17.3532    8.9278 C   0  0  0  0  0  0  0  0  0  0  0  0
   19.2929  -17.9917    8.7403 C   0  0  0  0  0  0  0  0  0  0  0  0
   18.1772  -17.0584    8.3423 C   0  0  2  0  0  0  0  0  0  0  0  0
   18.3302  -16.7009    6.9314 N   0  0  0  0  0  0  0  0  0  0  0  0
   18.1738  -15.8863    9.2037 C   0  0  0  0  0  0  0  0  0  0  0  0
   17.7538  -15.9380   10.5188 O   0  0  0  0  0  0  0  0  0  0  0  0
   21.7450  -18.0308    8.6444 C   0  0  0  0  0  0  0  0  0  0  0  0
   22.9920  -17.4413    8.8346 C   0  0  0  0  0  0  0  0  0  0  0  0
   18.5636  -14.7685    8.7534 O   0  0  0  0  0  0  0  0  0  0  0  0
  2  1  1  1
  2  3  1  0
  3  4  1  0
  5  4  1  0
  5  9  1  0
  6  5  2  0
  7  2  1  0
  8  7  2  0
 10  7  1  0
 11 10  1  0
 11 12  1  1
 13 12  1  0
 13 14  2  0
 15 14  1  0
 16 15  1  0
 17 16  2  0
 17 13  1  0
 18 11  1  0
 18 19  2  0
 21 22  2  0
 21 20  1  0
 23 22  1  0
 24 23  2  0
 25 24  1  0
 26 25  1  1
 26 27  1  0
 27 18  1  0
 28 26  1  0
 29 28  1  0
 30 24  1  0
 30 31  2  0
 31 21  1  0
 32 28  2  0
M  END
$$$$
