EHY.pdb
     RDKit          3D

 32 33  0  0  1  0  0  0  0  0999 V2000
   22.1278  -17.6393  -18.1770 N   0  0  0  0  0  0  0  0  0  0  0  0
   21.0668  -16.7010  -18.2588 C   0  0  1  0  0  0  0  0  0  0  0  0
   20.1158  -16.7086  -17.1114 C   0  0  0  0  0  0  0  0  0  0  0  0
   20.3085  -17.7499  -16.0654 C   0  0  0  0  0  0  0  0  0  0  0  0
   19.1244  -18.4017  -15.5199 C   0  0  0  0  0  0  0  0  0  0  0  0
   18.2738  -17.7684  -14.8682 O   0  0  0  0  0  0  0  0  0  0  0  0
   21.5431  -15.2752  -18.3950 C   0  0  0  0  0  0  0  0  0  0  0  0
   22.5971  -14.9937  -17.7668 O   0  0  0  0  0  0  0  0  0  0  0  0
   18.9298  -19.7851  -15.7307 O   0  0  0  0  0  0  0  0  0  0  0  0
   20.8864  -14.2910  -19.1608 N   0  0  0  0  0  0  0  0  0  0  0  0
   21.3932  -12.9349  -19.3180 C   0  0  1  0  0  0  0  0  0  0  0  0
   20.7781  -12.4013  -20.5896 C   0  0  0  0  0  0  0  0  0  0  0  0
   21.2122  -11.0182  -20.8860 C   0  0  0  0  0  0  0  0  0  0  0  0
   22.5287  -10.6531  -21.0728 C   0  0  0  0  0  0  0  0  0  0  0  0
   22.5582   -9.3330  -21.3143 N   0  0  0  0  0  0  0  0  0  0  0  0
   21.2967   -8.8488  -21.2860 C   0  0  0  0  0  0  0  0  0  0  0  0
   20.5024   -9.8894  -21.0249 N   0  0  0  0  0  0  0  0  0  0  0  0
   21.1341  -12.1023  -18.1358 C   0  0  0  0  0  0  0  0  0  0  0  0
   20.0913  -12.2991  -17.4598 O   0  0  0  0  0  0  0  0  0  0  0  0
   22.0618   -5.5074  -12.1738 O   0  0  0  0  0  0  0  0  0  0  0  0
   22.2655   -6.4753  -13.1341 C   0  0  0  0  0  0  0  0  0  0  0  0
   22.0500   -7.8042  -12.7971 C   0  0  0  0  0  0  0  0  0  0  0  0
   22.2456   -8.7977  -13.7372 C   0  0  0  0  0  0  0  0  0  0  0  0
   22.6543   -8.5144  -15.0221 C   0  0  0  0  0  0  0  0  0  0  0  0
   22.8768   -9.5604  -16.0020 C   0  0  0  0  0  0  0  0  0  0  0  0
   21.6214  -10.1397  -16.6043 C   0  0  2  0  0  0  0  0  0  0  0  0
   21.9862  -11.0647  -17.6780 N   0  0  0  0  0  0  0  0  0  0  0  0
   20.7541   -9.0718  -17.0768 C   0  0  0  0  0  0  0  0  0  0  0  0
   21.0173   -8.3648  -18.2341 O   0  0  0  0  0  0  0  0  0  0  0  0
   22.8659   -7.1948  -15.3485 C   0  0  0  0  0  0  0  0  0  0  0  0
   22.6749   -6.1779  -14.4168 C   0  0  0  0  0  0  0  0  0  0  0  0
   19.7170   -8.7609  -16.4196 O   0  0  0  0  0  0  0  0  0  0  0  0
  2  1  1  1
  2  3  1  0
  3  4  1  0
  5  4  1  0
  5  9  1  0
  6  5  2  0
  7  2  1  0
  8  7  2  0
 10  7  1  0
 11 10  1  0
 11 12  1  6
 13 12  1  0
 13 14  2  0
 15 14  1  0
 16 15  1  0
 17 16  2  0
 17 13  1  0
 18 11  1  0
 18 19  2  0
 21 22  2  0
 21 20  1  0
 23 22  1  0
 24 23  2  0
 25 24  1  0
 26 25  1  6
 26 27  1  0
 27 18  1  0
 28 26  1  0
 29 28  1  0
 30 24  1  0
 30 31  2  0
 31 21  1  0
 32 28  2  0
M  END
$$$$
