EHY.pdb
     RDKit          3D

 32 33  0  0  1  0  0  0  0  0999 V2000
   38.9106  -38.0163   -3.8650 N   0  0  0  0  0  0  0  0  0  0  0  0
   38.3631  -37.7554   -2.5824 C   0  0  1  0  0  0  0  0  0  0  0  0
   38.9667  -36.6061   -1.8505 C   0  0  0  0  0  0  0  0  0  0  0  0
   40.2557  -36.8411   -1.1444 C   0  0  0  0  0  0  0  0  0  0  0  0
   41.3534  -35.9152   -1.3938 C   0  0  0  0  0  0  0  0  0  0  0  0
   41.2847  -34.7180   -1.0602 O   0  0  0  0  0  0  0  0  0  0  0  0
   36.8766  -37.4951   -2.6123 C   0  0  0  0  0  0  0  0  0  0  0  0
   36.4572  -36.8637   -3.6174 O   0  0  0  0  0  0  0  0  0  0  0  0
   42.5271  -36.3791   -2.0290 O   0  0  0  0  0  0  0  0  0  0  0  0
   35.9799  -37.9104   -1.6074 N   0  0  0  0  0  0  0  0  0  0  0  0
   34.5618  -37.5796   -1.6192 C   0  0  1  0  0  0  0  0  0  0  0  0
   33.8298  -38.8562   -1.2808 C   0  0  0  0  0  0  0  0  0  0  0  0
   32.3603  -38.6850   -1.3082 C   0  0  0  0  0  0  0  0  0  0  0  0
   31.6074  -38.7210   -2.4628 C   0  0  0  0  0  0  0  0  0  0  0  0
   30.3238  -38.5254   -2.1220 N   0  0  0  0  0  0  0  0  0  0  0  0
   30.2402  -38.3658   -0.7825 C   0  0  0  0  0  0  0  0  0  0  0  0
   31.4865  -38.4669   -0.3152 N   0  0  0  0  0  0  0  0  0  0  0  0
   34.2439  -36.4562   -0.7277 C   0  0  0  0  0  0  0  0  0  0  0  0
   34.8085  -36.3808    0.3943 O   0  0  0  0  0  0  0  0  0  0  0  0
   38.9284  -31.9208    0.5344 O   0  0  0  0  0  0  0  0  0  0  0  0
   37.6005  -32.1807    0.2706 C   0  0  0  0  0  0  0  0  0  0  0  0
   37.2763  -32.8983   -0.8723 C   0  0  0  0  0  0  0  0  0  0  0  0
   35.9545  -33.1749   -1.1648 C   0  0  0  0  0  0  0  0  0  0  0  0
   34.9253  -32.7577   -0.3493 C   0  0  0  0  0  0  0  0  0  0  0  0
   33.5374  -33.0333   -0.6679 C   0  0  0  0  0  0  0  0  0  0  0  0
   33.0062  -34.3298   -0.1100 C   0  0  2  0  0  0  0  0  0  0  0  0
   33.3272  -35.4180   -1.0343 N   0  0  0  0  0  0  0  0  0  0  0  0
   31.5753  -34.2228    0.1293 C   0  0  0  0  0  0  0  0  0  0  0  0
   31.0434  -33.3240    1.0336 O   0  0  0  0  0  0  0  0  0  0  0  0
   35.2547  -32.0469    0.7816 C   0  0  0  0  0  0  0  0  0  0  0  0
   36.5800  -31.7571    1.0953 C   0  0  0  0  0  0  0  0  0  0  0  0
   30.7705  -34.9707   -0.5007 O   0  0  0  0  0  0  0  0  0  0  0  0
  2  1  1  6
  2  3  1  0
  3  4  1  0
  5  4  1  0
  5  9  1  0
  6  5  2  0
  7  2  1  0
  8  7  2  0
 10  7  1  0
 11 10  1  0
 11 12  1  1
 13 12  1  0
 13 14  2  0
 15 14  1  0
 16 15  1  0
 17 16  2  0
 17 13  1  0
 18 11  1  0
 18 19  2  0
 21 22  2  0
 21 20  1  0
 23 22  1  0
 24 23  2  0
 25 24  1  0
 26 25  1  6
 26 27  1  0
 27 18  1  0
 28 26  1  0
 29 28  1  0
 30 24  1  0
 30 31  2  0
 31 21  1  0
 32 28  2  0
M  END
$$$$
