EHY.pdb
     RDKit          3D

 32 33  0  0  1  0  0  0  0  0999 V2000
   13.3384  -12.0610  -13.4044 N   0  0  0  0  0  0  0  0  0  0  0  0
   14.6183  -11.5696  -13.0394 C   0  0  1  0  0  0  0  0  0  0  0  0
   15.6081  -11.4750  -14.1495 C   0  0  0  0  0  0  0  0  0  0  0  0
   16.1322  -12.7486  -14.7139 C   0  0  0  0  0  0  0  0  0  0  0  0
   16.3129  -13.8770  -13.8092 C   0  0  0  0  0  0  0  0  0  0  0  0
   17.1469  -13.8448  -12.8857 O   0  0  0  0  0  0  0  0  0  0  0  0
   14.5711  -10.2003  -12.4062 C   0  0  0  0  0  0  0  0  0  0  0  0
   13.9111   -9.3339  -13.0375 O   0  0  0  0  0  0  0  0  0  0  0  0
   15.5271  -15.0391  -13.9772 O   0  0  0  0  0  0  0  0  0  0  0  0
   15.2066   -9.8667  -11.1933 N   0  0  0  0  0  0  0  0  0  0  0  0
   15.0719   -8.5645  -10.5556 C   0  0  1  0  0  0  0  0  0  0  0  0
   14.4017   -8.8151   -9.2259 C   0  0  0  0  0  0  0  0  0  0  0  0
   14.2228   -7.5717   -8.4440 C   0  0  0  0  0  0  0  0  0  0  0  0
   14.6523   -6.3323   -8.8691 C   0  0  0  0  0  0  0  0  0  0  0  0
   14.3348   -5.4395   -7.9183 N   0  0  0  0  0  0  0  0  0  0  0  0
   13.7154   -6.0774   -6.9004 C   0  0  0  0  0  0  0  0  0  0  0  0
   13.6608   -7.3660   -7.2443 N   0  0  0  0  0  0  0  0  0  0  0  0
   16.3562   -7.8589  -10.4519 C   0  0  0  0  0  0  0  0  0  0  0  0
   17.4025   -8.5153  -10.2124 O   0  0  0  0  0  0  0  0  0  0  0  0
   22.9404   -4.3927  -14.5772 O   0  0  0  0  0  0  0  0  0  0  0  0
   21.7595   -4.8791  -14.0581 C   0  0  0  0  0  0  0  0  0  0  0  0
   21.8016   -5.6148  -12.8821 C   0  0  0  0  0  0  0  0  0  0  0  0
   20.6354   -6.1161  -12.3365 C   0  0  0  0  0  0  0  0  0  0  0  0
   19.4076   -5.9096  -12.9267 C   0  0  0  0  0  0  0  0  0  0  0  0
   18.1868   -6.4525  -12.3621 C   0  0  0  0  0  0  0  0  0  0  0  0
   17.7705   -5.8394  -11.0487 C   0  0  2  0  0  0  0  0  0  0  0  0
   16.5211   -6.4582  -10.6041 N   0  0  0  0  0  0  0  0  0  0  0  0
   17.6445   -4.3968  -11.1874 C   0  0  0  0  0  0  0  0  0  0  0  0
   18.6585   -3.5295  -10.8297 O   0  0  0  0  0  0  0  0  0  0  0  0
   19.3740   -5.1795  -14.0922 C   0  0  0  0  0  0  0  0  0  0  0  0
   20.5371   -4.6652  -14.6591 C   0  0  0  0  0  0  0  0  0  0  0  0
   16.5763   -3.8961  -11.6483 O   0  0  0  0  0  0  0  0  0  0  0  0
  2  1  1  6
  2  3  1  0
  3  4  1  0
  5  4  1  0
  5  9  1  0
  6  5  2  0
  7  2  1  0
  8  7  2  0
 10  7  1  0
 11 10  1  0
 11 12  1  1
 13 12  1  0
 13 14  2  0
 15 14  1  0
 16 15  1  0
 17 16  2  0
 17 13  1  0
 18 11  1  0
 18 19  2  0
 21 22  2  0
 21 20  1  0
 23 22  1  0
 24 23  2  0
 25 24  1  0
 26 25  1  6
 26 27  1  0
 27 18  1  0
 28 26  1  0
 29 28  1  0
 30 24  1  0
 30 31  2  0
 31 21  1  0
 32 28  2  0
M  END
$$$$
