EHY.pdb
     RDKit          3D

 32 33  0  0  1  0  0  0  0  0999 V2000
   20.1596  -17.1600  -14.9908 N   0  0  0  0  0  0  0  0  0  0  0  0
   20.4560  -18.4998  -15.3516 C   0  0  1  0  0  0  0  0  0  0  0  0
   19.5295  -19.1154  -16.3433 C   0  0  0  0  0  0  0  0  0  0  0  0
   18.4286  -18.2666  -16.8752 C   0  0  0  0  0  0  0  0  0  0  0  0
   18.7800  -16.9908  -17.4861 C   0  0  0  0  0  0  0  0  0  0  0  0
   18.6291  -15.9143  -16.8798 O   0  0  0  0  0  0  0  0  0  0  0  0
   21.8446  -18.6695  -15.9183 C   0  0  0  0  0  0  0  0  0  0  0  0
   22.1428  -19.8376  -16.2808 O   0  0  0  0  0  0  0  0  0  0  0  0
   19.3049  -16.9661  -18.7977 O   0  0  0  0  0  0  0  0  0  0  0  0
   22.7786  -17.6225  -16.0518 N   0  0  0  0  0  0  0  0  0  0  0  0
   24.1370  -17.8241  -16.5361 C   0  0  1  0  0  0  0  0  0  0  0  0
   24.7261  -16.4461  -16.7205 C   0  0  0  0  0  0  0  0  0  0  0  0
   26.0987  -16.4912  -17.2712 C   0  0  0  0  0  0  0  0  0  0  0  0
   26.7996  -17.6595  -17.4838 C   0  0  0  0  0  0  0  0  0  0  0  0
   28.0024  -17.3318  -17.9814 N   0  0  0  0  0  0  0  0  0  0  0  0
   28.0856  -15.9873  -18.0908 C   0  0  0  0  0  0  0  0  0  0  0  0
   26.9205  -15.5037  -17.6543 N   0  0  0  0  0  0  0  0  0  0  0  0
   24.9217  -18.6939  -15.6498 C   0  0  0  0  0  0  0  0  0  0  0  0
   25.0241  -18.4001  -14.4306 O   0  0  0  0  0  0  0  0  0  0  0  0
   25.8420  -20.4447   -8.7335 O   0  0  0  0  0  0  0  0  0  0  0  0
   25.6694  -20.6503  -10.0857 C   0  0  0  0  0  0  0  0  0  0  0  0
   24.4561  -21.1538  -10.5336 C   0  0  0  0  0  0  0  0  0  0  0  0
   24.2520  -21.3711  -11.8827 C   0  0  0  0  0  0  0  0  0  0  0  0
   25.2258  -21.1018  -12.8194 C   0  0  0  0  0  0  0  0  0  0  0  0
   25.0159  -21.3481  -14.2333 C   0  0  0  0  0  0  0  0  0  0  0  0
   26.1272  -20.8647  -15.1309 C   0  0  2  0  0  0  0  0  0  0  0  0
   25.5934  -19.8724  -16.0647 N   0  0  0  0  0  0  0  0  0  0  0  0
   26.7376  -21.9898  -15.8221 C   0  0  0  0  0  0  0  0  0  0  0  0
   26.4854  -22.2636  -17.1524 O   0  0  0  0  0  0  0  0  0  0  0  0
   26.4257  -20.6030  -12.3677 C   0  0  0  0  0  0  0  0  0  0  0  0
   26.6526  -20.3765  -11.0128 C   0  0  0  0  0  0  0  0  0  0  0  0
   27.5296  -22.7595  -15.2021 O   0  0  0  0  0  0  0  0  0  0  0  0
  2  1  1  6
  2  3  1  0
  3  4  1  0
  5  4  1  0
  5  9  1  0
  6  5  2  0
  7  2  1  0
  8  7  2  0
 10  7  1  0
 11 10  1  0
 11 12  1  1
 13 12  1  0
 13 14  2  0
 15 14  1  0
 16 15  1  0
 17 16  2  0
 17 13  1  0
 18 11  1  0
 18 19  2  0
 21 22  2  0
 21 20  1  0
 23 22  1  0
 24 23  2  0
 25 24  1  0
 26 25  1  6
 26 27  1  0
 27 18  1  0
 28 26  1  0
 29 28  1  0
 30 24  1  0
 30 31  2  0
 31 21  1  0
 32 28  2  0
M  END
$$$$
