MVD.pdb
     RDKit          3D

 24 23  0  0  1  0  0  0  0  0999 V2000
    4.7781  -12.5126   26.5055 C   0  0  0  0  0  0  0  0  0  0  0  0
    6.2194  -12.8303   27.5657 S   0  0  0  0  0  0  0  0  0  0  0  0
    7.2682  -14.0416   26.7259 C   0  0  0  0  0  0  0  0  0  0  0  0
    6.9289  -15.4596   27.1311 C   0  0  0  0  0  0  0  0  0  0  0  0
    6.3590  -16.1635   25.9247 C   0  0  2  0  0  0  0  0  0  0  0  0
    5.9796  -17.5043   26.3632 N   0  0  0  0  0  0  0  0  0  0  0  0
    7.3750  -16.2619   24.8345 C   0  0  0  0  0  0  0  0  0  0  0  0
    8.2744  -17.1288   24.9298 O   0  0  0  0  0  0  0  0  0  0  0  0
    6.3163  -14.6825   21.1836 C   0  0  0  0  0  0  0  0  0  0  0  0
    7.7856  -14.6078   21.5357 C   0  0  2  0  0  0  0  0  0  0  0  0
    8.6553  -14.5712   20.2996 C   0  0  0  0  0  0  0  0  0  0  0  0
    8.2448  -15.5834   22.5517 C   0  0  2  0  0  0  0  0  0  0  0  0
    7.3603  -15.4230   23.7118 N   0  0  0  0  0  0  0  0  0  0  0  0
    9.6472  -15.5821   22.9240 C   0  0  0  0  0  0  0  0  0  0  0  0
   10.0247  -14.6855   23.7580 O   0  0  0  0  0  0  0  0  0  0  0  0
   10.6585  -16.4488   22.4832 N   0  0  0  0  0  0  0  0  0  0  0  0
   12.0397  -16.4231   23.0139 C   0  0  1  0  0  0  0  0  0  0  0  0
   12.1185  -17.6309   23.9047 C   0  0  0  0  0  0  0  0  0  0  0  0
   13.4366  -17.9205   24.4534 C   0  0  0  0  0  0  0  0  0  0  0  0
   14.3786  -17.1425   24.0829 O   0  0  0  0  0  0  0  0  0  0  0  0
   12.9840  -16.6594   21.8620 C   0  0  0  0  0  0  0  0  0  0  0  0
   12.5276  -17.2007   20.6682 O   0  0  0  0  0  0  0  0  0  0  0  0
   13.7900  -18.9284   25.3191 O   0  0  0  0  0  0  0  0  0  0  0  0
   14.1974  -16.3772   21.9460 O   0  0  0  0  0  0  0  0  0  0  0  0
  2  1  1  0
  3  2  1  0
  4  3  1  0
  5  4  1  0
  5  7  1  0
  5  6  1  1
  7 13  1  0
  8  7  2  0
 10  9  1  6
 10 12  1  0
 10 11  1  0
 12 14  1  0
 12 13  1  1
 14 15  2  0
 16 14  1  0
 16 17  1  0
 17 21  1  0
 17 18  1  1
 19 18  1  0
 20 19  2  0
 21 24  2  0
 21 22  1  0
 23 19  1  0
M  END
$$$$
