MVD.pdb
     RDKit          3D

 24 23  0  0  1  0  0  0  0  0999 V2000
    8.8412  -12.4398   28.0414 C   0  0  0  0  0  0  0  0  0  0  0  0
    7.1887  -12.0459   27.3964 S   0  0  0  0  0  0  0  0  0  0  0  0
    6.4170  -13.5943   26.8680 C   0  0  0  0  0  0  0  0  0  0  0  0
    7.3686  -14.4543   26.0650 C   0  0  0  0  0  0  0  0  0  0  0  0
    6.5501  -15.4718   25.3096 C   0  0  2  0  0  0  0  0  0  0  0  0
    6.2748  -16.5624   26.2416 N   0  0  0  0  0  0  0  0  0  0  0  0
    7.3049  -15.9970   24.1328 C   0  0  0  0  0  0  0  0  0  0  0  0
    7.7584  -17.1637   24.1837 O   0  0  0  0  0  0  0  0  0  0  0  0
    6.4068  -14.9574   20.3621 C   0  0  0  0  0  0  0  0  0  0  0  0
    7.8866  -14.8876   20.6683 C   0  0  2  0  0  0  0  0  0  0  0  0
    8.7246  -15.1137   19.4305 C   0  0  0  0  0  0  0  0  0  0  0  0
    8.3311  -15.6844   21.8355 C   0  0  2  0  0  0  0  0  0  0  0  0
    7.5245  -15.2357   22.9766 N   0  0  0  0  0  0  0  0  0  0  0  0
    9.7482  -15.7232   22.1442 C   0  0  0  0  0  0  0  0  0  0  0  0
   10.1369  -15.0578   23.1679 O   0  0  0  0  0  0  0  0  0  0  0  0
   10.7633  -16.4056   21.4570 N   0  0  0  0  0  0  0  0  0  0  0  0
   12.1040  -16.6594   22.0298 C   0  0  1  0  0  0  0  0  0  0  0  0
   11.8541  -17.6387   23.1420 C   0  0  0  0  0  0  0  0  0  0  0  0
   12.4485  -17.2939   24.4267 C   0  0  0  0  0  0  0  0  0  0  0  0
   13.0707  -16.1800   24.4726 O   0  0  0  0  0  0  0  0  0  0  0  0
   12.9267  -17.3735   20.9869 C   0  0  0  0  0  0  0  0  0  0  0  0
   14.2557  -17.0342   20.7749 O   0  0  0  0  0  0  0  0  0  0  0  0
   12.4226  -18.0207   25.5934 O   0  0  0  0  0  0  0  0  0  0  0  0
   12.4409  -18.2861   20.2866 O   0  0  0  0  0  0  0  0  0  0  0  0
  2  1  1  0
  3  2  1  0
  4  3  1  0
  5  4  1  0
  5  7  1  0
  5  6  1  1
  7 13  1  0
  8  7  2  0
 10  9  1  6
 10 12  1  0
 10 11  1  0
 12 14  1  0
 12 13  1  1
 14 15  2  0
 16 14  1  0
 16 17  1  0
 17 21  1  0
 17 18  1  1
 19 18  1  0
 20 19  2  0
 21 24  2  0
 21 22  1  0
 23 19  1  0
M  END
$$$$
