MVD.pdb
     RDKit          3D

 24 23  0  0  1  0  0  0  0  0999 V2000
    5.8471  -11.8295   26.5564 C   0  0  0  0  0  0  0  0  0  0  0  0
    7.6104  -12.1739   26.8290 S   0  0  0  0  0  0  0  0  0  0  0  0
    7.7570  -13.8772   27.4203 C   0  0  0  0  0  0  0  0  0  0  0  0
    8.2376  -14.8131   26.3326 C   0  0  0  0  0  0  0  0  0  0  0  0
    7.0516  -15.1735   25.4726 C   0  0  2  0  0  0  0  0  0  0  0  0
    6.2135  -16.0664   26.2689 N   0  0  0  0  0  0  0  0  0  0  0  0
    7.4879  -15.8737   24.2277 C   0  0  0  0  0  0  0  0  0  0  0  0
    7.5449  -17.1252   24.2326 O   0  0  0  0  0  0  0  0  0  0  0  0
    9.0216  -13.7159   20.6431 C   0  0  0  0  0  0  0  0  0  0  0  0
    8.0582  -14.8792   20.7255 C   0  0  2  0  0  0  0  0  0  0  0  0
    6.6200  -14.4206   20.6422 C   0  0  0  0  0  0  0  0  0  0  0  0
    8.3099  -15.8344   21.8296 C   0  0  2  0  0  0  0  0  0  0  0  0
    7.8351  -15.1852   23.0573 N   0  0  0  0  0  0  0  0  0  0  0  0
    9.6458  -16.3810   21.9770 C   0  0  0  0  0  0  0  0  0  0  0  0
   10.0030  -17.2747   21.1311 O   0  0  0  0  0  0  0  0  0  0  0  0
   10.6119  -16.0525   22.9398 N   0  0  0  0  0  0  0  0  0  0  0  0
   11.8937  -16.7777   23.0856 C   0  0  1  0  0  0  0  0  0  0  0  0
   12.9262  -15.6908   23.1906 C   0  0  0  0  0  0  0  0  0  0  0  0
   13.7182  -15.4600   21.9898 C   0  0  0  0  0  0  0  0  0  0  0  0
   13.1526  -14.7774   21.0710 O   0  0  0  0  0  0  0  0  0  0  0  0
   11.8714  -17.4976   24.4106 C   0  0  0  0  0  0  0  0  0  0  0  0
   12.9081  -18.3447   24.7769 O   0  0  0  0  0  0  0  0  0  0  0  0
   14.9976  -15.8875   21.7248 O   0  0  0  0  0  0  0  0  0  0  0  0
   10.9261  -17.3548   25.2138 O   0  0  0  0  0  0  0  0  0  0  0  0
  2  1  1  0
  3  2  1  0
  4  3  1  0
  5  4  1  0
  5  7  1  0
  5  6  1  1
  7 13  1  0
  8  7  2  0
 10  9  1  1
 10 12  1  0
 10 11  1  0
 12 14  1  0
 12 13  1  1
 14 15  2  0
 16 14  1  0
 16 17  1  0
 17 21  1  0
 17 18  1  1
 19 18  1  0
 20 19  2  0
 21 24  2  0
 21 22  1  0
 23 19  1  0
M  END
$$$$
