MVD.pdb
     RDKit          3D

 24 23  0  0  1  0  0  0  0  0999 V2000
    8.4497  -18.6083   20.0931 C   0  0  0  0  0  0  0  0  0  0  0  0
    6.7399  -18.0946   19.7547 S   0  0  0  0  0  0  0  0  0  0  0  0
    6.6333  -16.3098   20.0294 C   0  0  0  0  0  0  0  0  0  0  0  0
    7.3713  -15.8859   21.2806 C   0  0  0  0  0  0  0  0  0  0  0  0
    7.2294  -14.3904   21.4193 C   0  0  2  0  0  0  0  0  0  0  0  0
    7.9122  -13.7973   20.2722 N   0  0  0  0  0  0  0  0  0  0  0  0
    7.8627  -13.9089   22.6832 C   0  0  0  0  0  0  0  0  0  0  0  0
    9.1109  -13.8124   22.7291 O   0  0  0  0  0  0  0  0  0  0  0  0
    6.5778  -11.2760   25.3547 C   0  0  0  0  0  0  0  0  0  0  0  0
    6.7889  -12.6424   25.9683 C   0  0  2  0  0  0  0  0  0  0  0  0
    7.1823  -12.5461   27.4249 C   0  0  0  0  0  0  0  0  0  0  0  0
    7.6450  -13.5639   25.1856 C   0  0  2  0  0  0  0  0  0  0  0  0
    7.1152  -13.5619   23.8169 N   0  0  0  0  0  0  0  0  0  0  0  0
    7.8557  -14.9069   25.6926 C   0  0  0  0  0  0  0  0  0  0  0  0
    7.0963  -15.8280   25.2271 O   0  0  0  0  0  0  0  0  0  0  0  0
    8.7977  -15.3343   26.6403 N   0  0  0  0  0  0  0  0  0  0  0  0
    9.5270  -16.6181   26.5400 C   0  0  1  0  0  0  0  0  0  0  0  0
   10.3633  -16.4750   25.2995 C   0  0  0  0  0  0  0  0  0  0  0  0
   11.2624  -17.5861   25.0177 C   0  0  0  0  0  0  0  0  0  0  0  0
   10.7044  -18.7117   24.7903 O   0  0  0  0  0  0  0  0  0  0  0  0
   10.4773  -16.7045   27.7078 C   0  0  0  0  0  0  0  0  0  0  0  0
   10.8693  -17.9353   28.2158 O   0  0  0  0  0  0  0  0  0  0  0  0
   12.6362  -17.5712   24.9679 O   0  0  0  0  0  0  0  0  0  0  0  0
   10.9378  -15.6785   28.2503 O   0  0  0  0  0  0  0  0  0  0  0  0
  2  1  1  0
  3  2  1  0
  4  3  1  0
  5  4  1  0
  5  7  1  0
  5  6  1  6
  7 13  1  0
  8  7  2  0
 10  9  1  6
 10 12  1  0
 10 11  1  0
 12 14  1  0
 12 13  1  6
 14 15  2  0
 16 14  1  0
 16 17  1  0
 17 21  1  0
 17 18  1  6
 19 18  1  0
 20 19  2  0
 21 24  2  0
 21 22  1  0
 23 19  1  0
M  END
$$$$
