MVD.pdb
     RDKit          3D

 24 23  0  0  1  0  0  0  0  0999 V2000
    2.7987  -18.6226   20.6552 C   0  0  0  0  0  0  0  0  0  0  0  0
    4.3684  -17.7543   20.9453 S   0  0  0  0  0  0  0  0  0  0  0  0
    5.0558  -18.3593   22.5054 C   0  0  0  0  0  0  0  0  0  0  0  0
    6.3564  -17.6690   22.8548 C   0  0  0  0  0  0  0  0  0  0  0  0
    6.1193  -16.1799   22.8064 C   0  0  2  0  0  0  0  0  0  0  0  0
    6.2373  -15.7830   21.4055 N   0  0  0  0  0  0  0  0  0  0  0  0
    7.1365  -15.4506   23.6211 C   0  0  0  0  0  0  0  0  0  0  0  0
    8.3065  -15.3642   23.1816 O   0  0  0  0  0  0  0  0  0  0  0  0
    6.2448  -12.2680   25.9046 C   0  0  0  0  0  0  0  0  0  0  0  0
    7.0797  -13.3079   26.6185 C   0  0  2  0  0  0  0  0  0  0  0  0
    7.9330  -12.6908   27.7033 C   0  0  0  0  0  0  0  0  0  0  0  0
    7.8255  -14.2366   25.7376 C   0  0  2  0  0  0  0  0  0  0  0  0
    6.8323  -14.8608   24.8556 N   0  0  0  0  0  0  0  0  0  0  0  0
    8.7063  -15.2119   26.3525 C   0  0  0  0  0  0  0  0  0  0  0  0
    8.1502  -16.1807   26.9802 O   0  0  0  0  0  0  0  0  0  0  0  0
   10.1091  -15.2325   26.3482 N   0  0  0  0  0  0  0  0  0  0  0  0
   10.9089  -16.2776   27.0251 C   0  0  1  0  0  0  0  0  0  0  0  0
   12.3135  -16.0395   26.5464 C   0  0  0  0  0  0  0  0  0  0  0  0
   12.5335  -16.2447   25.1210 C   0  0  0  0  0  0  0  0  0  0  0  0
   11.7919  -17.1210   24.5623 O   0  0  0  0  0  0  0  0  0  0  0  0
   10.8903  -15.9903   28.5054 C   0  0  0  0  0  0  0  0  0  0  0  0
   10.3346  -14.8163   28.9948 O   0  0  0  0  0  0  0  0  0  0  0  0
   13.4415  -15.6119   24.3053 O   0  0  0  0  0  0  0  0  0  0  0  0
   11.3710  -16.7942   29.3311 O   0  0  0  0  0  0  0  0  0  0  0  0
  2  1  1  0
  3  2  1  0
  4  3  1  0
  5  4  1  0
  5  7  1  0
  5  6  1  6
  7 13  1  0
  8  7  2  0
 10  9  1  6
 10 12  1  0
 10 11  1  0
 12 14  1  0
 12 13  1  1
 14 15  2  0
 16 14  1  0
 16 17  1  0
 17 21  1  0
 17 18  1  6
 19 18  1  0
 20 19  2  0
 21 24  2  0
 21 22  1  0
 23 19  1  0
M  END
$$$$
