MVD.pdb
     RDKit          3D

 24 23  0  0  1  0  0  0  0  0999 V2000
    5.6016  -11.9969   26.6848 C   0  0  0  0  0  0  0  0  0  0  0  0
    6.8943  -12.5568   27.8325 S   0  0  0  0  0  0  0  0  0  0  0  0
    7.0129  -14.3568   27.6975 C   0  0  0  0  0  0  0  0  0  0  0  0
    7.7345  -14.7823   26.4373 C   0  0  0  0  0  0  0  0  0  0  0  0
    6.8805  -15.8106   25.7379 C   0  0  2  0  0  0  0  0  0  0  0  0
    6.8551  -16.9895   26.6001 N   0  0  0  0  0  0  0  0  0  0  0  0
    7.4611  -16.1732   24.4106 C   0  0  0  0  0  0  0  0  0  0  0  0
    7.9199  -17.3281   24.2524 O   0  0  0  0  0  0  0  0  0  0  0  0
    6.2287  -14.4671   20.9668 C   0  0  0  0  0  0  0  0  0  0  0  0
    7.7337  -14.5321   21.1057 C   0  0  2  0  0  0  0  0  0  0  0  0
    8.4158  -14.6183   19.7592 C   0  0  0  0  0  0  0  0  0  0  0  0
    8.2380  -15.5207   22.0870 C   0  0  2  0  0  0  0  0  0  0  0  0
    7.5117  -15.2724   23.3379 N   0  0  0  0  0  0  0  0  0  0  0  0
    9.6710  -15.6186   22.2924 C   0  0  0  0  0  0  0  0  0  0  0  0
   10.1690  -14.9215   23.2452 O   0  0  0  0  0  0  0  0  0  0  0  0
   10.5958  -16.3897   21.5725 N   0  0  0  0  0  0  0  0  0  0  0  0
   12.0136  -16.5389   21.9695 C   0  0  1  0  0  0  0  0  0  0  0  0
   11.9577  -17.2704   23.2811 C   0  0  0  0  0  0  0  0  0  0  0  0
   13.2484  -17.5835   23.8801 C   0  0  0  0  0  0  0  0  0  0  0  0
   14.1857  -16.7462   23.6556 O   0  0  0  0  0  0  0  0  0  0  0  0
   12.6792  -17.4588   20.9769 C   0  0  0  0  0  0  0  0  0  0  0  0
   14.0324  -17.3384   20.6926 O   0  0  0  0  0  0  0  0  0  0  0  0
   13.5803  -18.6692   24.6555 O   0  0  0  0  0  0  0  0  0  0  0  0
   12.0378  -18.3512   20.3842 O   0  0  0  0  0  0  0  0  0  0  0  0
  2  1  1  0
  3  2  1  0
  4  3  1  0
  5  4  1  0
  5  7  1  0
  5  6  1  1
  7 13  1  0
  8  7  2  0
 10  9  1  6
 10 12  1  0
 10 11  1  0
 12 14  1  0
 12 13  1  1
 14 15  2  0
 16 14  1  0
 16 17  1  0
 17 21  1  0
 17 18  1  1
 19 18  1  0
 20 19  2  0
 21 24  2  0
 21 22  1  0
 23 19  1  0
M  END
$$$$
