QRN.pdb
     RDKit          3D

 29 28  0  0  1  0  0  0  0  0999 V2000
   17.1060  -16.5771   14.6098 N   0  0  0  0  0  0  0  0  0  0  0  0
   15.7931  -16.9959   14.9615 C   0  0  0  0  0  0  0  0  0  0  0  0
   15.1396  -17.6332   14.1080 O   0  0  0  0  0  0  0  0  0  0  0  0
   15.2630  -16.6728   16.2852 C   0  0  0  0  0  0  0  0  0  0  0  0
   13.8112  -16.3334   16.3348 C   0  0  0  0  0  0  0  0  0  0  0  0
   13.5353  -14.8485   16.4749 C   0  0  2  0  0  0  0  0  0  0  0  0
   14.7782  -14.1672   16.1298 N   0  0  0  0  0  0  0  0  0  0  0  0
   13.1980  -14.4906   17.8693 C   0  0  0  0  0  0  0  0  0  0  0  0
   14.1004  -14.1592   18.6833 O   0  0  0  0  0  0  0  0  0  0  0  0
    6.2561  -14.1376   22.4419 N   0  0  0  0  0  0  0  0  0  0  0  0
    6.9044  -14.1745   21.1752 C   0  0  0  0  0  0  0  0  0  0  0  0
    6.9580  -15.3031   20.5325 N   0  0  0  0  0  0  0  0  0  0  0  0
    7.4737  -13.0036   20.6353 N   0  0  0  0  0  0  0  0  0  0  0  0
    7.8189  -12.9617   19.2305 C   0  0  0  0  0  0  0  0  0  0  0  0
    9.3321  -13.0055   19.0878 C   0  0  0  0  0  0  0  0  0  0  0  0
    9.9036  -14.2241   19.7451 C   0  0  0  0  0  0  0  0  0  0  0  0
   11.4130  -14.2865   19.6359 C   0  0  2  0  0  0  0  0  0  0  0  0
   11.8461  -14.5229   18.2832 N   0  0  0  0  0  0  0  0  0  0  0  0
   11.8900  -15.4189   20.4770 C   0  0  0  0  0  0  0  0  0  0  0  0
   11.7133  -16.5906   20.0530 O   0  0  0  0  0  0  0  0  0  0  0  0
    7.5022  -15.3866   19.6465 N   0  0  0  0  0  0  0  0  0  0  0  0
   16.1768  -15.1022   21.8600 C   0  0  0  0  0  0  0  0  0  0  0  0
   15.2455  -16.1629   21.9607 O   0  0  0  0  0  0  0  0  0  0  0  0
   15.2538  -17.0389   21.0816 C   0  0  0  0  0  0  0  0  0  0  0  0
   14.2905  -16.2266   23.0803 C   0  0  2  0  0  0  0  0  0  0  0  0
   12.8901  -16.3627   22.5208 N   0  0  0  0  0  0  0  0  0  0  0  0
   12.5288  -15.2146   21.7253 C   0  0  0  0  0  0  0  0  0  0  0  0
   11.8684  -16.6109   23.5574 O   0  0  0  0  0  0  0  0  0  0  0  0
   11.4385  -15.7123   24.3048 O   0  0  0  0  0  0  0  0  0  0  0  0
  1  2  1  0
  2  3  2  0
  4  2  1  0
  4  5  1  0
  6  8  1  0
  6  5  1  0
  6  7  1  1
  8  9  2  0
 10 11  1  0
 11 12  2  0
 11 13  1  0
 13 14  1  0
 14 15  1  0
 15 16  1  0
 17 16  1  6
 17 19  1  0
 18 17  1  0
 18  8  1  0
 19 20  2  0
 21 22  1  0
 22 24  1  0
 23 22  2  0
 25 24  1  6
 25 27  1  0
 26 19  1  0
 26 25  1  0
 27 28  2  0
 27 29  1  0
M  END
$$$$
