QRN.pdb
     RDKit          3D

 29 28  0  0  1  0  0  0  0  0999 V2000
   14.2954  -16.9689   13.8051 N   0  0  0  0  0  0  0  0  0  0  0  0
   13.3406  -17.9727   13.4830 C   0  0  0  0  0  0  0  0  0  0  0  0
   13.4825  -18.5823   12.4015 O   0  0  0  0  0  0  0  0  0  0  0  0
   12.2462  -18.2519   14.4114 C   0  0  0  0  0  0  0  0  0  0  0  0
   12.2728  -17.4857   15.6910 C   0  0  0  0  0  0  0  0  0  0  0  0
   12.4999  -18.3502   16.9164 C   0  0  2  0  0  0  0  0  0  0  0  0
   11.5845  -19.4795   16.7955 N   0  0  0  0  0  0  0  0  0  0  0  0
   12.1595  -17.6259   18.1596 C   0  0  0  0  0  0  0  0  0  0  0  0
   12.7960  -16.5919   18.4950 O   0  0  0  0  0  0  0  0  0  0  0  0
    7.3530  -12.9154   21.1397 N   0  0  0  0  0  0  0  0  0  0  0  0
    7.7731  -13.2337   19.8174 C   0  0  0  0  0  0  0  0  0  0  0  0
    7.0978  -12.7567   18.8145 N   0  0  0  0  0  0  0  0  0  0  0  0
    8.9027  -14.0508   19.6094 N   0  0  0  0  0  0  0  0  0  0  0  0
    9.5829  -14.6291   20.7483 C   0  0  0  0  0  0  0  0  0  0  0  0
    8.9144  -15.9454   21.1123 C   0  0  0  0  0  0  0  0  0  0  0  0
    9.2336  -17.0111   20.1092 C   0  0  0  0  0  0  0  0  0  0  0  0
   10.6754  -17.4685   20.1896 C   0  0  2  0  0  0  0  0  0  0  0  0
   11.1069  -18.1061   18.9729 N   0  0  0  0  0  0  0  0  0  0  0  0
   10.7834  -18.4617   21.2938 C   0  0  0  0  0  0  0  0  0  0  0  0
   10.5442  -19.6694   21.0332 O   0  0  0  0  0  0  0  0  0  0  0  0
    7.4358  -12.8833   17.8358 N   0  0  0  0  0  0  0  0  0  0  0  0
   15.4956  -19.6938   23.7995 C   0  0  0  0  0  0  0  0  0  0  0  0
   14.1925  -20.0651   23.3913 O   0  0  0  0  0  0  0  0  0  0  0  0
   13.7779  -21.1933   23.7004 C   0  0  0  0  0  0  0  0  0  0  0  0
   13.3488  -19.1366   22.6195 C   0  0  2  0  0  0  0  0  0  0  0  0
   12.0421  -18.9353   23.3576 N   0  0  0  0  0  0  0  0  0  0  0  0
   11.1435  -18.0877   22.6124 C   0  0  0  0  0  0  0  0  0  0  0  0
   12.2194  -18.4158   24.7283 O   0  0  0  0  0  0  0  0  0  0  0  0
   12.1963  -17.1991   24.9931 O   0  0  0  0  0  0  0  0  0  0  0  0
  1  2  1  0
  2  3  2  0
  4  2  1  0
  4  5  1  0
  6  8  1  0
  6  5  1  0
  6  7  1  6
  8  9  2  0
 10 11  1  0
 11 12  2  0
 11 13  1  0
 13 14  1  0
 14 15  1  0
 15 16  1  0
 17 16  1  6
 17 19  1  0
 18 17  1  0
 18  8  1  0
 19 20  2  0
 21 22  1  0
 22 24  1  0
 23 22  2  0
 25 24  1  6
 25 27  1  0
 26 19  1  0
 26 25  1  0
 27 28  2  0
 27 29  1  0
M  END
$$$$
