QRN.pdb
     RDKit          3D

 29 28  0  0  1  0  0  0  0  0999 V2000
    6.5462  -14.7500   15.8656 N   0  0  0  0  0  0  0  0  0  0  0  0
    7.4773  -13.6757   15.9090 C   0  0  0  0  0  0  0  0  0  0  0  0
    7.7223  -13.0771   14.8398 O   0  0  0  0  0  0  0  0  0  0  0  0
    8.1040  -13.3150   17.1797 C   0  0  0  0  0  0  0  0  0  0  0  0
    7.6911  -14.1306   18.3585 C   0  0  0  0  0  0  0  0  0  0  0  0
    8.3651  -13.7183   19.6532 C   0  0  2  0  0  0  0  0  0  0  0  0
    9.6473  -13.1322   19.2781 N   0  0  0  0  0  0  0  0  0  0  0  0
    8.6397  -14.8873   20.5158 C   0  0  0  0  0  0  0  0  0  0  0  0
    7.6940  -15.5509   21.0180 O   0  0  0  0  0  0  0  0  0  0  0  0
   14.8557  -16.4506   17.7844 N   0  0  0  0  0  0  0  0  0  0  0  0
   14.1260  -17.6161   17.4165 C   0  0  0  0  0  0  0  0  0  0  0  0
   14.1679  -18.0163   16.1806 N   0  0  0  0  0  0  0  0  0  0  0  0
   13.3758  -18.3175   18.3819 N   0  0  0  0  0  0  0  0  0  0  0  0
   13.3041  -17.8096   19.7351 C   0  0  0  0  0  0  0  0  0  0  0  0
   11.8888  -17.3278   20.0121 C   0  0  0  0  0  0  0  0  0  0  0  0
   11.7539  -16.8194   21.4146 C   0  0  0  0  0  0  0  0  0  0  0  0
   10.3673  -16.2835   21.7052 C   0  0  2  0  0  0  0  0  0  0  0  0
    9.9804  -15.2565   20.7730 N   0  0  0  0  0  0  0  0  0  0  0  0
   10.3798  -15.6867   23.0693 C   0  0  0  0  0  0  0  0  0  0  0  0
   10.1827  -14.4486   23.1789 O   0  0  0  0  0  0  0  0  0  0  0  0
   13.6329  -18.8578   15.8742 N   0  0  0  0  0  0  0  0  0  0  0  0
    7.7570  -14.6552   25.7946 C   0  0  0  0  0  0  0  0  0  0  0  0
    7.3014  -15.6988   24.9545 O   0  0  0  0  0  0  0  0  0  0  0  0
    6.1210  -15.6735   24.5718 C   0  0  0  0  0  0  0  0  0  0  0  0
    8.2044  -16.7876   24.5441 C   0  0  2  0  0  0  0  0  0  0  0  0
    9.5497  -16.5832   25.2083 N   0  0  0  0  0  0  0  0  0  0  0  0
   10.6049  -16.4657   24.2315 C   0  0  0  0  0  0  0  0  0  0  0  0
    9.8788  -17.6304   26.1959 O   0  0  0  0  0  0  0  0  0  0  0  0
    9.7992  -18.8459   25.9368 O   0  0  0  0  0  0  0  0  0  0  0  0
  1  2  1  0
  2  3  2  0
  4  2  1  0
  4  5  1  0
  6  8  1  0
  6  5  1  0
  6  7  1  6
  8  9  2  0
 10 11  1  0
 11 12  2  0
 11 13  1  0
 13 14  1  0
 14 15  1  0
 15 16  1  0
 17 16  1  6
 17 19  1  0
 18 17  1  0
 18  8  1  0
 19 20  2  0
 21 22  1  0
 22 24  1  0
 23 22  2  0
 25 24  1  6
 25 27  1  0
 26 19  1  0
 26 25  1  0
 27 28  2  0
 27 29  1  0
M  END
$$$$
