QRN.pdb
     RDKit          3D

 29 28  0  0  1  0  0  0  0  0999 V2000
    9.0489  -14.3277   15.4315 N   0  0  0  0  0  0  0  0  0  0  0  0
    7.6727  -14.3258   15.7907 C   0  0  0  0  0  0  0  0  0  0  0  0
    6.8510  -14.7306   14.9407 O   0  0  0  0  0  0  0  0  0  0  0  0
    7.2740  -13.8594   17.1177 C   0  0  0  0  0  0  0  0  0  0  0  0
    8.3888  -13.4543   18.0223 C   0  0  0  0  0  0  0  0  0  0  0  0
    9.2012  -14.6209   18.5512 C   0  0  2  0  0  0  0  0  0  0  0  0
    8.2448  -15.6777   18.8620 N   0  0  0  0  0  0  0  0  0  0  0  0
    9.9035  -14.2670   19.8033 C   0  0  0  0  0  0  0  0  0  0  0  0
   10.6746  -13.2719   19.8476 O   0  0  0  0  0  0  0  0  0  0  0  0
   11.1544  -17.5780   27.0452 N   0  0  0  0  0  0  0  0  0  0  0  0
   10.9389  -16.3350   27.7046 C   0  0  0  0  0  0  0  0  0  0  0  0
   11.4792  -16.1436   28.8712 N   0  0  0  0  0  0  0  0  0  0  0  0
   10.1537  -15.3355   27.0952 N   0  0  0  0  0  0  0  0  0  0  0  0
    9.4618  -15.6286   25.8584 C   0  0  0  0  0  0  0  0  0  0  0  0
   10.2752  -15.0892   24.6925 C   0  0  0  0  0  0  0  0  0  0  0  0
    9.5946  -15.3591   23.3858 C   0  0  0  0  0  0  0  0  0  0  0  0
   10.3972  -14.8614   22.2015 C   0  0  2  0  0  0  0  0  0  0  0  0
    9.7003  -15.0591   20.9571 N   0  0  0  0  0  0  0  0  0  0  0  0
   11.6674  -15.6364   22.1465 C   0  0  0  0  0  0  0  0  0  0  0  0
   11.5965  -16.8914   22.0851 O   0  0  0  0  0  0  0  0  0  0  0  0
   11.2698  -15.2822   29.4209 N   0  0  0  0  0  0  0  0  0  0  0  0
   14.3455  -13.8416   19.1293 C   0  0  0  0  0  0  0  0  0  0  0  0
   14.5511  -15.0943   19.7546 O   0  0  0  0  0  0  0  0  0  0  0  0
   14.2296  -16.1208   19.1356 C   0  0  0  0  0  0  0  0  0  0  0  0
   15.1320  -15.1786   21.1055 C   0  0  2  0  0  0  0  0  0  0  0  0
   14.1213  -15.8200   22.0328 N   0  0  0  0  0  0  0  0  0  0  0  0
   12.9368  -15.0066   22.1614 C   0  0  0  0  0  0  0  0  0  0  0  0
   14.6714  -16.1399   23.3651 O   0  0  0  0  0  0  0  0  0  0  0  0
   14.1356  -15.7569   24.4220 O   0  0  0  0  0  0  0  0  0  0  0  0
  1  2  1  0
  2  3  2  0
  4  2  1  0
  4  5  1  0
  6  8  1  0
  6  5  1  0
  6  7  1  1
  8  9  2  0
 10 11  1  0
 11 12  2  0
 11 13  1  0
 13 14  1  0
 14 15  1  0
 15 16  1  0
 17 16  1  1
 17 19  1  0
 18 17  1  0
 18  8  1  0
 19 20  2  0
 21 22  1  0
 22 24  1  0
 23 22  2  0
 25 24  1  6
 25 27  1  0
 26 19  1  0
 26 25  1  0
 27 28  2  0
 27 29  1  0
M  END
$$$$
