QRN.pdb
     RDKit          3D

 29 28  0  0  1  0  0  0  0  0999 V2000
   16.4358  -12.7743   15.7194 N   0  0  0  0  0  0  0  0  0  0  0  0
   15.2487  -13.5409   15.8811 C   0  0  0  0  0  0  0  0  0  0  0  0
   14.7682  -14.0868   14.8649 O   0  0  0  0  0  0  0  0  0  0  0  0
   14.6428  -13.6619   17.2061 C   0  0  0  0  0  0  0  0  0  0  0  0
   15.5061  -14.2727   18.2582 C   0  0  0  0  0  0  0  0  0  0  0  0
   14.9374  -15.5479   18.8508 C   0  0  2  0  0  0  0  0  0  0  0  0
   14.2579  -16.2382   17.7601 N   0  0  0  0  0  0  0  0  0  0  0  0
   13.9320  -15.2571   19.8952 C   0  0  0  0  0  0  0  0  0  0  0  0
   14.2074  -14.4901   20.8557 O   0  0  0  0  0  0  0  0  0  0  0  0
    8.5902  -12.8862   18.2853 N   0  0  0  0  0  0  0  0  0  0  0  0
    7.9520  -12.4942   19.4958 C   0  0  0  0  0  0  0  0  0  0  0  0
    7.8627  -11.2277   19.7743 N   0  0  0  0  0  0  0  0  0  0  0  0
    7.4283  -13.4686   20.3694 N   0  0  0  0  0  0  0  0  0  0  0  0
    7.8411  -14.8483   20.2271 C   0  0  0  0  0  0  0  0  0  0  0  0
    9.1493  -15.0565   20.9736 C   0  0  0  0  0  0  0  0  0  0  0  0
   10.2394  -15.4955   20.0448 C   0  0  0  0  0  0  0  0  0  0  0  0
   11.5823  -15.6009   20.7375 C   0  0  2  0  0  0  0  0  0  0  0  0
   12.6512  -15.8501   19.8054 N   0  0  0  0  0  0  0  0  0  0  0  0
   11.5229  -16.7462   21.6873 C   0  0  0  0  0  0  0  0  0  0  0  0
   11.6801  -17.9078   21.2293 O   0  0  0  0  0  0  0  0  0  0  0  0
    7.3801  -10.9052   20.6410 N   0  0  0  0  0  0  0  0  0  0  0  0
   14.0809  -19.6707   22.4053 C   0  0  0  0  0  0  0  0  0  0  0  0
   13.2323  -19.3753   23.4985 O   0  0  0  0  0  0  0  0  0  0  0  0
   12.6331  -20.3127   24.0486 C   0  0  0  0  0  0  0  0  0  0  0  0
   13.0643  -17.9908   23.9724 C   0  0  2  0  0  0  0  0  0  0  0  0
   11.5886  -17.6518   23.9772 N   0  0  0  0  0  0  0  0  0  0  0  0
   11.2968  -16.5649   23.0745 C   0  0  0  0  0  0  0  0  0  0  0  0
   11.0615  -17.3557   25.3243 O   0  0  0  0  0  0  0  0  0  0  0  0
   11.2320  -18.1181   26.2942 O   0  0  0  0  0  0  0  0  0  0  0  0
  1  2  1  0
  2  3  2  0
  4  2  1  0
  4  5  1  0
  6  8  1  0
  6  5  1  0
  6  7  1  6
  8  9  2  0
 10 11  1  0
 11 12  2  0
 11 13  1  0
 13 14  1  0
 14 15  1  0
 15 16  1  0
 17 16  1  6
 17 19  1  0
 18 17  1  0
 18  8  1  0
 19 20  2  0
 21 22  1  0
 22 24  1  0
 23 22  2  0
 25 24  1  6
 25 27  1  0
 26 19  1  0
 26 25  1  0
 27 28  2  0
 27 29  1  0
M  END
$$$$
