HFN.pdb
     RDKit          3D

 30 31  0  0  1  0  0  0  0  0999 V2000
   27.3535  -21.5867  -14.8910 N   0  0  0  0  0  0  0  0  0  0  0  0
   26.7833  -20.4539  -14.1909 C   0  0  1  0  0  0  0  0  0  0  0  0
   26.1846  -19.5337  -15.2569 C   0  0  0  0  0  0  0  0  0  0  0  0
   27.2719  -18.8632  -16.0213 C   0  0  0  0  0  0  0  0  0  0  0  0
   28.6368  -18.9396  -15.8464 C   0  0  0  0  0  0  0  0  0  0  0  0
   29.2754  -18.1773  -16.7511 N   0  0  0  0  0  0  0  0  0  0  0  0
   28.3133  -17.6091  -17.5100 C   0  0  0  0  0  0  0  0  0  0  0  0
   27.1056  -18.0203  -17.0730 N   0  0  0  0  0  0  0  0  0  0  0  0
   25.7021  -20.9458  -13.3275 C   0  0  0  0  0  0  0  0  0  0  0  0
   25.0550  -21.9819  -13.5882 O   0  0  0  0  0  0  0  0  0  0  0  0
   25.3640  -20.2365  -12.1530 N   0  0  0  0  0  0  0  0  0  0  0  0
   24.2928  -20.6425  -11.2630 C   0  0  1  0  0  0  0  0  0  0  0  0
   24.4975  -19.9365   -9.9632 C   0  0  0  0  0  0  0  0  0  0  0  0
   25.8319  -20.3133   -9.4314 C   0  0  0  0  0  0  0  0  0  0  0  0
   26.2771  -19.6447   -8.3124 C   0  0  0  0  0  0  0  0  0  0  0  0
   27.5092  -19.9099   -7.7232 C   0  0  0  0  0  0  0  0  0  0  0  0
   28.3104  -20.8645   -8.2671 C   0  0  0  0  0  0  0  0  0  0  0  0
   27.8705  -21.5426   -9.3935 C   0  0  0  0  0  0  0  0  0  0  0  0
   26.6427  -21.2759   -9.9778 C   0  0  0  0  0  0  0  0  0  0  0  0
   22.9669  -20.4348  -11.8675 C   0  0  0  0  0  0  0  0  0  0  0  0
   22.8448  -19.4958  -12.6965 O   0  0  0  0  0  0  0  0  0  0  0  0
   20.0083  -21.3592  -15.7970 N   0  0  0  0  0  0  0  0  0  0  0  0
   20.2232  -22.2929  -14.7467 C   0  0  0  0  0  0  0  0  0  0  0  0
   19.5651  -23.3460  -14.7664 O   0  0  0  0  0  0  0  0  0  0  0  0
   21.1876  -21.9712  -13.7196 C   0  0  0  0  0  0  0  0  0  0  0  0
   20.6567  -21.2996  -12.4765 C   0  0  2  0  0  0  0  0  0  0  0  0
   21.8257  -21.2096  -11.5862 N   0  0  0  0  0  0  0  0  0  0  0  0
   19.5864  -22.0716  -11.8119 C   0  0  0  0  0  0  0  0  0  0  0  0
   18.3977  -21.8422  -12.1226 O   0  0  0  0  0  0  0  0  0  0  0  0
   19.8756  -23.0207  -10.8763 O   0  0  0  0  0  0  0  0  0  0  0  0
  2  3  1  0
  2  1  1  6
  3  4  1  0
  4  8  1  0
  4  5  2  0
  5  6  1  0
  7  6  1  0
  8  7  2  0
  9 11  1  0
  9  2  1  0
 10  9  2  0
 12 13  1  1
 12 11  1  0
 13 14  1  0
 14 15  2  0
 14 19  1  0
 15 16  1  0
 16 17  2  0
 18 17  1  0
 19 18  2  0
 20 12  1  0
 20 21  2  0
 22 23  1  0
 23 24  2  0
 23 25  1  0
 26 25  1  6
 26 27  1  0
 27 20  1  0
 28 26  1  0
 28 30  1  0
 29 28  2  0
M  END
$$$$
