HFN.pdb
     RDKit          3D

 30 31  0  0  1  0  0  0  0  0999 V2000
   26.4192  -21.0350  -17.4193 N   0  0  0  0  0  0  0  0  0  0  0  0
   26.3420  -22.4347  -17.0542 C   0  0  1  0  0  0  0  0  0  0  0  0
   27.7671  -22.9874  -17.1263 C   0  0  0  0  0  0  0  0  0  0  0  0
   28.2398  -22.9974  -18.5378 C   0  0  0  0  0  0  0  0  0  0  0  0
   27.5508  -22.6897  -19.6912 C   0  0  0  0  0  0  0  0  0  0  0  0
   28.3435  -22.8239  -20.7686 N   0  0  0  0  0  0  0  0  0  0  0  0
   29.5477  -23.2201  -20.3023 C   0  0  0  0  0  0  0  0  0  0  0  0
   29.4885  -23.3255  -18.9593 N   0  0  0  0  0  0  0  0  0  0  0  0
   25.8696  -22.5209  -15.6665 C   0  0  0  0  0  0  0  0  0  0  0  0
   25.7674  -23.6078  -15.0596 O   0  0  0  0  0  0  0  0  0  0  0  0
   25.5116  -21.3431  -14.9725 N   0  0  0  0  0  0  0  0  0  0  0  0
   25.0290  -21.3454  -13.6045 C   0  0  1  0  0  0  0  0  0  0  0  0
   25.9804  -20.5307  -12.7916 C   0  0  0  0  0  0  0  0  0  0  0  0
   25.5563  -20.5967  -11.3700 C   0  0  0  0  0  0  0  0  0  0  0  0
   26.4923  -21.0174  -10.4511 C   0  0  0  0  0  0  0  0  0  0  0  0
   26.2129  -21.1198   -9.0920 C   0  0  0  0  0  0  0  0  0  0  0  0
   24.9704  -20.7939   -8.6460 C   0  0  0  0  0  0  0  0  0  0  0  0
   24.0219  -20.3693   -9.5637 C   0  0  0  0  0  0  0  0  0  0  0  0
   24.3036  -20.2685  -10.9167 C   0  0  0  0  0  0  0  0  0  0  0  0
   23.6250  -20.9120  -13.5158 C   0  0  0  0  0  0  0  0  0  0  0  0
   23.0844  -20.9159  -12.3793 O   0  0  0  0  0  0  0  0  0  0  0  0
   22.3744  -21.5796  -17.9596 N   0  0  0  0  0  0  0  0  0  0  0  0
   21.5772  -20.7438  -17.1306 C   0  0  0  0  0  0  0  0  0  0  0  0
   21.3774  -19.5776  -17.5081 O   0  0  0  0  0  0  0  0  0  0  0  0
   21.0455  -21.2896  -15.9027 C   0  0  0  0  0  0  0  0  0  0  0  0
   21.3720  -20.5443  -14.6313 C   0  0  2  0  0  0  0  0  0  0  0  0
   22.8432  -20.4936  -14.6091 N   0  0  0  0  0  0  0  0  0  0  0  0
   20.8816  -21.2271  -13.4162 C   0  0  0  0  0  0  0  0  0  0  0  0
   20.2632  -20.5596  -12.5594 O   0  0  0  0  0  0  0  0  0  0  0  0
   21.0915  -22.5604  -13.2207 O   0  0  0  0  0  0  0  0  0  0  0  0
  2  3  1  0
  2  1  1  1
  3  4  1  0
  4  8  1  0
  4  5  2  0
  5  6  1  0
  7  6  1  0
  8  7  2  0
  9 11  1  0
  9  2  1  0
 10  9  2  0
 12 13  1  1
 12 11  1  0
 13 14  1  0
 14 15  2  0
 14 19  1  0
 15 16  1  0
 16 17  2  0
 18 17  1  0
 19 18  2  0
 20 12  1  0
 20 21  2  0
 22 23  1  0
 23 24  2  0
 23 25  1  0
 26 25  1  6
 26 27  1  0
 27 20  1  0
 28 26  1  0
 28 30  1  0
 29 28  2  0
M  END
$$$$
