HFN.pdb
     RDKit          3D

 30 31  0  0  1  0  0  0  0  0999 V2000
   26.7865    3.5054   -7.0305 N   0  0  0  0  0  0  0  0  0  0  0  0
   27.0922    3.8764   -5.6640 C   0  0  1  0  0  0  0  0  0  0  0  0
   26.5833    5.3067   -5.4720 C   0  0  0  0  0  0  0  0  0  0  0  0
   27.4172    6.2552   -6.2599 C   0  0  0  0  0  0  0  0  0  0  0  0
   27.0626    7.0475   -7.3304 C   0  0  0  0  0  0  0  0  0  0  0  0
   28.1153    7.7646   -7.7604 N   0  0  0  0  0  0  0  0  0  0  0  0
   29.1505    7.4295   -6.9603 C   0  0  0  0  0  0  0  0  0  0  0  0
   28.7334    6.5206   -6.0556 N   0  0  0  0  0  0  0  0  0  0  0  0
   26.3457    2.9832   -4.7688 C   0  0  0  0  0  0  0  0  0  0  0  0
   25.2013    2.5639   -5.0420 O   0  0  0  0  0  0  0  0  0  0  0  0
   26.9241    2.5700   -3.5474 N   0  0  0  0  0  0  0  0  0  0  0  0
   26.2185    1.7636   -2.5695 C   0  0  1  0  0  0  0  0  0  0  0  0
   27.1244    0.6448   -2.1730 C   0  0  0  0  0  0  0  0  0  0  0  0
   26.4774   -0.1129   -1.0718 C   0  0  0  0  0  0  0  0  0  0  0  0
   25.5162   -1.0359   -1.4206 C   0  0  0  0  0  0  0  0  0  0  0  0
   24.8411   -1.8054   -0.4783 C   0  0  0  0  0  0  0  0  0  0  0  0
   25.1360   -1.6459    0.8395 C   0  0  0  0  0  0  0  0  0  0  0  0
   26.1022   -0.7192    1.1998 C   0  0  0  0  0  0  0  0  0  0  0  0
   26.7726    0.0456    0.2587 C   0  0  0  0  0  0  0  0  0  0  0  0
   25.7208    2.5730   -1.4452 C   0  0  0  0  0  0  0  0  0  0  0  0
   26.4990    3.4328   -0.9566 O   0  0  0  0  0  0  0  0  0  0  0  0
   20.6776    5.0548    0.6054 N   0  0  0  0  0  0  0  0  0  0  0  0
   21.8621    4.3651    0.9830 C   0  0  0  0  0  0  0  0  0  0  0  0
   22.2284    4.4516    2.1665 O   0  0  0  0  0  0  0  0  0  0  0  0
   22.5722    3.6059   -0.0209 C   0  0  0  0  0  0  0  0  0  0  0  0
   23.9929    3.2132    0.3041 C   0  0  2  0  0  0  0  0  0  0  0  0
   24.4383    2.4555   -0.8769 N   0  0  0  0  0  0  0  0  0  0  0  0
   24.0990    2.3621    1.5074 C   0  0  0  0  0  0  0  0  0  0  0  0
   24.8652    2.7164    2.4290 O   0  0  0  0  0  0  0  0  0  0  0  0
   23.3791    1.2097    1.6241 O   0  0  0  0  0  0  0  0  0  0  0  0
  2  3  1  0
  2  1  1  6
  3  4  1  0
  4  8  1  0
  4  5  2  0
  5  6  1  0
  7  6  1  0
  8  7  2  0
  9 11  1  0
  9  2  1  0
 10  9  2  0
 12 13  1  1
 12 11  1  0
 13 14  1  0
 14 15  2  0
 14 19  1  0
 15 16  1  0
 16 17  2  0
 18 17  1  0
 19 18  2  0
 20 12  1  0
 20 21  2  0
 22 23  1  0
 23 24  2  0
 23 25  1  0
 26 25  1  6
 26 27  1  0
 27 20  1  0
 28 26  1  0
 28 30  1  0
 29 28  2  0
M  END
$$$$
