HFN.pdb
     RDKit          3D

 30 31  0  0  1  0  0  0  0  0999 V2000
   24.3367  -12.6539  -19.0441 N   0  0  0  0  0  0  0  0  0  0  0  0
   23.9185  -11.3165  -19.4112 C   0  0  1  0  0  0  0  0  0  0  0  0
   22.5623  -11.4547  -20.1064 C   0  0  0  0  0  0  0  0  0  0  0  0
   22.7440  -12.0182  -21.4721 C   0  0  0  0  0  0  0  0  0  0  0  0
   23.6239  -11.6389  -22.4629 C   0  0  0  0  0  0  0  0  0  0  0  0
   23.4689  -12.4065  -23.5556 N   0  0  0  0  0  0  0  0  0  0  0  0
   22.4837  -13.2828  -23.2629 C   0  0  0  0  0  0  0  0  0  0  0  0
   22.0450  -13.0515  -22.0089 N   0  0  0  0  0  0  0  0  0  0  0  0
   23.7427  -10.5370  -18.1792 C   0  0  0  0  0  0  0  0  0  0  0  0
   23.2407  -11.0235  -17.1442 O   0  0  0  0  0  0  0  0  0  0  0  0
   24.1495   -9.1842  -18.1405 N   0  0  0  0  0  0  0  0  0  0  0  0
   23.9342   -8.3248  -16.9918 C   0  0  1  0  0  0  0  0  0  0  0  0
   25.2675   -7.8077  -16.5622 C   0  0  0  0  0  0  0  0  0  0  0  0
   26.0672   -8.9478  -16.0464 C   0  0  0  0  0  0  0  0  0  0  0  0
   27.0866   -9.4163  -16.8456 C   0  0  0  0  0  0  0  0  0  0  0  0
   27.9035  -10.4782  -16.4705 C   0  0  0  0  0  0  0  0  0  0  0  0
   27.6936  -11.0820  -15.2703 C   0  0  0  0  0  0  0  0  0  0  0  0
   26.6697  -10.6171  -14.4593 C   0  0  0  0  0  0  0  0  0  0  0  0
   25.8580   -9.5592  -14.8361 C   0  0  0  0  0  0  0  0  0  0  0  0
   22.9345   -7.2798  -17.2664 C   0  0  0  0  0  0  0  0  0  0  0  0
   22.6257   -7.0699  -18.4682 O   0  0  0  0  0  0  0  0  0  0  0  0
   17.8539   -6.2842  -18.1240 N   0  0  0  0  0  0  0  0  0  0  0  0
   18.9542   -5.5657  -17.5816 C   0  0  0  0  0  0  0  0  0  0  0  0
   18.8524   -4.3308  -17.4969 O   0  0  0  0  0  0  0  0  0  0  0  0
   20.1238   -6.3027  -17.1606 C   0  0  0  0  0  0  0  0  0  0  0  0
   21.2596   -5.4978  -16.5771 C   0  0  2  0  0  0  0  0  0  0  0  0
   22.2988   -6.4983  -16.2831 N   0  0  0  0  0  0  0  0  0  0  0  0
   20.8898   -4.7882  -15.3349 C   0  0  0  0  0  0  0  0  0  0  0  0
   20.6968   -5.4554  -14.2959 O   0  0  0  0  0  0  0  0  0  0  0  0
   20.7594   -3.4309  -15.3079 O   0  0  0  0  0  0  0  0  0  0  0  0
  2  3  1  0
  2  1  1  1
  3  4  1  0
  4  8  1  0
  4  5  2  0
  5  6  1  0
  7  6  1  0
  8  7  2  0
  9 11  1  0
  9  2  1  0
 10  9  2  0
 12 13  1  6
 12 11  1  0
 13 14  1  0
 14 15  2  0
 14 19  1  0
 15 16  1  0
 16 17  2  0
 18 17  1  0
 19 18  2  0
 20 12  1  0
 20 21  2  0
 22 23  1  0
 23 24  2  0
 23 25  1  0
 26 25  1  1
 26 27  1  0
 27 20  1  0
 28 26  1  0
 28 30  1  0
 29 28  2  0
M  END
$$$$
