HFN.pdb
     RDKit          3D

 30 31  0  0  1  0  0  0  0  0999 V2000
   28.3948  -20.3389  -17.4444 N   0  0  0  0  0  0  0  0  0  0  0  0
   27.7920  -21.6557  -17.4760 C   0  0  1  0  0  0  0  0  0  0  0  0
   28.9353  -22.6591  -17.6423 C   0  0  0  0  0  0  0  0  0  0  0  0
   29.7947  -22.2674  -18.7928 C   0  0  0  0  0  0  0  0  0  0  0  0
   29.4386  -21.6826  -19.9890 C   0  0  0  0  0  0  0  0  0  0  0  0
   30.5198  -21.4898  -20.7643 N   0  0  0  0  0  0  0  0  0  0  0  0
   31.5749  -21.9540  -20.0603 C   0  0  0  0  0  0  0  0  0  0  0  0
   31.1415  -22.4230  -18.8726 N   0  0  0  0  0  0  0  0  0  0  0  0
   27.1383  -21.8916  -16.1824 C   0  0  0  0  0  0  0  0  0  0  0  0
   26.5681  -22.9680  -15.9060 O   0  0  0  0  0  0  0  0  0  0  0  0
   27.1421  -20.8771  -15.1987 N   0  0  0  0  0  0  0  0  0  0  0  0
   26.4156  -20.9839  -13.9476 C   0  0  1  0  0  0  0  0  0  0  0  0
   27.2003  -20.2521  -12.9091 C   0  0  0  0  0  0  0  0  0  0  0  0
   26.4715  -20.3476  -11.6188 C   0  0  0  0  0  0  0  0  0  0  0  0
   26.8727  -21.3282  -10.7384 C   0  0  0  0  0  0  0  0  0  0  0  0
   26.2669  -21.5152   -9.5000 C   0  0  0  0  0  0  0  0  0  0  0  0
   25.2385  -20.7027   -9.1376 C   0  0  0  0  0  0  0  0  0  0  0  0
   24.8279  -19.7130  -10.0174 C   0  0  0  0  0  0  0  0  0  0  0  0
   25.4336  -19.5295  -11.2501 C   0  0  0  0  0  0  0  0  0  0  0  0
   25.0190  -20.5387  -14.0829 C   0  0  0  0  0  0  0  0  0  0  0  0
   24.8161  -19.3953  -14.5679 O   0  0  0  0  0  0  0  0  0  0  0  0
   19.7877  -20.4471  -14.3899 N   0  0  0  0  0  0  0  0  0  0  0  0
   20.4729  -21.4527  -15.1250 C   0  0  0  0  0  0  0  0  0  0  0  0
   19.8180  -22.1151  -15.9464 O   0  0  0  0  0  0  0  0  0  0  0  0
   21.8835  -21.6504  -14.8805 C   0  0  0  0  0  0  0  0  0  0  0  0
   22.5089  -20.8077  -13.7956 C   0  0  2  0  0  0  0  0  0  0  0  0
   23.8942  -21.2984  -13.7094 N   0  0  0  0  0  0  0  0  0  0  0  0
   21.8457  -20.9641  -12.4845 C   0  0  0  0  0  0  0  0  0  0  0  0
   20.7036  -20.4815  -12.3269 O   0  0  0  0  0  0  0  0  0  0  0  0
   22.4560  -21.6213  -11.4572 O   0  0  0  0  0  0  0  0  0  0  0  0
  2  3  1  0
  2  1  1  1
  3  4  1  0
  4  8  1  0
  4  5  2  0
  5  6  1  0
  7  6  1  0
  8  7  2  0
  9 11  1  0
  9  2  1  0
 10  9  2  0
 12 13  1  1
 12 11  1  0
 13 14  1  0
 14 15  2  0
 14 19  1  0
 15 16  1  0
 16 17  2  0
 18 17  1  0
 19 18  2  0
 20 12  1  0
 20 21  2  0
 22 23  1  0
 23 24  2  0
 23 25  1  0
 26 25  1  6
 26 27  1  0
 27 20  1  0
 28 26  1  0
 28 30  1  0
 29 28  2  0
M  END
$$$$
