HFN.pdb
     RDKit          3D

 30 31  0  0  1  0  0  0  0  0999 V2000
   27.0437  -24.4542  -16.4666 N   0  0  0  0  0  0  0  0  0  0  0  0
   26.3952  -23.2172  -16.8509 C   0  0  1  0  0  0  0  0  0  0  0  0
   25.5609  -23.5261  -18.0960 C   0  0  0  0  0  0  0  0  0  0  0  0
   26.4441  -23.6273  -19.2899 C   0  0  0  0  0  0  0  0  0  0  0  0
   26.7625  -24.7328  -20.0489 C   0  0  0  0  0  0  0  0  0  0  0  0
   27.5986  -24.3992  -21.0474 N   0  0  0  0  0  0  0  0  0  0  0  0
   27.8170  -23.0718  -20.9271 C   0  0  0  0  0  0  0  0  0  0  0  0
   27.1232  -22.6039  -19.8696 N   0  0  0  0  0  0  0  0  0  0  0  0
   25.4937  -22.8154  -15.7636 C   0  0  0  0  0  0  0  0  0  0  0  0
   24.9585  -23.6430  -14.9964 O   0  0  0  0  0  0  0  0  0  0  0  0
   25.2068  -21.4469  -15.5593 N   0  0  0  0  0  0  0  0  0  0  0  0
   24.3673  -20.9663  -14.4783 C   0  0  1  0  0  0  0  0  0  0  0  0
   25.0816  -19.8278  -13.8276 C   0  0  0  0  0  0  0  0  0  0  0  0
   26.1107  -20.3832  -12.9124 C   0  0  0  0  0  0  0  0  0  0  0  0
   27.4046  -20.4452  -13.3809 C   0  0  0  0  0  0  0  0  0  0  0  0
   28.4540  -20.9452  -12.6164 C   0  0  0  0  0  0  0  0  0  0  0  0
   28.2005  -21.3918  -11.3573 C   0  0  0  0  0  0  0  0  0  0  0  0
   26.9011  -21.3332  -10.8774 C   0  0  0  0  0  0  0  0  0  0  0  0
   25.8583  -20.8346  -11.6416 C   0  0  0  0  0  0  0  0  0  0  0  0
   23.0057  -20.6486  -14.9388 C   0  0  0  0  0  0  0  0  0  0  0  0
   22.8905  -19.9360  -15.9697 O   0  0  0  0  0  0  0  0  0  0  0  0
   19.4849  -21.9976  -12.4590 N   0  0  0  0  0  0  0  0  0  0  0  0
   19.2305  -22.6053  -13.7189 C   0  0  0  0  0  0  0  0  0  0  0  0
   18.5926  -23.6708  -13.7280 O   0  0  0  0  0  0  0  0  0  0  0  0
   19.7231  -21.9574  -14.9131 C   0  0  0  0  0  0  0  0  0  0  0  0
   20.4743  -20.6622  -14.7220 C   0  0  2  0  0  0  0  0  0  0  0  0
   21.8235  -21.0835  -14.3105 N   0  0  0  0  0  0  0  0  0  0  0  0
   19.8852  -19.7984  -13.6779 C   0  0  0  0  0  0  0  0  0  0  0  0
   18.7831  -19.2526  -13.9002 O   0  0  0  0  0  0  0  0  0  0  0  0
   20.5205  -19.5928  -12.4888 O   0  0  0  0  0  0  0  0  0  0  0  0
  2  3  1  0
  2  1  1  1
  3  4  1  0
  4  8  1  0
  4  5  2  0
  5  6  1  0
  7  6  1  0
  8  7  2  0
  9 11  1  0
  9  2  1  0
 10  9  2  0
 12 13  1  6
 12 11  1  0
 13 14  1  0
 14 15  2  0
 14 19  1  0
 15 16  1  0
 16 17  2  0
 18 17  1  0
 19 18  2  0
 20 12  1  0
 20 21  2  0
 22 23  1  0
 23 24  2  0
 23 25  1  0
 26 25  1  1
 26 27  1  0
 27 20  1  0
 28 26  1  0
 28 30  1  0
 29 28  2  0
M  END
$$$$
