HFN.pdb
     RDKit          3D

 30 31  0  0  1  0  0  0  0  0999 V2000
   29.4453   -7.2974  -21.0128 N   0  0  0  0  0  0  0  0  0  0  0  0
   28.2635   -8.0041  -20.5631 C   0  0  1  0  0  0  0  0  0  0  0  0
   27.3191   -8.0910  -21.7640 C   0  0  0  0  0  0  0  0  0  0  0  0
   26.6959   -6.7637  -22.0202 C   0  0  0  0  0  0  0  0  0  0  0  0
   26.0170   -5.9361  -21.1521 C   0  0  0  0  0  0  0  0  0  0  0  0
   25.6096   -4.8196  -21.7804 N   0  0  0  0  0  0  0  0  0  0  0  0
   26.0302   -4.9330  -23.0589 C   0  0  0  0  0  0  0  0  0  0  0  0
   26.6847   -6.1027  -23.2065 N   0  0  0  0  0  0  0  0  0  0  0  0
   28.6624   -9.3628  -20.1741 C   0  0  0  0  0  0  0  0  0  0  0  0
   29.4500  -10.0513  -20.8565 O   0  0  0  0  0  0  0  0  0  0  0  0
   28.1483   -9.9326  -18.9876 N   0  0  0  0  0  0  0  0  0  0  0  0
   28.5256  -11.2508  -18.5136 C   0  0  1  0  0  0  0  0  0  0  0  0
   29.0441  -11.0958  -17.1219 C   0  0  0  0  0  0  0  0  0  0  0  0
   30.4110  -10.5199  -17.1936 C   0  0  0  0  0  0  0  0  0  0  0  0
   31.4656  -11.4038  -17.2574 C   0  0  0  0  0  0  0  0  0  0  0  0
   32.7902  -10.9842  -17.3278 C   0  0  0  0  0  0  0  0  0  0  0  0
   33.0623   -9.6519  -17.3342 C   0  0  0  0  0  0  0  0  0  0  0  0
   32.0071   -8.7549  -17.2702 C   0  0  0  0  0  0  0  0  0  0  0  0
   30.6889   -9.1764  -17.2002 C   0  0  0  0  0  0  0  0  0  0  0  0
   27.4261  -12.2199  -18.6504 C   0  0  0  0  0  0  0  0  0  0  0  0
   26.2968  -11.8869  -18.2058 O   0  0  0  0  0  0  0  0  0  0  0  0
   24.3529  -16.0436  -20.4024 N   0  0  0  0  0  0  0  0  0  0  0  0
   24.9605  -15.1453  -21.3217 C   0  0  0  0  0  0  0  0  0  0  0  0
   24.5226  -15.1243  -22.4838 O   0  0  0  0  0  0  0  0  0  0  0  0
   26.0463  -14.3106  -20.8607 C   0  0  0  0  0  0  0  0  0  0  0  0
   26.4219  -14.4290  -19.4035 C   0  0  2  0  0  0  0  0  0  0  0  0
   27.5456  -13.4917  -19.2419 N   0  0  0  0  0  0  0  0  0  0  0  0
   26.8539  -15.7902  -19.0243 C   0  0  0  0  0  0  0  0  0  0  0  0
   27.9561  -16.2088  -19.4392 O   0  0  0  0  0  0  0  0  0  0  0  0
   26.0753  -16.5854  -18.2360 O   0  0  0  0  0  0  0  0  0  0  0  0
  2  3  1  0
  2  1  1  6
  3  4  1  0
  4  8  1  0
  4  5  2  0
  5  6  1  0
  7  6  1  0
  8  7  2  0
  9 11  1  0
  9  2  1  0
 10  9  2  0
 12 13  1  1
 12 11  1  0
 13 14  1  0
 14 15  2  0
 14 19  1  0
 15 16  1  0
 16 17  2  0
 18 17  1  0
 19 18  2  0
 20 12  1  0
 20 21  2  0
 22 23  1  0
 23 24  2  0
 23 25  1  0
 26 25  1  6
 26 27  1  0
 27 20  1  0
 28 26  1  0
 28 30  1  0
 29 28  2  0
M  END
$$$$
