INL.pdb
     RDKit          3D

 25 24  0  0  1  0  0  0  0  0999 V2000
   15.5532  -14.8638  -19.1096 C   0  0  0  0  0  0  0  0  0  0  0  0
   16.7952  -14.2154  -18.4911 C   0  0  0  0  0  0  0  0  0  0  0  0
   16.5459  -12.7761  -18.1785 C   0  0  2  0  0  0  0  0  0  0  0  0
   15.9427  -12.0460  -19.3491 C   0  0  0  0  0  0  0  0  0  0  0  0
   17.7182  -12.0591  -17.5576 C   0  0  2  0  0  0  0  0  0  0  0  0
   18.0571  -12.8088  -16.3424 N   0  0  0  0  0  0  0  0  0  0  0  0
   17.4343  -10.6746  -17.1460 C   0  0  0  0  0  0  0  0  0  0  0  0
   17.2965   -9.7644  -18.0089 O   0  0  0  0  0  0  0  0  0  0  0  0
   14.3775   -8.4794  -15.9840 N   0  0  0  0  0  0  0  0  0  0  0  0
   14.7705   -8.6677  -14.6555 C   0  0  0  0  0  0  0  0  0  0  0  0
   13.8738   -8.6906  -13.7667 O   0  0  0  0  0  0  0  0  0  0  0  0
   16.1931   -8.8445  -14.2202 C   0  0  0  0  0  0  0  0  0  0  0  0
   17.1037   -8.8493  -15.4539 C   0  0  2  0  0  0  0  0  0  0  0  0
   17.2885  -10.2401  -15.7864 N   0  0  0  0  0  0  0  0  0  0  0  0
   18.3467   -8.1050  -15.1843 C   0  0  0  0  0  0  0  0  0  0  0  0
   18.1977   -6.9879  -14.5919 O   0  0  0  0  0  0  0  0  0  0  0  0
   22.0104   -9.2275  -12.5646 C   0  0  0  0  0  0  0  0  0  0  0  0
   21.9980   -9.7057  -13.9639 C   0  0  2  0  0  0  0  0  0  0  0  0
   23.2670  -10.5530  -14.2100 C   0  0  0  0  0  0  0  0  0  0  0  0
   21.9417   -8.7329  -15.0613 C   0  0  0  0  0  0  0  0  0  0  0  0
   20.8523   -7.7389  -15.1475 C   0  0  2  0  0  0  0  0  0  0  0  0
   19.6516   -8.5399  -15.5295 N   0  0  0  0  0  0  0  0  0  0  0  0
   20.9559   -6.6853  -16.1586 C   0  0  0  0  0  0  0  0  0  0  0  0
   21.6556   -5.4792  -15.8859 O   0  0  0  0  0  0  0  0  0  0  0  0
   20.4671   -6.7174  -17.3224 O   0  0  0  0  0  0  0  0  0  0  0  0
  2  1  1  0
  2  3  1  0
  3  4  1  6
  5  3  1  0
  5  6  1  1
  7  5  1  0
  7  8  2  0
 10 12  1  0
 10  9  1  0
 11 10  2  0
 13 12  1  1
 13 14  1  0
 14  7  1  0
 15 13  1  0
 16 15  2  0
 18 20  1  0
 18 17  1  1
 19 18  1  0
 21 20  1  6
 21 22  1  0
 21 23  1  0
 22 15  1  0
 23 24  1  0
 25 23  2  0
M  END
$$$$
