INL.pdb
     RDKit          3D

 25 24  0  0  1  0  0  0  0  0999 V2000
   12.8579  -12.7207  -12.7741 C   0  0  0  0  0  0  0  0  0  0  0  0
   13.6963  -12.3162  -11.5579 C   0  0  0  0  0  0  0  0  0  0  0  0
   14.1313  -10.8908  -11.6602 C   0  0  2  0  0  0  0  0  0  0  0  0
   14.8117  -10.6067  -12.9730 C   0  0  0  0  0  0  0  0  0  0  0  0
   14.8924  -10.3819  -10.4620 C   0  0  2  0  0  0  0  0  0  0  0  0
   14.0330  -10.6291   -9.2985 N   0  0  0  0  0  0  0  0  0  0  0  0
   15.1753   -8.9376  -10.4911 C   0  0  0  0  0  0  0  0  0  0  0  0
   14.2655   -8.1113  -10.7764 O   0  0  0  0  0  0  0  0  0  0  0  0
   16.7349   -4.1381   -9.9406 N   0  0  0  0  0  0  0  0  0  0  0  0
   15.9115   -4.8701   -9.0799 C   0  0  0  0  0  0  0  0  0  0  0  0
   15.2265   -4.2367   -8.2290 O   0  0  0  0  0  0  0  0  0  0  0  0
   15.7913   -6.3633   -9.1049 C   0  0  0  0  0  0  0  0  0  0  0  0
   16.6521   -6.9221  -10.2442 C   0  0  2  0  0  0  0  0  0  0  0  0
   16.4532   -8.3498  -10.2079 N   0  0  0  0  0  0  0  0  0  0  0  0
   18.0523   -6.4865  -10.0984 C   0  0  0  0  0  0  0  0  0  0  0  0
   18.6679   -6.9533   -9.0863 O   0  0  0  0  0  0  0  0  0  0  0  0
   21.4980   -7.4967  -14.0632 C   0  0  0  0  0  0  0  0  0  0  0  0
   20.8915   -8.0612  -12.8384 C   0  0  2  0  0  0  0  0  0  0  0  0
   20.3152   -9.4570  -13.1678 C   0  0  0  0  0  0  0  0  0  0  0  0
   19.8160   -7.3292  -12.1592 C   0  0  0  0  0  0  0  0  0  0  0  0
   20.0508   -5.9935  -11.5736 C   0  0  2  0  0  0  0  0  0  0  0  0
   18.7333   -5.6125  -10.9837 N   0  0  0  0  0  0  0  0  0  0  0  0
   20.4064   -4.8961  -12.4750 C   0  0  0  0  0  0  0  0  0  0  0  0
   21.7561   -4.4748  -12.6141 O   0  0  0  0  0  0  0  0  0  0  0  0
   19.6078   -4.2320  -13.1931 O   0  0  0  0  0  0  0  0  0  0  0  0
  2  1  1  0
  2  3  1  0
  3  4  1  6
  5  3  1  0
  5  6  1  1
  7  5  1  0
  7  8  2  0
 10 12  1  0
 10  9  1  0
 11 10  2  0
 13 12  1  1
 13 14  1  0
 14  7  1  0
 15 13  1  0
 16 15  2  0
 18 20  1  0
 18 17  1  6
 19 18  1  0
 21 20  1  6
 21 22  1  0
 21 23  1  0
 22 15  1  0
 23 24  1  0
 25 23  2  0
M  END
$$$$
