INL.pdb
     RDKit          3D

 25 24  0  0  1  0  0  0  0  0999 V2000
   20.4161  -17.8062  -15.0889 C   0  0  0  0  0  0  0  0  0  0  0  0
   20.2249  -17.3843  -16.5487 C   0  0  0  0  0  0  0  0  0  0  0  0
   20.3204  -15.9005  -16.6919 C   0  0  2  0  0  0  0  0  0  0  0  0
   19.4297  -15.1855  -15.7108 C   0  0  0  0  0  0  0  0  0  0  0  0
   20.1855  -15.3992  -18.1077 C   0  0  2  0  0  0  0  0  0  0  0  0
   21.2685  -16.0325  -18.8690 N   0  0  0  0  0  0  0  0  0  0  0  0
   20.3481  -13.9435  -18.2543 C   0  0  0  0  0  0  0  0  0  0  0  0
   21.4935  -13.4172  -18.1985 O   0  0  0  0  0  0  0  0  0  0  0  0
   19.5822   -8.8463  -19.0714 N   0  0  0  0  0  0  0  0  0  0  0  0
   18.4262   -9.5504  -19.4214 C   0  0  0  0  0  0  0  0  0  0  0  0
   17.4917   -8.9173  -19.9875 O   0  0  0  0  0  0  0  0  0  0  0  0
   18.2271  -11.0131  -19.1658 C   0  0  0  0  0  0  0  0  0  0  0  0
   19.5023  -11.5976  -18.5464 C   0  0  2  0  0  0  0  0  0  0  0  0
   19.2722  -13.0189  -18.4693 N   0  0  0  0  0  0  0  0  0  0  0  0
   19.7995  -10.9460  -17.2585 C   0  0  0  0  0  0  0  0  0  0  0  0
   19.0160  -11.2452  -16.3005 O   0  0  0  0  0  0  0  0  0  0  0  0
   23.1431   -8.6990  -13.3321 C   0  0  0  0  0  0  0  0  0  0  0  0
   22.8336  -10.0557  -13.8324 C   0  0  2  0  0  0  0  0  0  0  0  0
   24.1120  -10.9200  -13.7463 C   0  0  0  0  0  0  0  0  0  0  0  0
   22.3217  -10.2250  -15.1974 C   0  0  0  0  0  0  0  0  0  0  0  0
   21.1248   -9.4943  -15.6618 C   0  0  2  0  0  0  0  0  0  0  0  0
   20.8659  -10.0403  -17.0271 N   0  0  0  0  0  0  0  0  0  0  0  0
   21.2236   -8.0438  -15.8342 C   0  0  0  0  0  0  0  0  0  0  0  0
   21.7722   -7.4861  -17.0201 O   0  0  0  0  0  0  0  0  0  0  0  0
   20.8568   -7.1671  -15.0028 O   0  0  0  0  0  0  0  0  0  0  0  0
  2  1  1  0
  2  3  1  0
  3  4  1  1
  5  3  1  0
  5  6  1  6
  7  5  1  0
  7  8  2  0
 10 12  1  0
 10  9  1  0
 11 10  2  0
 13 12  1  1
 13 14  1  0
 14  7  1  0
 15 13  1  0
 16 15  2  0
 18 20  1  0
 18 17  1  6
 19 18  1  0
 21 20  1  6
 21 22  1  0
 21 23  1  0
 22 15  1  0
 23 24  1  0
 25 23  2  0
M  END
$$$$
