INL.pdb
     RDKit          3D

 25 24  0  0  1  0  0  0  0  0999 V2000
   23.2784  -16.3227  -20.3751 C   0  0  0  0  0  0  0  0  0  0  0  0
   23.1581  -16.5552  -18.8661 C   0  0  0  0  0  0  0  0  0  0  0  0
   23.7298  -17.8811  -18.4835 C   0  0  2  0  0  0  0  0  0  0  0  0
   23.2332  -18.9840  -19.3803 C   0  0  0  0  0  0  0  0  0  0  0  0
   23.6289  -18.2049  -17.0142 C   0  0  2  0  0  0  0  0  0  0  0  0
   24.3171  -17.1173  -16.3092 N   0  0  0  0  0  0  0  0  0  0  0  0
   24.2901  -19.4603  -16.6223 C   0  0  0  0  0  0  0  0  0  0  0  0
   23.7687  -20.5746  -16.9027 O   0  0  0  0  0  0  0  0  0  0  0  0
   28.3256  -21.0896  -17.5424 N   0  0  0  0  0  0  0  0  0  0  0  0
   28.3651  -21.3111  -16.1626 C   0  0  0  0  0  0  0  0  0  0  0  0
   29.1397  -22.2073  -15.7252 O   0  0  0  0  0  0  0  0  0  0  0  0
   27.5433  -20.5491  -15.1683 C   0  0  0  0  0  0  0  0  0  0  0  0
   26.0555  -20.7998  -15.4421 C   0  0  2  0  0  0  0  0  0  0  0  0
   25.5377  -19.5412  -15.9183 N   0  0  0  0  0  0  0  0  0  0  0  0
   25.3889  -21.3304  -14.2397 C   0  0  0  0  0  0  0  0  0  0  0  0
   25.7743  -22.4846  -13.8650 O   0  0  0  0  0  0  0  0  0  0  0  0
   24.1714  -20.7192   -8.9506 C   0  0  0  0  0  0  0  0  0  0  0  0
   25.2229  -21.1850   -9.8801 C   0  0  2  0  0  0  0  0  0  0  0  0
   26.5956  -20.7034   -9.3581 C   0  0  0  0  0  0  0  0  0  0  0  0
   25.1665  -20.7919  -11.2930 C   0  0  0  0  0  0  0  0  0  0  0  0
   23.9980  -21.1239  -12.1335 C   0  0  2  0  0  0  0  0  0  0  0  0
   24.3823  -20.6596  -13.4994 N   0  0  0  0  0  0  0  0  0  0  0  0
   22.7252  -20.4626  -11.8406 C   0  0  0  0  0  0  0  0  0  0  0  0
   21.7818  -21.0545  -10.9584 O   0  0  0  0  0  0  0  0  0  0  0  0
   22.3349  -19.3558  -12.3067 O   0  0  0  0  0  0  0  0  0  0  0  0
  2  1  1  0
  2  3  1  0
  3  4  1  6
  5  3  1  0
  5  6  1  1
  7  5  1  0
  7  8  2  0
 10 12  1  0
 10  9  1  0
 11 10  2  0
 13 12  1  1
 13 14  1  0
 14  7  1  0
 15 13  1  0
 16 15  2  0
 18 20  1  0
 18 17  1  1
 19 18  1  0
 21 20  1  1
 21 22  1  0
 21 23  1  0
 22 15  1  0
 23 24  1  0
 25 23  2  0
M  END
$$$$
