INL.pdb
     RDKit          3D

 25 24  0  0  1  0  0  0  0  0999 V2000
   15.5706  -15.2325  -18.6966 C   0  0  0  0  0  0  0  0  0  0  0  0
   16.7793  -14.4729  -19.2511 C   0  0  0  0  0  0  0  0  0  0  0  0
   17.1993  -13.3846  -18.3181 C   0  0  2  0  0  0  0  0  0  0  0  0
   16.0348  -12.5270  -17.8990 C   0  0  0  0  0  0  0  0  0  0  0  0
   18.3976  -12.5938  -18.7791 C   0  0  2  0  0  0  0  0  0  0  0  0
   19.5186  -13.5400  -18.8209 N   0  0  0  0  0  0  0  0  0  0  0  0
   18.7884  -11.5007  -17.8740 C   0  0  0  0  0  0  0  0  0  0  0  0
   19.3286  -11.7510  -16.7616 O   0  0  0  0  0  0  0  0  0  0  0  0
   21.4893   -8.6619  -18.0334 N   0  0  0  0  0  0  0  0  0  0  0  0
   20.5205   -7.7073  -18.3572 C   0  0  0  0  0  0  0  0  0  0  0  0
   20.8748   -6.7080  -19.0430 O   0  0  0  0  0  0  0  0  0  0  0  0
   19.0844   -7.7969  -17.9397 C   0  0  0  0  0  0  0  0  0  0  0  0
   18.8646   -9.0961  -17.1554 C   0  0  2  0  0  0  0  0  0  0  0  0
   18.6068  -10.1049  -18.1528 N   0  0  0  0  0  0  0  0  0  0  0  0
   17.7959   -8.9241  -16.1555 C   0  0  0  0  0  0  0  0  0  0  0  0
   16.6088   -8.9398  -16.6155 O   0  0  0  0  0  0  0  0  0  0  0  0
   14.8344   -9.2717  -11.7214 C   0  0  0  0  0  0  0  0  0  0  0  0
   15.8852  -10.2576  -12.0542 C   0  0  2  0  0  0  0  0  0  0  0  0
   16.6269  -10.6496  -10.7561 C   0  0  0  0  0  0  0  0  0  0  0  0
   16.9276   -9.9050  -13.0252 C   0  0  0  0  0  0  0  0  0  0  0  0
   16.8414   -8.6654  -13.8241 C   0  0  2  0  0  0  0  0  0  0  0  0
   17.9993   -8.7503  -14.7628 N   0  0  0  0  0  0  0  0  0  0  0  0
   16.9938   -7.3845  -13.1318 C   0  0  0  0  0  0  0  0  0  0  0  0
   15.8591   -6.6685  -12.6647 O   0  0  0  0  0  0  0  0  0  0  0  0
   18.0830   -6.7969  -12.8812 O   0  0  0  0  0  0  0  0  0  0  0  0
  2  1  1  0
  2  3  1  0
  3  4  1  6
  5  3  1  0
  5  6  1  1
  7  5  1  0
  7  8  2  0
 10 12  1  0
 10  9  1  0
 11 10  2  0
 13 12  1  6
 13 14  1  0
 14  7  1  0
 15 13  1  0
 16 15  2  0
 18 20  1  0
 18 17  1  1
 19 18  1  0
 21 20  1  1
 21 22  1  0
 21 23  1  0
 22 15  1  0
 23 24  1  0
 25 23  2  0
M  END
$$$$
