INL.pdb
     RDKit          3D

 25 24  0  0  1  0  0  0  0  0999 V2000
   28.7070  -17.4679  -17.7710 C   0  0  0  0  0  0  0  0  0  0  0  0
   27.1924  -17.6722  -17.6712 C   0  0  0  0  0  0  0  0  0  0  0  0
   26.7283  -17.5391  -16.2577 C   0  0  2  0  0  0  0  0  0  0  0  0
   26.8997  -16.1346  -15.7427 C   0  0  0  0  0  0  0  0  0  0  0  0
   27.2612  -18.5953  -15.3226 C   0  0  2  0  0  0  0  0  0  0  0  0
   26.9233  -19.8868  -15.9319 N   0  0  0  0  0  0  0  0  0  0  0  0
   26.6564  -18.5791  -13.9807 C   0  0  0  0  0  0  0  0  0  0  0  0
   26.0548  -17.5527  -13.5605 O   0  0  0  0  0  0  0  0  0  0  0  0
   23.1387  -20.7661  -11.0275 N   0  0  0  0  0  0  0  0  0  0  0  0
   23.1935  -20.7184  -12.4237 C   0  0  0  0  0  0  0  0  0  0  0  0
   22.1477  -21.0043  -13.0709 O   0  0  0  0  0  0  0  0  0  0  0  0
   24.4194  -20.3482  -13.2013 C   0  0  0  0  0  0  0  0  0  0  0  0
   25.5501  -19.9956  -12.2274 C   0  0  2  0  0  0  0  0  0  0  0  0
   26.6847  -19.6782  -13.0587 N   0  0  0  0  0  0  0  0  0  0  0  0
   25.7705  -21.0929  -11.2688 C   0  0  0  0  0  0  0  0  0  0  0  0
   24.9441  -22.0587  -11.3435 O   0  0  0  0  0  0  0  0  0  0  0  0
   27.6925  -18.2952   -6.4515 C   0  0  0  0  0  0  0  0  0  0  0  0
   27.1710  -19.6052   -6.8970 C   0  0  2  0  0  0  0  0  0  0  0  0
   27.9331  -20.7230   -6.1497 C   0  0  0  0  0  0  0  0  0  0  0  0
   27.2250  -19.9602   -8.3201 C   0  0  0  0  0  0  0  0  0  0  0  0
   26.4985  -21.1351   -8.8436 C   0  0  2  0  0  0  0  0  0  0  0  0
   26.8088  -21.1399  -10.3040 N   0  0  0  0  0  0  0  0  0  0  0  0
   25.0372  -21.1404   -8.7554 C   0  0  0  0  0  0  0  0  0  0  0  0
   24.3580  -22.1025   -7.9609 O   0  0  0  0  0  0  0  0  0  0  0  0
   24.2518  -20.3414   -9.3379 O   0  0  0  0  0  0  0  0  0  0  0  0
  2  1  1  0
  2  3  1  0
  3  4  1  1
  5  3  1  0
  5  6  1  6
  7  5  1  0
  7  8  2  0
 10 12  1  0
 10  9  1  0
 11 10  2  0
 13 12  1  6
 13 14  1  0
 14  7  1  0
 15 13  1  0
 16 15  2  0
 18 20  1  0
 18 17  1  6
 19 18  1  0
 21 20  1  6
 21 22  1  0
 21 23  1  0
 22 15  1  0
 23 24  1  0
 25 23  2  0
M  END
$$$$
