INL.pdb
     RDKit          3D

 25 24  0  0  1  0  0  0  0  0999 V2000
   22.2855  -18.0790  -17.7660 C   0  0  0  0  0  0  0  0  0  0  0  0
   21.3814  -17.1102  -16.9982 C   0  0  0  0  0  0  0  0  0  0  0  0
   21.8060  -15.6953  -17.2196 C   0  0  2  0  0  0  0  0  0  0  0  0
   23.2684  -15.4970  -16.9209 C   0  0  0  0  0  0  0  0  0  0  0  0
   20.9121  -14.6662  -16.5747 C   0  0  2  0  0  0  0  0  0  0  0  0
   19.5776  -14.8672  -17.1510 N   0  0  0  0  0  0  0  0  0  0  0  0
   21.2956  -13.2717  -16.8489 C   0  0  0  0  0  0  0  0  0  0  0  0
   22.3624  -12.7944  -16.3733 O   0  0  0  0  0  0  0  0  0  0  0  0
   20.0723  -11.4796  -21.3861 N   0  0  0  0  0  0  0  0  0  0  0  0
   20.7889  -10.9920  -20.2891 C   0  0  0  0  0  0  0  0  0  0  0  0
   22.0498  -10.9845  -20.3571 O   0  0  0  0  0  0  0  0  0  0  0  0
   20.1518  -10.4767  -19.0349 C   0  0  0  0  0  0  0  0  0  0  0  0
   20.9390  -10.9843  -17.8209 C   0  0  2  0  0  0  0  0  0  0  0  0
   20.5335  -12.3574  -17.6501 N   0  0  0  0  0  0  0  0  0  0  0  0
   20.7057  -10.1180  -16.6519 C   0  0  0  0  0  0  0  0  0  0  0  0
   19.5610  -10.2322  -16.1061 O   0  0  0  0  0  0  0  0  0  0  0  0
   20.8312   -9.7000  -11.9144 C   0  0  0  0  0  0  0  0  0  0  0  0
   21.8621   -9.9733  -12.9387 C   0  0  2  0  0  0  0  0  0  0  0  0
   23.1595  -10.4232  -12.2294 C   0  0  0  0  0  0  0  0  0  0  0  0
   22.2576   -8.9101  -13.8699 C   0  0  0  0  0  0  0  0  0  0  0  0
   21.3216   -8.4024  -14.8938 C   0  0  2  0  0  0  0  0  0  0  0  0
   21.6430   -9.1991  -16.1148 N   0  0  0  0  0  0  0  0  0  0  0  0
   21.4361   -7.0010  -15.3013 C   0  0  0  0  0  0  0  0  0  0  0  0
   20.9019   -5.9609  -14.4943 O   0  0  0  0  0  0  0  0  0  0  0  0
   21.9883   -6.5726  -16.3530 O   0  0  0  0  0  0  0  0  0  0  0  0
  2  1  1  0
  2  3  1  0
  3  4  1  1
  5  3  1  0
  5  6  1  6
  7  5  1  0
  7  8  2  0
 10 12  1  0
 10  9  1  0
 11 10  2  0
 13 12  1  6
 13 14  1  0
 14  7  1  0
 15 13  1  0
 16 15  2  0
 18 20  1  0
 18 17  1  1
 19 18  1  0
 21 20  1  1
 21 22  1  0
 21 23  1  0
 22 15  1  0
 23 24  1  0
 25 23  2  0
M  END
$$$$
