LTI.pdb
     RDKit          3D

 24 23  0  0  1  0  0  0  0  0999 V2000
    7.6751  -12.1264   18.5520 C   0  0  0  0  0  0  0  0  0  0  0  0
    8.5613  -13.2953   18.8316 C   0  0  1  0  0  0  0  0  0  0  0  0
    9.9477  -12.8259   19.2221 C   0  0  0  0  0  0  0  0  0  0  0  0
    8.0031  -14.2650   19.8173 C   0  0  0  0  0  0  0  0  0  0  0  0
    8.9437  -15.4272   20.0403 C   0  0  2  0  0  0  0  0  0  0  0  0
    8.9072  -16.2809   18.8577 N   0  0  0  0  0  0  0  0  0  0  0  0
    8.5709  -16.2301   21.2220 C   0  0  0  0  0  0  0  0  0  0  0  0
    7.7888  -17.2098   21.1187 O   0  0  0  0  0  0  0  0  0  0  0  0
    8.4282  -18.6931   22.3249 C   0  0  0  0  0  0  0  0  0  0  0  0
    9.1795  -18.0792   23.4549 C   0  0  1  0  0  0  0  0  0  0  0  0
   10.5303  -17.9618   23.0509 O   0  0  0  0  0  0  0  0  0  0  0  0
    8.7249  -16.6349   23.7100 C   0  0  2  0  0  0  0  0  0  0  0  0
    9.0955  -15.9016   22.4965 N   0  0  0  0  0  0  0  0  0  0  0  0
    9.5041  -16.0383   24.8236 C   0  0  0  0  0  0  0  0  0  0  0  0
   10.7026  -15.6232   24.6628 O   0  0  0  0  0  0  0  0  0  0  0  0
    7.3048  -11.9993   27.0847 C   0  0  0  0  0  0  0  0  0  0  0  0
    8.2644  -13.0095   26.5162 C   0  0  0  0  0  0  0  0  0  0  0  0
    8.8327  -13.8880   27.5592 C   0  0  2  0  0  0  0  0  0  0  0  0
    9.6171  -13.1136   28.6125 C   0  0  0  0  0  0  0  0  0  0  0  0
    9.6388  -15.0508   27.1519 C   0  0  2  0  0  0  0  0  0  0  0  0
    8.9899  -15.8827   26.1366 N   0  0  0  0  0  0  0  0  0  0  0  0
   10.0970  -15.9247   28.2401 C   0  0  0  0  0  0  0  0  0  0  0  0
   11.1630  -15.7480   28.8938 O   0  0  0  0  0  0  0  0  0  0  0  0
    9.3240  -17.0214   28.5917 O   0  0  0  0  0  0  0  0  0  0  0  0
  2  1  1  1
  3  2  1  0
  4  2  1  0
  4  5  1  0
  5  6  1  6
  7  5  1  0
  7  8  2  0
 10  9  1  6
 10 12  1  0
 11 10  1  0
 12 13  1  6
 13  7  1  0
 14 12  1  0
 15 14  2  0
 17 16  1  0
 17 18  1  0
 18 20  1  0
 18 19  1  1
 20 21  1  6
 20 22  1  0
 21 14  1  0
 22 24  1  0
 23 22  2  0
M  END
$$$$
