LTI.pdb
     RDKit          3D

 24 23  0  0  1  0  0  0  0  0999 V2000
    7.7560  -11.6705   18.8644 C   0  0  0  0  0  0  0  0  0  0  0  0
    8.4404  -12.9765   19.1005 C   0  0  1  0  0  0  0  0  0  0  0  0
    9.7563  -12.7611   19.8196 C   0  0  0  0  0  0  0  0  0  0  0  0
    7.5936  -13.9972   19.7820 C   0  0  0  0  0  0  0  0  0  0  0  0
    8.3893  -15.2377   20.1186 C   0  0  2  0  0  0  0  0  0  0  0  0
    8.3107  -16.1549   18.9866 N   0  0  0  0  0  0  0  0  0  0  0  0
    7.8785  -15.9203   21.3242 C   0  0  0  0  0  0  0  0  0  0  0  0
    6.8172  -16.5943   21.2860 O   0  0  0  0  0  0  0  0  0  0  0  0
    7.4776  -18.4252   22.3217 C   0  0  0  0  0  0  0  0  0  0  0  0
    8.3131  -17.9964   23.4777 C   0  0  1  0  0  0  0  0  0  0  0  0
    9.6680  -18.1300   23.0934 O   0  0  0  0  0  0  0  0  0  0  0  0
    8.1392  -16.4987   23.7686 C   0  0  2  0  0  0  0  0  0  0  0  0
    8.5858  -15.8218   22.5479 N   0  0  0  0  0  0  0  0  0  0  0  0
    9.0596  -16.0739   24.8528 C   0  0  0  0  0  0  0  0  0  0  0  0
   10.3038  -15.8691   24.6411 O   0  0  0  0  0  0  0  0  0  0  0  0
    7.5943  -11.7504   27.1005 C   0  0  0  0  0  0  0  0  0  0  0  0
    8.3282  -12.9298   26.5219 C   0  0  0  0  0  0  0  0  0  0  0  0
    8.8340  -13.8411   27.5690 C   0  0  2  0  0  0  0  0  0  0  0  0
    9.7877  -13.1485   28.5361 C   0  0  0  0  0  0  0  0  0  0  0  0
    9.4388  -15.1224   27.1691 C   0  0  2  0  0  0  0  0  0  0  0  0
    8.6398  -15.8640   26.1916 N   0  0  0  0  0  0  0  0  0  0  0  0
    9.7888  -16.0349   28.2659 C   0  0  0  0  0  0  0  0  0  0  0  0
    9.0100  -16.9080   28.7411 O   0  0  0  0  0  0  0  0  0  0  0  0
   11.0526  -15.9517   28.8315 O   0  0  0  0  0  0  0  0  0  0  0  0
  2  1  1  1
  3  2  1  0
  4  2  1  0
  4  5  1  0
  5  6  1  6
  7  5  1  0
  7  8  2  0
 10  9  1  6
 10 12  1  0
 11 10  1  0
 12 13  1  6
 13  7  1  0
 14 12  1  0
 15 14  2  0
 17 16  1  0
 17 18  1  0
 18 20  1  0
 18 19  1  6
 20 21  1  6
 20 22  1  0
 21 14  1  0
 22 24  1  0
 23 22  2  0
M  END
$$$$
