LTI.pdb
     RDKit          3D

 24 23  0  0  1  0  0  0  0  0999 V2000
    7.6132  -12.1497   18.5022 C   0  0  0  0  0  0  0  0  0  0  0  0
    8.1935  -13.4853   18.8325 C   0  0  1  0  0  0  0  0  0  0  0  0
    9.6860  -13.3700   19.0656 C   0  0  0  0  0  0  0  0  0  0  0  0
    7.5075  -14.1910   19.9527 C   0  0  0  0  0  0  0  0  0  0  0  0
    8.1341  -15.5405   20.2199 C   0  0  2  0  0  0  0  0  0  0  0  0
    7.6229  -16.4874   19.2346 N   0  0  0  0  0  0  0  0  0  0  0  0
    7.8239  -16.0435   21.5731 C   0  0  0  0  0  0  0  0  0  0  0  0
    6.6399  -16.2957   21.9145 O   0  0  0  0  0  0  0  0  0  0  0  0
    8.6831  -19.0826   22.8140 C   0  0  0  0  0  0  0  0  0  0  0  0
    9.3045  -18.1837   23.8261 C   0  0  1  0  0  0  0  0  0  0  0  0
   10.6294  -17.9230   23.4039 O   0  0  0  0  0  0  0  0  0  0  0  0
    8.6257  -16.8065   23.8431 C   0  0  2  0  0  0  0  0  0  0  0  0
    8.8672  -16.2491   22.5094 N   0  0  0  0  0  0  0  0  0  0  0  0
    9.3054  -15.9087   24.8101 C   0  0  0  0  0  0  0  0  0  0  0  0
   10.2420  -15.1154   24.4520 O   0  0  0  0  0  0  0  0  0  0  0  0
    6.6308  -12.5712   27.7485 C   0  0  0  0  0  0  0  0  0  0  0  0
    7.7041  -13.2410   26.9339 C   0  0  0  0  0  0  0  0  0  0  0  0
    8.6420  -14.0139   27.7739 C   0  0  2  0  0  0  0  0  0  0  0  0
    9.4109  -13.1342   28.7533 C   0  0  0  0  0  0  0  0  0  0  0  0
    9.6018  -14.9211   27.1233 C   0  0  2  0  0  0  0  0  0  0  0  0
    8.9759  -15.8588   26.1890 N   0  0  0  0  0  0  0  0  0  0  0  0
   10.4750  -15.6832   28.0259 C   0  0  0  0  0  0  0  0  0  0  0  0
   11.4242  -15.1806   28.6901 O   0  0  0  0  0  0  0  0  0  0  0  0
   10.2611  -17.0455   28.1759 O   0  0  0  0  0  0  0  0  0  0  0  0
  2  1  1  1
  3  2  1  0
  4  2  1  0
  4  5  1  0
  5  6  1  6
  7  5  1  0
  7  8  2  0
 10  9  1  6
 10 12  1  0
 11 10  1  0
 12 13  1  6
 13  7  1  0
 14 12  1  0
 15 14  2  0
 17 16  1  0
 17 18  1  0
 18 20  1  0
 18 19  1  6
 20 21  1  1
 20 22  1  0
 21 14  1  0
 22 24  1  0
 23 22  2  0
M  END
$$$$
