LTI.pdb
     RDKit          3D

 24 23  0  0  1  0  0  0  0  0999 V2000
    6.9078  -13.0550   17.6714 C   0  0  0  0  0  0  0  0  0  0  0  0
    8.0240  -13.4585   18.5774 C   0  0  1  0  0  0  0  0  0  0  0  0
    8.9153  -12.2711   18.8789 C   0  0  0  0  0  0  0  0  0  0  0  0
    7.5829  -14.1539   19.8204 C   0  0  0  0  0  0  0  0  0  0  0  0
    8.7413  -14.3839   20.7640 C   0  0  2  0  0  0  0  0  0  0  0  0
    9.7291  -15.2152   20.0844 N   0  0  0  0  0  0  0  0  0  0  0  0
    8.3234  -15.0582   22.0093 C   0  0  0  0  0  0  0  0  0  0  0  0
    7.2569  -14.7364   22.5935 O   0  0  0  0  0  0  0  0  0  0  0  0
    8.8176  -18.9478   22.5802 C   0  0  0  0  0  0  0  0  0  0  0  0
    9.4194  -18.1605   23.6922 C   0  0  1  0  0  0  0  0  0  0  0  0
   10.7657  -17.8989   23.3453 O   0  0  0  0  0  0  0  0  0  0  0  0
    8.7730  -16.7725   23.8085 C   0  0  2  0  0  0  0  0  0  0  0  0
    9.1275  -16.0845   22.5640 N   0  0  0  0  0  0  0  0  0  0  0  0
    9.3982  -16.0038   24.9137 C   0  0  0  0  0  0  0  0  0  0  0  0
   10.4839  -15.3485   24.7509 O   0  0  0  0  0  0  0  0  0  0  0  0
    7.0730  -12.2316   26.9587 C   0  0  0  0  0  0  0  0  0  0  0  0
    8.3330  -12.9846   26.6275 C   0  0  0  0  0  0  0  0  0  0  0  0
    8.6899  -13.9636   27.6747 C   0  0  2  0  0  0  0  0  0  0  0  0
    9.3722  -13.3147   28.8738 C   0  0  0  0  0  0  0  0  0  0  0  0
    9.4629  -15.1595   27.3006 C   0  0  2  0  0  0  0  0  0  0  0  0
    8.8500  -15.9350   26.2203 N   0  0  0  0  0  0  0  0  0  0  0  0
    9.7919  -16.0783   28.3985 C   0  0  0  0  0  0  0  0  0  0  0  0
   10.6197  -15.8220   29.3171 O   0  0  0  0  0  0  0  0  0  0  0  0
    9.1634  -17.3137   28.4518 O   0  0  0  0  0  0  0  0  0  0  0  0
  2  1  1  1
  3  2  1  0
  4  2  1  0
  4  5  1  0
  5  6  1  6
  7  5  1  0
  7  8  2  0
 10  9  1  6
 10 12  1  0
 11 10  1  0
 12 13  1  6
 13  7  1  0
 14 12  1  0
 15 14  2  0
 17 16  1  0
 17 18  1  0
 18 20  1  0
 18 19  1  1
 20 21  1  6
 20 22  1  0
 21 14  1  0
 22 24  1  0
 23 22  2  0
M  END
$$$$
