LTI.pdb
     RDKit          3D

 24 23  0  0  1  0  0  0  0  0999 V2000
    9.4633  -12.5092   20.1154 C   0  0  0  0  0  0  0  0  0  0  0  0
    8.3001  -13.4082   19.8535 C   0  0  1  0  0  0  0  0  0  0  0  0
    7.0739  -12.5946   19.4938 C   0  0  0  0  0  0  0  0  0  0  0  0
    8.5689  -14.4822   18.8547 C   0  0  0  0  0  0  0  0  0  0  0  0
    9.4479  -15.5668   19.4346 C   0  0  2  0  0  0  0  0  0  0  0  0
    9.6639  -16.5807   18.4080 N   0  0  0  0  0  0  0  0  0  0  0  0
    8.8401  -16.2062   20.6187 C   0  0  0  0  0  0  0  0  0  0  0  0
    7.9218  -17.0570   20.4953 O   0  0  0  0  0  0  0  0  0  0  0  0
    8.7520  -18.6479   21.8688 C   0  0  0  0  0  0  0  0  0  0  0  0
    9.2441  -17.9399   23.0833 C   0  0  1  0  0  0  0  0  0  0  0  0
   10.6498  -17.8291   22.9682 O   0  0  0  0  0  0  0  0  0  0  0  0
    8.7437  -16.4889   23.1264 C   0  0  2  0  0  0  0  0  0  0  0  0
    9.2895  -15.8644   21.9181 N   0  0  0  0  0  0  0  0  0  0  0  0
    9.3384  -15.7726   24.2824 C   0  0  0  0  0  0  0  0  0  0  0  0
   10.5079  -15.2587   24.2296 O   0  0  0  0  0  0  0  0  0  0  0  0
    6.5911  -11.8773   26.3504 C   0  0  0  0  0  0  0  0  0  0  0  0
    7.6440  -12.8253   25.8434 C   0  0  0  0  0  0  0  0  0  0  0  0
    8.2316  -13.6388   26.9277 C   0  0  2  0  0  0  0  0  0  0  0  0
    8.8790  -12.7863   28.0132 C   0  0  0  0  0  0  0  0  0  0  0  0
    9.1644  -14.7238   26.5811 C   0  0  2  0  0  0  0  0  0  0  0  0
    8.6675  -15.6029   25.5208 N   0  0  0  0  0  0  0  0  0  0  0  0
    9.6165  -15.5611   27.7003 C   0  0  0  0  0  0  0  0  0  0  0  0
    9.0990  -16.6695   28.0141 O   0  0  0  0  0  0  0  0  0  0  0  0
   10.6810  -15.1273   28.4766 O   0  0  0  0  0  0  0  0  0  0  0  0
  2  1  1  6
  3  2  1  0
  4  2  1  0
  4  5  1  0
  5  6  1  6
  7  5  1  0
  7  8  2  0
 10  9  1  6
 10 12  1  0
 11 10  1  0
 12 13  1  6
 13  7  1  0
 14 12  1  0
 15 14  2  0
 17 16  1  0
 17 18  1  0
 18 20  1  0
 18 19  1  1
 20 21  1  6
 20 22  1  0
 21 14  1  0
 22 24  1  0
 23 22  2  0
M  END
$$$$
