LTI.pdb
     RDKit          3D

 24 23  0  0  1  0  0  0  0  0999 V2000
    7.3619  -11.9725   19.0203 C   0  0  0  0  0  0  0  0  0  0  0  0
    7.8675  -13.3350   19.3633 C   0  0  1  0  0  0  0  0  0  0  0  0
    9.3302  -13.2733   19.7529 C   0  0  0  0  0  0  0  0  0  0  0  0
    7.0493  -14.0531   20.3823 C   0  0  0  0  0  0  0  0  0  0  0  0
    7.6344  -15.4097   20.7025 C   0  0  2  0  0  0  0  0  0  0  0  0
    7.1613  -16.3614   19.7029 N   0  0  0  0  0  0  0  0  0  0  0  0
    7.2396  -15.8873   22.0428 C   0  0  0  0  0  0  0  0  0  0  0  0
    6.0475  -16.2005   22.2934 O   0  0  0  0  0  0  0  0  0  0  0  0
    6.3071  -18.0953   23.2258 C   0  0  0  0  0  0  0  0  0  0  0  0
    7.4971  -18.0140   24.1178 C   0  0  1  0  0  0  0  0  0  0  0  0
    8.5947  -18.5576   23.4098 O   0  0  0  0  0  0  0  0  0  0  0  0
    7.8950  -16.5557   24.3883 C   0  0  2  0  0  0  0  0  0  0  0  0
    8.2093  -15.9985   23.0697 N   0  0  0  0  0  0  0  0  0  0  0  0
    9.1472  -16.5021   25.1835 C   0  0  0  0  0  0  0  0  0  0  0  0
   10.2999  -16.5463   24.6321 O   0  0  0  0  0  0  0  0  0  0  0  0
    9.9791  -13.2049   29.6828 C   0  0  0  0  0  0  0  0  0  0  0  0
    9.6354  -14.5463   29.0939 C   0  0  0  0  0  0  0  0  0  0  0  0
   10.5454  -14.9221   27.9923 C   0  0  2  0  0  0  0  0  0  0  0  0
   10.5820  -13.8779   26.8821 C   0  0  0  0  0  0  0  0  0  0  0  0
   10.4021  -16.2480   27.3686 C   0  0  2  0  0  0  0  0  0  0  0  0
    9.1661  -16.3990   26.5982 N   0  0  0  0  0  0  0  0  0  0  0  0
   10.5243  -17.3980   28.2744 C   0  0  0  0  0  0  0  0  0  0  0  0
    9.5897  -18.2099   28.5238 O   0  0  0  0  0  0  0  0  0  0  0  0
   11.7366  -17.6285   28.9077 O   0  0  0  0  0  0  0  0  0  0  0  0
  2  1  1  1
  3  2  1  0
  4  2  1  0
  4  5  1  0
  5  6  1  6
  7  5  1  0
  7  8  2  0
 10  9  1  6
 10 12  1  0
 11 10  1  0
 12 13  1  6
 13  7  1  0
 14 12  1  0
 15 14  2  0
 17 16  1  0
 17 18  1  0
 18 20  1  0
 18 19  1  6
 20 21  1  1
 20 22  1  0
 21 14  1  0
 22 24  1  0
 23 22  2  0
M  END
$$$$
