VTS.pdb
     RDKit          3D

 21 20  0  0  1  0  0  0  0  0999 V2000
    7.1629  -12.3497   18.5884 C   0  0  0  0  0  0  0  0  0  0  0  0
    7.6257  -13.4217   19.5263 C   0  0  2  0  0  0  0  0  0  0  0  0
    8.6312  -12.8820   20.5435 C   0  0  0  0  0  0  0  0  0  0  0  0
    8.3058  -14.5745   18.8309 C   0  0  2  0  0  0  0  0  0  0  0  0
    7.4113  -15.0699   17.8176 N   0  0  0  0  0  0  0  0  0  0  0  0
    8.6199  -15.6892   19.7570 C   0  0  0  0  0  0  0  0  0  0  0  0
    7.7095  -16.3738   20.2897 O   0  0  0  0  0  0  0  0  0  0  0  0
   10.4695  -18.6918   19.1507 C   0  0  0  0  0  0  0  0  0  0  0  0
   11.2151  -18.0467   20.2819 C   0  0  1  0  0  0  0  0  0  0  0  0
   12.3119  -17.3646   19.7214 O   0  0  0  0  0  0  0  0  0  0  0  0
   10.3199  -17.0511   21.0329 C   0  0  2  0  0  0  0  0  0  0  0  0
    9.9762  -16.0248   20.0770 N   0  0  0  0  0  0  0  0  0  0  0  0
   11.0236  -16.4861   22.2006 C   0  0  0  0  0  0  0  0  0  0  0  0
   11.7561  -15.4817   22.0170 O   0  0  0  0  0  0  0  0  0  0  0  0
    9.9361  -17.1839   26.0423 O   0  0  0  0  0  0  0  0  0  0  0  0
   10.7627  -16.1195   25.7187 C   0  0  0  0  0  0  0  0  0  0  0  0
   11.6840  -16.4933   24.5798 C   0  0  2  0  0  0  0  0  0  0  0  0
   10.8914  -17.0441   23.4999 N   0  0  0  0  0  0  0  0  0  0  0  0
   12.6806  -17.5128   24.9959 C   0  0  0  0  0  0  0  0  0  0  0  0
   13.6913  -17.2302   25.8906 O   0  0  0  0  0  0  0  0  0  0  0  0
   12.5893  -18.6754   24.5067 O   0  0  0  0  0  0  0  0  0  0  0  0
  2  1  1  6
  2  3  1  0
  4  6  1  0
  4  2  1  0
  4  5  1  6
  6 12  1  0
  7  6  2  0
  9  8  1  6
  9 11  1  0
 10  9  1  0
 11 13  1  0
 11 12  1  6
 13 14  2  0
 13 18  1  0
 16 15  1  0
 17 19  1  0
 17 16  1  1
 18 17  1  0
 19 20  1  0
 21 19  2  0
M  END
$$$$
