VTS.pdb
     RDKit          3D

 21 20  0  0  1  0  0  0  0  0999 V2000
    7.8718  -14.2798   18.7543 C   0  0  0  0  0  0  0  0  0  0  0  0
    8.2304  -13.1633   19.6859 C   0  0  2  0  0  0  0  0  0  0  0  0
    8.4581  -11.8536   18.9311 C   0  0  0  0  0  0  0  0  0  0  0  0
    9.4902  -13.4211   20.4742 C   0  0  2  0  0  0  0  0  0  0  0  0
   10.5655  -13.6185   19.5375 N   0  0  0  0  0  0  0  0  0  0  0  0
    9.3886  -14.6315   21.3249 C   0  0  0  0  0  0  0  0  0  0  0  0
    8.4102  -14.8107   22.0940 O   0  0  0  0  0  0  0  0  0  0  0  0
    9.8193  -18.0912   19.8768 C   0  0  0  0  0  0  0  0  0  0  0  0
   10.7492  -17.9831   21.0495 C   0  0  1  0  0  0  0  0  0  0  0  0
   12.0216  -17.6568   20.5425 O   0  0  0  0  0  0  0  0  0  0  0  0
   10.2855  -16.8867   22.0189 C   0  0  2  0  0  0  0  0  0  0  0  0
   10.4059  -15.6410   21.2987 N   0  0  0  0  0  0  0  0  0  0  0  0
   11.1092  -16.8829   23.2435 C   0  0  0  0  0  0  0  0  0  0  0  0
   12.1175  -16.1335   23.2723 O   0  0  0  0  0  0  0  0  0  0  0  0
    9.8995  -18.8250   26.6286 O   0  0  0  0  0  0  0  0  0  0  0  0
   10.7948  -17.7766   26.7716 C   0  0  0  0  0  0  0  0  0  0  0  0
   11.6485  -17.6383   25.5316 C   0  0  2  0  0  0  0  0  0  0  0  0
   10.7907  -17.6928   24.3659 N   0  0  0  0  0  0  0  0  0  0  0  0
   12.6458  -18.7341   25.4303 C   0  0  0  0  0  0  0  0  0  0  0  0
   13.7201  -18.8318   26.2895 O   0  0  0  0  0  0  0  0  0  0  0  0
   12.4944  -19.6008   24.5220 O   0  0  0  0  0  0  0  0  0  0  0  0
  2  1  1  6
  2  3  1  0
  4  6  1  0
  4  2  1  0
  4  5  1  6
  6 12  1  0
  7  6  2  0
  9  8  1  6
  9 11  1  0
 10  9  1  0
 11 13  1  0
 11 12  1  6
 13 14  2  0
 13 18  1  0
 16 15  1  0
 17 19  1  0
 17 16  1  1
 18 17  1  0
 19 20  1  0
 21 19  2  0
M  END
$$$$
