VTS.pdb
     RDKit          3D

 21 20  0  0  1  0  0  0  0  0999 V2000
    7.8644  -13.1074   27.3255 C   0  0  0  0  0  0  0  0  0  0  0  0
    7.4083  -12.2712   26.1697 C   0  0  2  0  0  0  0  0  0  0  0  0
    6.8302  -10.9354   26.6369 C   0  0  0  0  0  0  0  0  0  0  0  0
    6.3342  -12.9294   25.3402 C   0  0  2  0  0  0  0  0  0  0  0  0
    5.2113  -13.1954   26.2009 N   0  0  0  0  0  0  0  0  0  0  0  0
    6.7811  -14.2147   24.7510 C   0  0  0  0  0  0  0  0  0  0  0  0
    6.5741  -15.3092   25.3343 O   0  0  0  0  0  0  0  0  0  0  0  0
    7.0713  -14.3633   20.8800 C   0  0  0  0  0  0  0  0  0  0  0  0
    8.1939  -15.1930   21.4307 C   0  0  1  0  0  0  0  0  0  0  0  0
    9.3814  -14.4586   21.2491 O   0  0  0  0  0  0  0  0  0  0  0  0
    7.9870  -15.4742   22.9256 C   0  0  2  0  0  0  0  0  0  0  0  0
    7.4665  -14.2525   23.4926 N   0  0  0  0  0  0  0  0  0  0  0  0
    9.2554  -15.8690   23.5683 C   0  0  0  0  0  0  0  0  0  0  0  0
    9.9498  -14.9683   24.1027 O   0  0  0  0  0  0  0  0  0  0  0  0
   10.3589  -19.7601   23.6626 O   0  0  0  0  0  0  0  0  0  0  0  0
   10.9719  -18.9784   24.6292 C   0  0  0  0  0  0  0  0  0  0  0  0
   10.9698  -17.5251   24.2127 C   0  0  2  0  0  0  0  0  0  0  0  0
    9.6966  -17.2188   23.5937 N   0  0  0  0  0  0  0  0  0  0  0  0
   12.0479  -17.2365   23.2327 C   0  0  0  0  0  0  0  0  0  0  0  0
   13.3839  -17.3120   23.5664 O   0  0  0  0  0  0  0  0  0  0  0  0
   11.7176  -16.9117   22.0560 O   0  0  0  0  0  0  0  0  0  0  0  0
  2  1  1  1
  2  3  1  0
  4  6  1  0
  4  2  1  0
  4  5  1  1
  6 12  1  0
  7  6  2  0
  9  8  1  1
  9 11  1  0
 10  9  1  0
 11 13  1  0
 11 12  1  1
 13 14  2  0
 13 18  1  0
 16 15  1  0
 17 19  1  0
 17 16  1  6
 18 17  1  0
 19 20  1  0
 21 19  2  0
M  END
$$$$
