VTS.pdb
     RDKit          3D

 21 20  0  0  1  0  0  0  0  0999 V2000
    3.9155  -16.6174   21.3550 C   0  0  0  0  0  0  0  0  0  0  0  0
    4.2923  -17.8713   20.6279 C   0  0  2  0  0  0  0  0  0  0  0  0
    3.1663  -18.9046   20.6700 C   0  0  0  0  0  0  0  0  0  0  0  0
    5.5116  -18.5519   21.1981 C   0  0  2  0  0  0  0  0  0  0  0  0
    5.2376  -18.8693   22.5753 N   0  0  0  0  0  0  0  0  0  0  0  0
    6.7160  -17.6881   21.1524 C   0  0  0  0  0  0  0  0  0  0  0  0
    7.3352  -17.4848   20.0770 O   0  0  0  0  0  0  0  0  0  0  0  0
    7.1605  -14.1339   22.3475 C   0  0  0  0  0  0  0  0  0  0  0  0
    8.1175  -14.9945   23.1190 C   0  0  1  0  0  0  0  0  0  0  0  0
    7.4955  -15.3157   24.3407 O   0  0  0  0  0  0  0  0  0  0  0  0
    8.4381  -16.2844   22.3508 C   0  0  2  0  0  0  0  0  0  0  0  0
    7.2163  -17.0538   22.3365 N   0  0  0  0  0  0  0  0  0  0  0  0
    9.5350  -17.0268   23.0017 C   0  0  0  0  0  0  0  0  0  0  0  0
    9.2312  -17.9904   23.7490 O   0  0  0  0  0  0  0  0  0  0  0  0
   13.3386  -17.1517   21.5833 O   0  0  0  0  0  0  0  0  0  0  0  0
   12.7972  -18.1103   22.4254 C   0  0  0  0  0  0  0  0  0  0  0  0
   11.9201  -17.4600   23.4711 C   0  0  2  0  0  0  0  0  0  0  0  0
   10.8980  -16.6804   22.8037 N   0  0  0  0  0  0  0  0  0  0  0  0
   12.7005  -16.5530   24.3509 C   0  0  0  0  0  0  0  0  0  0  0  0
   13.6648  -17.0211   25.2187 O   0  0  0  0  0  0  0  0  0  0  0  0
   12.4641  -15.3120   24.2937 O   0  0  0  0  0  0  0  0  0  0  0  0
  2  1  1  1
  2  3  1  0
  4  6  1  0
  4  2  1  0
  4  5  1  1
  6 12  1  0
  7  6  2  0
  9  8  1  6
  9 11  1  0
 10  9  1  0
 11 13  1  0
 11 12  1  1
 13 14  2  0
 13 18  1  0
 16 15  1  0
 17 19  1  0
 17 16  1  6
 18 17  1  0
 19 20  1  0
 21 19  2  0
M  END
$$$$
