VTS.pdb
     RDKit          3D

 21 20  0  0  1  0  0  0  0  0999 V2000
   10.3371  -15.4172   15.6029 C   0  0  0  0  0  0  0  0  0  0  0  0
    8.9348  -15.8269   15.9327 C   0  0  2  0  0  0  0  0  0  0  0  0
    8.1383  -16.1670   14.6730 C   0  0  0  0  0  0  0  0  0  0  0  0
    8.1511  -14.7578   16.6522 C   0  0  2  0  0  0  0  0  0  0  0  0
    8.1035  -13.5967   15.8024 N   0  0  0  0  0  0  0  0  0  0  0  0
    8.7764  -14.3654   17.9382 C   0  0  0  0  0  0  0  0  0  0  0  0
    9.5910  -13.4098   18.0053 O   0  0  0  0  0  0  0  0  0  0  0  0
    6.9499  -13.6075   21.0807 C   0  0  0  0  0  0  0  0  0  0  0  0
    7.9397  -14.6769   21.4392 C   0  0  1  0  0  0  0  0  0  0  0  0
    7.2465  -15.9025   21.4369 O   0  0  0  0  0  0  0  0  0  0  0  0
    9.0837  -14.7315   20.4170 C   0  0  2  0  0  0  0  0  0  0  0  0
    8.4722  -15.0647   19.1520 N   0  0  0  0  0  0  0  0  0  0  0  0
   10.0930  -15.7345   20.8083 C   0  0  0  0  0  0  0  0  0  0  0  0
   10.0006  -16.8863   20.3144 O   0  0  0  0  0  0  0  0  0  0  0  0
   13.8010  -15.5178   20.6768 O   0  0  0  0  0  0  0  0  0  0  0  0
   13.4933  -15.8830   21.9779 C   0  0  0  0  0  0  0  0  0  0  0  0
   12.0998  -16.4650   22.0478 C   0  0  2  0  0  0  0  0  0  0  0  0
   11.1442  -15.4292   21.7133 N   0  0  0  0  0  0  0  0  0  0  0  0
   11.7861  -16.9689   23.4092 C   0  0  0  0  0  0  0  0  0  0  0  0
   12.4557  -18.0361   23.9702 O   0  0  0  0  0  0  0  0  0  0  0  0
   10.8726  -16.3922   24.0665 O   0  0  0  0  0  0  0  0  0  0  0  0
  2  1  1  6
  2  3  1  0
  4  6  1  0
  4  2  1  0
  4  5  1  6
  6 12  1  0
  7  6  2  0
  9  8  1  6
  9 11  1  0
 10  9  1  0
 11 13  1  0
 11 12  1  6
 13 14  2  0
 13 18  1  0
 16 15  1  0
 17 19  1  0
 17 16  1  1
 18 17  1  0
 19 20  1  0
 21 19  2  0
M  END
$$$$
