VTS.pdb
     RDKit          3D

 21 20  0  0  1  0  0  0  0  0999 V2000
    7.8226  -12.0313   18.8038 C   0  0  0  0  0  0  0  0  0  0  0  0
    7.9979  -13.2740   19.6212 C   0  0  2  0  0  0  0  0  0  0  0  0
    8.7477  -12.9888   20.9225 C   0  0  0  0  0  0  0  0  0  0  0  0
    8.7775  -14.3532   18.9123 C   0  0  2  0  0  0  0  0  0  0  0  0
    8.0680  -14.6917   17.7063 N   0  0  0  0  0  0  0  0  0  0  0  0
    8.9148  -15.5828   19.7298 C   0  0  0  0  0  0  0  0  0  0  0  0
    7.9284  -16.3264   19.9643 O   0  0  0  0  0  0  0  0  0  0  0  0
   10.5986  -18.4575   18.9278 C   0  0  0  0  0  0  0  0  0  0  0  0
   11.2630  -18.0851   20.2207 C   0  0  1  0  0  0  0  0  0  0  0  0
   12.4522  -17.4046   19.8960 O   0  0  0  0  0  0  0  0  0  0  0  0
   10.3596  -17.1698   21.0589 C   0  0  2  0  0  0  0  0  0  0  0  0
   10.1810  -15.9660   20.2817 N   0  0  0  0  0  0  0  0  0  0  0  0
   10.9736  -16.8793   22.3691 C   0  0  0  0  0  0  0  0  0  0  0  0
   11.7752  -15.9143   22.4425 O   0  0  0  0  0  0  0  0  0  0  0  0
    9.9540  -19.0014   25.7286 O   0  0  0  0  0  0  0  0  0  0  0  0
   10.4617  -17.7260   25.9198 C   0  0  0  0  0  0  0  0  0  0  0  0
   11.3564  -17.3351   24.7655 C   0  0  2  0  0  0  0  0  0  0  0  0
   10.6819  -17.6531   23.5238 N   0  0  0  0  0  0  0  0  0  0  0  0
   12.6453  -18.0722   24.7998 C   0  0  0  0  0  0  0  0  0  0  0  0
   13.5674  -17.8934   25.8096 O   0  0  0  0  0  0  0  0  0  0  0  0
   12.8946  -18.8883   23.8665 O   0  0  0  0  0  0  0  0  0  0  0  0
  2  1  1  6
  2  3  1  0
  4  6  1  0
  4  2  1  0
  4  5  1  6
  6 12  1  0
  7  6  2  0
  9  8  1  6
  9 11  1  0
 10  9  1  0
 11 13  1  0
 11 12  1  6
 13 14  2  0
 13 18  1  0
 16 15  1  0
 17 19  1  0
 17 16  1  1
 18 17  1  0
 19 20  1  0
 21 19  2  0
M  END
$$$$
