FMM.pdb
     RDKit          3D

 28 28  0  0  1  0  0  0  0  0999 V2000
   27.7771  -19.3656  -16.6033 N   0  0  0  0  0  0  0  0  0  0  0  0
   27.4720  -19.0880  -15.2283 C   0  0  1  0  0  0  0  0  0  0  0  0
   26.7446  -17.7533  -15.0729 C   0  0  0  0  0  0  0  0  0  0  0  0
   25.8142  -17.5921  -16.1957 C   0  0  0  0  0  0  0  0  0  0  0  0
   26.2906  -17.1594  -17.4172 C   0  0  0  0  0  0  0  0  0  0  0  0
   25.4132  -17.0118  -18.4631 C   0  0  0  0  0  0  0  0  0  0  0  0
   24.0655  -17.3014  -18.2673 C   0  0  0  0  0  0  0  0  0  0  0  0
   23.6039  -17.7339  -17.0375 C   0  0  0  0  0  0  0  0  0  0  0  0
   24.4852  -17.8780  -16.0017 C   0  0  0  0  0  0  0  0  0  0  0  0
   26.4866  -20.1244  -14.7591 C   0  0  0  0  0  0  0  0  0  0  0  0
   25.8702  -20.8757  -15.5429 O   0  0  0  0  0  0  0  0  0  0  0  0
   24.1777  -21.1369   -8.1589 C   0  0  0  0  0  0  0  0  0  0  0  0
   25.8085  -20.8404   -8.8918 S   0  0  0  0  0  0  0  0  0  0  0  0
   25.5267  -20.2312  -10.6109 C   0  0  0  0  0  0  0  0  0  0  0  0
   25.4939  -21.4334  -11.4736 C   0  0  0  0  0  0  0  0  0  0  0  0
   25.2232  -21.2019  -12.9383 C   0  0  2  0  0  0  0  0  0  0  0  0
   26.2704  -20.2291  -13.3717 N   0  0  0  0  0  0  0  0  0  0  0  0
   23.8976  -20.5897  -13.1169 C   0  0  0  0  0  0  0  0  0  0  0  0
   23.7518  -19.3510  -12.8728 O   0  0  0  0  0  0  0  0  0  0  0  0
   19.2585  -21.2243  -17.6420 C   0  0  0  0  0  0  0  0  0  0  0  0
   21.0279  -20.9096  -17.7738 S   0  0  0  0  0  0  0  0  0  0  0  0
   21.6312  -20.3019  -16.1908 C   0  0  0  0  0  0  0  0  0  0  0  0
   21.0349  -21.0334  -15.0640 C   0  0  0  0  0  0  0  0  0  0  0  0
   21.4467  -20.6715  -13.6640 C   0  0  2  0  0  0  0  0  0  0  0  0
   22.7968  -21.3182  -13.5510 N   0  0  0  0  0  0  0  0  0  0  0  0
   20.6381  -21.2118  -12.5766 C   0  0  0  0  0  0  0  0  0  0  0  0
   19.5073  -20.5629  -12.1060 O   0  0  0  0  0  0  0  0  0  0  0  0
   20.8959  -22.3075  -11.9666 O   0  0  0  0  0  0  0  0  0  0  0  0
  2  1  1  6
  2  3  1  0
  4  3  1  0
  4  5  2  0
  6  5  1  0
  7  6  2  0
  8  9  2  0
  8  7  1  0
  9  4  1  0
 10  2  1  0
 11 10  2  0
 13 12  1  0
 14 15  1  0
 14 13  1  0
 16 15  1  1
 16 17  1  0
 17 10  1  0
 18 16  1  0
 18 19  2  0
 20 21  1  0
 22 21  1  0
 24 23  1  6
 23 22  1  0
 24 25  1  0
 25 18  1  0
 26 24  1  0
 27 26  1  0
 28 26  2  0
M  END
$$$$
