FMM.pdb
     RDKit          3D

 28 28  0  0  1  0  0  0  0  0999 V2000
   19.1809   -8.2607  -13.2647 N   0  0  0  0  0  0  0  0  0  0  0  0
   17.8861   -7.6843  -13.4929 C   0  0  1  0  0  0  0  0  0  0  0  0
   16.7832   -8.7403  -13.4351 C   0  0  0  0  0  0  0  0  0  0  0  0
   16.7933   -9.4990  -14.6906 C   0  0  0  0  0  0  0  0  0  0  0  0
   16.2213   -8.9508  -15.8213 C   0  0  0  0  0  0  0  0  0  0  0  0
   16.2355   -9.6672  -16.9927 C   0  0  0  0  0  0  0  0  0  0  0  0
   16.8256  -10.9281  -17.0123 C   0  0  0  0  0  0  0  0  0  0  0  0
   17.3944  -11.4635  -15.8711 C   0  0  0  0  0  0  0  0  0  0  0  0
   17.3755  -10.7424  -14.7092 C   0  0  0  0  0  0  0  0  0  0  0  0
   17.5914   -6.7516  -12.3491 C   0  0  0  0  0  0  0  0  0  0  0  0
   17.9989   -6.9565  -11.1869 O   0  0  0  0  0  0  0  0  0  0  0  0
   15.1871   -0.9004  -13.5737 C   0  0  0  0  0  0  0  0  0  0  0  0
   16.4579   -0.6327  -12.3096 S   0  0  0  0  0  0  0  0  0  0  0  0
   16.4730   -2.1305  -11.2317 C   0  0  0  0  0  0  0  0  0  0  0  0
   16.6744   -3.2858  -12.1347 C   0  0  0  0  0  0  0  0  0  0  0  0
   16.6205   -4.6519  -11.5000 C   0  0  2  0  0  0  0  0  0  0  0  0
   16.8210   -5.6072  -12.6305 N   0  0  0  0  0  0  0  0  0  0  0  0
   15.2938   -4.8823  -10.9080 C   0  0  0  0  0  0  0  0  0  0  0  0
   14.2957   -5.0509  -11.6765 O   0  0  0  0  0  0  0  0  0  0  0  0
   13.7722   -9.1944   -6.9477 C   0  0  0  0  0  0  0  0  0  0  0  0
   13.1548   -7.8282   -5.9482 S   0  0  0  0  0  0  0  0  0  0  0  0
   12.7731   -6.4410   -7.0294 C   0  0  0  0  0  0  0  0  0  0  0  0
   13.8691   -6.1659   -7.9693 C   0  0  0  0  0  0  0  0  0  0  0  0
   13.7086   -5.0516   -8.9659 C   0  0  2  0  0  0  0  0  0  0  0  0
   15.0929   -4.9292   -9.5337 N   0  0  0  0  0  0  0  0  0  0  0  0
   13.3617   -3.7369   -8.4373 C   0  0  0  0  0  0  0  0  0  0  0  0
   12.0467   -3.3407   -8.2509 O   0  0  0  0  0  0  0  0  0  0  0  0
   14.2207   -2.8457   -8.1097 O   0  0  0  0  0  0  0  0  0  0  0  0
  2  1  1  1
  2  3  1  0
  4  3  1  0
  4  5  2  0
  6  5  1  0
  7  6  2  0
  8  9  2  0
  8  7  1  0
  9  4  1  0
 10  2  1  0
 11 10  2  0
 13 12  1  0
 14 15  1  0
 14 13  1  0
 16 15  1  6
 16 17  1  0
 17 10  1  0
 18 16  1  0
 18 19  2  0
 20 21  1  0
 22 21  1  0
 24 23  1  1
 23 22  1  0
 24 25  1  0
 25 18  1  0
 26 24  1  0
 27 26  1  0
 28 26  2  0
M  END
$$$$
