FMM.pdb
     RDKit          3D

 28 28  0  0  1  0  0  0  0  0999 V2000
   27.9292  -21.1484  -15.4544 N   0  0  0  0  0  0  0  0  0  0  0  0
   27.4126  -20.1096  -14.6090 C   0  0  1  0  0  0  0  0  0  0  0  0
   26.4065  -19.2305  -15.3504 C   0  0  0  0  0  0  0  0  0  0  0  0
   27.1368  -18.3662  -16.2843 C   0  0  0  0  0  0  0  0  0  0  0  0
   27.6847  -17.1832  -15.8297 C   0  0  0  0  0  0  0  0  0  0  0  0
   28.3672  -16.3803  -16.7100 C   0  0  0  0  0  0  0  0  0  0  0  0
   28.4904  -16.7777  -18.0387 C   0  0  0  0  0  0  0  0  0  0  0  0
   27.9358  -17.9657  -18.4786 C   0  0  0  0  0  0  0  0  0  0  0  0
   27.2579  -18.7588  -17.5945 C   0  0  0  0  0  0  0  0  0  0  0  0
   26.6202  -20.7646  -13.5098 C   0  0  0  0  0  0  0  0  0  0  0  0
   25.9651  -21.8135  -13.6808 O   0  0  0  0  0  0  0  0  0  0  0  0
   27.9254  -20.5471   -7.1951 C   0  0  0  0  0  0  0  0  0  0  0  0
   26.2993  -19.7507   -7.2724 S   0  0  0  0  0  0  0  0  0  0  0  0
   25.4024  -20.4894   -8.7062 C   0  0  0  0  0  0  0  0  0  0  0  0
   26.1759  -20.1170   -9.9118 C   0  0  0  0  0  0  0  0  0  0  0  0
   25.7251  -20.7276  -11.2142 C   0  0  2  0  0  0  0  0  0  0  0  0
   26.6364  -20.1462  -12.2450 N   0  0  0  0  0  0  0  0  0  0  0  0
   24.3434  -20.3202  -11.5121 C   0  0  0  0  0  0  0  0  0  0  0  0
   24.1374  -19.1954  -12.0668 O   0  0  0  0  0  0  0  0  0  0  0  0
   22.2770  -21.9170  -15.9912 C   0  0  0  0  0  0  0  0  0  0  0  0
   20.6246  -22.2062  -15.3333 S   0  0  0  0  0  0  0  0  0  0  0  0
   20.4953  -21.4237  -13.7177 C   0  0  0  0  0  0  0  0  0  0  0  0
   21.7877  -21.4034  -13.0179 C   0  0  0  0  0  0  0  0  0  0  0  0
   21.8722  -20.7469  -11.6679 C   0  0  2  0  0  0  0  0  0  0  0  0
   23.2518  -21.1268  -11.2139 N   0  0  0  0  0  0  0  0  0  0  0  0
   20.9534  -21.2263  -10.6412 C   0  0  0  0  0  0  0  0  0  0  0  0
   19.6286  -20.8217  -10.5903 O   0  0  0  0  0  0  0  0  0  0  0  0
   21.2801  -22.0419   -9.7100 O   0  0  0  0  0  0  0  0  0  0  0  0
  2  1  1  6
  2  3  1  0
  4  3  1  0
  4  5  2  0
  6  5  1  0
  7  6  2  0
  8  9  2  0
  8  7  1  0
  9  4  1  0
 10  2  1  0
 11 10  2  0
 13 12  1  0
 14 15  1  0
 14 13  1  0
 16 15  1  1
 16 17  1  0
 17 10  1  0
 18 16  1  0
 18 19  2  0
 20 21  1  0
 22 21  1  0
 24 23  1  6
 23 22  1  0
 24 25  1  0
 25 18  1  0
 26 24  1  0
 27 26  1  0
 28 26  2  0
M  END
$$$$
