FMM.pdb
     RDKit          3D

 28 28  0  0  1  0  0  0  0  0999 V2000
   28.0640  -20.9724   -8.6184 N   0  0  0  0  0  0  0  0  0  0  0  0
   26.6542  -20.7394   -8.4806 C   0  0  1  0  0  0  0  0  0  0  0  0
   26.3624  -19.6618   -7.4373 C   0  0  0  0  0  0  0  0  0  0  0  0
   27.3379  -19.7860   -6.3486 C   0  0  0  0  0  0  0  0  0  0  0  0
   26.9507  -20.3502   -5.1494 C   0  0  0  0  0  0  0  0  0  0  0  0
   27.8699  -20.4633   -4.1357 C   0  0  0  0  0  0  0  0  0  0  0  0
   29.1692  -20.0068   -4.3408 C   0  0  0  0  0  0  0  0  0  0  0  0
   29.5415  -19.4439   -5.5479 C   0  0  0  0  0  0  0  0  0  0  0  0
   28.6190  -19.3356   -6.5517 C   0  0  0  0  0  0  0  0  0  0  0  0
   26.1548  -20.1675   -9.7801 C   0  0  0  0  0  0  0  0  0  0  0  0
   26.4265  -19.0090  -10.1582 O   0  0  0  0  0  0  0  0  0  0  0  0
   28.3108  -21.5008  -14.7218 C   0  0  0  0  0  0  0  0  0  0  0  0
   28.8688  -20.1658  -13.6306 S   0  0  0  0  0  0  0  0  0  0  0  0
   27.4078  -19.6321  -12.6374 C   0  0  0  0  0  0  0  0  0  0  0  0
   26.4481  -20.7581  -12.6791 C   0  0  0  0  0  0  0  0  0  0  0  0
   25.1262  -20.5399  -11.9882 C   0  0  2  0  0  0  0  0  0  0  0  0
   25.3488  -20.9964  -10.5836 N   0  0  0  0  0  0  0  0  0  0  0  0
   24.0883  -21.3795  -12.6059 C   0  0  0  0  0  0  0  0  0  0  0  0
   24.2637  -22.6370  -12.6613 O   0  0  0  0  0  0  0  0  0  0  0  0
   19.4185  -22.1182  -10.1575 C   0  0  0  0  0  0  0  0  0  0  0  0
   18.5432  -22.7479  -11.6012 S   0  0  0  0  0  0  0  0  0  0  0  0
   19.6073  -22.5872  -13.0437 C   0  0  0  0  0  0  0  0  0  0  0  0
   20.8480  -21.8657  -12.7272 C   0  0  0  0  0  0  0  0  0  0  0  0
   21.9011  -21.7303  -13.7917 C   0  0  2  0  0  0  0  0  0  0  0  0
   22.9156  -20.8459  -13.1267 N   0  0  0  0  0  0  0  0  0  0  0  0
   21.5112  -21.0559  -15.0252 C   0  0  0  0  0  0  0  0  0  0  0  0
   21.6227  -19.6833  -15.1819 O   0  0  0  0  0  0  0  0  0  0  0  0
   21.0355  -21.6556  -16.0515 O   0  0  0  0  0  0  0  0  0  0  0  0
  2  1  1  6
  2  3  1  0
  4  3  1  0
  4  5  2  0
  6  5  1  0
  7  6  2  0
  8  9  2  0
  8  7  1  0
  9  4  1  0
 10  2  1  0
 11 10  2  0
 13 12  1  0
 14 15  1  0
 14 13  1  0
 16 15  1  6
 16 17  1  0
 17 10  1  0
 18 16  1  0
 18 19  2  0
 20 21  1  0
 22 21  1  0
 24 23  1  1
 23 22  1  0
 24 25  1  0
 25 18  1  0
 26 24  1  0
 27 26  1  0
 28 26  2  0
M  END
$$$$
