FMM.pdb
     RDKit          3D

 28 28  0  0  1  0  0  0  0  0999 V2000
   23.6541   -9.1966  -18.1518 N   0  0  0  0  0  0  0  0  0  0  0  0
   23.2554   -8.3596  -17.0558 C   0  0  1  0  0  0  0  0  0  0  0  0
   24.4506   -7.6342  -16.4394 C   0  0  0  0  0  0  0  0  0  0  0  0
   25.4151   -8.6343  -15.9686 C   0  0  0  0  0  0  0  0  0  0  0  0
   26.6428   -8.7411  -16.5911 C   0  0  0  0  0  0  0  0  0  0  0  0
   27.5402   -9.6794  -16.1439 C   0  0  0  0  0  0  0  0  0  0  0  0
   27.1910  -10.5000  -15.0747 C   0  0  0  0  0  0  0  0  0  0  0  0
   25.9571  -10.3807  -14.4618 C   0  0  0  0  0  0  0  0  0  0  0  0
   25.0700   -9.4432  -14.9140 C   0  0  0  0  0  0  0  0  0  0  0  0
   22.3803   -7.2667  -17.6083 C   0  0  0  0  0  0  0  0  0  0  0  0
   22.5718   -6.7474  -18.7274 O   0  0  0  0  0  0  0  0  0  0  0  0
   14.9978   -5.5223  -18.1721 C   0  0  0  0  0  0  0  0  0  0  0  0
   16.3718   -6.5142  -17.5296 S   0  0  0  0  0  0  0  0  0  0  0  0
   17.9147   -5.5368  -17.7935 C   0  0  0  0  0  0  0  0  0  0  0  0
   19.0296   -6.3951  -17.3340 C   0  0  0  0  0  0  0  0  0  0  0  0
   20.4117   -5.7981  -17.4086 C   0  0  2  0  0  0  0  0  0  0  0  0
   21.3075   -6.8309  -16.8073 N   0  0  0  0  0  0  0  0  0  0  0  0
   20.4783   -4.5742  -16.5953 C   0  0  0  0  0  0  0  0  0  0  0  0
   20.4945   -4.6751  -15.3285 O   0  0  0  0  0  0  0  0  0  0  0  0
   22.1923    3.0536  -17.3991 C   0  0  0  0  0  0  0  0  0  0  0  0
   21.9646    1.3979  -18.0726 S   0  0  0  0  0  0  0  0  0  0  0  0
   21.2801    0.3364  -16.7906 C   0  0  0  0  0  0  0  0  0  0  0  0
   21.1780   -1.0602  -17.2374 C   0  0  0  0  0  0  0  0  0  0  0  0
   20.5969   -2.0819  -16.2999 C   0  0  2  0  0  0  0  0  0  0  0  0
   20.5313   -3.3075  -17.1643 N   0  0  0  0  0  0  0  0  0  0  0  0
   19.2402   -1.8424  -15.8200 C   0  0  0  0  0  0  0  0  0  0  0  0
   18.1231   -2.2259  -16.5454 O   0  0  0  0  0  0  0  0  0  0  0  0
   18.9626   -1.2639  -14.7121 O   0  0  0  0  0  0  0  0  0  0  0  0
  2  1  1  6
  2  3  1  0
  4  3  1  0
  4  5  2  0
  6  5  1  0
  7  6  2  0
  8  9  2  0
  8  7  1  0
  9  4  1  0
 10  2  1  0
 11 10  2  0
 13 12  1  0
 14 15  1  0
 14 13  1  0
 16 15  1  1
 16 17  1  0
 17 10  1  0
 18 16  1  0
 18 19  2  0
 20 21  1  0
 22 21  1  0
 24 23  1  6
 23 22  1  0
 24 25  1  0
 25 18  1  0
 26 24  1  0
 27 26  1  0
 28 26  2  0
M  END
$$$$
