FMM.pdb
     RDKit          3D

 28 28  0  0  1  0  0  0  0  0999 V2000
   24.4236  -10.9352  -23.7916 N   0  0  0  0  0  0  0  0  0  0  0  0
   24.1962  -11.6000  -22.5397 C   0  0  1  0  0  0  0  0  0  0  0  0
   25.0949  -12.8258  -22.3834 C   0  0  0  0  0  0  0  0  0  0  0  0
   24.6553  -13.8544  -23.3327 C   0  0  0  0  0  0  0  0  0  0  0  0
   23.5379  -14.6125  -23.0450 C   0  0  0  0  0  0  0  0  0  0  0  0
   23.1327  -15.5728  -23.9391 C   0  0  0  0  0  0  0  0  0  0  0  0
   23.8576  -15.7589  -25.1131 C   0  0  0  0  0  0  0  0  0  0  0  0
   24.9749  -14.9913  -25.3868 C   0  0  0  0  0  0  0  0  0  0  0  0
   25.3708  -14.0373  -24.4904 C   0  0  0  0  0  0  0  0  0  0  0  0
   24.6207  -10.6643  -21.4399 C   0  0  0  0  0  0  0  0  0  0  0  0
   25.5292   -9.8200  -21.5831 O   0  0  0  0  0  0  0  0  0  0  0  0
   21.4818  -10.3171  -15.4492 C   0  0  0  0  0  0  0  0  0  0  0  0
   21.6075   -8.7191  -16.2948 S   0  0  0  0  0  0  0  0  0  0  0  0
   23.2414   -8.6874  -17.1520 C   0  0  0  0  0  0  0  0  0  0  0  0
   23.1115   -9.5880  -18.3194 C   0  0  0  0  0  0  0  0  0  0  0  0
   24.3523   -9.7938  -19.1503 C   0  0  2  0  0  0  0  0  0  0  0  0
   23.9473  -10.7678  -20.2077 N   0  0  0  0  0  0  0  0  0  0  0  0
   25.4165  -10.3925  -18.3300 C   0  0  0  0  0  0  0  0  0  0  0  0
   25.4409  -11.6537  -18.1753 O   0  0  0  0  0  0  0  0  0  0  0  0
   32.9629   -9.5193  -17.2080 C   0  0  0  0  0  0  0  0  0  0  0  0
   31.3770   -9.0992  -17.9531 S   0  0  0  0  0  0  0  0  0  0  0  0
   30.0617   -9.8732  -16.9992 C   0  0  0  0  0  0  0  0  0  0  0  0
   28.7395   -9.6180  -17.5884 C   0  0  0  0  0  0  0  0  0  0  0  0
   27.5341  -10.2815  -16.9823 C   0  0  2  0  0  0  0  0  0  0  0  0
   26.4036   -9.6266  -17.7217 N   0  0  0  0  0  0  0  0  0  0  0  0
   27.2920  -10.0433  -15.5635 C   0  0  0  0  0  0  0  0  0  0  0  0
   27.8554  -10.8364  -14.5762 O   0  0  0  0  0  0  0  0  0  0  0  0
   26.5489   -9.1045  -15.1100 O   0  0  0  0  0  0  0  0  0  0  0  0
  2  1  1  6
  2  3  1  0
  4  3  1  0
  4  5  2  0
  6  5  1  0
  7  6  2  0
  8  9  2  0
  8  7  1  0
  9  4  1  0
 10  2  1  0
 11 10  2  0
 13 12  1  0
 14 15  1  0
 14 13  1  0
 16 15  1  1
 16 17  1  0
 17 10  1  0
 18 16  1  0
 18 19  2  0
 20 21  1  0
 22 21  1  0
 24 23  1  6
 23 22  1  0
 24 25  1  0
 25 18  1  0
 26 24  1  0
 27 26  1  0
 28 26  2  0
M  END
$$$$
