FMM.pdb
     RDKit          3D

 28 28  0  0  1  0  0  0  0  0999 V2000
   26.1682  -18.4907  -14.5968 N   0  0  0  0  0  0  0  0  0  0  0  0
   27.0253  -19.6414  -14.6408 C   0  0  1  0  0  0  0  0  0  0  0  0
   28.4924  -19.2433  -14.7955 C   0  0  0  0  0  0  0  0  0  0  0  0
   28.6434  -18.4817  -16.0403 C   0  0  0  0  0  0  0  0  0  0  0  0
   28.5332  -17.1057  -16.0134 C   0  0  0  0  0  0  0  0  0  0  0  0
   28.6766  -16.4003  -17.1827 C   0  0  0  0  0  0  0  0  0  0  0  0
   28.9293  -17.0885  -18.3664 C   0  0  0  0  0  0  0  0  0  0  0  0
   29.0369  -18.4672  -18.3767 C   0  0  0  0  0  0  0  0  0  0  0  0
   28.8927  -19.1612  -17.2072 C   0  0  0  0  0  0  0  0  0  0  0  0
   26.9469  -20.3230  -13.3012 C   0  0  0  0  0  0  0  0  0  0  0  0
   27.4787  -21.4293  -13.0728 O   0  0  0  0  0  0  0  0  0  0  0  0
   27.2268  -20.9981   -6.8182 C   0  0  0  0  0  0  0  0  0  0  0  0
   25.7979  -19.9988   -7.3124 S   0  0  0  0  0  0  0  0  0  0  0  0
   25.1200  -20.7497   -8.8559 C   0  0  0  0  0  0  0  0  0  0  0  0
   25.8339  -20.0999   -9.9778 C   0  0  0  0  0  0  0  0  0  0  0  0
   25.4346  -20.5291  -11.3666 C   0  0  2  0  0  0  0  0  0  0  0  0
   26.2371  -19.6622  -12.2805 N   0  0  0  0  0  0  0  0  0  0  0  0
   24.0048  -20.2626  -11.5866 C   0  0  0  0  0  0  0  0  0  0  0  0
   23.6610  -19.1984  -12.1903 O   0  0  0  0  0  0  0  0  0  0  0  0
   21.7824  -19.8209  -16.0691 C   0  0  0  0  0  0  0  0  0  0  0  0
   20.6520  -21.1349  -15.5766 S   0  0  0  0  0  0  0  0  0  0  0  0
   20.3669  -21.0240  -13.8031 C   0  0  0  0  0  0  0  0  0  0  0  0
   21.6252  -21.0763  -13.0452 C   0  0  0  0  0  0  0  0  0  0  0  0
   21.5798  -20.9191  -11.5507 C   0  0  2  0  0  0  0  0  0  0  0  0
   23.0132  -21.1391  -11.1628 N   0  0  0  0  0  0  0  0  0  0  0  0
   20.7959  -21.8990  -10.8065 C   0  0  0  0  0  0  0  0  0  0  0  0
   19.4714  -21.6769  -10.4639 O   0  0  0  0  0  0  0  0  0  0  0  0
   21.2508  -23.0265  -10.4053 O   0  0  0  0  0  0  0  0  0  0  0  0
  2  1  1  1
  2  3  1  0
  4  3  1  0
  4  5  2  0
  6  5  1  0
  7  6  2  0
  8  9  2  0
  8  7  1  0
  9  4  1  0
 10  2  1  0
 11 10  2  0
 13 12  1  0
 14 15  1  0
 14 13  1  0
 16 15  1  1
 16 17  1  0
 17 10  1  0
 18 16  1  0
 18 19  2  0
 20 21  1  0
 22 21  1  0
 24 23  1  6
 23 22  1  0
 24 25  1  0
 25 18  1  0
 26 24  1  0
 27 26  1  0
 28 26  2  0
M  END
$$$$
