FMM.pdb
     RDKit          3D

 28 28  0  0  1  0  0  0  0  0999 V2000
   50.6019   13.6753 -102.5113 N   0  0  0  0  0  0  0  0  0  0  0  0
   49.7922   14.8404 -102.7294 C   0  0  1  0  0  0  0  0  0  0  0  0
   50.4564   16.0984 -102.1718 C   0  0  0  0  0  0  0  0  0  0  0  0
   49.4089   17.0351 -101.7504 C   0  0  0  0  0  0  0  0  0  0  0  0
   48.4206   16.6066 -100.8866 C   0  0  0  0  0  0  0  0  0  0  0  0
   47.4442   17.4898 -100.4966 C   0  0  0  0  0  0  0  0  0  0  0  0
   47.4738   18.7949 -100.9809 C   0  0  0  0  0  0  0  0  0  0  0  0
   48.4705   19.2087 -101.8456 C   0  0  0  0  0  0  0  0  0  0  0  0
   49.4388   18.3220 -102.2285 C   0  0  0  0  0  0  0  0  0  0  0  0
   49.7100   15.0702 -104.2146 C   0  0  0  0  0  0  0  0  0  0  0  0
   49.8787   14.1583 -105.0505 O   0  0  0  0  0  0  0  0  0  0  0  0
   47.8582   16.8824 -103.6672 C   0  0  0  0  0  0  0  0  0  0  0  0
   48.4696   18.5861 -103.7576 S   0  0  0  0  0  0  0  0  0  0  0  0
   48.4662   19.0686 -105.5388 C   0  0  0  0  0  0  0  0  0  0  0  0
   48.4914   17.8043 -106.3080 C   0  0  0  0  0  0  0  0  0  0  0  0
   48.2325   16.5395 -105.5300 C   0  0  2  0  0  0  0  0  0  0  0  0
   49.4297   16.3789 -104.6515 N   0  0  0  0  0  0  0  0  0  0  0  0
   48.1524   15.3905 -106.4450 C   0  0  0  0  0  0  0  0  0  0  0  0
   47.0953   14.6851 -106.4591 O   0  0  0  0  0  0  0  0  0  0  0  0
   45.8353   11.2829 -109.2702 C   0  0  0  0  0  0  0  0  0  0  0  0
   46.8183   11.9119 -107.8972 S   0  0  0  0  0  0  0  0  0  0  0  0
   48.0036   13.1094 -108.5297 C   0  0  0  0  0  0  0  0  0  0  0  0
   49.3637   12.8385 -108.0424 C   0  0  0  0  0  0  0  0  0  0  0  0
   49.9946   13.8030 -107.0770 C   0  0  2  0  0  0  0  0  0  0  0  0
   49.1921   15.0515 -107.3025 N   0  0  0  0  0  0  0  0  0  0  0  0
   51.3889   14.1600 -107.3155 C   0  0  0  0  0  0  0  0  0  0  0  0
   51.7795   14.9165 -108.4093 O   0  0  0  0  0  0  0  0  0  0  0  0
   52.3591   13.8104 -106.5567 O   0  0  0  0  0  0  0  0  0  0  0  0
  2  1  1  6
  2  3  1  0
  4  3  1  0
  4  5  2  0
  6  5  1  0
  7  6  2  0
  8  9  2  0
  8  7  1  0
  9  4  1  0
 10  2  1  0
 11 10  2  0
 13 12  1  0
 14 15  1  0
 14 13  1  0
 16 15  1  6
 16 17  1  0
 17 10  1  0
 18 16  1  0
 18 19  2  0
 20 21  1  0
 22 21  1  0
 24 23  1  6
 23 22  1  0
 24 25  1  0
 25 18  1  0
 26 24  1  0
 27 26  1  0
 28 26  2  0
M  END
$$$$
