IVI.pdb
     RDKit          3D

 24 23  0  0  1  0  0  0  0  0999 V2000
   20.1277  -20.3361  -12.1283 C   0  0  0  0  0  0  0  0  0  0  0  0
   21.4861  -20.5018  -12.8022 C   0  0  0  0  0  0  0  0  0  0  0  0
   22.5101  -21.0509  -11.8754 C   0  0  2  0  0  0  0  0  0  0  0  0
   22.5932  -20.2949  -10.5667 C   0  0  0  0  0  0  0  0  0  0  0  0
   23.8632  -21.0731  -12.5249 C   0  0  2  0  0  0  0  0  0  0  0  0
   23.8401  -21.8987  -13.7354 N   0  0  0  0  0  0  0  0  0  0  0  0
   24.9716  -21.4188  -11.6485 C   0  0  0  0  0  0  0  0  0  0  0  0
   25.0793  -22.5762  -11.1878 O   0  0  0  0  0  0  0  0  0  0  0  0
   29.4943  -20.9450   -9.9117 C   0  0  0  0  0  0  0  0  0  0  0  0
   28.4215  -20.6355  -10.9013 C   0  0  1  0  0  0  0  0  0  0  0  0
   28.5980  -21.3395  -12.2165 C   0  0  0  0  0  0  0  0  0  0  0  0
   27.0247  -20.8827  -10.3217 C   0  0  2  0  0  0  0  0  0  0  0  0
   25.9965  -20.5003  -11.2519 N   0  0  0  0  0  0  0  0  0  0  0  0
   26.8516  -20.1373   -9.0472 C   0  0  0  0  0  0  0  0  0  0  0  0
   26.2171  -19.0320   -9.0082 O   0  0  0  0  0  0  0  0  0  0  0  0
   28.4742  -20.9017   -3.0595 C   0  0  0  0  0  0  0  0  0  0  0  0
   27.7502  -20.1592   -4.1381 C   0  0  0  0  0  0  0  0  0  0  0  0
   27.9289  -20.7816   -5.5063 C   0  0  2  0  0  0  0  0  0  0  0  0
   29.3994  -20.9861   -5.7870 C   0  0  0  0  0  0  0  0  0  0  0  0
   27.2963  -19.8816   -6.5766 C   0  0  2  0  0  0  0  0  0  0  0  0
   27.3738  -20.6081   -7.8291 N   0  0  0  0  0  0  0  0  0  0  0  0
   28.1360  -18.6490   -6.6128 C   0  0  0  0  0  0  0  0  0  0  0  0
   27.8247  -17.5713   -5.8267 O   0  0  0  0  0  0  0  0  0  0  0  0
   29.1427  -18.5800   -7.3654 O   0  0  0  0  0  0  0  0  0  0  0  0
  2  3  1  0
  2  1  1  0
  3  4  1  1
  5  3  1  0
  5  6  1  6
  5  7  1  0
  7  8  2  0
 10 11  1  6
 10 12  1  0
 10  9  1  0
 13  7  1  0
 12 13  1  6
 14 12  1  0
 14 15  2  0
 17 18  1  0
 17 16  1  0
 18 20  1  0
 18 19  1  6
 20 22  1  0
 20 21  1  6
 21 14  1  0
 22 23  1  0
 24 22  2  0
M  END
$$$$
