IVI.pdb
     RDKit          3D

 24 23  0  0  1  0  0  0  0  0999 V2000
   21.7351  -21.5861  -15.3541 C   0  0  0  0  0  0  0  0  0  0  0  0
   21.9061  -21.0467  -13.9375 C   0  0  0  0  0  0  0  0  0  0  0  0
   23.1703  -21.5104  -13.3084 C   0  0  2  0  0  0  0  0  0  0  0  0
   23.3042  -23.0180  -13.2853 C   0  0  0  0  0  0  0  0  0  0  0  0
   23.3001  -20.9773  -11.9112 C   0  0  2  0  0  0  0  0  0  0  0  0
   23.0566  -19.5324  -11.8865 N   0  0  0  0  0  0  0  0  0  0  0  0
   24.5264  -21.3371  -11.2162 C   0  0  0  0  0  0  0  0  0  0  0  0
   24.6664  -22.4789  -10.7262 O   0  0  0  0  0  0  0  0  0  0  0  0
   29.2826  -20.7815  -10.1273 C   0  0  0  0  0  0  0  0  0  0  0  0
   28.0898  -20.4580  -10.9632 C   0  0  1  0  0  0  0  0  0  0  0  0
   28.1500  -21.0433  -12.3454 C   0  0  0  0  0  0  0  0  0  0  0  0
   26.7823  -20.8327  -10.2575 C   0  0  2  0  0  0  0  0  0  0  0  0
   25.6370  -20.4504  -11.0391 N   0  0  0  0  0  0  0  0  0  0  0  0
   26.7127  -20.1920   -8.9178 C   0  0  0  0  0  0  0  0  0  0  0  0
   26.0814  -19.0988   -8.7394 O   0  0  0  0  0  0  0  0  0  0  0  0
   28.7976  -21.4423   -3.1585 C   0  0  0  0  0  0  0  0  0  0  0  0
   27.9954  -20.6128   -4.1111 C   0  0  0  0  0  0  0  0  0  0  0  0
   28.0730  -21.1109   -5.5384 C   0  0  2  0  0  0  0  0  0  0  0  0
   29.5189  -21.2307   -5.9603 C   0  0  0  0  0  0  0  0  0  0  0  0
   27.3181  -20.1515   -6.4686 C   0  0  2  0  0  0  0  0  0  0  0  0
   27.3341  -20.7532   -7.7877 N   0  0  0  0  0  0  0  0  0  0  0  0
   28.0929  -18.8768   -6.4456 C   0  0  0  0  0  0  0  0  0  0  0  0
   27.7675  -17.8802   -5.5640 O   0  0  0  0  0  0  0  0  0  0  0  0
   29.0568  -18.6970   -7.2351 O   0  0  0  0  0  0  0  0  0  0  0  0
  2  3  1  0
  2  1  1  0
  3  4  1  1
  5  3  1  0
  5  6  1  6
  5  7  1  0
  7  8  2  0
 10 11  1  6
 10 12  1  0
 10  9  1  0
 13  7  1  0
 12 13  1  6
 14 12  1  0
 14 15  2  0
 17 18  1  0
 17 16  1  0
 18 20  1  0
 18 19  1  6
 20 22  1  0
 20 21  1  6
 21 14  1  0
 22 23  1  0
 24 22  2  0
M  END
$$$$
