IVI.pdb
     RDKit          3D

 24 23  0  0  1  0  0  0  0  0999 V2000
   20.0062  -21.5899  -13.2856 C   0  0  0  0  0  0  0  0  0  0  0  0
   21.1116  -20.6017  -12.9271 C   0  0  0  0  0  0  0  0  0  0  0  0
   22.1089  -21.1882  -11.9942 C   0  0  2  0  0  0  0  0  0  0  0  0
   21.4891  -21.7215  -10.7203 C   0  0  0  0  0  0  0  0  0  0  0  0
   23.1730  -20.1872  -11.6494 C   0  0  2  0  0  0  0  0  0  0  0  0
   23.6360  -19.4922  -12.8536 N   0  0  0  0  0  0  0  0  0  0  0  0
   24.2786  -20.6989  -10.8544 C   0  0  0  0  0  0  0  0  0  0  0  0
   24.0607  -21.3854   -9.8322 O   0  0  0  0  0  0  0  0  0  0  0  0
   29.1512  -21.4850  -10.1545 C   0  0  0  0  0  0  0  0  0  0  0  0
   28.0555  -20.9830  -11.0339 C   0  0  1  0  0  0  0  0  0  0  0  0
   27.9600  -21.7084  -12.3459 C   0  0  0  0  0  0  0  0  0  0  0  0
   26.7060  -20.9670  -10.3082 C   0  0  2  0  0  0  0  0  0  0  0  0
   25.6590  -20.4706  -11.1602 N   0  0  0  0  0  0  0  0  0  0  0  0
   26.7878  -20.1374   -9.0773 C   0  0  0  0  0  0  0  0  0  0  0  0
   26.3644  -18.9349   -9.0608 O   0  0  0  0  0  0  0  0  0  0  0  0
   26.1437  -22.2372   -4.0435 C   0  0  0  0  0  0  0  0  0  0  0  0
   26.1912  -21.2976   -5.2071 C   0  0  0  0  0  0  0  0  0  0  0  0
   27.5875  -20.7930   -5.5027 C   0  0  2  0  0  0  0  0  0  0  0  0
   28.1538  -20.1096   -4.2798 C   0  0  0  0  0  0  0  0  0  0  0  0
   27.5524  -19.8250   -6.6930 C   0  0  2  0  0  0  0  0  0  0  0  0
   27.3315  -20.6311   -7.8779 N   0  0  0  0  0  0  0  0  0  0  0  0
   28.8952  -19.1756   -6.7227 C   0  0  0  0  0  0  0  0  0  0  0  0
   29.0508  -17.8791   -6.3090 O   0  0  0  0  0  0  0  0  0  0  0  0
   29.9054  -19.8081   -7.1279 O   0  0  0  0  0  0  0  0  0  0  0  0
  2  3  1  0
  2  1  1  0
  3  4  1  1
  5  3  1  0
  5  6  1  6
  5  7  1  0
  7  8  2  0
 10 11  1  6
 10 12  1  0
 10  9  1  0
 13  7  1  0
 12 13  1  6
 14 12  1  0
 14 15  2  0
 17 18  1  0
 17 16  1  0
 18 20  1  0
 18 19  1  1
 20 22  1  0
 20 21  1  6
 21 14  1  0
 22 23  1  0
 24 22  2  0
M  END
$$$$
