IVI.pdb
     RDKit          3D

 24 23  0  0  1  0  0  0  0  0999 V2000
   20.2091  -21.5684  -13.3687 C   0  0  0  0  0  0  0  0  0  0  0  0
   21.6068  -20.9848  -13.5493 C   0  0  0  0  0  0  0  0  0  0  0  0
   22.5771  -21.5360  -12.5677 C   0  0  2  0  0  0  0  0  0  0  0  0
   22.1172  -21.3920  -11.1327 C   0  0  0  0  0  0  0  0  0  0  0  0
   23.9237  -20.8921  -12.7264 C   0  0  2  0  0  0  0  0  0  0  0  0
   24.3879  -21.0035  -14.1118 N   0  0  0  0  0  0  0  0  0  0  0  0
   24.9371  -21.3194  -11.7742 C   0  0  0  0  0  0  0  0  0  0  0  0
   25.3813  -22.4879  -11.8019 O   0  0  0  0  0  0  0  0  0  0  0  0
   28.1467  -21.2800  -11.9910 C   0  0  0  0  0  0  0  0  0  0  0  0
   27.9470  -20.4704  -10.7538 C   0  0  1  0  0  0  0  0  0  0  0  0
   28.0079  -18.9883  -10.9909 C   0  0  0  0  0  0  0  0  0  0  0  0
   26.6612  -20.8632  -10.0186 C   0  0  2  0  0  0  0  0  0  0  0  0
   25.4931  -20.4729  -10.7615 N   0  0  0  0  0  0  0  0  0  0  0  0
   26.6263  -20.2459   -8.6667 C   0  0  0  0  0  0  0  0  0  0  0  0
   25.6839  -19.4588   -8.3231 O   0  0  0  0  0  0  0  0  0  0  0  0
   30.5266  -22.1854   -5.2173 C   0  0  0  0  0  0  0  0  0  0  0  0
   29.1574  -21.7897   -5.6730 C   0  0  0  0  0  0  0  0  0  0  0  0
   28.9654  -20.2895   -5.7339 C   0  0  2  0  0  0  0  0  0  0  0  0
   29.0682  -19.7040   -4.3447 C   0  0  0  0  0  0  0  0  0  0  0  0
   27.6016  -19.9619   -6.3569 C   0  0  2  0  0  0  0  0  0  0  0  0
   27.6218  -20.4954   -7.7051 N   0  0  0  0  0  0  0  0  0  0  0  0
   27.5108  -18.4728   -6.3653 C   0  0  0  0  0  0  0  0  0  0  0  0
   26.8161  -17.8122   -5.3868 O   0  0  0  0  0  0  0  0  0  0  0  0
   28.0705  -17.8006   -7.2706 O   0  0  0  0  0  0  0  0  0  0  0  0
  2  3  1  0
  2  1  1  0
  3  4  1  1
  5  3  1  0
  5  6  1  6
  5  7  1  0
  7  8  2  0
 10 11  1  6
 10 12  1  0
 10  9  1  0
 13  7  1  0
 12 13  1  6
 14 12  1  0
 14 15  2  0
 17 18  1  0
 17 16  1  0
 18 20  1  0
 18 19  1  1
 20 22  1  0
 20 21  1  6
 21 14  1  0
 22 23  1  0
 24 22  2  0
M  END
$$$$
