IVI.pdb
     RDKit          3D

 24 23  0  0  1  0  0  0  0  0999 V2000
   14.4155  -15.1527  -13.2175 C   0  0  0  0  0  0  0  0  0  0  0  0
   14.1932  -14.1720  -12.0703 C   0  0  0  0  0  0  0  0  0  0  0  0
   14.5010  -12.7714  -12.4607 C   0  0  2  0  0  0  0  0  0  0  0  0
   15.9113  -12.5962  -12.9820 C   0  0  0  0  0  0  0  0  0  0  0  0
   14.2746  -11.8331  -11.3111 C   0  0  2  0  0  0  0  0  0  0  0  0
   12.9201  -11.9926  -10.7751 N   0  0  0  0  0  0  0  0  0  0  0  0
   14.5998  -10.4388  -11.5689 C   0  0  0  0  0  0  0  0  0  0  0  0
   14.0306   -9.8143  -12.4905 O   0  0  0  0  0  0  0  0  0  0  0  0
   13.9612   -7.2489   -9.9188 C   0  0  0  0  0  0  0  0  0  0  0  0
   15.4448   -7.3725  -10.0168 C   0  0  1  0  0  0  0  0  0  0  0  0
   16.1021   -7.7475   -8.7190 C   0  0  0  0  0  0  0  0  0  0  0  0
   15.8631   -8.3204  -11.1458 C   0  0  2  0  0  0  0  0  0  0  0  0
   15.5625   -9.6885  -10.8195 N   0  0  0  0  0  0  0  0  0  0  0  0
   17.3153   -8.1795  -11.4313 C   0  0  0  0  0  0  0  0  0  0  0  0
   18.1948   -8.6055  -10.6124 O   0  0  0  0  0  0  0  0  0  0  0  0
   19.4893  -10.5697  -15.0529 C   0  0  0  0  0  0  0  0  0  0  0  0
   19.2415   -9.6870  -13.8704 C   0  0  0  0  0  0  0  0  0  0  0  0
   19.4925   -8.2231  -14.1629 C   0  0  2  0  0  0  0  0  0  0  0  0
   20.9243   -8.0280  -14.6045 C   0  0  0  0  0  0  0  0  0  0  0  0
   19.1947   -7.3820  -12.9141 C   0  0  2  0  0  0  0  0  0  0  0  0
   17.7903   -7.5746  -12.6087 N   0  0  0  0  0  0  0  0  0  0  0  0
   19.4751   -5.9697  -13.3046 C   0  0  0  0  0  0  0  0  0  0  0  0
   18.4593   -5.1445  -13.7091 O   0  0  0  0  0  0  0  0  0  0  0  0
   20.6482   -5.5145  -13.2685 O   0  0  0  0  0  0  0  0  0  0  0  0
  2  3  1  0
  2  1  1  0
  3  4  1  1
  5  3  1  0
  5  6  1  6
  5  7  1  0
  7  8  2  0
 10 11  1  1
 10 12  1  0
 10  9  1  0
 13  7  1  0
 12 13  1  1
 14 12  1  0
 14 15  2  0
 17 18  1  0
 17 16  1  0
 18 20  1  0
 18 19  1  1
 20 22  1  0
 20 21  1  6
 21 14  1  0
 22 23  1  0
 24 22  2  0
M  END
$$$$
