IVI.pdb
     RDKit          3D

 24 23  0  0  1  0  0  0  0  0999 V2000
   20.7771  -19.9915  -12.4307 C   0  0  0  0  0  0  0  0  0  0  0  0
   22.2073  -20.2457  -12.8965 C   0  0  0  0  0  0  0  0  0  0  0  0
   23.0712  -20.7617  -11.8027 C   0  0  2  0  0  0  0  0  0  0  0  0
   23.1384  -19.8321  -10.6100 C   0  0  0  0  0  0  0  0  0  0  0  0
   24.4607  -21.0339  -12.3011 C   0  0  2  0  0  0  0  0  0  0  0  0
   24.4346  -22.0148  -13.3895 N   0  0  0  0  0  0  0  0  0  0  0  0
   25.4356  -21.3785  -11.2778 C   0  0  0  0  0  0  0  0  0  0  0  0
   25.4056  -22.4994  -10.7246 O   0  0  0  0  0  0  0  0  0  0  0  0
   29.8191  -21.1635   -9.2176 C   0  0  0  0  0  0  0  0  0  0  0  0
   28.8495  -20.7893  -10.2881 C   0  0  1  0  0  0  0  0  0  0  0  0
   29.0519  -21.5444  -11.5709 C   0  0  0  0  0  0  0  0  0  0  0  0
   27.3994  -20.8948   -9.8041 C   0  0  2  0  0  0  0  0  0  0  0  0
   26.4742  -20.4990  -10.8316 N   0  0  0  0  0  0  0  0  0  0  0  0
   27.1936  -20.0575   -8.5931 C   0  0  0  0  0  0  0  0  0  0  0  0
   26.6751  -18.8954   -8.6727 O   0  0  0  0  0  0  0  0  0  0  0  0
   28.1910  -20.5879   -2.4472 C   0  0  0  0  0  0  0  0  0  0  0  0
   27.6075  -19.8718   -3.6243 C   0  0  0  0  0  0  0  0  0  0  0  0
   27.8480  -20.5929   -4.9334 C   0  0  2  0  0  0  0  0  0  0  0  0
   29.3045  -20.9791   -5.0443 C   0  0  0  0  0  0  0  0  0  0  0  0
   27.4380  -19.6943   -6.1081 C   0  0  2  0  0  0  0  0  0  0  0  0
   27.5567  -20.4993   -7.3082 N   0  0  0  0  0  0  0  0  0  0  0  0
   28.4161  -18.5678   -6.1129 C   0  0  0  0  0  0  0  0  0  0  0  0
   28.1221  -17.3878   -5.4823 O   0  0  0  0  0  0  0  0  0  0  0  0
   29.5258  -18.6837   -6.6958 O   0  0  0  0  0  0  0  0  0  0  0  0
  2  3  1  0
  2  1  1  0
  3  4  1  1
  5  3  1  0
  5  6  1  6
  5  7  1  0
  7  8  2  0
 10 11  1  6
 10 12  1  0
 10  9  1  0
 13  7  1  0
 12 13  1  6
 14 12  1  0
 14 15  2  0
 17 18  1  0
 17 16  1  0
 18 20  1  0
 18 19  1  6
 20 22  1  0
 20 21  1  6
 21 14  1  0
 22 23  1  0
 24 22  2  0
M  END
$$$$
