IVI.pdb
     RDKit          3D

 24 23  0  0  1  0  0  0  0  0999 V2000
   14.6652  -12.7887  -17.8803 C   0  0  0  0  0  0  0  0  0  0  0  0
   16.1702  -12.8498  -17.6389 C   0  0  0  0  0  0  0  0  0  0  0  0
   16.6353  -11.7807  -16.7172 C   0  0  2  0  0  0  0  0  0  0  0  0
   16.2918  -10.3882  -17.2010 C   0  0  0  0  0  0  0  0  0  0  0  0
   18.1157  -11.8777  -16.4885 C   0  0  2  0  0  0  0  0  0  0  0  0
   18.4741  -13.2089  -15.9916 N   0  0  0  0  0  0  0  0  0  0  0  0
   18.6936  -10.8174  -15.6772 C   0  0  0  0  0  0  0  0  0  0  0  0
   18.4434  -10.7462  -14.4542 O   0  0  0  0  0  0  0  0  0  0  0  0
   22.0108   -7.4252  -14.5867 C   0  0  0  0  0  0  0  0  0  0  0  0
   21.5346   -8.6674  -15.2621 C   0  0  1  0  0  0  0  0  0  0  0  0
   22.0760   -9.9278  -14.6499 C   0  0  0  0  0  0  0  0  0  0  0  0
   20.0061   -8.7101  -15.3619 C   0  0  2  0  0  0  0  0  0  0  0  0
   19.5655   -9.8023  -16.1876 N   0  0  0  0  0  0  0  0  0  0  0  0
   19.4847   -7.4280  -15.9045 C   0  0  0  0  0  0  0  0  0  0  0  0
   19.6416   -7.1162  -17.1308 O   0  0  0  0  0  0  0  0  0  0  0  0
   15.5881   -6.1233  -16.7890 C   0  0  0  0  0  0  0  0  0  0  0  0
   15.9485   -6.1872  -15.3381 C   0  0  0  0  0  0  0  0  0  0  0  0
   16.8829   -5.0753  -14.9117 C   0  0  2  0  0  0  0  0  0  0  0  0
   16.2813   -3.7363  -15.2697 C   0  0  0  0  0  0  0  0  0  0  0  0
   18.2483   -5.2510  -15.5900 C   0  0  2  0  0  0  0  0  0  0  0  0
   18.7975   -6.5007  -15.1008 N   0  0  0  0  0  0  0  0  0  0  0  0
   19.0703   -4.0879  -15.1459 C   0  0  0  0  0  0  0  0  0  0  0  0
   19.3904   -3.0861  -16.0237 O   0  0  0  0  0  0  0  0  0  0  0  0
   19.4823   -4.0086  -13.9590 O   0  0  0  0  0  0  0  0  0  0  0  0
  2  3  1  0
  2  1  1  0
  3  4  1  6
  5  3  1  0
  5  6  1  1
  5  7  1  0
  7  8  2  0
 10 11  1  1
 10 12  1  0
 10  9  1  0
 13  7  1  0
 12 13  1  6
 14 12  1  0
 14 15  2  0
 17 18  1  0
 17 16  1  0
 18 20  1  0
 18 19  1  6
 20 22  1  0
 20 21  1  1
 21 14  1  0
 22 23  1  0
 24 22  2  0
M  END
$$$$
