IVI.pdb
     RDKit          3D

 24 23  0  0  1  0  0  0  0  0999 V2000
   19.8863  -19.8454  -12.3504 C   0  0  0  0  0  0  0  0  0  0  0  0
   21.2842  -20.0376  -12.9298 C   0  0  0  0  0  0  0  0  0  0  0  0
   22.2252  -20.6287  -11.9428 C   0  0  2  0  0  0  0  0  0  0  0  0
   22.3220  -19.8287  -10.6614 C   0  0  0  0  0  0  0  0  0  0  0  0
   23.5948  -20.7861  -12.5365 C   0  0  2  0  0  0  0  0  0  0  0  0
   23.5453  -21.6395  -13.7267 N   0  0  0  0  0  0  0  0  0  0  0  0
   24.6346  -21.2024  -11.6081 C   0  0  0  0  0  0  0  0  0  0  0  0
   24.6418  -22.3627  -11.1422 O   0  0  0  0  0  0  0  0  0  0  0  0
   29.1413  -21.2905   -9.9357 C   0  0  0  0  0  0  0  0  0  0  0  0
   28.0894  -20.8376  -10.8919 C   0  0  1  0  0  0  0  0  0  0  0  0
   28.0837  -21.6039  -12.1840 C   0  0  0  0  0  0  0  0  0  0  0  0
   26.7000  -20.8272  -10.2458 C   0  0  2  0  0  0  0  0  0  0  0  0
   25.6991  -20.3536  -11.1637 N   0  0  0  0  0  0  0  0  0  0  0  0
   26.7015  -19.9810   -9.0236 C   0  0  0  0  0  0  0  0  0  0  0  0
   26.2176  -18.8014   -9.0352 O   0  0  0  0  0  0  0  0  0  0  0  0
   28.2735  -20.6062   -3.0227 C   0  0  0  0  0  0  0  0  0  0  0  0
   27.5958  -19.8556   -4.1255 C   0  0  0  0  0  0  0  0  0  0  0  0
   27.6127  -20.5992   -5.4439 C   0  0  2  0  0  0  0  0  0  0  0  0
   28.9695  -21.2287   -5.6585 C   0  0  0  0  0  0  0  0  0  0  0  0
   27.2780  -19.6365   -6.5913 C   0  0  2  0  0  0  0  0  0  0  0  0
   27.2320  -20.4331   -7.8020 N   0  0  0  0  0  0  0  0  0  0  0  0
   28.3999  -18.6540   -6.6319 C   0  0  0  0  0  0  0  0  0  0  0  0
   28.3299  -17.4874   -5.9174 O   0  0  0  0  0  0  0  0  0  0  0  0
   29.4275  -18.8812   -7.3227 O   0  0  0  0  0  0  0  0  0  0  0  0
  2  3  1  0
  2  1  1  0
  3  4  1  1
  5  3  1  0
  5  6  1  6
  5  7  1  0
  7  8  2  0
 10 11  1  6
 10 12  1  0
 10  9  1  0
 13  7  1  0
 12 13  1  6
 14 12  1  0
 14 15  2  0
 17 18  1  0
 17 16  1  0
 18 20  1  0
 18 19  1  6
 20 22  1  0
 20 21  1  6
 21 14  1  0
 22 23  1  0
 24 22  2  0
M  END
$$$$
