DDI.pdb
     RDKit          3D

 25 24  0  0  1  0  0  0  0  0999 V2000
    9.9503  -13.3113   19.0267 N   0  0  0  0  0  0  0  0  0  0  0  0
    8.6710  -13.2102   19.6882 C   0  0  1  0  0  0  0  0  0  0  0  0
    7.6063  -13.4401   18.6421 C   0  0  0  0  0  0  0  0  0  0  0  0
    7.9968  -14.4915   17.6757 C   0  0  0  0  0  0  0  0  0  0  0  0
    7.4974  -15.6424   17.7502 O   0  0  0  0  0  0  0  0  0  0  0  0
    8.4815  -14.2554   20.7233 C   0  0  0  0  0  0  0  0  0  0  0  0
    7.3263  -14.2949   21.2495 O   0  0  0  0  0  0  0  0  0  0  0  0
    8.9142  -14.2570   16.6639 O   0  0  0  0  0  0  0  0  0  0  0  0
    9.4704  -15.1618   21.1313 N   0  0  0  0  0  0  0  0  0  0  0  0
    9.1460  -16.0877   22.2326 C   0  0  1  0  0  0  0  0  0  0  0  0
    9.9837  -17.3003   21.9995 C   0  0  0  0  0  0  0  0  0  0  0  0
    9.5682  -18.0562   20.8372 C   0  0  0  0  0  0  0  0  0  0  0  0
    8.3636  -18.1914   20.5277 O   0  0  0  0  0  0  0  0  0  0  0  0
    9.4149  -15.3957   23.5216 C   0  0  0  0  0  0  0  0  0  0  0  0
   10.4941  -14.8407   23.7841 O   0  0  0  0  0  0  0  0  0  0  0  0
   10.5642  -18.6557   20.0349 O   0  0  0  0  0  0  0  0  0  0  0  0
    6.1400  -11.8710   25.6360 C   0  0  0  0  0  0  0  0  0  0  0  0
    7.2878  -12.7274   25.1611 C   0  0  0  0  0  0  0  0  0  0  0  0
    7.5786  -13.7453   26.2368 C   0  0  2  0  0  0  0  0  0  0  0  0
    8.0659  -13.0134   27.4831 C   0  0  0  0  0  0  0  0  0  0  0  0
    8.6720  -14.7014   25.8263 C   0  0  2  0  0  0  0  0  0  0  0  0
    8.4200  -15.3274   24.5608 N   0  0  0  0  0  0  0  0  0  0  0  0
    8.8818  -15.6543   26.9377 C   0  0  0  0  0  0  0  0  0  0  0  0
    8.2631  -16.7295   26.9423 O   0  0  0  0  0  0  0  0  0  0  0  0
    9.7628  -15.3428   27.9618 O   0  0  0  0  0  0  0  0  0  0  0  0
  2  1  1  6
  2  3  1  0
  3  4  1  0
  4  5  2  0
  6  2  1  0
  7  6  2  0
  8  4  1  0
  9  6  1  0
 10 14  1  0
 10  9  1  0
 10 11  1  6
 12 11  1  0
 12 13  2  0
 14 22  1  0
 15 14  2  0
 16 12  1  0
 18 17  1  0
 19 18  1  0
 19 20  1  1
 21 19  1  0
 21 23  1  0
 21 22  1  6
 23 24  2  0
 23 25  1  0
M  END
$$$$
