DDI.pdb
     RDKit          3D

 25 24  0  0  1  0  0  0  0  0999 V2000
    9.7596  -12.9834   19.0340 N   0  0  0  0  0  0  0  0  0  0  0  0
    8.3871  -13.0878   19.4698 C   0  0  1  0  0  0  0  0  0  0  0  0
    7.5697  -13.5213   18.2762 C   0  0  0  0  0  0  0  0  0  0  0  0
    8.2877  -14.5129   17.4436 C   0  0  0  0  0  0  0  0  0  0  0  0
    9.1964  -15.2241   17.9416 O   0  0  0  0  0  0  0  0  0  0  0  0
    8.1986  -14.1256   20.5126 C   0  0  0  0  0  0  0  0  0  0  0  0
    7.0140  -14.2411   20.9553 O   0  0  0  0  0  0  0  0  0  0  0  0
    7.9944  -14.6976   16.1019 O   0  0  0  0  0  0  0  0  0  0  0  0
    9.2182  -14.9488   21.0115 N   0  0  0  0  0  0  0  0  0  0  0  0
    8.8777  -15.8889   22.0956 C   0  0  1  0  0  0  0  0  0  0  0  0
    9.7162  -17.0999   21.8569 C   0  0  0  0  0  0  0  0  0  0  0  0
    9.5787  -18.0939   22.9001 C   0  0  0  0  0  0  0  0  0  0  0  0
   10.5270  -18.3990   23.6570 O   0  0  0  0  0  0  0  0  0  0  0  0
    9.1311  -15.2152   23.3974 C   0  0  0  0  0  0  0  0  0  0  0  0
   10.1772  -14.5964   23.6515 O   0  0  0  0  0  0  0  0  0  0  0  0
    8.3289  -18.7327   23.0583 O   0  0  0  0  0  0  0  0  0  0  0  0
    5.9729  -11.7431   25.6699 C   0  0  0  0  0  0  0  0  0  0  0  0
    7.1126  -12.5998   25.1766 C   0  0  0  0  0  0  0  0  0  0  0  0
    7.3266  -13.7049   26.1821 C   0  0  2  0  0  0  0  0  0  0  0  0
    7.7765  -13.0850   27.5011 C   0  0  0  0  0  0  0  0  0  0  0  0
    8.4110  -14.6601   25.7466 C   0  0  2  0  0  0  0  0  0  0  0  0
    8.1592  -15.2414   24.4599 N   0  0  0  0  0  0  0  0  0  0  0  0
    8.6030  -15.6512   26.8274 C   0  0  0  0  0  0  0  0  0  0  0  0
    9.1605  -15.3036   27.8797 O   0  0  0  0  0  0  0  0  0  0  0  0
    8.1618  -16.9548   26.6599 O   0  0  0  0  0  0  0  0  0  0  0  0
  2  1  1  6
  2  3  1  0
  3  4  1  0
  4  5  2  0
  6  2  1  0
  7  6  2  0
  8  4  1  0
  9  6  1  0
 10 14  1  0
 10  9  1  0
 10 11  1  6
 12 11  1  0
 12 13  2  0
 14 22  1  0
 15 14  2  0
 16 12  1  0
 18 17  1  0
 19 18  1  0
 19 20  1  1
 21 19  1  0
 21 23  1  0
 21 22  1  6
 23 24  2  0
 23 25  1  0
M  END
$$$$
