DDI.pdb
     RDKit          3D

 25 24  0  0  1  0  0  0  0  0999 V2000
    9.5776  -16.9831   19.7246 N   0  0  0  0  0  0  0  0  0  0  0  0
    8.1948  -16.5972   19.8777 C   0  0  1  0  0  0  0  0  0  0  0  0
    7.3654  -17.5780   19.0834 C   0  0  0  0  0  0  0  0  0  0  0  0
    7.1989  -17.1505   17.6758 C   0  0  0  0  0  0  0  0  0  0  0  0
    7.8686  -16.1904   17.2182 O   0  0  0  0  0  0  0  0  0  0  0  0
    7.7305  -16.6895   21.2833 C   0  0  0  0  0  0  0  0  0  0  0  0
    6.6648  -16.0508   21.5458 O   0  0  0  0  0  0  0  0  0  0  0  0
    6.3128  -17.7792   16.8156 O   0  0  0  0  0  0  0  0  0  0  0  0
    8.3809  -17.4150   22.2916 N   0  0  0  0  0  0  0  0  0  0  0  0
    7.8530  -17.3133   23.6650 C   0  0  1  0  0  0  0  0  0  0  0  0
    8.0990  -18.6453   24.2909 C   0  0  0  0  0  0  0  0  0  0  0  0
    7.8125  -18.6617   25.7096 C   0  0  0  0  0  0  0  0  0  0  0  0
    8.6581  -19.0306   26.5546 O   0  0  0  0  0  0  0  0  0  0  0  0
    8.5350  -16.1807   24.3468 C   0  0  0  0  0  0  0  0  0  0  0  0
    9.7605  -15.9896   24.2891 O   0  0  0  0  0  0  0  0  0  0  0  0
    6.5334  -18.2458   26.1411 O   0  0  0  0  0  0  0  0  0  0  0  0
    5.6096  -11.7840   26.7328 C   0  0  0  0  0  0  0  0  0  0  0  0
    6.2741  -13.1257   26.5475 C   0  0  0  0  0  0  0  0  0  0  0  0
    7.6052  -12.8914   25.8757 C   0  0  2  0  0  0  0  0  0  0  0  0
    7.3558  -12.4650   24.4326 C   0  0  0  0  0  0  0  0  0  0  0  0
    8.4417  -14.1469   25.8304 C   0  0  2  0  0  0  0  0  0  0  0  0
    7.7996  -15.2204   25.1288 N   0  0  0  0  0  0  0  0  0  0  0  0
    8.8313  -14.4823   27.2171 C   0  0  0  0  0  0  0  0  0  0  0  0
    9.5128  -13.6768   27.8694 O   0  0  0  0  0  0  0  0  0  0  0  0
    8.4355  -15.6873   27.7769 O   0  0  0  0  0  0  0  0  0  0  0  0
  2  1  1  1
  2  3  1  0
  3  4  1  0
  4  5  2  0
  6  2  1  0
  7  6  2  0
  8  4  1  0
  9  6  1  0
 10 14  1  0
 10  9  1  0
 10 11  1  1
 12 11  1  0
 12 13  2  0
 14 22  1  0
 15 14  2  0
 16 12  1  0
 18 17  1  0
 19 18  1  0
 19 20  1  6
 21 19  1  0
 21 23  1  0
 21 22  1  1
 23 24  2  0
 23 25  1  0
M  END
$$$$
