DDI.pdb
     RDKit          3D

 25 24  0  0  1  0  0  0  0  0999 V2000
    9.7465  -13.3317   18.9768 N   0  0  0  0  0  0  0  0  0  0  0  0
    8.3828  -13.4449   19.4371 C   0  0  1  0  0  0  0  0  0  0  0  0
    7.5444  -13.8684   18.2545 C   0  0  0  0  0  0  0  0  0  0  0  0
    8.3388  -13.9326   17.0068 C   0  0  0  0  0  0  0  0  0  0  0  0
    9.5911  -13.8333   17.0432 O   0  0  0  0  0  0  0  0  0  0  0  0
    8.2169  -14.4940   20.4723 C   0  0  0  0  0  0  0  0  0  0  0  0
    7.0366  -14.6327   20.9201 O   0  0  0  0  0  0  0  0  0  0  0  0
    7.7468  -14.1020   15.7653 O   0  0  0  0  0  0  0  0  0  0  0  0
    9.2524  -15.3043   20.9592 N   0  0  0  0  0  0  0  0  0  0  0  0
    8.9549  -16.1959   22.0957 C   0  0  1  0  0  0  0  0  0  0  0  0
    9.8052  -17.4051   21.8926 C   0  0  0  0  0  0  0  0  0  0  0  0
    9.4830  -18.4795   22.8074 C   0  0  0  0  0  0  0  0  0  0  0  0
   10.0910  -19.5727   22.7898 O   0  0  0  0  0  0  0  0  0  0  0  0
    9.2320  -15.4568   23.3565 C   0  0  0  0  0  0  0  0  0  0  0  0
   10.3333  -14.9468   23.6187 O   0  0  0  0  0  0  0  0  0  0  0  0
    8.4468  -18.2747   23.7453 O   0  0  0  0  0  0  0  0  0  0  0  0
    6.0109  -11.7665   25.5245 C   0  0  0  0  0  0  0  0  0  0  0  0
    7.1395  -12.6322   25.0212 C   0  0  0  0  0  0  0  0  0  0  0  0
    7.3903  -13.7066   26.0511 C   0  0  2  0  0  0  0  0  0  0  0  0
    7.8461  -13.0440   27.3472 C   0  0  0  0  0  0  0  0  0  0  0  0
    8.4878  -14.6506   25.6241 C   0  0  2  0  0  0  0  0  0  0  0  0
    8.2196  -15.2860   24.3666 N   0  0  0  0  0  0  0  0  0  0  0  0
    8.7312  -15.5952   26.7357 C   0  0  0  0  0  0  0  0  0  0  0  0
    8.1755  -16.7042   26.7245 O   0  0  0  0  0  0  0  0  0  0  0  0
    9.5737  -15.2386   27.7775 O   0  0  0  0  0  0  0  0  0  0  0  0
  2  1  1  6
  2  3  1  0
  3  4  1  0
  4  5  2  0
  6  2  1  0
  7  6  2  0
  8  4  1  0
  9  6  1  0
 10 14  1  0
 10  9  1  0
 10 11  1  6
 12 11  1  0
 12 13  2  0
 14 22  1  0
 15 14  2  0
 16 12  1  0
 18 17  1  0
 19 18  1  0
 19 20  1  1
 21 19  1  0
 21 23  1  0
 21 22  1  6
 23 24  2  0
 23 25  1  0
M  END
$$$$
