DDI.pdb
     RDKit          3D

 25 24  0  0  1  0  0  0  0  0999 V2000
    9.6737  -13.1044   18.9312 N   0  0  0  0  0  0  0  0  0  0  0  0
    8.4128  -13.2008   19.6280 C   0  0  1  0  0  0  0  0  0  0  0  0
    7.3689  -13.5997   18.6121 C   0  0  0  0  0  0  0  0  0  0  0  0
    7.8289  -14.7145   17.7533 C   0  0  0  0  0  0  0  0  0  0  0  0
    8.5731  -14.4922   16.7652 O   0  0  0  0  0  0  0  0  0  0  0  0
    8.4173  -14.2573   20.6690 C   0  0  0  0  0  0  0  0  0  0  0  0
    7.3184  -14.4166   21.2853 O   0  0  0  0  0  0  0  0  0  0  0  0
    7.4657  -16.0295   17.9969 O   0  0  0  0  0  0  0  0  0  0  0  0
    9.5253  -15.0536   20.9917 N   0  0  0  0  0  0  0  0  0  0  0  0
    9.3901  -16.0027   22.1125 C   0  0  1  0  0  0  0  0  0  0  0  0
   10.4496  -17.0316   21.8994 C   0  0  0  0  0  0  0  0  0  0  0  0
   10.5508  -17.9704   22.9963 C   0  0  0  0  0  0  0  0  0  0  0  0
   11.6175  -18.1443   23.6265 O   0  0  0  0  0  0  0  0  0  0  0  0
    9.5189  -15.2455   23.3864 C   0  0  0  0  0  0  0  0  0  0  0  0
   10.5216  -14.5755   23.6817 O   0  0  0  0  0  0  0  0  0  0  0  0
    9.4015  -18.7081   23.3570 O   0  0  0  0  0  0  0  0  0  0  0  0
    6.5228  -11.6131   27.0040 C   0  0  0  0  0  0  0  0  0  0  0  0
    7.6515  -12.6135   26.9630 C   0  0  0  0  0  0  0  0  0  0  0  0
    7.4607  -13.4731   25.7372 C   0  0  2  0  0  0  0  0  0  0  0  0
    6.1476  -14.2366   25.8754 C   0  0  0  0  0  0  0  0  0  0  0  0
    8.5586  -14.4986   25.5922 C   0  0  2  0  0  0  0  0  0  0  0  0
    8.4676  -15.2449   24.3709 N   0  0  0  0  0  0  0  0  0  0  0  0
    8.5598  -15.3367   26.8108 C   0  0  0  0  0  0  0  0  0  0  0  0
    8.1586  -16.5086   26.7436 O   0  0  0  0  0  0  0  0  0  0  0  0
    9.0064  -14.8116   28.0136 O   0  0  0  0  0  0  0  0  0  0  0  0
  2  1  1  6
  2  3  1  0
  3  4  1  0
  4  5  2  0
  6  2  1  0
  7  6  2  0
  8  4  1  0
  9  6  1  0
 10 14  1  0
 10  9  1  0
 10 11  1  6
 12 11  1  0
 12 13  2  0
 14 22  1  0
 15 14  2  0
 16 12  1  0
 18 17  1  0
 19 18  1  0
 19 20  1  1
 21 19  1  0
 21 23  1  0
 21 22  1  6
 23 24  2  0
 23 25  1  0
M  END
$$$$
