DDI.pdb
     RDKit          3D

 25 24  0  0  1  0  0  0  0  0999 V2000
    9.8655  -17.5574   19.3253 N   0  0  0  0  0  0  0  0  0  0  0  0
    8.9952  -16.4780   19.7280 C   0  0  1  0  0  0  0  0  0  0  0  0
    7.7914  -16.5093   18.8167 C   0  0  0  0  0  0  0  0  0  0  0  0
    8.1780  -16.5042   17.3876 C   0  0  0  0  0  0  0  0  0  0  0  0
    7.2987  -16.4820   16.4898 O   0  0  0  0  0  0  0  0  0  0  0  0
    8.4850  -16.6441   21.1108 C   0  0  0  0  0  0  0  0  0  0  0  0
    7.3172  -16.1896   21.3165 O   0  0  0  0  0  0  0  0  0  0  0  0
    9.5035  -16.5234   16.9837 O   0  0  0  0  0  0  0  0  0  0  0  0
    9.1964  -17.2513   22.1554 N   0  0  0  0  0  0  0  0  0  0  0  0
    8.5753  -17.2716   23.4929 C   0  0  1  0  0  0  0  0  0  0  0  0
    8.8936  -18.6127   24.0647 C   0  0  0  0  0  0  0  0  0  0  0  0
    8.5275  -18.7306   25.4600 C   0  0  0  0  0  0  0  0  0  0  0  0
    9.3182  -19.1796   26.3193 O   0  0  0  0  0  0  0  0  0  0  0  0
    9.1134  -16.1279   24.2772 C   0  0  0  0  0  0  0  0  0  0  0  0
   10.3272  -15.8965   24.3984 O   0  0  0  0  0  0  0  0  0  0  0  0
    7.2331  -18.3224   25.8514 O   0  0  0  0  0  0  0  0  0  0  0  0
    5.6537  -12.0967   26.6468 C   0  0  0  0  0  0  0  0  0  0  0  0
    6.4516  -13.3561   26.4152 C   0  0  0  0  0  0  0  0  0  0  0  0
    7.7823  -12.9563   25.8260 C   0  0  2  0  0  0  0  0  0  0  0  0
    7.5579  -12.4697   24.3980 C   0  0  0  0  0  0  0  0  0  0  0  0
    8.7389  -14.1216   25.7537 C   0  0  2  0  0  0  0  0  0  0  0  0
    8.2411  -15.2037   24.9549 N   0  0  0  0  0  0  0  0  0  0  0  0
    9.0892  -14.5070   27.1379 C   0  0  0  0  0  0  0  0  0  0  0  0
    9.6262  -13.6741   27.8840 O   0  0  0  0  0  0  0  0  0  0  0  0
    8.8174  -15.7887   27.5912 O   0  0  0  0  0  0  0  0  0  0  0  0
  2  1  1  6
  2  3  1  0
  3  4  1  0
  4  5  2  0
  6  2  1  0
  7  6  2  0
  8  4  1  0
  9  6  1  0
 10 14  1  0
 10  9  1  0
 10 11  1  1
 12 11  1  0
 12 13  2  0
 14 22  1  0
 15 14  2  0
 16 12  1  0
 18 17  1  0
 19 18  1  0
 19 20  1  6
 21 19  1  0
 21 23  1  0
 21 22  1  1
 23 24  2  0
 23 25  1  0
M  END
$$$$
