SGI.pdb
     RDKit          3D

 19 18  0  0  1  0  0  0  0  0999 V2000
    5.5459  -19.1669   20.1878 O   0  0  0  0  0  0  0  0  0  0  0  0
    5.9245  -19.8201   21.3671 C   0  0  0  0  0  0  0  0  0  0  0  0
    5.9602  -18.8199   22.4964 C   0  0  2  0  0  0  0  0  0  0  0  0
    4.6382  -18.2847   22.6896 N   0  0  0  0  0  0  0  0  0  0  0  0
    6.9405  -17.7176   22.1873 C   0  0  0  0  0  0  0  0  0  0  0  0
    8.1416  -17.9871   22.0229 O   0  0  0  0  0  0  0  0  0  0  0  0
    6.5039  -16.3696   22.0816 N   0  0  0  0  0  0  0  0  0  0  0  0
    7.3494  -15.2723   21.7435 C   0  0  0  0  0  0  0  0  0  0  0  0
    8.0352  -14.6729   22.9049 C   0  0  0  0  0  0  0  0  0  0  0  0
    9.0330  -13.9419   22.6934 O   0  0  0  0  0  0  0  0  0  0  0  0
    5.5794  -12.2033   27.2063 C   0  0  0  0  0  0  0  0  0  0  0  0
    6.1993  -13.3484   26.4497 C   0  0  0  0  0  0  0  0  0  0  0  0
    7.5663  -13.1045   25.9332 C   0  0  2  0  0  0  0  0  0  0  0  0
    7.5193  -11.9742   24.8940 C   0  0  0  0  0  0  0  0  0  0  0  0
    8.3054  -14.2828   25.3969 C   0  0  2  0  0  0  0  0  0  0  0  0
    7.6372  -14.8710   24.2500 N   0  0  0  0  0  0  0  0  0  0  0  0
    8.6638  -15.3124   26.3937 C   0  0  0  0  0  0  0  0  0  0  0  0
    8.3022  -16.6442   26.2487 O   0  0  0  0  0  0  0  0  0  0  0  0
    9.3275  -15.0517   27.4552 O   0  0  0  0  0  0  0  0  0  0  0  0
  2  1  1  0
  3  2  1  0
  3  4  1  6
  5  6  2  0
  5  3  1  0
  7  5  1  0
  8  7  1  0
  9 10  2  0
  9  8  1  0
 11 12  1  0
 12 13  1  0
 13 14  1  6
 15 16  1  6
 15 13  1  0
 16  9  1  0
 17 15  1  0
 18 17  1  0
 19 17  2  0
M  END
$$$$
