SGI.pdb
     RDKit          3D

 19 18  0  0  1  0  0  0  0  0999 V2000
    7.2208  -14.4781   16.9225 O   0  0  0  0  0  0  0  0  0  0  0  0
    8.1504  -13.5052   17.3098 C   0  0  0  0  0  0  0  0  0  0  0  0
    8.8994  -13.9934   18.5253 C   0  0  2  0  0  0  0  0  0  0  0  0
    9.3690  -15.3315   18.2794 N   0  0  0  0  0  0  0  0  0  0  0  0
    8.0061  -13.9576   19.7388 C   0  0  0  0  0  0  0  0  0  0  0  0
    7.5931  -12.8687   20.1700 O   0  0  0  0  0  0  0  0  0  0  0  0
    7.6305  -15.1597   20.3966 N   0  0  0  0  0  0  0  0  0  0  0  0
    6.8741  -15.2159   21.6040 C   0  0  0  0  0  0  0  0  0  0  0  0
    7.6683  -14.9295   22.8145 C   0  0  0  0  0  0  0  0  0  0  0  0
    8.9196  -14.9636   22.7260 O   0  0  0  0  0  0  0  0  0  0  0  0
    5.7921  -11.3414   26.5320 C   0  0  0  0  0  0  0  0  0  0  0  0
    6.6308  -12.1841   25.6077 C   0  0  0  0  0  0  0  0  0  0  0  0
    7.1873  -13.4213   26.2032 C   0  0  2  0  0  0  0  0  0  0  0  0
    8.0994  -13.0486   27.3817 C   0  0  0  0  0  0  0  0  0  0  0  0
    7.8798  -14.3633   25.2782 C   0  0  2  0  0  0  0  0  0  0  0  0
    7.1056  -14.6169   24.0766 N   0  0  0  0  0  0  0  0  0  0  0  0
    8.3457  -15.6240   25.8910 C   0  0  0  0  0  0  0  0  0  0  0  0
    9.6458  -15.7925   26.3462 O   0  0  0  0  0  0  0  0  0  0  0  0
    7.5899  -16.6442   26.0439 O   0  0  0  0  0  0  0  0  0  0  0  0
  2  1  1  0
  3  2  1  0
  3  4  1  6
  5  6  2  0
  5  3  1  0
  7  5  1  0
  8  7  1  0
  9 10  2  0
  9  8  1  0
 11 12  1  0
 12 13  1  0
 13 14  1  1
 15 16  1  6
 15 13  1  0
 16  9  1  0
 17 15  1  0
 18 17  1  0
 19 17  2  0
M  END
$$$$
