SGI.pdb
     RDKit          3D

 19 18  0  0  1  0  0  0  0  0999 V2000
    4.4722  -18.8925   20.6785 O   0  0  0  0  0  0  0  0  0  0  0  0
    5.4470  -19.7296   21.2351 C   0  0  0  0  0  0  0  0  0  0  0  0
    6.2659  -18.9422   22.2282 C   0  0  2  0  0  0  0  0  0  0  0  0
    5.4470  -18.6355   23.3714 N   0  0  0  0  0  0  0  0  0  0  0  0
    6.7859  -17.6788   21.5918 C   0  0  0  0  0  0  0  0  0  0  0  0
    7.5722  -17.7484   20.6331 O   0  0  0  0  0  0  0  0  0  0  0  0
    6.3849  -16.4055   22.0783 N   0  0  0  0  0  0  0  0  0  0  0  0
    7.0004  -15.1722   21.7130 C   0  0  0  0  0  0  0  0  0  0  0  0
    7.7923  -14.5610   22.7982 C   0  0  0  0  0  0  0  0  0  0  0  0
    8.7567  -13.8213   22.4859 O   0  0  0  0  0  0  0  0  0  0  0  0
    6.0525  -12.2527   27.5929 C   0  0  0  0  0  0  0  0  0  0  0  0
    6.3198  -13.0588   26.3493 C   0  0  0  0  0  0  0  0  0  0  0  0
    7.6844  -12.9287   25.7873 C   0  0  2  0  0  0  0  0  0  0  0  0
    7.6912  -11.8140   24.7303 C   0  0  0  0  0  0  0  0  0  0  0  0
    8.3139  -14.1685   25.2496 C   0  0  2  0  0  0  0  0  0  0  0  0
    7.5322  -14.7569   24.1770 N   0  0  0  0  0  0  0  0  0  0  0  0
    8.6831  -15.1804   26.2603 C   0  0  0  0  0  0  0  0  0  0  0  0
    9.6033  -14.9235   27.2668 O   0  0  0  0  0  0  0  0  0  0  0  0
    8.1854  -16.3583   26.2796 O   0  0  0  0  0  0  0  0  0  0  0  0
  2  1  1  0
  3  2  1  0
  3  4  1  1
  5  6  2  0
  5  3  1  0
  7  5  1  0
  8  7  1  0
  9 10  2  0
  9  8  1  0
 11 12  1  0
 12 13  1  0
 13 14  1  6
 15 16  1  6
 15 13  1  0
 16  9  1  0
 17 15  1  0
 18 17  1  0
 19 17  2  0
M  END
$$$$
