SGI.pdb
     RDKit          3D

 19 18  0  0  1  0  0  0  0  0999 V2000
    4.8109  -19.3366   20.3193 O   0  0  0  0  0  0  0  0  0  0  0  0
    5.8385  -20.0338   20.9663 C   0  0  0  0  0  0  0  0  0  0  0  0
    6.2479  -19.2741   22.2040 C   0  0  2  0  0  0  0  0  0  0  0  0
    5.0855  -19.0527   23.0233 N   0  0  0  0  0  0  0  0  0  0  0  0
    6.8891  -17.9638   21.8247 C   0  0  0  0  0  0  0  0  0  0  0  0
    7.9944  -17.9578   21.2588 O   0  0  0  0  0  0  0  0  0  0  0  0
    6.2405  -16.7319   22.1087 N   0  0  0  0  0  0  0  0  0  0  0  0
    6.8104  -15.4468   21.8703 C   0  0  0  0  0  0  0  0  0  0  0  0
    7.6687  -14.9661   22.9705 C   0  0  0  0  0  0  0  0  0  0  0  0
    8.8627  -14.6800   22.7110 O   0  0  0  0  0  0  0  0  0  0  0  0
    5.6742  -11.4017   26.3837 C   0  0  0  0  0  0  0  0  0  0  0  0
    6.5568  -12.2589   25.5152 C   0  0  0  0  0  0  0  0  0  0  0  0
    7.3312  -13.3019   26.2274 C   0  0  2  0  0  0  0  0  0  0  0  0
    8.2906  -12.6287   27.2205 C   0  0  0  0  0  0  0  0  0  0  0  0
    8.0562  -14.2967   25.3865 C   0  0  2  0  0  0  0  0  0  0  0  0
    7.2289  -14.8059   24.3076 N   0  0  0  0  0  0  0  0  0  0  0  0
    8.7072  -15.3966   26.1269 C   0  0  0  0  0  0  0  0  0  0  0  0
   10.0029  -15.2992   26.6141 O   0  0  0  0  0  0  0  0  0  0  0  0
    8.1278  -16.5105   26.3695 O   0  0  0  0  0  0  0  0  0  0  0  0
  2  1  1  0
  3  2  1  0
  3  4  1  1
  5  6  2  0
  5  3  1  0
  7  5  1  0
  8  7  1  0
  9 10  2  0
  9  8  1  0
 11 12  1  0
 12 13  1  0
 13 14  1  6
 15 16  1  6
 15 13  1  0
 16  9  1  0
 17 15  1  0
 18 17  1  0
 19 17  2  0
M  END
$$$$
