SGI.pdb
     RDKit          3D

 19 18  0  0  1  0  0  0  0  0999 V2000
    9.6215  -14.6308   17.6343 O   0  0  0  0  0  0  0  0  0  0  0  0
    8.4081  -14.0773   17.2079 C   0  0  0  0  0  0  0  0  0  0  0  0
    7.7565  -13.3631   18.3665 C   0  0  2  0  0  0  0  0  0  0  0  0
    8.7096  -12.4594   18.9550 N   0  0  0  0  0  0  0  0  0  0  0  0
    7.2678  -14.3595   19.3863 C   0  0  0  0  0  0  0  0  0  0  0  0
    6.3758  -15.1681   19.0820 O   0  0  0  0  0  0  0  0  0  0  0  0
    7.8183  -14.3835   20.6960 N   0  0  0  0  0  0  0  0  0  0  0  0
    7.4192  -15.2896   21.7220 C   0  0  0  0  0  0  0  0  0  0  0  0
    8.0563  -15.0251   23.0268 C   0  0  0  0  0  0  0  0  0  0  0  0
    9.3087  -15.0652   23.0955 O   0  0  0  0  0  0  0  0  0  0  0  0
    5.4422  -11.5582   26.3897 C   0  0  0  0  0  0  0  0  0  0  0  0
    6.4268  -12.3530   25.5731 C   0  0  0  0  0  0  0  0  0  0  0  0
    7.0955  -13.4652   26.2877 C   0  0  2  0  0  0  0  0  0  0  0  0
    7.8735  -12.9003   27.4858 C   0  0  0  0  0  0  0  0  0  0  0  0
    7.9614  -14.3660   25.4746 C   0  0  2  0  0  0  0  0  0  0  0  0
    7.3409  -14.7274   24.2128 N   0  0  0  0  0  0  0  0  0  0  0  0
    8.4731  -15.5585   26.1804 C   0  0  0  0  0  0  0  0  0  0  0  0
    7.9909  -16.8349   25.9278 O   0  0  0  0  0  0  0  0  0  0  0  0
    9.3902  -15.5004   27.0698 O   0  0  0  0  0  0  0  0  0  0  0  0
  2  1  1  0
  3  2  1  0
  3  4  1  1
  5  6  2  0
  5  3  1  0
  7  5  1  0
  8  7  1  0
  9 10  2  0
  9  8  1  0
 11 12  1  0
 12 13  1  0
 13 14  1  1
 15 16  1  6
 15 13  1  0
 16  9  1  0
 17 15  1  0
 18 17  1  0
 19 17  2  0
M  END
$$$$
