SGI.pdb
     RDKit          3D

 19 18  0  0  1  0  0  0  0  0999 V2000
    7.0088  -19.8515   18.0472 O   0  0  0  0  0  0  0  0  0  0  0  0
    6.4055  -18.9437   18.9262 C   0  0  0  0  0  0  0  0  0  0  0  0
    7.4682  -18.3154   19.7938 C   0  0  2  0  0  0  0  0  0  0  0  0
    8.3005  -19.3544   20.3408 N   0  0  0  0  0  0  0  0  0  0  0  0
    6.8325  -17.5073   20.8959 C   0  0  0  0  0  0  0  0  0  0  0  0
    6.1544  -16.5055   20.6152 O   0  0  0  0  0  0  0  0  0  0  0  0
    7.0013  -17.8805   22.2565 N   0  0  0  0  0  0  0  0  0  0  0  0
    6.4508  -17.1682   23.3623 C   0  0  0  0  0  0  0  0  0  0  0  0
    7.4326  -16.3254   24.0721 C   0  0  0  0  0  0  0  0  0  0  0  0
    8.6310  -16.3695   23.7023 O   0  0  0  0  0  0  0  0  0  0  0  0
    5.5070  -11.8687   26.8179 C   0  0  0  0  0  0  0  0  0  0  0  0
    6.3626  -12.7327   25.9294 C   0  0  0  0  0  0  0  0  0  0  0  0
    7.3896  -13.5419   26.6261 C   0  0  2  0  0  0  0  0  0  0  0  0
    8.4269  -12.6034   27.2610 C   0  0  0  0  0  0  0  0  0  0  0  0
    8.0615  -14.6092   25.8313 C   0  0  2  0  0  0  0  0  0  0  0  0
    7.1073  -15.4652   25.1498 N   0  0  0  0  0  0  0  0  0  0  0  0
    9.0672  -15.4055   26.5637 C   0  0  0  0  0  0  0  0  0  0  0  0
   10.4274  -15.1441   26.4781 O   0  0  0  0  0  0  0  0  0  0  0  0
    8.7589  -16.3870   27.3233 O   0  0  0  0  0  0  0  0  0  0  0  0
  2  1  1  0
  3  2  1  0
  3  4  1  1
  5  6  2  0
  5  3  1  0
  7  5  1  0
  8  7  1  0
  9 10  2  0
  9  8  1  0
 11 12  1  0
 12 13  1  0
 13 14  1  6
 15 16  1  1
 15 13  1  0
 16  9  1  0
 17 15  1  0
 18 17  1  0
 19 17  2  0
M  END
$$$$
