SGI.pdb
     RDKit          3D

 19 18  0  0  1  0  0  0  0  0999 V2000
    6.6911  -19.1997   19.7935 O   0  0  0  0  0  0  0  0  0  0  0  0
    7.9139  -19.7650   19.4115 C   0  0  0  0  0  0  0  0  0  0  0  0
    8.9887  -19.3106   20.3682 C   0  0  2  0  0  0  0  0  0  0  0  0
    8.6998  -19.8315   21.6784 N   0  0  0  0  0  0  0  0  0  0  0  0
    9.0597  -17.8053   20.3977 C   0  0  0  0  0  0  0  0  0  0  0  0
    9.4923  -17.1878   19.4109 O   0  0  0  0  0  0  0  0  0  0  0  0
    8.6357  -17.0833   21.5456 N   0  0  0  0  0  0  0  0  0  0  0  0
    8.6504  -15.6617   21.6550 C   0  0  0  0  0  0  0  0  0  0  0  0
    9.0339  -15.1745   22.9943 C   0  0  0  0  0  0  0  0  0  0  0  0
   10.2348  -14.8701   23.1944 O   0  0  0  0  0  0  0  0  0  0  0  0
    6.5984  -11.2714   26.9327 C   0  0  0  0  0  0  0  0  0  0  0  0
    7.6283  -12.3495   26.7206 C   0  0  0  0  0  0  0  0  0  0  0  0
    7.3828  -13.2466   25.5674 C   0  0  2  0  0  0  0  0  0  0  0  0
    5.9941  -13.8873   25.7126 C   0  0  0  0  0  0  0  0  0  0  0  0
    8.4154  -14.2848   25.2881 C   0  0  2  0  0  0  0  0  0  0  0  0
    8.1287  -15.0276   24.0742 N   0  0  0  0  0  0  0  0  0  0  0  0
    8.7198  -15.1933   26.4124 C   0  0  0  0  0  0  0  0  0  0  0  0
    9.4931  -14.8010   27.4958 O   0  0  0  0  0  0  0  0  0  0  0  0
    8.2963  -16.3987   26.4671 O   0  0  0  0  0  0  0  0  0  0  0  0
  2  1  1  0
  3  2  1  0
  3  4  1  1
  5  6  2  0
  5  3  1  0
  7  5  1  0
  8  7  1  0
  9 10  2  0
  9  8  1  0
 11 12  1  0
 12 13  1  0
 13 14  1  1
 15 16  1  6
 15 13  1  0
 16  9  1  0
 17 15  1  0
 18 17  1  0
 19 17  2  0
M  END
$$$$
