KMY.pdb
     RDKit          3D

 30 30  0  0  1  0  0  0  0  0999 V2000
    7.1858  -18.1517   21.0155 N   0  0  0  0  0  0  0  0  0  0  0  0
    8.3209  -17.5980   20.3997 C   0  0  1  0  0  0  0  0  0  0  0  0
    8.3107  -17.4109   18.9221 C   0  0  0  0  0  0  0  0  0  0  0  0
    7.8229  -18.5184   18.0818 C   0  0  0  0  0  0  0  0  0  0  0  0
    6.3776  -18.5761   17.7419 C   0  0  0  0  0  0  0  0  0  0  0  0
    6.0176  -19.6670   16.7754 C   0  0  0  0  0  0  0  0  0  0  0  0
    4.6314  -19.8303   16.5235 N   0  0  0  0  0  0  0  0  0  0  0  0
    8.7270  -16.3206   21.0646 C   0  0  0  0  0  0  0  0  0  0  0  0
    9.7115  -15.6617   20.6073 O   0  0  0  0  0  0  0  0  0  0  0  0
    5.2555  -12.4125   25.8399 C   0  0  0  0  0  0  0  0  0  0  0  0
    7.0629  -12.3826   25.7706 S   0  0  0  0  0  0  0  0  0  0  0  0
    7.5611  -12.5442   24.0147 C   0  0  0  0  0  0  0  0  0  0  0  0
    7.2947  -13.9276   23.5116 C   0  0  0  0  0  0  0  0  0  0  0  0
    8.4452  -14.4648   22.7392 C   0  0  2  0  0  0  0  0  0  0  0  0
    8.0867  -15.7838   22.1835 N   0  0  0  0  0  0  0  0  0  0  0  0
    9.6099  -14.7076   23.6084 C   0  0  0  0  0  0  0  0  0  0  0  0
   10.3539  -13.7411   24.0108 O   0  0  0  0  0  0  0  0  0  0  0  0
   11.9877  -16.6629   31.4038 O   0  0  0  0  0  0  0  0  0  0  0  0
   11.4293  -16.4282   30.1622 C   0  0  0  0  0  0  0  0  0  0  0  0
   12.1296  -15.6174   29.2909 C   0  0  0  0  0  0  0  0  0  0  0  0
   11.5967  -15.3749   28.0653 C   0  0  0  0  0  0  0  0  0  0  0  0
   10.3780  -15.9330   27.7077 C   0  0  0  0  0  0  0  0  0  0  0  0
    9.8442  -15.6277   26.3845 C   0  0  0  0  0  0  0  0  0  0  0  0
   10.7741  -16.1305   25.2709 C   0  0  2  0  0  0  0  0  0  0  0  0
    9.9781  -15.9969   24.0582 N   0  0  0  0  0  0  0  0  0  0  0  0
   11.1667  -17.5133   25.5552 C   0  0  0  0  0  0  0  0  0  0  0  0
   10.4128  -18.4869   25.3874 O   0  0  0  0  0  0  0  0  0  0  0  0
    9.6851  -16.7379   28.5762 C   0  0  0  0  0  0  0  0  0  0  0  0
   10.2270  -16.9815   29.8157 C   0  0  0  0  0  0  0  0  0  0  0  0
   12.4396  -17.7722   26.0364 O   0  0  0  0  0  0  0  0  0  0  0  0
  2  3  1  0
  2  1  1  1
  4  3  1  0
  4  5  1  0
  5  6  1  0
  6  7  1  0
  8  2  1  0
  9  8  2  0
 10 11  1  0
 12 13  1  0
 12 11  1  0
 14 13  1  1
 14 15  1  0
 15  8  1  0
 16 17  2  0
 16 14  1  0
 19 18  1  0
 20 19  2  0
 21 20  1  0
 22 21  2  0
 22 28  1  0
 24 23  1  1
 23 22  1  0
 24 25  1  0
 25 16  1  0
 26 24  1  0
 27 26  2  0
 28 29  2  0
 29 19  1  0
 30 26  1  0
M  END
$$$$
