KMY.pdb
     RDKit          3D

 30 30  0  0  1  0  0  0  0  0999 V2000
    7.1944  -17.4893   20.8373 N   0  0  0  0  0  0  0  0  0  0  0  0
    8.3647  -16.8358   20.4158 C   0  0  1  0  0  0  0  0  0  0  0  0
    8.3952  -16.2363   19.0527 C   0  0  0  0  0  0  0  0  0  0  0  0
    7.7050  -16.9469   17.9622 C   0  0  0  0  0  0  0  0  0  0  0  0
    8.1595  -16.7278   16.5646 C   0  0  0  0  0  0  0  0  0  0  0  0
    7.2630  -17.3360   15.5253 C   0  0  0  0  0  0  0  0  0  0  0  0
    7.6791  -17.1644   14.1803 N   0  0  0  0  0  0  0  0  0  0  0  0
    8.8077  -15.8199   21.4210 C   0  0  0  0  0  0  0  0  0  0  0  0
    9.8932  -15.1874   21.2359 O   0  0  0  0  0  0  0  0  0  0  0  0
    5.2798  -11.7491   25.6553 C   0  0  0  0  0  0  0  0  0  0  0  0
    6.4837  -12.7130   26.6009 S   0  0  0  0  0  0  0  0  0  0  0  0
    7.8749  -13.1276   25.4827 C   0  0  0  0  0  0  0  0  0  0  0  0
    7.4386  -14.0928   24.4265 C   0  0  0  0  0  0  0  0  0  0  0  0
    8.5652  -14.4895   23.5421 C   0  0  2  0  0  0  0  0  0  0  0  0
    8.0971  -15.5070   22.5817 N   0  0  0  0  0  0  0  0  0  0  0  0
    9.6459  -15.1374   24.3060 C   0  0  0  0  0  0  0  0  0  0  0  0
   10.2535  -14.5206   25.2546 O   0  0  0  0  0  0  0  0  0  0  0  0
   10.8321  -14.4889   30.7237 O   0  0  0  0  0  0  0  0  0  0  0  0
   10.6494  -15.2722   29.6006 C   0  0  0  0  0  0  0  0  0  0  0  0
    9.9300  -14.7289   28.5544 C   0  0  0  0  0  0  0  0  0  0  0  0
    9.7397  -15.4838   27.4414 C   0  0  0  0  0  0  0  0  0  0  0  0
   10.2597  -16.7679   27.3676 C   0  0  0  0  0  0  0  0  0  0  0  0
   10.0128  -17.5405   26.1548 C   0  0  0  0  0  0  0  0  0  0  0  0
   10.9533  -17.1198   25.0163 C   0  0  2  0  0  0  0  0  0  0  0  0
   10.0759  -16.4616   24.0576 N   0  0  0  0  0  0  0  0  0  0  0  0
   11.6166  -18.3076   24.4720 C   0  0  0  0  0  0  0  0  0  0  0  0
   11.3416  -18.7973   23.3633 O   0  0  0  0  0  0  0  0  0  0  0  0
   10.9737  -17.3041   28.4092 C   0  0  0  0  0  0  0  0  0  0  0  0
   11.1647  -16.5378   29.5341 C   0  0  0  0  0  0  0  0  0  0  0  0
   12.6047  -18.9333   25.2143 O   0  0  0  0  0  0  0  0  0  0  0  0
  2  3  1  0
  2  1  1  1
  4  3  1  0
  4  5  1  0
  5  6  1  0
  6  7  1  0
  8  2  1  0
  9  8  2  0
 10 11  1  0
 12 13  1  0
 12 11  1  0
 14 13  1  1
 14 15  1  0
 15  8  1  0
 16 17  2  0
 16 14  1  0
 19 18  1  0
 20 19  2  0
 21 20  1  0
 22 21  2  0
 22 28  1  0
 24 23  1  1
 23 22  1  0
 24 25  1  0
 25 16  1  0
 26 24  1  0
 27 26  2  0
 28 29  2  0
 29 19  1  0
 30 26  1  0
M  END
$$$$
