KMY.pdb
     RDKit          3D

 30 30  0  0  1  0  0  0  0  0999 V2000
    7.6172  -18.4503   21.3138 N   0  0  0  0  0  0  0  0  0  0  0  0
    8.6349  -17.7351   20.6603 C   0  0  1  0  0  0  0  0  0  0  0  0
    8.5337  -17.5355   19.1878 C   0  0  0  0  0  0  0  0  0  0  0  0
    7.2107  -17.6731   18.5542 C   0  0  0  0  0  0  0  0  0  0  0  0
    7.0585  -18.6099   17.4109 C   0  0  0  0  0  0  0  0  0  0  0  0
    5.7242  -18.5323   16.7274 C   0  0  0  0  0  0  0  0  0  0  0  0
    5.5420  -19.4189   15.6355 N   0  0  0  0  0  0  0  0  0  0  0  0
    8.8859  -16.4204   21.3290 C   0  0  0  0  0  0  0  0  0  0  0  0
    9.7664  -15.6359   20.8579 O   0  0  0  0  0  0  0  0  0  0  0  0
    5.8815  -10.8267   25.3755 C   0  0  0  0  0  0  0  0  0  0  0  0
    6.2985  -12.5366   25.7935 S   0  0  0  0  0  0  0  0  0  0  0  0
    7.7231  -13.0377   24.7556 C   0  0  0  0  0  0  0  0  0  0  0  0
    7.3960  -14.2605   23.9584 C   0  0  0  0  0  0  0  0  0  0  0  0
    8.5593  -14.7252   23.1585 C   0  0  2  0  0  0  0  0  0  0  0  0
    8.2059  -15.9792   22.4660 N   0  0  0  0  0  0  0  0  0  0  0  0
    9.7050  -15.0620   24.0217 C   0  0  0  0  0  0  0  0  0  0  0  0
   10.2742  -14.1712   24.7511 O   0  0  0  0  0  0  0  0  0  0  0  0
    9.6324  -14.7078   30.7689 O   0  0  0  0  0  0  0  0  0  0  0  0
    9.9084  -15.4377   29.6290 C   0  0  0  0  0  0  0  0  0  0  0  0
    9.6141  -14.8552   28.4119 C   0  0  0  0  0  0  0  0  0  0  0  0
    9.8784  -15.5574   27.2797 C   0  0  0  0  0  0  0  0  0  0  0  0
   10.4304  -16.8279   27.3553 C   0  0  0  0  0  0  0  0  0  0  0  0
   10.6801  -17.5439   26.1087 C   0  0  0  0  0  0  0  0  0  0  0  0
   11.3220  -16.6322   25.0530 C   0  0  2  0  0  0  0  0  0  0  0  0
   10.2427  -16.3670   24.1112 N   0  0  0  0  0  0  0  0  0  0  0  0
   12.4625  -17.3230   24.4454 C   0  0  0  0  0  0  0  0  0  0  0  0
   12.4570  -17.7606   23.2822 O   0  0  0  0  0  0  0  0  0  0  0  0
   10.7212  -17.4033   28.5663 C   0  0  0  0  0  0  0  0  0  0  0  0
   10.4528  -16.6902   29.7103 C   0  0  0  0  0  0  0  0  0  0  0  0
   13.6173  -17.5090   25.1876 O   0  0  0  0  0  0  0  0  0  0  0  0
  2  3  1  0
  2  1  1  1
  4  3  1  0
  4  5  1  0
  5  6  1  0
  6  7  1  0
  8  2  1  0
  9  8  2  0
 10 11  1  0
 12 13  1  0
 12 11  1  0
 14 13  1  1
 14 15  1  0
 15  8  1  0
 16 17  2  0
 16 14  1  0
 19 18  1  0
 20 19  2  0
 21 20  1  0
 22 21  2  0
 22 28  1  0
 24 23  1  1
 23 22  1  0
 24 25  1  0
 25 16  1  0
 26 24  1  0
 27 26  2  0
 28 29  2  0
 29 19  1  0
 30 26  1  0
M  END
$$$$
