KMY.pdb
     RDKit          3D

 30 30  0  0  1  0  0  0  0  0999 V2000
    8.2303  -16.8368   18.6344 N   0  0  0  0  0  0  0  0  0  0  0  0
    8.0100  -17.1266   19.9916 C   0  0  1  0  0  0  0  0  0  0  0  0
    8.2258  -18.5214   20.4671 C   0  0  0  0  0  0  0  0  0  0  0  0
    7.9789  -19.6263   19.5243 C   0  0  0  0  0  0  0  0  0  0  0  0
    8.2155  -21.0212   19.9783 C   0  0  0  0  0  0  0  0  0  0  0  0
    7.9910  -22.0584   18.9165 C   0  0  0  0  0  0  0  0  0  0  0  0
    6.6511  -22.2039   18.4748 N   0  0  0  0  0  0  0  0  0  0  0  0
    8.7534  -16.1745   20.8745 C   0  0  0  0  0  0  0  0  0  0  0  0
    9.9046  -15.7664   20.5269 O   0  0  0  0  0  0  0  0  0  0  0  0
    7.1039  -12.1696   26.3682 C   0  0  0  0  0  0  0  0  0  0  0  0
    6.0598  -13.1381   25.2526 S   0  0  0  0  0  0  0  0  0  0  0  0
    7.0511  -13.5450   23.7663 C   0  0  0  0  0  0  0  0  0  0  0  0
    8.2279  -14.3947   24.1283 C   0  0  0  0  0  0  0  0  0  0  0  0
    9.0346  -14.7578   22.9341 C   0  0  2  0  0  0  0  0  0  0  0  0
    8.2626  -15.6880   22.0880 N   0  0  0  0  0  0  0  0  0  0  0  0
   10.2552  -15.4913   23.3126 C   0  0  0  0  0  0  0  0  0  0  0  0
   11.4195  -15.0649   22.9778 O   0  0  0  0  0  0  0  0  0  0  0  0
   11.5620  -15.1104   31.4598 O   0  0  0  0  0  0  0  0  0  0  0  0
   11.2684  -15.2130   30.1138 C   0  0  0  0  0  0  0  0  0  0  0  0
   10.2012  -14.4780   29.6360 C   0  0  0  0  0  0  0  0  0  0  0  0
    9.8970  -14.5658   28.3152 C   0  0  0  0  0  0  0  0  0  0  0  0
   10.6463  -15.3769   27.4753 C   0  0  0  0  0  0  0  0  0  0  0  0
   10.2668  -15.4458   26.0682 C   0  0  0  0  0  0  0  0  0  0  0  0
   10.8202  -16.7103   25.3956 C   0  0  2  0  0  0  0  0  0  0  0  0
   10.2304  -16.6895   24.0636 N   0  0  0  0  0  0  0  0  0  0  0  0
   10.4331  -17.8855   26.1806 C   0  0  0  0  0  0  0  0  0  0  0  0
    9.2857  -18.3630   26.1774 O   0  0  0  0  0  0  0  0  0  0  0  0
   11.7057  -16.1057   27.9538 C   0  0  0  0  0  0  0  0  0  0  0  0
   12.0112  -16.0147   29.2909 C   0  0  0  0  0  0  0  0  0  0  0  0
   11.3791  -18.5130   26.9744 O   0  0  0  0  0  0  0  0  0  0  0  0
  2  3  1  0
  2  1  1  6
  4  3  1  0
  4  5  1  0
  5  6  1  0
  6  7  1  0
  8  2  1  0
  9  8  2  0
 10 11  1  0
 12 13  1  0
 12 11  1  0
 14 13  1  1
 14 15  1  0
 15  8  1  0
 16 17  2  0
 16 14  1  0
 19 18  1  0
 20 19  2  0
 21 20  1  0
 22 21  2  0
 22 28  1  0
 24 23  1  1
 23 22  1  0
 24 25  1  0
 25 16  1  0
 26 24  1  0
 27 26  2  0
 28 29  2  0
 29 19  1  0
 30 26  1  0
M  END
$$$$
