KMY.pdb
     RDKit          3D

 30 30  0  0  1  0  0  0  0  0999 V2000
    7.3127  -16.2999   19.3082 N   0  0  0  0  0  0  0  0  0  0  0  0
    8.4020  -15.4150   19.3773 C   0  0  1  0  0  0  0  0  0  0  0  0
    8.3052  -14.1082   18.6694 C   0  0  0  0  0  0  0  0  0  0  0  0
    8.0209  -14.1171   17.2238 C   0  0  0  0  0  0  0  0  0  0  0  0
    8.0443  -12.8300   16.4817 C   0  0  0  0  0  0  0  0  0  0  0  0
    7.6637  -12.9491   15.0344 C   0  0  0  0  0  0  0  0  0  0  0  0
    7.5925  -11.7279   14.3166 N   0  0  0  0  0  0  0  0  0  0  0  0
    8.8241  -15.1880   20.7947 C   0  0  0  0  0  0  0  0  0  0  0  0
    9.7972  -14.4104   21.0416 O   0  0  0  0  0  0  0  0  0  0  0  0
    6.1290  -11.7384   25.9233 C   0  0  0  0  0  0  0  0  0  0  0  0
    6.7213  -13.4474   25.9569 S   0  0  0  0  0  0  0  0  0  0  0  0
    7.0808  -13.9519   24.2324 C   0  0  0  0  0  0  0  0  0  0  0  0
    7.5179  -15.3814   24.1769 C   0  0  0  0  0  0  0  0  0  0  0  0
    8.6867  -15.5665   23.2777 C   0  0  2  0  0  0  0  0  0  0  0  0
    8.2114  -15.7854   21.8982 N   0  0  0  0  0  0  0  0  0  0  0  0
    9.4480  -16.7784   23.6284 C   0  0  0  0  0  0  0  0  0  0  0  0
    8.8961  -17.9381   23.6181 O   0  0  0  0  0  0  0  0  0  0  0  0
   11.3336  -15.0217   31.4614 O   0  0  0  0  0  0  0  0  0  0  0  0
   11.1277  -15.1908   30.1059 C   0  0  0  0  0  0  0  0  0  0  0  0
   10.9702  -14.0539   29.3380 C   0  0  0  0  0  0  0  0  0  0  0  0
   10.7667  -14.1998   28.0030 C   0  0  0  0  0  0  0  0  0  0  0  0
   10.7199  -15.4646   27.4349 C   0  0  0  0  0  0  0  0  0  0  0  0
   10.4837  -15.5644   25.9986 C   0  0  0  0  0  0  0  0  0  0  0  0
   11.1871  -16.7883   25.3945 C   0  0  2  0  0  0  0  0  0  0  0  0
   10.8160  -16.7504   23.9863 N   0  0  0  0  0  0  0  0  0  0  0  0
   10.7278  -17.9987   26.0808 C   0  0  0  0  0  0  0  0  0  0  0  0
    9.5284  -18.2694   26.2618 O   0  0  0  0  0  0  0  0  0  0  0  0
   10.8766  -16.5918   28.2012 C   0  0  0  0  0  0  0  0  0  0  0  0
   11.0825  -16.4409   29.5518 C   0  0  0  0  0  0  0  0  0  0  0  0
   11.6615  -18.9024   26.5609 O   0  0  0  0  0  0  0  0  0  0  0  0
  2  3  1  0
  2  1  1  1
  4  3  1  0
  4  5  1  0
  5  6  1  0
  6  7  1  0
  8  2  1  0
  9  8  2  0
 10 11  1  0
 12 13  1  0
 12 11  1  0
 14 13  1  1
 14 15  1  0
 15  8  1  0
 16 17  2  0
 16 14  1  0
 19 18  1  0
 20 19  2  0
 21 20  1  0
 22 21  2  0
 22 28  1  0
 24 23  1  1
 23 22  1  0
 24 25  1  0
 25 16  1  0
 26 24  1  0
 27 26  2  0
 28 29  2  0
 29 19  1  0
 30 26  1  0
M  END
$$$$
