KMY.pdb
     RDKit          3D

 30 30  0  0  1  0  0  0  0  0999 V2000
    7.3333  -17.9538   20.7070 N   0  0  0  0  0  0  0  0  0  0  0  0
    8.5038  -17.2965   20.2920 C   0  0  1  0  0  0  0  0  0  0  0  0
    8.5914  -16.8164   18.8848 C   0  0  0  0  0  0  0  0  0  0  0  0
    8.0247  -17.6645   17.8216 C   0  0  0  0  0  0  0  0  0  0  0  0
    8.9490  -18.3248   16.8638 C   0  0  0  0  0  0  0  0  0  0  0  0
    8.2629  -19.1878   15.8449 C   0  0  0  0  0  0  0  0  0  0  0  0
    9.0935  -19.6989   14.8150 N   0  0  0  0  0  0  0  0  0  0  0  0
    8.8571  -16.1819   21.2256 C   0  0  0  0  0  0  0  0  0  0  0  0
    9.9071  -15.4989   21.0169 O   0  0  0  0  0  0  0  0  0  0  0  0
    6.6876  -11.4904   27.1909 C   0  0  0  0  0  0  0  0  0  0  0  0
    6.1721  -12.7539   26.0033 S   0  0  0  0  0  0  0  0  0  0  0  0
    7.6253  -13.1837   24.9732 C   0  0  0  0  0  0  0  0  0  0  0  0
    7.2871  -14.2726   24.0049 C   0  0  0  0  0  0  0  0  0  0  0  0
    8.4779  -14.7136   23.2326 C   0  0  2  0  0  0  0  0  0  0  0  0
    8.0973  -15.8269   22.3422 N   0  0  0  0  0  0  0  0  0  0  0  0
    9.5219  -15.2579   24.1186 C   0  0  0  0  0  0  0  0  0  0  0  0
    9.9958  -14.5673   25.0923 O   0  0  0  0  0  0  0  0  0  0  0  0
   10.9987  -14.0281   30.5164 O   0  0  0  0  0  0  0  0  0  0  0  0
   10.7335  -14.8687   29.4526 C   0  0  0  0  0  0  0  0  0  0  0  0
    9.9079  -14.3918   28.4535 C   0  0  0  0  0  0  0  0  0  0  0  0
    9.6354  -15.2036   27.3992 C   0  0  0  0  0  0  0  0  0  0  0  0
   10.1782  -16.4788   27.3373 C   0  0  0  0  0  0  0  0  0  0  0  0
    9.8406  -17.3143   26.1899 C   0  0  0  0  0  0  0  0  0  0  0  0
   10.8485  -17.1354   25.0453 C   0  0  2  0  0  0  0  0  0  0  0  0
   10.0591  -16.5572   23.9661 N   0  0  0  0  0  0  0  0  0  0  0  0
   11.4293  -18.4365   24.7035 C   0  0  0  0  0  0  0  0  0  0  0  0
   12.1973  -19.0616   25.4545 O   0  0  0  0  0  0  0  0  0  0  0  0
   10.9979  -16.9490   28.3320 C   0  0  0  0  0  0  0  0  0  0  0  0
   11.2719  -16.1252   29.3976 C   0  0  0  0  0  0  0  0  0  0  0  0
   11.1201  -19.0188   23.4853 O   0  0  0  0  0  0  0  0  0  0  0  0
  2  3  1  0
  2  1  1  1
  4  3  1  0
  4  5  1  0
  5  6  1  0
  6  7  1  0
  8  2  1  0
  9  8  2  0
 10 11  1  0
 12 13  1  0
 12 11  1  0
 14 13  1  1
 14 15  1  0
 15  8  1  0
 16 17  2  0
 16 14  1  0
 19 18  1  0
 20 19  2  0
 21 20  1  0
 22 21  2  0
 22 28  1  0
 24 23  1  1
 23 22  1  0
 24 25  1  0
 25 16  1  0
 26 24  1  0
 27 26  2  0
 28 29  2  0
 29 19  1  0
 30 26  1  0
M  END
$$$$
