WPA.pdb
     RDKit          3D

 27 29  0  0  1  0  0  0  0  0999 V2000
    7.2619  -16.5683   23.9442 N   0  0  0  0  0  0  0  0  0  0  0  0
    6.9565  -15.5396   23.0143 C   0  0  1  0  0  0  0  0  0  0  0  0
    7.2328  -14.1474   23.5194 C   0  0  0  0  0  0  0  0  0  0  0  0
    7.6998  -14.1204   24.9172 C   0  0  0  0  0  0  0  0  0  0  0  0
    8.5315  -15.0033   25.5608 C   0  0  0  0  0  0  0  0  0  0  0  0
    8.6813  -14.5850   26.8203 N   0  0  0  0  0  0  0  0  0  0  0  0
    7.9850  -13.4730   27.0203 C   0  0  0  0  0  0  0  0  0  0  0  0
    7.7894  -12.6369   28.1155 C   0  0  0  0  0  0  0  0  0  0  0  0
    6.9888  -11.5199   28.0268 C   0  0  0  0  0  0  0  0  0  0  0  0
    6.3587  -11.2006   26.8469 C   0  0  0  0  0  0  0  0  0  0  0  0
    6.5511  -12.0251   25.7652 C   0  0  0  0  0  0  0  0  0  0  0  0
    7.3643  -13.1639   25.8469 C   0  0  0  0  0  0  0  0  0  0  0  0
    7.5821  -15.7947   21.7000 C   0  0  0  0  0  0  0  0  0  0  0  0
    7.7070  -17.0156   21.3184 O   0  0  0  0  0  0  0  0  0  0  0  0
    8.0658  -14.8010   20.8061 N   0  0  0  0  0  0  0  0  0  0  0  0
    8.1260  -13.3860   21.0788 C   0  0  0  0  0  0  0  0  0  0  0  0
    8.4971  -12.7227   19.7481 C   0  0  0  0  0  0  0  0  0  0  0  0
    8.1775  -13.8226   18.7187 C   0  0  0  0  0  0  0  0  0  0  0  0
    8.5777  -15.0416   19.5052 C   0  0  1  0  0  0  0  0  0  0  0  0
   10.0634  -15.1165   19.4498 C   0  0  0  0  0  0  0  0  0  0  0  0
   10.7442  -14.3282   20.1499 O   0  0  0  0  0  0  0  0  0  0  0  0
   12.3609  -17.9075   18.5611 C   0  0  0  0  0  0  0  0  0  0  0  0
   12.1163  -16.4591   18.8318 C   0  0  2  0  0  0  0  0  0  0  0  0
   10.7410  -16.0533   18.6282 N   0  0  0  0  0  0  0  0  0  0  0  0
   12.9610  -15.6254   17.9296 C   0  0  0  0  0  0  0  0  0  0  0  0
   14.2147  -15.7077   17.9332 O   0  0  0  0  0  0  0  0  0  0  0  0
   12.3844  -14.7111   17.0363 O   0  0  0  0  0  0  0  0  0  0  0  0
  2  1  1  1
  2 13  1  0
  3  2  1  0
  4  3  1  0
  4  5  2  0
  6  5  1  0
  7  6  1  0
  8  7  2  0
  9  8  1  0
 10  9  2  0
 10 11  1  0
 11 12  2  0
 12  7  1  0
 12  4  1  0
 13 14  2  0
 15 13  1  0
 15 16  1  0
 17 16  1  0
 18 17  1  0
 19 18  1  0
 19 15  1  0
 19 20  1  1
 21 20  2  0
 23 22  1  6
 23 24  1  0
 24 20  1  0
 25 23  1  0
 25 27  1  0
 26 25  2  0
M  END
$$$$
