WPA.pdb
     RDKit          3D

 27 29  0  0  1  0  0  0  0  0999 V2000
    6.6967  -17.4177   23.8530 N   0  0  0  0  0  0  0  0  0  0  0  0
    7.0718  -16.1357   23.3713 C   0  0  1  0  0  0  0  0  0  0  0  0
    7.8279  -15.2972   24.3687 C   0  0  0  0  0  0  0  0  0  0  0  0
    6.9726  -14.7645   25.4444 C   0  0  0  0  0  0  0  0  0  0  0  0
    6.0264  -15.4210   26.1922 C   0  0  0  0  0  0  0  0  0  0  0  0
    5.4988  -14.5445   27.0508 N   0  0  0  0  0  0  0  0  0  0  0  0
    6.0600  -13.3524   26.8923 C   0  0  0  0  0  0  0  0  0  0  0  0
    5.8925  -12.1142   27.5052 C   0  0  0  0  0  0  0  0  0  0  0  0
    6.6369  -11.0211   27.1210 C   0  0  0  0  0  0  0  0  0  0  0  0
    7.5700  -11.1260   26.1163 C   0  0  0  0  0  0  0  0  0  0  0  0
    7.7362  -12.3476   25.5107 C   0  0  0  0  0  0  0  0  0  0  0  0
    6.9828  -13.4653   25.8955 C   0  0  0  0  0  0  0  0  0  0  0  0
    7.7694  -16.2284   22.0719 C   0  0  0  0  0  0  0  0  0  0  0  0
    7.9931  -17.3985   21.5897 O   0  0  0  0  0  0  0  0  0  0  0  0
    8.2228  -15.1278   21.2949 N   0  0  0  0  0  0  0  0  0  0  0  0
    8.1801  -13.7435   21.6974 C   0  0  0  0  0  0  0  0  0  0  0  0
    8.5601  -12.9374   20.4507 C   0  0  0  0  0  0  0  0  0  0  0  0
    8.3540  -13.9536   19.3122 C   0  0  0  0  0  0  0  0  0  0  0  0
    8.8007  -15.2141   20.0023 C   0  0  1  0  0  0  0  0  0  0  0  0
   10.2892  -15.1928   20.0083 C   0  0  0  0  0  0  0  0  0  0  0  0
   10.8870  -14.0914   20.0763 O   0  0  0  0  0  0  0  0  0  0  0  0
   12.1826  -16.3668   22.1318 C   0  0  0  0  0  0  0  0  0  0  0  0
   12.3018  -16.5806   20.6584 C   0  0  2  0  0  0  0  0  0  0  0  0
   11.0606  -16.3811   19.9392 N   0  0  0  0  0  0  0  0  0  0  0  0
   12.7522  -17.9748   20.3835 C   0  0  0  0  0  0  0  0  0  0  0  0
   13.8914  -18.3817   20.7232 O   0  0  0  0  0  0  0  0  0  0  0  0
   11.9159  -18.8918   19.7309 O   0  0  0  0  0  0  0  0  0  0  0  0
  2  1  1  1
  2 13  1  0
  3  2  1  0
  4  3  1  0
  4  5  2  0
  6  5  1  0
  7  6  1  0
  8  7  2  0
  9  8  1  0
 10  9  2  0
 10 11  1  0
 11 12  2  0
 12  7  1  0
 12  4  1  0
 13 14  2  0
 15 13  1  0
 15 16  1  0
 17 16  1  0
 18 17  1  0
 19 18  1  0
 19 15  1  0
 19 20  1  1
 21 20  2  0
 23 22  1  1
 23 24  1  0
 24 20  1  0
 25 23  1  0
 25 27  1  0
 26 25  2  0
M  END
$$$$
