WPA.pdb
     RDKit          3D

 27 29  0  0  1  0  0  0  0  0999 V2000
    6.0518  -17.5564   24.0375 N   0  0  0  0  0  0  0  0  0  0  0  0
    6.6714  -16.3794   23.5406 C   0  0  1  0  0  0  0  0  0  0  0  0
    7.6194  -15.7231   24.5103 C   0  0  0  0  0  0  0  0  0  0  0  0
    6.9456  -14.8103   25.4512 C   0  0  0  0  0  0  0  0  0  0  0  0
    5.7835  -15.0088   26.1550 C   0  0  0  0  0  0  0  0  0  0  0  0
    5.5512  -13.9141   26.8841 N   0  0  0  0  0  0  0  0  0  0  0  0
    6.5091  -13.0178   26.6839 C   0  0  0  0  0  0  0  0  0  0  0  0
    6.7566  -11.7391   27.1746 C   0  0  0  0  0  0  0  0  0  0  0  0
    7.8638  -11.0237   26.7762 C   0  0  0  0  0  0  0  0  0  0  0  0
    8.7581  -11.5576   25.8784 C   0  0  0  0  0  0  0  0  0  0  0  0
    8.5149  -12.8195   25.3934 C   0  0  0  0  0  0  0  0  0  0  0  0
    7.3905  -13.5546   25.7935 C   0  0  0  0  0  0  0  0  0  0  0  0
    7.2906  -16.6102   22.2188 C   0  0  0  0  0  0  0  0  0  0  0  0
    7.3483  -17.8178   21.7825 O   0  0  0  0  0  0  0  0  0  0  0  0
    7.8366  -15.6065   21.3733 N   0  0  0  0  0  0  0  0  0  0  0  0
    7.8821  -14.1955   21.6687 C   0  0  0  0  0  0  0  0  0  0  0  0
    8.3444  -13.5159   20.3752 C   0  0  0  0  0  0  0  0  0  0  0  0
    8.0923  -14.6007   19.3117 C   0  0  0  0  0  0  0  0  0  0  0  0
    8.4348  -15.8316   20.1070 C   0  0  1  0  0  0  0  0  0  0  0  0
    9.9207  -15.9112   20.1514 C   0  0  0  0  0  0  0  0  0  0  0  0
   10.5520  -15.1662   20.9396 O   0  0  0  0  0  0  0  0  0  0  0  0
   12.0013  -18.8515   19.0830 C   0  0  0  0  0  0  0  0  0  0  0  0
   11.8194  -17.5393   19.7731 C   0  0  2  0  0  0  0  0  0  0  0  0
   10.6527  -16.8051   19.3287 N   0  0  0  0  0  0  0  0  0  0  0  0
   13.0065  -16.6707   19.5310 C   0  0  0  0  0  0  0  0  0  0  0  0
   12.9502  -15.6677   18.7764 O   0  0  0  0  0  0  0  0  0  0  0  0
   14.2399  -16.9419   20.1405 O   0  0  0  0  0  0  0  0  0  0  0  0
  2  1  1  1
  2 13  1  0
  3  2  1  0
  4  3  1  0
  4  5  2  0
  6  5  1  0
  7  6  1  0
  8  7  2  0
  9  8  1  0
 10  9  2  0
 10 11  1  0
 11 12  2  0
 12  7  1  0
 12  4  1  0
 13 14  2  0
 15 13  1  0
 15 16  1  0
 17 16  1  0
 18 17  1  0
 19 18  1  0
 19 15  1  0
 19 20  1  1
 21 20  2  0
 23 22  1  6
 23 24  1  0
 24 20  1  0
 25 23  1  0
 25 27  1  0
 26 25  2  0
M  END
$$$$
