WPA.pdb
     RDKit          3D

 27 29  0  0  1  0  0  0  0  0999 V2000
    6.2902  -17.6061   24.1842 N   0  0  0  0  0  0  0  0  0  0  0  0
    6.7069  -16.4049   23.5518 C   0  0  1  0  0  0  0  0  0  0  0  0
    7.6135  -15.5452   24.3936 C   0  0  0  0  0  0  0  0  0  0  0  0
    6.8849  -14.7276   25.3802 C   0  0  0  0  0  0  0  0  0  0  0  0
    5.6604  -14.9653   25.9541 C   0  0  0  0  0  0  0  0  0  0  0  0
    5.3950  -13.9586   26.7907 N   0  0  0  0  0  0  0  0  0  0  0  0
    6.3910  -13.0817   26.7838 C   0  0  0  0  0  0  0  0  0  0  0  0
    6.6294  -11.8819   27.4477 C   0  0  0  0  0  0  0  0  0  0  0  0
    7.7866  -11.1662   27.2350 C   0  0  0  0  0  0  0  0  0  0  0  0
    8.7414  -11.6215   26.3564 C   0  0  0  0  0  0  0  0  0  0  0  0
    8.5072  -12.8055   25.7006 C   0  0  0  0  0  0  0  0  0  0  0  0
    7.3322  -13.5403   25.9111 C   0  0  0  0  0  0  0  0  0  0  0  0
    7.2672  -16.6659   22.2096 C   0  0  0  0  0  0  0  0  0  0  0  0
    7.3130  -17.8838   21.8017 O   0  0  0  0  0  0  0  0  0  0  0  0
    7.7679  -15.6810   21.3152 N   0  0  0  0  0  0  0  0  0  0  0  0
    7.8200  -14.2631   21.5738 C   0  0  0  0  0  0  0  0  0  0  0  0
    8.2178  -13.6135   20.2439 C   0  0  0  0  0  0  0  0  0  0  0  0
    7.9216  -14.7251   19.2201 C   0  0  0  0  0  0  0  0  0  0  0  0
    8.3072  -15.9347   20.0280 C   0  0  1  0  0  0  0  0  0  0  0  0
    9.7939  -16.0075   20.0045 C   0  0  0  0  0  0  0  0  0  0  0  0
   10.4588  -15.2067   20.7058 O   0  0  0  0  0  0  0  0  0  0  0  0
   12.0185  -18.8597   18.8869 C   0  0  0  0  0  0  0  0  0  0  0  0
   11.7314  -17.5857   19.6118 C   0  0  2  0  0  0  0  0  0  0  0  0
   10.4899  -16.9559   19.2121 N   0  0  0  0  0  0  0  0  0  0  0  0
   12.8250  -16.6036   19.3627 C   0  0  0  0  0  0  0  0  0  0  0  0
   12.7456  -15.7409   18.4528 O   0  0  0  0  0  0  0  0  0  0  0  0
   13.9921  -16.6053   20.1399 O   0  0  0  0  0  0  0  0  0  0  0  0
  2  1  1  1
  2 13  1  0
  3  2  1  0
  4  3  1  0
  4  5  2  0
  6  5  1  0
  7  6  1  0
  8  7  2  0
  9  8  1  0
 10  9  2  0
 10 11  1  0
 11 12  2  0
 12  7  1  0
 12  4  1  0
 13 14  2  0
 15 13  1  0
 15 16  1  0
 17 16  1  0
 18 17  1  0
 19 18  1  0
 19 15  1  0
 19 20  1  1
 21 20  2  0
 23 22  1  6
 23 24  1  0
 24 20  1  0
 25 23  1  0
 25 27  1  0
 26 25  2  0
M  END
$$$$
