WPA.pdb
     RDKit          3D

 27 29  0  0  1  0  0  0  0  0999 V2000
    5.9975  -17.8961   23.8585 N   0  0  0  0  0  0  0  0  0  0  0  0
    6.5892  -16.6318   23.5983 C   0  0  1  0  0  0  0  0  0  0  0  0
    7.4356  -16.1013   24.7260 C   0  0  0  0  0  0  0  0  0  0  0  0
    6.7361  -15.1040   25.5558 C   0  0  0  0  0  0  0  0  0  0  0  0
    5.5012  -15.1963   26.1491 C   0  0  0  0  0  0  0  0  0  0  0  0
    5.2724  -14.0551   26.8042 N   0  0  0  0  0  0  0  0  0  0  0  0
    6.3020  -13.2300   26.6617 C   0  0  0  0  0  0  0  0  0  0  0  0
    6.5847  -11.9465   27.1194 C   0  0  0  0  0  0  0  0  0  0  0  0
    7.7697  -11.3205   26.8024 C   0  0  0  0  0  0  0  0  0  0  0  0
    8.7090  -11.9515   26.0211 C   0  0  0  0  0  0  0  0  0  0  0  0
    8.4311  -13.2183   25.5687 C   0  0  0  0  0  0  0  0  0  0  0  0
    7.2275  -13.8627   25.8866 C   0  0  0  0  0  0  0  0  0  0  0  0
    7.3066  -16.6253   22.3064 C   0  0  0  0  0  0  0  0  0  0  0  0
    7.4037  -17.7348   21.6650 O   0  0  0  0  0  0  0  0  0  0  0  0
    7.9082  -15.4898   21.6988 N   0  0  0  0  0  0  0  0  0  0  0  0
    7.8760  -14.1451   22.2191 C   0  0  0  0  0  0  0  0  0  0  0  0
    8.4534  -13.2578   21.1110 C   0  0  0  0  0  0  0  0  0  0  0  0
    8.3531  -14.1589   19.8663 C   0  0  0  0  0  0  0  0  0  0  0  0
    8.6470  -15.4976   20.4878 C   0  0  1  0  0  0  0  0  0  0  0  0
   10.1211  -15.5621   20.6851 C   0  0  0  0  0  0  0  0  0  0  0  0
   10.8811  -15.3297   19.7138 O   0  0  0  0  0  0  0  0  0  0  0  0
   12.5017  -15.3820   23.5452 C   0  0  0  0  0  0  0  0  0  0  0  0
   12.1270  -15.8893   22.1912 C   0  0  2  0  0  0  0  0  0  0  0  0
   10.7006  -15.8793   21.9403 N   0  0  0  0  0  0  0  0  0  0  0  0
   12.5939  -17.2958   22.0300 C   0  0  0  0  0  0  0  0  0  0  0  0
   13.8114  -17.6003   22.0900 O   0  0  0  0  0  0  0  0  0  0  0  0
   11.6857  -18.3400   21.8038 O   0  0  0  0  0  0  0  0  0  0  0  0
  2  1  1  1
  2 13  1  0
  3  2  1  0
  4  3  1  0
  4  5  2  0
  6  5  1  0
  7  6  1  0
  8  7  2  0
  9  8  1  0
 10  9  2  0
 10 11  1  0
 11 12  2  0
 12  7  1  0
 12  4  1  0
 13 14  2  0
 15 13  1  0
 15 16  1  0
 17 16  1  0
 18 17  1  0
 19 18  1  0
 19 15  1  0
 19 20  1  1
 21 20  2  0
 23 22  1  1
 23 24  1  0
 24 20  1  0
 25 23  1  0
 25 27  1  0
 26 25  2  0
M  END
$$$$
