GSN.pdb
     RDKit          3D

 19 18  0  0  1  0  0  0  0  0999 V2000
   19.0556  -12.9773  -16.7744 N   0  0  0  0  0  0  0  0  0  0  0  0
   19.0284  -11.7099  -17.4394 C   0  0  0  0  0  0  0  0  0  0  0  0
   19.1603  -10.5677  -16.5003 C   0  0  0  0  0  0  0  0  0  0  0  0
   18.2772  -10.3733  -15.6282 O   0  0  0  0  0  0  0  0  0  0  0  0
   22.2824   -9.2802  -14.4432 O   0  0  0  0  0  0  0  0  0  0  0  0
   21.7763   -8.2874  -15.2509 C   0  0  0  0  0  0  0  0  0  0  0  0
   20.3340   -8.5564  -15.6605 C   0  0  2  0  0  0  0  0  0  0  0  0
   20.2630   -9.6745  -16.5519 N   0  0  0  0  0  0  0  0  0  0  0  0
   19.8126   -7.3071  -16.2731 C   0  0  0  0  0  0  0  0  0  0  0  0
   20.1389   -7.0447  -17.4593 O   0  0  0  0  0  0  0  0  0  0  0  0
   15.8592   -2.6556  -15.4457 N   0  0  0  0  0  0  0  0  0  0  0  0
   16.4869   -3.6611  -16.2358 C   0  0  0  0  0  0  0  0  0  0  0  0
   16.5196   -3.5100  -17.4702 O   0  0  0  0  0  0  0  0  0  0  0  0
   17.0801   -4.8465  -15.6073 C   0  0  0  0  0  0  0  0  0  0  0  0
   18.3958   -5.1997  -16.1900 C   0  0  2  0  0  0  0  0  0  0  0  0
   18.9736   -6.4003  -15.6003 N   0  0  0  0  0  0  0  0  0  0  0  0
   19.3672   -4.1162  -16.2844 C   0  0  0  0  0  0  0  0  0  0  0  0
   19.4570   -3.2437  -17.1658 O   0  0  0  0  0  0  0  0  0  0  0  0
   20.3293   -4.0325  -15.2599 O   0  0  0  0  0  0  0  0  0  0  0  0
  1  2  1  0
  3  4  2  0
  3  2  1  0
  7  6  1  6
  6  5  1  0
  7  8  1  0
  8  3  1  0
  9  7  1  0
 10  9  2  0
 11 12  1  0
 12 13  2  0
 14 12  1  0
 15 14  1  1
 15 17  1  0
 15 16  1  0
 16  9  1  0
 17 19  1  0
 18 17  2  0
M  END
$$$$
