GSN.pdb
     RDKit          3D

 19 18  0  0  1  0  0  0  0  0999 V2000
   14.3569  -13.4264  -13.7795 N   0  0  0  0  0  0  0  0  0  0  0  0
   15.3053  -12.7164  -14.5832 C   0  0  0  0  0  0  0  0  0  0  0  0
   16.1840  -11.8284  -13.7812 C   0  0  0  0  0  0  0  0  0  0  0  0
   16.4072  -12.0978  -12.5746 O   0  0  0  0  0  0  0  0  0  0  0  0
   19.2061   -8.0282  -13.6212 O   0  0  0  0  0  0  0  0  0  0  0  0
   18.4727   -8.9166  -14.3744 C   0  0  0  0  0  0  0  0  0  0  0  0
   17.5772   -9.7996  -13.5148 C   0  0  2  0  0  0  0  0  0  0  0  0
   16.7900  -10.6697  -14.3350 N   0  0  0  0  0  0  0  0  0  0  0  0
   16.7432   -8.8965  -12.6802 C   0  0  0  0  0  0  0  0  0  0  0  0
   15.7279   -8.3703  -13.2044 O   0  0  0  0  0  0  0  0  0  0  0  0
   14.5187   -6.8602   -7.9223 N   0  0  0  0  0  0  0  0  0  0  0  0
   15.8885   -6.7221   -8.2880 C   0  0  0  0  0  0  0  0  0  0  0  0
   16.5004   -5.7037   -7.9189 O   0  0  0  0  0  0  0  0  0  0  0  0
   16.5606   -7.7569   -9.0815 C   0  0  0  0  0  0  0  0  0  0  0  0
   16.3259   -7.5990  -10.5359 C   0  0  2  0  0  0  0  0  0  0  0  0
   17.0255   -8.5965  -11.3351 N   0  0  0  0  0  0  0  0  0  0  0  0
   16.4968   -6.2533  -11.0709 C   0  0  0  0  0  0  0  0  0  0  0  0
   17.5080   -5.7648  -11.6048 O   0  0  0  0  0  0  0  0  0  0  0  0
   15.3909   -5.3867  -10.9801 O   0  0  0  0  0  0  0  0  0  0  0  0
  1  2  1  0
  3  4  2  0
  3  2  1  0
  7  6  1  6
  6  5  1  0
  7  8  1  0
  8  3  1  0
  9  7  1  0
 10  9  2  0
 11 12  1  0
 12 13  2  0
 14 12  1  0
 15 14  1  1
 15 17  1  0
 15 16  1  0
 16  9  1  0
 17 19  1  0
 18 17  2  0
M  END
$$$$
