GSN.pdb
     RDKit          3D

 19 18  0  0  1  0  0  0  0  0999 V2000
   17.5147   -9.0630  -17.9492 N   0  0  0  0  0  0  0  0  0  0  0  0
   18.1836   -9.8437  -16.9530 C   0  0  0  0  0  0  0  0  0  0  0  0
   18.7324   -9.0155  -15.8499 C   0  0  0  0  0  0  0  0  0  0  0  0
   17.9583   -8.3097  -15.1565 O   0  0  0  0  0  0  0  0  0  0  0  0
   22.8230   -9.0491  -14.8807 O   0  0  0  0  0  0  0  0  0  0  0  0
   21.8956   -8.7788  -13.9003 C   0  0  0  0  0  0  0  0  0  0  0  0
   20.6119   -8.1870  -14.4682 C   0  0  2  0  0  0  0  0  0  0  0  0
   20.1192   -8.9912  -15.5453 N   0  0  0  0  0  0  0  0  0  0  0  0
   20.9208   -6.7967  -14.8919 C   0  0  0  0  0  0  0  0  0  0  0  0
   21.5526   -6.6285  -15.9666 O   0  0  0  0  0  0  0  0  0  0  0  0
   19.0567   -4.1220  -16.5929 N   0  0  0  0  0  0  0  0  0  0  0  0
   18.8040   -3.3465  -15.4250 C   0  0  0  0  0  0  0  0  0  0  0  0
   17.7597   -2.6722  -15.3761 O   0  0  0  0  0  0  0  0  0  0  0  0
   19.7539   -3.3437  -14.3070 C   0  0  0  0  0  0  0  0  0  0  0  0
   20.8795   -4.2843  -14.5160 C   0  0  2  0  0  0  0  0  0  0  0  0
   20.5460   -5.6567  -14.1579 N   0  0  0  0  0  0  0  0  0  0  0  0
   22.1675   -3.8750  -13.9683 C   0  0  0  0  0  0  0  0  0  0  0  0
   22.8877   -2.9288  -14.3318 O   0  0  0  0  0  0  0  0  0  0  0  0
   22.6731   -4.6334  -12.8952 O   0  0  0  0  0  0  0  0  0  0  0  0
  1  2  1  0
  3  4  2  0
  3  2  1  0
  7  6  1  6
  6  5  1  0
  7  8  1  0
  8  3  1  0
  9  7  1  0
 10  9  2  0
 11 12  1  0
 12 13  2  0
 14 12  1  0
 15 14  1  1
 15 17  1  0
 15 16  1  0
 16  9  1  0
 17 19  1  0
 18 17  2  0
M  END
$$$$
