GSN.pdb
     RDKit          3D

 19 18  0  0  1  0  0  0  0  0999 V2000
   19.1924  -12.9408  -17.0615 N   0  0  0  0  0  0  0  0  0  0  0  0
   19.9294  -11.8149  -17.5500 C   0  0  0  0  0  0  0  0  0  0  0  0
   20.4221  -10.9365  -16.4594 C   0  0  0  0  0  0  0  0  0  0  0  0
   19.6018  -10.2849  -15.7659 O   0  0  0  0  0  0  0  0  0  0  0  0
   24.5640  -10.1533  -15.7879 O   0  0  0  0  0  0  0  0  0  0  0  0
   23.6748  -10.1944  -14.7383 C   0  0  0  0  0  0  0  0  0  0  0  0
   22.2515   -9.8722  -15.1753 C   0  0  2  0  0  0  0  0  0  0  0  0
   21.8053  -10.8035  -16.1668 N   0  0  0  0  0  0  0  0  0  0  0  0
   22.2522   -8.4714  -15.6706 C   0  0  0  0  0  0  0  0  0  0  0  0
   22.1930   -8.2791  -16.9124 O   0  0  0  0  0  0  0  0  0  0  0  0
   20.0515   -3.7236  -17.2950 N   0  0  0  0  0  0  0  0  0  0  0  0
   21.2357   -4.3574  -16.8203 C   0  0  0  0  0  0  0  0  0  0  0  0
   22.3096   -3.7330  -16.8878 O   0  0  0  0  0  0  0  0  0  0  0  0
   21.1887   -5.7146  -16.2656 C   0  0  0  0  0  0  0  0  0  0  0  0
   22.2640   -5.9614  -15.2766 C   0  0  2  0  0  0  0  0  0  0  0  0
   22.3153   -7.3467  -14.8279 N   0  0  0  0  0  0  0  0  0  0  0  0
   22.3380   -5.0237  -14.1622 C   0  0  0  0  0  0  0  0  0  0  0  0
   22.2520   -5.2715  -12.9467 O   0  0  0  0  0  0  0  0  0  0  0  0
   22.5304   -3.6666  -14.4836 O   0  0  0  0  0  0  0  0  0  0  0  0
  1  2  1  0
  3  4  2  0
  3  2  1  0
  7  6  1  6
  6  5  1  0
  7  8  1  0
  8  3  1  0
  9  7  1  0
 10  9  2  0
 11 12  1  0
 12 13  2  0
 14 12  1  0
 15 14  1  1
 15 17  1  0
 15 16  1  0
 16  9  1  0
 17 19  1  0
 18 17  2  0
M  END
$$$$
