GSN.pdb
     RDKit          3D

 19 18  0  0  1  0  0  0  0  0999 V2000
   14.6848  -22.1173    0.9931 N   0  0  0  0  0  0  0  0  0  0  0  0
   14.1655  -20.8989    1.5364 C   0  0  0  0  0  0  0  0  0  0  0  0
   15.0859  -20.2719    2.5181 C   0  0  0  0  0  0  0  0  0  0  0  0
   16.1632  -20.8453    2.8161 O   0  0  0  0  0  0  0  0  0  0  0  0
   16.3993  -16.2948    4.9381 O   0  0  0  0  0  0  0  0  0  0  0  0
   15.4330  -16.9401    4.2005 C   0  0  0  0  0  0  0  0  0  0  0  0
   15.7285  -18.4255    4.0367 C   0  0  2  0  0  0  0  0  0  0  0  0
   14.7895  -19.0308    3.1413 N   0  0  0  0  0  0  0  0  0  0  0  0
   15.6923  -19.0312    5.3930 C   0  0  0  0  0  0  0  0  0  0  0  0
   14.5699  -19.2601    5.9129 O   0  0  0  0  0  0  0  0  0  0  0  0
   16.7031  -21.6016    9.6880 N   0  0  0  0  0  0  0  0  0  0  0  0
   17.8866  -21.6624    8.8975 C   0  0  0  0  0  0  0  0  0  0  0  0
   18.8104  -22.4075    9.2704 O   0  0  0  0  0  0  0  0  0  0  0  0
   18.0120  -20.8643    7.6730 C   0  0  0  0  0  0  0  0  0  0  0  0
   16.8440  -19.9806    7.4491 C   0  0  2  0  0  0  0  0  0  0  0  0
   16.8440  -19.3636    6.1292 N   0  0  0  0  0  0  0  0  0  0  0  0
   16.5595  -19.0141    8.5034 C   0  0  0  0  0  0  0  0  0  0  0  0
   16.6549  -17.7754    8.4519 O   0  0  0  0  0  0  0  0  0  0  0  0
   16.1219  -19.5294    9.7384 O   0  0  0  0  0  0  0  0  0  0  0  0
  1  2  1  0
  3  4  2  0
  3  2  1  0
  7  6  1  1
  6  5  1  0
  7  8  1  0
  8  3  1  0
  9  7  1  0
 10  9  2  0
 11 12  1  0
 12 13  2  0
 14 12  1  0
 15 14  1  1
 15 17  1  0
 15 16  1  0
 16  9  1  0
 17 19  1  0
 18 17  2  0
M  END
$$$$
