DMA.pdb
     RDKit          3D

 22 21  0  0  1  0  0  0  0  0999 V2000
    7.2572  -16.9644   20.4279 N   0  0  0  0  0  0  0  0  0  0  0  0
    8.6663  -16.6519   20.3592 C   0  0  1  0  0  0  0  0  0  0  0  0
    8.8937  -15.7726   19.1471 C   0  0  0  0  0  0  0  0  0  0  0  0
    9.1181  -16.6227   17.9635 C   0  0  0  0  0  0  0  0  0  0  0  0
    9.8795  -17.6136   18.0694 O   0  0  0  0  0  0  0  0  0  0  0  0
    9.1323  -15.9352   21.5720 C   0  0  0  0  0  0  0  0  0  0  0  0
   10.3079  -15.5235   21.6912 O   0  0  0  0  0  0  0  0  0  0  0  0
    8.4985  -16.3215   16.7776 O   0  0  0  0  0  0  0  0  0  0  0  0
    6.4798  -11.7743   27.6788 C   0  0  0  0  0  0  0  0  0  0  0  0
    6.2707  -12.7860   26.1906 S   0  0  0  0  0  0  0  0  0  0  0  0
    7.8802  -13.4924   25.6662 C   0  0  0  0  0  0  0  0  0  0  0  0
    7.6273  -14.1258   24.3128 C   0  0  0  0  0  0  0  0  0  0  0  0
    8.7139  -15.0965   23.9051 C   0  0  2  0  0  0  0  0  0  0  0  0
    8.2423  -15.6938   22.6464 N   0  0  0  0  0  0  0  0  0  0  0  0
    8.9473  -16.1687   24.8830 C   0  0  0  0  0  0  0  0  0  0  0  0
    8.0250  -16.9176   25.2429 O   0  0  0  0  0  0  0  0  0  0  0  0
   11.8009  -18.1217   25.9221 C   0  0  0  0  0  0  0  0  0  0  0  0
   10.4802  -17.4874   26.3015 C   0  0  2  0  0  0  0  0  0  0  0  0
   10.2375  -16.3629   25.4317 N   0  0  0  0  0  0  0  0  0  0  0  0
   10.6178  -17.0514   27.7294 C   0  0  0  0  0  0  0  0  0  0  0  0
   10.8152  -18.0414   28.6806 O   0  0  0  0  0  0  0  0  0  0  0  0
   10.5595  -15.8492   28.0666 O   0  0  0  0  0  0  0  0  0  0  0  0
  2  1  1  1
  3  4  1  0
  3  2  1  0
  4  5  2  0
  6  7  2  0
  6  2  1  0
  8  4  1  0
  9 10  1  0
 11 10  1  0
 11 12  1  0
 13 12  1  1
 13 14  1  0
 13 15  1  0
 14  6  1  0
 15 19  1  0
 16 15  2  0
 18 17  1  6
 18 20  1  0
 19 18  1  0
 20 22  2  0
 20 21  1  0
M  END
$$$$
