DMA.pdb
     RDKit          3D

 22 21  0  0  1  0  0  0  0  0999 V2000
    7.5855  -17.2121   21.0224 N   0  0  0  0  0  0  0  0  0  0  0  0
    8.8800  -16.5767   20.9316 C   0  0  1  0  0  0  0  0  0  0  0  0
    8.8628  -15.6446   19.7378 C   0  0  0  0  0  0  0  0  0  0  0  0
    8.7330  -16.4381   18.5019 C   0  0  0  0  0  0  0  0  0  0  0  0
    8.1958  -17.5694   18.5661 O   0  0  0  0  0  0  0  0  0  0  0  0
    9.1979  -15.7951   22.1521 C   0  0  0  0  0  0  0  0  0  0  0  0
   10.2427  -15.1137   22.2527 O   0  0  0  0  0  0  0  0  0  0  0  0
    9.1961  -15.9337   17.3136 O   0  0  0  0  0  0  0  0  0  0  0  0
    6.7832  -10.8251   26.9265 C   0  0  0  0  0  0  0  0  0  0  0  0
    6.1774  -12.3078   26.0801 S   0  0  0  0  0  0  0  0  0  0  0  0
    7.4046  -13.6648   26.2100 C   0  0  0  0  0  0  0  0  0  0  0  0
    7.3016  -14.4353   24.9091 C   0  0  0  0  0  0  0  0  0  0  0  0
    8.6178  -15.0466   24.4813 C   0  0  2  0  0  0  0  0  0  0  0  0
    8.3109  -15.7996   23.2557 N   0  0  0  0  0  0  0  0  0  0  0  0
    9.1938  -15.9657   25.4733 C   0  0  0  0  0  0  0  0  0  0  0  0
    9.3731  -15.6076   26.6483 O   0  0  0  0  0  0  0  0  0  0  0  0
    9.8673  -19.6141   25.5904 C   0  0  0  0  0  0  0  0  0  0  0  0
   10.0429  -18.1993   26.0986 C   0  0  2  0  0  0  0  0  0  0  0  0
    9.5546  -17.2820   25.0984 N   0  0  0  0  0  0  0  0  0  0  0  0
   11.5121  -18.0162   26.3341 C   0  0  0  0  0  0  0  0  0  0  0  0
   12.0962  -18.7803   27.3336 O   0  0  0  0  0  0  0  0  0  0  0  0
   12.1980  -17.2123   25.6665 O   0  0  0  0  0  0  0  0  0  0  0  0
  2  1  1  1
  3  4  1  0
  3  2  1  0
  4  5  2  0
  6  7  2  0
  6  2  1  0
  8  4  1  0
  9 10  1  0
 11 10  1  0
 11 12  1  0
 13 12  1  1
 13 14  1  0
 13 15  1  0
 14  6  1  0
 15 19  1  0
 16 15  2  0
 18 17  1  6
 18 20  1  0
 19 18  1  0
 20 22  2  0
 20 21  1  0
M  END
$$$$
