DMA.pdb
     RDKit          3D

 22 21  0  0  1  0  0  0  0  0999 V2000
    7.5291  -16.6935   21.5709 N   0  0  0  0  0  0  0  0  0  0  0  0
    8.9507  -16.4351   21.5719 C   0  0  1  0  0  0  0  0  0  0  0  0
    9.2875  -15.6577   20.3164 C   0  0  0  0  0  0  0  0  0  0  0  0
    8.8719  -16.4361   19.1350 C   0  0  0  0  0  0  0  0  0  0  0  0
    8.9226  -17.6878   19.1903 O   0  0  0  0  0  0  0  0  0  0  0  0
    9.3673  -15.6456   22.7570 C   0  0  0  0  0  0  0  0  0  0  0  0
   10.5383  -15.2285   22.9009 O   0  0  0  0  0  0  0  0  0  0  0  0
    8.4410  -15.7878   18.0059 O   0  0  0  0  0  0  0  0  0  0  0  0
    5.4815  -11.9013   25.3729 C   0  0  0  0  0  0  0  0  0  0  0  0
    6.4601  -11.9321   26.8971 S   0  0  0  0  0  0  0  0  0  0  0  0
    7.8880  -13.0693   26.7174 C   0  0  0  0  0  0  0  0  0  0  0  0
    7.6913  -13.7655   25.3857 C   0  0  0  0  0  0  0  0  0  0  0  0
    8.8523  -14.6610   25.0126 C   0  0  2  0  0  0  0  0  0  0  0  0
    8.4332  -15.3374   23.7756 N   0  0  0  0  0  0  0  0  0  0  0  0
    9.1666  -15.6766   26.0277 C   0  0  0  0  0  0  0  0  0  0  0  0
    9.3912  -15.3552   27.2055 O   0  0  0  0  0  0  0  0  0  0  0  0
    8.6526  -19.2114   26.5494 C   0  0  0  0  0  0  0  0  0  0  0  0
    9.5867  -18.0260   26.6637 C   0  0  2  0  0  0  0  0  0  0  0  0
    9.2176  -17.0457   25.6724 N   0  0  0  0  0  0  0  0  0  0  0  0
   10.9684  -18.5541   26.4190 C   0  0  0  0  0  0  0  0  0  0  0  0
   11.4852  -19.4407   27.3522 O   0  0  0  0  0  0  0  0  0  0  0  0
   11.6414  -18.2198   25.4202 O   0  0  0  0  0  0  0  0  0  0  0  0
  2  1  1  1
  3  4  1  0
  3  2  1  0
  4  5  2  0
  6  7  2  0
  6  2  1  0
  8  4  1  0
  9 10  1  0
 11 10  1  0
 11 12  1  0
 13 12  1  1
 13 14  1  0
 13 15  1  0
 14  6  1  0
 15 19  1  0
 16 15  2  0
 18 17  1  6
 18 20  1  0
 19 18  1  0
 20 22  2  0
 20 21  1  0
M  END
$$$$
