DMA.pdb
     RDKit          3D

 22 21  0  0  1  0  0  0  0  0999 V2000
    9.0199  -16.7956   18.8883 N   0  0  0  0  0  0  0  0  0  0  0  0
    8.1591  -16.6625   20.0411 C   0  0  1  0  0  0  0  0  0  0  0  0
    7.7260  -18.0502   20.4664 C   0  0  0  0  0  0  0  0  0  0  0  0
    7.1165  -18.7441   19.3170 C   0  0  0  0  0  0  0  0  0  0  0  0
    7.1086  -18.1701   18.2021 O   0  0  0  0  0  0  0  0  0  0  0  0
    8.8530  -16.0029   21.1747 C   0  0  0  0  0  0  0  0  0  0  0  0
   10.0477  -15.6376   21.1020 O   0  0  0  0  0  0  0  0  0  0  0  0
    6.5732  -19.9926   19.4815 O   0  0  0  0  0  0  0  0  0  0  0  0
    6.6339  -11.5932   27.3174 C   0  0  0  0  0  0  0  0  0  0  0  0
    6.3267  -12.7890   25.9916 S   0  0  0  0  0  0  0  0  0  0  0  0
    7.9109  -13.3503   25.2570 C   0  0  0  0  0  0  0  0  0  0  0  0
    7.5288  -14.2718   24.1161 C   0  0  0  0  0  0  0  0  0  0  0  0
    8.7290  -14.8713   23.4166 C   0  0  2  0  0  0  0  0  0  0  0  0
    8.1688  -15.7648   22.3913 N   0  0  0  0  0  0  0  0  0  0  0  0
    9.6019  -15.6531   24.3040 C   0  0  0  0  0  0  0  0  0  0  0  0
   10.2285  -15.1080   25.2268 O   0  0  0  0  0  0  0  0  0  0  0  0
   12.0804  -17.1713   24.6544 C   0  0  0  0  0  0  0  0  0  0  0  0
   10.7144  -17.7789   24.8905 C   0  0  2  0  0  0  0  0  0  0  0  0
    9.7407  -17.0491   24.1164 N   0  0  0  0  0  0  0  0  0  0  0  0
   10.4464  -17.6532   26.3602 C   0  0  0  0  0  0  0  0  0  0  0  0
   11.2769  -18.3559   27.2207 O   0  0  0  0  0  0  0  0  0  0  0  0
    9.5169  -16.9485   26.8092 O   0  0  0  0  0  0  0  0  0  0  0  0
  2  1  1  6
  3  4  1  0
  3  2  1  0
  4  5  2  0
  6  7  2  0
  6  2  1  0
  8  4  1  0
  9 10  1  0
 11 10  1  0
 11 12  1  0
 13 12  1  1
 13 14  1  0
 13 15  1  0
 14  6  1  0
 15 19  1  0
 16 15  2  0
 18 17  1  1
 18 20  1  0
 19 18  1  0
 20 22  2  0
 20 21  1  0
M  END
$$$$
