DMA.pdb
     RDKit          3D

 22 21  0  0  1  0  0  0  0  0999 V2000
    9.9732  -15.6871   19.7436 N   0  0  0  0  0  0  0  0  0  0  0  0
    9.0389  -16.3273   20.6408 C   0  0  1  0  0  0  0  0  0  0  0  0
    9.2928  -17.8199   20.5963 C   0  0  0  0  0  0  0  0  0  0  0  0
    8.8814  -18.3452   19.2815 C   0  0  0  0  0  0  0  0  0  0  0  0
    9.7113  -19.0021   18.6089 O   0  0  0  0  0  0  0  0  0  0  0  0
    9.1988  -15.8500   22.0366 C   0  0  0  0  0  0  0  0  0  0  0  0
   10.3151  -15.8030   22.6001 O   0  0  0  0  0  0  0  0  0  0  0  0
    7.6120  -18.1110   18.8182 O   0  0  0  0  0  0  0  0  0  0  0  0
    7.7434  -11.8417   27.8770 C   0  0  0  0  0  0  0  0  0  0  0  0
    7.9425  -12.5435   26.2188 S   0  0  0  0  0  0  0  0  0  0  0  0
    6.7687  -13.9302   25.9662 C   0  0  0  0  0  0  0  0  0  0  0  0
    6.8902  -14.3074   24.5033 C   0  0  0  0  0  0  0  0  0  0  0  0
    8.2055  -14.9798   24.1762 C   0  0  2  0  0  0  0  0  0  0  0  0
    8.0714  -15.4271   22.7815 N   0  0  0  0  0  0  0  0  0  0  0  0
    8.5021  -16.1439   25.0233 C   0  0  0  0  0  0  0  0  0  0  0  0
    7.6555  -17.0330   25.2072 O   0  0  0  0  0  0  0  0  0  0  0  0
   11.3904  -17.9763   26.1182 C   0  0  0  0  0  0  0  0  0  0  0  0
   10.0388  -17.4050   26.4892 C   0  0  2  0  0  0  0  0  0  0  0  0
    9.7674  -16.2672   25.6455 N   0  0  0  0  0  0  0  0  0  0  0  0
   10.1330  -17.0037   27.9306 C   0  0  0  0  0  0  0  0  0  0  0  0
   10.3159  -18.0152   28.8620 O   0  0  0  0  0  0  0  0  0  0  0  0
   10.0520  -15.8111   28.2960 O   0  0  0  0  0  0  0  0  0  0  0  0
  2  1  1  6
  3  4  1  0
  3  2  1  0
  4  5  2  0
  6  7  2  0
  6  2  1  0
  8  4  1  0
  9 10  1  0
 11 10  1  0
 11 12  1  0
 13 12  1  1
 13 14  1  0
 13 15  1  0
 14  6  1  0
 15 19  1  0
 16 15  2  0
 18 17  1  6
 18 20  1  0
 19 18  1  0
 20 22  2  0
 20 21  1  0
M  END
$$$$
