DMA.pdb
     RDKit          3D

 22 21  0  0  1  0  0  0  0  0999 V2000
    8.1103  -17.2578   21.1494 N   0  0  0  0  0  0  0  0  0  0  0  0
    9.3255  -16.4889   21.2905 C   0  0  1  0  0  0  0  0  0  0  0  0
    9.3024  -15.3805   20.2584 C   0  0  0  0  0  0  0  0  0  0  0  0
    9.7391  -15.9177   18.9566 C   0  0  0  0  0  0  0  0  0  0  0  0
   10.1695  -17.0944   18.9044 O   0  0  0  0  0  0  0  0  0  0  0  0
    9.4455  -15.8895   22.6425 C   0  0  0  0  0  0  0  0  0  0  0  0
   10.4292  -15.1919   22.9763 O   0  0  0  0  0  0  0  0  0  0  0  0
    9.6693  -15.1323   17.8344 O   0  0  0  0  0  0  0  0  0  0  0  0
    6.7181  -10.8595   26.2622 C   0  0  0  0  0  0  0  0  0  0  0  0
    6.8873  -12.6428   26.5325 S   0  0  0  0  0  0  0  0  0  0  0  0
    7.0071  -13.5243   24.9285 C   0  0  0  0  0  0  0  0  0  0  0  0
    7.1638  -14.9905   25.2784 C   0  0  0  0  0  0  0  0  0  0  0  0
    8.5424  -15.5272   24.9609 C   0  0  2  0  0  0  0  0  0  0  0  0
    8.4310  -16.0950   23.6086 N   0  0  0  0  0  0  0  0  0  0  0  0
    8.9952  -16.5785   25.8830 C   0  0  0  0  0  0  0  0  0  0  0  0
    9.0405  -16.3789   27.1075 O   0  0  0  0  0  0  0  0  0  0  0  0
   10.2560  -20.0812   25.5062 C   0  0  0  0  0  0  0  0  0  0  0  0
   10.0228  -18.7920   26.2641 C   0  0  2  0  0  0  0  0  0  0  0  0
    9.3888  -17.8427   25.3827 N   0  0  0  0  0  0  0  0  0  0  0  0
   11.3737  -18.3108   26.7012 C   0  0  0  0  0  0  0  0  0  0  0  0
   12.0681  -19.1002   27.6061 O   0  0  0  0  0  0  0  0  0  0  0  0
   11.8694  -17.2443   26.2778 O   0  0  0  0  0  0  0  0  0  0  0  0
  2  1  1  1
  3  4  1  0
  3  2  1  0
  4  5  2  0
  6  7  2  0
  6  2  1  0
  8  4  1  0
  9 10  1  0
 11 10  1  0
 11 12  1  0
 13 12  1  1
 13 14  1  0
 13 15  1  0
 14  6  1  0
 15 19  1  0
 16 15  2  0
 18 17  1  6
 18 20  1  0
 19 18  1  0
 20 22  2  0
 20 21  1  0
M  END
$$$$
