DMA.pdb
     RDKit          3D

 22 21  0  0  1  0  0  0  0  0999 V2000
    9.6421  -15.7251   19.6760 N   0  0  0  0  0  0  0  0  0  0  0  0
    9.0331  -16.5322   20.7083 C   0  0  1  0  0  0  0  0  0  0  0  0
    9.5221  -17.9559   20.5409 C   0  0  0  0  0  0  0  0  0  0  0  0
    9.0333  -18.4913   19.2570 C   0  0  0  0  0  0  0  0  0  0  0  0
    9.8575  -18.6834   18.3317 O   0  0  0  0  0  0  0  0  0  0  0  0
    9.3911  -16.0534   22.0663 C   0  0  0  0  0  0  0  0  0  0  0  0
   10.5769  -15.8457   22.4076 O   0  0  0  0  0  0  0  0  0  0  0  0
    7.6999  -18.7685   19.0949 O   0  0  0  0  0  0  0  0  0  0  0  0
    7.1004  -11.0640   26.7135 C   0  0  0  0  0  0  0  0  0  0  0  0
    6.3615  -12.6878   26.3987 S   0  0  0  0  0  0  0  0  0  0  0  0
    7.6692  -13.9612   26.2172 C   0  0  0  0  0  0  0  0  0  0  0  0
    7.5498  -14.4700   24.7947 C   0  0  0  0  0  0  0  0  0  0  0  0
    8.7166  -15.3399   24.3810 C   0  0  2  0  0  0  0  0  0  0  0  0
    8.3814  -15.8143   23.0297 N   0  0  0  0  0  0  0  0  0  0  0  0
    8.9274  -16.5026   25.2553 C   0  0  0  0  0  0  0  0  0  0  0  0
    8.0542  -17.3764   25.3786 O   0  0  0  0  0  0  0  0  0  0  0  0
   11.7214  -18.3880   26.4493 C   0  0  0  0  0  0  0  0  0  0  0  0
   10.3583  -17.8186   26.7789 C   0  0  2  0  0  0  0  0  0  0  0  0
   10.1387  -16.6422   25.9740 N   0  0  0  0  0  0  0  0  0  0  0  0
   10.3852  -17.4816   28.2395 C   0  0  0  0  0  0  0  0  0  0  0  0
   10.5831  -18.5265   29.1300 O   0  0  0  0  0  0  0  0  0  0  0  0
   10.2369  -16.3122   28.6554 O   0  0  0  0  0  0  0  0  0  0  0  0
  2  1  1  6
  3  4  1  0
  3  2  1  0
  4  5  2  0
  6  7  2  0
  6  2  1  0
  8  4  1  0
  9 10  1  0
 11 10  1  0
 11 12  1  0
 13 12  1  1
 13 14  1  0
 13 15  1  0
 14  6  1  0
 15 19  1  0
 16 15  2  0
 18 17  1  6
 18 20  1  0
 19 18  1  0
 20 22  2  0
 20 21  1  0
M  END
$$$$
