DMA.pdb
     RDKit          3D

 22 21  0  0  1  0  0  0  0  0999 V2000
   10.7232  -16.1065   20.3517 N   0  0  0  0  0  0  0  0  0  0  0  0
   10.4892  -16.8823   21.5480 C   0  0  1  0  0  0  0  0  0  0  0  0
   11.7288  -17.7085   21.8218 C   0  0  0  0  0  0  0  0  0  0  0  0
   11.8979  -18.7042   20.7475 C   0  0  0  0  0  0  0  0  0  0  0  0
   13.0392  -18.8713   20.2555 O   0  0  0  0  0  0  0  0  0  0  0  0
   10.2145  -16.0173   22.7218 C   0  0  0  0  0  0  0  0  0  0  0  0
   10.8673  -14.9737   22.9468 O   0  0  0  0  0  0  0  0  0  0  0  0
   10.8176  -19.4250   20.3068 O   0  0  0  0  0  0  0  0  0  0  0  0
    6.1560  -12.0489   26.8655 C   0  0  0  0  0  0  0  0  0  0  0  0
    6.8555  -13.0787   25.5494 S   0  0  0  0  0  0  0  0  0  0  0  0
    6.6408  -14.8566   25.9460 C   0  0  0  0  0  0  0  0  0  0  0  0
    7.2527  -15.6118   24.7832 C   0  0  0  0  0  0  0  0  0  0  0  0
    8.7479  -15.4091   24.6715 C   0  0  2  0  0  0  0  0  0  0  0  0
    9.1871  -16.3561   23.6352 N   0  0  0  0  0  0  0  0  0  0  0  0
    9.4782  -15.6919   25.9154 C   0  0  0  0  0  0  0  0  0  0  0  0
    9.8017  -16.8518   26.2173 O   0  0  0  0  0  0  0  0  0  0  0  0
   10.4991  -13.7383   28.9178 C   0  0  0  0  0  0  0  0  0  0  0  0
   10.5995  -14.9188   27.9759 C   0  0  2  0  0  0  0  0  0  0  0  0
    9.8251  -14.6365   26.7925 N   0  0  0  0  0  0  0  0  0  0  0  0
   10.0476  -16.0981   28.7191 C   0  0  0  0  0  0  0  0  0  0  0  0
    8.8061  -16.5745   28.3246 O   0  0  0  0  0  0  0  0  0  0  0  0
   10.6674  -16.6422   29.6583 O   0  0  0  0  0  0  0  0  0  0  0  0
  2  1  1  6
  3  4  1  0
  3  2  1  0
  4  5  2  0
  6  7  2  0
  6  2  1  0
  8  4  1  0
  9 10  1  0
 11 10  1  0
 11 12  1  0
 13 12  1  1
 13 14  1  0
 13 15  1  0
 14  6  1  0
 15 19  1  0
 16 15  2  0
 18 17  1  1
 18 20  1  0
 19 18  1  0
 20 22  2  0
 20 21  1  0
M  END
$$$$
