DMA.pdb
     RDKit          3D

 22 21  0  0  1  0  0  0  0  0999 V2000
    7.8980  -16.8710   20.3577 N   0  0  0  0  0  0  0  0  0  0  0  0
    9.2983  -16.9890   20.6940 C   0  0  1  0  0  0  0  0  0  0  0  0
   10.1026  -16.3265   19.5947 C   0  0  0  0  0  0  0  0  0  0  0  0
   10.0433  -17.1582   18.3786 C   0  0  0  0  0  0  0  0  0  0  0  0
    8.9568  -17.7068   18.0766 O   0  0  0  0  0  0  0  0  0  0  0  0
    9.6125  -16.3327   21.9870 C   0  0  0  0  0  0  0  0  0  0  0  0
   10.7889  -16.1259   22.3599 O   0  0  0  0  0  0  0  0  0  0  0  0
   11.1638  -17.3182   17.6042 O   0  0  0  0  0  0  0  0  0  0  0  0
    6.8771  -11.5268   27.4991 C   0  0  0  0  0  0  0  0  0  0  0  0
    6.8547  -12.3030   25.8624 S   0  0  0  0  0  0  0  0  0  0  0  0
    7.7205  -13.9193   25.9092 C   0  0  0  0  0  0  0  0  0  0  0  0
    7.7072  -14.4318   24.4830 C   0  0  0  0  0  0  0  0  0  0  0  0
    8.8596  -15.3649   24.1821 C   0  0  2  0  0  0  0  0  0  0  0  0
    8.5698  -15.9152   22.8492 N   0  0  0  0  0  0  0  0  0  0  0  0
    8.9881  -16.4743   25.1378 C   0  0  0  0  0  0  0  0  0  0  0  0
    8.0296  -17.2260   25.3773 O   0  0  0  0  0  0  0  0  0  0  0  0
   11.6483  -18.5190   26.4557 C   0  0  0  0  0  0  0  0  0  0  0  0
   10.3370  -17.8101   26.7179 C   0  0  2  0  0  0  0  0  0  0  0  0
   10.2166  -16.7018   25.8029 N   0  0  0  0  0  0  0  0  0  0  0  0
   10.3908  -17.3385   28.1400 C   0  0  0  0  0  0  0  0  0  0  0  0
   10.4795  -18.3074   29.1286 O   0  0  0  0  0  0  0  0  0  0  0  0
   10.3580  -16.1257   28.4407 O   0  0  0  0  0  0  0  0  0  0  0  0
  2  1  1  6
  3  4  1  0
  3  2  1  0
  4  5  2  0
  6  7  2  0
  6  2  1  0
  8  4  1  0
  9 10  1  0
 11 10  1  0
 11 12  1  0
 13 12  1  1
 13 14  1  0
 13 15  1  0
 14  6  1  0
 15 19  1  0
 16 15  2  0
 18 17  1  6
 18 20  1  0
 19 18  1  0
 20 22  2  0
 20 21  1  0
M  END
$$$$
