TME.pdb
     RDKit          3D

 25 24  0  0  1  0  0  0  0  0999 V2000
   19.8358   -9.0977  -20.8399 C   0  0  0  0  0  0  0  0  0  0  0  0
   18.7575  -10.0604  -20.4876 C   0  0  1  0  0  0  0  0  0  0  0  0
   18.2516  -10.6947  -21.5883 O   0  0  0  0  0  0  0  0  0  0  0  0
   19.1797  -11.0299  -19.3925 C   0  0  2  0  0  0  0  0  0  0  0  0
   18.0859  -11.9727  -19.1859 N   0  0  0  0  0  0  0  0  0  0  0  0
   19.5842  -10.3450  -18.1670 C   0  0  0  0  0  0  0  0  0  0  0  0
   18.6937   -9.6733  -17.5376 O   0  0  0  0  0  0  0  0  0  0  0  0
   22.2773   -8.9628  -11.6944 C   0  0  0  0  0  0  0  0  0  0  0  0
   21.9047   -9.7472  -13.2591 S   0  0  0  0  0  0  0  0  0  0  0  0
   22.9473   -9.2087  -14.6110 C   0  0  0  0  0  0  0  0  0  0  0  0
   22.6035  -10.0130  -15.8601 C   0  0  0  0  0  0  0  0  0  0  0  0
   21.2769   -9.5784  -16.4322 C   0  0  2  0  0  0  0  0  0  0  0  0
   20.8476  -10.3207  -17.5658 N   0  0  0  0  0  0  0  0  0  0  0  0
   21.3464   -8.1121  -16.6228 C   0  0  0  0  0  0  0  0  0  0  0  0
   21.8327   -7.6792  -17.7017 O   0  0  0  0  0  0  0  0  0  0  0  0
   20.8876   -7.1944  -15.6458 N   0  0  0  0  0  0  0  0  0  0  0  0
   20.9365   -5.7446  -15.9641 C   0  0  1  0  0  0  0  0  0  0  0  0
   19.6927   -5.3755  -16.7040 C   0  0  0  0  0  0  0  0  0  0  0  0
   19.6359   -3.8932  -16.9476 C   0  0  0  0  0  0  0  0  0  0  0  0
   18.5787   -3.5547  -17.9401 C   0  0  0  0  0  0  0  0  0  0  0  0
   17.4573   -4.0627  -17.8460 O   0  0  0  0  0  0  0  0  0  0  0  0
   21.1648   -5.0260  -14.6971 C   0  0  0  0  0  0  0  0  0  0  0  0
   20.5911   -5.3939  -13.6108 O   0  0  0  0  0  0  0  0  0  0  0  0
   18.8629   -2.6738  -18.9621 O   0  0  0  0  0  0  0  0  0  0  0  0
   21.9910   -3.9243  -14.5558 O   0  0  0  0  0  0  0  0  0  0  0  0
  2  1  1  6
  2  3  1  0
  4  2  1  0
  4  6  1  0
  4  5  1  1
  6 13  1  0
  6  7  2  0
  9  8  1  0
 10  9  1  0
 11 10  1  0
 12 11  1  6
 13 12  1  0
 14 12  1  0
 14 15  2  0
 16 14  1  0
 17 16  1  0
 17 18  1  1
 19 18  1  0
 19 20  1  0
 20 24  1  0
 20 21  2  0
 22 17  1  0
 23 22  2  0
 25 22  1  0
M  END
$$$$
