TME.pdb
     RDKit          3D

 25 24  0  0  1  0  0  0  0  0999 V2000
   21.1421  -10.0348  -20.0982 C   0  0  0  0  0  0  0  0  0  0  0  0
   20.7319  -11.3706  -19.5869 C   0  0  1  0  0  0  0  0  0  0  0  0
   20.2562  -12.1801  -20.5809 O   0  0  0  0  0  0  0  0  0  0  0  0
   21.8226  -12.0352  -18.7586 C   0  0  2  0  0  0  0  0  0  0  0  0
   21.3470  -13.3603  -18.3767 N   0  0  0  0  0  0  0  0  0  0  0  0
   22.2285  -11.2213  -17.6152 C   0  0  0  0  0  0  0  0  0  0  0  0
   21.4014  -11.1017  -16.6447 O   0  0  0  0  0  0  0  0  0  0  0  0
   28.4482  -12.5454  -15.4213 C   0  0  0  0  0  0  0  0  0  0  0  0
   27.6528  -10.9638  -15.6831 S   0  0  0  0  0  0  0  0  0  0  0  0
   25.8696  -11.0566  -15.8085 C   0  0  0  0  0  0  0  0  0  0  0  0
   25.3137   -9.6642  -16.0874 C   0  0  0  0  0  0  0  0  0  0  0  0
   23.8259   -9.7171  -16.3313 C   0  0  2  0  0  0  0  0  0  0  0  0
   23.4326  -10.5339  -17.4262 N   0  0  0  0  0  0  0  0  0  0  0  0
   23.3441   -8.3183  -16.3777 C   0  0  0  0  0  0  0  0  0  0  0  0
   23.5147   -7.6699  -17.4446 O   0  0  0  0  0  0  0  0  0  0  0  0
   22.7045   -7.6961  -15.2772 N   0  0  0  0  0  0  0  0  0  0  0  0
   22.1693   -6.3227  -15.4587 C   0  0  1  0  0  0  0  0  0  0  0  0
   20.7251   -6.4174  -15.8275 C   0  0  0  0  0  0  0  0  0  0  0  0
   20.1254   -5.0490  -15.9939 C   0  0  0  0  0  0  0  0  0  0  0  0
   18.6947   -5.1378  -16.3972 C   0  0  0  0  0  0  0  0  0  0  0  0
   18.0793   -4.1172  -16.7201 O   0  0  0  0  0  0  0  0  0  0  0  0
   22.4673   -5.5706  -14.2261 C   0  0  0  0  0  0  0  0  0  0  0  0
   22.7295   -6.1741  -13.1254 O   0  0  0  0  0  0  0  0  0  0  0  0
   18.0657   -6.3647  -16.4049 O   0  0  0  0  0  0  0  0  0  0  0  0
   22.4950   -4.1896  -14.1348 O   0  0  0  0  0  0  0  0  0  0  0  0
  2  1  1  6
  2  3  1  0
  4  2  1  0
  4  6  1  0
  4  5  1  1
  6 13  1  0
  6  7  2  0
  9  8  1  0
 10  9  1  0
 11 10  1  0
 12 11  1  6
 13 12  1  0
 14 12  1  0
 14 15  2  0
 16 14  1  0
 17 16  1  0
 17 18  1  1
 19 18  1  0
 19 20  1  0
 20 24  1  0
 20 21  2  0
 22 17  1  0
 23 22  2  0
 25 22  1  0
M  END
$$$$
