TME.pdb
     RDKit          3D

 25 24  0  0  1  0  0  0  0  0999 V2000
   19.3384  -11.1202  -18.7045 C   0  0  0  0  0  0  0  0  0  0  0  0
   19.6983  -12.5431  -18.4608 C   0  0  1  0  0  0  0  0  0  0  0  0
   18.7589  -13.4053  -18.9545 O   0  0  0  0  0  0  0  0  0  0  0  0
   21.1070  -12.8748  -18.9332 C   0  0  2  0  0  0  0  0  0  0  0  0
   21.3051  -14.3108  -18.7703 N   0  0  0  0  0  0  0  0  0  0  0  0
   22.1251  -12.0759  -18.2552 C   0  0  0  0  0  0  0  0  0  0  0  0
   21.8078  -11.5243  -17.1437 O   0  0  0  0  0  0  0  0  0  0  0  0
   29.5514   -9.0424  -18.0689 C   0  0  0  0  0  0  0  0  0  0  0  0
   28.3129  -10.0936  -18.8196 S   0  0  0  0  0  0  0  0  0  0  0  0
   26.7308  -10.0683  -17.9826 C   0  0  0  0  0  0  0  0  0  0  0  0
   25.7613  -10.9894  -18.7155 C   0  0  0  0  0  0  0  0  0  0  0  0
   24.3861  -10.9245  -18.0986 C   0  0  2  0  0  0  0  0  0  0  0  0
   23.4396  -11.8225  -18.6626 N   0  0  0  0  0  0  0  0  0  0  0  0
   23.9823   -9.5005  -18.0885 C   0  0  0  0  0  0  0  0  0  0  0  0
   23.6223   -8.9809  -19.1786 O   0  0  0  0  0  0  0  0  0  0  0  0
   23.9854   -8.7162  -16.9086 N   0  0  0  0  0  0  0  0  0  0  0  0
   23.4772   -7.3230  -16.9881 C   0  0  1  0  0  0  0  0  0  0  0  0
   22.9457   -6.9309  -15.6486 C   0  0  0  0  0  0  0  0  0  0  0  0
   22.4708   -5.5047  -15.6588 C   0  0  0  0  0  0  0  0  0  0  0  0
   22.1030   -5.0538  -14.2881 C   0  0  0  0  0  0  0  0  0  0  0  0
   21.6903   -3.9044  -14.1056 O   0  0  0  0  0  0  0  0  0  0  0  0
   24.5727   -6.4869  -17.5120 C   0  0  0  0  0  0  0  0  0  0  0  0
   25.7959   -6.7283  -17.2119 O   0  0  0  0  0  0  0  0  0  0  0  0
   22.2286   -5.9273  -13.2288 O   0  0  0  0  0  0  0  0  0  0  0  0
   24.3998   -5.3989  -18.3503 O   0  0  0  0  0  0  0  0  0  0  0  0
  2  1  1  6
  2  3  1  0
  4  2  1  0
  4  6  1  0
  4  5  1  1
  6 13  1  0
  6  7  2  0
  9  8  1  0
 10  9  1  0
 11 10  1  0
 12 11  1  6
 13 12  1  0
 14 12  1  0
 14 15  2  0
 16 14  1  0
 17 16  1  0
 17 18  1  1
 19 18  1  0
 19 20  1  0
 20 24  1  0
 20 21  2  0
 22 17  1  0
 23 22  2  0
 25 22  1  0
M  END
$$$$
