TME.pdb
     RDKit          3D

 25 24  0  0  1  0  0  0  0  0999 V2000
   22.4371  -22.8806  -14.3708 C   0  0  0  0  0  0  0  0  0  0  0  0
   21.4632  -21.8050  -14.0415 C   0  0  1  0  0  0  0  0  0  0  0  0
   20.1684  -22.2332  -14.1389 O   0  0  0  0  0  0  0  0  0  0  0  0
   21.7635  -21.1388  -12.7060 C   0  0  2  0  0  0  0  0  0  0  0  0
   20.7417  -20.1238  -12.4746 N   0  0  0  0  0  0  0  0  0  0  0  0
   23.1230  -20.6077  -12.6410 C   0  0  0  0  0  0  0  0  0  0  0  0
   23.3786  -19.5406  -13.3016 O   0  0  0  0  0  0  0  0  0  0  0  0
   30.7326  -21.4232  -10.2277 C   0  0  0  0  0  0  0  0  0  0  0  0
   28.9898  -21.7897  -10.0522 S   0  0  0  0  0  0  0  0  0  0  0  0
   27.9613  -21.0685  -11.3276 C   0  0  0  0  0  0  0  0  0  0  0  0
   26.5031  -21.4213  -11.0545 C   0  0  0  0  0  0  0  0  0  0  0  0
   25.5979  -20.8162  -12.0987 C   0  0  2  0  0  0  0  0  0  0  0  0
   24.2184  -21.1173  -11.9349 N   0  0  0  0  0  0  0  0  0  0  0  0
   26.1700  -21.1597  -13.4200 C   0  0  0  0  0  0  0  0  0  0  0  0
   25.9639  -22.3186  -13.8696 O   0  0  0  0  0  0  0  0  0  0  0  0
   26.9284  -20.2389  -14.1843 N   0  0  0  0  0  0  0  0  0  0  0  0
   26.9927  -20.4302  -15.6557 C   0  0  1  0  0  0  0  0  0  0  0  0
   25.6021  -20.4180  -16.2004 C   0  0  0  0  0  0  0  0  0  0  0  0
   25.4216  -19.2913  -17.1791 C   0  0  0  0  0  0  0  0  0  0  0  0
   24.1730  -19.4663  -17.9714 C   0  0  0  0  0  0  0  0  0  0  0  0
   24.0850  -20.3857  -18.7910 O   0  0  0  0  0  0  0  0  0  0  0  0
   27.8994  -19.3986  -16.1918 C   0  0  0  0  0  0  0  0  0  0  0  0
   28.1119  -18.3047  -15.5573 O   0  0  0  0  0  0  0  0  0  0  0  0
   23.1212  -18.5949  -17.7836 O   0  0  0  0  0  0  0  0  0  0  0  0
   28.5887  -19.5022  -17.3879 O   0  0  0  0  0  0  0  0  0  0  0  0
  2  1  1  1
  2  3  1  0
  4  2  1  0
  4  6  1  0
  4  5  1  6
  6 13  1  0
  6  7  2  0
  9  8  1  0
 10  9  1  0
 11 10  1  0
 12 11  1  1
 13 12  1  0
 14 12  1  0
 14 15  2  0
 16 14  1  0
 17 16  1  0
 17 18  1  6
 19 18  1  0
 19 20  1  0
 20 24  1  0
 20 21  2  0
 22 17  1  0
 23 22  2  0
 25 22  1  0
M  END
$$$$
