TME.pdb
     RDKit          3D

 25 24  0  0  1  0  0  0  0  0999 V2000
   20.2378  -10.4827  -18.9985 C   0  0  0  0  0  0  0  0  0  0  0  0
   19.9720  -11.7121  -18.2035 C   0  0  1  0  0  0  0  0  0  0  0  0
   19.2707  -12.6455  -18.9151 O   0  0  0  0  0  0  0  0  0  0  0  0
   21.2359  -12.2805  -17.5735 C   0  0  2  0  0  0  0  0  0  0  0  0
   20.8780  -13.5247  -16.9013 N   0  0  0  0  0  0  0  0  0  0  0  0
   21.8981  -11.3230  -16.6908 C   0  0  0  0  0  0  0  0  0  0  0  0
   21.3023  -11.0039  -15.6029 O   0  0  0  0  0  0  0  0  0  0  0  0
   28.2637  -12.8343  -15.1123 C   0  0  0  0  0  0  0  0  0  0  0  0
   27.5586  -11.2921  -15.6842 S   0  0  0  0  0  0  0  0  0  0  0  0
   25.7741  -11.2175  -15.5638 C   0  0  0  0  0  0  0  0  0  0  0  0
   25.2966   -9.8493  -16.0387 C   0  0  0  0  0  0  0  0  0  0  0  0
   23.7906   -9.7662  -16.0143 C   0  0  2  0  0  0  0  0  0  0  0  0
   23.1312  -10.6871  -16.8731 N   0  0  0  0  0  0  0  0  0  0  0  0
   23.4316   -8.3440  -16.2133 C   0  0  0  0  0  0  0  0  0  0  0  0
   23.5750   -7.8543  -17.3654 O   0  0  0  0  0  0  0  0  0  0  0  0
   22.9367   -7.5294  -15.1650 N   0  0  0  0  0  0  0  0  0  0  0  0
   22.5343   -6.1363  -15.4862 C   0  0  1  0  0  0  0  0  0  0  0  0
   21.3001   -6.1770  -16.3263 C   0  0  0  0  0  0  0  0  0  0  0  0
   20.1418   -6.7349  -15.5473 C   0  0  0  0  0  0  0  0  0  0  0  0
   18.8741   -6.6229  -16.3205 C   0  0  0  0  0  0  0  0  0  0  0  0
   18.4935   -5.5207  -16.7268 O   0  0  0  0  0  0  0  0  0  0  0  0
   22.4157   -5.4097  -14.2088 C   0  0  0  0  0  0  0  0  0  0  0  0
   22.4793   -6.0245  -13.0852 O   0  0  0  0  0  0  0  0  0  0  0  0
   18.1313   -7.7560  -16.5758 O   0  0  0  0  0  0  0  0  0  0  0  0
   22.2322   -4.0422  -14.0962 O   0  0  0  0  0  0  0  0  0  0  0  0
  2  1  1  6
  2  3  1  0
  4  2  1  0
  4  6  1  0
  4  5  1  1
  6 13  1  0
  6  7  2  0
  9  8  1  0
 10  9  1  0
 11 10  1  0
 12 11  1  6
 13 12  1  0
 14 12  1  0
 14 15  2  0
 16 14  1  0
 17 16  1  0
 17 18  1  1
 19 18  1  0
 19 20  1  0
 20 24  1  0
 20 21  2  0
 22 17  1  0
 23 22  2  0
 25 22  1  0
M  END
$$$$
