TME.pdb
     RDKit          3D

 25 24  0  0  1  0  0  0  0  0999 V2000
   25.1951  -10.6941  -14.6936 C   0  0  0  0  0  0  0  0  0  0  0  0
   25.5523  -11.4130  -15.9464 C   0  0  1  0  0  0  0  0  0  0  0  0
   26.6479  -12.2153  -15.7868 O   0  0  0  0  0  0  0  0  0  0  0  0
   24.3658  -12.1511  -16.5506 C   0  0  2  0  0  0  0  0  0  0  0  0
   24.8185  -12.7906  -17.7810 N   0  0  0  0  0  0  0  0  0  0  0  0
   23.2100  -11.2799  -16.7501 C   0  0  0  0  0  0  0  0  0  0  0  0
   23.2463  -10.4560  -17.7300 O   0  0  0  0  0  0  0  0  0  0  0  0
   15.4332   -9.8804  -16.2843 C   0  0  0  0  0  0  0  0  0  0  0  0
   16.8709  -10.9283  -16.0904 S   0  0  0  0  0  0  0  0  0  0  0  0
   18.4300  -10.0645  -16.2562 C   0  0  0  0  0  0  0  0  0  0  0  0
   19.5722  -11.0313  -15.9624 C   0  0  0  0  0  0  0  0  0  0  0  0
   20.9093  -10.3653  -16.1734 C   0  0  2  0  0  0  0  0  0  0  0  0
   22.0320  -11.2190  -15.9973 N   0  0  0  0  0  0  0  0  0  0  0  0
   20.9141   -9.1330  -15.3534 C   0  0  0  0  0  0  0  0  0  0  0  0
   21.0782   -9.2518  -14.1097 O   0  0  0  0  0  0  0  0  0  0  0  0
   20.7451   -7.8434  -15.9153 N   0  0  0  0  0  0  0  0  0  0  0  0
   20.9179   -6.6624  -15.0316 C   0  0  1  0  0  0  0  0  0  0  0  0
   21.7286   -5.6382  -15.7557 C   0  0  0  0  0  0  0  0  0  0  0  0
   21.9177   -4.4104  -14.9092 C   0  0  0  0  0  0  0  0  0  0  0  0
   22.6934   -3.3709  -15.6408 C   0  0  0  0  0  0  0  0  0  0  0  0
   22.1527   -2.3085  -15.9624 O   0  0  0  0  0  0  0  0  0  0  0  0
   19.5727   -6.2321  -14.6084 C   0  0  0  0  0  0  0  0  0  0  0  0
   18.5574   -6.3677  -15.3799 O   0  0  0  0  0  0  0  0  0  0  0  0
   24.0150   -3.6055  -15.9560 O   0  0  0  0  0  0  0  0  0  0  0  0
   19.2793   -5.6614  -13.3818 O   0  0  0  0  0  0  0  0  0  0  0  0
  2  1  1  1
  2  3  1  0
  4  2  1  0
  4  6  1  0
  4  5  1  6
  6 13  1  0
  6  7  2  0
  9  8  1  0
 10  9  1  0
 11 10  1  0
 12 11  1  1
 13 12  1  0
 14 12  1  0
 14 15  2  0
 16 14  1  0
 17 16  1  0
 17 18  1  6
 19 18  1  0
 19 20  1  0
 20 24  1  0
 20 21  2  0
 22 17  1  0
 23 22  2  0
 25 22  1  0
M  END
$$$$
