TME.pdb
     RDKit          3D

 25 24  0  0  1  0  0  0  0  0999 V2000
   17.7082  -12.9026  -14.3565 C   0  0  0  0  0  0  0  0  0  0  0  0
   17.1079  -11.6226  -13.8925 C   0  0  1  0  0  0  0  0  0  0  0  0
   16.7322  -10.8209  -14.9344 O   0  0  0  0  0  0  0  0  0  0  0  0
   15.9888  -11.8384  -12.8833 C   0  0  2  0  0  0  0  0  0  0  0  0
   14.8948  -12.5168  -13.5693 N   0  0  0  0  0  0  0  0  0  0  0  0
   15.5753  -10.5961  -12.2351 C   0  0  0  0  0  0  0  0  0  0  0  0
   14.7614   -9.8358  -12.8675 O   0  0  0  0  0  0  0  0  0  0  0  0
   10.6961   -9.7229   -8.2649 C   0  0  0  0  0  0  0  0  0  0  0  0
   12.4155   -9.3016   -8.0030 S   0  0  0  0  0  0  0  0  0  0  0  0
   13.3655   -9.1444   -9.5120 C   0  0  0  0  0  0  0  0  0  0  0  0
   14.8260   -8.8828   -9.1598 C   0  0  0  0  0  0  0  0  0  0  0  0
   15.6799   -8.8373  -10.4025 C   0  0  2  0  0  0  0  0  0  0  0  0
   15.9551  -10.1064  -10.9805 N   0  0  0  0  0  0  0  0  0  0  0  0
   16.8681   -8.0147  -10.0823 C   0  0  0  0  0  0  0  0  0  0  0  0
   17.8820   -8.5985   -9.6143 O   0  0  0  0  0  0  0  0  0  0  0  0
   16.9011   -6.6128  -10.2850 N   0  0  0  0  0  0  0  0  0  0  0  0
   18.1955   -5.9064  -10.1084 C   0  0  1  0  0  0  0  0  0  0  0  0
   19.1301   -6.3444  -11.1880 C   0  0  0  0  0  0  0  0  0  0  0  0
   20.3611   -5.4819  -11.2113 C   0  0  0  0  0  0  0  0  0  0  0  0
   21.3270   -5.9565  -12.2404 C   0  0  0  0  0  0  0  0  0  0  0  0
   22.4557   -5.4599  -12.3042 O   0  0  0  0  0  0  0  0  0  0  0  0
   17.9030   -4.4622  -10.0619 C   0  0  0  0  0  0  0  0  0  0  0  0
   18.7846   -3.6170   -9.6708 O   0  0  0  0  0  0  0  0  0  0  0  0
   20.9504   -6.9501  -13.1190 O   0  0  0  0  0  0  0  0  0  0  0  0
   16.6941   -3.8927  -10.4232 O   0  0  0  0  0  0  0  0  0  0  0  0
  2  1  1  6
  2  3  1  0
  4  2  1  0
  4  6  1  0
  4  5  1  6
  6 13  1  0
  6  7  2  0
  9  8  1  0
 10  9  1  0
 11 10  1  0
 12 11  1  1
 13 12  1  0
 14 12  1  0
 14 15  2  0
 16 14  1  0
 17 16  1  0
 17 18  1  6
 19 18  1  0
 19 20  1  0
 20 24  1  0
 20 21  2  0
 22 17  1  0
 23 22  2  0
 25 22  1  0
M  END
$$$$
