TME.pdb
     RDKit          3D

 25 24  0  0  1  0  0  0  0  0999 V2000
   19.3997   -8.7176  -20.3704 C   0  0  0  0  0  0  0  0  0  0  0  0
   18.5357   -9.8305  -19.8918 C   0  0  1  0  0  0  0  0  0  0  0  0
   17.6503  -10.2447  -20.8479 O   0  0  0  0  0  0  0  0  0  0  0  0
   19.3420  -10.9782  -19.3002 C   0  0  2  0  0  0  0  0  0  0  0  0
   18.4038  -12.0174  -18.8909 N   0  0  0  0  0  0  0  0  0  0  0  0
   20.2212  -10.5423  -18.2178 C   0  0  0  0  0  0  0  0  0  0  0  0
   19.6983  -10.3539  -17.0640 O   0  0  0  0  0  0  0  0  0  0  0  0
   27.4262  -10.0111  -14.9057 C   0  0  0  0  0  0  0  0  0  0  0  0
   26.3919  -10.3417  -16.3282 S   0  0  0  0  0  0  0  0  0  0  0  0
   24.6877   -9.8336  -16.1241 C   0  0  0  0  0  0  0  0  0  0  0  0
   23.8896  -10.2509  -17.3547 C   0  0  0  0  0  0  0  0  0  0  0  0
   22.4506   -9.8136  -17.2371 C   0  0  2  0  0  0  0  0  0  0  0  0
   21.5977  -10.2953  -18.2672 N   0  0  0  0  0  0  0  0  0  0  0  0
   22.4574   -8.3448  -17.0538 C   0  0  0  0  0  0  0  0  0  0  0  0
   22.7855   -7.6284  -18.0371 O   0  0  0  0  0  0  0  0  0  0  0  0
   22.1091   -7.7288  -15.8264 N   0  0  0  0  0  0  0  0  0  0  0  0
   21.9585   -6.2516  -15.7981 C   0  0  1  0  0  0  0  0  0  0  0  0
   20.5150   -5.9147  -15.9818 C   0  0  0  0  0  0  0  0  0  0  0  0
   20.2964   -4.4306  -15.8862 C   0  0  0  0  0  0  0  0  0  0  0  0
   18.8482   -4.0965  -15.9778 C   0  0  0  0  0  0  0  0  0  0  0  0
   18.0130   -4.9973  -16.1034 O   0  0  0  0  0  0  0  0  0  0  0  0
   22.5733   -5.7730  -14.5464 C   0  0  0  0  0  0  0  0  0  0  0  0
   22.6023   -6.5080  -13.4960 O   0  0  0  0  0  0  0  0  0  0  0  0
   18.4501   -2.7776  -15.9231 O   0  0  0  0  0  0  0  0  0  0  0  0
   23.1606   -4.5300  -14.3839 O   0  0  0  0  0  0  0  0  0  0  0  0
  2  1  1  6
  2  3  1  0
  4  2  1  0
  4  6  1  0
  4  5  1  1
  6 13  1  0
  6  7  2  0
  9  8  1  0
 10  9  1  0
 11 10  1  0
 12 11  1  6
 13 12  1  0
 14 12  1  0
 14 15  2  0
 16 14  1  0
 17 16  1  0
 17 18  1  1
 19 18  1  0
 19 20  1  0
 20 24  1  0
 20 21  2  0
 22 17  1  0
 23 22  2  0
 25 22  1  0
M  END
$$$$
