IYV.pdb
     RDKit          3D

 28 28  0  0  1  0  0  0  0  0999 V2000
    7.8058  -12.4408   18.2906 C   0  0  0  0  0  0  0  0  0  0  0  0
    7.9945  -13.8930   18.5944 C   0  0  0  0  0  0  0  0  0  0  0  0
    7.8814  -14.1634   20.0594 C   0  0  2  0  0  0  0  0  0  0  0  0
    8.8619  -13.3064   20.8531 C   0  0  0  0  0  0  0  0  0  0  0  0
    8.1469  -15.6388   20.3215 C   0  0  2  0  0  0  0  0  0  0  0  0
    7.0784  -16.3844   19.6625 N   0  0  0  0  0  0  0  0  0  0  0  0
    8.1080  -15.9983   21.7492 C   0  0  0  0  0  0  0  0  0  0  0  0
    6.9955  -16.0539   22.3280 O   0  0  0  0  0  0  0  0  0  0  0  0
   10.8520  -17.9338   30.0243 O   0  0  0  0  0  0  0  0  0  0  0  0
   10.7248  -17.7882   28.6368 C   0  0  0  0  0  0  0  0  0  0  0  0
   11.5007  -16.8963   27.9309 C   0  0  0  0  0  0  0  0  0  0  0  0
   11.3590  -16.7697   26.5675 C   0  0  0  0  0  0  0  0  0  0  0  0
   10.4551  -17.5067   25.8339 C   0  0  0  0  0  0  0  0  0  0  0  0
   10.3439  -17.3296   24.3859 C   0  0  0  0  0  0  0  0  0  0  0  0
    9.1648  -16.4585   23.9599 C   0  0  2  0  0  0  0  0  0  0  0  0
    9.2686  -16.2911   22.5101 N   0  0  0  0  0  0  0  0  0  0  0  0
    9.1800  -15.1847   24.6778 C   0  0  0  0  0  0  0  0  0  0  0  0
   10.1122  -14.3220   24.5134 O   0  0  0  0  0  0  0  0  0  0  0  0
    9.6786  -18.4026   26.5584 C   0  0  0  0  0  0  0  0  0  0  0  0
    9.8122  -18.5379   27.9251 C   0  0  0  0  0  0  0  0  0  0  0  0
    6.7041  -11.6305   27.1205 C   0  0  0  0  0  0  0  0  0  0  0  0
    6.7729  -12.9603   26.4249 C   0  0  1  0  0  0  0  0  0  0  0  0
    6.1500  -12.8051   25.0559 C   0  0  0  0  0  0  0  0  0  0  0  0
    8.1861  -13.4526   26.2201 C   0  0  2  0  0  0  0  0  0  0  0  0
    8.1874  -14.7876   25.6035 N   0  0  0  0  0  0  0  0  0  0  0  0
    8.8143  -13.6029   27.5516 C   0  0  0  0  0  0  0  0  0  0  0  0
    8.8573  -14.7341   28.0866 O   0  0  0  0  0  0  0  0  0  0  0  0
    9.3618  -12.5330   28.2364 O   0  0  0  0  0  0  0  0  0  0  0  0
  2  1  1  0
  3  2  1  0
  3  4  1  1
  5  3  1  0
  5  6  1  6
  7  8  2  0
  7  5  1  0
  9 10  1  0
 10 11  2  0
 11 12  1  0
 13 14  1  0
 13 12  2  0
 15 14  1  1
 15 16  1  0
 16  7  1  0
 17 15  1  0
 17 18  2  0
 19 13  1  0
 20 19  2  0
 20 10  1  0
 22 21  1  6
 23 22  1  0
 24 22  1  0
 24 25  1  1
 25 17  1  0
 26 24  1  0
 27 26  2  0
 28 26  1  0
M  END
$$$$
