IYV.pdb
     RDKit          3D

 28 28  0  0  1  0  0  0  0  0999 V2000
    7.9827  -12.2616   18.0776 C   0  0  0  0  0  0  0  0  0  0  0  0
    8.0942  -13.7305   18.3359 C   0  0  0  0  0  0  0  0  0  0  0  0
    7.6773  -14.0730   19.7290 C   0  0  2  0  0  0  0  0  0  0  0  0
    8.4707  -13.2681   20.7530 C   0  0  0  0  0  0  0  0  0  0  0  0
    7.8814  -15.5626   19.9644 C   0  0  2  0  0  0  0  0  0  0  0  0
    6.9683  -16.2620   19.0650 N   0  0  0  0  0  0  0  0  0  0  0  0
    7.5522  -15.9917   21.3343 C   0  0  0  0  0  0  0  0  0  0  0  0
    6.3492  -15.9961   21.6932 O   0  0  0  0  0  0  0  0  0  0  0  0
    7.8741  -19.3809   29.5116 O   0  0  0  0  0  0  0  0  0  0  0  0
    8.1141  -19.0278   28.1774 C   0  0  0  0  0  0  0  0  0  0  0  0
    7.1159  -19.0676   27.2298 C   0  0  0  0  0  0  0  0  0  0  0  0
    7.3741  -18.7162   25.9242 C   0  0  0  0  0  0  0  0  0  0  0  0
    8.6160  -18.3109   25.4862 C   0  0  0  0  0  0  0  0  0  0  0  0
    8.8357  -17.9513   24.0851 C   0  0  0  0  0  0  0  0  0  0  0  0
    8.1392  -16.6600   23.6634 C   0  0  2  0  0  0  0  0  0  0  0  0
    8.5282  -16.4070   22.2758 N   0  0  0  0  0  0  0  0  0  0  0  0
    8.5012  -15.5633   24.5602 C   0  0  0  0  0  0  0  0  0  0  0  0
    9.6743  -15.0495   24.5678 O   0  0  0  0  0  0  0  0  0  0  0  0
    9.6139  -18.2753   26.4523 C   0  0  0  0  0  0  0  0  0  0  0  0
    9.3665  -18.6254   27.7638 C   0  0  0  0  0  0  0  0  0  0  0  0
    7.0960  -11.8872   27.6505 C   0  0  0  0  0  0  0  0  0  0  0  0
    6.7707  -13.0562   26.7649 C   0  0  1  0  0  0  0  0  0  0  0  0
    6.0828  -12.5279   25.5263 C   0  0  0  0  0  0  0  0  0  0  0  0
    7.9939  -13.8153   26.3077 C   0  0  2  0  0  0  0  0  0  0  0  0
    7.6103  -14.9733   25.4866 N   0  0  0  0  0  0  0  0  0  0  0  0
    8.6705  -14.3555   27.5080 C   0  0  0  0  0  0  0  0  0  0  0  0
    8.3472  -15.4857   27.9392 O   0  0  0  0  0  0  0  0  0  0  0  0
    9.6561  -13.6551   28.1798 O   0  0  0  0  0  0  0  0  0  0  0  0
  2  1  1  0
  3  2  1  0
  3  4  1  1
  5  3  1  0
  5  6  1  6
  7  8  2  0
  7  5  1  0
  9 10  1  0
 10 11  2  0
 11 12  1  0
 13 14  1  0
 13 12  2  0
 15 14  1  1
 15 16  1  0
 16  7  1  0
 17 15  1  0
 17 18  2  0
 19 13  1  0
 20 19  2  0
 20 10  1  0
 22 21  1  1
 23 22  1  0
 24 22  1  0
 24 25  1  6
 25 17  1  0
 26 24  1  0
 27 26  2  0
 28 26  1  0
M  END
$$$$
