IYV.pdb
     RDKit          3D

 28 28  0  0  1  0  0  0  0  0999 V2000
    7.8602  -12.2938   18.0525 C   0  0  0  0  0  0  0  0  0  0  0  0
    7.9060  -13.7580   18.3543 C   0  0  0  0  0  0  0  0  0  0  0  0
    7.5897  -14.0298   19.7889 C   0  0  2  0  0  0  0  0  0  0  0  0
    8.5128  -13.2427   20.7131 C   0  0  0  0  0  0  0  0  0  0  0  0
    7.7260  -15.5208   20.0613 C   0  0  2  0  0  0  0  0  0  0  0  0
    6.7139  -16.1929   19.2515 N   0  0  0  0  0  0  0  0  0  0  0  0
    7.4705  -15.8876   21.4646 C   0  0  0  0  0  0  0  0  0  0  0  0
    6.2870  -15.8881   21.8830 O   0  0  0  0  0  0  0  0  0  0  0  0
    8.2199  -19.2347   29.6278 O   0  0  0  0  0  0  0  0  0  0  0  0
    8.3687  -18.8904   28.2781 C   0  0  0  0  0  0  0  0  0  0  0  0
    7.3035  -18.9136   27.4060 C   0  0  0  0  0  0  0  0  0  0  0  0
    7.4725  -18.5713   26.0834 C   0  0  0  0  0  0  0  0  0  0  0  0
    8.6868  -18.1918   25.5543 C   0  0  0  0  0  0  0  0  0  0  0  0
    8.8107  -17.8408   24.1394 C   0  0  0  0  0  0  0  0  0  0  0  0
    8.1692  -16.5037   23.7772 C   0  0  2  0  0  0  0  0  0  0  0  0
    8.4973  -16.2468   22.3746 N   0  0  0  0  0  0  0  0  0  0  0  0
    8.6425  -15.4471   24.6704 C   0  0  0  0  0  0  0  0  0  0  0  0
    9.8368  -14.9889   24.6096 O   0  0  0  0  0  0  0  0  0  0  0  0
    9.7530  -18.1728   26.4449 C   0  0  0  0  0  0  0  0  0  0  0  0
    9.5951  -18.5139   27.7726 C   0  0  0  0  0  0  0  0  0  0  0  0
    6.9321  -11.9535   25.5916 C   0  0  0  0  0  0  0  0  0  0  0  0
    7.3108  -12.7385   26.8152 C   0  0  1  0  0  0  0  0  0  0  0  0
    6.0781  -13.4633   27.3064 C   0  0  0  0  0  0  0  0  0  0  0  0
    8.3677  -13.7841   26.5481 C   0  0  2  0  0  0  0  0  0  0  0  0
    7.8445  -14.8389   25.6671 N   0  0  0  0  0  0  0  0  0  0  0  0
    8.6998  -14.4360   27.8346 C   0  0  0  0  0  0  0  0  0  0  0  0
    8.2321  -15.5695   28.0878 O   0  0  0  0  0  0  0  0  0  0  0  0
    9.5147  -13.8375   28.7785 O   0  0  0  0  0  0  0  0  0  0  0  0
  2  1  1  0
  3  2  1  0
  3  4  1  1
  5  3  1  0
  5  6  1  6
  7  8  2  0
  7  5  1  0
  9 10  1  0
 10 11  2  0
 11 12  1  0
 13 14  1  0
 13 12  2  0
 15 14  1  1
 15 16  1  0
 16  7  1  0
 17 15  1  0
 17 18  2  0
 19 13  1  0
 20 19  2  0
 20 10  1  0
 22 21  1  6
 23 22  1  0
 24 22  1  0
 24 25  1  6
 25 17  1  0
 26 24  1  0
 27 26  2  0
 28 26  1  0
M  END
$$$$
