IYV.pdb
     RDKit          3D

 28 28  0  0  1  0  0  0  0  0999 V2000
    5.9489  -23.3696   25.8964 C   0  0  0  0  0  0  0  0  0  0  0  0
    5.2804  -22.5166   24.8656 C   0  0  0  0  0  0  0  0  0  0  0  0
    6.1917  -21.4398   24.3737 C   0  0  2  0  0  0  0  0  0  0  0  0
    6.6468  -20.5404   25.5182 C   0  0  0  0  0  0  0  0  0  0  0  0
    5.4726  -20.6152   23.3160 C   0  0  2  0  0  0  0  0  0  0  0  0
    5.0954  -21.5349   22.2467 N   0  0  0  0  0  0  0  0  0  0  0  0
    6.3166  -19.5711   22.7106 C   0  0  0  0  0  0  0  0  0  0  0  0
    7.3371  -19.9173   22.0668 O   0  0  0  0  0  0  0  0  0  0  0  0
    9.0480  -11.8620   19.2603 O   0  0  0  0  0  0  0  0  0  0  0  0
    8.3417  -12.8619   19.9412 C   0  0  0  0  0  0  0  0  0  0  0  0
    7.9888  -12.7220   21.2647 C   0  0  0  0  0  0  0  0  0  0  0  0
    7.2946  -13.7175   21.9143 C   0  0  0  0  0  0  0  0  0  0  0  0
    6.9148  -14.8919   21.3018 C   0  0  0  0  0  0  0  0  0  0  0  0
    6.1803  -15.9188   22.0410 C   0  0  0  0  0  0  0  0  0  0  0  0
    6.9689  -17.2086   22.2533 C   0  0  2  0  0  0  0  0  0  0  0  0
    6.0341  -18.1850   22.8133 N   0  0  0  0  0  0  0  0  0  0  0  0
    8.1223  -16.9699   23.1199 C   0  0  0  0  0  0  0  0  0  0  0  0
    7.9941  -16.5556   24.3249 O   0  0  0  0  0  0  0  0  0  0  0  0
    7.2773  -15.0202   19.9667 C   0  0  0  0  0  0  0  0  0  0  0  0
    7.9731  -14.0288   19.3056 C   0  0  0  0  0  0  0  0  0  0  0  0
   12.5212  -17.9707   24.8333 C   0  0  0  0  0  0  0  0  0  0  0  0
   11.2559  -18.1870   24.0529 C   0  0  1  0  0  0  0  0  0  0  0  0
   10.2766  -18.9190   24.9425 C   0  0  0  0  0  0  0  0  0  0  0  0
   10.5938  -16.8990   23.6237 C   0  0  2  0  0  0  0  0  0  0  0  0
    9.4645  -17.1703   22.7218 N   0  0  0  0  0  0  0  0  0  0  0  0
   11.5787  -16.1180   22.8425 C   0  0  0  0  0  0  0  0  0  0  0  0
   11.6044  -16.2330   21.5959 O   0  0  0  0  0  0  0  0  0  0  0  0
   12.4815  -15.2570   23.4399 O   0  0  0  0  0  0  0  0  0  0  0  0
  2  1  1  0
  3  2  1  0
  3  4  1  1
  5  3  1  0
  5  6  1  6
  7  8  2  0
  7  5  1  0
  9 10  1  0
 10 11  2  0
 11 12  1  0
 13 14  1  0
 13 12  2  0
 15 14  1  1
 15 16  1  0
 16  7  1  0
 17 15  1  0
 17 18  2  0
 19 13  1  0
 20 19  2  0
 20 10  1  0
 22 21  1  1
 23 22  1  0
 24 22  1  0
 24 25  1  6
 25 17  1  0
 26 24  1  0
 27 26  2  0
 28 26  1  0
M  END
$$$$
