IYV.pdb
     RDKit          3D

 28 28  0  0  1  0  0  0  0  0999 V2000
    7.4362  -11.9832   20.5311 C   0  0  0  0  0  0  0  0  0  0  0  0
    7.2942  -13.4714   20.5766 C   0  0  0  0  0  0  0  0  0  0  0  0
    8.3812  -14.1473   19.8063 C   0  0  2  0  0  0  0  0  0  0  0  0
    8.3151  -13.7813   18.3273 C   0  0  0  0  0  0  0  0  0  0  0  0
    8.2577  -15.6544   19.9771 C   0  0  2  0  0  0  0  0  0  0  0  0
    6.9620  -16.0380   19.4243 N   0  0  0  0  0  0  0  0  0  0  0  0
    8.2736  -16.0897   21.3840 C   0  0  0  0  0  0  0  0  0  0  0  0
    7.1813  -16.3293   21.9545 O   0  0  0  0  0  0  0  0  0  0  0  0
   10.0179  -22.6578   21.2885 O   0  0  0  0  0  0  0  0  0  0  0  0
   10.1548  -21.4076   21.9055 C   0  0  0  0  0  0  0  0  0  0  0  0
    9.5591  -21.1314   23.1158 C   0  0  0  0  0  0  0  0  0  0  0  0
    9.7069  -19.8958   23.7043 C   0  0  0  0  0  0  0  0  0  0  0  0
   10.4416  -18.8767   23.1385 C   0  0  0  0  0  0  0  0  0  0  0  0
   10.5633  -17.5807   23.8065 C   0  0  0  0  0  0  0  0  0  0  0  0
    9.3907  -16.6392   23.5441 C   0  0  2  0  0  0  0  0  0  0  0  0
    9.4658  -16.2578   22.1335 N   0  0  0  0  0  0  0  0  0  0  0  0
    9.4437  -15.4877   24.4438 C   0  0  0  0  0  0  0  0  0  0  0  0
   10.3387  -14.5783   24.3331 O   0  0  0  0  0  0  0  0  0  0  0  0
   11.0371  -19.1686   21.9176 C   0  0  0  0  0  0  0  0  0  0  0  0
   10.8957  -20.4037   21.3186 C   0  0  0  0  0  0  0  0  0  0  0  0
    7.0680  -12.2220   27.2477 C   0  0  0  0  0  0  0  0  0  0  0  0
    7.1264  -13.5192   26.4922 C   0  0  1  0  0  0  0  0  0  0  0  0
    6.5317  -13.2895   25.1211 C   0  0  0  0  0  0  0  0  0  0  0  0
    8.5343  -14.0272   26.2896 C   0  0  2  0  0  0  0  0  0  0  0  0
    8.5307  -15.2686   25.5014 N   0  0  0  0  0  0  0  0  0  0  0  0
    9.0902  -14.3726   27.6170 C   0  0  0  0  0  0  0  0  0  0  0  0
    8.8480  -15.4974   28.1108 O   0  0  0  0  0  0  0  0  0  0  0  0
    9.8747  -13.4938   28.3419 O   0  0  0  0  0  0  0  0  0  0  0  0
  2  1  1  0
  3  2  1  0
  3  4  1  6
  5  3  1  0
  5  6  1  1
  7  8  2  0
  7  5  1  0
  9 10  1  0
 10 11  2  0
 11 12  1  0
 13 14  1  0
 13 12  2  0
 15 14  1  1
 15 16  1  0
 16  7  1  0
 17 15  1  0
 17 18  2  0
 19 13  1  0
 20 19  2  0
 20 10  1  0
 22 21  1  1
 23 22  1  0
 24 22  1  0
 24 25  1  6
 25 17  1  0
 26 24  1  0
 27 26  2  0
 28 26  1  0
M  END
$$$$
