IYV.pdb
     RDKit          3D

 28 28  0  0  1  0  0  0  0  0999 V2000
   10.5543  -22.1765   22.8168 C   0  0  0  0  0  0  0  0  0  0  0  0
    9.5704  -21.1506   22.3516 C   0  0  0  0  0  0  0  0  0  0  0  0
   10.0178  -19.7682   22.6991 C   0  0  2  0  0  0  0  0  0  0  0  0
   10.2352  -19.6229   24.2016 C   0  0  0  0  0  0  0  0  0  0  0  0
    8.9755  -18.7666   22.2232 C   0  0  2  0  0  0  0  0  0  0  0  0
    8.7862  -18.9997   20.7944 N   0  0  0  0  0  0  0  0  0  0  0  0
    9.3940  -17.3633   22.3806 C   0  0  0  0  0  0  0  0  0  0  0  0
   10.3385  -16.9319   21.6750 O   0  0  0  0  0  0  0  0  0  0  0  0
    6.9076  -13.2017   17.8463 O   0  0  0  0  0  0  0  0  0  0  0  0
    7.2276  -13.4328   19.1904 C   0  0  0  0  0  0  0  0  0  0  0  0
    8.2665  -12.7734   19.8082 C   0  0  0  0  0  0  0  0  0  0  0  0
    8.5634  -13.0158   21.1303 C   0  0  0  0  0  0  0  0  0  0  0  0
    7.8606  -13.9112   21.9067 C   0  0  0  0  0  0  0  0  0  0  0  0
    8.2212  -14.1327   23.3072 C   0  0  0  0  0  0  0  0  0  0  0  0
    9.3552  -15.1362   23.5007 C   0  0  2  0  0  0  0  0  0  0  0  0
    8.7802  -16.4652   23.2906 N   0  0  0  0  0  0  0  0  0  0  0  0
    9.9567  -14.9843   24.8248 C   0  0  0  0  0  0  0  0  0  0  0  0
   10.5631  -13.9129   25.1779 O   0  0  0  0  0  0  0  0  0  0  0  0
    6.8151  -14.5696   21.2711 C   0  0  0  0  0  0  0  0  0  0  0  0
    6.5086  -14.3343   19.9464 C   0  0  0  0  0  0  0  0  0  0  0  0
   10.1773  -14.3846   29.2681 C   0  0  0  0  0  0  0  0  0  0  0  0
    9.6501  -14.7014   27.8974 C   0  0  1  0  0  0  0  0  0  0  0  0
    9.7121  -13.4383   27.0686 C   0  0  0  0  0  0  0  0  0  0  0  0
   10.4620  -15.7505   27.1752 C   0  0  2  0  0  0  0  0  0  0  0  0
    9.9274  -15.9834   25.8253 N   0  0  0  0  0  0  0  0  0  0  0  0
   10.3173  -17.0262   27.9115 C   0  0  0  0  0  0  0  0  0  0  0  0
    9.6178  -17.9422   27.4221 O   0  0  0  0  0  0  0  0  0  0  0  0
   10.9301  -17.2500   29.1312 O   0  0  0  0  0  0  0  0  0  0  0  0
  2  1  1  0
  3  2  1  0
  3  4  1  1
  5  3  1  0
  5  6  1  6
  7  8  2  0
  7  5  1  0
  9 10  1  0
 10 11  2  0
 11 12  1  0
 13 14  1  0
 13 12  2  0
 15 14  1  1
 15 16  1  0
 16  7  1  0
 17 15  1  0
 17 18  2  0
 19 13  1  0
 20 19  2  0
 20 10  1  0
 22 21  1  1
 23 22  1  0
 24 22  1  0
 24 25  1  6
 25 17  1  0
 26 24  1  0
 27 26  2  0
 28 26  1  0
M  END
$$$$
