IYV.pdb
     RDKit          3D

 28 28  0  0  1  0  0  0  0  0999 V2000
    7.5942  -15.2443   16.7637 C   0  0  0  0  0  0  0  0  0  0  0  0
    7.3643  -14.2965   17.8976 C   0  0  0  0  0  0  0  0  0  0  0  0
    8.0228  -14.7745   19.1506 C   0  0  2  0  0  0  0  0  0  0  0  0
    7.6305  -16.2150   19.4618 C   0  0  0  0  0  0  0  0  0  0  0  0
    7.6289  -13.8651   20.3055 C   0  0  2  0  0  0  0  0  0  0  0  0
    8.0527  -12.5153   19.9445 N   0  0  0  0  0  0  0  0  0  0  0  0
    8.2965  -14.2033   21.5739 C   0  0  0  0  0  0  0  0  0  0  0  0
    9.5093  -13.9115   21.7147 O   0  0  0  0  0  0  0  0  0  0  0  0
    6.1733   -9.9595   27.0084 O   0  0  0  0  0  0  0  0  0  0  0  0
    6.4608  -11.2398   26.5180 C   0  0  0  0  0  0  0  0  0  0  0  0
    7.7445  -11.7379   26.5102 C   0  0  0  0  0  0  0  0  0  0  0  0
    8.0043  -12.9990   26.0236 C   0  0  0  0  0  0  0  0  0  0  0  0
    7.0244  -13.8286   25.5236 C   0  0  0  0  0  0  0  0  0  0  0  0
    7.3570  -15.1597   25.0157 C   0  0  0  0  0  0  0  0  0  0  0  0
    8.3763  -15.1492   23.8793 C   0  0  2  0  0  0  0  0  0  0  0  0
    7.6368  -14.8422   22.6547 N   0  0  0  0  0  0  0  0  0  0  0  0
    9.0807  -16.4286   23.8078 C   0  0  0  0  0  0  0  0  0  0  0  0
    8.4951  -17.5085   23.4457 O   0  0  0  0  0  0  0  0  0  0  0  0
    5.7339  -13.3138   25.5372 C   0  0  0  0  0  0  0  0  0  0  0  0
    5.4619  -12.0511   26.0227 C   0  0  0  0  0  0  0  0  0  0  0  0
   13.2695  -19.1256   23.7994 C   0  0  0  0  0  0  0  0  0  0  0  0
   12.5263  -17.8248   23.6878 C   0  0  1  0  0  0  0  0  0  0  0  0
   12.5105  -17.4183   22.2315 C   0  0  0  0  0  0  0  0  0  0  0  0
   11.0886  -17.9199   24.1411 C   0  0  2  0  0  0  0  0  0  0  0  0
   10.4492  -16.5958   24.1230 N   0  0  0  0  0  0  0  0  0  0  0  0
   11.0836  -18.3708   25.5507 C   0  0  0  0  0  0  0  0  0  0  0  0
   11.2756  -19.5808   25.8094 O   0  0  0  0  0  0  0  0  0  0  0  0
   10.8733  -17.5006   26.6051 O   0  0  0  0  0  0  0  0  0  0  0  0
  2  1  1  0
  3  2  1  0
  3  4  1  1
  5  3  1  0
  5  6  1  6
  7  8  2  0
  7  5  1  0
  9 10  1  0
 10 11  2  0
 11 12  1  0
 13 14  1  0
 13 12  2  0
 15 14  1  1
 15 16  1  0
 16  7  1  0
 17 15  1  0
 17 18  2  0
 19 13  1  0
 20 19  2  0
 20 10  1  0
 22 21  1  6
 23 22  1  0
 24 22  1  0
 24 25  1  1
 25 17  1  0
 26 24  1  0
 27 26  2  0
 28 26  1  0
M  END
$$$$
