DVY.pdb
     RDKit          3D

 28 28  0  0  1  0  0  0  0  0999 V2000
    8.4985  -18.0737   18.6856 N   0  0  0  0  0  0  0  0  0  0  0  0
    9.8322  -17.5334   18.5064 C   0  0  1  0  0  0  0  0  0  0  0  0
    9.9669  -17.1654   17.0423 C   0  0  0  0  0  0  0  0  0  0  0  0
   10.3658  -18.4046   16.3217 C   0  0  0  0  0  0  0  0  0  0  0  0
   11.2424  -19.1615   16.8095 O   0  0  0  0  0  0  0  0  0  0  0  0
   10.0429  -16.3456   19.3877 C   0  0  0  0  0  0  0  0  0  0  0  0
   11.1713  -15.8988   19.6422 O   0  0  0  0  0  0  0  0  0  0  0  0
    9.8069  -18.7817   15.1049 O   0  0  0  0  0  0  0  0  0  0  0  0
    7.6822  -13.2298   19.2569 C   0  0  0  0  0  0  0  0  0  0  0  0
    7.7447  -13.7908   20.6331 C   0  0  2  0  0  0  0  0  0  0  0  0
    7.6747  -12.7310   21.7101 C   0  0  0  0  0  0  0  0  0  0  0  0
    9.0116  -14.6096   20.9075 C   0  0  2  0  0  0  0  0  0  0  0  0
    8.9149  -15.7179   19.9442 N   0  0  0  0  0  0  0  0  0  0  0  0
    8.9390  -15.2515   22.2649 C   0  0  0  0  0  0  0  0  0  0  0  0
    8.1532  -16.2365   22.4921 O   0  0  0  0  0  0  0  0  0  0  0  0
    5.9060  -11.2633   27.7261 O   0  0  0  0  0  0  0  0  0  0  0  0
    6.4478  -12.3593   27.0246 C   0  0  0  0  0  0  0  0  0  0  0  0
    5.6270  -13.3295   26.4891 C   0  0  0  0  0  0  0  0  0  0  0  0
    6.1730  -14.4160   25.7930 C   0  0  0  0  0  0  0  0  0  0  0  0
    7.5339  -14.5309   25.6337 C   0  0  0  0  0  0  0  0  0  0  0  0
    8.1617  -15.6534   24.9201 C   0  0  0  0  0  0  0  0  0  0  0  0
    9.6237  -15.4872   24.6417 C   0  0  2  0  0  0  0  0  0  0  0  0
    9.7266  -14.8099   23.3586 N   0  0  0  0  0  0  0  0  0  0  0  0
   10.2874  -16.7940   24.5885 C   0  0  0  0  0  0  0  0  0  0  0  0
   10.0209  -17.6292   23.6586 O   0  0  0  0  0  0  0  0  0  0  0  0
    8.3332  -13.5526   26.1758 C   0  0  0  0  0  0  0  0  0  0  0  0
    7.8071  -12.4774   26.8636 C   0  0  0  0  0  0  0  0  0  0  0  0
   11.2294  -17.2183   25.5122 O   0  0  0  0  0  0  0  0  0  0  0  0
  2  1  1  6
  2  6  1  0
  3  2  1  0
  4  3  1  0
  4  5  2  0
  6 13  1  0
  6  7  2  0
  8  4  1  0
 10  9  1  6
 10 11  1  0
 12 10  1  0
 12 13  1  6
 14 12  1  0
 14 23  1  0
 15 14  2  0
 16 17  1  0
 17 18  2  0
 18 19  1  0
 20 19  2  0
 20 21  1  0
 22 21  1  6
 22 23  1  0
 22 24  1  0
 24 28  1  0
 25 24  2  0
 26 20  1  0
 27 17  1  0
 27 26  2  0
M  END
$$$$
