DVY.pdb
     RDKit          3D

 28 28  0  0  1  0  0  0  0  0999 V2000
    9.4458  -19.0179   19.3907 N   0  0  0  0  0  0  0  0  0  0  0  0
    8.8774  -18.6447   20.6715 C   0  0  1  0  0  0  0  0  0  0  0  0
    9.4509  -19.5953   21.7033 C   0  0  0  0  0  0  0  0  0  0  0  0
    9.0189  -20.9650   21.3140 C   0  0  0  0  0  0  0  0  0  0  0  0
    8.4441  -21.1543   20.2127 O   0  0  0  0  0  0  0  0  0  0  0  0
    9.2036  -17.2242   20.9996 C   0  0  0  0  0  0  0  0  0  0  0  0
   10.3064  -16.7191   20.7416 O   0  0  0  0  0  0  0  0  0  0  0  0
    9.2218  -22.0777   22.1240 O   0  0  0  0  0  0  0  0  0  0  0  0
    6.7252  -14.2695   20.3894 C   0  0  0  0  0  0  0  0  0  0  0  0
    7.1043  -14.3713   21.8242 C   0  0  2  0  0  0  0  0  0  0  0  0
    7.1736  -13.0284   22.5168 C   0  0  0  0  0  0  0  0  0  0  0  0
    8.4576  -15.0533   22.0567 C   0  0  2  0  0  0  0  0  0  0  0  0
    8.2184  -16.4391   21.6235 N   0  0  0  0  0  0  0  0  0  0  0  0
    8.7570  -15.1397   23.5274 C   0  0  0  0  0  0  0  0  0  0  0  0
    8.4902  -14.1677   24.3171 O   0  0  0  0  0  0  0  0  0  0  0  0
    6.7048  -10.7359   26.9454 O   0  0  0  0  0  0  0  0  0  0  0  0
    7.0678  -12.0841   26.7521 C   0  0  0  0  0  0  0  0  0  0  0  0
    6.1793  -12.9814   26.1979 C   0  0  0  0  0  0  0  0  0  0  0  0
    6.5474  -14.3198   26.0087 C   0  0  0  0  0  0  0  0  0  0  0  0
    7.7989  -14.7583   26.3725 C   0  0  0  0  0  0  0  0  0  0  0  0
    8.2358  -16.1527   26.2047 C   0  0  0  0  0  0  0  0  0  0  0  0
    9.5740  -16.3220   25.5543 C   0  0  2  0  0  0  0  0  0  0  0  0
    9.3440  -16.2875   24.1184 N   0  0  0  0  0  0  0  0  0  0  0  0
   10.1777  -17.5993   25.9482 C   0  0  0  0  0  0  0  0  0  0  0  0
   10.5603  -17.8025   27.1505 O   0  0  0  0  0  0  0  0  0  0  0  0
    8.6684  -13.8470   26.9233 C   0  0  0  0  0  0  0  0  0  0  0  0
    8.3173  -12.5256   27.1145 C   0  0  0  0  0  0  0  0  0  0  0  0
   10.3762  -18.6590   25.0775 O   0  0  0  0  0  0  0  0  0  0  0  0
  2  1  1  6
  2  6  1  0
  3  2  1  0
  4  3  1  0
  4  5  2  0
  6 13  1  0
  6  7  2  0
  8  4  1  0
 10  9  1  6
 10 11  1  0
 12 10  1  0
 12 13  1  1
 14 12  1  0
 14 23  1  0
 15 14  2  0
 16 17  1  0
 17 18  2  0
 18 19  1  0
 20 19  2  0
 20 21  1  0
 22 21  1  1
 22 23  1  0
 22 24  1  0
 24 28  1  0
 25 24  2  0
 26 20  1  0
 27 17  1  0
 27 26  2  0
M  END
$$$$
