DVY.pdb
     RDKit          3D

 28 28  0  0  1  0  0  0  0  0999 V2000
    8.6002  -18.9126   18.4309 N   0  0  0  0  0  0  0  0  0  0  0  0
    8.0785  -18.3044   19.6395 C   0  0  1  0  0  0  0  0  0  0  0  0
    8.3345  -19.2798   20.7710 C   0  0  0  0  0  0  0  0  0  0  0  0
    7.8662  -20.6129   20.3045 C   0  0  0  0  0  0  0  0  0  0  0  0
    7.4403  -20.7549   19.1307 O   0  0  0  0  0  0  0  0  0  0  0  0
    8.7387  -16.9889   19.8953 C   0  0  0  0  0  0  0  0  0  0  0  0
    9.9291  -16.7781   19.6192 O   0  0  0  0  0  0  0  0  0  0  0  0
    7.8742  -21.7414   21.1180 O   0  0  0  0  0  0  0  0  0  0  0  0
    6.5266  -13.5837   19.4337 C   0  0  0  0  0  0  0  0  0  0  0  0
    7.2195  -13.7416   20.7405 C   0  0  2  0  0  0  0  0  0  0  0  0
    7.6212  -12.4228   21.3628 C   0  0  0  0  0  0  0  0  0  0  0  0
    8.4915  -14.5942   20.6641 C   0  0  2  0  0  0  0  0  0  0  0  0
    7.9748  -15.9583   20.4702 N   0  0  0  0  0  0  0  0  0  0  0  0
    9.1904  -14.6162   21.9949 C   0  0  0  0  0  0  0  0  0  0  0  0
    9.6168  -13.5381   22.5384 O   0  0  0  0  0  0  0  0  0  0  0  0
   10.5429  -14.6830   30.3863 O   0  0  0  0  0  0  0  0  0  0  0  0
   10.1662  -14.7873   29.0320 C   0  0  0  0  0  0  0  0  0  0  0  0
    9.6870  -15.9759   28.5226 C   0  0  0  0  0  0  0  0  0  0  0  0
    9.3145  -16.0717   27.1754 C   0  0  0  0  0  0  0  0  0  0  0  0
    9.4210  -14.9832   26.3419 C   0  0  0  0  0  0  0  0  0  0  0  0
    9.0527  -15.0290   24.9188 C   0  0  0  0  0  0  0  0  0  0  0  0
   10.0188  -15.7604   24.0389 C   0  0  2  0  0  0  0  0  0  0  0  0
    9.4147  -15.8161   22.7169 N   0  0  0  0  0  0  0  0  0  0  0  0
   10.2577  -17.1131   24.5529 C   0  0  0  0  0  0  0  0  0  0  0  0
   11.3608  -17.4142   25.1236 O   0  0  0  0  0  0  0  0  0  0  0  0
    9.9013  -13.8086   26.8708 C   0  0  0  0  0  0  0  0  0  0  0  0
   10.2714  -13.7018   28.1965 C   0  0  0  0  0  0  0  0  0  0  0  0
    9.3360  -18.1445   24.4663 O   0  0  0  0  0  0  0  0  0  0  0  0
  2  1  1  6
  2  6  1  0
  3  2  1  0
  4  3  1  0
  4  5  2  0
  6 13  1  0
  6  7  2  0
  8  4  1  0
 10  9  1  6
 10 11  1  0
 12 10  1  0
 12 13  1  1
 14 12  1  0
 14 23  1  0
 15 14  2  0
 16 17  1  0
 17 18  2  0
 18 19  1  0
 20 19  2  0
 20 21  1  0
 22 21  1  1
 22 23  1  0
 22 24  1  0
 24 28  1  0
 25 24  2  0
 26 20  1  0
 27 17  1  0
 27 26  2  0
M  END
$$$$
