DVY.pdb
     RDKit          3D

 28 28  0  0  1  0  0  0  0  0999 V2000
    9.6906  -18.2742   18.4175 N   0  0  0  0  0  0  0  0  0  0  0  0
   10.9338  -17.7428   18.9418 C   0  0  1  0  0  0  0  0  0  0  0  0
   11.7580  -17.2919   17.7525 C   0  0  0  0  0  0  0  0  0  0  0  0
   12.5900  -18.4544   17.3396 C   0  0  0  0  0  0  0  0  0  0  0  0
   12.1469  -19.6231   17.4698 O   0  0  0  0  0  0  0  0  0  0  0  0
   10.6693  -16.6114   19.8810 C   0  0  0  0  0  0  0  0  0  0  0  0
   11.5817  -15.9456   20.3928 O   0  0  0  0  0  0  0  0  0  0  0  0
   13.8658  -18.3150   16.8029 O   0  0  0  0  0  0  0  0  0  0  0  0
    6.8400  -13.9661   21.6908 C   0  0  0  0  0  0  0  0  0  0  0  0
    7.4631  -15.0269   20.8546 C   0  0  2  0  0  0  0  0  0  0  0  0
    6.8191  -16.3831   21.0390 C   0  0  0  0  0  0  0  0  0  0  0  0
    8.9620  -15.2159   21.1157 C   0  0  2  0  0  0  0  0  0  0  0  0
    9.3343  -16.2974   20.1899 N   0  0  0  0  0  0  0  0  0  0  0  0
    9.1897  -15.7723   22.4936 C   0  0  0  0  0  0  0  0  0  0  0  0
    9.1973  -17.0349   22.7065 O   0  0  0  0  0  0  0  0  0  0  0  0
   10.7973  -15.8734   31.2942 O   0  0  0  0  0  0  0  0  0  0  0  0
   10.6234  -15.5392   29.9359 C   0  0  0  0  0  0  0  0  0  0  0  0
   11.1678  -16.3239   28.9411 C   0  0  0  0  0  0  0  0  0  0  0  0
   10.9906  -15.9853   27.5932 C   0  0  0  0  0  0  0  0  0  0  0  0
   10.2719  -14.8668   27.2425 C   0  0  0  0  0  0  0  0  0  0  0  0
   10.0613  -14.4594   25.8450 C   0  0  0  0  0  0  0  0  0  0  0  0
    9.5600  -15.5417   24.9396 C   0  0  2  0  0  0  0  0  0  0  0  0
    9.4070  -14.9425   23.6230 N   0  0  0  0  0  0  0  0  0  0  0  0
    8.2752  -16.0595   25.4219 C   0  0  0  0  0  0  0  0  0  0  0  0
    8.2163  -17.1352   26.1093 O   0  0  0  0  0  0  0  0  0  0  0  0
    9.7383  -14.0989   28.2503 C   0  0  0  0  0  0  0  0  0  0  0  0
    9.9060  -14.4223   29.5820 C   0  0  0  0  0  0  0  0  0  0  0  0
    7.0570  -15.4444   25.1807 O   0  0  0  0  0  0  0  0  0  0  0  0
  2  1  1  6
  2  6  1  0
  3  2  1  0
  4  3  1  0
  4  5  2  0
  6 13  1  0
  6  7  2  0
  8  4  1  0
 10  9  1  1
 10 11  1  0
 12 10  1  0
 12 13  1  6
 14 12  1  0
 14 23  1  0
 15 14  2  0
 16 17  1  0
 17 18  2  0
 18 19  1  0
 20 19  2  0
 20 21  1  0
 22 21  1  1
 22 23  1  0
 22 24  1  0
 24 28  1  0
 25 24  2  0
 26 20  1  0
 27 17  1  0
 27 26  2  0
M  END
$$$$
