DVY.pdb
     RDKit          3D

 28 28  0  0  1  0  0  0  0  0999 V2000
    8.1802  -18.1294   19.2758 N   0  0  0  0  0  0  0  0  0  0  0  0
    9.5698  -17.7458   19.1181 C   0  0  1  0  0  0  0  0  0  0  0  0
    9.8979  -17.8704   17.6436 C   0  0  0  0  0  0  0  0  0  0  0  0
    9.8233  -19.3178   17.3066 C   0  0  0  0  0  0  0  0  0  0  0  0
    8.7282  -19.9281   17.3925 O   0  0  0  0  0  0  0  0  0  0  0  0
    9.7912  -16.3523   19.6090 C   0  0  0  0  0  0  0  0  0  0  0  0
   10.9024  -15.8032   19.5709 O   0  0  0  0  0  0  0  0  0  0  0  0
   10.9288  -20.0524   16.8904 O   0  0  0  0  0  0  0  0  0  0  0  0
    7.3582  -12.2559   20.9230 C   0  0  0  0  0  0  0  0  0  0  0  0
    7.5115  -13.6173   20.3434 C   0  0  2  0  0  0  0  0  0  0  0  0
    6.3910  -14.5569   20.7298 C   0  0  0  0  0  0  0  0  0  0  0  0
    8.8200  -14.3114   20.7395 C   0  0  2  0  0  0  0  0  0  0  0  0
    8.6942  -15.6456   20.1316 N   0  0  0  0  0  0  0  0  0  0  0  0
    8.8605  -14.5496   22.2233 C   0  0  0  0  0  0  0  0  0  0  0  0
    7.9645  -14.0635   22.9981 O   0  0  0  0  0  0  0  0  0  0  0  0
    7.5416  -20.2921   28.3412 O   0  0  0  0  0  0  0  0  0  0  0  0
    7.7306  -19.4029   27.2640 C   0  0  0  0  0  0  0  0  0  0  0  0
    7.1390  -19.6404   26.0411 C   0  0  0  0  0  0  0  0  0  0  0  0
    7.3314  -18.7519   24.9751 C   0  0  0  0  0  0  0  0  0  0  0  0
    8.1122  -17.6310   25.1321 C   0  0  0  0  0  0  0  0  0  0  0  0
    8.3551  -16.6693   24.0461 C   0  0  0  0  0  0  0  0  0  0  0  0
    9.6417  -15.9101   24.1500 C   0  0  2  0  0  0  0  0  0  0  0  0
    9.8794  -15.3170   22.8432 N   0  0  0  0  0  0  0  0  0  0  0  0
   10.7406  -16.8107   24.5139 C   0  0  0  0  0  0  0  0  0  0  0  0
   10.8759  -17.2316   25.7130 O   0  0  0  0  0  0  0  0  0  0  0  0
    8.6923  -17.4140   26.3594 C   0  0  0  0  0  0  0  0  0  0  0  0
    8.5101  -18.2821   27.4173 C   0  0  0  0  0  0  0  0  0  0  0  0
   11.6929  -17.2667   23.6162 O   0  0  0  0  0  0  0  0  0  0  0  0
  2  1  1  6
  2  6  1  0
  3  2  1  0
  4  3  1  0
  4  5  2  0
  6 13  1  0
  6  7  2  0
  8  4  1  0
 10  9  1  1
 10 11  1  0
 12 10  1  0
 12 13  1  6
 14 12  1  0
 14 23  1  0
 15 14  2  0
 16 17  1  0
 17 18  2  0
 18 19  1  0
 20 19  2  0
 20 21  1  0
 22 21  1  6
 22 23  1  0
 22 24  1  0
 24 28  1  0
 25 24  2  0
 26 20  1  0
 27 17  1  0
 27 26  2  0
M  END
$$$$
