DVY.pdb
     RDKit          3D

 28 28  0  0  1  0  0  0  0  0999 V2000
    9.8577  -18.0898   18.5056 N   0  0  0  0  0  0  0  0  0  0  0  0
   11.0500  -17.4543   19.0323 C   0  0  1  0  0  0  0  0  0  0  0  0
   11.7965  -16.8675   17.8510 C   0  0  0  0  0  0  0  0  0  0  0  0
   12.4663  -18.0015   17.1585 C   0  0  0  0  0  0  0  0  0  0  0  0
   11.9544  -18.4974   16.1235 O   0  0  0  0  0  0  0  0  0  0  0  0
   10.6899  -16.3993   20.0270 C   0  0  0  0  0  0  0  0  0  0  0  0
   11.5457  -15.7591   20.6558 O   0  0  0  0  0  0  0  0  0  0  0  0
   13.6602  -18.5581   17.6057 O   0  0  0  0  0  0  0  0  0  0  0  0
    7.1580  -14.2406   19.4767 C   0  0  0  0  0  0  0  0  0  0  0  0
    7.3834  -14.9097   20.7860 C   0  0  2  0  0  0  0  0  0  0  0  0
    6.7253  -14.1896   21.9419 C   0  0  0  0  0  0  0  0  0  0  0  0
    8.8642  -15.0626   21.1526 C   0  0  2  0  0  0  0  0  0  0  0  0
    9.3287  -16.1294   20.2516 N   0  0  0  0  0  0  0  0  0  0  0  0
    9.0071  -15.6209   22.5411 C   0  0  0  0  0  0  0  0  0  0  0  0
    8.7508  -16.8501   22.7918 O   0  0  0  0  0  0  0  0  0  0  0  0
   10.5136  -16.0867   31.2697 O   0  0  0  0  0  0  0  0  0  0  0  0
   10.3999  -15.6441   29.9363 C   0  0  0  0  0  0  0  0  0  0  0  0
   10.0788  -14.3331   29.6532 C   0  0  0  0  0  0  0  0  0  0  0  0
    9.9677  -13.9005   28.3253 C   0  0  0  0  0  0  0  0  0  0  0  0
   10.1768  -14.7757   27.2856 C   0  0  0  0  0  0  0  0  0  0  0  0
   10.0654  -14.3787   25.8738 C   0  0  0  0  0  0  0  0  0  0  0  0
    9.4233  -15.3944   24.9802 C   0  0  2  0  0  0  0  0  0  0  0  0
    9.4291  -14.8295   23.6398 N   0  0  0  0  0  0  0  0  0  0  0  0
    8.0503  -15.6674   25.4177 C   0  0  0  0  0  0  0  0  0  0  0  0
    7.1018  -14.8528   25.1528 O   0  0  0  0  0  0  0  0  0  0  0  0
   10.4955  -16.0777   27.5907 C   0  0  0  0  0  0  0  0  0  0  0  0
   10.6080  -16.5158   28.8951 C   0  0  0  0  0  0  0  0  0  0  0  0
    7.6786  -16.7958   26.1311 O   0  0  0  0  0  0  0  0  0  0  0  0
  2  1  1  6
  2  6  1  0
  3  2  1  0
  4  3  1  0
  4  5  2  0
  6 13  1  0
  6  7  2  0
  8  4  1  0
 10  9  1  6
 10 11  1  0
 12 10  1  0
 12 13  1  6
 14 12  1  0
 14 23  1  0
 15 14  2  0
 16 17  1  0
 17 18  2  0
 18 19  1  0
 20 19  2  0
 20 21  1  0
 22 21  1  1
 22 23  1  0
 22 24  1  0
 24 28  1  0
 25 24  2  0
 26 20  1  0
 27 17  1  0
 27 26  2  0
M  END
$$$$
