DVY.pdb
     RDKit          3D

 28 28  0  0  1  0  0  0  0  0999 V2000
    7.3520  -14.7107   18.6530 N   0  0  0  0  0  0  0  0  0  0  0  0
    7.7087  -15.6873   19.6639 C   0  0  1  0  0  0  0  0  0  0  0  0
    8.5943  -16.7167   18.9908 C   0  0  0  0  0  0  0  0  0  0  0  0
    7.7409  -17.4468   18.0147 C   0  0  0  0  0  0  0  0  0  0  0  0
    6.6209  -17.8932   18.3687 O   0  0  0  0  0  0  0  0  0  0  0  0
    8.4102  -15.0304   20.8077 C   0  0  0  0  0  0  0  0  0  0  0  0
    9.5179  -14.4868   20.6839 O   0  0  0  0  0  0  0  0  0  0  0  0
    8.1250  -17.6683   16.6961 O   0  0  0  0  0  0  0  0  0  0  0  0
    7.5647  -13.4743   25.4395 C   0  0  0  0  0  0  0  0  0  0  0  0
    7.2227  -14.2519   24.2184 C   0  0  2  0  0  0  0  0  0  0  0  0
    6.6663  -15.6246   24.5250 C   0  0  0  0  0  0  0  0  0  0  0  0
    8.4090  -14.4630   23.2704 C   0  0  2  0  0  0  0  0  0  0  0  0
    7.7842  -15.0335   22.0664 N   0  0  0  0  0  0  0  0  0  0  0  0
    9.3183  -15.5380   23.7973 C   0  0  0  0  0  0  0  0  0  0  0  0
    9.2149  -16.7498   23.3968 O   0  0  0  0  0  0  0  0  0  0  0  0
    9.7875  -14.5979   31.1988 O   0  0  0  0  0  0  0  0  0  0  0  0
   10.3746  -14.8654   29.9457 C   0  0  0  0  0  0  0  0  0  0  0  0
   10.3798  -13.9104   28.9508 C   0  0  0  0  0  0  0  0  0  0  0  0
   10.9654  -14.1837   27.7078 C   0  0  0  0  0  0  0  0  0  0  0  0
   11.5431  -15.4069   27.4614 C   0  0  0  0  0  0  0  0  0  0  0  0
   12.1644  -15.7510   26.1734 C   0  0  0  0  0  0  0  0  0  0  0  0
   11.2336  -16.3424   25.1604 C   0  0  2  0  0  0  0  0  0  0  0  0
   10.3306  -15.2763   24.7555 N   0  0  0  0  0  0  0  0  0  0  0  0
   10.4826  -17.4588   25.7442 C   0  0  0  0  0  0  0  0  0  0  0  0
   11.0516  -18.5762   25.9907 O   0  0  0  0  0  0  0  0  0  0  0  0
   11.5264  -16.3440   28.4671 C   0  0  0  0  0  0  0  0  0  0  0  0
   10.9525  -16.0865   29.6960 C   0  0  0  0  0  0  0  0  0  0  0  0
    9.1365  -17.3967   26.0678 O   0  0  0  0  0  0  0  0  0  0  0  0
  2  1  1  6
  2  6  1  0
  3  2  1  0
  4  3  1  0
  4  5  2  0
  6 13  1  0
  6  7  2  0
  8  4  1  0
 10  9  1  1
 10 11  1  0
 12 10  1  0
 12 13  1  6
 14 12  1  0
 14 23  1  0
 15 14  2  0
 16 17  1  0
 17 18  2  0
 18 19  1  0
 20 19  2  0
 20 21  1  0
 22 21  1  1
 22 23  1  0
 22 24  1  0
 24 28  1  0
 25 24  2  0
 26 20  1  0
 27 17  1  0
 27 26  2  0
M  END
$$$$
