PSM.pdb
     RDKit          3D

 22 22  0  0  1  0  0  0  0  0999 V2000
    8.8635  -14.8457   18.1641 N   0  0  0  0  0  0  0  0  0  0  0  0
    8.8130  -14.0868   16.9350 C   0  0  0  0  0  0  0  0  0  0  0  0
    8.0413  -12.8025   17.2414 C   0  0  0  0  0  0  0  0  0  0  0  0
    7.3817  -13.1515   18.5852 C   0  0  0  0  0  0  0  0  0  0  0  0
    8.5361  -13.9062   19.2171 C   0  0  1  0  0  0  0  0  0  0  0  0
    8.1755  -14.5810   20.4668 C   0  0  0  0  0  0  0  0  0  0  0  0
    7.8896  -13.8693   21.4615 O   0  0  0  0  0  0  0  0  0  0  0  0
    9.1950  -18.3332   21.9139 O   0  0  0  0  0  0  0  0  0  0  0  0
    7.8266  -18.0455   21.9275 C   0  0  0  0  0  0  0  0  0  0  0  0
    7.6613  -16.5471   21.8603 C   0  0  2  0  0  0  0  0  0  0  0  0
    8.1277  -15.9865   20.6300 N   0  0  0  0  0  0  0  0  0  0  0  0
    8.3944  -15.9927   23.0424 C   0  0  0  0  0  0  0  0  0  0  0  0
    9.6206  -15.7760   22.8960 O   0  0  0  0  0  0  0  0  0  0  0  0
    6.0412  -11.3643   26.2882 C   0  0  0  0  0  0  0  0  0  0  0  0
    7.2264  -11.7662   27.5999 S   0  0  0  0  0  0  0  0  0  0  0  0
    8.1915  -13.2184   27.0931 C   0  0  0  0  0  0  0  0  0  0  0  0
    7.5026  -14.0138   26.0126 C   0  0  0  0  0  0  0  0  0  0  0  0
    8.3860  -15.0573   25.3800 C   0  0  2  0  0  0  0  0  0  0  0  0
    7.7441  -15.7210   24.2761 N   0  0  0  0  0  0  0  0  0  0  0  0
    8.9618  -16.0155   26.3511 C   0  0  0  0  0  0  0  0  0  0  0  0
    8.5476  -17.2222   26.3720 O   0  0  0  0  0  0  0  0  0  0  0  0
    9.9472  -15.6926   27.2678 O   0  0  0  0  0  0  0  0  0  0  0  0
  1  5  1  0
  2  1  1  0
  3  2  1  0
  3  4  1  0
  4  5  1  0
  5  6  1  1
  6 11  1  0
  7  6  2  0
  8  9  1  0
 10 11  1  0
 10  9  1  6
 12 10  1  0
 12 19  1  0
 13 12  2  0
 15 14  1  0
 16 15  1  0
 17 16  1  0
 18 19  1  0
 18 17  1  1
 20 18  1  0
 21 20  2  0
 22 20  1  0
M  END
$$$$
