PSM.pdb
     RDKit          3D

 22 22  0  0  1  0  0  0  0  0999 V2000
    9.2026  -14.7857   18.4325 N   0  0  0  0  0  0  0  0  0  0  0  0
    9.0483  -14.0437   17.2018 C   0  0  0  0  0  0  0  0  0  0  0  0
    8.1065  -12.8776   17.5054 C   0  0  0  0  0  0  0  0  0  0  0  0
    7.5009  -13.3115   18.8499 C   0  0  0  0  0  0  0  0  0  0  0  0
    8.7482  -13.8981   19.4835 C   0  0  1  0  0  0  0  0  0  0  0  0
    8.4838  -14.6136   20.7346 C   0  0  0  0  0  0  0  0  0  0  0  0
    8.0222  -13.9601   21.7029 O   0  0  0  0  0  0  0  0  0  0  0  0
   10.2182  -18.0872   22.1189 O   0  0  0  0  0  0  0  0  0  0  0  0
    8.8281  -18.0489   22.2654 C   0  0  0  0  0  0  0  0  0  0  0  0
    8.3863  -16.6087   22.1776 C   0  0  2  0  0  0  0  0  0  0  0  0
    8.7147  -15.9971   20.9272 N   0  0  0  0  0  0  0  0  0  0  0  0
    9.0286  -15.9039   23.3320 C   0  0  0  0  0  0  0  0  0  0  0  0
   10.1073  -15.3083   23.1011 O   0  0  0  0  0  0  0  0  0  0  0  0
    5.5470  -12.3491   27.3144 C   0  0  0  0  0  0  0  0  0  0  0  0
    7.2318  -11.6924   27.4445 S   0  0  0  0  0  0  0  0  0  0  0  0
    8.4107  -13.0344   27.1183 C   0  0  0  0  0  0  0  0  0  0  0  0
    7.9340  -13.9617   26.0286 C   0  0  0  0  0  0  0  0  0  0  0  0
    8.9156  -15.0564   25.7003 C   0  0  2  0  0  0  0  0  0  0  0  0
    8.4539  -15.9024   24.6315 N   0  0  0  0  0  0  0  0  0  0  0  0
    9.3532  -15.8350   26.8814 C   0  0  0  0  0  0  0  0  0  0  0  0
    8.9604  -17.0403   27.0266 O   0  0  0  0  0  0  0  0  0  0  0  0
   10.1831  -15.3401   27.8724 O   0  0  0  0  0  0  0  0  0  0  0  0
  1  5  1  0
  2  1  1  0
  3  2  1  0
  3  4  1  0
  4  5  1  0
  5  6  1  1
  6 11  1  0
  7  6  2  0
  8  9  1  0
 10 11  1  0
 10  9  1  6
 12 10  1  0
 12 19  1  0
 13 12  2  0
 15 14  1  0
 16 15  1  0
 17 16  1  0
 18 19  1  0
 18 17  1  1
 20 18  1  0
 21 20  2  0
 22 20  1  0
M  END
$$$$
