PSM.pdb
     RDKit          3D

 22 22  0  0  1  0  0  0  0  0999 V2000
    8.8977  -14.5821   18.5473 N   0  0  0  0  0  0  0  0  0  0  0  0
    8.6859  -13.8164   17.3398 C   0  0  0  0  0  0  0  0  0  0  0  0
    7.7505  -12.6637   17.7073 C   0  0  0  0  0  0  0  0  0  0  0  0
    7.2059  -13.1293   19.0672 C   0  0  0  0  0  0  0  0  0  0  0  0
    8.4830  -13.7194   19.6348 C   0  0  1  0  0  0  0  0  0  0  0  0
    8.2771  -14.4620   20.8810 C   0  0  0  0  0  0  0  0  0  0  0  0
    7.9411  -13.8167   21.9049 O   0  0  0  0  0  0  0  0  0  0  0  0
    9.7471  -18.1993   22.0965 O   0  0  0  0  0  0  0  0  0  0  0  0
    8.3700  -17.9931   22.2243 C   0  0  0  0  0  0  0  0  0  0  0  0
    8.1185  -16.5055   22.2491 C   0  0  2  0  0  0  0  0  0  0  0  0
    8.4323  -15.8633   21.0102 N   0  0  0  0  0  0  0  0  0  0  0  0
    8.9321  -15.9633   23.3831 C   0  0  0  0  0  0  0  0  0  0  0  0
    9.8060  -15.1117   23.0951 O   0  0  0  0  0  0  0  0  0  0  0  0
    6.8244  -11.3354   25.7234 C   0  0  0  0  0  0  0  0  0  0  0  0
    6.7818  -12.2811   27.2696 S   0  0  0  0  0  0  0  0  0  0  0  0
    8.0436  -13.5847   27.1942 C   0  0  0  0  0  0  0  0  0  0  0  0
    7.8486  -14.5013   26.0126 C   0  0  0  0  0  0  0  0  0  0  0  0
    8.9406  -15.5283   25.8631 C   0  0  2  0  0  0  0  0  0  0  0  0
    8.7337  -16.3850   24.7254 N   0  0  0  0  0  0  0  0  0  0  0  0
    9.2067  -16.2961   27.1010 C   0  0  0  0  0  0  0  0  0  0  0  0
    8.6268  -17.4172   27.2881 O   0  0  0  0  0  0  0  0  0  0  0  0
   10.0644  -15.8779   28.1037 O   0  0  0  0  0  0  0  0  0  0  0  0
  1  5  1  0
  2  1  1  0
  3  2  1  0
  3  4  1  0
  4  5  1  0
  5  6  1  1
  6 11  1  0
  7  6  2  0
  8  9  1  0
 10 11  1  0
 10  9  1  6
 12 10  1  0
 12 19  1  0
 13 12  2  0
 15 14  1  0
 16 15  1  0
 17 16  1  0
 18 19  1  0
 18 17  1  1
 20 18  1  0
 21 20  2  0
 22 20  1  0
M  END
$$$$
