PSM.pdb
     RDKit          3D

 22 22  0  0  1  0  0  0  0  0999 V2000
    8.9141  -14.8212   19.0759 N   0  0  0  0  0  0  0  0  0  0  0  0
    8.7554  -13.9598   17.9262 C   0  0  0  0  0  0  0  0  0  0  0  0
    8.0560  -12.6920   18.4186 C   0  0  0  0  0  0  0  0  0  0  0  0
    7.5322  -13.1417   19.7920 C   0  0  0  0  0  0  0  0  0  0  0  0
    8.7255  -13.9687   20.2319 C   0  0  1  0  0  0  0  0  0  0  0  0
    8.4801  -14.7404   21.4530 C   0  0  0  0  0  0  0  0  0  0  0  0
    8.3518  -14.1125   22.5333 O   0  0  0  0  0  0  0  0  0  0  0  0
    9.1767  -18.8069   22.0255 O   0  0  0  0  0  0  0  0  0  0  0  0
    8.0077  -18.3073   22.6079 C   0  0  0  0  0  0  0  0  0  0  0  0
    8.1549  -16.8120   22.7474 C   0  0  2  0  0  0  0  0  0  0  0  0
    8.3777  -16.1518   21.4984 N   0  0  0  0  0  0  0  0  0  0  0  0
    9.2830  -16.5913   23.7070 C   0  0  0  0  0  0  0  0  0  0  0  0
   10.3733  -16.2102   23.2192 O   0  0  0  0  0  0  0  0  0  0  0  0
    8.8160  -12.9048   28.3974 C   0  0  0  0  0  0  0  0  0  0  0  0
   10.3612  -13.6065   29.0353 S   0  0  0  0  0  0  0  0  0  0  0  0
   10.8239  -15.0329   28.0112 C   0  0  0  0  0  0  0  0  0  0  0  0
    9.7868  -15.3429   26.9609 C   0  0  0  0  0  0  0  0  0  0  0  0
   10.1674  -16.4905   26.0622 C   0  0  2  0  0  0  0  0  0  0  0  0
    9.1383  -16.8000   25.1049 N   0  0  0  0  0  0  0  0  0  0  0  0
   10.6289  -17.6911   26.7959 C   0  0  0  0  0  0  0  0  0  0  0  0
    9.8074  -18.6346   27.0472 O   0  0  0  0  0  0  0  0  0  0  0  0
   11.9253  -17.8751   27.2446 O   0  0  0  0  0  0  0  0  0  0  0  0
  1  5  1  0
  2  1  1  0
  3  2  1  0
  3  4  1  0
  4  5  1  0
  5  6  1  1
  6 11  1  0
  7  6  2  0
  8  9  1  0
 10 11  1  0
 10  9  1  6
 12 10  1  0
 12 19  1  0
 13 12  2  0
 15 14  1  0
 16 15  1  0
 17 16  1  0
 18 19  1  0
 18 17  1  1
 20 18  1  0
 21 20  2  0
 22 20  1  0
M  END
$$$$
