PSM.pdb
     RDKit          3D

 22 22  0  0  1  0  0  0  0  0999 V2000
    9.2939  -14.7523   18.0382 N   0  0  0  0  0  0  0  0  0  0  0  0
    9.2198  -14.0019   16.8051 C   0  0  0  0  0  0  0  0  0  0  0  0
    8.1355  -12.9410   16.9993 C   0  0  0  0  0  0  0  0  0  0  0  0
    7.4143  -13.4621   18.2528 C   0  0  0  0  0  0  0  0  0  0  0  0
    8.6259  -13.9372   19.0324 C   0  0  1  0  0  0  0  0  0  0  0  0
    8.2814  -14.7028   20.2333 C   0  0  0  0  0  0  0  0  0  0  0  0
    7.7090  -14.0996   21.1747 O   0  0  0  0  0  0  0  0  0  0  0  0
   10.0352  -18.1535   21.5776 O   0  0  0  0  0  0  0  0  0  0  0  0
    8.6416  -18.1675   21.6924 C   0  0  0  0  0  0  0  0  0  0  0  0
    8.1494  -16.7436   21.6081 C   0  0  2  0  0  0  0  0  0  0  0  0
    8.5514  -16.0819   20.4056 N   0  0  0  0  0  0  0  0  0  0  0  0
    8.6675  -16.0497   22.8297 C   0  0  0  0  0  0  0  0  0  0  0  0
    9.7762  -15.4738   22.7249 O   0  0  0  0  0  0  0  0  0  0  0  0
    6.4732  -11.1196   28.3655 C   0  0  0  0  0  0  0  0  0  0  0  0
    6.2891  -11.9417   26.7602 S   0  0  0  0  0  0  0  0  0  0  0  0
    7.4202  -13.3606   26.6951 C   0  0  0  0  0  0  0  0  0  0  0  0
    7.1102  -14.2865   25.5457 C   0  0  0  0  0  0  0  0  0  0  0  0
    8.2696  -15.1646   25.1530 C   0  0  2  0  0  0  0  0  0  0  0  0
    7.9475  -16.0369   24.0546 N   0  0  0  0  0  0  0  0  0  0  0  0
    8.8720  -15.8962   26.2908 C   0  0  0  0  0  0  0  0  0  0  0  0
    8.6607  -17.1477   26.4225 O   0  0  0  0  0  0  0  0  0  0  0  0
    9.6733  -15.3081   27.2540 O   0  0  0  0  0  0  0  0  0  0  0  0
  1  5  1  0
  2  1  1  0
  3  2  1  0
  3  4  1  0
  4  5  1  0
  5  6  1  1
  6 11  1  0
  7  6  2  0
  8  9  1  0
 10 11  1  0
 10  9  1  6
 12 10  1  0
 12 19  1  0
 13 12  2  0
 15 14  1  0
 16 15  1  0
 17 16  1  0
 18 19  1  0
 18 17  1  1
 20 18  1  0
 21 20  2  0
 22 20  1  0
M  END
$$$$
