PSM.pdb
     RDKit          3D

 22 22  0  0  1  0  0  0  0  0999 V2000
   10.8925  -17.4337   18.3465 N   0  0  0  0  0  0  0  0  0  0  0  0
   11.4128  -18.6520   17.7682 C   0  0  0  0  0  0  0  0  0  0  0  0
   10.8350  -19.8091   18.5845 C   0  0  0  0  0  0  0  0  0  0  0  0
   10.3153  -19.0775   19.8325 C   0  0  0  0  0  0  0  0  0  0  0  0
    9.7612  -17.8377   19.1563 C   0  0  1  0  0  0  0  0  0  0  0  0
    9.3561  -16.7923   20.0998 C   0  0  0  0  0  0  0  0  0  0  0  0
   10.2577  -16.1275   20.6681 O   0  0  0  0  0  0  0  0  0  0  0  0
    5.5002  -16.2664   21.5247 O   0  0  0  0  0  0  0  0  0  0  0  0
    6.2679  -15.1001   21.4499 C   0  0  0  0  0  0  0  0  0  0  0  0
    7.7232  -15.4976   21.4149 C   0  0  2  0  0  0  0  0  0  0  0  0
    8.0120  -16.4796   20.4160 N   0  0  0  0  0  0  0  0  0  0  0  0
    8.0565  -15.9836   22.7914 C   0  0  0  0  0  0  0  0  0  0  0  0
    8.1694  -17.2232   22.9410 O   0  0  0  0  0  0  0  0  0  0  0  0
   11.1033  -13.3447   28.9569 C   0  0  0  0  0  0  0  0  0  0  0  0
    9.3107  -13.4265   28.6991 S   0  0  0  0  0  0  0  0  0  0  0  0
    8.9392  -14.8269   27.6046 C   0  0  0  0  0  0  0  0  0  0  0  0
    8.6632  -14.3880   26.1884 C   0  0  0  0  0  0  0  0  0  0  0  0
    8.4132  -15.5340   25.2430 C   0  0  2  0  0  0  0  0  0  0  0  0
    8.2386  -15.0937   23.8840 N   0  0  0  0  0  0  0  0  0  0  0  0
    7.3268  -16.4394   25.6820 C   0  0  0  0  0  0  0  0  0  0  0  0
    7.5988  -17.4438   26.4204 O   0  0  0  0  0  0  0  0  0  0  0  0
    5.9951  -16.2745   25.3424 O   0  0  0  0  0  0  0  0  0  0  0  0
  1  5  1  0
  2  1  1  0
  3  2  1  0
  3  4  1  0
  4  5  1  0
  5  6  1  1
  6 11  1  0
  7  6  2  0
  8  9  1  0
 10 11  1  0
 10  9  1  1
 12 10  1  0
 12 19  1  0
 13 12  2  0
 15 14  1  0
 16 15  1  0
 17 16  1  0
 18 19  1  0
 18 17  1  1
 20 18  1  0
 21 20  2  0
 22 20  1  0
M  END
$$$$
