PSM.pdb
     RDKit          3D

 22 22  0  0  1  0  0  0  0  0999 V2000
    9.2245  -14.6241   18.4892 N   0  0  0  0  0  0  0  0  0  0  0  0
    9.1024  -13.8835   17.2540 C   0  0  0  0  0  0  0  0  0  0  0  0
    7.9636  -12.8819   17.4514 C   0  0  0  0  0  0  0  0  0  0  0  0
    7.2794  -13.4364   18.7112 C   0  0  0  0  0  0  0  0  0  0  0  0
    8.5196  -13.8424   19.4847 C   0  0  1  0  0  0  0  0  0  0  0  0
    8.2244  -14.6209   20.6905 C   0  0  0  0  0  0  0  0  0  0  0  0
    7.5728  -14.0640   21.6087 O   0  0  0  0  0  0  0  0  0  0  0  0
   10.2091  -17.9796   22.1259 O   0  0  0  0  0  0  0  0  0  0  0  0
    8.8132  -18.0478   22.1706 C   0  0  0  0  0  0  0  0  0  0  0  0
    8.2721  -16.6409   22.1011 C   0  0  2  0  0  0  0  0  0  0  0  0
    8.6257  -15.9635   20.8921 N   0  0  0  0  0  0  0  0  0  0  0  0
    8.7931  -15.9328   23.3131 C   0  0  0  0  0  0  0  0  0  0  0  0
    9.8289  -15.2427   23.1627 O   0  0  0  0  0  0  0  0  0  0  0  0
    6.5549  -10.9387   26.1719 C   0  0  0  0  0  0  0  0  0  0  0  0
    6.5623  -12.0805   27.5801 S   0  0  0  0  0  0  0  0  0  0  0  0
    7.7909  -13.3818   27.2730 C   0  0  0  0  0  0  0  0  0  0  0  0
    7.4798  -14.1802   26.0319 C   0  0  0  0  0  0  0  0  0  0  0  0
    8.5189  -15.2235   25.7134 C   0  0  2  0  0  0  0  0  0  0  0  0
    8.1543  -16.0299   24.5785 N   0  0  0  0  0  0  0  0  0  0  0  0
    8.9122  -16.0452   26.8808 C   0  0  0  0  0  0  0  0  0  0  0  0
    8.5541  -17.2683   26.9442 O   0  0  0  0  0  0  0  0  0  0  0  0
    9.6633  -15.5735   27.9434 O   0  0  0  0  0  0  0  0  0  0  0  0
  1  5  1  0
  2  1  1  0
  3  2  1  0
  3  4  1  0
  4  5  1  0
  5  6  1  1
  6 11  1  0
  7  6  2  0
  8  9  1  0
 10 11  1  0
 10  9  1  6
 12 10  1  0
 12 19  1  0
 13 12  2  0
 15 14  1  0
 16 15  1  0
 17 16  1  0
 18 19  1  0
 18 17  1  1
 20 18  1  0
 21 20  2  0
 22 20  1  0
M  END
$$$$
