PSM.pdb
     RDKit          3D

 22 22  0  0  1  0  0  0  0  0999 V2000
    9.0381  -14.6563   18.7320 N   0  0  0  0  0  0  0  0  0  0  0  0
    8.8863  -13.9332   17.4898 C   0  0  0  0  0  0  0  0  0  0  0  0
    7.9668  -12.7461   17.7804 C   0  0  0  0  0  0  0  0  0  0  0  0
    7.3649  -13.1464   19.1369 C   0  0  0  0  0  0  0  0  0  0  0  0
    8.6072  -13.7431   19.7709 C   0  0  1  0  0  0  0  0  0  0  0  0
    8.3409  -14.4322   21.0363 C   0  0  0  0  0  0  0  0  0  0  0  0
    7.8799  -13.7582   21.9907 O   0  0  0  0  0  0  0  0  0  0  0  0
    9.7407  -18.1609   22.2229 O   0  0  0  0  0  0  0  0  0  0  0  0
    8.4012  -17.9019   22.5292 C   0  0  0  0  0  0  0  0  0  0  0  0
    8.1941  -16.4074   22.5024 C   0  0  2  0  0  0  0  0  0  0  0  0
    8.5694  -15.8118   21.2575 N   0  0  0  0  0  0  0  0  0  0  0  0
    8.9843  -15.8557   23.6483 C   0  0  0  0  0  0  0  0  0  0  0  0
   10.1559  -15.4847   23.4001 O   0  0  0  0  0  0  0  0  0  0  0  0
    6.0006  -10.8455   26.2719 C   0  0  0  0  0  0  0  0  0  0  0  0
    6.4024  -12.4234   27.0691 S   0  0  0  0  0  0  0  0  0  0  0  0
    7.8910  -13.1116   26.2895 C   0  0  0  0  0  0  0  0  0  0  0  0
    8.3664  -14.3680   26.9751 C   0  0  0  0  0  0  0  0  0  0  0  0
    9.1921  -15.2610   26.0861 C   0  0  2  0  0  0  0  0  0  0  0  0
    8.4447  -15.7523   24.9587 N   0  0  0  0  0  0  0  0  0  0  0  0
    9.8846  -16.3479   26.8153 C   0  0  0  0  0  0  0  0  0  0  0  0
   10.6719  -16.0634   27.7784 O   0  0  0  0  0  0  0  0  0  0  0  0
    9.7387  -17.6930   26.5236 O   0  0  0  0  0  0  0  0  0  0  0  0
  1  5  1  0
  2  1  1  0
  3  2  1  0
  3  4  1  0
  4  5  1  0
  5  6  1  1
  6 11  1  0
  7  6  2  0
  8  9  1  0
 10 11  1  0
 10  9  1  6
 12 10  1  0
 12 19  1  0
 13 12  2  0
 15 14  1  0
 16 15  1  0
 17 16  1  0
 18 19  1  0
 18 17  1  1
 20 18  1  0
 21 20  2  0
 22 20  1  0
M  END
$$$$
