PSM.pdb
     RDKit          3D

 22 22  0  0  1  0  0  0  0  0999 V2000
    8.8731  -14.7589   18.4410 N   0  0  0  0  0  0  0  0  0  0  0  0
    8.8128  -14.0163   17.2025 C   0  0  0  0  0  0  0  0  0  0  0  0
    8.0817  -12.7083   17.5080 C   0  0  0  0  0  0  0  0  0  0  0  0
    7.4454  -13.0212   18.8718 C   0  0  0  0  0  0  0  0  0  0  0  0
    8.5948  -13.7965   19.4876 C   0  0  1  0  0  0  0  0  0  0  0  0
    8.2468  -14.4441   20.7551 C   0  0  0  0  0  0  0  0  0  0  0  0
    7.9179  -13.7126   21.7217 O   0  0  0  0  0  0  0  0  0  0  0  0
    9.2276  -18.2554   21.9440 O   0  0  0  0  0  0  0  0  0  0  0  0
    7.9220  -17.8859   22.2818 C   0  0  0  0  0  0  0  0  0  0  0  0
    7.8293  -16.3811   22.2201 C   0  0  2  0  0  0  0  0  0  0  0  0
    8.2567  -15.8442   20.9653 N   0  0  0  0  0  0  0  0  0  0  0  0
    8.6520  -15.8650   23.3598 C   0  0  0  0  0  0  0  0  0  0  0  0
    9.8288  -15.5216   23.0972 O   0  0  0  0  0  0  0  0  0  0  0  0
    5.8167  -12.2847   27.3363 C   0  0  0  0  0  0  0  0  0  0  0  0
    7.1816  -11.5723   26.3790 S   0  0  0  0  0  0  0  0  0  0  0  0
    8.0986  -12.9177   25.5753 C   0  0  0  0  0  0  0  0  0  0  0  0
    8.2710  -14.1120   26.4800 C   0  0  0  0  0  0  0  0  0  0  0  0
    8.9100  -15.2939   25.7984 C   0  0  2  0  0  0  0  0  0  0  0  0
    8.1361  -15.7642   24.6799 N   0  0  0  0  0  0  0  0  0  0  0  0
    9.2749  -16.3884   26.7266 C   0  0  0  0  0  0  0  0  0  0  0  0
   10.1151  -16.1720   27.6622 O   0  0  0  0  0  0  0  0  0  0  0  0
    8.7575  -17.6703   26.6555 O   0  0  0  0  0  0  0  0  0  0  0  0
  1  5  1  0
  2  1  1  0
  3  2  1  0
  3  4  1  0
  4  5  1  0
  5  6  1  1
  6 11  1  0
  7  6  2  0
  8  9  1  0
 10 11  1  0
 10  9  1  6
 12 10  1  0
 12 19  1  0
 13 12  2  0
 15 14  1  0
 16 15  1  0
 17 16  1  0
 18 19  1  0
 18 17  1  1
 20 18  1  0
 21 20  2  0
 22 20  1  0
M  END
$$$$
