KWH.pdb
     RDKit          3D

 34 36  0  0  1  0  0  0  0  0999 V2000
   13.4121  -20.1516    2.2762 N   0  0  0  0  0  0  0  0  0  0  0  0
   13.2355  -19.3292    3.4736 C   0  0  1  0  0  0  0  0  0  0  0  0
   12.2189  -20.0328    4.3834 C   0  0  0  0  0  0  0  0  0  0  0  0
   10.8418  -19.5812    3.9355 C   0  0  0  0  0  0  0  0  0  0  0  0
   10.5515  -18.1706    4.3579 C   0  0  0  0  0  0  0  0  0  0  0  0
    9.1408  -17.7480    4.0542 C   0  0  0  0  0  0  0  0  0  0  0  0
    8.9287  -16.3832    4.5364 N   0  0  0  0  0  0  0  0  0  0  0  0
   14.5575  -19.2444    4.1407 C   0  0  0  0  0  0  0  0  0  0  0  0
   15.3275  -20.2073    4.1408 O   0  0  0  0  0  0  0  0  0  0  0  0
   14.9972  -18.0596    4.8058 N   0  0  0  0  0  0  0  0  0  0  0  0
   16.2233  -17.9300    5.5010 C   0  0  1  0  0  0  0  0  0  0  0  0
   16.9166  -16.6044    5.4221 C   0  0  0  0  0  0  0  0  0  0  0  0
   17.4857  -16.3533    4.0963 C   0  0  0  0  0  0  0  0  0  0  0  0
   17.5798  -17.2379    3.0371 C   0  0  0  0  0  0  0  0  0  0  0  0
   18.1524  -16.6008    2.0043 N   0  0  0  0  0  0  0  0  0  0  0  0
   18.4451  -15.3447    2.3133 C   0  0  0  0  0  0  0  0  0  0  0  0
   19.0333  -14.3333    1.5898 C   0  0  0  0  0  0  0  0  0  0  0  0
   19.2147  -13.1103    2.2008 C   0  0  0  0  0  0  0  0  0  0  0  0
   18.8248  -12.8976    3.4903 C   0  0  0  0  0  0  0  0  0  0  0  0
   18.2307  -13.9401    4.2023 C   0  0  0  0  0  0  0  0  0  0  0  0
   18.0338  -15.1665    3.6287 C   0  0  0  0  0  0  0  0  0  0  0  0
   16.0183  -18.3451    6.9087 C   0  0  0  0  0  0  0  0  0  0  0  0
   15.0070  -17.9150    7.5651 O   0  0  0  0  0  0  0  0  0  0  0  0
   16.8739  -19.2056    7.6142 N   0  0  0  0  0  0  0  0  0  0  0  0
   16.6444  -19.5589    9.0358 C   0  0  1  0  0  0  0  0  0  0  0  0
   17.2414  -20.8916    9.3410 C   0  0  0  0  0  0  0  0  0  0  0  0
   16.3544  -21.9730    8.8584 C   0  0  0  0  0  0  0  0  0  0  0  0
   14.9941  -22.0778    8.7346 C   0  0  0  0  0  0  0  0  0  0  0  0
   14.6379  -23.2619    8.1671 N   0  0  0  0  0  0  0  0  0  0  0  0
   15.7740  -23.9125    7.9275 C   0  0  0  0  0  0  0  0  0  0  0  0
   16.8092  -23.1644    8.3307 N   0  0  0  0  0  0  0  0  0  0  0  0
   17.4888  -18.5437    9.7484 C   0  0  0  0  0  0  0  0  0  0  0  0
   17.5389  -18.5062   10.9771 O   0  0  0  0  0  0  0  0  0  0  0  0
   18.2337  -17.6231    9.0448 O   0  0  0  0  0  0  0  0  0  0  0  0
  2  1  1  6
  2  3  1  0
  3  4  1  0
  4  5  1  0
  6  5  1  0
  7  6  1  0
  8  2  1  0
  8  9  2  0
 10  8  1  0
 11 22  1  0
 11 10  1  0
 11 12  1  1
 13 14  2  0
 13 12  1  0
 15 14  1  0
 16 21  2  0
 16 15  1  0
 17 16  1  0
 18 19  1  0
 18 17  2  0
 19 20  2  0
 20 21  1  0
 21 13  1  0
 22 23  2  0
 22 24  1  0
 24 25  1  0
 25 26  1  6
 26 27  1  0
 27 31  1  0
 28 27  2  0
 28 29  1  0
 29 30  1  0
 31 30  2  0
 32 25  1  0
 33 32  2  0
 34 32  1  0
M  END
$$$$
