KWH.pdb
     RDKit          3D

 34 36  0  0  1  0  0  0  0  0999 V2000
   28.5715  -23.8617  -16.4908 N   0  0  0  0  0  0  0  0  0  0  0  0
   27.8704  -22.5831  -16.6121 C   0  0  1  0  0  0  0  0  0  0  0  0
   26.9992  -22.6407  -17.8747 C   0  0  0  0  0  0  0  0  0  0  0  0
   27.9321  -22.4807  -19.0600 C   0  0  0  0  0  0  0  0  0  0  0  0
   29.1458  -23.3551  -18.9378 C   0  0  0  0  0  0  0  0  0  0  0  0
   30.0148  -23.3237  -20.1645 C   0  0  0  0  0  0  0  0  0  0  0  0
   31.1113  -22.3774  -19.9582 N   0  0  0  0  0  0  0  0  0  0  0  0
   27.0234  -22.4362  -15.4034 C   0  0  0  0  0  0  0  0  0  0  0  0
   26.4539  -23.4116  -14.9092 O   0  0  0  0  0  0  0  0  0  0  0  0
   26.8292  -21.1753  -14.7616 N   0  0  0  0  0  0  0  0  0  0  0  0
   26.1366  -20.9869  -13.5417 C   0  0  1  0  0  0  0  0  0  0  0  0
   26.6536  -19.9256  -12.6194 C   0  0  0  0  0  0  0  0  0  0  0  0
   27.6741  -20.4363  -11.7017 C   0  0  0  0  0  0  0  0  0  0  0  0
   28.9698  -20.8134  -12.0057 C   0  0  0  0  0  0  0  0  0  0  0  0
   29.5719  -21.2071  -10.8731 N   0  0  0  0  0  0  0  0  0  0  0  0
   28.7539  -21.1147   -9.8333 C   0  0  0  0  0  0  0  0  0  0  0  0
   28.9257  -21.4060   -8.4998 C   0  0  0  0  0  0  0  0  0  0  0  0
   27.8630  -21.2078   -7.6434 C   0  0  0  0  0  0  0  0  0  0  0  0
   26.6665  -20.7354   -8.0964 C   0  0  0  0  0  0  0  0  0  0  0  0
   26.5182  -20.4478   -9.4536 C   0  0  0  0  0  0  0  0  0  0  0  0
   27.5506  -20.6311  -10.3326 C   0  0  0  0  0  0  0  0  0  0  0  0
   24.6983  -20.7866  -13.8371 C   0  0  0  0  0  0  0  0  0  0  0  0
   24.3383  -19.9763  -14.7603 O   0  0  0  0  0  0  0  0  0  0  0  0
   23.6525  -21.4363  -13.1630 N   0  0  0  0  0  0  0  0  0  0  0  0
   22.2318  -21.2585  -13.5482 C   0  0  1  0  0  0  0  0  0  0  0  0
   21.4190  -22.4181  -13.0788 C   0  0  0  0  0  0  0  0  0  0  0  0
   19.9914  -22.2091  -13.4065 C   0  0  0  0  0  0  0  0  0  0  0  0
   19.3222  -21.2119  -14.0656 C   0  0  0  0  0  0  0  0  0  0  0  0
   17.9971  -21.4974  -14.1822 N   0  0  0  0  0  0  0  0  0  0  0  0
   17.8218  -22.6800  -13.5971 C   0  0  0  0  0  0  0  0  0  0  0  0
   18.9955  -23.1232  -13.1280 N   0  0  0  0  0  0  0  0  0  0  0  0
   21.8253  -20.0870  -12.7032 C   0  0  0  0  0  0  0  0  0  0  0  0
   22.4177  -19.8186  -11.6588 O   0  0  0  0  0  0  0  0  0  0  0  0
   20.7748  -19.2770  -13.0745 O   0  0  0  0  0  0  0  0  0  0  0  0
  2  1  1  1
  2  3  1  0
  3  4  1  0
  4  5  1  0
  6  5  1  0
  7  6  1  0
  8  2  1  0
  8  9  2  0
 10  8  1  0
 11 22  1  0
 11 10  1  0
 11 12  1  6
 13 14  2  0
 13 12  1  0
 15 14  1  0
 16 21  2  0
 16 15  1  0
 17 16  1  0
 18 19  1  0
 18 17  2  0
 19 20  2  0
 20 21  1  0
 21 13  1  0
 22 23  2  0
 22 24  1  0
 24 25  1  0
 25 26  1  1
 26 27  1  0
 27 31  1  0
 28 27  2  0
 28 29  1  0
 29 30  1  0
 31 30  2  0
 32 25  1  0
 33 32  2  0
 34 32  1  0
M  END
$$$$
