KWH.pdb
     RDKit          3D

 34 36  0  0  1  0  0  0  0  0999 V2000
   28.6838  -21.8861  -15.0292 N   0  0  0  0  0  0  0  0  0  0  0  0
   27.7991  -20.7664  -14.7058 C   0  0  1  0  0  0  0  0  0  0  0  0
   26.7589  -20.6475  -15.8285 C   0  0  0  0  0  0  0  0  0  0  0  0
   27.4998  -20.1782  -17.0662 C   0  0  0  0  0  0  0  0  0  0  0  0
   28.2518  -18.9034  -16.8174 C   0  0  0  0  0  0  0  0  0  0  0  0
   28.9521  -18.3889  -18.0445 C   0  0  0  0  0  0  0  0  0  0  0  0
   29.7062  -17.1827  -17.7029 N   0  0  0  0  0  0  0  0  0  0  0  0
   27.1384  -21.0930  -13.4187 C   0  0  0  0  0  0  0  0  0  0  0  0
   26.1514  -21.8310  -13.3852 O   0  0  0  0  0  0  0  0  0  0  0  0
   27.6070  -20.5762  -12.1726 N   0  0  0  0  0  0  0  0  0  0  0  0
   26.9786  -20.7869  -10.9219 C   0  0  1  0  0  0  0  0  0  0  0  0
   27.7199  -20.3369   -9.7005 C   0  0  0  0  0  0  0  0  0  0  0  0
   26.9601  -20.5735   -8.4710 C   0  0  0  0  0  0  0  0  0  0  0  0
   25.7820  -21.2846   -8.3308 C   0  0  0  0  0  0  0  0  0  0  0  0
   25.4318  -21.2705   -7.0356 N   0  0  0  0  0  0  0  0  0  0  0  0
   26.3067  -20.5920   -6.3055 C   0  0  0  0  0  0  0  0  0  0  0  0
   26.3591  -20.3108   -4.9599 C   0  0  0  0  0  0  0  0  0  0  0  0
   27.4145  -19.5586   -4.4881 C   0  0  0  0  0  0  0  0  0  0  0  0
   28.3876  -19.0993   -5.3260 C   0  0  0  0  0  0  0  0  0  0  0  0
   28.3110  -19.3984   -6.6866 C   0  0  0  0  0  0  0  0  0  0  0  0
   27.2794  -20.1426   -7.1904 C   0  0  0  0  0  0  0  0  0  0  0  0
   25.6175  -20.2028  -10.9688 C   0  0  0  0  0  0  0  0  0  0  0  0
   25.4644  -18.9397  -11.1088 O   0  0  0  0  0  0  0  0  0  0  0  0
   24.4316  -20.9469  -10.8687 N   0  0  0  0  0  0  0  0  0  0  0  0
   23.0947  -20.3341  -11.0576 C   0  0  1  0  0  0  0  0  0  0  0  0
   22.3084  -21.1066  -12.0628 C   0  0  0  0  0  0  0  0  0  0  0  0
   22.5177  -20.5474  -13.4166 C   0  0  0  0  0  0  0  0  0  0  0  0
   23.2525  -19.4906  -13.8856 C   0  0  0  0  0  0  0  0  0  0  0  0
   23.1879  -19.4052  -15.2419 N   0  0  0  0  0  0  0  0  0  0  0  0
   22.4111  -20.4108  -15.6381 C   0  0  0  0  0  0  0  0  0  0  0  0
   22.0006  -21.1046  -14.5685 N   0  0  0  0  0  0  0  0  0  0  0  0
   22.4465  -20.5870   -9.7281 C   0  0  0  0  0  0  0  0  0  0  0  0
   22.6758  -21.6153   -9.0928 O   0  0  0  0  0  0  0  0  0  0  0  0
   21.5745  -19.6722   -9.1802 O   0  0  0  0  0  0  0  0  0  0  0  0
  2  1  1  6
  2  3  1  0
  3  4  1  0
  4  5  1  0
  6  5  1  0
  7  6  1  0
  8  2  1  0
  8  9  2  0
 10  8  1  0
 11 22  1  0
 11 10  1  0
 11 12  1  1
 13 14  2  0
 13 12  1  0
 15 14  1  0
 16 21  2  0
 16 15  1  0
 17 16  1  0
 18 19  1  0
 18 17  2  0
 19 20  2  0
 20 21  1  0
 21 13  1  0
 22 23  2  0
 22 24  1  0
 24 25  1  0
 25 26  1  6
 26 27  1  0
 27 31  1  0
 28 27  2  0
 28 29  1  0
 29 30  1  0
 31 30  2  0
 32 25  1  0
 33 32  2  0
 34 32  1  0
M  END
$$$$
