KWH.pdb
     RDKit          3D

 34 36  0  0  1  0  0  0  0  0999 V2000
   27.9527  -18.4558  -17.5315 N   0  0  0  0  0  0  0  0  0  0  0  0
   26.8711  -19.3475  -17.9513 C   0  0  1  0  0  0  0  0  0  0  0  0
   27.4583  -20.3727  -18.9314 C   0  0  0  0  0  0  0  0  0  0  0  0
   28.9420  -20.4683  -18.6307 C   0  0  0  0  0  0  0  0  0  0  0  0
   29.6255  -21.4781  -19.5058 C   0  0  0  0  0  0  0  0  0  0  0  0
   31.1015  -21.5801  -19.2378 C   0  0  0  0  0  0  0  0  0  0  0  0
   31.6729  -22.6413  -20.0671 N   0  0  0  0  0  0  0  0  0  0  0  0
   26.3687  -20.0247  -16.7311 C   0  0  0  0  0  0  0  0  0  0  0  0
   25.5633  -20.9548  -16.8115 O   0  0  0  0  0  0  0  0  0  0  0  0
   26.7877  -19.6383  -15.4217 N   0  0  0  0  0  0  0  0  0  0  0  0
   26.2712  -20.1719  -14.2168 C   0  0  1  0  0  0  0  0  0  0  0  0
   27.1239  -20.0434  -12.9918 C   0  0  0  0  0  0  0  0  0  0  0  0
   26.5449  -20.7335  -11.8372 C   0  0  0  0  0  0  0  0  0  0  0  0
   26.1113  -22.0452  -11.7683 C   0  0  0  0  0  0  0  0  0  0  0  0
   25.6651  -22.2778  -10.5244 N   0  0  0  0  0  0  0  0  0  0  0  0
   25.7757  -21.1987   -9.7613 C   0  0  0  0  0  0  0  0  0  0  0  0
   25.4487  -20.9659   -8.4456 C   0  0  0  0  0  0  0  0  0  0  0  0
   25.6808  -19.7101   -7.9249 C   0  0  0  0  0  0  0  0  0  0  0  0
   26.2205  -18.7158   -8.6866 C   0  0  0  0  0  0  0  0  0  0  0  0
   26.5432  -18.9779  -10.0184 C   0  0  0  0  0  0  0  0  0  0  0  0
   26.3280  -20.2118  -10.5689 C   0  0  0  0  0  0  0  0  0  0  0  0
   24.9182  -19.6117  -13.9897 C   0  0  0  0  0  0  0  0  0  0  0  0
   24.7460  -18.3440  -13.9474 O   0  0  0  0  0  0  0  0  0  0  0  0
   23.7603  -20.3843  -13.8090 N   0  0  0  0  0  0  0  0  0  0  0  0
   22.4549  -19.7809  -13.4481 C   0  0  1  0  0  0  0  0  0  0  0  0
   21.4637  -19.9989  -14.5415 C   0  0  0  0  0  0  0  0  0  0  0  0
   21.6746  -19.0165  -15.6276 C   0  0  0  0  0  0  0  0  0  0  0  0
   22.5731  -17.9971  -15.8013 C   0  0  0  0  0  0  0  0  0  0  0  0
   22.4181  -17.4012  -17.0146 N   0  0  0  0  0  0  0  0  0  0  0  0
   21.4191  -18.0434  -17.6158 C   0  0  0  0  0  0  0  0  0  0  0  0
   20.9611  -19.0094  -16.8089 N   0  0  0  0  0  0  0  0  0  0  0  0
   22.0188  -20.6465  -12.3027 C   0  0  0  0  0  0  0  0  0  0  0  0
   22.6271  -21.6765  -12.0147 O   0  0  0  0  0  0  0  0  0  0  0  0
   20.9224  -20.3110  -11.5392 O   0  0  0  0  0  0  0  0  0  0  0  0
  2  1  1  1
  2  3  1  0
  3  4  1  0
  4  5  1  0
  6  5  1  0
  7  6  1  0
  8  2  1  0
  8  9  2  0
 10  8  1  0
 11 22  1  0
 11 10  1  0
 11 12  1  1
 13 14  2  0
 13 12  1  0
 15 14  1  0
 16 21  2  0
 16 15  1  0
 17 16  1  0
 18 19  1  0
 18 17  2  0
 19 20  2  0
 20 21  1  0
 21 13  1  0
 22 23  2  0
 22 24  1  0
 24 25  1  0
 25 26  1  6
 26 27  1  0
 27 31  1  0
 28 27  2  0
 28 29  1  0
 29 30  1  0
 31 30  2  0
 32 25  1  0
 33 32  2  0
 34 32  1  0
M  END
$$$$
