KWH.pdb
     RDKit          3D

 34 36  0  0  1  0  0  0  0  0999 V2000
   29.4378  -21.7966  -15.8928 N   0  0  0  0  0  0  0  0  0  0  0  0
   28.0578  -21.3868  -16.1555 C   0  0  1  0  0  0  0  0  0  0  0  0
   27.4813  -22.3277  -17.2226 C   0  0  0  0  0  0  0  0  0  0  0  0
   28.5046  -22.4049  -18.3397 C   0  0  0  0  0  0  0  0  0  0  0  0
   28.8647  -23.8239  -18.6704 C   0  0  0  0  0  0  0  0  0  0  0  0
   29.8318  -23.9294  -19.8170 C   0  0  0  0  0  0  0  0  0  0  0  0
   30.1990  -25.3317  -20.0144 N   0  0  0  0  0  0  0  0  0  0  0  0
   27.3127  -21.5292  -14.8809 C   0  0  0  0  0  0  0  0  0  0  0  0
   26.1410  -21.9125  -14.8741 O   0  0  0  0  0  0  0  0  0  0  0  0
   27.9080  -21.2338  -13.6168 N   0  0  0  0  0  0  0  0  0  0  0  0
   27.2398  -21.3071  -12.3713 C   0  0  1  0  0  0  0  0  0  0  0  0
   28.0712  -21.1263  -11.1383 C   0  0  0  0  0  0  0  0  0  0  0  0
   27.2524  -20.9764   -9.9334 C   0  0  0  0  0  0  0  0  0  0  0  0
   25.8912  -21.1869   -9.8065 C   0  0  0  0  0  0  0  0  0  0  0  0
   25.5445  -20.9524   -8.5317 N   0  0  0  0  0  0  0  0  0  0  0  0
   26.5941  -20.5980   -7.8025 C   0  0  0  0  0  0  0  0  0  0  0  0
   26.7195  -20.2622   -6.4744 C   0  0  0  0  0  0  0  0  0  0  0  0
   27.9694  -19.9248   -5.9989 C   0  0  0  0  0  0  0  0  0  0  0  0
   29.0610  -19.9203   -6.8164 C   0  0  0  0  0  0  0  0  0  0  0  0
   28.9068  -20.2646   -8.1595 C   0  0  0  0  0  0  0  0  0  0  0  0
   27.6826  -20.6058   -8.6664 C   0  0  0  0  0  0  0  0  0  0  0  0
   26.0953  -20.3659  -12.3892 C   0  0  0  0  0  0  0  0  0  0  0  0
   26.2999  -19.1068  -12.4964 O   0  0  0  0  0  0  0  0  0  0  0  0
   24.7493  -20.7525  -12.2944 N   0  0  0  0  0  0  0  0  0  0  0  0
   23.6411  -19.8778  -12.7474 C   0  0  1  0  0  0  0  0  0  0  0  0
   23.4626  -19.9910  -14.2242 C   0  0  0  0  0  0  0  0  0  0  0  0
   22.3325  -19.1462  -14.6698 C   0  0  0  0  0  0  0  0  0  0  0  0
   21.4622  -18.3252  -14.0026 C   0  0  0  0  0  0  0  0  0  0  0  0
   20.6195  -17.6923  -14.8631 N   0  0  0  0  0  0  0  0  0  0  0  0
   20.9546  -18.1102  -16.0816 C   0  0  0  0  0  0  0  0  0  0  0  0
   21.9722  -18.9763  -15.9912 N   0  0  0  0  0  0  0  0  0  0  0  0
   22.4477  -20.5410  -12.1248 C   0  0  0  0  0  0  0  0  0  0  0  0
   22.4085  -21.7600  -11.9628 O   0  0  0  0  0  0  0  0  0  0  0  0
   21.3599  -19.8014  -11.7158 O   0  0  0  0  0  0  0  0  0  0  0  0
  2  1  1  1
  2  3  1  0
  3  4  1  0
  4  5  1  0
  6  5  1  0
  7  6  1  0
  8  2  1  0
  8  9  2  0
 10  8  1  0
 11 22  1  0
 11 10  1  0
 11 12  1  1
 13 14  2  0
 13 12  1  0
 15 14  1  0
 16 21  2  0
 16 15  1  0
 17 16  1  0
 18 19  1  0
 18 17  2  0
 19 20  2  0
 20 21  1  0
 21 13  1  0
 22 23  2  0
 22 24  1  0
 24 25  1  0
 25 26  1  6
 26 27  1  0
 27 31  1  0
 28 27  2  0
 28 29  1  0
 29 30  1  0
 31 30  2  0
 32 25  1  0
 33 32  2  0
 34 32  1  0
M  END
$$$$
