KWH.pdb
     RDKit          3D

 34 36  0  0  1  0  0  0  0  0999 V2000
   29.1493  -23.8226  -16.4881 N   0  0  0  0  0  0  0  0  0  0  0  0
   28.5350  -22.5035  -16.6430 C   0  0  1  0  0  0  0  0  0  0  0  0
   27.6914  -22.5236  -17.9254 C   0  0  0  0  0  0  0  0  0  0  0  0
   28.6620  -22.5943  -19.0889 C   0  0  0  0  0  0  0  0  0  0  0  0
   28.7341  -23.9749  -19.6733 C   0  0  0  0  0  0  0  0  0  0  0  0
   29.5472  -24.0331  -20.9368 C   0  0  0  0  0  0  0  0  0  0  0  0
   29.5692  -25.4079  -21.4366 N   0  0  0  0  0  0  0  0  0  0  0  0
   27.6715  -22.2849  -15.4571 C   0  0  0  0  0  0  0  0  0  0  0  0
   26.9767  -23.1977  -15.0053 O   0  0  0  0  0  0  0  0  0  0  0  0
   27.6040  -21.0243  -14.7895 N   0  0  0  0  0  0  0  0  0  0  0  0
   26.8755  -20.7760  -13.6017 C   0  0  1  0  0  0  0  0  0  0  0  0
   27.4288  -19.7479  -12.6631 C   0  0  0  0  0  0  0  0  0  0  0  0
   28.2768  -20.3411  -11.6269 C   0  0  0  0  0  0  0  0  0  0  0  0
   29.5311  -20.9030  -11.7824 C   0  0  0  0  0  0  0  0  0  0  0  0
   29.9622  -21.3132  -10.5798 N   0  0  0  0  0  0  0  0  0  0  0  0
   29.0692  -21.0579   -9.6331 C   0  0  0  0  0  0  0  0  0  0  0  0
   29.0710  -21.2988   -8.2787 C   0  0  0  0  0  0  0  0  0  0  0  0
   27.9689  -20.9157   -7.5434 C   0  0  0  0  0  0  0  0  0  0  0  0
   26.8977  -20.3126   -8.1340 C   0  0  0  0  0  0  0  0  0  0  0  0
   26.9209  -20.0797   -9.5094 C   0  0  0  0  0  0  0  0  0  0  0  0
   27.9973  -20.4451  -10.2709 C   0  0  0  0  0  0  0  0  0  0  0  0
   25.4697  -20.4738  -13.9601 C   0  0  0  0  0  0  0  0  0  0  0  0
   25.2099  -19.6736  -14.9249 O   0  0  0  0  0  0  0  0  0  0  0  0
   24.3512  -21.0119  -13.3048 N   0  0  0  0  0  0  0  0  0  0  0  0
   22.9649  -20.7492  -13.7605 C   0  0  1  0  0  0  0  0  0  0  0  0
   22.4767  -21.8749  -14.6092 C   0  0  0  0  0  0  0  0  0  0  0  0
   21.0922  -21.6130  -15.0606 C   0  0  0  0  0  0  0  0  0  0  0  0
   20.2332  -20.5625  -14.8729 C   0  0  0  0  0  0  0  0  0  0  0  0
   19.0685  -20.7474  -15.5516 N   0  0  0  0  0  0  0  0  0  0  0  0
   19.1864  -21.9180  -16.1741 C   0  0  0  0  0  0  0  0  0  0  0  0
   20.3831  -22.4516  -15.8966 N   0  0  0  0  0  0  0  0  0  0  0  0
   22.1957  -20.8245  -12.4744 C   0  0  0  0  0  0  0  0  0  0  0  0
   22.6444  -21.4233  -11.4977 O   0  0  0  0  0  0  0  0  0  0  0  0
   20.9625  -20.2231  -12.3507 O   0  0  0  0  0  0  0  0  0  0  0  0
  2  1  1  1
  2  3  1  0
  3  4  1  0
  4  5  1  0
  6  5  1  0
  7  6  1  0
  8  2  1  0
  8  9  2  0
 10  8  1  0
 11 22  1  0
 11 10  1  0
 11 12  1  6
 13 14  2  0
 13 12  1  0
 15 14  1  0
 16 21  2  0
 16 15  1  0
 17 16  1  0
 18 19  1  0
 18 17  2  0
 19 20  2  0
 20 21  1  0
 21 13  1  0
 22 23  2  0
 22 24  1  0
 24 25  1  0
 25 26  1  6
 26 27  1  0
 27 31  1  0
 28 27  2  0
 28 29  1  0
 29 30  1  0
 31 30  2  0
 32 25  1  0
 33 32  2  0
 34 32  1  0
M  END
$$$$
