KWH.pdb
     RDKit          3D

 34 36  0  0  1  0  0  0  0  0999 V2000
   28.9903  -22.9248  -15.2218 N   0  0  0  0  0  0  0  0  0  0  0  0
   28.4991  -21.5695  -14.9708 C   0  0  1  0  0  0  0  0  0  0  0  0
   27.6136  -21.1616  -16.1566 C   0  0  0  0  0  0  0  0  0  0  0  0
   28.5171  -21.0805  -17.3723 C   0  0  0  0  0  0  0  0  0  0  0  0
   27.7861  -20.5669  -18.5784 C   0  0  0  0  0  0  0  0  0  0  0  0
   28.6905  -20.3426  -19.7585 C   0  0  0  0  0  0  0  0  0  0  0  0
   27.9002  -19.8579  -20.8902 N   0  0  0  0  0  0  0  0  0  0  0  0
   27.7016  -21.6214  -13.7213 C   0  0  0  0  0  0  0  0  0  0  0  0
   26.5140  -21.9519  -13.7436 O   0  0  0  0  0  0  0  0  0  0  0  0
   28.2627  -21.2962  -12.4489 N   0  0  0  0  0  0  0  0  0  0  0  0
   27.5485  -21.2933  -11.2269 C   0  0  1  0  0  0  0  0  0  0  0  0
   28.3350  -21.0443   -9.9766 C   0  0  0  0  0  0  0  0  0  0  0  0
   27.4737  -20.8467   -8.8087 C   0  0  0  0  0  0  0  0  0  0  0  0
   26.1288  -21.1477   -8.6916 C   0  0  0  0  0  0  0  0  0  0  0  0
   25.7299  -20.8238   -7.4520 N   0  0  0  0  0  0  0  0  0  0  0  0
   26.7295  -20.3249   -6.7373 C   0  0  0  0  0  0  0  0  0  0  0  0
   26.7923  -19.8598   -5.4442 C   0  0  0  0  0  0  0  0  0  0  0  0
   27.9999  -19.3859   -4.9761 C   0  0  0  0  0  0  0  0  0  0  0  0
   29.1109  -19.3736   -5.7670 C   0  0  0  0  0  0  0  0  0  0  0  0
   29.0205  -19.8509   -7.0749 C   0  0  0  0  0  0  0  0  0  0  0  0
   27.8396  -20.3295   -7.5733 C   0  0  0  0  0  0  0  0  0  0  0  0
   26.4118  -20.3496  -11.3424 C   0  0  0  0  0  0  0  0  0  0  0  0
   26.6206  -19.1272  -11.6597 O   0  0  0  0  0  0  0  0  0  0  0  0
   25.0690  -20.6954  -11.1243 N   0  0  0  0  0  0  0  0  0  0  0  0
   23.9472  -19.9048  -11.6855 C   0  0  1  0  0  0  0  0  0  0  0  0
   23.9230  -20.0235  -13.1724 C   0  0  0  0  0  0  0  0  0  0  0  0
   22.7827  -19.2622  -13.7286 C   0  0  0  0  0  0  0  0  0  0  0  0
   22.5673  -17.9256  -13.9380 C   0  0  0  0  0  0  0  0  0  0  0  0
   21.3712  -17.7060  -14.5482 N   0  0  0  0  0  0  0  0  0  0  0  0
   20.8239  -18.9058  -14.7290 C   0  0  0  0  0  0  0  0  0  0  0  0
   21.6464  -19.8475  -14.2490 N   0  0  0  0  0  0  0  0  0  0  0  0
   22.7525  -20.6597  -11.1812 C   0  0  0  0  0  0  0  0  0  0  0  0
   22.7660  -21.8865  -11.0898 O   0  0  0  0  0  0  0  0  0  0  0  0
   21.6042  -19.9982  -10.8049 O   0  0  0  0  0  0  0  0  0  0  0  0
  2  1  1  6
  2  3  1  0
  3  4  1  0
  4  5  1  0
  6  5  1  0
  7  6  1  0
  8  2  1  0
  8  9  2  0
 10  8  1  0
 11 22  1  0
 11 10  1  0
 11 12  1  1
 13 14  2  0
 13 12  1  0
 15 14  1  0
 16 21  2  0
 16 15  1  0
 17 16  1  0
 18 19  1  0
 18 17  2  0
 19 20  2  0
 20 21  1  0
 21 13  1  0
 22 23  2  0
 22 24  1  0
 24 25  1  0
 25 26  1  6
 26 27  1  0
 27 31  1  0
 28 27  2  0
 28 29  1  0
 29 30  1  0
 31 30  2  0
 32 25  1  0
 33 32  2  0
 34 32  1  0
M  END
$$$$
