KWH.pdb
     RDKit          3D

 34 36  0  0  1  0  0  0  0  0999 V2000
   29.5549  -21.7256  -13.7460 N   0  0  0  0  0  0  0  0  0  0  0  0
   28.5015  -20.7128  -13.6700 C   0  0  1  0  0  0  0  0  0  0  0  0
   27.8251  -20.6315  -15.0457 C   0  0  0  0  0  0  0  0  0  0  0  0
   28.7581  -19.8471  -15.9485 C   0  0  0  0  0  0  0  0  0  0  0  0
   28.5530  -18.3665  -15.8127 C   0  0  0  0  0  0  0  0  0  0  0  0
   29.4526  -17.5666  -16.7137 C   0  0  0  0  0  0  0  0  0  0  0  0
   29.1621  -17.8991  -18.1084 N   0  0  0  0  0  0  0  0  0  0  0  0
   27.5342  -21.1689  -12.6423 C   0  0  0  0  0  0  0  0  0  0  0  0
   26.8985  -22.2144  -12.7934 O   0  0  0  0  0  0  0  0  0  0  0  0
   27.2955  -20.4298  -11.4438 N   0  0  0  0  0  0  0  0  0  0  0  0
   26.2522  -20.6944  -10.5247 C   0  0  1  0  0  0  0  0  0  0  0  0
   26.3330  -20.0233   -9.1878 C   0  0  0  0  0  0  0  0  0  0  0  0
   27.6126  -20.2693   -8.5194 C   0  0  0  0  0  0  0  0  0  0  0  0
   28.8447  -20.4866   -9.1093 C   0  0  0  0  0  0  0  0  0  0  0  0
   29.7548  -20.6534   -8.1374 N   0  0  0  0  0  0  0  0  0  0  0  0
   29.2015  -20.5602   -6.9357 C   0  0  0  0  0  0  0  0  0  0  0  0
   29.7298  -20.6655   -5.6699 C   0  0  0  0  0  0  0  0  0  0  0  0
   28.8811  -20.5252   -4.5919 C   0  0  0  0  0  0  0  0  0  0  0  0
   27.5492  -20.2883   -4.7646 C   0  0  0  0  0  0  0  0  0  0  0  0
   27.0385  -20.1859   -6.0590 C   0  0  0  0  0  0  0  0  0  0  0  0
   27.8502  -20.3185   -7.1524 C   0  0  0  0  0  0  0  0  0  0  0  0
   24.9547  -20.4189  -11.1854 C   0  0  0  0  0  0  0  0  0  0  0  0
   24.8722  -19.5162  -12.0892 O   0  0  0  0  0  0  0  0  0  0  0  0
   23.7576  -21.0911  -10.8931 N   0  0  0  0  0  0  0  0  0  0  0  0
   22.5637  -20.9973  -11.7672 C   0  0  1  0  0  0  0  0  0  0  0  0
   22.2627  -22.3252  -12.3768 C   0  0  0  0  0  0  0  0  0  0  0  0
   20.9815  -22.2714  -13.1151 C   0  0  0  0  0  0  0  0  0  0  0  0
   20.0635  -21.2751  -13.3182 C   0  0  0  0  0  0  0  0  0  0  0  0
   19.0584  -21.6869  -14.1375 N   0  0  0  0  0  0  0  0  0  0  0  0
   19.3375  -22.9481  -14.4583 C   0  0  0  0  0  0  0  0  0  0  0  0
   20.4780  -23.3176  -13.8612 N   0  0  0  0  0  0  0  0  0  0  0  0
   21.4715  -20.7304  -10.7735 C   0  0  0  0  0  0  0  0  0  0  0  0
   20.5488  -19.9589  -11.0327 O   0  0  0  0  0  0  0  0  0  0  0  0
   21.4711  -21.3439   -9.5401 O   0  0  0  0  0  0  0  0  0  0  0  0
  2  1  1  6
  2  3  1  0
  3  4  1  0
  4  5  1  0
  6  5  1  0
  7  6  1  0
  8  2  1  0
  8  9  2  0
 10  8  1  0
 11 22  1  0
 11 10  1  0
 11 12  1  1
 13 14  2  0
 13 12  1  0
 15 14  1  0
 16 21  2  0
 16 15  1  0
 17 16  1  0
 18 19  1  0
 18 17  2  0
 19 20  2  0
 20 21  1  0
 21 13  1  0
 22 23  2  0
 22 24  1  0
 24 25  1  0
 25 26  1  1
 26 27  1  0
 27 31  1  0
 28 27  2  0
 28 29  1  0
 29 30  1  0
 31 30  2  0
 32 25  1  0
 33 32  2  0
 34 32  1  0
M  END
$$$$
