SQH.pdb
     RDKit          3D

 26 26  0  0  1  0  0  0  0  0999 V2000
   16.1644  -10.4860  -17.4270 O   0  0  0  0  0  0  0  0  0  0  0  0
   17.1057  -10.0030  -16.5366 C   0  0  0  0  0  0  0  0  0  0  0  0
   18.1321  -11.0842  -16.2763 C   0  0  2  0  0  0  0  0  0  0  0  0
   17.5746  -12.2127  -15.5813 N   0  0  0  0  0  0  0  0  0  0  0  0
   19.2221  -10.5089  -15.4663 C   0  0  0  0  0  0  0  0  0  0  0  0
   19.1240  -10.3933  -14.2296 O   0  0  0  0  0  0  0  0  0  0  0  0
   24.7715  -11.9059  -16.3796 N   0  0  0  0  0  0  0  0  0  0  0  0
   25.0778  -10.7847  -15.5886 C   0  0  0  0  0  0  0  0  0  0  0  0
   26.2464  -10.5884  -15.1941 O   0  0  0  0  0  0  0  0  0  0  0  0
   24.0251   -9.8076  -15.2022 C   0  0  0  0  0  0  0  0  0  0  0  0
   22.7136  -10.2277  -15.7607 C   0  0  0  0  0  0  0  0  0  0  0  0
   21.5169   -9.4432  -15.3618 C   0  0  2  0  0  0  0  0  0  0  0  0
   20.4007  -10.0810  -16.1084 N   0  0  0  0  0  0  0  0  0  0  0  0
   21.4951   -8.0247  -15.6989 C   0  0  0  0  0  0  0  0  0  0  0  0
   21.4619   -7.7025  -16.9355 O   0  0  0  0  0  0  0  0  0  0  0  0
   21.5023   -6.9467  -14.7966 N   0  0  0  0  0  0  0  0  0  0  0  0
   21.5134   -5.5497  -15.2521 C   0  0  1  0  0  0  0  0  0  0  0  0
   20.1784   -4.9224  -14.9932 C   0  0  0  0  0  0  0  0  0  0  0  0
   19.1103   -5.4472  -15.8785 C   0  0  0  0  0  0  0  0  0  0  0  0
   18.9802   -5.1584  -17.2484 C   0  0  0  0  0  0  0  0  0  0  0  0
   17.9129   -5.7904  -17.7484 N   0  0  0  0  0  0  0  0  0  0  0  0
   17.3705   -6.4685  -16.7252 C   0  0  0  0  0  0  0  0  0  0  0  0
   18.0809   -6.2669  -15.6088 N   0  0  0  0  0  0  0  0  0  0  0  0
   22.5939   -4.8702  -14.5242 C   0  0  0  0  0  0  0  0  0  0  0  0
   23.3348   -5.3812  -13.6459 O   0  0  0  0  0  0  0  0  0  0  0  0
   22.8603   -3.5160  -14.8063 O   0  0  0  0  0  0  0  0  0  0  0  0
  1  2  1  0
  3  2  1  0
  3  5  1  0
  3  4  1  1
  5  6  2  0
  7  8  1  0
  8  9  2  0
  8 10  1  0
 10 11  1  0
 12 11  1  6
 12 14  1  0
 13 12  1  0
 13  5  1  0
 14 15  2  0
 16 17  1  0
 16 14  1  0
 17 24  1  0
 18 19  1  0
 17 18  1  1
 19 20  2  0
 20 21  1  0
 22 21  1  0
 23 19  1  0
 23 22  2  0
 24 25  2  0
 24 26  1  0
M  END
$$$$
