SQH.pdb
     RDKit          3D

 26 26  0  0  1  0  0  0  0  0999 V2000
   22.3018  -12.6970  -17.5203 O   0  0  0  0  0  0  0  0  0  0  0  0
   21.3695  -12.3959  -18.4962 C   0  0  0  0  0  0  0  0  0  0  0  0
   22.0501  -11.6104  -19.5963 C   0  0  2  0  0  0  0  0  0  0  0  0
   23.2949  -12.2037  -20.0031 N   0  0  0  0  0  0  0  0  0  0  0  0
   22.3048  -10.2430  -19.1056 C   0  0  0  0  0  0  0  0  0  0  0  0
   23.4487   -9.8685  -18.7838 O   0  0  0  0  0  0  0  0  0  0  0  0
   19.9494   -5.7888  -21.8732 N   0  0  0  0  0  0  0  0  0  0  0  0
   20.4265   -5.0114  -20.8033 C   0  0  0  0  0  0  0  0  0  0  0  0
   20.4145   -3.7645  -20.8720 O   0  0  0  0  0  0  0  0  0  0  0  0
   20.9553   -5.6487  -19.5679 C   0  0  0  0  0  0  0  0  0  0  0  0
   20.9199   -7.1280  -19.7052 C   0  0  0  0  0  0  0  0  0  0  0  0
   21.4196   -7.9337  -18.5614 C   0  0  2  0  0  0  0  0  0  0  0  0
   21.2276   -9.3414  -18.9992 N   0  0  0  0  0  0  0  0  0  0  0  0
   20.7332   -7.7911  -17.2829 C   0  0  0  0  0  0  0  0  0  0  0  0
   19.6916   -8.5034  -17.0785 O   0  0  0  0  0  0  0  0  0  0  0  0
   21.0986   -6.9423  -16.2234 N   0  0  0  0  0  0  0  0  0  0  0  0
   20.3341   -6.8878  -14.9698 C   0  0  1  0  0  0  0  0  0  0  0  0
   21.2640   -7.0220  -13.8036 C   0  0  0  0  0  0  0  0  0  0  0  0
   21.7927   -8.3981  -13.6397 C   0  0  0  0  0  0  0  0  0  0  0  0
   21.3946   -9.5135  -14.3977 C   0  0  0  0  0  0  0  0  0  0  0  0
   22.0639  -10.5997  -13.9967 N   0  0  0  0  0  0  0  0  0  0  0  0
   22.8721  -10.1924  -13.0058 C   0  0  0  0  0  0  0  0  0  0  0  0
   22.7138   -8.8810  -12.7897 N   0  0  0  0  0  0  0  0  0  0  0  0
   19.6172   -5.6052  -14.9604 C   0  0  0  0  0  0  0  0  0  0  0  0
   19.6465   -4.7303  -15.8633 O   0  0  0  0  0  0  0  0  0  0  0  0
   18.8073   -5.2842  -13.8534 O   0  0  0  0  0  0  0  0  0  0  0  0
  1  2  1  0
  3  2  1  0
  3  5  1  0
  3  4  1  1
  5  6  2  0
  7  8  1  0
  8  9  2  0
  8 10  1  0
 10 11  1  0
 12 11  1  6
 12 14  1  0
 13 12  1  0
 13  5  1  0
 14 15  2  0
 16 17  1  0
 16 14  1  0
 17 24  1  0
 18 19  1  0
 17 18  1  1
 19 20  2  0
 20 21  1  0
 22 21  1  0
 23 19  1  0
 23 22  2  0
 24 25  2  0
 24 26  1  0
M  END
$$$$
