SQH.pdb
     RDKit          3D

 26 26  0  0  1  0  0  0  0  0999 V2000
   18.0106  -13.9487  -15.5043 O   0  0  0  0  0  0  0  0  0  0  0  0
   17.0265  -13.0785  -15.0724 C   0  0  0  0  0  0  0  0  0  0  0  0
   16.3450  -12.4733  -16.2805 C   0  0  2  0  0  0  0  0  0  0  0  0
   16.0615  -13.4507  -17.2962 N   0  0  0  0  0  0  0  0  0  0  0  0
   17.2274  -11.4342  -16.8435 C   0  0  0  0  0  0  0  0  0  0  0  0
   17.7556  -11.5648  -17.9644 O   0  0  0  0  0  0  0  0  0  0  0  0
   19.3494   -5.7808  -18.5749 N   0  0  0  0  0  0  0  0  0  0  0  0
   18.2367   -6.2201  -17.8361 C   0  0  0  0  0  0  0  0  0  0  0  0
   17.1036   -6.2569  -18.3598 O   0  0  0  0  0  0  0  0  0  0  0  0
   18.3779   -6.6504  -16.4194 C   0  0  0  0  0  0  0  0  0  0  0  0
   17.6604   -7.9341  -16.2052 C   0  0  0  0  0  0  0  0  0  0  0  0
   18.3619   -9.1837  -16.5966 C   0  0  2  0  0  0  0  0  0  0  0  0
   17.4772  -10.2678  -16.0942 N   0  0  0  0  0  0  0  0  0  0  0  0
   19.6850   -9.4217  -16.0320 C   0  0  0  0  0  0  0  0  0  0  0  0
   19.7588   -9.7802  -14.8071 O   0  0  0  0  0  0  0  0  0  0  0  0
   20.9168   -9.3030  -16.6990 N   0  0  0  0  0  0  0  0  0  0  0  0
   22.1953   -9.5761  -16.0283 C   0  0  1  0  0  0  0  0  0  0  0  0
   23.2475   -9.8807  -17.0494 C   0  0  0  0  0  0  0  0  0  0  0  0
   24.6042  -10.0069  -16.4633 C   0  0  0  0  0  0  0  0  0  0  0  0
   24.9492  -10.8560  -15.3970 C   0  0  0  0  0  0  0  0  0  0  0  0
   26.2501  -10.7279  -15.1145 N   0  0  0  0  0  0  0  0  0  0  0  0
   26.7292   -9.8190  -15.9778 C   0  0  0  0  0  0  0  0  0  0  0  0
   25.7517   -9.3866  -16.7835 N   0  0  0  0  0  0  0  0  0  0  0  0
   22.5250   -8.3852  -15.2331 C   0  0  0  0  0  0  0  0  0  0  0  0
   22.4055   -7.1887  -15.6013 O   0  0  0  0  0  0  0  0  0  0  0  0
   23.0257   -8.5539  -13.9272 O   0  0  0  0  0  0  0  0  0  0  0  0
  1  2  1  0
  3  2  1  0
  3  5  1  0
  3  4  1  6
  5  6  2  0
  7  8  1  0
  8  9  2  0
  8 10  1  0
 10 11  1  0
 12 11  1  1
 12 14  1  0
 13 12  1  0
 13  5  1  0
 14 15  2  0
 16 17  1  0
 16 14  1  0
 17 24  1  0
 18 19  1  0
 17 18  1  6
 19 20  2  0
 20 21  1  0
 22 21  1  0
 23 19  1  0
 23 22  2  0
 24 25  2  0
 24 26  1  0
M  END
$$$$
