SQH.pdb
     RDKit          3D

 26 26  0  0  1  0  0  0  0  0999 V2000
   27.7326  -19.3746  -17.2961 O   0  0  0  0  0  0  0  0  0  0  0  0
   26.3919  -19.6599  -17.1130 C   0  0  0  0  0  0  0  0  0  0  0  0
   26.2672  -20.8398  -16.1737 C   0  0  2  0  0  0  0  0  0  0  0  0
   26.6393  -22.0796  -16.7995 N   0  0  0  0  0  0  0  0  0  0  0  0
   24.8669  -20.9298  -15.7193 C   0  0  0  0  0  0  0  0  0  0  0  0
   24.0089  -21.5552  -16.3714 O   0  0  0  0  0  0  0  0  0  0  0  0
   23.6763  -20.1852   -9.8493 N   0  0  0  0  0  0  0  0  0  0  0  0
   22.3383  -20.2253  -10.2790 C   0  0  0  0  0  0  0  0  0  0  0  0
   21.4061  -20.2202   -9.4480 O   0  0  0  0  0  0  0  0  0  0  0  0
   21.9984  -20.2746  -11.7262 C   0  0  0  0  0  0  0  0  0  0  0  0
   23.2423  -20.3162  -12.5382 C   0  0  0  0  0  0  0  0  0  0  0  0
   23.0948  -20.3196  -14.0164 C   0  0  2  0  0  0  0  0  0  0  0  0
   24.4935  -20.2929  -14.5196 N   0  0  0  0  0  0  0  0  0  0  0  0
   22.4032  -19.1918  -14.6295 C   0  0  0  0  0  0  0  0  0  0  0  0
   23.1125  -18.2540  -15.1310 O   0  0  0  0  0  0  0  0  0  0  0  0
   21.0124  -19.0174  -14.7377 N   0  0  0  0  0  0  0  0  0  0  0  0
   20.4237  -17.8797  -15.4575 C   0  0  1  0  0  0  0  0  0  0  0  0
   20.5622  -18.0886  -16.9340 C   0  0  0  0  0  0  0  0  0  0  0  0
   21.7047  -17.3456  -17.5194 C   0  0  0  0  0  0  0  0  0  0  0  0
   22.5640  -16.4905  -16.8072 C   0  0  0  0  0  0  0  0  0  0  0  0
   23.4862  -15.9811  -17.6311 N   0  0  0  0  0  0  0  0  0  0  0  0
   23.2258  -16.4962  -18.8427 C   0  0  0  0  0  0  0  0  0  0  0  0
   22.1649  -17.3099  -18.7808 N   0  0  0  0  0  0  0  0  0  0  0  0
   19.0173  -17.7908  -15.0413 C   0  0  0  0  0  0  0  0  0  0  0  0
   18.2381  -18.7576  -14.8423 O   0  0  0  0  0  0  0  0  0  0  0  0
   18.4462  -16.5199  -14.8335 O   0  0  0  0  0  0  0  0  0  0  0  0
  1  2  1  0
  3  2  1  0
  3  5  1  0
  3  4  1  6
  5  6  2  0
  7  8  1  0
  8  9  2  0
  8 10  1  0
 10 11  1  0
 12 11  1  1
 12 14  1  0
 13 12  1  0
 13  5  1  0
 14 15  2  0
 16 17  1  0
 16 14  1  0
 17 24  1  0
 18 19  1  0
 17 18  1  6
 19 20  2  0
 20 21  1  0
 22 21  1  0
 23 19  1  0
 23 22  2  0
 24 25  2  0
 24 26  1  0
M  END
$$$$
