SQH.pdb
     RDKit          3D

 26 26  0  0  1  0  0  0  0  0999 V2000
   16.3197   -7.7464  -14.5876 O   0  0  0  0  0  0  0  0  0  0  0  0
   16.0224   -8.8787  -13.8517 C   0  0  0  0  0  0  0  0  0  0  0  0
   17.1150   -9.9032  -14.0683 C   0  0  2  0  0  0  0  0  0  0  0  0
   16.8445  -11.1434  -13.3929 N   0  0  0  0  0  0  0  0  0  0  0  0
   18.3845   -9.3464  -13.5649 C   0  0  0  0  0  0  0  0  0  0  0  0
   18.6057   -9.2274  -12.3445 O   0  0  0  0  0  0  0  0  0  0  0  0
   23.6732  -10.8771  -15.4221 N   0  0  0  0  0  0  0  0  0  0  0  0
   22.8929  -10.2669  -16.4198 C   0  0  0  0  0  0  0  0  0  0  0  0
   23.1059  -10.5084  -17.6263 O   0  0  0  0  0  0  0  0  0  0  0  0
   21.7989   -9.3227  -16.0677 C   0  0  0  0  0  0  0  0  0  0  0  0
   21.6959   -9.1936  -14.5908 C   0  0  0  0  0  0  0  0  0  0  0  0
   20.6379   -8.2996  -14.0540 C   0  0  2  0  0  0  0  0  0  0  0  0
   19.3684   -8.9404  -14.4877 N   0  0  0  0  0  0  0  0  0  0  0  0
   20.6046   -6.9247  -14.5384 C   0  0  0  0  0  0  0  0  0  0  0  0
   19.7685   -6.6336  -15.4605 O   0  0  0  0  0  0  0  0  0  0  0  0
   21.4035   -5.8574  -14.0924 N   0  0  0  0  0  0  0  0  0  0  0  0
   21.2080   -4.4834  -14.5749 C   0  0  1  0  0  0  0  0  0  0  0  0
   19.8251   -4.0197  -14.2354 C   0  0  0  0  0  0  0  0  0  0  0  0
   19.5699   -2.6152  -14.6381 C   0  0  0  0  0  0  0  0  0  0  0  0
   19.8738   -2.0662  -15.8965 C   0  0  0  0  0  0  0  0  0  0  0  0
   19.5167   -0.7779  -15.9303 N   0  0  0  0  0  0  0  0  0  0  0  0
   18.9962   -0.5056  -14.7237 C   0  0  0  0  0  0  0  0  0  0  0  0
   19.0259   -1.5977  -13.9503 N   0  0  0  0  0  0  0  0  0  0  0  0
   22.2408   -3.6545  -13.9382 C   0  0  0  0  0  0  0  0  0  0  0  0
   23.1194   -4.0514  -13.1307 O   0  0  0  0  0  0  0  0  0  0  0  0
   22.2882   -2.2777  -14.2325 O   0  0  0  0  0  0  0  0  0  0  0  0
  1  2  1  0
  3  2  1  0
  3  5  1  0
  3  4  1  1
  5  6  2  0
  7  8  1  0
  8  9  2  0
  8 10  1  0
 10 11  1  0
 12 11  1  6
 12 14  1  0
 13 12  1  0
 13  5  1  0
 14 15  2  0
 16 17  1  0
 16 14  1  0
 17 24  1  0
 18 19  1  0
 17 18  1  1
 19 20  2  0
 20 21  1  0
 22 21  1  0
 23 19  1  0
 23 22  2  0
 24 25  2  0
 24 26  1  0
M  END
$$$$
