SQH.pdb
     RDKit          3D

 26 26  0  0  1  0  0  0  0  0999 V2000
   22.7787  -13.8890  -15.8778 O   0  0  0  0  0  0  0  0  0  0  0  0
   22.8311  -12.9541  -16.8954 C   0  0  0  0  0  0  0  0  0  0  0  0
   22.9774  -11.5765  -16.2862 C   0  0  2  0  0  0  0  0  0  0  0  0
   21.9622  -11.3006  -15.3061 N   0  0  0  0  0  0  0  0  0  0  0  0
   22.8901  -10.5760  -17.3663 C   0  0  0  0  0  0  0  0  0  0  0  0
   23.7192  -10.5462  -18.2959 O   0  0  0  0  0  0  0  0  0  0  0  0
   18.1520  -10.5753  -19.0092 N   0  0  0  0  0  0  0  0  0  0  0  0
   19.1108  -10.8101  -20.0103 C   0  0  0  0  0  0  0  0  0  0  0  0
   18.9526  -11.7354  -20.8339 O   0  0  0  0  0  0  0  0  0  0  0  0
   20.3322   -9.9679  -20.1155 C   0  0  0  0  0  0  0  0  0  0  0  0
   20.3508   -8.9624  -19.0213 C   0  0  0  0  0  0  0  0  0  0  0  0
   21.6684   -8.6259  -18.4234 C   0  0  2  0  0  0  0  0  0  0  0  0
   21.8437   -9.6331  -17.3440 N   0  0  0  0  0  0  0  0  0  0  0  0
   21.8150   -7.3135  -17.8051 C   0  0  0  0  0  0  0  0  0  0  0  0
   21.8737   -6.2924  -18.5719 O   0  0  0  0  0  0  0  0  0  0  0  0
   21.8966   -7.0376  -16.4291 N   0  0  0  0  0  0  0  0  0  0  0  0
   21.8621   -5.6647  -15.9065 C   0  0  1  0  0  0  0  0  0  0  0  0
   20.5737   -5.0075  -16.2949 C   0  0  0  0  0  0  0  0  0  0  0  0
   20.4688   -3.6086  -15.8133 C   0  0  0  0  0  0  0  0  0  0  0  0
   21.5203   -2.8670  -15.2463 C   0  0  0  0  0  0  0  0  0  0  0  0
   21.0911   -1.6431  -14.9200 N   0  0  0  0  0  0  0  0  0  0  0  0
   19.7959   -1.5993  -15.2686 C   0  0  0  0  0  0  0  0  0  0  0  0
   19.4208   -2.7685  -15.8014 N   0  0  0  0  0  0  0  0  0  0  0  0
   22.0179   -5.7572  -14.4483 C   0  0  0  0  0  0  0  0  0  0  0  0
   22.1389   -6.8149  -13.7790 O   0  0  0  0  0  0  0  0  0  0  0  0
   22.0394   -4.5716  -13.6878 O   0  0  0  0  0  0  0  0  0  0  0  0
  1  2  1  0
  3  2  1  0
  3  5  1  0
  3  4  1  1
  5  6  2  0
  7  8  1  0
  8  9  2  0
  8 10  1  0
 10 11  1  0
 12 11  1  1
 12 14  1  0
 13 12  1  0
 13  5  1  0
 14 15  2  0
 16 17  1  0
 16 14  1  0
 17 24  1  0
 18 19  1  0
 17 18  1  1
 19 20  2  0
 20 21  1  0
 22 21  1  0
 23 19  1  0
 23 22  2  0
 24 25  2  0
 24 26  1  0
M  END
$$$$
