CCA.pdb
     RDKit          3D

 18 17  0  0  1  0  0  0  0  0999 V2000
   30.2040  -30.9150  -16.8282 N   0  0  0  0  0  0  0  0  0  0  0  0
   29.4693  -32.1611  -16.8359 C   0  0  1  0  0  0  0  0  0  0  0  0
   30.2496  -33.2605  -16.1379 C   0  0  0  0  0  0  0  0  0  0  0  0
   31.6180  -33.7844  -17.2002 S   0  0  0  0  0  0  0  0  0  0  0  0
   28.1996  -31.9656  -16.1082 C   0  0  0  0  0  0  0  0  0  0  0  0
   28.1813  -31.1519  -15.1556 O   0  0  0  0  0  0  0  0  0  0  0  0
   27.0407  -32.6935  -16.4972 N   0  0  0  0  0  0  0  0  0  0  0  0
   25.8187  -32.4321  -15.8112 C   0  0  1  0  0  0  0  0  0  0  0  0
   24.6962  -32.4053  -16.8248 C   0  0  0  0  0  0  0  0  0  0  0  0
   23.1751  -31.9594  -15.9592 S   0  0  0  0  0  0  0  0  0  0  0  0
   25.4831  -33.4536  -14.7890 C   0  0  0  0  0  0  0  0  0  0  0  0
   25.6352  -34.6812  -15.0072 O   0  0  0  0  0  0  0  0  0  0  0  0
   24.7339  -32.9959  -11.1763 C   0  0  0  0  0  0  0  0  0  0  0  0
   24.7670  -33.9001  -12.4114 C   0  0  2  0  0  0  0  0  0  0  0  0
   24.9826  -33.0225  -13.5483 N   0  0  0  0  0  0  0  0  0  0  0  0
   23.4245  -34.5194  -12.5577 C   0  0  0  0  0  0  0  0  0  0  0  0
   23.1830  -35.7356  -11.9231 O   0  0  0  0  0  0  0  0  0  0  0  0
   22.5142  -33.9956  -13.2213 O   0  0  0  0  0  0  0  0  0  0  0  0
  2  1  1  1
  2  3  1  0
  3  4  1  0
  5  2  1  0
  5  6  2  0
  7  5  1  0
  8  7  1  0
  8  9  1  6
 10  9  1  0
 11  8  1  0
 12 11  2  0
 14 13  1  1
 14 15  1  0
 14 16  1  0
 15 11  1  0
 16 17  1  0
 18 16  2  0
M  END
$$$$
