CCA.pdb
     RDKit          3D

 18 17  0  0  1  0  0  0  0  0999 V2000
   22.5181  -13.2654  -17.4582 N   0  0  0  0  0  0  0  0  0  0  0  0
   22.0702  -12.5988  -16.2549 C   0  0  1  0  0  0  0  0  0  0  0  0
   23.1342  -12.6493  -15.1733 C   0  0  0  0  0  0  0  0  0  0  0  0
   23.1476  -14.2991  -14.4293 S   0  0  0  0  0  0  0  0  0  0  0  0
   21.8032  -11.1816  -16.5713 C   0  0  0  0  0  0  0  0  0  0  0  0
   22.5889  -10.5889  -17.3467 O   0  0  0  0  0  0  0  0  0  0  0  0
   20.6770  -10.5277  -15.9984 N   0  0  0  0  0  0  0  0  0  0  0  0
   20.4542   -9.1582  -16.3253 C   0  0  1  0  0  0  0  0  0  0  0  0
   18.9716   -8.8761  -16.2233 C   0  0  0  0  0  0  0  0  0  0  0  0
   18.6955   -7.1623  -16.7216 S   0  0  0  0  0  0  0  0  0  0  0  0
   21.1593   -8.2123  -15.4259 C   0  0  0  0  0  0  0  0  0  0  0  0
   21.1756   -8.3729  -14.1802 O   0  0  0  0  0  0  0  0  0  0  0  0
   23.9952   -6.1303  -15.9286 C   0  0  0  0  0  0  0  0  0  0  0  0
   22.6285   -6.1697  -15.2396 C   0  0  2  0  0  0  0  0  0  0  0  0
   21.8224   -7.1118  -15.9959 N   0  0  0  0  0  0  0  0  0  0  0  0
   22.0117   -4.8250  -15.3756 C   0  0  0  0  0  0  0  0  0  0  0  0
   22.3834   -3.8311  -14.4734 O   0  0  0  0  0  0  0  0  0  0  0  0
   21.1811   -4.5557  -16.2594 O   0  0  0  0  0  0  0  0  0  0  0  0
  2  1  1  6
  2  3  1  0
  3  4  1  0
  5  2  1  0
  5  6  2  0
  7  5  1  0
  8  7  1  0
  8  9  1  1
 10  9  1  0
 11  8  1  0
 12 11  2  0
 14 13  1  6
 14 15  1  0
 14 16  1  0
 15 11  1  0
 16 17  1  0
 18 16  2  0
M  END
$$$$
