CCA.pdb
     RDKit          3D

 18 17  0  0  1  0  0  0  0  0999 V2000
   23.2654  -12.8959  -17.8816 N   0  0  0  0  0  0  0  0  0  0  0  0
   23.6808  -12.0587  -16.7773 C   0  0  1  0  0  0  0  0  0  0  0  0
   25.1341  -11.6442  -16.9217 C   0  0  0  0  0  0  0  0  0  0  0  0
   26.1966  -13.0554  -16.5281 S   0  0  0  0  0  0  0  0  0  0  0  0
   22.8525  -10.8366  -16.7731 C   0  0  0  0  0  0  0  0  0  0  0  0
   22.7141  -10.2104  -17.8495 O   0  0  0  0  0  0  0  0  0  0  0  0
   22.2377  -10.4015  -15.5661 N   0  0  0  0  0  0  0  0  0  0  0  0
   21.4182   -9.2358  -15.6091 C   0  0  1  0  0  0  0  0  0  0  0  0
   20.1484   -9.5138  -14.8356 C   0  0  0  0  0  0  0  0  0  0  0  0
   19.2503  -10.8252  -15.6932 S   0  0  0  0  0  0  0  0  0  0  0  0
   22.0600   -8.0384  -15.0131 C   0  0  0  0  0  0  0  0  0  0  0  0
   22.7321   -8.1073  -13.9541 O   0  0  0  0  0  0  0  0  0  0  0  0
   22.2092   -4.5218  -16.2952 C   0  0  0  0  0  0  0  0  0  0  0  0
   22.5803   -5.5814  -15.2542 C   0  0  2  0  0  0  0  0  0  0  0  0
   21.9039   -6.8007  -15.6607 N   0  0  0  0  0  0  0  0  0  0  0  0
   22.0131   -5.1550  -13.9490 C   0  0  0  0  0  0  0  0  0  0  0  0
   22.7335   -4.2451  -13.1789 O   0  0  0  0  0  0  0  0  0  0  0  0
   20.9259   -5.5776  -13.5213 O   0  0  0  0  0  0  0  0  0  0  0  0
  2  1  1  6
  2  3  1  0
  3  4  1  0
  5  2  1  0
  5  6  2  0
  7  5  1  0
  8  7  1  0
  8  9  1  1
 10  9  1  0
 11  8  1  0
 12 11  2  0
 14 13  1  6
 14 15  1  0
 14 16  1  0
 15 11  1  0
 16 17  1  0
 18 16  2  0
M  END
$$$$
