CCA.pdb
     RDKit          3D

 18 17  0  0  1  0  0  0  0  0999 V2000
   20.9051  -15.6203  -17.0324 N   0  0  0  0  0  0  0  0  0  0  0  0
   20.4459  -14.3173  -17.4613 C   0  0  1  0  0  0  0  0  0  0  0  0
   18.9299  -14.2391  -17.4454 C   0  0  0  0  0  0  0  0  0  0  0  0
   18.4171  -12.5561  -17.8699 S   0  0  0  0  0  0  0  0  0  0  0  0
   20.9684  -13.3008  -16.5266 C   0  0  0  0  0  0  0  0  0  0  0  0
   20.6096  -13.3577  -15.3275 O   0  0  0  0  0  0  0  0  0  0  0  0
   21.8548  -12.2932  -16.9988 N   0  0  0  0  0  0  0  0  0  0  0  0
   22.2573  -11.2700  -16.0913 C   0  0  1  0  0  0  0  0  0  0  0  0
   23.7459  -11.0508  -16.2458 C   0  0  0  0  0  0  0  0  0  0  0  0
   24.2705   -9.8786  -14.9758 S   0  0  0  0  0  0  0  0  0  0  0  0
   21.5802   -9.9709  -16.3253 C   0  0  0  0  0  0  0  0  0  0  0  0
   21.4973   -9.4665  -17.4728 O   0  0  0  0  0  0  0  0  0  0  0  0
   19.7599   -7.7427  -13.9292 C   0  0  0  0  0  0  0  0  0  0  0  0
   20.3459   -8.0151  -15.3171 C   0  0  2  0  0  0  0  0  0  0  0  0
   21.0213   -9.2975  -15.2254 N   0  0  0  0  0  0  0  0  0  0  0  0
   21.3709   -6.9749  -15.5902 C   0  0  0  0  0  0  0  0  0  0  0  0
   22.7078   -7.2824  -15.3487 O   0  0  0  0  0  0  0  0  0  0  0  0
   21.0815   -5.8472  -16.0236 O   0  0  0  0  0  0  0  0  0  0  0  0
  2  1  1  1
  2  3  1  0
  3  4  1  0
  5  2  1  0
  5  6  2  0
  7  5  1  0
  8  7  1  0
  8  9  1  6
 10  9  1  0
 11  8  1  0
 12 11  2  0
 14 13  1  1
 14 15  1  0
 14 16  1  0
 15 11  1  0
 16 17  1  0
 18 16  2  0
M  END
$$$$
