CCA.pdb
     RDKit          3D

 18 17  0  0  1  0  0  0  0  0999 V2000
   15.6447  -13.1823  -12.2116 N   0  0  0  0  0  0  0  0  0  0  0  0
   14.8667  -11.9628  -12.1980 C   0  0  1  0  0  0  0  0  0  0  0  0
   13.5464  -12.1644  -11.4762 C   0  0  0  0  0  0  0  0  0  0  0  0
   12.5376  -13.3478  -12.4020 S   0  0  0  0  0  0  0  0  0  0  0  0
   15.6297  -10.9234  -11.4789 C   0  0  0  0  0  0  0  0  0  0  0  0
   16.2427  -11.2522  -10.4367 O   0  0  0  0  0  0  0  0  0  0  0  0
   15.6534   -9.5905  -11.9758 N   0  0  0  0  0  0  0  0  0  0  0  0
   16.4301   -8.6230  -11.2738 C   0  0  1  0  0  0  0  0  0  0  0  0
   17.3367   -7.9261  -12.2641 C   0  0  0  0  0  0  0  0  0  0  0  0
   18.9177   -8.7991  -12.2811 S   0  0  0  0  0  0  0  0  0  0  0  0
   15.6134   -7.5853  -10.5977 C   0  0  0  0  0  0  0  0  0  0  0  0
   14.7514   -6.9148  -11.2184 O   0  0  0  0  0  0  0  0  0  0  0  0
   15.4678   -6.6517   -6.9751 C   0  0  0  0  0  0  0  0  0  0  0  0
   15.0128   -6.4548   -8.4236 C   0  0  2  0  0  0  0  0  0  0  0  0
   15.8200   -7.3567   -9.2263 N   0  0  0  0  0  0  0  0  0  0  0  0
   15.3478   -5.0628   -8.8203 C   0  0  0  0  0  0  0  0  0  0  0  0
   16.4281   -4.8592   -9.6756 O   0  0  0  0  0  0  0  0  0  0  0  0
   14.7037   -4.0790   -8.4196 O   0  0  0  0  0  0  0  0  0  0  0  0
  2  1  1  1
  2  3  1  0
  3  4  1  0
  5  2  1  0
  5  6  2  0
  7  5  1  0
  8  7  1  0
  8  9  1  6
 10  9  1  0
 11  8  1  0
 12 11  2  0
 14 13  1  1
 14 15  1  0
 14 16  1  0
 15 11  1  0
 16 17  1  0
 18 16  2  0
M  END
$$$$
