CCA.pdb
     RDKit          3D

 18 17  0  0  1  0  0  0  0  0999 V2000
   31.8762   -9.1158  -17.2744 N   0  0  0  0  0  0  0  0  0  0  0  0
   33.0678   -8.5313  -16.6991 C   0  0  1  0  0  0  0  0  0  0  0  0
   34.2947   -8.8603  -17.5305 C   0  0  0  0  0  0  0  0  0  0  0  0
   34.6173  -10.6386  -17.4359 S   0  0  0  0  0  0  0  0  0  0  0  0
   32.9095   -7.0636  -16.6741 C   0  0  0  0  0  0  0  0  0  0  0  0
   32.3625   -6.5094  -17.6557 O   0  0  0  0  0  0  0  0  0  0  0  0
   33.3740   -6.3198  -15.5538 N   0  0  0  0  0  0  0  0  0  0  0  0
   33.0825   -4.9252  -15.5027 C   0  0  1  0  0  0  0  0  0  0  0  0
   32.1960   -4.6645  -14.3051 C   0  0  0  0  0  0  0  0  0  0  0  0
   31.7983   -2.9029  -14.2802 S   0  0  0  0  0  0  0  0  0  0  0  0
   34.2891   -4.0725  -15.3688 C   0  0  0  0  0  0  0  0  0  0  0  0
   35.1408   -4.2701  -14.4669 O   0  0  0  0  0  0  0  0  0  0  0  0
   35.4880   -1.2605  -17.5315 C   0  0  0  0  0  0  0  0  0  0  0  0
   35.6298   -2.1434  -16.2887 C   0  0  2  0  0  0  0  0  0  0  0  0
   34.4714   -3.0194  -16.2817 N   0  0  0  0  0  0  0  0  0  0  0  0
   35.5475   -1.2639  -15.0942 C   0  0  0  0  0  0  0  0  0  0  0  0
   34.2961   -0.7944  -14.7019 O   0  0  0  0  0  0  0  0  0  0  0  0
   36.5478   -0.9334  -14.4358 O   0  0  0  0  0  0  0  0  0  0  0  0
  2  1  1  6
  2  3  1  0
  3  4  1  0
  5  2  1  0
  5  6  2  0
  7  5  1  0
  8  7  1  0
  8  9  1  1
 10  9  1  0
 11  8  1  0
 12 11  2  0
 14 13  1  6
 14 15  1  0
 14 16  1  0
 15 11  1  0
 16 17  1  0
 18 16  2  0
M  END
$$$$
