CCA.pdb
     RDKit          3D

 18 17  0  0  1  0  0  0  0  0999 V2000
   28.7113  -19.6442  -15.6305 N   0  0  0  0  0  0  0  0  0  0  0  0
   27.7847  -19.0886  -14.6685 C   0  0  1  0  0  0  0  0  0  0  0  0
   26.9564  -17.9763  -15.2861 C   0  0  0  0  0  0  0  0  0  0  0  0
   26.5048  -16.7868  -13.9991 S   0  0  0  0  0  0  0  0  0  0  0  0
   26.8649  -20.1559  -14.2274 C   0  0  0  0  0  0  0  0  0  0  0  0
   26.4151  -20.9452  -15.0903 O   0  0  0  0  0  0  0  0  0  0  0  0
   26.5134  -20.2651  -12.8531 N   0  0  0  0  0  0  0  0  0  0  0  0
   25.5246  -21.2235  -12.4842 C   0  0  1  0  0  0  0  0  0  0  0  0
   25.6278  -21.4698  -10.9953 C   0  0  0  0  0  0  0  0  0  0  0  0
   25.3532  -19.8972  -10.1507 S   0  0  0  0  0  0  0  0  0  0  0  0
   24.1376  -20.7861  -12.7770 C   0  0  0  0  0  0  0  0  0  0  0  0
   23.7906  -19.5826  -12.6825 O   0  0  0  0  0  0  0  0  0  0  0  0
   21.2936  -22.7065  -14.2458 C   0  0  0  0  0  0  0  0  0  0  0  0
   21.8325  -21.4478  -13.5607 C   0  0  2  0  0  0  0  0  0  0  0  0
   23.1972  -21.7543  -13.1696 N   0  0  0  0  0  0  0  0  0  0  0  0
   21.0390  -21.2279  -12.3241 C   0  0  0  0  0  0  0  0  0  0  0  0
   21.4688  -21.8316  -11.1447 O   0  0  0  0  0  0  0  0  0  0  0  0
   20.0118  -20.5294  -12.3031 O   0  0  0  0  0  0  0  0  0  0  0  0
  2  1  1  6
  2  3  1  0
  3  4  1  0
  5  2  1  0
  5  6  2  0
  7  5  1  0
  8  7  1  0
  8  9  1  1
 10  9  1  0
 11  8  1  0
 12 11  2  0
 14 13  1  1
 14 15  1  0
 14 16  1  0
 15 11  1  0
 16 17  1  0
 18 16  2  0
M  END
$$$$
