CCA.pdb
     RDKit          3D

 18 17  0  0  1  0  0  0  0  0999 V2000
   27.3604  -15.0233  -17.6878 N   0  0  0  0  0  0  0  0  0  0  0  0
   27.3983  -13.6277  -17.3092 C   0  0  1  0  0  0  0  0  0  0  0  0
   26.7449  -13.4099  -15.9563 C   0  0  0  0  0  0  0  0  0  0  0  0
   24.9657  -13.7082  -16.1007 S   0  0  0  0  0  0  0  0  0  0  0  0
   28.8089  -13.2025  -17.2122 C   0  0  0  0  0  0  0  0  0  0  0  0
   29.5641  -13.8269  -16.4315 O   0  0  0  0  0  0  0  0  0  0  0  0
   29.2749  -12.1095  -17.9948 N   0  0  0  0  0  0  0  0  0  0  0  0
   30.6551  -11.7623  -17.9136 C   0  0  1  0  0  0  0  0  0  0  0  0
   31.3637  -12.3280  -19.1244 C   0  0  0  0  0  0  0  0  0  0  0  0
   33.1210  -11.9397  -18.9727 S   0  0  0  0  0  0  0  0  0  0  0  0
   30.8972  -10.2989  -17.8885 C   0  0  0  0  0  0  0  0  0  0  0  0
   30.2853   -9.5148  -18.6557 O   0  0  0  0  0  0  0  0  0  0  0  0
   33.1714   -8.2785  -15.7012 C   0  0  0  0  0  0  0  0  0  0  0  0
   32.1628   -8.3800  -16.8485 C   0  0  2  0  0  0  0  0  0  0  0  0
   31.8386   -9.7898  -16.9773 N   0  0  0  0  0  0  0  0  0  0  0  0
   32.8474   -7.9506  -18.0952 C   0  0  0  0  0  0  0  0  0  0  0  0
   33.6257   -8.8821  -18.7783 O   0  0  0  0  0  0  0  0  0  0  0  0
   32.7519   -6.7979  -18.5486 O   0  0  0  0  0  0  0  0  0  0  0  0
  2  1  1  1
  2  3  1  0
  3  4  1  0
  5  2  1  0
  5  6  2  0
  7  5  1  0
  8  7  1  0
  8  9  1  6
 10  9  1  0
 11  8  1  0
 12 11  2  0
 14 13  1  1
 14 15  1  0
 14 16  1  0
 15 11  1  0
 16 17  1  0
 18 16  2  0
M  END
$$$$
