CCA.pdb
     RDKit          3D

 18 17  0  0  1  0  0  0  0  0999 V2000
   17.5713  -12.6205  -16.6729 N   0  0  0  0  0  0  0  0  0  0  0  0
   18.2562  -11.6636  -15.8316 C   0  0  1  0  0  0  0  0  0  0  0  0
   19.7626  -11.8054  -15.9560 C   0  0  0  0  0  0  0  0  0  0  0  0
   20.2785  -13.3610  -15.1883 S   0  0  0  0  0  0  0  0  0  0  0  0
   17.8853  -10.3020  -16.2657 C   0  0  0  0  0  0  0  0  0  0  0  0
   17.9703  -10.0245  -17.4845 O   0  0  0  0  0  0  0  0  0  0  0  0
   17.4457   -9.3477  -15.3065 N   0  0  0  0  0  0  0  0  0  0  0  0
   16.9151   -8.1119  -15.7793 C   0  0  1  0  0  0  0  0  0  0  0  0
   15.5845   -7.8710  -15.1013 C   0  0  0  0  0  0  0  0  0  0  0  0
   14.3923   -9.0443  -15.7825 S   0  0  0  0  0  0  0  0  0  0  0  0
   17.7870   -6.9457  -15.4956 C   0  0  0  0  0  0  0  0  0  0  0  0
   18.3912   -6.8234  -14.4011 O   0  0  0  0  0  0  0  0  0  0  0  0
   18.7589   -4.0777  -17.6967 C   0  0  0  0  0  0  0  0  0  0  0  0
   18.7401   -4.7629  -16.3277 C   0  0  2  0  0  0  0  0  0  0  0  0
   17.9320   -5.9591  -16.4863 N   0  0  0  0  0  0  0  0  0  0  0  0
   18.0419   -3.8599  -15.3767 C   0  0  0  0  0  0  0  0  0  0  0  0
   18.7854   -2.8753  -14.7303 O   0  0  0  0  0  0  0  0  0  0  0  0
   16.8260   -3.9500  -15.1379 O   0  0  0  0  0  0  0  0  0  0  0  0
  2  1  1  6
  2  3  1  0
  3  4  1  0
  5  2  1  0
  5  6  2  0
  7  5  1  0
  8  7  1  0
  8  9  1  1
 10  9  1  0
 11  8  1  0
 12 11  2  0
 14 13  1  6
 14 15  1  0
 14 16  1  0
 15 11  1  0
 16 17  1  0
 18 16  2  0
M  END
$$$$
