RPS.pdb
     RDKit          3D

 25 25  0  0  1  0  0  0  0  0999 V2000
    7.5091  -19.5934   25.2542 N   0  0  0  0  0  0  0  0  0  0  0  0
    6.8153  -19.5112   24.0258 C   0  0  0  0  0  0  0  0  0  0  0  0
    5.5929  -19.9416   24.0018 N   0  0  0  0  0  0  0  0  0  0  0  0
    7.4460  -18.9765   22.8706 N   0  0  0  0  0  0  0  0  0  0  0  0
    7.8596  -17.6154   22.8175 C   0  0  0  0  0  0  0  0  0  0  0  0
    7.1022  -16.8008   21.7961 C   0  0  0  0  0  0  0  0  0  0  0  0
    6.5004  -15.5634   22.3551 C   0  0  0  0  0  0  0  0  0  0  0  0
    7.3945  -14.3426   22.3203 C   0  0  2  0  0  0  0  0  0  0  0  0
    8.3280  -14.4897   21.2378 N   0  0  0  0  0  0  0  0  0  0  0  0
    8.1131  -14.1033   23.5731 C   0  0  0  0  0  0  0  0  0  0  0  0
    9.3629  -14.2933   23.6133 O   0  0  0  0  0  0  0  0  0  0  0  0
    5.0306  -20.0292   23.1332 N   0  0  0  0  0  0  0  0  0  0  0  0
    7.4638  -13.6622   24.7637 C   0  0  0  0  0  0  0  0  0  0  0  0
    6.0815  -13.4130   24.9187 C   0  0  0  0  0  0  0  0  0  0  0  0
    5.8701  -12.8723   26.3008 C   0  0  0  0  0  0  0  0  0  0  0  0
    7.2371  -12.5078   26.7619 C   0  0  2  0  0  0  0  0  0  0  0  0
    8.1655  -13.4138   25.9950 C   0  0  0  0  0  0  0  0  0  0  0  0
    8.4517  -14.6621   26.7454 O   0  0  0  0  0  0  0  0  0  0  0  0
    7.5523  -15.5344   26.8001 O   0  0  0  0  0  0  0  0  0  0  0  0
   12.2435  -15.7534   27.4171 C   0  0  0  0  0  0  0  0  0  0  0  0
   11.2844  -16.7568   27.5350 C   0  0  1  0  0  0  0  0  0  0  0  0
   10.0252  -16.1215   28.0920 N   0  0  0  0  0  0  0  0  0  0  0  0
    9.6872  -14.9005   27.3928 C   0  0  0  0  0  0  0  0  0  0  0  0
   10.2820  -15.7956   29.5176 O   0  0  0  0  0  0  0  0  0  0  0  0
   10.1553  -14.6384   29.9952 O   0  0  0  0  0  0  0  0  0  0  0  0
  1  2  1  0
  2  3  2  0
  4  5  1  0
  4  2  1  0
  6  7  1  0
  6  5  1  0
  7  8  1  0
  8  9  1  6
 10 12  1  0
 10  8  1  0
 11 10  2  0
 12 16  1  0
 13 12  1  0
 13 14  1  0
 14 15  1  0
 16 15  1  0
 16 17  1  1
 17 18  2  0
 19 20  1  0
 21 20  1  6
 22 21  1  0
 22 17  1  0
 23 25  1  0
 23 21  1  0
 24 23  2  0
M  END
$$$$
