RPS.pdb
     RDKit          3D

 25 25  0  0  1  0  0  0  0  0999 V2000
    6.4142  -19.9888   18.9705 N   0  0  0  0  0  0  0  0  0  0  0  0
    7.5720  -20.4394   18.2971 C   0  0  0  0  0  0  0  0  0  0  0  0
    8.2076  -21.4449   18.8119 N   0  0  0  0  0  0  0  0  0  0  0  0
    8.0107  -19.8048   17.1042 N   0  0  0  0  0  0  0  0  0  0  0  0
    7.4745  -18.5517   16.6934 C   0  0  0  0  0  0  0  0  0  0  0  0
    8.5032  -17.4469   16.6519 C   0  0  0  0  0  0  0  0  0  0  0  0
    7.9492  -16.1392   16.2173 C   0  0  0  0  0  0  0  0  0  0  0  0
    8.9364  -14.9919   16.2181 C   0  0  2  0  0  0  0  0  0  0  0  0
    9.9775  -15.2832   15.2715 N   0  0  0  0  0  0  0  0  0  0  0  0
    9.5173  -14.7162   17.5333 C   0  0  0  0  0  0  0  0  0  0  0  0
   10.7171  -15.0467   17.7593 O   0  0  0  0  0  0  0  0  0  0  0  0
    9.0741  -21.8474   18.4051 N   0  0  0  0  0  0  0  0  0  0  0  0
    8.7866  -14.0866   18.5837 C   0  0  0  0  0  0  0  0  0  0  0  0
    7.4604  -13.6048   18.5071 C   0  0  0  0  0  0  0  0  0  0  0  0
    7.1454  -12.9339   19.8102 C   0  0  0  0  0  0  0  0  0  0  0  0
    8.4724  -12.7629   20.4615 C   0  0  2  0  0  0  0  0  0  0  0  0
    9.3327  -13.8634   19.8961 C   0  0  0  0  0  0  0  0  0  0  0  0
    9.2865  -15.0813   20.7434 O   0  0  0  0  0  0  0  0  0  0  0  0
    8.2965  -15.8420   20.6255 O   0  0  0  0  0  0  0  0  0  0  0  0
   12.6165  -16.7669   21.9609 C   0  0  0  0  0  0  0  0  0  0  0  0
   11.4611  -17.5386   22.0620 C   0  0  1  0  0  0  0  0  0  0  0  0
   10.3295  -16.6151   22.4691 N   0  0  0  0  0  0  0  0  0  0  0  0
   10.3063  -15.4108   21.6672 C   0  0  0  0  0  0  0  0  0  0  0  0
   10.5505  -16.2358   23.8875 O   0  0  0  0  0  0  0  0  0  0  0  0
   10.7074  -15.0467   24.2680 O   0  0  0  0  0  0  0  0  0  0  0  0
  1  2  1  0
  2  3  2  0
  4  5  1  0
  4  2  1  0
  6  7  1  0
  6  5  1  0
  7  8  1  0
  8  9  1  6
 10 12  1  0
 10  8  1  0
 11 10  2  0
 12 16  1  0
 13 12  1  0
 13 14  1  0
 14 15  1  0
 16 15  1  0
 16 17  1  1
 17 18  2  0
 19 20  1  0
 21 20  1  6
 22 21  1  0
 22 17  1  0
 23 25  1  0
 23 21  1  0
 24 23  2  0
M  END
$$$$
