RPS.pdb
     RDKit          3D

 25 25  0  0  1  0  0  0  0  0999 V2000
    8.1938  -14.2912   14.0315 N   0  0  0  0  0  0  0  0  0  0  0  0
    8.7428  -15.2810   14.8776 C   0  0  0  0  0  0  0  0  0  0  0  0
    9.2860  -16.3136   14.3128 N   0  0  0  0  0  0  0  0  0  0  0  0
    8.6930  -15.1372   16.2900 N   0  0  0  0  0  0  0  0  0  0  0  0
    8.1702  -13.9594   16.8951 C   0  0  0  0  0  0  0  0  0  0  0  0
    9.1282  -13.3113   17.8660 C   0  0  0  0  0  0  0  0  0  0  0  0
    9.3614  -14.1159   19.0924 C   0  0  0  0  0  0  0  0  0  0  0  0
   10.2543  -13.4650   20.1268 C   0  0  2  0  0  0  0  0  0  0  0  0
   11.5656  -13.3023   19.5621 N   0  0  0  0  0  0  0  0  0  0  0  0
   10.3387  -14.2101   21.3841 C   0  0  0  0  0  0  0  0  0  0  0  0
   11.3793  -14.8847   21.6327 O   0  0  0  0  0  0  0  0  0  0  0  0
    9.7018  -17.1056   14.8399 N   0  0  0  0  0  0  0  0  0  0  0  0
    9.2916  -14.2124   22.3522 C   0  0  0  0  0  0  0  0  0  0  0  0
    7.9944  -13.6785   22.1817 C   0  0  0  0  0  0  0  0  0  0  0  0
    7.2727  -13.8134   23.4887 C   0  0  0  0  0  0  0  0  0  0  0  0
    8.3497  -14.1190   24.4691 C   0  0  2  0  0  0  0  0  0  0  0  0
    9.4367  -14.7840   23.6647 C   0  0  0  0  0  0  0  0  0  0  0  0
    9.2848  -16.2606   23.6591 O   0  0  0  0  0  0  0  0  0  0  0  0
    8.2658  -16.7445   23.1114 O   0  0  0  0  0  0  0  0  0  0  0  0
   12.4790  -18.6079   24.3390 C   0  0  0  0  0  0  0  0  0  0  0  0
   11.3955  -19.2291   23.7219 C   0  0  1  0  0  0  0  0  0  0  0  0
   10.1333  -18.5740   24.2483 N   0  0  0  0  0  0  0  0  0  0  0  0
   10.2364  -17.1307   24.2419 C   0  0  0  0  0  0  0  0  0  0  0  0
    9.9440  -19.0293   25.6487 O   0  0  0  0  0  0  0  0  0  0  0  0
    9.9193  -18.2452   26.6326 O   0  0  0  0  0  0  0  0  0  0  0  0
  1  2  1  0
  2  3  2  0
  4  5  1  0
  4  2  1  0
  6  7  1  0
  6  5  1  0
  7  8  1  0
  8  9  1  6
 10 12  1  0
 10  8  1  0
 11 10  2  0
 12 16  1  0
 13 12  1  0
 13 14  1  0
 14 15  1  0
 16 15  1  0
 16 17  1  1
 17 18  2  0
 19 20  1  0
 21 20  1  6
 22 21  1  0
 22 17  1  0
 23 25  1  0
 23 21  1  0
 24 23  2  0
M  END
$$$$
