RPS.pdb
     RDKit          3D

 25 25  0  0  1  0  0  0  0  0999 V2000
    7.4442  -13.2772   17.1315 N   0  0  0  0  0  0  0  0  0  0  0  0
    8.4061  -14.3125   17.1347 C   0  0  0  0  0  0  0  0  0  0  0  0
    8.8398  -14.7268   15.9856 N   0  0  0  0  0  0  0  0  0  0  0  0
    8.8695  -14.8687   18.3571 N   0  0  0  0  0  0  0  0  0  0  0  0
    7.9606  -15.3427   19.3449 C   0  0  0  0  0  0  0  0  0  0  0  0
    7.0608  -14.2624   19.8959 C   0  0  0  0  0  0  0  0  0  0  0  0
    7.0167  -14.2298   21.3801 C   0  0  0  0  0  0  0  0  0  0  0  0
    7.7806  -13.0905   22.0199 C   0  0  2  0  0  0  0  0  0  0  0  0
    8.7649  -12.6178   21.0858 N   0  0  0  0  0  0  0  0  0  0  0  0
    8.4223  -13.4497   23.2858 C   0  0  0  0  0  0  0  0  0  0  0  0
    9.6025  -13.9045   23.2719 O   0  0  0  0  0  0  0  0  0  0  0  0
    9.5776  -15.4490   15.8752 N   0  0  0  0  0  0  0  0  0  0  0  0
    7.7727  -13.3108   24.5477 C   0  0  0  0  0  0  0  0  0  0  0  0
    6.4577  -12.8407   24.7636 C   0  0  0  0  0  0  0  0  0  0  0  0
    6.2391  -12.7684   26.2449 C   0  0  0  0  0  0  0  0  0  0  0  0
    7.6067  -12.8816   26.8204 C   0  0  1  0  0  0  0  0  0  0  0  0
    8.4020  -13.6497   25.7965 C   0  0  0  0  0  0  0  0  0  0  0  0
    8.3737  -15.1089   26.0671 O   0  0  0  0  0  0  0  0  0  0  0  0
    7.2879  -15.7155   25.9067 O   0  0  0  0  0  0  0  0  0  0  0  0
   11.7770  -17.1453   26.0415 C   0  0  0  0  0  0  0  0  0  0  0  0
   10.6380  -17.9423   25.9506 C   0  0  1  0  0  0  0  0  0  0  0  0
    9.5375  -17.2572   26.7373 N   0  0  0  0  0  0  0  0  0  0  0  0
    9.5134  -15.8311   26.4937 C   0  0  0  0  0  0  0  0  0  0  0  0
    9.8091  -17.4872   28.1788 O   0  0  0  0  0  0  0  0  0  0  0  0
    9.9559  -16.5550   29.0112 O   0  0  0  0  0  0  0  0  0  0  0  0
  1  2  1  0
  2  3  2  0
  4  5  1  0
  4  2  1  0
  6  7  1  0
  6  5  1  0
  7  8  1  0
  8  9  1  6
 10 12  1  0
 10  8  1  0
 11 10  2  0
 12 16  1  0
 13 12  1  0
 13 14  1  0
 14 15  1  0
 16 15  1  0
 16 17  1  1
 17 18  2  0
 19 20  1  0
 21 20  1  6
 22 21  1  0
 22 17  1  0
 23 25  1  0
 23 21  1  0
 24 23  2  0
M  END
$$$$
