RPS.pdb
     RDKit          3D

 25 25  0  0  1  0  0  0  0  0999 V2000
    8.0725  -12.3664   17.7688 N   0  0  0  0  0  0  0  0  0  0  0  0
    7.7678  -13.6237   17.2000 C   0  0  0  0  0  0  0  0  0  0  0  0
    8.2926  -13.8992   16.0472 N   0  0  0  0  0  0  0  0  0  0  0  0
    6.9174  -14.5391   17.8760 N   0  0  0  0  0  0  0  0  0  0  0  0
    7.2463  -15.0372   19.1684 C   0  0  0  0  0  0  0  0  0  0  0  0
    6.8493  -14.1035   20.2869 C   0  0  0  0  0  0  0  0  0  0  0  0
    7.1587  -14.6351   21.6387 C   0  0  0  0  0  0  0  0  0  0  0  0
    8.4329  -14.1054   22.2605 C   0  0  2  0  0  0  0  0  0  0  0  0
    9.5496  -14.5797   21.4903 N   0  0  0  0  0  0  0  0  0  0  0  0
    8.6001  -14.4764   23.6668 C   0  0  0  0  0  0  0  0  0  0  0  0
    9.5351  -15.2645   23.9899 O   0  0  0  0  0  0  0  0  0  0  0  0
    8.2193  -14.8280   15.5888 N   0  0  0  0  0  0  0  0  0  0  0  0
    7.7490  -13.9869   24.7011 C   0  0  0  0  0  0  0  0  0  0  0  0
    6.5895  -13.1983   24.5262 C   0  0  0  0  0  0  0  0  0  0  0  0
    6.0776  -12.8359   25.8878 C   0  0  0  0  0  0  0  0  0  0  0  0
    7.2064  -13.1644   26.8001 C   0  0  1  0  0  0  0  0  0  0  0  0
    7.9768  -14.2519   26.0969 C   0  0  0  0  0  0  0  0  0  0  0  0
    7.5076  -15.6009   26.5010 O   0  0  0  0  0  0  0  0  0  0  0  0
    6.3409  -15.9361   26.1861 O   0  0  0  0  0  0  0  0  0  0  0  0
    9.6893  -18.5738   25.9578 C   0  0  0  0  0  0  0  0  0  0  0  0
    8.3353  -18.7555   26.2305 C   0  0  1  0  0  0  0  0  0  0  0  0
    7.9946  -17.9039   27.4380 N   0  0  0  0  0  0  0  0  0  0  0  0
    8.3190  -16.5107   27.2194 C   0  0  0  0  0  0  0  0  0  0  0  0
    8.8007  -18.4046   28.5799 O   0  0  0  0  0  0  0  0  0  0  0  0
    9.6751  -17.7133   29.1637 O   0  0  0  0  0  0  0  0  0  0  0  0
  1  2  1  0
  2  3  2  0
  4  5  1  0
  4  2  1  0
  6  7  1  0
  6  5  1  0
  7  8  1  0
  8  9  1  6
 10 12  1  0
 10  8  1  0
 11 10  2  0
 12 16  1  0
 13 12  1  0
 13 14  1  0
 14 15  1  0
 16 15  1  0
 16 17  1  1
 17 18  2  0
 19 20  1  0
 21 20  1  6
 22 21  1  0
 22 17  1  0
 23 25  1  0
 23 21  1  0
 24 23  2  0
M  END
$$$$
