RPS.pdb
     RDKit          3D

 25 25  0  0  1  0  0  0  0  0999 V2000
    7.4553  -19.1384   19.7328 N   0  0  0  0  0  0  0  0  0  0  0  0
    7.0687  -19.3282   18.3869 C   0  0  0  0  0  0  0  0  0  0  0  0
    5.8766  -19.7880   18.1683 N   0  0  0  0  0  0  0  0  0  0  0  0
    7.9624  -19.0238   17.3254 N   0  0  0  0  0  0  0  0  0  0  0  0
    7.8982  -17.7780   16.6395 C   0  0  0  0  0  0  0  0  0  0  0  0
    8.8168  -16.7291   17.2194 C   0  0  0  0  0  0  0  0  0  0  0  0
    8.6525  -15.3903   16.5978 C   0  0  0  0  0  0  0  0  0  0  0  0
    8.2017  -14.2958   17.5410 C   0  0  2  0  0  0  0  0  0  0  0  0
    8.2584  -13.0399   16.8452 N   0  0  0  0  0  0  0  0  0  0  0  0
    8.9866  -14.2216   18.7746 C   0  0  0  0  0  0  0  0  0  0  0  0
   10.1753  -13.7925   18.7244 O   0  0  0  0  0  0  0  0  0  0  0  0
    5.4694  -19.9039   17.2202 N   0  0  0  0  0  0  0  0  0  0  0  0
    8.4694  -14.6151   20.0439 C   0  0  0  0  0  0  0  0  0  0  0  0
    7.1990  -15.1834   20.2891 C   0  0  0  0  0  0  0  0  0  0  0  0
    7.0501  -15.3386   21.7727 C   0  0  0  0  0  0  0  0  0  0  0  0
    8.1463  -14.5058   22.3375 C   0  0  2  0  0  0  0  0  0  0  0  0
    9.2098  -14.4789   21.2701 C   0  0  0  0  0  0  0  0  0  0  0  0
   10.1988  -15.5696   21.4586 O   0  0  0  0  0  0  0  0  0  0  0  0
    9.8858  -16.7203   21.0705 O   0  0  0  0  0  0  0  0  0  0  0  0
   13.9026  -14.7776   23.1615 C   0  0  0  0  0  0  0  0  0  0  0  0
   13.8775  -15.7843   22.1988 C   0  0  1  0  0  0  0  0  0  0  0  0
   12.4829  -16.3796   22.1971 N   0  0  0  0  0  0  0  0  0  0  0  0
   11.4659  -15.3605   22.0526 C   0  0  0  0  0  0  0  0  0  0  0  0
   12.2871  -17.0630   23.5006 O   0  0  0  0  0  0  0  0  0  0  0  0
   11.3944  -16.7357   24.3248 O   0  0  0  0  0  0  0  0  0  0  0  0
  1  2  1  0
  2  3  2  0
  4  5  1  0
  4  2  1  0
  6  7  1  0
  6  5  1  0
  7  8  1  0
  8  9  1  6
 10 12  1  0
 10  8  1  0
 11 10  2  0
 12 16  1  0
 13 12  1  0
 13 14  1  0
 14 15  1  0
 16 15  1  0
 16 17  1  1
 17 18  2  0
 19 20  1  0
 21 20  1  6
 22 21  1  0
 22 17  1  0
 23 25  1  0
 23 21  1  0
 24 23  2  0
M  END
$$$$
