RPS.pdb
     RDKit          3D

 25 25  0  0  1  0  0  0  0  0999 V2000
    6.4886  -14.5781   17.1371 N   0  0  0  0  0  0  0  0  0  0  0  0
    7.5800  -13.7094   17.3635 C   0  0  0  0  0  0  0  0  0  0  0  0
    8.5607  -13.7512   16.5170 N   0  0  0  0  0  0  0  0  0  0  0  0
    7.5886  -12.8309   18.4800 N   0  0  0  0  0  0  0  0  0  0  0  0
    7.9886  -13.2796   19.7704 C   0  0  0  0  0  0  0  0  0  0  0  0
    7.0868  -14.3506   20.3362 C   0  0  0  0  0  0  0  0  0  0  0  0
    7.5529  -14.8882   21.6398 C   0  0  0  0  0  0  0  0  0  0  0  0
    8.6974  -14.1282   22.2750 C   0  0  2  0  0  0  0  0  0  0  0  0
    9.9056  -14.4407   21.5626 N   0  0  0  0  0  0  0  0  0  0  0  0
    8.8699  -14.4081   23.7016 C   0  0  0  0  0  0  0  0  0  0  0  0
    9.8572  -15.1027   24.0790 O   0  0  0  0  0  0  0  0  0  0  0  0
    9.4091  -13.1569   16.5893 N   0  0  0  0  0  0  0  0  0  0  0  0
    7.9672  -13.9304   24.6970 C   0  0  0  0  0  0  0  0  0  0  0  0
    6.7983  -13.1697   24.4693 C   0  0  0  0  0  0  0  0  0  0  0  0
    6.2242  -12.8089   25.8063 C   0  0  0  0  0  0  0  0  0  0  0  0
    7.3225  -13.1049   26.7657 C   0  0  1  0  0  0  0  0  0  0  0  0
    8.1448  -14.1798   26.1029 C   0  0  0  0  0  0  0  0  0  0  0  0
    7.6901  -15.5360   26.4993 O   0  0  0  0  0  0  0  0  0  0  0  0
    6.5010  -15.8517   26.2561 O   0  0  0  0  0  0  0  0  0  0  0  0
    9.9490  -18.6291   26.1733 C   0  0  0  0  0  0  0  0  0  0  0  0
    8.5854  -18.8118   26.3925 C   0  0  1  0  0  0  0  0  0  0  0  0
    8.1603  -17.8298   27.4670 N   0  0  0  0  0  0  0  0  0  0  0  0
    8.5392  -16.4738   27.1332 C   0  0  0  0  0  0  0  0  0  0  0  0
    8.8475  -18.2180   28.7245 O   0  0  0  0  0  0  0  0  0  0  0  0
    8.7192  -19.3490   29.2609 O   0  0  0  0  0  0  0  0  0  0  0  0
  1  2  1  0
  2  3  2  0
  4  5  1  0
  4  2  1  0
  6  7  1  0
  6  5  1  0
  7  8  1  0
  8  9  1  6
 10 12  1  0
 10  8  1  0
 11 10  2  0
 12 16  1  0
 13 12  1  0
 13 14  1  0
 14 15  1  0
 16 15  1  0
 16 17  1  6
 17 18  2  0
 19 20  1  0
 21 20  1  6
 22 21  1  0
 22 17  1  0
 23 25  1  0
 23 21  1  0
 24 23  2  0
M  END
$$$$
