IRY.pdb
     RDKit          3D

 32 32  0  0  1  0  0  0  0  0999 V2000
    6.7240  -12.5622   18.5567 C   0  0  0  0  0  0  0  0  0  0  0  0
    7.7943  -12.3497   19.5882 C   0  0  0  0  0  0  0  0  0  0  0  0
    7.5860  -13.3397   20.7747 C   0  0  2  0  0  0  0  0  0  0  0  0
    8.3167  -12.6599   21.9198 C   0  0  0  0  0  0  0  0  0  0  0  0
    8.2033  -14.6116   20.3108 C   0  0  2  0  0  0  0  0  0  0  0  0
    7.2903  -15.1065   19.2373 N   0  0  0  0  0  0  0  0  0  0  0  0
    8.3613  -15.6908   21.2767 C   0  0  0  0  0  0  0  0  0  0  0  0
    7.3385  -16.3749   21.6365 O   0  0  0  0  0  0  0  0  0  0  0  0
   14.6599  -21.4215   21.7944 N   0  0  0  0  0  0  0  0  0  0  0  0
   14.5542  -20.7520   23.0403 C   0  0  0  0  0  0  0  0  0  0  0  0
   15.4826  -20.8597   23.9236 N   0  0  0  0  0  0  0  0  0  0  0  0
   13.4250  -19.9412   23.3616 N   0  0  0  0  0  0  0  0  0  0  0  0
   12.2142  -20.0472   22.5963 C   0  0  0  0  0  0  0  0  0  0  0  0
   11.1153  -19.2198   23.2416 C   0  0  0  0  0  0  0  0  0  0  0  0
   10.8284  -18.0425   22.3777 C   0  0  0  0  0  0  0  0  0  0  0  0
    9.6932  -17.1740   22.8013 C   0  0  2  0  0  0  0  0  0  0  0  0
    9.5976  -16.0468   21.8563 N   0  0  0  0  0  0  0  0  0  0  0  0
    9.8540  -16.6469   24.1707 C   0  0  0  0  0  0  0  0  0  0  0  0
   10.6501  -15.6594   24.3589 O   0  0  0  0  0  0  0  0  0  0  0  0
   15.4391  -20.4038   24.8543 O   0  0  0  0  0  0  0  0  0  0  0  0
    6.6303  -11.1009   25.3811 C   0  0  0  0  0  0  0  0  0  0  0  0
    7.0174  -12.3546   25.8562 C   0  0  0  0  0  0  0  0  0  0  0  0
    6.5029  -13.5228   25.3364 C   0  0  0  0  0  0  0  0  0  0  0  0
    6.8847  -14.7625   25.8053 C   0  0  0  0  0  0  0  0  0  0  0  0
    7.8043  -14.9105   26.8227 C   0  0  0  0  0  0  0  0  0  0  0  0
    8.2510  -16.2083   27.3736 C   0  0  2  0  0  0  0  0  0  0  0  0
    9.4679  -16.6812   26.6675 N   0  0  0  0  0  0  0  0  0  0  0  0
    9.1945  -17.1444   25.3226 C   0  0  0  0  0  0  0  0  0  0  0  0
   10.2506  -17.6732   27.4138 O   0  0  0  0  0  0  0  0  0  0  0  0
   10.6913  -17.3527   28.7112 C   0  0  0  0  0  0  0  0  0  0  0  0
    8.3189  -13.7152   27.3413 C   0  0  0  0  0  0  0  0  0  0  0  0
    7.9390  -12.4775   26.8745 O   0  0  0  0  0  0  0  0  0  0  0  0
  2  1  1  0
  3  2  1  0
  3  4  1  1
  5  3  1  0
  5  6  1  6
  7  5  1  0
  8  7  2  0
  9 10  1  0
 10 12  1  0
 11 10  2  0
 12 13  1  0
 13 14  1  0
 14 15  1  0
 16 15  1  6
 16 18  1  0
 16 17  1  0
 17  7  1  0
 18 27  1  0
 19 18  2  0
 21 22  2  0
 21 20  1  0
 23 22  1  0
 24 23  2  0
 25 24  1  0
 26 25  1  6
 27 26  1  0
 28 29  1  0
 28 26  1  0
 30 24  1  0
 30 31  2  0
 31 21  1  0
 32 28  2  0
M  END
$$$$
