IRY.pdb
     RDKit          3D

 32 32  0  0  1  0  0  0  0  0999 V2000
    5.5620  -11.4887   26.5066 C   0  0  0  0  0  0  0  0  0  0  0  0
    5.3988  -12.8581   25.9126 C   0  0  0  0  0  0  0  0  0  0  0  0
    6.7956  -13.5316   25.7503 C   0  0  2  0  0  0  0  0  0  0  0  0
    7.6081  -12.4662   25.0346 C   0  0  0  0  0  0  0  0  0  0  0  0
    6.5278  -14.7545   24.9462 C   0  0  2  0  0  0  0  0  0  0  0  0
    5.7023  -15.6219   25.8389 N   0  0  0  0  0  0  0  0  0  0  0  0
    7.6664  -15.5483   24.5031 C   0  0  0  0  0  0  0  0  0  0  0  0
    8.0888  -16.5140   25.2328 O   0  0  0  0  0  0  0  0  0  0  0  0
    8.7559  -12.5603   18.6637 N   0  0  0  0  0  0  0  0  0  0  0  0
    7.9299  -13.5782   18.1225 C   0  0  0  0  0  0  0  0  0  0  0  0
    6.8424  -13.2807   17.5038 N   0  0  0  0  0  0  0  0  0  0  0  0
    8.2673  -14.9594   18.2420 N   0  0  0  0  0  0  0  0  0  0  0  0
    9.2999  -15.3783   19.1481 C   0  0  0  0  0  0  0  0  0  0  0  0
    8.7873  -15.3377   20.5778 C   0  0  0  0  0  0  0  0  0  0  0  0
    9.8641  -15.8116   21.4892 C   0  0  0  0  0  0  0  0  0  0  0  0
    9.4376  -16.2215   22.8576 C   0  0  2  0  0  0  0  0  0  0  0  0
    8.3525  -15.3229   23.2909 N   0  0  0  0  0  0  0  0  0  0  0  0
   10.5363  -16.1655   23.8419 C   0  0  0  0  0  0  0  0  0  0  0  0
   11.2194  -15.0846   23.9386 O   0  0  0  0  0  0  0  0  0  0  0  0
    6.1834  -13.9922   17.1357 O   0  0  0  0  0  0  0  0  0  0  0  0
    9.1171  -13.0459   29.1902 C   0  0  0  0  0  0  0  0  0  0  0  0
    9.8218  -14.1166   28.6384 C   0  0  0  0  0  0  0  0  0  0  0  0
   11.1993  -14.1414   28.6000 C   0  0  0  0  0  0  0  0  0  0  0  0
   11.8969  -15.1990   28.0547 C   0  0  0  0  0  0  0  0  0  0  0  0
   11.2603  -16.2967   27.5142 C   0  0  0  0  0  0  0  0  0  0  0  0
   11.9485  -17.4582   26.9104 C   0  0  2  0  0  0  0  0  0  0  0  0
   12.1544  -17.2419   25.4565 N   0  0  0  0  0  0  0  0  0  0  0  0
   10.9140  -17.2214   24.7088 C   0  0  0  0  0  0  0  0  0  0  0  0
   13.1211  -18.1591   24.8417 O   0  0  0  0  0  0  0  0  0  0  0  0
   12.7294  -18.8987   23.7103 C   0  0  0  0  0  0  0  0  0  0  0  0
    9.8607  -16.2582   27.5601 C   0  0  0  0  0  0  0  0  0  0  0  0
    9.1632  -15.2036   28.1038 O   0  0  0  0  0  0  0  0  0  0  0  0
  2  1  1  0
  3  2  1  0
  3  4  1  6
  5  3  1  0
  5  6  1  1
  7  5  1  0
  8  7  2  0
  9 10  1  0
 10 12  1  0
 11 10  2  0
 12 13  1  0
 13 14  1  0
 14 15  1  0
 16 15  1  6
 16 18  1  0
 16 17  1  0
 17  7  1  0
 18 27  1  0
 19 18  2  0
 21 22  2  0
 21 20  1  0
 23 22  1  0
 24 23  2  0
 25 24  1  0
 26 25  1  1
 27 26  1  0
 28 29  1  0
 28 26  1  0
 30 24  1  0
 30 31  2  0
 31 21  1  0
 32 28  2  0
M  END
$$$$
