IRY.pdb
     RDKit          3D

 32 32  0  0  1  0  0  0  0  0999 V2000
    5.6211  -10.8928   26.7982 C   0  0  0  0  0  0  0  0  0  0  0  0
    5.3555  -12.3021   26.3534 C   0  0  0  0  0  0  0  0  0  0  0  0
    6.6493  -12.9105   25.7311 C   0  0  2  0  0  0  0  0  0  0  0  0
    7.0134  -11.9074   24.6501 C   0  0  0  0  0  0  0  0  0  0  0  0
    6.2269  -14.2445   25.2251 C   0  0  2  0  0  0  0  0  0  0  0  0
    5.9785  -15.0551   26.4548 N   0  0  0  0  0  0  0  0  0  0  0  0
    7.1624  -14.9920   24.3952 C   0  0  0  0  0  0  0  0  0  0  0  0
    7.9373  -15.8586   24.9357 O   0  0  0  0  0  0  0  0  0  0  0  0
    9.0740  -14.7414   15.8799 N   0  0  0  0  0  0  0  0  0  0  0  0
    8.7051  -14.1039   17.0920 C   0  0  0  0  0  0  0  0  0  0  0  0
    8.7747  -12.8250   17.2081 N   0  0  0  0  0  0  0  0  0  0  0  0
    8.2477  -14.8475   18.2205 N   0  0  0  0  0  0  0  0  0  0  0  0
    8.9824  -15.9923   18.6813 C   0  0  0  0  0  0  0  0  0  0  0  0
    8.2654  -16.6332   19.8577 C   0  0  0  0  0  0  0  0  0  0  0  0
    7.7804  -15.5609   20.7685 C   0  0  0  0  0  0  0  0  0  0  0  0
    8.1655  -15.6890   22.2029 C   0  0  2  0  0  0  0  0  0  0  0  0
    7.2743  -14.8256   22.9985 N   0  0  0  0  0  0  0  0  0  0  0  0
    9.5678  -15.3044   22.4571 C   0  0  0  0  0  0  0  0  0  0  0  0
    9.9538  -14.1301   22.1159 O   0  0  0  0  0  0  0  0  0  0  0  0
    8.5411  -12.3188   18.0828 O   0  0  0  0  0  0  0  0  0  0  0  0
   11.4374  -15.2899   30.7792 C   0  0  0  0  0  0  0  0  0  0  0  0
   11.0274  -15.4601   29.4562 C   0  0  0  0  0  0  0  0  0  0  0  0
   10.6994  -14.3910   28.6505 C   0  0  0  0  0  0  0  0  0  0  0  0
   10.2939  -14.5580   27.3428 C   0  0  0  0  0  0  0  0  0  0  0  0
   10.1913  -15.8040   26.7602 C   0  0  0  0  0  0  0  0  0  0  0  0
    9.7581  -16.0508   25.3677 C   0  0  2  0  0  0  0  0  0  0  0  0
   10.9266  -16.0503   24.4525 N   0  0  0  0  0  0  0  0  0  0  0  0
   10.5489  -16.1335   23.0566 C   0  0  0  0  0  0  0  0  0  0  0  0
   11.9483  -17.0519   24.7788 O   0  0  0  0  0  0  0  0  0  0  0  0
   11.5875  -18.4121   24.7836 C   0  0  0  0  0  0  0  0  0  0  0  0
   10.5278  -16.8811   27.5903 C   0  0  0  0  0  0  0  0  0  0  0  0
   10.9326  -16.7161   28.8953 O   0  0  0  0  0  0  0  0  0  0  0  0
  2  1  1  0
  3  2  1  0
  3  4  1  6
  5  3  1  0
  5  6  1  1
  7  5  1  0
  8  7  2  0
  9 10  1  0
 10 12  1  0
 11 10  2  0
 12 13  1  0
 13 14  1  0
 14 15  1  0
 16 15  1  6
 16 18  1  0
 16 17  1  0
 17  7  1  0
 18 27  1  0
 19 18  2  0
 21 22  2  0
 21 20  1  0
 23 22  1  0
 24 23  2  0
 25 24  1  0
 26 25  1  6
 27 26  1  0
 28 29  1  0
 28 26  1  0
 30 24  1  0
 30 31  2  0
 31 21  1  0
 32 28  2  0
M  END
$$$$
