IRY.pdb
     RDKit          3D

 32 32  0  0  1  0  0  0  0  0999 V2000
    7.8282  -11.6905   19.1264 C   0  0  0  0  0  0  0  0  0  0  0  0
    7.9475  -13.1845   19.0352 C   0  0  0  0  0  0  0  0  0  0  0  0
    8.0270  -13.7948   20.4678 C   0  0  2  0  0  0  0  0  0  0  0  0
    9.2927  -13.1747   21.0341 C   0  0  0  0  0  0  0  0  0  0  0  0
    8.1008  -15.2638   20.2428 C   0  0  2  0  0  0  0  0  0  0  0  0
    6.8151  -15.6086   19.5656 N   0  0  0  0  0  0  0  0  0  0  0  0
    8.2237  -16.1316   21.4067 C   0  0  0  0  0  0  0  0  0  0  0  0
    7.2067  -16.3274   22.1622 O   0  0  0  0  0  0  0  0  0  0  0  0
    7.4455  -20.8734   19.9974 N   0  0  0  0  0  0  0  0  0  0  0  0
    8.7335  -21.2984   19.5831 C   0  0  0  0  0  0  0  0  0  0  0  0
    9.0923  -21.1998   18.3520 N   0  0  0  0  0  0  0  0  0  0  0  0
    9.6737  -21.8479   20.5050 N   0  0  0  0  0  0  0  0  0  0  0  0
   10.2926  -21.0118   21.4952 C   0  0  0  0  0  0  0  0  0  0  0  0
    9.5184  -19.7123   21.6383 C   0  0  0  0  0  0  0  0  0  0  0  0
   10.1636  -18.8805   22.6903 C   0  0  0  0  0  0  0  0  0  0  0  0
    9.4985  -17.5846   23.0073 C   0  0  2  0  0  0  0  0  0  0  0  0
    9.4172  -16.7925   21.7668 N   0  0  0  0  0  0  0  0  0  0  0  0
   10.2187  -16.8061   24.0340 C   0  0  0  0  0  0  0  0  0  0  0  0
   11.4099  -16.4062   23.7778 O   0  0  0  0  0  0  0  0  0  0  0  0
   10.0073  -21.5350   17.9967 O   0  0  0  0  0  0  0  0  0  0  0  0
    4.8909  -12.7390   26.9717 C   0  0  0  0  0  0  0  0  0  0  0  0
    6.2194  -13.1252   26.7894 C   0  0  0  0  0  0  0  0  0  0  0  0
    6.6684  -13.6564   25.5995 C   0  0  0  0  0  0  0  0  0  0  0  0
    7.9812  -14.0385   25.4182 C   0  0  0  0  0  0  0  0  0  0  0  0
    8.9260  -13.9132   26.4154 C   0  0  0  0  0  0  0  0  0  0  0  0
   10.3453  -14.3085   26.2869 C   0  0  1  0  0  0  0  0  0  0  0  0
   10.4790  -15.7861   26.3309 N   0  0  0  0  0  0  0  0  0  0  0  0
    9.7025  -16.4528   25.3060 C   0  0  0  0  0  0  0  0  0  0  0  0
   10.2206  -16.3757   27.6498 O   0  0  0  0  0  0  0  0  0  0  0  0
   10.9019  -15.8604   28.7682 C   0  0  0  0  0  0  0  0  0  0  0  0
    8.4559  -13.3719   27.6189 C   0  0  0  0  0  0  0  0  0  0  0  0
    7.1462  -12.9901   27.8014 O   0  0  0  0  0  0  0  0  0  0  0  0
  2  1  1  0
  3  2  1  0
  3  4  1  6
  5  3  1  0
  5  6  1  1
  7  5  1  0
  8  7  2  0
  9 10  1  0
 10 12  1  0
 11 10  2  0
 12 13  1  0
 13 14  1  0
 14 15  1  0
 16 15  1  6
 16 18  1  0
 16 17  1  0
 17  7  1  0
 18 27  1  0
 19 18  2  0
 21 22  2  0
 21 20  1  0
 23 22  1  0
 24 23  2  0
 25 24  1  0
 26 25  1  6
 27 26  1  0
 28 29  1  0
 28 26  1  0
 30 24  1  0
 30 31  2  0
 31 21  1  0
 32 28  2  0
M  END
$$$$
