IRY.pdb
     RDKit          3D

 32 32  0  0  1  0  0  0  0  0999 V2000
    7.7395  -11.6786   18.8412 C   0  0  0  0  0  0  0  0  0  0  0  0
    7.8957  -13.1473   18.5703 C   0  0  0  0  0  0  0  0  0  0  0  0
    8.1048  -13.9111   19.9134 C   0  0  2  0  0  0  0  0  0  0  0  0
    9.3119  -13.2152   20.5184 C   0  0  0  0  0  0  0  0  0  0  0  0
    8.3400  -15.3227   19.5060 C   0  0  2  0  0  0  0  0  0  0  0  0
    7.0965  -15.7199   18.7802 N   0  0  0  0  0  0  0  0  0  0  0  0
    8.5654  -16.3112   20.5523 C   0  0  0  0  0  0  0  0  0  0  0  0
    7.5636  -16.8914   21.1031 O   0  0  0  0  0  0  0  0  0  0  0  0
   12.3281  -23.6036   20.7436 N   0  0  0  0  0  0  0  0  0  0  0  0
   11.0000  -23.1209   20.8638 C   0  0  0  0  0  0  0  0  0  0  0  0
   10.0093  -23.8084   20.4167 N   0  0  0  0  0  0  0  0  0  0  0  0
   10.7117  -21.8658   21.4779 N   0  0  0  0  0  0  0  0  0  0  0  0
   11.7780  -21.0232   21.9422 C   0  0  0  0  0  0  0  0  0  0  0  0
   11.2096  -19.8047   22.6498 C   0  0  0  0  0  0  0  0  0  0  0  0
   10.8136  -18.7962   21.6295 C   0  0  0  0  0  0  0  0  0  0  0  0
   10.0013  -17.6460   22.1189 C   0  0  2  0  0  0  0  0  0  0  0  0
    9.8459  -16.6867   21.0107 N   0  0  0  0  0  0  0  0  0  0  0  0
   10.6152  -16.9597   23.2725 C   0  0  0  0  0  0  0  0  0  0  0  0
   11.2626  -17.6597   24.1300 O   0  0  0  0  0  0  0  0  0  0  0  0
    9.0235  -23.4908   20.4739 O   0  0  0  0  0  0  0  0  0  0  0  0
    5.0966  -11.6372   27.4919 C   0  0  0  0  0  0  0  0  0  0  0  0
    5.9031  -12.3100   26.5730 C   0  0  0  0  0  0  0  0  0  0  0  0
    5.5760  -13.5597   26.0925 C   0  0  0  0  0  0  0  0  0  0  0  0
    6.3725  -14.2257   25.1844 C   0  0  0  0  0  0  0  0  0  0  0  0
    7.5450  -13.6833   24.7010 C   0  0  0  0  0  0  0  0  0  0  0  0
    8.4447  -14.3466   23.7326 C   0  0  2  0  0  0  0  0  0  0  0  0
    9.6026  -14.9565   24.4328 N   0  0  0  0  0  0  0  0  0  0  0  0
   10.5525  -15.5663   23.5251 C   0  0  0  0  0  0  0  0  0  0  0  0
    9.2357  -15.8855   25.5080 O   0  0  0  0  0  0  0  0  0  0  0  0
    9.5724  -15.5552   26.8339 C   0  0  0  0  0  0  0  0  0  0  0  0
    7.8649  -12.4130   25.1977 C   0  0  0  0  0  0  0  0  0  0  0  0
    7.0712  -11.7473   26.1037 O   0  0  0  0  0  0  0  0  0  0  0  0
  2  1  1  0
  3  2  1  0
  3  4  1  6
  5  3  1  0
  5  6  1  1
  7  5  1  0
  8  7  2  0
  9 10  1  0
 10 12  1  0
 11 10  2  0
 12 13  1  0
 13 14  1  0
 14 15  1  0
 16 15  1  6
 16 18  1  0
 16 17  1  0
 17  7  1  0
 18 27  1  0
 19 18  2  0
 21 22  2  0
 21 20  1  0
 23 22  1  0
 24 23  2  0
 25 24  1  0
 26 25  1  6
 27 26  1  0
 28 29  1  0
 28 26  1  0
 30 24  1  0
 30 31  2  0
 31 21  1  0
 32 28  2  0
M  END
$$$$
