IRY.pdb
     RDKit          3D

 32 32  0  0  1  0  0  0  0  0999 V2000
    7.5092  -11.7188   18.3641 C   0  0  0  0  0  0  0  0  0  0  0  0
    8.6610  -12.2758   19.1502 C   0  0  0  0  0  0  0  0  0  0  0  0
    8.1999  -13.5424   19.9340 C   0  0  2  0  0  0  0  0  0  0  0  0
    7.1101  -13.0035   20.8446 C   0  0  0  0  0  0  0  0  0  0  0  0
    9.4242  -14.0102   20.6384 C   0  0  2  0  0  0  0  0  0  0  0  0
   10.3671  -14.3939   19.5454 N   0  0  0  0  0  0  0  0  0  0  0  0
    9.3076  -15.1552   21.5317 C   0  0  0  0  0  0  0  0  0  0  0  0
    8.4864  -15.1113   22.5152 O   0  0  0  0  0  0  0  0  0  0  0  0
    7.3423  -22.0181   18.2322 N   0  0  0  0  0  0  0  0  0  0  0  0
    8.0276  -20.9753   17.5581 C   0  0  0  0  0  0  0  0  0  0  0  0
    8.1720  -21.0041   16.2805 N   0  0  0  0  0  0  0  0  0  0  0  0
    8.5799  -19.8641   18.2623 N   0  0  0  0  0  0  0  0  0  0  0  0
    8.5626  -19.8337   19.6981 C   0  0  0  0  0  0  0  0  0  0  0  0
    9.2165  -18.5576   20.2006 C   0  0  0  0  0  0  0  0  0  0  0  0
    9.2395  -18.5819   21.6885 C   0  0  0  0  0  0  0  0  0  0  0  0
    9.9302  -17.4421   22.3566 C   0  0  2  0  0  0  0  0  0  0  0  0
   10.0542  -16.3431   21.3822 N   0  0  0  0  0  0  0  0  0  0  0  0
   11.2716  -17.7990   22.8590 C   0  0  0  0  0  0  0  0  0  0  0  0
   11.7098  -18.9858   22.6495 O   0  0  0  0  0  0  0  0  0  0  0  0
    8.6937  -20.2815   15.7497 O   0  0  0  0  0  0  0  0  0  0  0  0
   10.1774  -14.6991   30.7723 C   0  0  0  0  0  0  0  0  0  0  0  0
   10.2920  -14.9660   29.4074 C   0  0  0  0  0  0  0  0  0  0  0  0
    9.8893  -14.0598   28.4502 C   0  0  0  0  0  0  0  0  0  0  0  0
   10.0019  -14.3226   27.1008 C   0  0  0  0  0  0  0  0  0  0  0  0
   10.5239  -15.5075   26.6255 C   0  0  0  0  0  0  0  0  0  0  0  0
   10.6664  -15.8524   25.1944 C   0  0  1  0  0  0  0  0  0  0  0  0
   11.9477  -16.5628   24.9563 N   0  0  0  0  0  0  0  0  0  0  0  0
   12.1385  -16.9304   23.5683 C   0  0  0  0  0  0  0  0  0  0  0  0
   12.1713  -17.7142   25.8382 O   0  0  0  0  0  0  0  0  0  0  0  0
   11.4424  -18.8959   25.6087 C   0  0  0  0  0  0  0  0  0  0  0  0
   10.9292  -16.4189   27.6092 C   0  0  0  0  0  0  0  0  0  0  0  0
   10.8174  -16.1582   28.9559 O   0  0  0  0  0  0  0  0  0  0  0  0
  2  1  1  0
  3  2  1  0
  3  4  1  1
  5  3  1  0
  5  6  1  6
  7  5  1  0
  8  7  2  0
  9 10  1  0
 10 12  1  0
 11 10  2  0
 12 13  1  0
 13 14  1  0
 14 15  1  0
 16 15  1  6
 16 18  1  0
 16 17  1  0
 17  7  1  0
 18 27  1  0
 19 18  2  0
 21 22  2  0
 21 20  1  0
 23 22  1  0
 24 23  2  0
 25 24  1  0
 26 25  1  6
 27 26  1  0
 28 29  1  0
 28 26  1  0
 30 24  1  0
 30 31  2  0
 31 21  1  0
 32 28  2  0
M  END
$$$$
