IRY.pdb
     RDKit          3D

 32 32  0  0  1  0  0  0  0  0999 V2000
    5.8247  -11.7953   27.6357 C   0  0  0  0  0  0  0  0  0  0  0  0
    5.4192  -12.8953   26.6975 C   0  0  0  0  0  0  0  0  0  0  0  0
    6.6787  -13.4588   25.9712 C   0  0  2  0  0  0  0  0  0  0  0  0
    7.3103  -12.2162   25.3678 C   0  0  0  0  0  0  0  0  0  0  0  0
    6.1347  -14.4247   24.9786 C   0  0  2  0  0  0  0  0  0  0  0  0
    5.6699  -15.5858   25.7951 N   0  0  0  0  0  0  0  0  0  0  0  0
    7.0376  -14.9450   23.9604 C   0  0  0  0  0  0  0  0  0  0  0  0
    7.4649  -16.1505   24.0476 O   0  0  0  0  0  0  0  0  0  0  0  0
    7.6291  -13.5954   15.5041 N   0  0  0  0  0  0  0  0  0  0  0  0
    8.4959  -14.5244   16.1344 C   0  0  0  0  0  0  0  0  0  0  0  0
    9.7426  -14.5740   15.8227 N   0  0  0  0  0  0  0  0  0  0  0  0
    8.0250  -15.4331   17.1285 N   0  0  0  0  0  0  0  0  0  0  0  0
    7.5106  -14.9410   18.3759 C   0  0  0  0  0  0  0  0  0  0  0  0
    8.6539  -14.4962   19.2724 C   0  0  0  0  0  0  0  0  0  0  0  0
    8.0904  -13.9581   20.5404 C   0  0  0  0  0  0  0  0  0  0  0  0
    8.1968  -14.8408   21.7370 C   0  0  2  0  0  0  0  0  0  0  0  0
    7.4831  -14.1933   22.8524 N   0  0  0  0  0  0  0  0  0  0  0  0
    9.5940  -15.0971   22.1384 C   0  0  0  0  0  0  0  0  0  0  0  0
   10.4858  -14.2216   21.8509 O   0  0  0  0  0  0  0  0  0  0  0  0
   10.4240  -15.1960   16.2967 O   0  0  0  0  0  0  0  0  0  0  0  0
   11.8295  -15.4378   30.3720 C   0  0  0  0  0  0  0  0  0  0  0  0
   11.2898  -15.4242   29.0852 C   0  0  0  0  0  0  0  0  0  0  0  0
   10.7602  -14.2802   28.5279 C   0  0  0  0  0  0  0  0  0  0  0  0
   10.2263  -14.2656   27.2562 C   0  0  0  0  0  0  0  0  0  0  0  0
   10.1889  -15.3938   26.4635 C   0  0  0  0  0  0  0  0  0  0  0  0
    9.6264  -15.4459   25.0967 C   0  0  2  0  0  0  0  0  0  0  0  0
   10.5099  -16.2333   24.2010 N   0  0  0  0  0  0  0  0  0  0  0  0
   10.0502  -16.2487   22.8275 C   0  0  0  0  0  0  0  0  0  0  0  0
   10.7899  -17.5938   24.6745 O   0  0  0  0  0  0  0  0  0  0  0  0
   11.6973  -17.7693   25.7357 C   0  0  0  0  0  0  0  0  0  0  0  0
   10.7305  -16.5488   27.0424 C   0  0  0  0  0  0  0  0  0  0  0  0
   11.2636  -16.5650   28.3112 O   0  0  0  0  0  0  0  0  0  0  0  0
  2  1  1  0
  3  2  1  0
  3  4  1  6
  5  3  1  0
  5  6  1  1
  7  5  1  0
  8  7  2  0
  9 10  1  0
 10 12  1  0
 11 10  2  0
 12 13  1  0
 13 14  1  0
 14 15  1  0
 16 15  1  6
 16 18  1  0
 16 17  1  0
 17  7  1  0
 18 27  1  0
 19 18  2  0
 21 22  2  0
 21 20  1  0
 23 22  1  0
 24 23  2  0
 25 24  1  0
 26 25  1  6
 27 26  1  0
 28 29  1  0
 28 26  1  0
 30 24  1  0
 30 31  2  0
 31 21  1  0
 32 28  2  0
M  END
$$$$
