IRY.pdb
     RDKit          3D

 32 32  0  0  1  0  0  0  0  0999 V2000
    5.8301  -10.5909   26.3121 C   0  0  0  0  0  0  0  0  0  0  0  0
    5.4766  -11.9569   25.7988 C   0  0  0  0  0  0  0  0  0  0  0  0
    6.7778  -12.7383   25.4417 C   0  0  2  0  0  0  0  0  0  0  0  0
    7.4912  -11.7967   24.4869 C   0  0  0  0  0  0  0  0  0  0  0  0
    6.2948  -14.0026   24.8236 C   0  0  2  0  0  0  0  0  0  0  0  0
    5.5465  -14.6961   25.9145 N   0  0  0  0  0  0  0  0  0  0  0  0
    7.2863  -14.9408   24.3143 C   0  0  0  0  0  0  0  0  0  0  0  0
    7.6784  -15.9125   25.0529 O   0  0  0  0  0  0  0  0  0  0  0  0
    8.9540  -20.3528   18.8995 N   0  0  0  0  0  0  0  0  0  0  0  0
    7.6058  -19.9179   18.9679 C   0  0  0  0  0  0  0  0  0  0  0  0
    6.6397  -20.7650   18.9127 N   0  0  0  0  0  0  0  0  0  0  0  0
    7.2696  -18.5375   19.0982 N   0  0  0  0  0  0  0  0  0  0  0  0
    8.2928  -17.5319   19.0299 C   0  0  0  0  0  0  0  0  0  0  0  0
    8.9305  -17.3430   20.3960 C   0  0  0  0  0  0  0  0  0  0  0  0
    8.1454  -16.3348   21.1588 C   0  0  0  0  0  0  0  0  0  0  0  0
    8.6882  -15.9464   22.4918 C   0  0  2  0  0  0  0  0  0  0  0  0
    7.8575  -14.8527   23.0270 N   0  0  0  0  0  0  0  0  0  0  0  0
   10.0947  -15.5025   22.4313 C   0  0  0  0  0  0  0  0  0  0  0  0
   10.7609  -15.7182   21.3570 O   0  0  0  0  0  0  0  0  0  0  0  0
    5.6398  -20.4893   18.9080 O   0  0  0  0  0  0  0  0  0  0  0  0
   11.5463  -16.8729   30.9696 C   0  0  0  0  0  0  0  0  0  0  0  0
   11.1503  -16.5654   29.6673 C   0  0  0  0  0  0  0  0  0  0  0  0
   11.0447  -17.5309   28.6894 C   0  0  0  0  0  0  0  0  0  0  0  0
   10.6536  -17.2282   27.4018 C   0  0  0  0  0  0  0  0  0  0  0  0
   10.3441  -15.9416   27.0126 C   0  0  0  0  0  0  0  0  0  0  0  0
    9.9246  -15.5507   25.6493 C   0  0  2  0  0  0  0  0  0  0  0  0
   11.1011  -15.4644   24.7486 N   0  0  0  0  0  0  0  0  0  0  0  0
   10.7921  -14.8455   23.4759 C   0  0  0  0  0  0  0  0  0  0  0  0
   11.8062  -16.7367   24.5544 O   0  0  0  0  0  0  0  0  0  0  0  0
   13.1415  -16.8448   24.9852 C   0  0  0  0  0  0  0  0  0  0  0  0
   10.4555  -14.9708   28.0165 C   0  0  0  0  0  0  0  0  0  0  0  0
   10.8457  -15.2713   29.3016 O   0  0  0  0  0  0  0  0  0  0  0  0
  2  1  1  0
  3  2  1  0
  3  4  1  6
  5  3  1  0
  5  6  1  1
  7  5  1  0
  8  7  2  0
  9 10  1  0
 10 12  1  0
 11 10  2  0
 12 13  1  0
 13 14  1  0
 14 15  1  0
 16 15  1  6
 16 18  1  0
 16 17  1  0
 17  7  1  0
 18 27  1  0
 19 18  2  0
 21 22  2  0
 21 20  1  0
 23 22  1  0
 24 23  2  0
 25 24  1  0
 26 25  1  1
 27 26  1  0
 28 29  1  0
 28 26  1  0
 30 24  1  0
 30 31  2  0
 31 21  1  0
 32 28  2  0
M  END
$$$$
