IRY.pdb
     RDKit          3D

 32 32  0  0  1  0  0  0  0  0999 V2000
    7.4912  -11.8035   17.9678 C   0  0  0  0  0  0  0  0  0  0  0  0
    8.6098  -12.5857   18.5936 C   0  0  0  0  0  0  0  0  0  0  0  0
    8.0320  -13.8304   19.3338 C   0  0  2  0  0  0  0  0  0  0  0  0
    7.0508  -13.2180   20.3185 C   0  0  0  0  0  0  0  0  0  0  0  0
    9.2185  -14.4760   19.9580 C   0  0  2  0  0  0  0  0  0  0  0  0
   10.0092  -15.0082   18.8081 N   0  0  0  0  0  0  0  0  0  0  0  0
    8.9935  -15.5830   20.8782 C   0  0  0  0  0  0  0  0  0  0  0  0
    8.3105  -15.3913   21.9460 O   0  0  0  0  0  0  0  0  0  0  0  0
   10.1984  -19.3153   16.9715 N   0  0  0  0  0  0  0  0  0  0  0  0
    9.7911  -20.6726   17.0284 C   0  0  0  0  0  0  0  0  0  0  0  0
    9.2988  -21.2537   15.9921 N   0  0  0  0  0  0  0  0  0  0  0  0
    9.9086  -21.4405   18.2251 N   0  0  0  0  0  0  0  0  0  0  0  0
   10.4086  -20.8367   19.4285 C   0  0  0  0  0  0  0  0  0  0  0  0
    9.5452  -19.6470   19.8129 C   0  0  0  0  0  0  0  0  0  0  0  0
    9.9303  -19.1930   21.1768 C   0  0  0  0  0  0  0  0  0  0  0  0
    9.2730  -17.9485   21.6683 C   0  0  2  0  0  0  0  0  0  0  0  0
    9.4862  -16.8881   20.6668 N   0  0  0  0  0  0  0  0  0  0  0  0
    9.7992  -17.4979   22.9717 C   0  0  0  0  0  0  0  0  0  0  0  0
   11.0699  -17.4308   23.1307 O   0  0  0  0  0  0  0  0  0  0  0  0
    9.0033  -22.2480   15.9830 O   0  0  0  0  0  0  0  0  0  0  0  0
   11.2815  -14.2379   31.0080 C   0  0  0  0  0  0  0  0  0  0  0  0
   10.8476  -14.5140   29.7107 C   0  0  0  0  0  0  0  0  0  0  0  0
   11.7138  -14.9380   28.7261 C   0  0  0  0  0  0  0  0  0  0  0  0
   11.2861  -15.2110   27.4435 C   0  0  0  0  0  0  0  0  0  0  0  0
    9.9661  -15.0767   27.0664 C   0  0  0  0  0  0  0  0  0  0  0  0
    9.4451  -15.3475   25.7090 C   0  0  1  0  0  0  0  0  0  0  0  0
    9.5623  -16.7914   25.3860 N   0  0  0  0  0  0  0  0  0  0  0  0
    9.0106  -17.1252   24.0890 C   0  0  0  0  0  0  0  0  0  0  0  0
    9.0368  -17.6858   26.4241 O   0  0  0  0  0  0  0  0  0  0  0  0
    9.9306  -18.2351   27.3621 C   0  0  0  0  0  0  0  0  0  0  0  0
    9.0971  -14.6453   28.0769 C   0  0  0  0  0  0  0  0  0  0  0  0
    9.5223  -14.3725   29.3571 O   0  0  0  0  0  0  0  0  0  0  0  0
  2  1  1  0
  3  2  1  0
  3  4  1  1
  5  3  1  0
  5  6  1  6
  7  5  1  0
  8  7  2  0
  9 10  1  0
 10 12  1  0
 11 10  2  0
 12 13  1  0
 13 14  1  0
 14 15  1  0
 16 15  1  6
 16 18  1  0
 16 17  1  0
 17  7  1  0
 18 27  1  0
 19 18  2  0
 21 22  2  0
 21 20  1  0
 23 22  1  0
 24 23  2  0
 25 24  1  0
 26 25  1  6
 27 26  1  0
 28 29  1  0
 28 26  1  0
 30 24  1  0
 30 31  2  0
 31 21  1  0
 32 28  2  0
M  END
$$$$
