LSG.pdb
     RDKit          3D

 19 18  0  0  1  0  0  0  0  0999 V2000
   20.8486  -11.7784  -20.7581 C   0  0  0  0  0  0  0  0  0  0  0  0
   21.0375  -11.9831  -19.2346 C   0  0  2  0  0  0  0  0  0  0  0  0
   20.7483  -13.4456  -18.9862 C   0  0  0  0  0  0  0  0  0  0  0  0
   20.0835  -11.0992  -18.5030 C   0  0  0  0  0  0  0  0  0  0  0  0
   20.2842  -11.1748  -17.0307 C   0  0  2  0  0  0  0  0  0  0  0  0
   19.4929  -12.3720  -16.6103 N   0  0  0  0  0  0  0  0  0  0  0  0
   19.7309  -10.0703  -16.2467 C   0  0  0  0  0  0  0  0  0  0  0  0
   18.5403  -10.0811  -15.8503 O   0  0  0  0  0  0  0  0  0  0  0  0
   20.9307   -8.6787  -13.0204 O   0  0  0  0  0  0  0  0  0  0  0  0
   19.7902   -8.2186  -13.6777 C   0  0  0  0  0  0  0  0  0  0  0  0
   20.0570   -7.8478  -15.1115 C   0  0  2  0  0  0  0  0  0  0  0  0
   20.5149   -8.9613  -15.9076 N   0  0  0  0  0  0  0  0  0  0  0  0
   21.0113   -6.7382  -15.1585 C   0  0  0  0  0  0  0  0  0  0  0  0
   22.2494   -6.9608  -15.1098 O   0  0  0  0  0  0  0  0  0  0  0  0
   20.5752   -5.3719  -15.2607 N   0  0  0  0  0  0  0  0  0  0  0  0
   21.5733   -4.3522  -15.3220 C   0  0  0  0  0  0  0  0  0  0  0  0
   22.1245   -3.9695  -14.0254 C   0  0  0  0  0  0  0  0  0  0  0  0
   21.7911   -4.5747  -12.8244 O   0  0  0  0  0  0  0  0  0  0  0  0
   22.9589   -3.0288  -13.9833 O   0  0  0  0  0  0  0  0  0  0  0  0
  2  1  1  6
  2  3  1  0
  2  4  1  0
  5  4  1  0
  5  6  1  1
  7  8  2  0
  7  5  1  0
  9 10  1  0
 11 10  1  1
 11 12  1  0
 12  7  1  0
 13 11  1  0
 13 15  1  0
 14 13  2  0
 16 15  1  0
 16 17  1  0
 17 19  2  0
 17 18  1  0
M  END
$$$$
