LSG.pdb
     RDKit          3D

 19 18  0  0  1  0  0  0  0  0999 V2000
   11.1829  -24.6564   -4.0256 C   0  0  0  0  0  0  0  0  0  0  0  0
   12.1661  -24.0714   -5.0697 C   0  0  2  0  0  0  0  0  0  0  0  0
   11.7649  -24.6882   -6.3898 C   0  0  0  0  0  0  0  0  0  0  0  0
   13.5598  -24.4430   -4.6872 C   0  0  0  0  0  0  0  0  0  0  0  0
   14.0087  -23.7116   -3.4717 C   0  0  2  0  0  0  0  0  0  0  0  0
   14.2965  -22.3272   -3.9580 N   0  0  0  0  0  0  0  0  0  0  0  0
   15.2653  -24.1638   -2.8742 C   0  0  0  0  0  0  0  0  0  0  0  0
   16.3755  -23.7838   -3.3190 O   0  0  0  0  0  0  0  0  0  0  0  0
   16.5366  -24.4229    0.9918 O   0  0  0  0  0  0  0  0  0  0  0  0
   16.3386  -25.6457    0.3513 C   0  0  0  0  0  0  0  0  0  0  0  0
   16.4647  -25.5441   -1.1448 C   0  0  2  0  0  0  0  0  0  0  0  0
   15.2720  -25.0361   -1.7794 N   0  0  0  0  0  0  0  0  0  0  0  0
   16.8380  -26.8499   -1.6922 C   0  0  0  0  0  0  0  0  0  0  0  0
   15.9575  -27.7203   -1.9193 O   0  0  0  0  0  0  0  0  0  0  0  0
   18.2058  -27.1813   -1.9867 N   0  0  0  0  0  0  0  0  0  0  0  0
   18.4648  -28.3978   -2.6885 C   0  0  0  0  0  0  0  0  0  0  0  0
   18.8149  -29.5260   -1.8306 C   0  0  0  0  0  0  0  0  0  0  0  0
   19.1245  -30.7944   -2.2941 O   0  0  0  0  0  0  0  0  0  0  0  0
   18.8404  -29.3464   -0.5856 O   0  0  0  0  0  0  0  0  0  0  0  0
  2  1  1  1
  2  3  1  0
  2  4  1  0
  5  4  1  0
  5  6  1  6
  7  8  2  0
  7  5  1  0
  9 10  1  0
 11 10  1  1
 11 12  1  0
 12  7  1  0
 13 11  1  0
 13 15  1  0
 14 13  2  0
 16 15  1  0
 16 17  1  0
 17 19  2  0
 17 18  1  0
M  END
$$$$
