LSG.pdb
     RDKit          3D

 19 18  0  0  1  0  0  0  0  0999 V2000
   23.9089  -13.7775  -15.2165 C   0  0  0  0  0  0  0  0  0  0  0  0
   23.8408  -13.6092  -16.7546 C   0  0  2  0  0  0  0  0  0  0  0  0
   25.2712  -13.7027  -17.2333 C   0  0  0  0  0  0  0  0  0  0  0  0
   23.2375  -12.2819  -17.0725 C   0  0  0  0  0  0  0  0  0  0  0  0
   21.8246  -12.1973  -16.6138 C   0  0  2  0  0  0  0  0  0  0  0  0
   21.0800  -13.1055  -17.5394 N   0  0  0  0  0  0  0  0  0  0  0  0
   21.1734  -10.8961  -16.7672 C   0  0  0  0  0  0  0  0  0  0  0  0
   21.1692  -10.2920  -17.8671 O   0  0  0  0  0  0  0  0  0  0  0  0
   18.0062   -9.8155  -14.3551 O   0  0  0  0  0  0  0  0  0  0  0  0
   18.3164   -9.2089  -15.5717 C   0  0  0  0  0  0  0  0  0  0  0  0
   19.7978   -9.0375  -15.7734 C   0  0  2  0  0  0  0  0  0  0  0  0
   20.5272  -10.2801  -15.6890 N   0  0  0  0  0  0  0  0  0  0  0  0
   20.3104   -8.0587  -14.8124 C   0  0  0  0  0  0  0  0  0  0  0  0
   20.8962   -8.4407  -13.7658 O   0  0  0  0  0  0  0  0  0  0  0  0
   20.1656   -6.6443  -15.0263 N   0  0  0  0  0  0  0  0  0  0  0  0
   20.6946   -5.7591  -14.0384 C   0  0  0  0  0  0  0  0  0  0  0  0
   22.0098   -5.2132  -14.3603 C   0  0  0  0  0  0  0  0  0  0  0  0
   22.6415   -4.2159  -13.6350 O   0  0  0  0  0  0  0  0  0  0  0  0
   22.6199   -5.6711  -15.3608 O   0  0  0  0  0  0  0  0  0  0  0  0
  2  1  1  1
  2  3  1  0
  2  4  1  0
  5  4  1  0
  5  6  1  6
  7  8  2  0
  7  5  1  0
  9 10  1  0
 11 10  1  1
 11 12  1  0
 12  7  1  0
 13 11  1  0
 13 15  1  0
 14 13  2  0
 16 15  1  0
 16 17  1  0
 17 19  2  0
 17 18  1  0
M  END
$$$$
