LSG.pdb
     RDKit          3D

 19 18  0  0  1  0  0  0  0  0999 V2000
   26.5388  -15.0398  -14.7256 C   0  0  0  0  0  0  0  0  0  0  0  0
   26.0977  -14.9517  -16.2076 C   0  0  2  0  0  0  0  0  0  0  0  0
   27.2458  -15.5277  -17.0040 C   0  0  0  0  0  0  0  0  0  0  0  0
   25.8456  -13.5228  -16.5560 C   0  0  0  0  0  0  0  0  0  0  0  0
   24.6978  -12.9656  -15.7906 C   0  0  2  0  0  0  0  0  0  0  0  0
   23.5522  -13.8622  -16.1364 N   0  0  0  0  0  0  0  0  0  0  0  0
   24.2522  -11.6273  -16.1793 C   0  0  0  0  0  0  0  0  0  0  0  0
   25.0519  -10.6619  -16.2357 O   0  0  0  0  0  0  0  0  0  0  0  0
   21.4069  -10.6355  -19.0017 O   0  0  0  0  0  0  0  0  0  0  0  0
   21.1467  -10.1672  -17.7143 C   0  0  0  0  0  0  0  0  0  0  0  0
   22.3867  -10.0835  -16.8658 C   0  0  2  0  0  0  0  0  0  0  0  0
   22.9141  -11.3781  -16.5064 N   0  0  0  0  0  0  0  0  0  0  0  0
   22.1089   -9.2781  -15.6749 C   0  0  0  0  0  0  0  0  0  0  0  0
   21.6416   -9.8161  -14.6372 O   0  0  0  0  0  0  0  0  0  0  0  0
   22.3564   -7.8620  -15.6474 N   0  0  0  0  0  0  0  0  0  0  0  0
   21.9888   -7.1397  -14.4714 C   0  0  0  0  0  0  0  0  0  0  0  0
   22.2880   -5.7117  -14.5229 C   0  0  0  0  0  0  0  0  0  0  0  0
   22.8994   -5.0788  -15.5931 O   0  0  0  0  0  0  0  0  0  0  0  0
   21.9743   -4.9980  -13.5354 O   0  0  0  0  0  0  0  0  0  0  0  0
  2  1  1  1
  2  3  1  0
  2  4  1  0
  5  4  1  0
  5  6  1  6
  7  8  2  0
  7  5  1  0
  9 10  1  0
 11 10  1  1
 11 12  1  0
 12  7  1  0
 13 11  1  0
 13 15  1  0
 14 13  2  0
 16 15  1  0
 16 17  1  0
 17 19  2  0
 17 18  1  0
M  END
$$$$
