LSG.pdb
     RDKit          3D

 19 18  0  0  1  0  0  0  0  0999 V2000
   22.1962  -12.2303  -16.1849 C   0  0  0  0  0  0  0  0  0  0  0  0
   23.3699  -11.4616  -15.5288 C   0  0  2  0  0  0  0  0  0  0  0  0
   24.1530  -12.5018  -14.7614 C   0  0  0  0  0  0  0  0  0  0  0  0
   22.8180  -10.4087  -14.6268 C   0  0  0  0  0  0  0  0  0  0  0  0
   22.0842   -9.3627  -15.3890 C   0  0  2  0  0  0  0  0  0  0  0  0
   23.1320   -8.7236  -16.2431 N   0  0  0  0  0  0  0  0  0  0  0  0
   21.5259   -8.2632  -14.6015 C   0  0  0  0  0  0  0  0  0  0  0  0
   20.7251   -8.4742  -13.6586 O   0  0  0  0  0  0  0  0  0  0  0  0
   23.1423   -4.3563  -14.7645 O   0  0  0  0  0  0  0  0  0  0  0  0
   22.2878   -4.7853  -13.7495 C   0  0  0  0  0  0  0  0  0  0  0  0
   21.2727   -5.7867  -14.2304 C   0  0  2  0  0  0  0  0  0  0  0  0
   21.8700   -6.9335  -14.8719 N   0  0  0  0  0  0  0  0  0  0  0  0
   20.3171   -5.1233  -15.1197 C   0  0  0  0  0  0  0  0  0  0  0  0
   20.4762   -5.1621  -16.3679 O   0  0  0  0  0  0  0  0  0  0  0  0
   19.1772   -4.4128  -14.6068 N   0  0  0  0  0  0  0  0  0  0  0  0
   18.4146   -3.6210  -15.5186 C   0  0  0  0  0  0  0  0  0  0  0  0
   17.3642   -4.3531  -16.2201 C   0  0  0  0  0  0  0  0  0  0  0  0
   17.1785   -5.7238  -16.1392 O   0  0  0  0  0  0  0  0  0  0  0  0
   16.5686   -3.7070  -16.9498 O   0  0  0  0  0  0  0  0  0  0  0  0
  2  1  1  1
  2  3  1  0
  2  4  1  0
  5  4  1  0
  5  6  1  6
  7  8  2  0
  7  5  1  0
  9 10  1  0
 11 10  1  6
 11 12  1  0
 12  7  1  0
 13 11  1  0
 13 15  1  0
 14 13  2  0
 16 15  1  0
 16 17  1  0
 17 19  2  0
 17 18  1  0
M  END
$$$$
