LSG.pdb
     RDKit          3D

 19 18  0  0  1  0  0  0  0  0999 V2000
   18.4165  -11.8622  -19.5830 C   0  0  0  0  0  0  0  0  0  0  0  0
   17.4767  -12.2097  -18.4020 C   0  0  2  0  0  0  0  0  0  0  0  0
   16.1011  -11.7589  -18.8365 C   0  0  0  0  0  0  0  0  0  0  0  0
   17.9372  -11.4820  -17.1833 C   0  0  0  0  0  0  0  0  0  0  0  0
   19.3481  -11.8135  -16.8467 C   0  0  2  0  0  0  0  0  0  0  0  0
   19.2792  -13.1976  -16.2850 N   0  0  0  0  0  0  0  0  0  0  0  0
   19.9636  -11.0134  -15.7876 C   0  0  0  0  0  0  0  0  0  0  0  0
   19.4944  -10.9962  -14.6239 O   0  0  0  0  0  0  0  0  0  0  0  0
   23.9554   -9.8446  -16.0430 O   0  0  0  0  0  0  0  0  0  0  0  0
   23.2281   -9.8723  -14.8535 C   0  0  0  0  0  0  0  0  0  0  0  0
   21.7942   -9.4560  -15.0406 C   0  0  2  0  0  0  0  0  0  0  0  0
   21.1034  -10.2397  -16.0365 N   0  0  0  0  0  0  0  0  0  0  0  0
   21.7390   -8.0283  -15.3615 C   0  0  0  0  0  0  0  0  0  0  0  0
   21.5299   -7.6492  -16.5435 O   0  0  0  0  0  0  0  0  0  0  0  0
   21.9192   -7.0207  -14.3518 N   0  0  0  0  0  0  0  0  0  0  0  0
   21.8218   -5.6515  -14.7460 C   0  0  0  0  0  0  0  0  0  0  0  0
   22.2496   -4.6986  -13.7260 C   0  0  0  0  0  0  0  0  0  0  0  0
   22.3371   -3.3298  -13.9220 O   0  0  0  0  0  0  0  0  0  0  0  0
   22.5621   -5.1380  -12.5892 O   0  0  0  0  0  0  0  0  0  0  0  0
  2  1  1  6
  2  3  1  0
  2  4  1  0
  5  4  1  0
  5  6  1  1
  7  8  2  0
  7  5  1  0
  9 10  1  0
 11 10  1  6
 11 12  1  0
 12  7  1  0
 13 11  1  0
 13 15  1  0
 14 13  2  0
 16 15  1  0
 16 17  1  0
 17 19  2  0
 17 18  1  0
M  END
$$$$
