LSG.pdb
     RDKit          3D

 19 18  0  0  1  0  0  0  0  0999 V2000
   29.6578  -20.0269   -5.4031 C   0  0  0  0  0  0  0  0  0  0  0  0
   28.1563  -19.7602   -5.1325 C   0  0  2  0  0  0  0  0  0  0  0  0
   27.8079  -20.6063   -3.9296 C   0  0  0  0  0  0  0  0  0  0  0  0
   27.3672  -20.1578   -6.3350 C   0  0  0  0  0  0  0  0  0  0  0  0
   27.7860  -19.3963   -7.5426 C   0  0  2  0  0  0  0  0  0  0  0  0
   27.6619  -17.9623   -7.1373 N   0  0  0  0  0  0  0  0  0  0  0  0
   26.9242  -19.5258   -8.7178 C   0  0  0  0  0  0  0  0  0  0  0  0
   25.7813  -19.0087   -8.7514 O   0  0  0  0  0  0  0  0  0  0  0  0
   27.8637  -22.2245  -11.8540 O   0  0  0  0  0  0  0  0  0  0  0  0
   27.3934  -20.9580  -12.1996 C   0  0  0  0  0  0  0  0  0  0  0  0
   26.6128  -20.3065  -11.0902 C   0  0  2  0  0  0  0  0  0  0  0  0
   27.3483  -20.2304   -9.8506 N   0  0  0  0  0  0  0  0  0  0  0  0
   25.3432  -21.0129  -10.9076 C   0  0  0  0  0  0  0  0  0  0  0  0
   25.1774  -21.7802   -9.9235 O   0  0  0  0  0  0  0  0  0  0  0  0
   24.2539  -20.8580  -11.8331 N   0  0  0  0  0  0  0  0  0  0  0  0
   22.9860  -21.4089  -11.4747 C   0  0  0  0  0  0  0  0  0  0  0  0
   21.9210  -21.1479  -12.4387 C   0  0  0  0  0  0  0  0  0  0  0  0
   20.6292  -21.6364  -12.3283 O   0  0  0  0  0  0  0  0  0  0  0  0
   22.1819  -20.4329  -13.4406 O   0  0  0  0  0  0  0  0  0  0  0  0
  2  1  1  6
  2  3  1  0
  2  4  1  0
  5  4  1  0
  5  6  1  1
  7  8  2  0
  7  5  1  0
  9 10  1  0
 11 10  1  6
 11 12  1  0
 12  7  1  0
 13 11  1  0
 13 15  1  0
 14 13  2  0
 16 15  1  0
 16 17  1  0
 17 19  2  0
 17 18  1  0
M  END
$$$$
