EIW.pdb
     RDKit          3D

 32 33  0  0  1  0  0  0  0  0999 V2000
    8.5663  -18.6175   19.1351 N   0  0  0  0  0  0  0  0  0  0  0  0
    9.8996  -18.0808   18.9144 C   0  0  1  0  0  0  0  0  0  0  0  0
   10.0722  -18.0050   17.4182 C   0  0  0  0  0  0  0  0  0  0  0  0
   11.3335  -17.3416   16.9804 C   0  0  0  0  0  0  0  0  0  0  0  0
   11.3974  -17.3346   15.4967 C   0  0  0  0  0  0  0  0  0  0  0  0
   10.5272  -17.9618   14.8542 O   0  0  0  0  0  0  0  0  0  0  0  0
   10.1084  -16.8082   19.6173 C   0  0  0  0  0  0  0  0  0  0  0  0
   11.2443  -16.2745   19.6157 O   0  0  0  0  0  0  0  0  0  0  0  0
   12.4242  -16.6305   14.8360 O   0  0  0  0  0  0  0  0  0  0  0  0
    6.6055  -12.6215   19.7660 C   0  0  0  0  0  0  0  0  0  0  0  0
    7.8629  -13.4590   19.7188 C   0  0  0  0  0  0  0  0  0  0  0  0
    8.1332  -14.0071   21.1003 C   0  0  2  0  0  0  0  0  0  0  0  0
    8.2721  -12.9327   22.1428 C   0  0  0  0  0  0  0  0  0  0  0  0
    9.2929  -14.9683   21.1094 C   0  0  2  0  0  0  0  0  0  0  0  0
    9.0307  -16.1440   20.3200 N   0  0  0  0  0  0  0  0  0  0  0  0
    9.7280  -15.3070   22.4899 C   0  0  0  0  0  0  0  0  0  0  0  0
   10.5807  -14.5773   23.0456 O   0  0  0  0  0  0  0  0  0  0  0  0
    9.2229  -16.4156   23.2055 N   0  0  0  0  0  0  0  0  0  0  0  0
    9.5979  -16.7777   24.5638 C   0  0  1  0  0  0  0  0  0  0  0  0
    9.5100  -15.6369   25.4904 C   0  0  0  0  0  0  0  0  0  0  0  0
    8.1321  -15.2238   25.7920 C   0  0  0  0  0  0  0  0  0  0  0  0
    6.9537  -15.9537   25.6067 C   0  0  0  0  0  0  0  0  0  0  0  0
    5.8856  -15.2247   25.9690 N   0  0  0  0  0  0  0  0  0  0  0  0
    6.3098  -14.0226   26.3951 C   0  0  0  0  0  0  0  0  0  0  0  0
    5.5951  -12.9317   26.8872 C   0  0  0  0  0  0  0  0  0  0  0  0
    6.2576  -11.7768   27.2974 C   0  0  0  0  0  0  0  0  0  0  0  0
    7.6252  -11.7768   27.1905 C   0  0  0  0  0  0  0  0  0  0  0  0
    8.3351  -12.8554   26.7029 C   0  0  0  0  0  0  0  0  0  0  0  0
    7.6799  -13.9983   26.2965 C   0  0  0  0  0  0  0  0  0  0  0  0
    9.0400  -18.0146   25.0579 C   0  0  0  0  0  0  0  0  0  0  0  0
    8.1838  -18.6801   24.3837 O   0  0  0  0  0  0  0  0  0  0  0  0
    9.3754  -18.5942   26.2809 O   0  0  0  0  0  0  0  0  0  0  0  0
  2  1  1  6
  3  2  1  0
  4  5  1  0
  4  3  1  0
  5  6  2  0
  7  8  2  0
  7  2  1  0
  9  5  1  0
 10 11  1  0
 12 11  1  0
 12 14  1  0
 12 13  1  1
 14 15  1  1
 15  7  1  0
 16 14  1  0
 16 18  1  0
 17 16  2  0
 19 18  1  0
 19 30  1  0
 20 21  1  0
 19 20  1  1
 21 29  1  0
 22 21  2  0
 22 23  1  0
 23 24  1  0
 24 25  1  0
 25 26  2  0
 27 26  1  0
 28 27  2  0
 29 24  2  0
 29 28  1  0
 30 32  1  0
 31 30  2  0
M  END
$$$$
