EIW.pdb
     RDKit          3D

 32 33  0  0  1  0  0  0  0  0999 V2000
   12.5301  -16.7711   17.9818 N   0  0  0  0  0  0  0  0  0  0  0  0
   11.7081  -17.5765   18.8707 C   0  0  1  0  0  0  0  0  0  0  0  0
   12.5736  -18.7355   19.2970 C   0  0  0  0  0  0  0  0  0  0  0  0
   13.7454  -18.9834   18.4091 C   0  0  0  0  0  0  0  0  0  0  0  0
   14.4904  -20.1720   18.8967 C   0  0  0  0  0  0  0  0  0  0  0  0
   14.8617  -21.0309   18.0674 O   0  0  0  0  0  0  0  0  0  0  0  0
   11.1549  -16.7886   19.9799 C   0  0  0  0  0  0  0  0  0  0  0  0
   11.8981  -16.4432   20.9304 O   0  0  0  0  0  0  0  0  0  0  0  0
   14.7681  -20.3184   20.2707 O   0  0  0  0  0  0  0  0  0  0  0  0
    6.8952  -13.4226   19.1814 C   0  0  0  0  0  0  0  0  0  0  0  0
    8.1882  -14.1324   19.5118 C   0  0  0  0  0  0  0  0  0  0  0  0
    8.0104  -14.8864   20.8086 C   0  0  2  0  0  0  0  0  0  0  0  0
    7.5704  -14.0063   21.9454 C   0  0  0  0  0  0  0  0  0  0  0  0
    9.2250  -15.7070   21.1557 C   0  0  2  0  0  0  0  0  0  0  0  0
    9.7620  -16.3946   20.0098 N   0  0  0  0  0  0  0  0  0  0  0  0
    8.9706  -16.6295   22.2932 C   0  0  0  0  0  0  0  0  0  0  0  0
    9.8125  -17.5231   22.5400 O   0  0  0  0  0  0  0  0  0  0  0  0
    7.8211  -16.5445   23.1102 N   0  0  0  0  0  0  0  0  0  0  0  0
    7.7938  -16.0175   24.4661 C   0  0  1  0  0  0  0  0  0  0  0  0
    8.4341  -14.6953   24.5643 C   0  0  0  0  0  0  0  0  0  0  0  0
    8.4656  -14.1527   25.9299 C   0  0  0  0  0  0  0  0  0  0  0  0
    9.2447  -14.5809   27.0094 C   0  0  0  0  0  0  0  0  0  0  0  0
    8.9681  -13.8578   28.1068 N   0  0  0  0  0  0  0  0  0  0  0  0
    8.0242  -12.9520   27.7983 C   0  0  0  0  0  0  0  0  0  0  0  0
    7.4216  -11.9688   28.5813 C   0  0  0  0  0  0  0  0  0  0  0  0
    6.4671  -11.1136   28.0350 C   0  0  0  0  0  0  0  0  0  0  0  0
    6.1621  -11.2926   26.7096 C   0  0  0  0  0  0  0  0  0  0  0  0
    6.7568  -12.2658   25.9323 C   0  0  0  0  0  0  0  0  0  0  0  0
    7.7011  -13.1126   26.4726 C   0  0  0  0  0  0  0  0  0  0  0  0
    6.5340  -16.1428   25.1605 C   0  0  0  0  0  0  0  0  0  0  0  0
    5.4596  -15.6312   24.6973 O   0  0  0  0  0  0  0  0  0  0  0  0
    6.3663  -16.8216   26.3669 O   0  0  0  0  0  0  0  0  0  0  0  0
  2  1  1  6
  3  2  1  0
  4  5  1  0
  4  3  1  0
  5  6  2  0
  7  8  2  0
  7  2  1  0
  9  5  1  0
 10 11  1  0
 12 11  1  0
 12 14  1  0
 12 13  1  1
 14 15  1  6
 15  7  1  0
 16 14  1  0
 16 18  1  0
 17 16  2  0
 19 18  1  0
 19 30  1  0
 20 21  1  0
 19 20  1  6
 21 29  1  0
 22 21  2  0
 22 23  1  0
 23 24  1  0
 24 25  1  0
 25 26  2  0
 27 26  1  0
 28 27  2  0
 29 24  2  0
 29 28  1  0
 30 32  1  0
 31 30  2  0
M  END
$$$$
