EIW.pdb
     RDKit          3D

 32 33  0  0  1  0  0  0  0  0999 V2000
   10.1473  -18.6940   18.2214 N   0  0  0  0  0  0  0  0  0  0  0  0
    9.1740  -18.4365   19.2706 C   0  0  1  0  0  0  0  0  0  0  0  0
    9.1044  -19.7012   20.0892 C   0  0  0  0  0  0  0  0  0  0  0  0
   10.4338  -20.2843   20.4288 C   0  0  0  0  0  0  0  0  0  0  0  0
   10.2506  -21.4028   21.3886 C   0  0  0  0  0  0  0  0  0  0  0  0
   11.1019  -21.5678   22.2894 O   0  0  0  0  0  0  0  0  0  0  0  0
    9.4961  -17.2285   20.0414 C   0  0  0  0  0  0  0  0  0  0  0  0
   10.6716  -16.7891   20.0488 O   0  0  0  0  0  0  0  0  0  0  0  0
    9.1342  -22.2558   21.2763 O   0  0  0  0  0  0  0  0  0  0  0  0
    6.9760  -12.7713   19.4426 C   0  0  0  0  0  0  0  0  0  0  0  0
    7.9264  -13.9141   19.7170 C   0  0  0  0  0  0  0  0  0  0  0  0
    7.9642  -14.1674   21.2057 C   0  0  2  0  0  0  0  0  0  0  0  0
    8.3132  -12.9411   22.0025 C   0  0  0  0  0  0  0  0  0  0  0  0
    8.8347  -15.3458   21.5561 C   0  0  2  0  0  0  0  0  0  0  0  0
    8.4865  -16.5221   20.8017 N   0  0  0  0  0  0  0  0  0  0  0  0
    8.8603  -15.6069   23.0193 C   0  0  0  0  0  0  0  0  0  0  0  0
    7.8468  -16.1100   23.5562 O   0  0  0  0  0  0  0  0  0  0  0  0
    9.9770  -15.3137   23.8336 N   0  0  0  0  0  0  0  0  0  0  0  0
   10.1527  -15.7599   25.2072 C   0  0  1  0  0  0  0  0  0  0  0  0
    8.9152  -16.3202   25.7751 C   0  0  0  0  0  0  0  0  0  0  0  0
    7.8234  -15.3436   25.8947 C   0  0  0  0  0  0  0  0  0  0  0  0
    6.5128  -15.4539   25.4196 C   0  0  0  0  0  0  0  0  0  0  0  0
    5.8168  -14.3382   25.6924 N   0  0  0  0  0  0  0  0  0  0  0  0
    6.6207  -13.4773   26.3399 C   0  0  0  0  0  0  0  0  0  0  0  0
    6.3643  -12.2044   26.8467 C   0  0  0  0  0  0  0  0  0  0  0  0
    7.3600  -11.4924   27.5120 C   0  0  0  0  0  0  0  0  0  0  0  0
    8.5811  -12.1049   27.6360 C   0  0  0  0  0  0  0  0  0  0  0  0
    8.8378  -13.3650   27.1343 C   0  0  0  0  0  0  0  0  0  0  0  0
    7.8529  -14.0697   26.4756 C   0  0  0  0  0  0  0  0  0  0  0  0
   11.3493  -16.5250   25.4680 C   0  0  0  0  0  0  0  0  0  0  0  0
   11.5772  -17.0435   26.6124 O   0  0  0  0  0  0  0  0  0  0  0  0
   12.3436  -16.7743   24.5227 O   0  0  0  0  0  0  0  0  0  0  0  0
  2  1  1  6
  3  2  1  0
  4  5  1  0
  4  3  1  0
  5  6  2  0
  7  8  2  0
  7  2  1  0
  9  5  1  0
 10 11  1  0
 12 11  1  0
 12 14  1  0
 12 13  1  1
 14 15  1  6
 15  7  1  0
 16 14  1  0
 16 18  1  0
 17 16  2  0
 19 18  1  0
 19 30  1  0
 20 21  1  0
 19 20  1  6
 21 29  1  0
 22 21  2  0
 22 23  1  0
 23 24  1  0
 24 25  1  0
 25 26  2  0
 27 26  1  0
 28 27  2  0
 29 24  2  0
 29 28  1  0
 30 32  1  0
 31 30  2  0
M  END
$$$$
