EIW.pdb
     RDKit          3D

 32 33  0  0  1  0  0  0  0  0999 V2000
   10.3923  -17.1694   17.7059 N   0  0  0  0  0  0  0  0  0  0  0  0
   10.4910  -17.7317   19.0433 C   0  0  1  0  0  0  0  0  0  0  0  0
   11.7525  -18.5580   19.0522 C   0  0  0  0  0  0  0  0  0  0  0  0
   11.7632  -19.6693   18.0583 C   0  0  0  0  0  0  0  0  0  0  0  0
   13.0173  -20.4509   18.2064 C   0  0  0  0  0  0  0  0  0  0  0  0
   13.2123  -21.4248   17.4470 O   0  0  0  0  0  0  0  0  0  0  0  0
   10.4321  -16.6981   20.0851 C   0  0  0  0  0  0  0  0  0  0  0  0
   11.4408  -15.9882   20.3162 O   0  0  0  0  0  0  0  0  0  0  0  0
   13.9627  -20.0922   19.1883 O   0  0  0  0  0  0  0  0  0  0  0  0
    6.9965  -12.9419   19.9818 C   0  0  0  0  0  0  0  0  0  0  0  0
    8.1606  -13.8839   20.1869 C   0  0  0  0  0  0  0  0  0  0  0  0
    8.1006  -14.4307   21.5938 C   0  0  2  0  0  0  0  0  0  0  0  0
    8.0450  -13.3541   22.6417 C   0  0  0  0  0  0  0  0  0  0  0  0
    9.1948  -15.4317   21.8577 C   0  0  2  0  0  0  0  0  0  0  0  0
    9.2316  -16.4719   20.8623 N   0  0  0  0  0  0  0  0  0  0  0  0
    9.1303  -15.9803   23.2378 C   0  0  0  0  0  0  0  0  0  0  0  0
    8.1280  -16.6543   23.5686 O   0  0  0  0  0  0  0  0  0  0  0  0
   10.1492  -15.7763   24.1951 N   0  0  0  0  0  0  0  0  0  0  0  0
   10.1539  -16.3230   25.5434 C   0  0  1  0  0  0  0  0  0  0  0  0
    9.7423  -15.3305   26.5500 C   0  0  0  0  0  0  0  0  0  0  0  0
    8.3356  -14.9202   26.4363 C   0  0  0  0  0  0  0  0  0  0  0  0
    7.2212  -15.7254   26.1803 C   0  0  0  0  0  0  0  0  0  0  0  0
    6.1058  -14.9802   26.1155 N   0  0  0  0  0  0  0  0  0  0  0  0
    6.4357  -13.6936   26.3218 C   0  0  0  0  0  0  0  0  0  0  0  0
    5.6393  -12.5506   26.3696 C   0  0  0  0  0  0  0  0  0  0  0  0
    6.2046  -11.3029   26.6239 C   0  0  0  0  0  0  0  0  0  0  0  0
    7.5617  -11.2667   26.8201 C   0  0  0  0  0  0  0  0  0  0  0  0
    8.3525  -12.3970   26.7726 C   0  0  0  0  0  0  0  0  0  0  0  0
    7.7936  -13.6318   26.5206 C   0  0  0  0  0  0  0  0  0  0  0  0
    9.5578  -17.6301   25.6902 C   0  0  0  0  0  0  0  0  0  0  0  0
    8.9503  -18.2020   24.7236 O   0  0  0  0  0  0  0  0  0  0  0  0
    9.5911  -18.3810   26.8646 O   0  0  0  0  0  0  0  0  0  0  0  0
  2  1  1  6
  3  2  1  0
  4  5  1  0
  4  3  1  0
  5  6  2  0
  7  8  2  0
  7  2  1  0
  9  5  1  0
 10 11  1  0
 12 11  1  0
 12 14  1  0
 12 13  1  1
 14 15  1  6
 15  7  1  0
 16 14  1  0
 16 18  1  0
 17 16  2  0
 19 18  1  0
 19 30  1  0
 20 21  1  0
 19 20  1  1
 21 29  1  0
 22 21  2  0
 22 23  1  0
 23 24  1  0
 24 25  1  0
 25 26  2  0
 27 26  1  0
 28 27  2  0
 29 24  2  0
 29 28  1  0
 30 32  1  0
 31 30  2  0
M  END
$$$$
