EIW.pdb
     RDKit          3D

 32 33  0  0  1  0  0  0  0  0999 V2000
    8.5935  -19.0989   19.8129 N   0  0  0  0  0  0  0  0  0  0  0  0
    9.9459  -18.6491   19.5246 C   0  0  1  0  0  0  0  0  0  0  0  0
   10.0883  -18.7025   18.0243 C   0  0  0  0  0  0  0  0  0  0  0  0
   11.4325  -18.2978   17.5222 C   0  0  0  0  0  0  0  0  0  0  0  0
   11.4224  -18.2908   16.0372 C   0  0  0  0  0  0  0  0  0  0  0  0
   11.8103  -17.2643   15.4378 O   0  0  0  0  0  0  0  0  0  0  0  0
   10.2319  -17.3363   20.1177 C   0  0  0  0  0  0  0  0  0  0  0  0
   11.4054  -16.8914   20.1100 O   0  0  0  0  0  0  0  0  0  0  0  0
   10.9817  -19.4259   15.3273 O   0  0  0  0  0  0  0  0  0  0  0  0
    6.8795  -13.1047   19.6268 C   0  0  0  0  0  0  0  0  0  0  0  0
    8.1238  -13.9582   19.7161 C   0  0  0  0  0  0  0  0  0  0  0  0
    8.4018  -14.2605   21.1698 C   0  0  2  0  0  0  0  0  0  0  0  0
    8.6273  -13.0243   21.9952 C   0  0  0  0  0  0  0  0  0  0  0  0
    9.5076  -15.2699   21.3352 C   0  0  2  0  0  0  0  0  0  0  0  0
    9.1887  -16.5315   20.7179 N   0  0  0  0  0  0  0  0  0  0  0  0
    9.9118  -15.4291   22.7568 C   0  0  0  0  0  0  0  0  0  0  0  0
   10.7183  -14.6056   23.2464 O   0  0  0  0  0  0  0  0  0  0  0  0
    9.4271  -16.4680   23.5827 N   0  0  0  0  0  0  0  0  0  0  0  0
    9.7671  -16.6511   24.9854 C   0  0  1  0  0  0  0  0  0  0  0  0
    9.5208  -15.4381   25.7828 C   0  0  0  0  0  0  0  0  0  0  0  0
    8.0955  -15.1375   25.9785 C   0  0  0  0  0  0  0  0  0  0  0  0
    6.9988  -15.9734   25.7460 C   0  0  0  0  0  0  0  0  0  0  0  0
    5.8504  -15.3292   26.0100 N   0  0  0  0  0  0  0  0  0  0  0  0
    6.1409  -14.0811   26.4157 C   0  0  0  0  0  0  0  0  0  0  0  0
    5.3042  -13.0413   26.8179 C   0  0  0  0  0  0  0  0  0  0  0  0
    5.8367  -11.8199   27.2248 C   0  0  0  0  0  0  0  0  0  0  0  0
    7.2034  -11.7037   27.2065 C   0  0  0  0  0  0  0  0  0  0  0  0
    8.0340  -12.7315   26.8080 C   0  0  0  0  0  0  0  0  0  0  0  0
    7.5075  -13.9402   26.4049 C   0  0  0  0  0  0  0  0  0  0  0  0
    9.3096  -17.8829   25.5841 C   0  0  0  0  0  0  0  0  0  0  0  0
    8.5696  -18.7042   24.9451 O   0  0  0  0  0  0  0  0  0  0  0  0
    9.6264  -18.2919   26.8789 O   0  0  0  0  0  0  0  0  0  0  0  0
  2  1  1  6
  3  2  1  0
  4  5  1  0
  4  3  1  0
  5  6  2  0
  7  8  2  0
  7  2  1  0
  9  5  1  0
 10 11  1  0
 12 11  1  0
 12 14  1  0
 12 13  1  1
 14 15  1  1
 15  7  1  0
 16 14  1  0
 16 18  1  0
 17 16  2  0
 19 18  1  0
 19 30  1  0
 20 21  1  0
 19 20  1  1
 21 29  1  0
 22 21  2  0
 22 23  1  0
 23 24  1  0
 24 25  1  0
 25 26  2  0
 27 26  1  0
 28 27  2  0
 29 24  2  0
 29 28  1  0
 30 32  1  0
 31 30  2  0
M  END
$$$$
