EIW.pdb
     RDKit          3D

 32 33  0  0  1  0  0  0  0  0999 V2000
    9.8947  -18.2368   17.3576 N   0  0  0  0  0  0  0  0  0  0  0  0
    8.9419  -18.0840   18.4455 C   0  0  1  0  0  0  0  0  0  0  0  0
    8.8251  -19.4440   19.0867 C   0  0  0  0  0  0  0  0  0  0  0  0
    8.9216  -20.5825   18.1290 C   0  0  0  0  0  0  0  0  0  0  0  0
    8.8590  -21.8633   18.8781 C   0  0  0  0  0  0  0  0  0  0  0  0
    7.7633  -22.2259   19.3590 O   0  0  0  0  0  0  0  0  0  0  0  0
    9.3214  -17.0059   19.3677 C   0  0  0  0  0  0  0  0  0  0  0  0
   10.5336  -16.7276   19.5358 O   0  0  0  0  0  0  0  0  0  0  0  0
   10.0195  -22.6471   19.0376 O   0  0  0  0  0  0  0  0  0  0  0  0
    7.0945  -12.2364   19.3266 C   0  0  0  0  0  0  0  0  0  0  0  0
    7.9924  -13.4470   19.4396 C   0  0  0  0  0  0  0  0  0  0  0  0
    7.9458  -13.9550   20.8614 C   0  0  2  0  0  0  0  0  0  0  0  0
    8.3243  -12.9089   21.8728 C   0  0  0  0  0  0  0  0  0  0  0  0
    8.7321  -15.2285   21.0321 C   0  0  2  0  0  0  0  0  0  0  0  0
    8.3276  -16.2465   20.0970 N   0  0  0  0  0  0  0  0  0  0  0  0
    8.7081  -15.7170   22.4359 C   0  0  0  0  0  0  0  0  0  0  0  0
    7.6430  -16.1994   22.8845 O   0  0  0  0  0  0  0  0  0  0  0  0
    9.8331  -15.6623   23.2888 N   0  0  0  0  0  0  0  0  0  0  0  0
    9.8527  -16.0920   24.6786 C   0  0  1  0  0  0  0  0  0  0  0  0
    8.5482  -15.9121   25.3373 C   0  0  0  0  0  0  0  0  0  0  0  0
    8.5253  -14.8158   26.3160 C   0  0  0  0  0  0  0  0  0  0  0  0
    9.2987  -14.6774   27.4728 C   0  0  0  0  0  0  0  0  0  0  0  0
    8.9660  -13.5550   28.1311 N   0  0  0  0  0  0  0  0  0  0  0  0
    7.9896  -12.9306   27.4502 C   0  0  0  0  0  0  0  0  0  0  0  0
    7.3266  -11.7326   27.7110 C   0  0  0  0  0  0  0  0  0  0  0  0
    6.3472  -11.2602   26.8401 C   0  0  0  0  0  0  0  0  0  0  0  0
    6.0797  -12.0273   25.7348 C   0  0  0  0  0  0  0  0  0  0  0  0
    6.7344  -13.2143   25.4747 C   0  0  0  0  0  0  0  0  0  0  0  0
    7.7034  -13.6823   26.3364 C   0  0  0  0  0  0  0  0  0  0  0  0
   10.4995  -17.3579   24.9328 C   0  0  0  0  0  0  0  0  0  0  0  0
   10.5234  -17.8759   26.0996 O   0  0  0  0  0  0  0  0  0  0  0  0
   11.1374  -18.1236   23.9576 O   0  0  0  0  0  0  0  0  0  0  0  0
  2  1  1  6
  3  2  1  0
  4  5  1  0
  4  3  1  0
  5  6  2  0
  7  8  2  0
  7  2  1  0
  9  5  1  0
 10 11  1  0
 12 11  1  0
 12 14  1  0
 12 13  1  1
 14 15  1  6
 15  7  1  0
 16 14  1  0
 16 18  1  0
 17 16  2  0
 19 18  1  0
 19 30  1  0
 20 21  1  0
 19 20  1  6
 21 29  1  0
 22 21  2  0
 22 23  1  0
 23 24  1  0
 24 25  1  0
 25 26  2  0
 27 26  1  0
 28 27  2  0
 29 24  2  0
 29 28  1  0
 30 32  1  0
 31 30  2  0
M  END
$$$$
