EIW.pdb
     RDKit          3D

 32 33  0  0  1  0  0  0  0  0999 V2000
    7.8688  -19.0745   18.2608 N   0  0  0  0  0  0  0  0  0  0  0  0
    8.7364  -19.0831   19.4278 C   0  0  1  0  0  0  0  0  0  0  0  0
    9.8411  -20.0606   19.1143 C   0  0  0  0  0  0  0  0  0  0  0  0
    9.4201  -21.4905   19.1452 C   0  0  0  0  0  0  0  0  0  0  0  0
   10.5998  -22.3571   18.8946 C   0  0  0  0  0  0  0  0  0  0  0  0
   10.5207  -23.2406   18.0135 O   0  0  0  0  0  0  0  0  0  0  0  0
    9.1982  -17.7355   19.7853 C   0  0  0  0  0  0  0  0  0  0  0  0
   10.2721  -17.2973   19.3059 O   0  0  0  0  0  0  0  0  0  0  0  0
   11.7811  -22.1777   19.6422 O   0  0  0  0  0  0  0  0  0  0  0  0
    7.0889  -12.1932   20.7573 C   0  0  0  0  0  0  0  0  0  0  0  0
    8.2686  -13.1268   20.9028 C   0  0  0  0  0  0  0  0  0  0  0  0
    7.7632  -14.5502   20.9104 C   0  0  2  0  0  0  0  0  0  0  0  0
    6.7221  -14.7995   21.9660 C   0  0  0  0  0  0  0  0  0  0  0  0
    8.8894  -15.5490   20.9687 C   0  0  2  0  0  0  0  0  0  0  0  0
    8.4431  -16.8885   20.6846 N   0  0  0  0  0  0  0  0  0  0  0  0
    9.6419  -15.4696   22.2482 C   0  0  0  0  0  0  0  0  0  0  0  0
   10.7573  -14.9003   22.2531 O   0  0  0  0  0  0  0  0  0  0  0  0
    9.1561  -16.0074   23.4610 N   0  0  0  0  0  0  0  0  0  0  0  0
    9.9599  -16.2601   24.6471 C   0  0  1  0  0  0  0  0  0  0  0  0
    9.7766  -15.2242   25.6772 C   0  0  0  0  0  0  0  0  0  0  0  0
    8.3702  -14.8738   25.9208 C   0  0  0  0  0  0  0  0  0  0  0  0
    7.2427  -15.6895   25.7829 C   0  0  0  0  0  0  0  0  0  0  0  0
    6.1248  -15.0002   26.0639 N   0  0  0  0  0  0  0  0  0  0  0  0
    6.4659  -13.7414   26.3889 C   0  0  0  0  0  0  0  0  0  0  0  0
    5.6760  -12.6590   26.7725 C   0  0  0  0  0  0  0  0  0  0  0  0
    6.2581  -11.4335   27.0893 C   0  0  0  0  0  0  0  0  0  0  0  0
    7.6250  -11.3569   27.0031 C   0  0  0  0  0  0  0  0  0  0  0  0
    8.4093  -12.4271   26.6228 C   0  0  0  0  0  0  0  0  0  0  0  0
    7.8337  -13.6399   26.3089 C   0  0  0  0  0  0  0  0  0  0  0  0
    9.9459  -17.6195   25.1340 C   0  0  0  0  0  0  0  0  0  0  0  0
   10.7334  -18.0074   26.0613 O   0  0  0  0  0  0  0  0  0  0  0  0
    9.0914  -18.6145   24.6606 O   0  0  0  0  0  0  0  0  0  0  0  0
  2  1  1  6
  3  2  1  0
  4  5  1  0
  4  3  1  0
  5  6  2  0
  7  8  2  0
  7  2  1  0
  9  5  1  0
 10 11  1  0
 12 11  1  0
 12 14  1  0
 12 13  1  1
 14 15  1  1
 15  7  1  0
 16 14  1  0
 16 18  1  0
 17 16  2  0
 19 18  1  0
 19 30  1  0
 20 21  1  0
 19 20  1  1
 21 29  1  0
 22 21  2  0
 22 23  1  0
 23 24  1  0
 24 25  1  0
 25 26  2  0
 27 26  1  0
 28 27  2  0
 29 24  2  0
 29 28  1  0
 30 32  1  0
 31 30  2  0
M  END
$$$$
