MMM.pdb
     RDKit          3D

 25 24  0  0  1  0  0  0  0  0999 V2000
    6.9734  -18.4986   28.9146 C   0  0  0  0  0  0  0  0  0  0  0  0
    6.6325  -20.1703   28.4206 S   0  0  0  0  0  0  0  0  0  0  0  0
    6.5307  -20.5237   26.6923 C   0  0  0  0  0  0  0  0  0  0  0  0
    6.4368  -19.3641   25.7883 C   0  0  0  0  0  0  0  0  0  0  0  0
    6.2138  -19.6537   24.3650 C   0  0  2  0  0  0  0  0  0  0  0  0
    6.4272  -21.0208   24.0472 N   0  0  0  0  0  0  0  0  0  0  0  0
    7.1248  -18.7498   23.5590 C   0  0  0  0  0  0  0  0  0  0  0  0
    8.3087  -19.1529   23.4338 O   0  0  0  0  0  0  0  0  0  0  0  0
    7.7049  -11.7953   19.8051 C   0  0  0  0  0  0  0  0  0  0  0  0
    6.6657  -13.0900   20.5444 S   0  0  0  0  0  0  0  0  0  0  0  0
    7.6891  -14.3935   21.2818 C   0  0  0  0  0  0  0  0  0  0  0  0
    6.7564  -15.3483   21.9830 C   0  0  0  0  0  0  0  0  0  0  0  0
    7.5450  -16.5149   22.6070 C   0  0  2  0  0  0  0  0  0  0  0  0
    6.6523  -17.5436   22.9975 N   0  0  0  0  0  0  0  0  0  0  0  0
    8.2807  -15.8987   23.7429 C   0  0  0  0  0  0  0  0  0  0  0  0
    7.6447  -15.6751   24.8012 O   0  0  0  0  0  0  0  0  0  0  0  0
    7.8265  -12.8896   28.0277 C   0  0  0  0  0  0  0  0  0  0  0  0
    9.0721  -14.0866   28.5756 S   0  0  0  0  0  0  0  0  0  0  0  0
   10.2596  -14.3110   27.2169 C   0  0  0  0  0  0  0  0  0  0  0  0
    9.5241  -14.7699   25.9854 C   0  0  0  0  0  0  0  0  0  0  0  0
   10.4004  -14.9725   24.7790 C   0  0  2  0  0  0  0  0  0  0  0  0
    9.6535  -15.5584   23.6783 N   0  0  0  0  0  0  0  0  0  0  0  0
   11.5766  -15.8168   25.0359 C   0  0  0  0  0  0  0  0  0  0  0  0
   12.4009  -15.4512   25.9325 O   0  0  0  0  0  0  0  0  0  0  0  0
   11.9000  -16.9988   24.3978 O   0  0  0  0  0  0  0  0  0  0  0  0
  1  2  1  0
  3  2  1  0
  4  3  1  0
  5  6  1  1
  5  4  1  0
  7  5  1  0
  8  7  2  0
 10  9  1  0
 11 12  1  0
 11 10  1  0
 13 12  1  1
 13 15  1  0
 13 14  1  0
 14  7  1  0
 15 16  2  0
 18 17  1  0
 19 18  1  0
 21 20  1  1
 20 19  1  0
 22 21  1  0
 22 15  1  0
 23 21  1  0
 24 23  2  0
 25 23  1  0
M  END
$$$$
