MMM.pdb
     RDKit          3D

 25 24  0  0  1  0  0  0  0  0999 V2000
    8.2668  -11.4853   20.5730 C   0  0  0  0  0  0  0  0  0  0  0  0
    8.5548  -12.8416   19.4627 S   0  0  0  0  0  0  0  0  0  0  0  0
    7.3523  -14.1345   19.3979 C   0  0  0  0  0  0  0  0  0  0  0  0
    7.2261  -14.9762   20.6005 C   0  0  0  0  0  0  0  0  0  0  0  0
    7.9010  -16.2812   20.5661 C   0  0  2  0  0  0  0  0  0  0  0  0
    7.1751  -17.2506   19.8254 N   0  0  0  0  0  0  0  0  0  0  0  0
    8.1197  -16.7287   21.9973 C   0  0  0  0  0  0  0  0  0  0  0  0
    7.0747  -16.9911   22.6445 O   0  0  0  0  0  0  0  0  0  0  0  0
   13.6423  -19.0142   24.1130 C   0  0  0  0  0  0  0  0  0  0  0  0
   12.6660  -19.2704   25.6243 S   0  0  0  0  0  0  0  0  0  0  0  0
   11.0603  -18.4358   25.5023 C   0  0  0  0  0  0  0  0  0  0  0  0
   10.9060  -17.9740   24.0753 C   0  0  0  0  0  0  0  0  0  0  0  0
    9.6172  -17.1469   23.9106 C   0  0  2  0  0  0  0  0  0  0  0  0
    9.4176  -16.8359   22.5427 N   0  0  0  0  0  0  0  0  0  0  0  0
    9.8316  -15.9525   24.7701 C   0  0  0  0  0  0  0  0  0  0  0  0
   10.6876  -15.1117   24.4027 O   0  0  0  0  0  0  0  0  0  0  0  0
    6.3843  -10.8328   26.8202 C   0  0  0  0  0  0  0  0  0  0  0  0
    5.9093  -12.4162   26.0774 S   0  0  0  0  0  0  0  0  0  0  0  0
    7.4344  -13.3384   25.7168 C   0  0  0  0  0  0  0  0  0  0  0  0
    8.0597  -13.7891   27.0106 C   0  0  0  0  0  0  0  0  0  0  0  0
    9.3258  -14.5850   26.8434 C   0  0  2  0  0  0  0  0  0  0  0  0
    9.1170  -15.7292   25.9717 N   0  0  0  0  0  0  0  0  0  0  0  0
    9.8919  -15.0711   28.1105 C   0  0  0  0  0  0  0  0  0  0  0  0
   10.2319  -14.2173   28.9894 O   0  0  0  0  0  0  0  0  0  0  0  0
   10.1027  -16.3886   28.4694 O   0  0  0  0  0  0  0  0  0  0  0  0
  1  2  1  0
  3  2  1  0
  4  3  1  0
  5  6  1  6
  5  4  1  0
  7  5  1  0
  8  7  2  0
 10  9  1  0
 11 12  1  0
 11 10  1  0
 13 12  1  6
 13 15  1  0
 13 14  1  0
 14  7  1  0
 15 16  2  0
 18 17  1  0
 19 18  1  0
 21 20  1  1
 20 19  1  0
 22 21  1  0
 22 15  1  0
 23 21  1  0
 24 23  2  0
 25 23  1  0
M  END
$$$$
