MMM.pdb
     RDKit          3D

 25 24  0  0  1  0  0  0  0  0999 V2000
    8.3054  -11.4757   19.9261 C   0  0  0  0  0  0  0  0  0  0  0  0
    7.8797  -12.6519   18.6650 S   0  0  0  0  0  0  0  0  0  0  0  0
    8.0023  -14.3710   19.0540 C   0  0  0  0  0  0  0  0  0  0  0  0
    7.5074  -14.7823   20.3794 C   0  0  0  0  0  0  0  0  0  0  0  0
    8.1419  -15.9623   20.9834 C   0  0  2  0  0  0  0  0  0  0  0  0
    7.8458  -17.1597   20.2807 N   0  0  0  0  0  0  0  0  0  0  0  0
    7.6916  -16.0431   22.4281 C   0  0  0  0  0  0  0  0  0  0  0  0
    6.8975  -15.1408   22.7953 O   0  0  0  0  0  0  0  0  0  0  0  0
    8.1155  -21.5762   25.4636 C   0  0  0  0  0  0  0  0  0  0  0  0
    6.4632  -20.8777   25.1729 S   0  0  0  0  0  0  0  0  0  0  0  0
    6.5842  -19.2116   24.4661 C   0  0  0  0  0  0  0  0  0  0  0  0
    7.7066  -18.5046   25.1826 C   0  0  0  0  0  0  0  0  0  0  0  0
    7.8520  -17.0601   24.6682 C   0  0  2  0  0  0  0  0  0  0  0  0
    8.1468  -17.0711   23.2824 N   0  0  0  0  0  0  0  0  0  0  0  0
    8.9338  -16.4764   25.5049 C   0  0  0  0  0  0  0  0  0  0  0  0
   10.1215  -16.7078   25.1728 O   0  0  0  0  0  0  0  0  0  0  0  0
    6.5107  -11.3697   25.9239 C   0  0  0  0  0  0  0  0  0  0  0  0
    7.0039  -12.6467   27.1115 S   0  0  0  0  0  0  0  0  0  0  0  0
    8.8176  -12.7700   27.0708 C   0  0  0  0  0  0  0  0  0  0  0  0
    9.2685  -13.7925   28.0804 C   0  0  0  0  0  0  0  0  0  0  0  0
    9.7178  -15.0982   27.4824 C   0  0  2  0  0  0  0  0  0  0  0  0
    8.6799  -15.6796   26.6474 N   0  0  0  0  0  0  0  0  0  0  0  0
   10.1182  -16.1007   28.4810 C   0  0  0  0  0  0  0  0  0  0  0  0
    9.3933  -17.1354   28.6253 O   0  0  0  0  0  0  0  0  0  0  0  0
   11.2257  -16.0487   29.3054 O   0  0  0  0  0  0  0  0  0  0  0  0
  1  2  1  0
  3  2  1  0
  4  3  1  0
  5  6  1  6
  5  4  1  0
  7  5  1  0
  8  7  2  0
 10  9  1  0
 11 12  1  0
 11 10  1  0
 13 12  1  1
 13 15  1  0
 13 14  1  0
 14  7  1  0
 15 16  2  0
 18 17  1  0
 19 18  1  0
 21 20  1  1
 20 19  1  0
 22 21  1  0
 22 15  1  0
 23 21  1  0
 24 23  2  0
 25 23  1  0
M  END
$$$$
