MMM.pdb
     RDKit          3D

 25 24  0  0  1  0  0  0  0  0999 V2000
   13.8478  -18.0076   16.5570 C   0  0  0  0  0  0  0  0  0  0  0  0
   12.6881  -19.3530   16.5588 S   0  0  0  0  0  0  0  0  0  0  0  0
   11.4226  -19.3600   17.7919 C   0  0  0  0  0  0  0  0  0  0  0  0
   11.5883  -18.4145   18.9097 C   0  0  0  0  0  0  0  0  0  0  0  0
   10.7155  -18.6119   20.0754 C   0  0  2  0  0  0  0  0  0  0  0  0
    9.5165  -19.2979   19.7484 N   0  0  0  0  0  0  0  0  0  0  0  0
   10.4276  -17.2505   20.6756 C   0  0  0  0  0  0  0  0  0  0  0  0
   11.4402  -16.5568   20.9460 O   0  0  0  0  0  0  0  0  0  0  0  0
    7.9871  -11.9974   20.3622 C   0  0  0  0  0  0  0  0  0  0  0  0
    8.4551  -13.2769   19.1596 S   0  0  0  0  0  0  0  0  0  0  0  0
    7.5967  -14.8355   19.5114 C   0  0  0  0  0  0  0  0  0  0  0  0
    7.5305  -14.9785   21.0109 C   0  0  0  0  0  0  0  0  0  0  0  0
    8.8379  -15.5839   21.5550 C   0  0  2  0  0  0  0  0  0  0  0  0
    9.1045  -16.8144   20.9051 N   0  0  0  0  0  0  0  0  0  0  0  0
    8.6030  -15.7186   23.0171 C   0  0  0  0  0  0  0  0  0  0  0  0
    7.6864  -16.4875   23.3953 O   0  0  0  0  0  0  0  0  0  0  0  0
    6.3227  -11.0889   27.9576 C   0  0  0  0  0  0  0  0  0  0  0  0
    7.2949  -11.7315   26.5696 S   0  0  0  0  0  0  0  0  0  0  0  0
    6.7572  -13.4410   26.2614 C   0  0  0  0  0  0  0  0  0  0  0  0
    7.4217  -13.9526   25.0105 C   0  0  0  0  0  0  0  0  0  0  0  0
    8.8139  -14.4838   25.2206 C   0  0  2  0  0  0  0  0  0  0  0  0
    9.3634  -15.0223   23.9875 N   0  0  0  0  0  0  0  0  0  0  0  0
    8.9009  -15.5255   26.2548 C   0  0  0  0  0  0  0  0  0  0  0  0
    8.7853  -16.7416   25.9014 O   0  0  0  0  0  0  0  0  0  0  0  0
    9.1015  -15.3311   27.6079 O   0  0  0  0  0  0  0  0  0  0  0  0
  1  2  1  0
  3  2  1  0
  4  3  1  0
  5  6  1  6
  5  4  1  0
  7  5  1  0
  8  7  2  0
 10  9  1  0
 11 12  1  0
 11 10  1  0
 13 12  1  6
 13 15  1  0
 13 14  1  0
 14  7  1  0
 15 16  2  0
 18 17  1  0
 19 18  1  0
 21 20  1  6
 20 19  1  0
 22 21  1  0
 22 15  1  0
 23 21  1  0
 24 23  2  0
 25 23  1  0
M  END
$$$$
