MMM.pdb
     RDKit          3D

 25 24  0  0  1  0  0  0  0  0999 V2000
    8.5243  -19.3968   28.2139 C   0  0  0  0  0  0  0  0  0  0  0  0
    6.7726  -19.2698   27.9480 S   0  0  0  0  0  0  0  0  0  0  0  0
    6.1453  -19.6435   26.3390 C   0  0  0  0  0  0  0  0  0  0  0  0
    6.7915  -18.9587   25.2058 C   0  0  0  0  0  0  0  0  0  0  0  0
    6.2514  -19.2422   23.8688 C   0  0  2  0  0  0  0  0  0  0  0  0
    6.3338  -20.6180   23.5286 N   0  0  0  0  0  0  0  0  0  0  0  0
    7.0010  -18.3804   22.8729 C   0  0  0  0  0  0  0  0  0  0  0  0
    8.0472  -18.8915   22.3997 O   0  0  0  0  0  0  0  0  0  0  0  0
    6.9492  -13.1907   18.1061 C   0  0  0  0  0  0  0  0  0  0  0  0
    6.6974  -12.7702   19.8561 S   0  0  0  0  0  0  0  0  0  0  0  0
    7.6385  -13.8897   20.9288 C   0  0  0  0  0  0  0  0  0  0  0  0
    6.6773  -14.9368   21.4318 C   0  0  0  0  0  0  0  0  0  0  0  0
    7.4349  -16.0588   22.1662 C   0  0  2  0  0  0  0  0  0  0  0  0
    6.5355  -17.0958   22.5173 N   0  0  0  0  0  0  0  0  0  0  0  0
    8.0540  -15.3825   23.3370 C   0  0  0  0  0  0  0  0  0  0  0  0
    7.6208  -14.2488   23.6559 O   0  0  0  0  0  0  0  0  0  0  0  0
    7.5367  -11.9815   26.8435 C   0  0  0  0  0  0  0  0  0  0  0  0
    9.2114  -12.3773   27.4121 S   0  0  0  0  0  0  0  0  0  0  0  0
    9.3700  -14.1884   27.4489 C   0  0  0  0  0  0  0  0  0  0  0  0
    8.7600  -14.7656   26.1988 C   0  0  0  0  0  0  0  0  0  0  0  0
    9.7607  -15.2976   25.2089 C   0  0  2  0  0  0  0  0  0  0  0  0
    9.0999  -15.9599   24.0966 N   0  0  0  0  0  0  0  0  0  0  0  0
   10.7293  -16.2376   25.7924 C   0  0  0  0  0  0  0  0  0  0  0  0
   11.9624  -15.9274   25.7726 O   0  0  0  0  0  0  0  0  0  0  0  0
   10.4470  -17.4559   26.3797 O   0  0  0  0  0  0  0  0  0  0  0  0
  1  2  1  0
  3  2  1  0
  4  3  1  0
  5  6  1  6
  5  4  1  0
  7  5  1  0
  8  7  2  0
 10  9  1  0
 11 12  1  0
 11 10  1  0
 13 12  1  1
 13 15  1  0
 13 14  1  0
 14  7  1  0
 15 16  2  0
 18 17  1  0
 19 18  1  0
 21 20  1  1
 20 19  1  0
 22 21  1  0
 22 15  1  0
 23 21  1  0
 24 23  2  0
 25 23  1  0
M  END
$$$$
