MMM.pdb
     RDKit          3D

 25 24  0  0  1  0  0  0  0  0999 V2000
    7.7119  -12.2227   19.7115 C   0  0  0  0  0  0  0  0  0  0  0  0
    8.1345  -12.9002   18.1249 S   0  0  0  0  0  0  0  0  0  0  0  0
    8.2279  -14.6576   17.9679 C   0  0  0  0  0  0  0  0  0  0  0  0
    7.6119  -15.4481   19.0479 C   0  0  0  0  0  0  0  0  0  0  0  0
    8.4931  -16.3743   19.7725 C   0  0  2  0  0  0  0  0  0  0  0  0
    7.8663  -17.6172   20.0509 N   0  0  0  0  0  0  0  0  0  0  0  0
    8.9451  -15.6857   21.0446 C   0  0  0  0  0  0  0  0  0  0  0  0
    9.9618  -14.9560   20.9291 O   0  0  0  0  0  0  0  0  0  0  0  0
    6.5800  -11.9647   27.3854 C   0  0  0  0  0  0  0  0  0  0  0  0
    6.2412  -13.2313   26.1270 S   0  0  0  0  0  0  0  0  0  0  0  0
    7.7752  -13.7583   25.3151 C   0  0  0  0  0  0  0  0  0  0  0  0
    7.3870  -14.6732   24.1813 C   0  0  0  0  0  0  0  0  0  0  0  0
    8.6390  -15.1732   23.4366 C   0  0  2  0  0  0  0  0  0  0  0  0
    8.2545  -15.8673   22.2626 N   0  0  0  0  0  0  0  0  0  0  0  0
    9.3452  -16.0248   24.4303 C   0  0  0  0  0  0  0  0  0  0  0  0
    8.7713  -17.0706   24.8195 O   0  0  0  0  0  0  0  0  0  0  0  0
   11.1986  -14.3729   31.4668 C   0  0  0  0  0  0  0  0  0  0  0  0
   10.7686  -13.9072   29.7690 S   0  0  0  0  0  0  0  0  0  0  0  0
   11.0871  -15.3454   28.7028 C   0  0  0  0  0  0  0  0  0  0  0  0
   10.7934  -14.9776   27.2722 C   0  0  0  0  0  0  0  0  0  0  0  0
   11.0780  -16.0721   26.2795 C   0  0  2  0  0  0  0  0  0  0  0  0
   10.6238  -15.7063   24.9481 N   0  0  0  0  0  0  0  0  0  0  0  0
   10.4714  -17.3644   26.6320 C   0  0  0  0  0  0  0  0  0  0  0  0
    9.2033  -17.4590   26.6312 O   0  0  0  0  0  0  0  0  0  0  0  0
   11.1395  -18.5247   26.9732 O   0  0  0  0  0  0  0  0  0  0  0  0
  1  2  1  0
  3  2  1  0
  4  3  1  0
  5  6  1  1
  5  4  1  0
  7  5  1  0
  8  7  2  0
 10  9  1  0
 11 12  1  0
 11 10  1  0
 13 12  1  1
 13 15  1  0
 13 14  1  0
 14  7  1  0
 15 16  2  0
 18 17  1  0
 19 18  1  0
 21 20  1  1
 20 19  1  0
 22 21  1  0
 22 15  1  0
 23 21  1  0
 24 23  2  0
 25 23  1  0
M  END
$$$$
