MMM.pdb
     RDKit          3D

 25 24  0  0  1  0  0  0  0  0999 V2000
    8.3570  -11.3796   18.8451 C   0  0  0  0  0  0  0  0  0  0  0  0
    7.1562  -12.6828   18.7237 S   0  0  0  0  0  0  0  0  0  0  0  0
    7.4108  -14.1421   19.6869 C   0  0  0  0  0  0  0  0  0  0  0  0
    8.7015  -14.8302   19.5097 C   0  0  0  0  0  0  0  0  0  0  0  0
    8.9052  -16.0606   20.2870 C   0  0  2  0  0  0  0  0  0  0  0  0
    7.7520  -16.8883   20.3091 N   0  0  0  0  0  0  0  0  0  0  0  0
    9.3260  -15.6611   21.6870 C   0  0  0  0  0  0  0  0  0  0  0  0
   10.4339  -15.0731   21.7684 O   0  0  0  0  0  0  0  0  0  0  0  0
    6.9352  -12.4300   27.0776 C   0  0  0  0  0  0  0  0  0  0  0  0
    6.2296  -12.7243   25.4290 S   0  0  0  0  0  0  0  0  0  0  0  0
    7.4557  -13.4865   24.3310 C   0  0  0  0  0  0  0  0  0  0  0  0
    7.6807  -14.8936   24.8239 C   0  0  0  0  0  0  0  0  0  0  0  0
    8.8872  -15.5308   24.1094 C   0  0  2  0  0  0  0  0  0  0  0  0
    8.5120  -15.9410   22.8061 N   0  0  0  0  0  0  0  0  0  0  0  0
    9.2918  -16.6537   24.9963 C   0  0  0  0  0  0  0  0  0  0  0  0
    8.3926  -17.4196   25.4200 O   0  0  0  0  0  0  0  0  0  0  0  0
   10.5710  -13.1601   28.6332 C   0  0  0  0  0  0  0  0  0  0  0  0
   10.8198  -14.4353   29.8968 S   0  0  0  0  0  0  0  0  0  0  0  0
   11.1317  -16.0092   29.0412 C   0  0  0  0  0  0  0  0  0  0  0  0
   10.8351  -15.8439   27.5739 C   0  0  0  0  0  0  0  0  0  0  0  0
   11.0711  -17.0809   26.7502 C   0  0  2  0  0  0  0  0  0  0  0  0
   10.6349  -16.8900   25.3770 N   0  0  0  0  0  0  0  0  0  0  0  0
   10.4067  -18.2811   27.2798 C   0  0  0  0  0  0  0  0  0  0  0  0
   10.7796  -18.7319   28.4089 O   0  0  0  0  0  0  0  0  0  0  0  0
    9.3917  -18.9977   26.6755 O   0  0  0  0  0  0  0  0  0  0  0  0
  1  2  1  0
  3  2  1  0
  4  3  1  0
  5  6  1  1
  5  4  1  0
  7  5  1  0
  8  7  2  0
 10  9  1  0
 11 12  1  0
 11 10  1  0
 13 12  1  1
 13 15  1  0
 13 14  1  0
 14  7  1  0
 15 16  2  0
 18 17  1  0
 19 18  1  0
 21 20  1  1
 20 19  1  0
 22 21  1  0
 22 15  1  0
 23 21  1  0
 24 23  2  0
 25 23  1  0
M  END
$$$$
