MMM.pdb
     RDKit          3D

 25 24  0  0  1  0  0  0  0  0999 V2000
    6.3957  -20.6826   25.5908 C   0  0  0  0  0  0  0  0  0  0  0  0
    6.4663  -21.6314   24.0909 S   0  0  0  0  0  0  0  0  0  0  0  0
    6.1571  -20.7986   22.5634 C   0  0  0  0  0  0  0  0  0  0  0  0
    7.1012  -19.7295   22.1944 C   0  0  0  0  0  0  0  0  0  0  0  0
    6.5173  -18.4330   21.8232 C   0  0  2  0  0  0  0  0  0  0  0  0
    6.3266  -18.3023   20.4226 N   0  0  0  0  0  0  0  0  0  0  0  0
    7.4236  -17.3443   22.3618 C   0  0  0  0  0  0  0  0  0  0  0  0
    8.4355  -17.0912   21.6608 O   0  0  0  0  0  0  0  0  0  0  0  0
    6.1027  -12.1130   27.0309 C   0  0  0  0  0  0  0  0  0  0  0  0
    7.1210  -12.1492   25.5262 S   0  0  0  0  0  0  0  0  0  0  0  0
    6.6418  -13.5347   24.4581 C   0  0  0  0  0  0  0  0  0  0  0  0
    7.1848  -14.7917   25.0892 C   0  0  0  0  0  0  0  0  0  0  0  0
    7.9550  -15.6292   24.0512 C   0  0  2  0  0  0  0  0  0  0  0  0
    7.1294  -16.6753   23.5699 N   0  0  0  0  0  0  0  0  0  0  0  0
    9.1599  -16.1060   24.7807 C   0  0  0  0  0  0  0  0  0  0  0  0
    8.9937  -16.9322   25.7104 O   0  0  0  0  0  0  0  0  0  0  0  0
    9.6912  -12.7251   29.0015 C   0  0  0  0  0  0  0  0  0  0  0  0
   10.8640  -14.0938   28.8127 S   0  0  0  0  0  0  0  0  0  0  0  0
   11.2316  -14.2673   27.0403 C   0  0  0  0  0  0  0  0  0  0  0  0
   11.4322  -15.7241   26.7153 C   0  0  0  0  0  0  0  0  0  0  0  0
   11.6481  -16.0094   25.2536 C   0  0  2  0  0  0  0  0  0  0  0  0
   10.4710  -15.6700   24.4716 N   0  0  0  0  0  0  0  0  0  0  0  0
   12.0004  -17.4083   24.9686 C   0  0  0  0  0  0  0  0  0  0  0  0
   13.0632  -17.8823   25.4813 O   0  0  0  0  0  0  0  0  0  0  0  0
   11.2881  -18.2963   24.1855 O   0  0  0  0  0  0  0  0  0  0  0  0
  1  2  1  0
  3  2  1  0
  4  3  1  0
  5  6  1  6
  5  4  1  0
  7  5  1  0
  8  7  2  0
 10  9  1  0
 11 12  1  0
 11 10  1  0
 13 12  1  1
 13 15  1  0
 13 14  1  0
 14  7  1  0
 15 16  2  0
 18 17  1  0
 19 18  1  0
 21 20  1  1
 20 19  1  0
 22 21  1  0
 22 15  1  0
 23 21  1  0
 24 23  2  0
 25 23  1  0
M  END
$$$$
