MMM.pdb
     RDKit          3D

 25 24  0  0  1  0  0  0  0  0999 V2000
    8.1262  -12.2241   18.1937 C   0  0  0  0  0  0  0  0  0  0  0  0
    7.0144  -13.6093   18.1913 S   0  0  0  0  0  0  0  0  0  0  0  0
    7.1480  -14.7866   19.5021 C   0  0  0  0  0  0  0  0  0  0  0  0
    8.3550  -15.6315   19.5067 C   0  0  0  0  0  0  0  0  0  0  0  0
    8.5693  -16.4691   20.6950 C   0  0  2  0  0  0  0  0  0  0  0  0
    7.3785  -17.1037   21.1362 N   0  0  0  0  0  0  0  0  0  0  0  0
    9.1636  -15.5932   21.7795 C   0  0  0  0  0  0  0  0  0  0  0  0
   10.3479  -15.2217   21.5820 O   0  0  0  0  0  0  0  0  0  0  0  0
    5.8103  -12.9056   27.1961 C   0  0  0  0  0  0  0  0  0  0  0  0
    6.7371  -11.7064   26.1933 S   0  0  0  0  0  0  0  0  0  0  0  0
    8.2014  -12.4808   25.4544 C   0  0  0  0  0  0  0  0  0  0  0  0
    7.7122  -13.5727   24.5370 C   0  0  0  0  0  0  0  0  0  0  0  0
    8.8981  -14.2650   23.8394 C   0  0  2  0  0  0  0  0  0  0  0  0
    8.4178  -15.2330   22.9229 N   0  0  0  0  0  0  0  0  0  0  0  0
    9.6976  -14.8410   24.9531 C   0  0  0  0  0  0  0  0  0  0  0  0
   10.4411  -14.0667   25.6027 O   0  0  0  0  0  0  0  0  0  0  0  0
   10.7259  -15.0768   30.2454 C   0  0  0  0  0  0  0  0  0  0  0  0
   10.2308  -14.0768   28.8174 S   0  0  0  0  0  0  0  0  0  0  0  0
    9.0620  -15.0605   27.8310 C   0  0  0  0  0  0  0  0  0  0  0  0
    9.5660  -16.4762   27.7306 C   0  0  0  0  0  0  0  0  0  0  0  0
   10.3224  -16.7770   26.4650 C   0  0  2  0  0  0  0  0  0  0  0  0
    9.6536  -16.2117   25.3050 N   0  0  0  0  0  0  0  0  0  0  0  0
   10.5251  -18.2131   26.2229 C   0  0  0  0  0  0  0  0  0  0  0  0
   10.0209  -18.7282   25.1753 O   0  0  0  0  0  0  0  0  0  0  0  0
   11.2228  -19.0955   27.0252 O   0  0  0  0  0  0  0  0  0  0  0  0
  1  2  1  0
  3  2  1  0
  4  3  1  0
  5  6  1  1
  5  4  1  0
  7  5  1  0
  8  7  2  0
 10  9  1  0
 11 12  1  0
 11 10  1  0
 13 12  1  1
 13 15  1  0
 13 14  1  0
 14  7  1  0
 15 16  2  0
 18 17  1  0
 19 18  1  0
 21 20  1  1
 20 19  1  0
 22 21  1  0
 22 15  1  0
 23 21  1  0
 24 23  2  0
 25 23  1  0
M  END
$$$$
