DVN.pdb
     RDKit          3D

 24 23  0  0  1  0  0  0  0  0999 V2000
   22.5997  -17.1185  -16.5530 N   0  0  0  0  0  0  0  0  0  0  0  0
   22.1504  -15.8380  -17.0203 C   0  0  1  0  0  0  0  0  0  0  0  0
   20.6725  -15.8532  -17.2200 C   0  0  0  0  0  0  0  0  0  0  0  0
   20.3307  -16.6584  -18.4098 C   0  0  0  0  0  0  0  0  0  0  0  0
   20.9555  -16.4610  -19.4758 O   0  0  0  0  0  0  0  0  0  0  0  0
   22.5995  -14.7521  -16.1105 C   0  0  0  0  0  0  0  0  0  0  0  0
   22.2417  -14.7907  -14.9056 O   0  0  0  0  0  0  0  0  0  0  0  0
   19.3451  -17.6310  -18.4097 O   0  0  0  0  0  0  0  0  0  0  0  0
   25.9530  -13.7826  -14.9736 C   0  0  0  0  0  0  0  0  0  0  0  0
   25.3255  -12.5378  -15.5459 C   0  0  2  0  0  0  0  0  0  0  0  0
   25.7987  -11.3443  -14.7832 C   0  0  0  0  0  0  0  0  0  0  0  0
   23.8246  -12.6253  -15.6411 C   0  0  2  0  0  0  0  0  0  0  0  0
   23.4045  -13.6849  -16.5331 N   0  0  0  0  0  0  0  0  0  0  0  0
   23.2242  -11.3150  -16.0393 C   0  0  0  0  0  0  0  0  0  0  0  0
   23.5057  -10.7756  -17.1385 O   0  0  0  0  0  0  0  0  0  0  0  0
   18.8849  -11.3248  -16.3471 N   0  0  0  0  0  0  0  0  0  0  0  0
   19.8651  -10.3664  -16.7880 C   0  0  0  0  0  0  0  0  0  0  0  0
   20.2406  -10.4982  -17.9678 O   0  0  0  0  0  0  0  0  0  0  0  0
   20.3585   -9.3258  -15.8792 C   0  0  0  0  0  0  0  0  0  0  0  0
   21.8109   -9.3084  -15.6076 C   0  0  2  0  0  0  0  0  0  0  0  0
   22.3121  -10.6255  -15.1946 N   0  0  0  0  0  0  0  0  0  0  0  0
   22.1919   -8.2691  -14.6413 C   0  0  0  0  0  0  0  0  0  0  0  0
   22.0169   -7.0636  -14.8835 O   0  0  0  0  0  0  0  0  0  0  0  0
   22.7710   -8.6078  -13.4045 O   0  0  0  0  0  0  0  0  0  0  0  0
  2  1  1  1
  3  2  1  0
  4  3  1  0
  4  5  2  0
  6  2  1  0
  6  7  2  0
  8  4  1  0
 10  9  1  1
 10 12  1  0
 11 10  1  0
 12 13  1  6
 13  6  1  0
 14 12  1  0
 15 14  2  0
 16 17  1  0
 17 19  1  0
 17 18  2  0
 20 19  1  1
 20 22  1  0
 20 21  1  0
 21 14  1  0
 22 24  1  0
 23 22  2  0
M  END
$$$$
