DVN.pdb
     RDKit          3D

 24 23  0  0  1  0  0  0  0  0999 V2000
   13.3111  -10.5279  -11.9440 N   0  0  0  0  0  0  0  0  0  0  0  0
   14.7083  -10.3737  -12.2335 C   0  0  1  0  0  0  0  0  0  0  0  0
   14.9880  -10.7705  -13.6438 C   0  0  0  0  0  0  0  0  0  0  0  0
   14.6785  -12.2013  -13.8379 C   0  0  0  0  0  0  0  0  0  0  0  0
   14.3165  -12.8827  -12.8528 O   0  0  0  0  0  0  0  0  0  0  0  0
   15.1681   -8.9960  -11.9188 C   0  0  0  0  0  0  0  0  0  0  0  0
   14.3039   -8.1032  -11.7254 O   0  0  0  0  0  0  0  0  0  0  0  0
   14.7683  -12.8369  -15.0648 O   0  0  0  0  0  0  0  0  0  0  0  0
   16.8769   -5.4666   -9.7872 C   0  0  0  0  0  0  0  0  0  0  0  0
   16.4749   -6.8757  -10.1390 C   0  0  2  0  0  0  0  0  0  0  0  0
   16.8958   -7.8025   -9.0463 C   0  0  0  0  0  0  0  0  0  0  0  0
   16.9583   -7.3036  -11.5001 C   0  0  2  0  0  0  0  0  0  0  0  0
   16.5222   -8.6443  -11.8272 N   0  0  0  0  0  0  0  0  0  0  0  0
   18.4434   -7.1752  -11.6188 C   0  0  0  0  0  0  0  0  0  0  0  0
   19.2041   -8.1424  -11.3650 O   0  0  0  0  0  0  0  0  0  0  0  0
   22.7395   -7.8678  -14.1869 N   0  0  0  0  0  0  0  0  0  0  0  0
   21.6353   -7.0332  -14.5845 C   0  0  0  0  0  0  0  0  0  0  0  0
   21.8133   -6.3837  -15.6317 O   0  0  0  0  0  0  0  0  0  0  0  0
   20.4073   -6.9821  -13.7835 C   0  0  0  0  0  0  0  0  0  0  0  0
   20.3697   -6.0020  -12.6783 C   0  0  2  0  0  0  0  0  0  0  0  0
   19.0565   -5.9579  -12.0224 N   0  0  0  0  0  0  0  0  0  0  0  0
   20.7978   -4.6606  -13.0987 C   0  0  0  0  0  0  0  0  0  0  0  0
   21.9991   -4.3486  -13.1451 O   0  0  0  0  0  0  0  0  0  0  0  0
   19.8557   -3.6812  -13.4634 O   0  0  0  0  0  0  0  0  0  0  0  0
  2  1  1  6
  3  2  1  0
  4  3  1  0
  4  5  2  0
  6  2  1  0
  6  7  2  0
  8  4  1  0
 10  9  1  1
 10 12  1  0
 11 10  1  0
 12 13  1  1
 13  6  1  0
 14 12  1  0
 15 14  2  0
 16 17  1  0
 17 19  1  0
 17 18  2  0
 20 19  1  6
 20 22  1  0
 20 21  1  0
 21 14  1  0
 22 24  1  0
 23 22  2  0
M  END
$$$$
