DVN.pdb
     RDKit          3D

 24 23  0  0  1  0  0  0  0  0999 V2000
   15.9644  -14.1129  -14.4870 N   0  0  0  0  0  0  0  0  0  0  0  0
   15.3416  -12.8258  -14.3626 C   0  0  1  0  0  0  0  0  0  0  0  0
   14.0528  -12.9476  -13.6219 C   0  0  0  0  0  0  0  0  0  0  0  0
   13.1140  -13.8019  -14.3768 C   0  0  0  0  0  0  0  0  0  0  0  0
   12.0544  -14.1738  -13.8248 O   0  0  0  0  0  0  0  0  0  0  0  0
   16.2707  -11.8423  -13.7477 C   0  0  0  0  0  0  0  0  0  0  0  0
   16.9873  -12.2136  -12.7834 O   0  0  0  0  0  0  0  0  0  0  0  0
   13.3456  -14.2185  -15.6768 O   0  0  0  0  0  0  0  0  0  0  0  0
   19.0876   -9.9895  -15.3670 C   0  0  0  0  0  0  0  0  0  0  0  0
   18.2214   -8.9734  -14.6684 C   0  0  2  0  0  0  0  0  0  0  0  0
   19.0748   -7.8651  -14.1454 C   0  0  0  0  0  0  0  0  0  0  0  0
   17.3292   -9.5823  -13.6184 C   0  0  2  0  0  0  0  0  0  0  0  0
   16.3860  -10.5178  -14.1928 N   0  0  0  0  0  0  0  0  0  0  0  0
   16.6278   -8.5310  -12.8194 C   0  0  0  0  0  0  0  0  0  0  0  0
   15.7246   -7.8200  -13.3268 O   0  0  0  0  0  0  0  0  0  0  0  0
   14.8238   -5.4599   -8.9547 N   0  0  0  0  0  0  0  0  0  0  0  0
   15.5294   -6.5790   -8.3858 C   0  0  0  0  0  0  0  0  0  0  0  0
   15.5047   -6.6434   -7.1427 O   0  0  0  0  0  0  0  0  0  0  0  0
   16.2144   -7.5497   -9.2464 C   0  0  0  0  0  0  0  0  0  0  0  0
   16.1770   -7.2969  -10.7018 C   0  0  2  0  0  0  0  0  0  0  0  0
   16.9510   -8.2912  -11.4561 N   0  0  0  0  0  0  0  0  0  0  0  0
   16.5896   -5.9297  -11.0480 C   0  0  0  0  0  0  0  0  0  0  0  0
   17.7881   -5.6228  -11.1575 O   0  0  0  0  0  0  0  0  0  0  0  0
   15.6356   -4.9191  -11.2668 O   0  0  0  0  0  0  0  0  0  0  0  0
  2  1  1  1
  3  2  1  0
  4  3  1  0
  4  5  2  0
  6  2  1  0
  6  7  2  0
  8  4  1  0
 10  9  1  1
 10 12  1  0
 11 10  1  0
 12 13  1  6
 13  6  1  0
 14 12  1  0
 15 14  2  0
 16 17  1  0
 17 19  1  0
 17 18  2  0
 20 19  1  1
 20 22  1  0
 20 21  1  0
 21 14  1  0
 22 24  1  0
 23 22  2  0
M  END
$$$$
