DVN.pdb
     RDKit          3D

 24 23  0  0  1  0  0  0  0  0999 V2000
   28.5449  -21.0784  -16.7166 N   0  0  0  0  0  0  0  0  0  0  0  0
   27.8093  -20.0984  -15.9693 C   0  0  1  0  0  0  0  0  0  0  0  0
   27.1168  -19.1579  -16.8968 C   0  0  0  0  0  0  0  0  0  0  0  0
   28.1088  -18.4307  -17.7140 C   0  0  0  0  0  0  0  0  0  0  0  0
   28.9994  -17.7666  -17.1381 O   0  0  0  0  0  0  0  0  0  0  0  0
   26.8819  -20.7488  -15.0072 C   0  0  0  0  0  0  0  0  0  0  0  0
   26.4050  -21.8750  -15.2995 O   0  0  0  0  0  0  0  0  0  0  0  0
   28.1067  -18.4439  -19.0986 O   0  0  0  0  0  0  0  0  0  0  0  0
   27.5010  -21.1451  -11.1525 C   0  0  0  0  0  0  0  0  0  0  0  0
   26.1179  -20.6074  -11.4147 C   0  0  2  0  0  0  0  0  0  0  0  0
   25.1708  -21.1466  -10.3938 C   0  0  0  0  0  0  0  0  0  0  0  0
   25.6569  -20.8335  -12.8309 C   0  0  2  0  0  0  0  0  0  0  0  0
   26.5133  -20.1649  -13.7871 N   0  0  0  0  0  0  0  0  0  0  0  0
   24.2282  -20.4310  -13.0123 C   0  0  0  0  0  0  0  0  0  0  0  0
   23.8626  -19.2382  -12.8630 O   0  0  0  0  0  0  0  0  0  0  0  0
   19.6649  -20.0061  -16.2033 N   0  0  0  0  0  0  0  0  0  0  0  0
   19.9449  -21.0300  -15.2302 C   0  0  0  0  0  0  0  0  0  0  0  0
   18.9421  -21.5584  -14.7149 O   0  0  0  0  0  0  0  0  0  0  0  0
   21.3274  -21.3931  -14.9000 C   0  0  0  0  0  0  0  0  0  0  0  0
   21.8560  -20.9083  -13.6081 C   0  0  2  0  0  0  0  0  0  0  0  0
   23.2256  -21.3767  -13.3602 N   0  0  0  0  0  0  0  0  0  0  0  0
   20.9724  -21.2319  -12.4795 C   0  0  0  0  0  0  0  0  0  0  0  0
   21.1071  -22.2830  -11.8318 O   0  0  0  0  0  0  0  0  0  0  0  0
   19.9395  -20.3574  -12.0949 O   0  0  0  0  0  0  0  0  0  0  0  0
  2  1  1  6
  3  2  1  0
  4  3  1  0
  4  5  2  0
  6  2  1  0
  6  7  2  0
  8  4  1  0
 10  9  1  6
 10 12  1  0
 11 10  1  0
 12 13  1  6
 13  6  1  0
 14 12  1  0
 15 14  2  0
 16 17  1  0
 17 19  1  0
 17 18  2  0
 20 19  1  6
 20 22  1  0
 20 21  1  0
 21 14  1  0
 22 24  1  0
 23 22  2  0
M  END
$$$$
