DVN.pdb
     RDKit          3D

 24 23  0  0  1  0  0  0  0  0999 V2000
   13.3564  -11.2925  -10.8397 N   0  0  0  0  0  0  0  0  0  0  0  0
   14.7408  -10.9615  -11.0239 C   0  0  1  0  0  0  0  0  0  0  0  0
   15.2387  -11.5300  -12.3098 C   0  0  0  0  0  0  0  0  0  0  0  0
   15.0794  -12.9981  -12.3095 C   0  0  0  0  0  0  0  0  0  0  0  0
   15.5577  -13.6599  -11.3613 O   0  0  0  0  0  0  0  0  0  0  0  0
   14.9557   -9.4947  -10.9189 C   0  0  0  0  0  0  0  0  0  0  0  0
   14.2475   -8.7313  -11.6238 O   0  0  0  0  0  0  0  0  0  0  0  0
   14.4223  -13.6898  -13.3130 O   0  0  0  0  0  0  0  0  0  0  0  0
   14.2162   -7.1006   -8.3244 C   0  0  0  0  0  0  0  0  0  0  0  0
   15.6958   -6.9884   -8.5873 C   0  0  2  0  0  0  0  0  0  0  0  0
   16.1454   -5.5895   -8.3209 C   0  0  0  0  0  0  0  0  0  0  0  0
   16.0912   -7.4899   -9.9516 C   0  0  2  0  0  0  0  0  0  0  0  0
   15.9124   -8.9213  -10.0696 N   0  0  0  0  0  0  0  0  0  0  0  0
   17.4901   -7.0905  -10.2973 C   0  0  0  0  0  0  0  0  0  0  0  0
   18.4772   -7.5915   -9.7031 O   0  0  0  0  0  0  0  0  0  0  0  0
   21.7761   -5.8445  -12.9172 N   0  0  0  0  0  0  0  0  0  0  0  0
   21.0961   -7.1104  -12.8222 C   0  0  0  0  0  0  0  0  0  0  0  0
   21.7198   -8.0822  -13.2879 O   0  0  0  0  0  0  0  0  0  0  0  0
   19.7649   -7.2028  -12.2127 C   0  0  0  0  0  0  0  0  0  0  0  0
   19.1476   -5.9391  -11.7592 C   0  0  2  0  0  0  0  0  0  0  0  0
   17.7627   -6.1303  -11.3094 N   0  0  0  0  0  0  0  0  0  0  0  0
   19.2352   -4.8743  -12.7680 C   0  0  0  0  0  0  0  0  0  0  0  0
   18.3242   -4.6843  -13.5904 O   0  0  0  0  0  0  0  0  0  0  0  0
   20.3602   -4.0320  -12.8356 O   0  0  0  0  0  0  0  0  0  0  0  0
  2  1  1  6
  3  2  1  0
  4  3  1  0
  4  5  2  0
  6  2  1  0
  6  7  2  0
  8  4  1  0
 10  9  1  6
 10 12  1  0
 11 10  1  0
 12 13  1  1
 13  6  1  0
 14 12  1  0
 15 14  2  0
 16 17  1  0
 17 19  1  0
 17 18  2  0
 20 19  1  6
 20 22  1  0
 20 21  1  0
 21 14  1  0
 22 24  1  0
 23 22  2  0
M  END
$$$$
