DVN.pdb
     RDKit          3D

 24 23  0  0  1  0  0  0  0  0999 V2000
   17.9230  -13.3222  -17.9362 N   0  0  0  0  0  0  0  0  0  0  0  0
   17.7954  -12.4046  -16.8399 C   0  0  1  0  0  0  0  0  0  0  0  0
   18.5770  -12.8927  -15.6672 C   0  0  0  0  0  0  0  0  0  0  0  0
   18.0117  -14.1657  -15.1765 C   0  0  0  0  0  0  0  0  0  0  0  0
   16.8313  -14.4586  -15.4708 O   0  0  0  0  0  0  0  0  0  0  0  0
   18.1716  -11.0273  -17.2523 C   0  0  0  0  0  0  0  0  0  0  0  0
   19.1535  -10.8775  -18.0234 O   0  0  0  0  0  0  0  0  0  0  0  0
   18.7251  -15.0627  -14.3995 O   0  0  0  0  0  0  0  0  0  0  0  0
   16.2395   -8.5374  -19.2243 C   0  0  0  0  0  0  0  0  0  0  0  0
   16.6542   -7.8727  -17.9370 C   0  0  2  0  0  0  0  0  0  0  0  0
   16.8795   -6.4161  -18.1774 C   0  0  0  0  0  0  0  0  0  0  0  0
   17.8227   -8.5529  -17.2728 C   0  0  2  0  0  0  0  0  0  0  0  0
   17.4820   -9.8852  -16.8213 N   0  0  0  0  0  0  0  0  0  0  0  0
   18.3723   -7.7279  -16.1533 C   0  0  0  0  0  0  0  0  0  0  0  0
   17.6857   -7.4738  -15.1322 O   0  0  0  0  0  0  0  0  0  0  0  0
   21.3980   -4.8026  -13.0094 N   0  0  0  0  0  0  0  0  0  0  0  0
   22.2244   -5.3791  -14.0382 C   0  0  0  0  0  0  0  0  0  0  0  0
   23.4381   -5.1150  -13.9518 O   0  0  0  0  0  0  0  0  0  0  0  0
   21.6368   -6.2118  -15.0934 C   0  0  0  0  0  0  0  0  0  0  0  0
   20.1690   -6.3812  -15.0725 C   0  0  2  0  0  0  0  0  0  0  0  0
   19.6903   -7.1973  -16.1957 N   0  0  0  0  0  0  0  0  0  0  0  0
   19.4538   -5.0992  -15.0057 C   0  0  0  0  0  0  0  0  0  0  0  0
   19.2707   -4.4059  -16.0198 O   0  0  0  0  0  0  0  0  0  0  0  0
   18.9518   -4.6131  -13.7846 O   0  0  0  0  0  0  0  0  0  0  0  0
  2  1  1  6
  3  2  1  0
  4  3  1  0
  4  5  2  0
  6  2  1  0
  6  7  2  0
  8  4  1  0
 10  9  1  6
 10 12  1  0
 11 10  1  0
 12 13  1  1
 13  6  1  0
 14 12  1  0
 15 14  2  0
 16 17  1  0
 17 19  1  0
 17 18  2  0
 20 19  1  6
 20 22  1  0
 20 21  1  0
 21 14  1  0
 22 24  1  0
 23 22  2  0
M  END
$$$$
