DVN.pdb
     RDKit          3D

 24 23  0  0  1  0  0  0  0  0999 V2000
   23.7651  -13.9251  -17.1824 N   0  0  0  0  0  0  0  0  0  0  0  0
   24.0035  -12.7578  -16.3822 C   0  0  1  0  0  0  0  0  0  0  0  0
   25.3884  -12.2527  -16.6093 C   0  0  0  0  0  0  0  0  0  0  0  0
   26.3734  -13.2589  -16.1641 C   0  0  0  0  0  0  0  0  0  0  0  0
   26.8026  -14.0947  -16.9906 O   0  0  0  0  0  0  0  0  0  0  0  0
   22.9641  -11.7239  -16.6263 C   0  0  0  0  0  0  0  0  0  0  0  0
   22.6917  -11.4139  -17.8141 O   0  0  0  0  0  0  0  0  0  0  0  0
   26.8529  -13.3285  -14.8670 O   0  0  0  0  0  0  0  0  0  0  0  0
   19.4589  -11.8052  -16.5031 C   0  0  0  0  0  0  0  0  0  0  0  0
   19.8543  -10.7135  -15.5426 C   0  0  2  0  0  0  0  0  0  0  0  0
   18.7700   -9.6886  -15.4780 C   0  0  0  0  0  0  0  0  0  0  0  0
   21.2090  -10.1271  -15.8428 C   0  0  2  0  0  0  0  0  0  0  0  0
   22.2720  -11.0769  -15.5929 N   0  0  0  0  0  0  0  0  0  0  0  0
   21.4339   -8.8550  -15.0896 C   0  0  0  0  0  0  0  0  0  0  0  0
   21.6013   -8.8551  -13.8444 O   0  0  0  0  0  0  0  0  0  0  0  0
   22.3150   -3.8434  -13.7498 N   0  0  0  0  0  0  0  0  0  0  0  0
   22.7386   -4.0810  -15.1055 C   0  0  0  0  0  0  0  0  0  0  0  0
   23.3342   -3.1316  -15.6478 O   0  0  0  0  0  0  0  0  0  0  0  0
   22.4672   -5.3646  -15.7620 C   0  0  0  0  0  0  0  0  0  0  0  0
   21.7598   -6.3876  -14.9643 C   0  0  2  0  0  0  0  0  0  0  0  0
   21.4680   -7.5953  -15.7473 N   0  0  0  0  0  0  0  0  0  0  0  0
   20.5448   -5.8639  -14.3247 C   0  0  0  0  0  0  0  0  0  0  0  0
   20.5613   -5.4277  -13.1620 O   0  0  0  0  0  0  0  0  0  0  0  0
   19.3175   -5.8404  -15.0121 O   0  0  0  0  0  0  0  0  0  0  0  0
  2  1  1  6
  3  2  1  0
  4  3  1  0
  4  5  2  0
  6  2  1  0
  6  7  2  0
  8  4  1  0
 10  9  1  6
 10 12  1  0
 11 10  1  0
 12 13  1  1
 13  6  1  0
 14 12  1  0
 15 14  2  0
 16 17  1  0
 17 19  1  0
 17 18  2  0
 20 19  1  6
 20 22  1  0
 20 21  1  0
 21 14  1  0
 22 24  1  0
 23 22  2  0
M  END
$$$$
