DVN.pdb
     RDKit          3D

 24 23  0  0  1  0  0  0  0  0999 V2000
   17.9746  -12.5284  -17.4178 N   0  0  0  0  0  0  0  0  0  0  0  0
   18.6664  -11.3084  -17.7226 C   0  0  1  0  0  0  0  0  0  0  0  0
   17.7403  -10.3432  -18.3824 C   0  0  0  0  0  0  0  0  0  0  0  0
   17.3229  -10.8625  -19.7004 C   0  0  0  0  0  0  0  0  0  0  0  0
   16.1088  -11.0820  -19.9091 O   0  0  0  0  0  0  0  0  0  0  0  0
   19.3167  -10.7480  -16.5095 C   0  0  0  0  0  0  0  0  0  0  0  0
   18.6728  -10.7442  -15.4295 O   0  0  0  0  0  0  0  0  0  0  0  0
   18.2124  -11.1227  -20.7292 O   0  0  0  0  0  0  0  0  0  0  0  0
   23.2071   -9.8247  -13.7709 C   0  0  0  0  0  0  0  0  0  0  0  0
   22.5332  -10.3743  -15.0016 C   0  0  2  0  0  0  0  0  0  0  0  0
   23.5002  -10.3802  -16.1396 C   0  0  0  0  0  0  0  0  0  0  0  0
   21.2385   -9.6757  -15.3257 C   0  0  2  0  0  0  0  0  0  0  0  0
   20.6165  -10.2225  -16.5127 N   0  0  0  0  0  0  0  0  0  0  0  0
   21.4299   -8.1978  -15.4488 C   0  0  0  0  0  0  0  0  0  0  0  0
   21.8667   -7.6826  -16.5082 O   0  0  0  0  0  0  0  0  0  0  0  0
   19.5895   -2.7439  -14.3204 N   0  0  0  0  0  0  0  0  0  0  0  0
   20.4374   -3.6482  -15.0534 C   0  0  0  0  0  0  0  0  0  0  0  0
   21.3019   -3.1034  -15.7648 O   0  0  0  0  0  0  0  0  0  0  0  0
   20.2605   -5.1001  -14.9406 C   0  0  0  0  0  0  0  0  0  0  0  0
   21.4376   -5.8866  -14.5171 C   0  0  2  0  0  0  0  0  0  0  0  0
   21.1270   -7.3150  -14.3766 N   0  0  0  0  0  0  0  0  0  0  0  0
   22.0607   -5.3569  -13.2963 C   0  0  0  0  0  0  0  0  0  0  0  0
   21.9494   -5.9412  -12.2060 O   0  0  0  0  0  0  0  0  0  0  0  0
   22.8066   -4.1642  -13.3231 O   0  0  0  0  0  0  0  0  0  0  0  0
  2  1  1  1
  3  2  1  0
  4  3  1  0
  4  5  2  0
  6  2  1  0
  6  7  2  0
  8  4  1  0
 10  9  1  1
 10 12  1  0
 11 10  1  0
 12 13  1  6
 13  6  1  0
 14 12  1  0
 15 14  2  0
 16 17  1  0
 17 19  1  0
 17 18  2  0
 20 19  1  1
 20 22  1  0
 20 21  1  0
 21 14  1  0
 22 24  1  0
 23 22  2  0
M  END
$$$$
