THS.pdb
     RDKit          3D

 24 24  0  0  1  0  0  0  0  0999 V2000
   11.6220  -18.8698   13.9123 C   0  0  0  0  0  0  0  0  0  0  0  0
   12.0007  -17.9761   15.0728 C   0  0  1  0  0  0  0  0  0  0  0  0
   13.3567  -17.7451   15.1260 O   0  0  0  0  0  0  0  0  0  0  0  0
   11.2281  -16.6913   14.9350 C   0  0  2  0  0  0  0  0  0  0  0  0
   11.5104  -16.0877   13.6585 N   0  0  0  0  0  0  0  0  0  0  0  0
   11.4826  -15.7515   16.0611 C   0  0  0  0  0  0  0  0  0  0  0  0
   12.1577  -14.7199   15.8604 O   0  0  0  0  0  0  0  0  0  0  0  0
   10.9368  -16.0794   17.3276 N   0  0  0  0  0  0  0  0  0  0  0  0
   11.1309  -15.1645   18.4720 C   0  0  1  0  0  0  0  0  0  0  0  0
    9.9391  -15.2380   19.3402 C   0  0  0  0  0  0  0  0  0  0  0  0
    8.9202  -14.1961   19.1456 C   0  0  0  0  0  0  0  0  0  0  0  0
    8.9215  -13.0928   18.3523 C   0  0  0  0  0  0  0  0  0  0  0  0
    7.7324  -12.4858   18.4662 N   0  0  0  0  0  0  0  0  0  0  0  0
    7.0034  -13.2047   19.3179 C   0  0  0  0  0  0  0  0  0  0  0  0
    7.7003  -14.2549   19.7496 N   0  0  0  0  0  0  0  0  0  0  0  0
   12.3661  -15.6875   19.1179 C   0  0  0  0  0  0  0  0  0  0  0  0
   12.5360  -16.9092   19.2254 O   0  0  0  0  0  0  0  0  0  0  0  0
   16.0439  -14.2389   18.7534 O   0  0  0  0  0  0  0  0  0  0  0  0
   15.6719  -14.3616   20.0851 C   0  0  0  0  0  0  0  0  0  0  0  0
   14.5557  -15.3753   20.2498 C   0  0  2  0  0  0  0  0  0  0  0  0
   13.3622  -14.7959   19.6176 N   0  0  0  0  0  0  0  0  0  0  0  0
   14.2878  -15.5647   21.7031 C   0  0  0  0  0  0  0  0  0  0  0  0
   13.1729  -15.2397   22.1893 O   0  0  0  0  0  0  0  0  0  0  0  0
   15.2867  -16.1017   22.4960 O   0  0  0  0  0  0  0  0  0  0  0  0
  2  1  1  6
  2  4  1  0
  3  2  1  0
  4  5  1  6
  6  4  1  0
  7  6  2  0
  8  6  1  0
  9  8  1  0
  9 10  1  1
 10 11  1  0
 11 15  1  0
 11 12  2  0
 12 13  1  0
 14 13  1  0
 15 14  2  0
 16  9  1  0
 17 16  2  0
 18 19  1  0
 20 19  1  1
 20 22  1  0
 20 21  1  0
 21 16  1  0
 22 24  1  0
 23 22  2  0
M  END
$$$$
