THS.pdb
     RDKit          3D

 24 24  0  0  1  0  0  0  0  0999 V2000
    8.9825  -12.6413   19.6632 C   0  0  0  0  0  0  0  0  0  0  0  0
    8.4939  -13.1288   18.3169 C   0  0  1  0  0  0  0  0  0  0  0  0
    9.1535  -12.5167   17.2753 O   0  0  0  0  0  0  0  0  0  0  0  0
    8.6695  -14.6236   18.2777 C   0  0  2  0  0  0  0  0  0  0  0  0
    8.2990  -15.1235   16.9791 N   0  0  0  0  0  0  0  0  0  0  0  0
    7.9271  -15.3118   19.3692 C   0  0  0  0  0  0  0  0  0  0  0  0
    6.6897  -15.4550   19.2761 O   0  0  0  0  0  0  0  0  0  0  0  0
    8.6741  -15.7789   20.4797 N   0  0  0  0  0  0  0  0  0  0  0  0
    7.9831  -16.4432   21.6048 C   0  0  1  0  0  0  0  0  0  0  0  0
    8.1027  -17.9046   21.4331 C   0  0  0  0  0  0  0  0  0  0  0  0
    7.5703  -18.7388   22.5204 C   0  0  0  0  0  0  0  0  0  0  0  0
    6.9421  -18.3943   23.6751 C   0  0  0  0  0  0  0  0  0  0  0  0
    6.5806  -19.5156   24.3134 N   0  0  0  0  0  0  0  0  0  0  0  0
    6.9785  -20.5414   23.5630 C   0  0  0  0  0  0  0  0  0  0  0  0
    7.5853  -20.1000   22.4622 N   0  0  0  0  0  0  0  0  0  0  0  0
    8.7070  -15.9269   22.7989 C   0  0  0  0  0  0  0  0  0  0  0  0
    9.9396  -15.8141   22.7720 O   0  0  0  0  0  0  0  0  0  0  0  0
    6.5816  -14.5034   25.9501 O   0  0  0  0  0  0  0  0  0  0  0  0
    7.8747  -14.0178   25.8118 C   0  0  0  0  0  0  0  0  0  0  0  0
    8.7661  -15.0274   25.1142 C   0  0  2  0  0  0  0  0  0  0  0  0
    7.9963  -15.5584   23.9805 N   0  0  0  0  0  0  0  0  0  0  0  0
    9.0637  -16.1406   26.0587 C   0  0  0  0  0  0  0  0  0  0  0  0
    9.7758  -15.9346   27.0763 O   0  0  0  0  0  0  0  0  0  0  0  0
    8.5418  -17.3938   25.7904 O   0  0  0  0  0  0  0  0  0  0  0  0
  2  1  1  1
  2  4  1  0
  3  2  1  0
  4  5  1  6
  6  4  1  0
  7  6  2  0
  8  6  1  0
  9  8  1  0
  9 10  1  6
 10 11  1  0
 11 15  1  0
 11 12  2  0
 12 13  1  0
 14 13  1  0
 15 14  2  0
 16  9  1  0
 17 16  2  0
 18 19  1  0
 20 19  1  1
 20 22  1  0
 20 21  1  0
 21 16  1  0
 22 24  1  0
 23 22  2  0
M  END
$$$$
