THS.pdb
     RDKit          3D

 24 24  0  0  1  0  0  0  0  0999 V2000
    3.4740  -18.8807   21.6408 C   0  0  0  0  0  0  0  0  0  0  0  0
    4.7979  -18.2841   22.0655 C   0  0  1  0  0  0  0  0  0  0  0  0
    5.5424  -19.1628   22.8196 O   0  0  0  0  0  0  0  0  0  0  0  0
    5.5341  -17.8655   20.8208 C   0  0  2  0  0  0  0  0  0  0  0  0
    5.7190  -19.0038   19.9583 N   0  0  0  0  0  0  0  0  0  0  0  0
    6.8228  -17.1850   21.1245 C   0  0  0  0  0  0  0  0  0  0  0  0
    7.8974  -17.7987   20.9547 O   0  0  0  0  0  0  0  0  0  0  0  0
    6.7659  -15.8506   21.5997 N   0  0  0  0  0  0  0  0  0  0  0  0
    8.0167  -15.1032   21.8468 C   0  0  1  0  0  0  0  0  0  0  0  0
    7.8100  -13.6962   21.4501 C   0  0  0  0  0  0  0  0  0  0  0  0
    7.9535  -13.3899   20.0193 C   0  0  0  0  0  0  0  0  0  0  0  0
    9.0625  -13.1510   19.2713 C   0  0  0  0  0  0  0  0  0  0  0  0
    8.6878  -12.9894   17.9950 N   0  0  0  0  0  0  0  0  0  0  0  0
    7.3639  -13.1280   17.9528 C   0  0  0  0  0  0  0  0  0  0  0  0
    6.8865  -13.3735   19.1721 N   0  0  0  0  0  0  0  0  0  0  0  0
    8.2333  -15.2796   23.3091 C   0  0  0  0  0  0  0  0  0  0  0  0
    7.2915  -15.1172   24.0961 O   0  0  0  0  0  0  0  0  0  0  0  0
    8.9289  -18.2260   26.3064 O   0  0  0  0  0  0  0  0  0  0  0  0
    8.8480  -17.5471   25.0983 C   0  0  0  0  0  0  0  0  0  0  0  0
    9.5903  -16.2260   25.1627 C   0  0  2  0  0  0  0  0  0  0  0  0
    9.5180  -15.6348   23.8191 N   0  0  0  0  0  0  0  0  0  0  0  0
   11.0178  -16.4916   25.4965 C   0  0  0  0  0  0  0  0  0  0  0  0
   11.9104  -16.3490   24.6202 O   0  0  0  0  0  0  0  0  0  0  0  0
   11.3331  -16.8950   26.7821 O   0  0  0  0  0  0  0  0  0  0  0  0
  2  1  1  6
  2  4  1  0
  3  2  1  0
  4  5  1  6
  6  4  1  0
  7  6  2  0
  8  6  1  0
  9  8  1  0
  9 10  1  1
 10 11  1  0
 11 15  1  0
 11 12  2  0
 12 13  1  0
 14 13  1  0
 15 14  2  0
 16  9  1  0
 17 16  2  0
 18 19  1  0
 20 19  1  6
 20 22  1  0
 20 21  1  0
 21 16  1  0
 22 24  1  0
 23 22  2  0
M  END
$$$$
