THS.pdb
     RDKit          3D

 24 24  0  0  1  0  0  0  0  0999 V2000
    7.8093  -12.2185   19.1521 C   0  0  0  0  0  0  0  0  0  0  0  0
    8.0580  -13.3190   20.1600 C   0  0  1  0  0  0  0  0  0  0  0  0
    6.8934  -13.7455   20.7573 O   0  0  0  0  0  0  0  0  0  0  0  0
    8.7563  -14.4463   19.4471 C   0  0  2  0  0  0  0  0  0  0  0  0
    7.9556  -14.8896   18.3353 N   0  0  0  0  0  0  0  0  0  0  0  0
    9.1044  -15.5681   20.3617 C   0  0  0  0  0  0  0  0  0  0  0  0
    8.4029  -16.6016   20.3620 O   0  0  0  0  0  0  0  0  0  0  0  0
   10.2344  -15.4052   21.2018 N   0  0  0  0  0  0  0  0  0  0  0  0
   10.6427  -16.5000   22.1070 C   0  0  1  0  0  0  0  0  0  0  0  0
   12.0978  -16.4025   22.3365 C   0  0  0  0  0  0  0  0  0  0  0  0
   12.6700  -17.3296   23.3238 C   0  0  0  0  0  0  0  0  0  0  0  0
   12.7153  -17.2622   24.6802 C   0  0  0  0  0  0  0  0  0  0  0  0
   13.2816  -18.3848   25.1431 N   0  0  0  0  0  0  0  0  0  0  0  0
   13.5819  -19.1386   24.0870 C   0  0  0  0  0  0  0  0  0  0  0  0
   13.2207  -18.5223   22.9624 N   0  0  0  0  0  0  0  0  0  0  0  0
    9.8329  -16.2475   23.3305 C   0  0  0  0  0  0  0  0  0  0  0  0
    9.6922  -15.0908   23.7492 O   0  0  0  0  0  0  0  0  0  0  0  0
    6.9072  -18.7007   24.5765 O   0  0  0  0  0  0  0  0  0  0  0  0
    7.0209  -17.3825   24.9964 C   0  0  0  0  0  0  0  0  0  0  0  0
    8.4689  -17.0156   25.2599 C   0  0  2  0  0  0  0  0  0  0  0  0
    9.2135  -17.3254   24.0312 N   0  0  0  0  0  0  0  0  0  0  0  0
    8.9879  -17.8678   26.3662 C   0  0  0  0  0  0  0  0  0  0  0  0
    9.9043  -18.7026   26.1462 O   0  0  0  0  0  0  0  0  0  0  0  0
    8.4416  -17.7189   27.6288 O   0  0  0  0  0  0  0  0  0  0  0  0
  2  1  1  6
  2  4  1  0
  3  2  1  0
  4  5  1  6
  6  4  1  0
  7  6  2  0
  8  6  1  0
  9  8  1  0
  9 10  1  1
 10 11  1  0
 11 15  1  0
 11 12  2  0
 12 13  1  0
 14 13  1  0
 15 14  2  0
 16  9  1  0
 17 16  2  0
 18 19  1  0
 20 19  1  6
 20 22  1  0
 20 21  1  0
 21 16  1  0
 22 24  1  0
 23 22  2  0
M  END
$$$$
