THS.pdb
     RDKit          3D

 24 24  0  0  1  0  0  0  0  0999 V2000
    8.7121  -12.6273   20.1102 C   0  0  0  0  0  0  0  0  0  0  0  0
    7.8952  -13.2823   19.0181 C   0  0  1  0  0  0  0  0  0  0  0  0
    6.8979  -12.4555   18.5526 O   0  0  0  0  0  0  0  0  0  0  0  0
    8.8386  -13.6825   17.9153 C   0  0  2  0  0  0  0  0  0  0  0  0
    8.0922  -14.2185   16.8066 N   0  0  0  0  0  0  0  0  0  0  0  0
    9.8915  -14.6254   18.3823 C   0  0  0  0  0  0  0  0  0  0  0  0
    9.6743  -15.8551   18.3499 O   0  0  0  0  0  0  0  0  0  0  0  0
   11.1101  -14.0717   18.8491 N   0  0  0  0  0  0  0  0  0  0  0  0
   12.2190  -14.9637   19.2482 C   0  0  1  0  0  0  0  0  0  0  0  0
   13.4970  -14.2912   18.9422 C   0  0  0  0  0  0  0  0  0  0  0  0
   14.3114  -14.8854   17.8720 C   0  0  0  0  0  0  0  0  0  0  0  0
   14.0685  -15.0137   16.5412 C   0  0  0  0  0  0  0  0  0  0  0  0
   15.1452  -15.5636   15.9635 N   0  0  0  0  0  0  0  0  0  0  0  0
   16.0441  -15.7718   16.9238 C   0  0  0  0  0  0  0  0  0  0  0  0
   15.5651  -15.3681   18.0996 N   0  0  0  0  0  0  0  0  0  0  0  0
   11.9880  -15.1595   20.7059 C   0  0  0  0  0  0  0  0  0  0  0  0
   11.8979  -14.1767   21.4536 O   0  0  0  0  0  0  0  0  0  0  0  0
   10.3062  -17.8620   24.2344 O   0  0  0  0  0  0  0  0  0  0  0  0
   10.5273  -17.6011   22.8891 C   0  0  0  0  0  0  0  0  0  0  0  0
   11.6486  -16.5965   22.7041 C   0  0  2  0  0  0  0  0  0  0  0  0
   11.8686  -16.4707   21.2565 N   0  0  0  0  0  0  0  0  0  0  0  0
   12.8863  -17.1348   23.3351 C   0  0  0  0  0  0  0  0  0  0  0  0
   13.8403  -17.5351   22.6177 O   0  0  0  0  0  0  0  0  0  0  0  0
   12.9584  -17.1825   24.7162 O   0  0  0  0  0  0  0  0  0  0  0  0
  2  1  1  1
  2  4  1  0
  3  2  1  0
  4  5  1  6
  6  4  1  0
  7  6  2  0
  8  6  1  0
  9  8  1  0
  9 10  1  1
 10 11  1  0
 11 15  1  0
 11 12  2  0
 12 13  1  0
 14 13  1  0
 15 14  2  0
 16  9  1  0
 17 16  2  0
 18 19  1  0
 20 19  1  6
 20 22  1  0
 20 21  1  0
 21 16  1  0
 22 24  1  0
 23 22  2  0
M  END
$$$$
