THS.pdb
     RDKit          3D

 24 24  0  0  1  0  0  0  0  0999 V2000
    8.7545  -12.4297   19.1773 C   0  0  0  0  0  0  0  0  0  0  0  0
    8.5998  -13.0665   20.5410 C   0  0  1  0  0  0  0  0  0  0  0  0
    7.6395  -12.4362   21.2995 O   0  0  0  0  0  0  0  0  0  0  0  0
    8.2718  -14.5212   20.3347 C   0  0  2  0  0  0  0  0  0  0  0  0
    7.1096  -14.6439   19.4934 N   0  0  0  0  0  0  0  0  0  0  0  0
    8.1058  -15.2541   21.6198 C   0  0  0  0  0  0  0  0  0  0  0  0
    6.9661  -15.6217   21.9753 O   0  0  0  0  0  0  0  0  0  0  0  0
    9.2695  -15.5031   22.3900 N   0  0  0  0  0  0  0  0  0  0  0  0
    9.1669  -16.2605   23.6551 C   0  0  1  0  0  0  0  0  0  0  0  0
   10.1290  -17.3794   23.6126 C   0  0  0  0  0  0  0  0  0  0  0  0
    9.6232  -18.6605   23.0981 C   0  0  0  0  0  0  0  0  0  0  0  0
    8.4089  -18.9925   22.5866 C   0  0  0  0  0  0  0  0  0  0  0  0
    8.4511  -20.2704   22.1860 N   0  0  0  0  0  0  0  0  0  0  0  0
    9.6764  -20.7238   22.4447 C   0  0  0  0  0  0  0  0  0  0  0  0
   10.4153  -19.7649   23.0011 N   0  0  0  0  0  0  0  0  0  0  0  0
    9.4927  -15.2394   24.6884 C   0  0  0  0  0  0  0  0  0  0  0  0
   10.5761  -14.6417   24.6448 O   0  0  0  0  0  0  0  0  0  0  0  0
    7.1080  -12.6335   26.0132 O   0  0  0  0  0  0  0  0  0  0  0  0
    7.7162  -13.1883   27.1309 C   0  0  0  0  0  0  0  0  0  0  0  0
    8.9689  -13.9532   26.7486 C   0  0  2  0  0  0  0  0  0  0  0  0
    8.5691  -14.9384   25.7339 N   0  0  0  0  0  0  0  0  0  0  0  0
    9.4770  -14.6757   27.9484 C   0  0  0  0  0  0  0  0  0  0  0  0
    9.5225  -15.9338   27.9581 O   0  0  0  0  0  0  0  0  0  0  0  0
    9.8931  -13.9347   29.0405 O   0  0  0  0  0  0  0  0  0  0  0  0
  2  1  1  6
  2  4  1  0
  3  2  1  0
  4  5  1  6
  6  4  1  0
  7  6  2  0
  8  6  1  0
  9  8  1  0
  9 10  1  6
 10 11  1  0
 11 15  1  0
 11 12  2  0
 12 13  1  0
 14 13  1  0
 15 14  2  0
 16  9  1  0
 17 16  2  0
 18 19  1  0
 20 19  1  1
 20 22  1  0
 20 21  1  0
 21 16  1  0
 22 24  1  0
 23 22  2  0
M  END
$$$$
