THS.pdb
     RDKit          3D

 24 24  0  0  1  0  0  0  0  0999 V2000
   14.7619  -17.2396   17.4275 C   0  0  0  0  0  0  0  0  0  0  0  0
   15.3824  -15.9225   17.0164 C   0  0  1  0  0  0  0  0  0  0  0  0
   16.0770  -16.0258   15.8325 O   0  0  0  0  0  0  0  0  0  0  0  0
   14.2779  -14.9040   16.9200 C   0  0  2  0  0  0  0  0  0  0  0  0
   14.7980  -13.6704   16.3896 N   0  0  0  0  0  0  0  0  0  0  0  0
   13.5795  -14.6984   18.2184 C   0  0  0  0  0  0  0  0  0  0  0  0
   14.1027  -13.9725   19.0900 O   0  0  0  0  0  0  0  0  0  0  0  0
   12.3333  -15.3477   18.4049 N   0  0  0  0  0  0  0  0  0  0  0  0
   11.5877  -15.1613   19.6674 C   0  0  1  0  0  0  0  0  0  0  0  0
   10.1803  -15.5470   19.4437 C   0  0  0  0  0  0  0  0  0  0  0  0
    9.2643  -14.4750   19.0274 C   0  0  0  0  0  0  0  0  0  0  0  0
    9.5025  -13.1690   18.7375 C   0  0  0  0  0  0  0  0  0  0  0  0
    8.3544  -12.6061   18.3370 N   0  0  0  0  0  0  0  0  0  0  0  0
    7.4174  -13.5516   18.3770 C   0  0  0  0  0  0  0  0  0  0  0  0
    7.9415  -14.7034   18.7939 N   0  0  0  0  0  0  0  0  0  0  0  0
   12.3023  -16.0568   20.6180 C   0  0  0  0  0  0  0  0  0  0  0  0
   12.6127  -17.2038   20.2702 O   0  0  0  0  0  0  0  0  0  0  0  0
   15.4164  -15.4723   22.2663 O   0  0  0  0  0  0  0  0  0  0  0  0
   14.5791  -15.8150   23.3191 C   0  0  0  0  0  0  0  0  0  0  0  0
   13.3439  -16.5410   22.8212 C   0  0  2  0  0  0  0  0  0  0  0  0
   12.6362  -15.6095   21.9315 N   0  0  0  0  0  0  0  0  0  0  0  0
   12.4684  -16.8556   23.9849 C   0  0  0  0  0  0  0  0  0  0  0  0
   11.3590  -16.2754   24.1181 O   0  0  0  0  0  0  0  0  0  0  0  0
   12.9026  -17.7927   24.9059 O   0  0  0  0  0  0  0  0  0  0  0  0
  2  1  1  6
  2  4  1  0
  3  2  1  0
  4  5  1  1
  6  4  1  0
  7  6  2  0
  8  6  1  0
  9  8  1  0
  9 10  1  6
 10 11  1  0
 11 15  1  0
 11 12  2  0
 12 13  1  0
 14 13  1  0
 15 14  2  0
 16  9  1  0
 17 16  2  0
 18 19  1  0
 20 19  1  1
 20 22  1  0
 20 21  1  0
 21 16  1  0
 22 24  1  0
 23 22  2  0
M  END
$$$$
