THS.pdb
     RDKit          3D

 24 24  0  0  1  0  0  0  0  0999 V2000
   11.9313  -18.4159   14.4072 C   0  0  0  0  0  0  0  0  0  0  0  0
   12.3736  -17.6865   15.6567 C   0  0  1  0  0  0  0  0  0  0  0  0
   13.7376  -17.7436   15.8327 O   0  0  0  0  0  0  0  0  0  0  0  0
   11.8904  -16.2643   15.5544 C   0  0  2  0  0  0  0  0  0  0  0  0
   12.4379  -15.6477   14.3739 N   0  0  0  0  0  0  0  0  0  0  0  0
   12.1862  -15.4740   16.7807 C   0  0  0  0  0  0  0  0  0  0  0  0
   13.0917  -14.6139   16.7544 O   0  0  0  0  0  0  0  0  0  0  0  0
   11.4123  -15.7410   17.9379 N   0  0  0  0  0  0  0  0  0  0  0  0
   11.6113  -14.9328   19.1593 C   0  0  1  0  0  0  0  0  0  0  0  0
   10.3637  -14.9577   19.9481 C   0  0  0  0  0  0  0  0  0  0  0  0
    9.2797  -14.0767   19.4893 C   0  0  0  0  0  0  0  0  0  0  0  0
    9.2356  -13.1865   18.4636 C   0  0  0  0  0  0  0  0  0  0  0  0
    8.0001  -12.6716   18.4002 N   0  0  0  0  0  0  0  0  0  0  0  0
    7.2877  -13.2368   19.3732 C   0  0  0  0  0  0  0  0  0  0  0  0
    8.0404  -14.0990   20.0552 N   0  0  0  0  0  0  0  0  0  0  0  0
   12.7509  -15.6134   19.8336 C   0  0  0  0  0  0  0  0  0  0  0  0
   12.9023  -16.8356   19.7060 O   0  0  0  0  0  0  0  0  0  0  0  0
   17.2959  -15.2271   20.4737 O   0  0  0  0  0  0  0  0  0  0  0  0
   16.0336  -14.6996   20.2386 C   0  0  0  0  0  0  0  0  0  0  0  0
   14.9641  -15.5000   20.9569 C   0  0  2  0  0  0  0  0  0  0  0  0
   13.6758  -14.8731   20.6294 N   0  0  0  0  0  0  0  0  0  0  0  0
   15.1909  -15.3971   22.4258 C   0  0  0  0  0  0  0  0  0  0  0  0
   14.4748  -14.6335   23.1253 O   0  0  0  0  0  0  0  0  0  0  0  0
   16.1989  -16.1553   22.9948 O   0  0  0  0  0  0  0  0  0  0  0  0
  2  1  1  6
  2  4  1  0
  3  2  1  0
  4  5  1  6
  6  4  1  0
  7  6  2  0
  8  6  1  0
  9  8  1  0
  9 10  1  1
 10 11  1  0
 11 15  1  0
 11 12  2  0
 12 13  1  0
 14 13  1  0
 15 14  2  0
 16  9  1  0
 17 16  2  0
 18 19  1  0
 20 19  1  6
 20 22  1  0
 20 21  1  0
 21 16  1  0
 22 24  1  0
 23 22  2  0
M  END
$$$$
