THS.pdb
     RDKit          3D

 24 24  0  0  1  0  0  0  0  0999 V2000
    8.4935  -12.7049   19.8916 C   0  0  0  0  0  0  0  0  0  0  0  0
    7.8339  -13.5600   18.8319 C   0  0  1  0  0  0  0  0  0  0  0  0
    6.8054  -12.8981   18.2004 O   0  0  0  0  0  0  0  0  0  0  0  0
    8.8981  -13.9840   17.8551 C   0  0  2  0  0  0  0  0  0  0  0  0
    8.2931  -14.6719   16.7440 N   0  0  0  0  0  0  0  0  0  0  0  0
    9.9662  -14.7987   18.4964 C   0  0  0  0  0  0  0  0  0  0  0  0
    9.8021  -16.0293   18.6339 O   0  0  0  0  0  0  0  0  0  0  0  0
   11.1374  -14.1260   18.9269 N   0  0  0  0  0  0  0  0  0  0  0  0
   12.2103  -14.8794   19.6094 C   0  0  1  0  0  0  0  0  0  0  0  0
   13.4819  -14.1502   19.4340 C   0  0  0  0  0  0  0  0  0  0  0  0
   14.3444  -14.5919   18.3283 C   0  0  0  0  0  0  0  0  0  0  0  0
   14.2071  -15.6243   17.4555 C   0  0  0  0  0  0  0  0  0  0  0  0
   15.2203  -15.5785   16.5799 N   0  0  0  0  0  0  0  0  0  0  0  0
   15.9747  -14.5303   16.9052 C   0  0  0  0  0  0  0  0  0  0  0  0
   15.4662  -13.9077   17.9676 N   0  0  0  0  0  0  0  0  0  0  0  0
   11.7452  -14.9253   21.0229 C   0  0  0  0  0  0  0  0  0  0  0  0
   10.9894  -14.0438   21.4526 O   0  0  0  0  0  0  0  0  0  0  0  0
    9.1710  -17.1903   23.5792 O   0  0  0  0  0  0  0  0  0  0  0  0
   10.0074  -16.8073   22.5396 C   0  0  0  0  0  0  0  0  0  0  0  0
   11.3260  -16.2743   23.0669 C   0  0  2  0  0  0  0  0  0  0  0  0
   12.1605  -15.9765   21.8943 N   0  0  0  0  0  0  0  0  0  0  0  0
   11.9881  -17.3386   23.8722 C   0  0  0  0  0  0  0  0  0  0  0  0
   12.7595  -18.1649   23.3179 O   0  0  0  0  0  0  0  0  0  0  0  0
   11.7351  -17.3942   25.2316 O   0  0  0  0  0  0  0  0  0  0  0  0
  2  1  1  1
  2  4  1  0
  3  2  1  0
  4  5  1  6
  6  4  1  0
  7  6  2  0
  8  6  1  0
  9  8  1  0
  9 10  1  1
 10 11  1  0
 11 15  1  0
 11 12  2  0
 12 13  1  0
 14 13  1  0
 15 14  2  0
 16  9  1  0
 17 16  2  0
 18 19  1  0
 20 19  1  6
 20 22  1  0
 20 21  1  0
 21 16  1  0
 22 24  1  0
 23 22  2  0
M  END
$$$$
