YPE.pdb
     RDKit          3D

 29 30  0  0  1  0  0  0  0  0999 V2000
   11.3362  -15.1971   29.4338 O   0  0  0  0  0  0  0  0  0  0  0  0
   10.2325  -14.9869   28.6204 C   0  0  0  0  0  0  0  0  0  0  0  0
    9.2098  -15.8891   28.5746 C   0  0  0  0  0  0  0  0  0  0  0  0
    8.1395  -15.6395   27.7563 C   0  0  0  0  0  0  0  0  0  0  0  0
    8.0400  -14.5000   26.9600 C   0  0  0  0  0  0  0  0  0  0  0  0
    6.8648  -14.2625   26.0853 C   0  0  0  0  0  0  0  0  0  0  0  0
    6.3326  -15.6013   25.5459 C   0  0  2  0  0  0  0  0  0  0  0  0
    6.2613  -16.5631   26.6399 N   0  0  0  0  0  0  0  0  0  0  0  0
    7.1962  -16.0976   24.4517 C   0  0  0  0  0  0  0  0  0  0  0  0
    7.5156  -17.3377   24.4760 O   0  0  0  0  0  0  0  0  0  0  0  0
    9.0738  -13.5932   27.0099 C   0  0  0  0  0  0  0  0  0  0  0  0
   10.1505  -13.8524   27.8382 C   0  0  0  0  0  0  0  0  0  0  0  0
    7.6510  -15.2409   23.4200 N   0  0  0  0  0  0  0  0  0  0  0  0
    7.4650  -13.8304   23.1997 C   0  0  0  0  0  0  0  0  0  0  0  0
    7.0438  -13.8223   21.7184 C   0  0  0  0  0  0  0  0  0  0  0  0
    7.7968  -14.9928   21.1427 C   0  0  0  0  0  0  0  0  0  0  0  0
    8.4681  -15.6811   22.3071 C   0  0  1  0  0  0  0  0  0  0  0  0
    9.8835  -15.2942   22.4658 C   0  0  0  0  0  0  0  0  0  0  0  0
   10.1877  -14.2599   23.0960 O   0  0  0  0  0  0  0  0  0  0  0  0
   10.9060  -16.0877   21.9076 N   0  0  0  0  0  0  0  0  0  0  0  0
   12.0220  -16.6046   22.6833 C   0  0  1  0  0  0  0  0  0  0  0  0
   11.5054  -17.5549   23.7280 C   0  0  0  0  0  0  0  0  0  0  0  0
   12.6246  -18.1441   24.5480 C   0  0  0  0  0  0  0  0  0  0  0  0
   12.1013  -19.0136   25.6208 C   0  0  0  0  0  0  0  0  0  0  0  0
   10.9684  -18.7464   26.1114 O   0  0  0  0  0  0  0  0  0  0  0  0
   12.9356  -17.3617   21.7817 C   0  0  0  0  0  0  0  0  0  0  0  0
   12.4333  -18.0404   20.6876 O   0  0  0  0  0  0  0  0  0  0  0  0
   12.7977  -20.1066   26.1107 O   0  0  0  0  0  0  0  0  0  0  0  0
   14.1683  -17.3844   22.0153 O   0  0  0  0  0  0  0  0  0  0  0  0
  2  1  1  0
  3  2  2  0
  4  3  1  0
  5  4  2  0
  5 11  1  0
  6  5  1  0
  7  6  1  0
  7  8  1  1
  9  7  1  0
 10  9  2  0
 11 12  2  0
 12  2  1  0
 13 14  1  0
 13  9  1  0
 15 14  1  0
 16 17  1  0
 16 15  1  0
 17 13  1  0
 17 18  1  1
 19 18  2  0
 20 18  1  0
 21 22  1  1
 21 20  1  0
 22 23  1  0
 23 24  1  0
 24 28  1  0
 25 24  2  0
 26 27  1  0
 26 21  1  0
 29 26  2  0
M  END
$$$$
