YPE.pdb
     RDKit          3D

 29 30  0  0  1  0  0  0  0  0999 V2000
    8.0997  -13.9217   14.2272 O   0  0  0  0  0  0  0  0  0  0  0  0
    8.3799  -14.2414   15.5475 C   0  0  0  0  0  0  0  0  0  0  0  0
    8.9356  -13.3242   16.3912 C   0  0  0  0  0  0  0  0  0  0  0  0
    9.1951  -13.6848   17.6873 C   0  0  0  0  0  0  0  0  0  0  0  0
    8.9178  -14.9532   18.1942 C   0  0  0  0  0  0  0  0  0  0  0  0
    9.2124  -15.3087   19.6046 C   0  0  0  0  0  0  0  0  0  0  0  0
    9.8828  -14.1210   20.3164 C   0  0  2  0  0  0  0  0  0  0  0  0
   11.1274  -13.7931   19.6304 N   0  0  0  0  0  0  0  0  0  0  0  0
   10.1245  -14.4414   21.7406 C   0  0  0  0  0  0  0  0  0  0  0  0
   11.3414  -14.6079   22.1038 O   0  0  0  0  0  0  0  0  0  0  0  0
    8.3573  -15.8745   17.3394 C   0  0  0  0  0  0  0  0  0  0  0  0
    8.0987  -15.5028   16.0328 C   0  0  0  0  0  0  0  0  0  0  0  0
    9.0583  -14.5588   22.6650 N   0  0  0  0  0  0  0  0  0  0  0  0
    7.6307  -14.5070   22.4864 C   0  0  0  0  0  0  0  0  0  0  0  0
    7.2345  -13.5281   23.6075 C   0  0  0  0  0  0  0  0  0  0  0  0
    8.2563  -13.8044   24.6790 C   0  0  0  0  0  0  0  0  0  0  0  0
    9.2422  -14.7817   24.0850 C   0  0  1  0  0  0  0  0  0  0  0  0
    8.9697  -16.1800   24.4710 C   0  0  0  0  0  0  0  0  0  0  0  0
    7.9678  -16.7745   24.0214 O   0  0  0  0  0  0  0  0  0  0  0  0
    9.8373  -16.8583   25.3508 N   0  0  0  0  0  0  0  0  0  0  0  0
    9.8724  -18.3070   25.4703 C   0  0  1  0  0  0  0  0  0  0  0  0
   11.0274  -18.8453   24.6717 C   0  0  0  0  0  0  0  0  0  0  0  0
   12.3513  -18.3846   25.2260 C   0  0  0  0  0  0  0  0  0  0  0  0
   13.4779  -18.9258   24.4395 C   0  0  0  0  0  0  0  0  0  0  0  0
   13.7717  -20.1471   24.5732 O   0  0  0  0  0  0  0  0  0  0  0  0
   10.0869  -18.6751   26.8983 C   0  0  0  0  0  0  0  0  0  0  0  0
   10.0586  -20.0000   27.2902 O   0  0  0  0  0  0  0  0  0  0  0  0
   14.2243  -18.1538   23.5641 O   0  0  0  0  0  0  0  0  0  0  0  0
   10.2947  -17.7786   27.7514 O   0  0  0  0  0  0  0  0  0  0  0  0
  2  1  1  0
  3  2  2  0
  4  3  1  0
  5  4  2  0
  5 11  1  0
  6  5  1  0
  7  6  1  0
  7  8  1  6
  9  7  1  0
 10  9  2  0
 11 12  2  0
 12  2  1  0
 13 14  1  0
 13  9  1  0
 15 14  1  0
 16 17  1  0
 16 15  1  0
 17 13  1  0
 17 18  1  6
 19 18  2  0
 20 18  1  0
 21 22  1  6
 21 20  1  0
 22 23  1  0
 23 24  1  0
 24 28  1  0
 25 24  2  0
 26 27  1  0
 26 21  1  0
 29 26  2  0
M  END
$$$$
