YPE.pdb
     RDKit          3D

 29 30  0  0  1  0  0  0  0  0999 V2000
    5.3251  -10.3358   28.0346 O   0  0  0  0  0  0  0  0  0  0  0  0
    5.9321  -11.3243   27.2741 C   0  0  0  0  0  0  0  0  0  0  0  0
    5.3058  -11.8600   26.1866 C   0  0  0  0  0  0  0  0  0  0  0  0
    5.9439  -12.8344   25.4651 C   0  0  0  0  0  0  0  0  0  0  0  0
    7.2130  -13.3119   25.7876 C   0  0  0  0  0  0  0  0  0  0  0  0
    7.8742  -14.3689   24.9825 C   0  0  0  0  0  0  0  0  0  0  0  0
    6.8356  -15.4081   24.5262 C   0  0  2  0  0  0  0  0  0  0  0  0
    6.5240  -16.2943   25.6418 N   0  0  0  0  0  0  0  0  0  0  0  0
    7.3427  -16.1692   23.3629 C   0  0  0  0  0  0  0  0  0  0  0  0
    7.1478  -17.4350   23.3629 O   0  0  0  0  0  0  0  0  0  0  0  0
    7.8405  -12.7684   26.8850 C   0  0  0  0  0  0  0  0  0  0  0  0
    7.1897  -11.7855   27.6081 C   0  0  0  0  0  0  0  0  0  0  0  0
    8.0141  -15.5281   22.2937 N   0  0  0  0  0  0  0  0  0  0  0  0
    8.3165  -14.1416   22.0513 C   0  0  0  0  0  0  0  0  0  0  0  0
    7.8516  -13.9955   20.5903 C   0  0  0  0  0  0  0  0  0  0  0  0
    8.1242  -15.3572   20.0073 C   0  0  0  0  0  0  0  0  0  0  0  0
    8.5727  -16.2296   21.1553 C   0  0  1  0  0  0  0  0  0  0  0  0
   10.0407  -16.3560   21.2424 C   0  0  0  0  0  0  0  0  0  0  0  0
   10.7799  -15.4985   20.7154 O   0  0  0  0  0  0  0  0  0  0  0  0
   10.6230  -17.4456   21.9209 N   0  0  0  0  0  0  0  0  0  0  0  0
   11.9719  -17.4135   22.4629 C   0  0  1  0  0  0  0  0  0  0  0  0
   12.0527  -18.3285   23.6537 C   0  0  0  0  0  0  0  0  0  0  0  0
   11.1053  -17.9055   24.7471 C   0  0  0  0  0  0  0  0  0  0  0  0
   11.1230  -18.8637   25.8706 C   0  0  0  0  0  0  0  0  0  0  0  0
   11.1549  -20.0985   25.6062 O   0  0  0  0  0  0  0  0  0  0  0  0
   12.9255  -17.9120   21.4319 C   0  0  0  0  0  0  0  0  0  0  0  0
   14.2888  -17.7990   21.6282 O   0  0  0  0  0  0  0  0  0  0  0  0
   11.1063  -18.4676   27.1981 O   0  0  0  0  0  0  0  0  0  0  0  0
   12.4903  -18.4377   20.3789 O   0  0  0  0  0  0  0  0  0  0  0  0
  2  1  1  0
  3  2  2  0
  4  3  1  0
  5  4  2  0
  5 11  1  0
  6  5  1  0
  7  6  1  0
  7  8  1  1
  9  7  1  0
 10  9  2  0
 11 12  2  0
 12  2  1  0
 13 14  1  0
 13  9  1  0
 15 14  1  0
 16 17  1  0
 16 15  1  0
 17 13  1  0
 17 18  1  1
 19 18  2  0
 20 18  1  0
 21 22  1  1
 21 20  1  0
 22 23  1  0
 23 24  1  0
 24 28  1  0
 25 24  2  0
 26 27  1  0
 26 21  1  0
 29 26  2  0
M  END
$$$$
