YPE.pdb
     RDKit          3D

 29 30  0  0  1  0  0  0  0  0999 V2000
    6.0591  -11.1698   28.7633 O   0  0  0  0  0  0  0  0  0  0  0  0
    6.4988  -11.9009   27.6697 C   0  0  0  0  0  0  0  0  0  0  0  0
    5.8659  -11.8134   26.4639 C   0  0  0  0  0  0  0  0  0  0  0  0
    6.3357  -12.5543   25.4114 C   0  0  0  0  0  0  0  0  0  0  0  0
    7.4380  -13.4015   25.5093 C   0  0  0  0  0  0  0  0  0  0  0  0
    7.9192  -14.1893   24.3473 C   0  0  0  0  0  0  0  0  0  0  0  0
    6.7986  -15.1124   23.8385 C   0  0  2  0  0  0  0  0  0  0  0  0
    6.5185  -16.1261   24.8490 N   0  0  0  0  0  0  0  0  0  0  0  0
    7.1836  -15.7315   22.5509 C   0  0  0  0  0  0  0  0  0  0  0  0
    6.9104  -16.9730   22.3946 O   0  0  0  0  0  0  0  0  0  0  0  0
    8.0728  -13.4861   26.7273 C   0  0  0  0  0  0  0  0  0  0  0  0
    7.5925  -12.7353   27.7846 C   0  0  0  0  0  0  0  0  0  0  0  0
    7.8258  -14.9857   21.5328 N   0  0  0  0  0  0  0  0  0  0  0  0
    8.2477  -13.6103   21.4795 C   0  0  0  0  0  0  0  0  0  0  0  0
    7.6801  -13.1867   20.1119 C   0  0  0  0  0  0  0  0  0  0  0  0
    7.7620  -14.4532   19.3009 C   0  0  0  0  0  0  0  0  0  0  0  0
    8.2126  -15.5378   20.2500 C   0  0  1  0  0  0  0  0  0  0  0  0
    9.6620  -15.8054   20.1712 C   0  0  0  0  0  0  0  0  0  0  0  0
   10.4831  -14.9561   20.5761 O   0  0  0  0  0  0  0  0  0  0  0  0
   10.1340  -17.0219   19.6380 N   0  0  0  0  0  0  0  0  0  0  0  0
   11.5108  -17.4681   19.7776 C   0  0  1  0  0  0  0  0  0  0  0  0
   11.5479  -18.7169   20.6146 C   0  0  0  0  0  0  0  0  0  0  0  0
   11.1348  -18.4459   22.0387 C   0  0  0  0  0  0  0  0  0  0  0  0
   11.1258  -19.6872   22.8385 C   0  0  0  0  0  0  0  0  0  0  0  0
   11.4120  -19.6125   24.0667 O   0  0  0  0  0  0  0  0  0  0  0  0
   12.0570  -17.7984   18.4309 C   0  0  0  0  0  0  0  0  0  0  0  0
   11.2181  -17.8706   17.3351 O   0  0  0  0  0  0  0  0  0  0  0  0
   10.8179  -20.9266   22.3013 O   0  0  0  0  0  0  0  0  0  0  0  0
   13.2853  -18.0125   18.2890 O   0  0  0  0  0  0  0  0  0  0  0  0
  2  1  1  0
  3  2  2  0
  4  3  1  0
  5  4  2  0
  5 11  1  0
  6  5  1  0
  7  6  1  0
  7  8  1  1
  9  7  1  0
 10  9  2  0
 11 12  2  0
 12  2  1  0
 13 14  1  0
 13  9  1  0
 15 14  1  0
 16 17  1  0
 16 15  1  0
 17 13  1  0
 17 18  1  1
 19 18  2  0
 20 18  1  0
 21 22  1  1
 21 20  1  0
 22 23  1  0
 23 24  1  0
 24 28  1  0
 25 24  2  0
 26 27  1  0
 26 21  1  0
 29 26  2  0
M  END
$$$$
