YPE.pdb
     RDKit          3D

 29 30  0  0  1  0  0  0  0  0999 V2000
    7.4688  -12.8641   27.6273 O   0  0  0  0  0  0  0  0  0  0  0  0
    7.1834  -13.0906   26.2889 C   0  0  0  0  0  0  0  0  0  0  0  0
    6.6147  -14.2611   25.8786 C   0  0  0  0  0  0  0  0  0  0  0  0
    6.3507  -14.4407   24.5462 C   0  0  0  0  0  0  0  0  0  0  0  0
    6.6358  -13.4796   23.5779 C   0  0  0  0  0  0  0  0  0  0  0  0
    6.3356  -13.7087   22.1426 C   0  0  0  0  0  0  0  0  0  0  0  0
    7.5726  -14.2860   21.4332 C   0  0  2  0  0  0  0  0  0  0  0  0
    7.2467  -14.5391   20.0343 N   0  0  0  0  0  0  0  0  0  0  0  0
    8.0267  -15.5213   22.1094 C   0  0  0  0  0  0  0  0  0  0  0  0
    7.3112  -16.5715   21.9501 O   0  0  0  0  0  0  0  0  0  0  0  0
    7.2091  -12.3009   23.9967 C   0  0  0  0  0  0  0  0  0  0  0  0
    7.4726  -12.1275   25.3431 C   0  0  0  0  0  0  0  0  0  0  0  0
    9.2020  -15.5447   22.8989 N   0  0  0  0  0  0  0  0  0  0  0  0
   10.0344  -14.4834   23.4024 C   0  0  0  0  0  0  0  0  0  0  0  0
   11.4310  -15.0006   23.0100 C   0  0  0  0  0  0  0  0  0  0  0  0
   11.2806  -16.4962   23.1054 C   0  0  0  0  0  0  0  0  0  0  0  0
    9.8211  -16.7599   23.3887 C   0  0  1  0  0  0  0  0  0  0  0  0
    9.5453  -16.9896   24.8204 C   0  0  0  0  0  0  0  0  0  0  0  0
    9.4657  -16.0253   25.6099 O   0  0  0  0  0  0  0  0  0  0  0  0
    9.3693  -18.2992   25.3109 N   0  0  0  0  0  0  0  0  0  0  0  0
    8.9357  -18.5861   26.6689 C   0  0  1  0  0  0  0  0  0  0  0  0
    7.9531  -19.7244   26.6486 C   0  0  0  0  0  0  0  0  0  0  0  0
    7.4556  -20.0560   28.0323 C   0  0  0  0  0  0  0  0  0  0  0  0
    6.4449  -21.1320   27.9937 C   0  0  0  0  0  0  0  0  0  0  0  0
    5.8279  -21.3378   26.9108 O   0  0  0  0  0  0  0  0  0  0  0  0
   10.1130  -19.0067   27.4799 C   0  0  0  0  0  0  0  0  0  0  0  0
   11.3255  -19.2658   26.8695 O   0  0  0  0  0  0  0  0  0  0  0  0
    6.1453  -21.9231   29.0910 O   0  0  0  0  0  0  0  0  0  0  0  0
   10.0051  -19.1267   28.7244 O   0  0  0  0  0  0  0  0  0  0  0  0
  2  1  1  0
  3  2  2  0
  4  3  1  0
  5  4  2  0
  5 11  1  0
  6  5  1  0
  7  6  1  0
  7  8  1  6
  9  7  1  0
 10  9  2  0
 11 12  2  0
 12  2  1  0
 13 14  1  0
 13  9  1  0
 15 14  1  0
 16 17  1  0
 16 15  1  0
 17 13  1  0
 17 18  1  1
 19 18  2  0
 20 18  1  0
 21 22  1  6
 21 20  1  0
 22 23  1  0
 23 24  1  0
 24 28  1  0
 25 24  2  0
 26 27  1  0
 26 21  1  0
 29 26  2  0
M  END
$$$$
