ENT.pdb
     RDKit          3D

 25 24  0  0  1  0  0  0  0  0999 V2000
   12.8878  -10.5315   -9.8951 N   0  0  0  0  0  0  0  0  0  0  0  0
   14.2611  -10.1970  -10.0375 C   0  0  1  0  0  0  0  0  0  0  0  0
   15.0067  -10.7901  -11.1748 C   0  0  0  0  0  0  0  0  0  0  0  0
   15.2065  -12.2500  -11.1983 C   0  0  0  0  0  0  0  0  0  0  0  0
   15.9100  -12.7187  -12.4011 C   0  0  0  0  0  0  0  0  0  0  0  0
   17.1065  -12.5207  -12.7026 O   0  0  0  0  0  0  0  0  0  0  0  0
   14.3449   -8.6982  -10.1142 C   0  0  0  0  0  0  0  0  0  0  0  0
   13.4881   -8.0351  -10.7140 O   0  0  0  0  0  0  0  0  0  0  0  0
   15.2015  -13.4852  -13.3607 O   0  0  0  0  0  0  0  0  0  0  0  0
   13.2190   -6.1365   -8.0301 N   0  0  0  0  0  0  0  0  0  0  0  0
   14.4950   -5.8376   -7.4646 C   0  0  0  0  0  0  0  0  0  0  0  0
   14.4740   -5.4503   -6.2691 O   0  0  0  0  0  0  0  0  0  0  0  0
   15.7529   -5.9762   -8.2384 C   0  0  0  0  0  0  0  0  0  0  0  0
   15.5701   -6.5504   -9.5847 C   0  0  2  0  0  0  0  0  0  0  0  0
   15.4107   -7.9811   -9.5015 N   0  0  0  0  0  0  0  0  0  0  0  0
   16.5504   -6.1335  -10.5967 C   0  0  0  0  0  0  0  0  0  0  0  0
   17.7536   -6.4524  -10.4092 O   0  0  0  0  0  0  0  0  0  0  0  0
   16.9418   -6.8896  -14.2895 C   0  0  0  0  0  0  0  0  0  0  0  0
   16.7674   -5.3706  -14.1545 C   0  0  1  0  0  0  0  0  0  0  0  0
   15.3933   -5.1445  -14.3481 O   0  0  0  0  0  0  0  0  0  0  0  0
   17.1546   -5.0058  -12.7727 C   0  0  2  0  0  0  0  0  0  0  0  0
   16.2360   -5.4088  -11.7494 N   0  0  0  0  0  0  0  0  0  0  0  0
   17.4132   -3.5402  -12.6747 C   0  0  0  0  0  0  0  0  0  0  0  0
   18.4571   -2.9261  -13.3490 O   0  0  0  0  0  0  0  0  0  0  0  0
   16.6788   -2.7992  -11.9635 O   0  0  0  0  0  0  0  0  0  0  0  0
  2  7  1  0
  2  1  1  6
  3  2  1  0
  4  3  1  0
  5  6  2  0
  5  4  1  0
  7  8  2  0
  9  5  1  0
 10 11  1  0
 11 12  2  0
 14 13  1  1
 13 11  1  0
 15 14  1  0
 15  7  1  0
 16 17  2  0
 16 14  1  0
 19 18  1  1
 19 21  1  0
 20 19  1  0
 21 23  1  0
 21 22  1  1
 22 16  1  0
 23 24  1  0
 25 23  2  0
M  END
$$$$
