ENT.pdb
     RDKit          3D

 25 24  0  0  1  0  0  0  0  0999 V2000
   17.5038  -12.7645  -16.0792 N   0  0  0  0  0  0  0  0  0  0  0  0
   17.3484  -11.3531  -16.0321 C   0  0  1  0  0  0  0  0  0  0  0  0
   16.4994  -10.7829  -14.9572 C   0  0  0  0  0  0  0  0  0  0  0  0
   15.0785  -11.1705  -14.9048 C   0  0  0  0  0  0  0  0  0  0  0  0
   14.8721  -12.5533  -14.4503 C   0  0  0  0  0  0  0  0  0  0  0  0
   15.2631  -13.0633  -13.3786 O   0  0  0  0  0  0  0  0  0  0  0  0
   18.7267  -10.7597  -15.9460 C   0  0  0  0  0  0  0  0  0  0  0  0
   19.6281  -11.3151  -15.3035 O   0  0  0  0  0  0  0  0  0  0  0  0
   14.1563  -13.4531  -15.2799 O   0  0  0  0  0  0  0  0  0  0  0  0
   22.8752   -7.8907  -19.1059 N   0  0  0  0  0  0  0  0  0  0  0  0
   22.4061   -8.6015  -17.9606 C   0  0  0  0  0  0  0  0  0  0  0  0
   23.2366   -8.7174  -17.0244 O   0  0  0  0  0  0  0  0  0  0  0  0
   21.0344   -9.1613  -17.8866 C   0  0  0  0  0  0  0  0  0  0  0  0
   20.3664   -8.9454  -16.5894 C   0  0  2  0  0  0  0  0  0  0  0  0
   19.0515   -9.5373  -16.5985 N   0  0  0  0  0  0  0  0  0  0  0  0
   20.3780   -7.5652  -16.0855 C   0  0  0  0  0  0  0  0  0  0  0  0
   19.6990   -6.7101  -16.7118 O   0  0  0  0  0  0  0  0  0  0  0  0
   19.8066   -6.2468  -12.4932 C   0  0  0  0  0  0  0  0  0  0  0  0
   21.1428   -5.6723  -12.9838 C   0  0  1  0  0  0  0  0  0  0  0  0
   22.1252   -6.5012  -12.4139 O   0  0  0  0  0  0  0  0  0  0  0  0
   21.1602   -5.8006  -14.4587 C   0  0  2  0  0  0  0  0  0  0  0  0
   21.0908   -7.1409  -14.9609 N   0  0  0  0  0  0  0  0  0  0  0  0
   22.3515   -5.1063  -15.0272 C   0  0  0  0  0  0  0  0  0  0  0  0
   22.5965   -3.7592  -14.8104 O   0  0  0  0  0  0  0  0  0  0  0  0
   23.1888   -5.7319  -15.7356 O   0  0  0  0  0  0  0  0  0  0  0  0
  2  7  1  0
  2  1  1  1
  3  2  1  0
  4  3  1  0
  5  6  2  0
  5  4  1  0
  7  8  2  0
  9  5  1  0
 10 11  1  0
 11 12  2  0
 14 13  1  6
 13 11  1  0
 15 14  1  0
 15  7  1  0
 16 17  2  0
 16 14  1  0
 19 18  1  1
 19 21  1  0
 20 19  1  0
 21 23  1  0
 21 22  1  1
 22 16  1  0
 23 24  1  0
 25 23  2  0
M  END
$$$$
