ENT.pdb
     RDKit          3D

 25 24  0  0  1  0  0  0  0  0999 V2000
   22.7861  -11.0546  -16.5281 N   0  0  0  0  0  0  0  0  0  0  0  0
   22.0513  -10.0369  -17.1934 C   0  0  1  0  0  0  0  0  0  0  0  0
   20.8251  -10.4328  -17.9289 C   0  0  0  0  0  0  0  0  0  0  0  0
   20.9639  -11.3117  -19.1037 C   0  0  0  0  0  0  0  0  0  0  0  0
   19.6734  -11.7069  -19.6866 C   0  0  0  0  0  0  0  0  0  0  0  0
   18.8992  -10.9955  -20.3618 O   0  0  0  0  0  0  0  0  0  0  0  0
   21.7016   -8.9995  -16.1635 C   0  0  0  0  0  0  0  0  0  0  0  0
   21.2193   -9.3168  -15.0678 O   0  0  0  0  0  0  0  0  0  0  0  0
   19.2050  -13.0310  -19.4930 O   0  0  0  0  0  0  0  0  0  0  0  0
   21.8262   -4.9591  -12.7669 N   0  0  0  0  0  0  0  0  0  0  0  0
   22.5251   -4.8151  -14.0031 C   0  0  0  0  0  0  0  0  0  0  0  0
   22.9032   -3.6471  -14.2721 O   0  0  0  0  0  0  0  0  0  0  0  0
   22.7836   -5.9664  -14.9020 C   0  0  0  0  0  0  0  0  0  0  0  0
   21.5640   -6.5720  -15.4687 C   0  0  2  0  0  0  0  0  0  0  0  0
   21.9101   -7.6126  -16.4051 N   0  0  0  0  0  0  0  0  0  0  0  0
   20.5650   -5.6298  -15.9914 C   0  0  0  0  0  0  0  0  0  0  0  0
   20.8836   -4.9393  -16.9946 O   0  0  0  0  0  0  0  0  0  0  0  0
   16.9265   -6.2073  -17.0419 C   0  0  0  0  0  0  0  0  0  0  0  0
   16.9152   -5.0843  -15.9956 C   0  0  1  0  0  0  0  0  0  0  0  0
   16.5811   -5.7186  -14.7861 O   0  0  0  0  0  0  0  0  0  0  0  0
   18.2897   -4.5388  -15.9227 C   0  0  2  0  0  0  0  0  0  0  0  0
   19.2894   -5.4503  -15.4500 N   0  0  0  0  0  0  0  0  0  0  0  0
   18.3119   -3.2918  -15.1049 C   0  0  0  0  0  0  0  0  0  0  0  0
   17.5798   -2.1667  -15.4510 O   0  0  0  0  0  0  0  0  0  0  0  0
   19.0087   -3.2185  -14.0546 O   0  0  0  0  0  0  0  0  0  0  0  0
  2  7  1  0
  2  1  1  1
  3  2  1  0
  4  3  1  0
  5  6  2  0
  5  4  1  0
  7  8  2  0
  9  5  1  0
 10 11  1  0
 11 12  2  0
 14 13  1  6
 13 11  1  0
 15 14  1  0
 15  7  1  0
 16 17  2  0
 16 14  1  0
 19 18  1  6
 19 21  1  0
 20 19  1  0
 21 23  1  0
 21 22  1  1
 22 16  1  0
 23 24  1  0
 25 23  2  0
M  END
$$$$
