ENT.pdb
     RDKit          3D

 25 24  0  0  1  0  0  0  0  0999 V2000
   17.5079  -11.4374  -17.7343 N   0  0  0  0  0  0  0  0  0  0  0  0
   16.8613  -11.0796  -16.5210 C   0  0  1  0  0  0  0  0  0  0  0  0
   16.4456  -12.1717  -15.6067 C   0  0  0  0  0  0  0  0  0  0  0  0
   15.6698  -13.2950  -16.1619 C   0  0  0  0  0  0  0  0  0  0  0  0
   15.2822  -14.2873  -15.1488 C   0  0  0  0  0  0  0  0  0  0  0  0
   14.1455  -14.7711  -14.9603 O   0  0  0  0  0  0  0  0  0  0  0  0
   17.7807  -10.1412  -15.7906 C   0  0  0  0  0  0  0  0  0  0  0  0
   17.4468   -9.6157  -14.7201 O   0  0  0  0  0  0  0  0  0  0  0  0
   16.2668  -14.7864  -14.2591 O   0  0  0  0  0  0  0  0  0  0  0  0
   22.1002   -7.4864  -14.3660 N   0  0  0  0  0  0  0  0  0  0  0  0
   22.3075   -8.8609  -14.6901 C   0  0  0  0  0  0  0  0  0  0  0  0
   23.4158   -9.3344  -14.3336 O   0  0  0  0  0  0  0  0  0  0  0  0
   21.2835   -9.6678  -15.3977 C   0  0  0  0  0  0  0  0  0  0  0  0
   20.0097   -8.9589  -15.6224 C   0  0  2  0  0  0  0  0  0  0  0  0
   19.0704   -9.8190  -16.2988 N   0  0  0  0  0  0  0  0  0  0  0  0
   20.1179   -7.6258  -16.2306 C   0  0  0  0  0  0  0  0  0  0  0  0
   20.6310   -7.5480  -17.3774 O   0  0  0  0  0  0  0  0  0  0  0  0
   17.3748   -5.3157  -17.0049 C   0  0  0  0  0  0  0  0  0  0  0  0
   18.3560   -4.4540  -16.1982 C   0  0  1  0  0  0  0  0  0  0  0  0
   17.8391   -4.4431  -14.8907 O   0  0  0  0  0  0  0  0  0  0  0  0
   19.6667   -5.1422  -16.2228 C   0  0  2  0  0  0  0  0  0  0  0  0
   19.6903   -6.4429  -15.6218 N   0  0  0  0  0  0  0  0  0  0  0  0
   20.7183   -4.2803  -15.6100 C   0  0  0  0  0  0  0  0  0  0  0  0
   20.9844   -2.9990  -16.0672 O   0  0  0  0  0  0  0  0  0  0  0  0
   21.4116   -4.6955  -14.6398 O   0  0  0  0  0  0  0  0  0  0  0  0
  2  7  1  0
  2  1  1  6
  3  2  1  0
  4  3  1  0
  5  6  2  0
  5  4  1  0
  7  8  2  0
  9  5  1  0
 10 11  1  0
 11 12  2  0
 14 13  1  6
 13 11  1  0
 15 14  1  0
 15  7  1  0
 16 17  2  0
 16 14  1  0
 19 18  1  6
 19 21  1  0
 20 19  1  0
 21 23  1  0
 21 22  1  1
 22 16  1  0
 23 24  1  0
 25 23  2  0
M  END
$$$$
