ENT.pdb
     RDKit          3D

 25 24  0  0  1  0  0  0  0  0999 V2000
   15.2595   -9.9734  -15.0793 N   0  0  0  0  0  0  0  0  0  0  0  0
   16.4120  -10.1847  -14.2759 C   0  0  1  0  0  0  0  0  0  0  0  0
   17.6029  -10.7955  -14.9160 C   0  0  0  0  0  0  0  0  0  0  0  0
   17.4865  -12.1616  -15.4564 C   0  0  0  0  0  0  0  0  0  0  0  0
   18.7118  -12.6270  -16.1222 C   0  0  0  0  0  0  0  0  0  0  0  0
   18.9259  -12.6935  -17.3515 O   0  0  0  0  0  0  0  0  0  0  0  0
   16.7899   -8.8543  -13.6873 C   0  0  0  0  0  0  0  0  0  0  0  0
   16.5316   -7.7941  -14.2730 O   0  0  0  0  0  0  0  0  0  0  0  0
   19.8053  -13.0609  -15.3307 O   0  0  0  0  0  0  0  0  0  0  0  0
   18.7382   -5.2464  -10.3496 N   0  0  0  0  0  0  0  0  0  0  0  0
   17.8972   -6.2181   -9.7286 C   0  0  0  0  0  0  0  0  0  0  0  0
   17.6051   -5.9857   -8.5285 O   0  0  0  0  0  0  0  0  0  0  0  0
   17.4060   -7.4153  -10.4538 C   0  0  0  0  0  0  0  0  0  0  0  0
   17.8874   -7.5150  -11.8444 C   0  0  2  0  0  0  0  0  0  0  0  0
   17.4588   -8.7589  -12.4347 N   0  0  0  0  0  0  0  0  0  0  0  0
   19.3158   -7.2376  -12.0485 C   0  0  0  0  0  0  0  0  0  0  0  0
   20.1403   -7.8741  -11.3416 O   0  0  0  0  0  0  0  0  0  0  0  0
   21.6609   -8.0932  -14.4457 C   0  0  0  0  0  0  0  0  0  0  0  0
   21.7232   -6.5611  -14.5139 C   0  0  1  0  0  0  0  0  0  0  0  0
   20.8589   -6.2093  -15.5656 O   0  0  0  0  0  0  0  0  0  0  0  0
   21.2004   -6.0433  -13.2291 C   0  0  2  0  0  0  0  0  0  0  0  0
   19.8174   -6.3169  -12.9723 N   0  0  0  0  0  0  0  0  0  0  0  0
   21.4581   -4.5787  -13.1150 C   0  0  0  0  0  0  0  0  0  0  0  0
   22.7403   -4.0525  -13.0907 O   0  0  0  0  0  0  0  0  0  0  0  0
   20.5025   -3.7573  -13.0356 O   0  0  0  0  0  0  0  0  0  0  0  0
  2  7  1  0
  2  1  1  6
  3  2  1  0
  4  3  1  0
  5  6  2  0
  5  4  1  0
  7  8  2  0
  9  5  1  0
 10 11  1  0
 11 12  2  0
 14 13  1  1
 13 11  1  0
 15 14  1  0
 15  7  1  0
 16 17  2  0
 16 14  1  0
 19 18  1  1
 19 21  1  0
 20 19  1  0
 21 23  1  0
 21 22  1  6
 22 16  1  0
 23 24  1  0
 25 23  2  0
M  END
$$$$
