ENT.pdb
     RDKit          3D

 25 24  0  0  1  0  0  0  0  0999 V2000
   20.1229  -12.7204  -16.9113 N   0  0  0  0  0  0  0  0  0  0  0  0
   19.4146  -11.5275  -16.6054 C   0  0  1  0  0  0  0  0  0  0  0  0
   17.9922  -11.6481  -16.2009 C   0  0  0  0  0  0  0  0  0  0  0  0
   17.0778  -12.4115  -17.0686 C   0  0  0  0  0  0  0  0  0  0  0  0
   16.2544  -13.3808  -16.3311 C   0  0  0  0  0  0  0  0  0  0  0  0
   16.1191  -14.5988  -16.5757 O   0  0  0  0  0  0  0  0  0  0  0  0
   20.1827  -10.8232  -15.5223 C   0  0  0  0  0  0  0  0  0  0  0  0
   20.3198  -11.3260  -14.3988 O   0  0  0  0  0  0  0  0  0  0  0  0
   15.5091  -12.9405  -15.2082 O   0  0  0  0  0  0  0  0  0  0  0  0
   23.2175  -10.0503  -16.6793 N   0  0  0  0  0  0  0  0  0  0  0  0
   23.5260  -10.1819  -15.2919 C   0  0  0  0  0  0  0  0  0  0  0  0
   24.6006  -10.7815  -15.0363 O   0  0  0  0  0  0  0  0  0  0  0  0
   22.6371   -9.6467  -14.2318 C   0  0  0  0  0  0  0  0  0  0  0  0
   21.5220   -8.8259  -14.7403 C   0  0  2  0  0  0  0  0  0  0  0  0
   20.7828   -9.5518  -15.7433 N   0  0  0  0  0  0  0  0  0  0  0  0
   21.8693   -7.4587  -15.1513 C   0  0  0  0  0  0  0  0  0  0  0  0
   22.6099   -7.3236  -16.1603 O   0  0  0  0  0  0  0  0  0  0  0  0
   19.8328   -4.9307  -16.5288 C   0  0  0  0  0  0  0  0  0  0  0  0
   20.4431   -4.2033  -15.3228 C   0  0  1  0  0  0  0  0  0  0  0  0
   19.4677   -4.2917  -14.3141 O   0  0  0  0  0  0  0  0  0  0  0  0
   21.6564   -4.9535  -14.9262 C   0  0  2  0  0  0  0  0  0  0  0  0
   21.4333   -6.3028  -14.4983 N   0  0  0  0  0  0  0  0  0  0  0  0
   22.4107   -4.2066  -13.8787 C   0  0  0  0  0  0  0  0  0  0  0  0
   22.8804   -2.9183  -14.0818 O   0  0  0  0  0  0  0  0  0  0  0  0
   22.6501   -4.7308  -12.7553 O   0  0  0  0  0  0  0  0  0  0  0  0
  2  7  1  0
  2  1  1  1
  3  2  1  0
  4  3  1  0
  5  6  2  0
  5  4  1  0
  7  8  2  0
  9  5  1  0
 10 11  1  0
 11 12  2  0
 14 13  1  6
 13 11  1  0
 15 14  1  0
 15  7  1  0
 16 17  2  0
 16 14  1  0
 19 18  1  6
 19 21  1  0
 20 19  1  0
 21 23  1  0
 21 22  1  1
 22 16  1  0
 23 24  1  0
 25 23  2  0
M  END
$$$$
