KFP.pdb
     RDKit          3D

 28 29  0  0  1  0  0  0  0  0999 V2000
   11.2744  -16.7938   20.5367 N   0  0  0  0  0  0  0  0  0  0  0  0
   10.1275  -17.2792   21.3037 C   0  0  1  0  0  0  0  0  0  0  0  0
   10.4953  -18.6727   21.7557 C   0  0  0  0  0  0  0  0  0  0  0  0
   10.6892  -19.6440   20.6321 C   0  0  0  0  0  0  0  0  0  0  0  0
   10.7191  -21.0393   21.2514 C   0  0  0  0  0  0  0  0  0  0  0  0
    9.7733  -21.9528   20.5056 C   0  0  0  0  0  0  0  0  0  0  0  0
   10.4268  -22.4232   19.3133 N   0  0  0  0  0  0  0  0  0  0  0  0
    9.9327  -16.3597   22.4405 C   0  0  0  0  0  0  0  0  0  0  0  0
   10.9242  -15.7797   22.9900 O   0  0  0  0  0  0  0  0  0  0  0  0
    8.6398  -16.0548   23.0018 N   0  0  0  0  0  0  0  0  0  0  0  0
    8.4844  -15.1769   24.1144 C   0  0  1  0  0  0  0  0  0  0  0  0
    7.1209  -14.5108   24.1470 C   0  0  0  0  0  0  0  0  0  0  0  0
    7.0028  -13.5238   25.2397 C   0  0  0  0  0  0  0  0  0  0  0  0
    7.5508  -12.2625   25.1803 C   0  0  0  0  0  0  0  0  0  0  0  0
    7.4216  -11.3585   26.2250 C   0  0  0  0  0  0  0  0  0  0  0  0
    6.7324  -11.6999   27.3677 C   0  0  0  0  0  0  0  0  0  0  0  0
    6.1807  -12.9568   27.4387 C   0  0  0  0  0  0  0  0  0  0  0  0
    6.3204  -13.8372   26.3924 C   0  0  0  0  0  0  0  0  0  0  0  0
    8.8812  -15.6891   25.4304 C   0  0  0  0  0  0  0  0  0  0  0  0
    8.4902  -16.9010   25.6708 O   0  0  0  0  0  0  0  0  0  0  0  0
    9.6090  -15.0628   26.4497 N   0  0  0  0  0  0  0  0  0  0  0  0
    9.9050  -13.6722   26.5962 C   0  0  0  0  0  0  0  0  0  0  0  0
   11.1267  -13.6658   27.5311 C   0  0  0  0  0  0  0  0  0  0  0  0
   10.7382  -14.7374   28.5185 C   0  0  0  0  0  0  0  0  0  0  0  0
   10.1868  -15.7978   27.5882 C   0  0  1  0  0  0  0  0  0  0  0  0
    9.1723  -16.5801   28.3016 C   0  0  0  0  0  0  0  0  0  0  0  0
    7.9772  -16.5544   27.9591 O   0  0  0  0  0  0  0  0  0  0  0  0
    9.5569  -17.3601   29.3756 O   0  0  0  0  0  0  0  0  0  0  0  0
  2  1  1  6
  2  3  1  0
  4  5  1  0
  4  3  1  0
  6  5  1  0
  7  6  1  0
  8  9  2  0
  8  2  1  0
 10  8  1  0
 11 10  1  0
 12 13  1  0
 11 12  1  1
 13 14  2  0
 14 15  1  0
 16 15  2  0
 17 16  1  0
 18 13  1  0
 18 17  2  0
 19 20  2  0
 19 11  1  0
 21 19  1  0
 22 21  1  0
 23 24  1  0
 23 22  1  0
 24 25  1  0
 25 21  1  0
 25 26  1  1
 27 26  2  0
 28 26  1  0
M  END
$$$$
