KFP.pdb
     RDKit          3D

 28 29  0  0  1  0  0  0  0  0999 V2000
   11.4123  -16.3329   20.3001 N   0  0  0  0  0  0  0  0  0  0  0  0
   10.5555  -17.0746   21.2248 C   0  0  1  0  0  0  0  0  0  0  0  0
   11.3574  -18.2819   21.6499 C   0  0  0  0  0  0  0  0  0  0  0  0
   10.5479  -19.3358   22.3410 C   0  0  0  0  0  0  0  0  0  0  0  0
   11.4633  -20.5421   22.5364 C   0  0  0  0  0  0  0  0  0  0  0  0
   10.7315  -21.6245   23.2968 C   0  0  0  0  0  0  0  0  0  0  0  0
   11.6252  -22.7335   23.4999 N   0  0  0  0  0  0  0  0  0  0  0  0
   10.2507  -16.1827   22.3595 C   0  0  0  0  0  0  0  0  0  0  0  0
   11.1698  -15.5083   22.9266 O   0  0  0  0  0  0  0  0  0  0  0  0
    8.9245  -16.0101   22.8990 N   0  0  0  0  0  0  0  0  0  0  0  0
    8.6619  -15.1484   24.0040 C   0  0  1  0  0  0  0  0  0  0  0  0
    7.3070  -14.4710   23.9076 C   0  0  0  0  0  0  0  0  0  0  0  0
    7.0924  -13.4857   24.9871 C   0  0  0  0  0  0  0  0  0  0  0  0
    7.5753  -12.1975   24.9404 C   0  0  0  0  0  0  0  0  0  0  0  0
    7.3559  -11.2959   25.9720 C   0  0  0  0  0  0  0  0  0  0  0  0
    6.6392  -11.6670   27.0882 C   0  0  0  0  0  0  0  0  0  0  0  0
    6.1519  -12.9509   27.1463 C   0  0  0  0  0  0  0  0  0  0  0  0
    6.3806  -13.8284   26.1133 C   0  0  0  0  0  0  0  0  0  0  0  0
    8.9179  -15.6843   25.3452 C   0  0  0  0  0  0  0  0  0  0  0  0
    8.5226  -16.9067   25.5152 O   0  0  0  0  0  0  0  0  0  0  0  0
    9.5173  -15.0710   26.4522 N   0  0  0  0  0  0  0  0  0  0  0  0
    9.7176  -13.6753   26.6867 C   0  0  0  0  0  0  0  0  0  0  0  0
   10.8518  -13.6491   27.7258 C   0  0  0  0  0  0  0  0  0  0  0  0
   10.4430  -14.7881   28.6257 C   0  0  0  0  0  0  0  0  0  0  0  0
   10.0369  -15.8292   27.6034 C   0  0  1  0  0  0  0  0  0  0  0  0
    9.0122  -16.7001   28.1881 C   0  0  0  0  0  0  0  0  0  0  0  0
    7.8220  -16.6246   27.8360 O   0  0  0  0  0  0  0  0  0  0  0  0
    9.3815  -17.6217   29.1493 O   0  0  0  0  0  0  0  0  0  0  0  0
  2  1  1  6
  2  3  1  0
  4  5  1  0
  4  3  1  0
  6  5  1  0
  7  6  1  0
  8  9  2  0
  8  2  1  0
 10  8  1  0
 11 10  1  0
 12 13  1  0
 11 12  1  1
 13 14  2  0
 14 15  1  0
 16 15  2  0
 17 16  1  0
 18 13  1  0
 18 17  2  0
 19 20  2  0
 19 11  1  0
 21 19  1  0
 22 21  1  0
 23 24  1  0
 23 22  1  0
 24 25  1  0
 25 21  1  0
 25 26  1  1
 27 26  2  0
 28 26  1  0
M  END
$$$$
