KFP.pdb
     RDKit          3D

 28 29  0  0  1  0  0  0  0  0999 V2000
   10.9476  -16.1205   19.9895 N   0  0  0  0  0  0  0  0  0  0  0  0
   10.6125  -16.9918   21.1155 C   0  0  1  0  0  0  0  0  0  0  0  0
   11.8333  -17.8499   21.3488 C   0  0  0  0  0  0  0  0  0  0  0  0
   11.6324  -18.9263   22.3710 C   0  0  0  0  0  0  0  0  0  0  0  0
   11.2663  -20.1984   21.6101 C   0  0  0  0  0  0  0  0  0  0  0  0
   11.9279  -21.3932   22.2585 C   0  0  0  0  0  0  0  0  0  0  0  0
   11.4618  -22.5899   21.6100 N   0  0  0  0  0  0  0  0  0  0  0  0
   10.3123  -16.1267   22.2719 C   0  0  0  0  0  0  0  0  0  0  0  0
   11.1286  -15.2219   22.6413 O   0  0  0  0  0  0  0  0  0  0  0  0
    9.1042  -16.2356   23.0518 N   0  0  0  0  0  0  0  0  0  0  0  0
    8.8019  -15.3307   24.1113 C   0  0  1  0  0  0  0  0  0  0  0  0
    7.3951  -14.7687   24.0160 C   0  0  0  0  0  0  0  0  0  0  0  0
    7.1184  -13.7640   25.0629 C   0  0  0  0  0  0  0  0  0  0  0  0
    6.4133  -14.0449   26.2113 C   0  0  0  0  0  0  0  0  0  0  0  0
    6.1704  -13.0776   27.1759 C   0  0  0  0  0  0  0  0  0  0  0  0
    6.6332  -11.7906   27.0118 C   0  0  0  0  0  0  0  0  0  0  0  0
    7.3386  -11.4981   25.8690 C   0  0  0  0  0  0  0  0  0  0  0  0
    7.5682  -12.4712   24.9258 C   0  0  0  0  0  0  0  0  0  0  0  0
    9.1340  -15.7616   25.4735 C   0  0  0  0  0  0  0  0  0  0  0  0
    8.8526  -17.0016   25.7240 O   0  0  0  0  0  0  0  0  0  0  0  0
    9.7008  -15.0335   26.5268 N   0  0  0  0  0  0  0  0  0  0  0  0
    9.7641  -13.6143   26.6849 C   0  0  0  0  0  0  0  0  0  0  0  0
   10.9208  -13.4192   27.6803 C   0  0  0  0  0  0  0  0  0  0  0  0
   10.6586  -14.5446   28.6493 C   0  0  0  0  0  0  0  0  0  0  0  0
   10.3304  -15.6738   27.6947 C   0  0  1  0  0  0  0  0  0  0  0  0
    9.4187  -16.6115   28.3578 C   0  0  0  0  0  0  0  0  0  0  0  0
    9.8024  -17.3323   29.2957 O   0  0  0  0  0  0  0  0  0  0  0  0
    8.1077  -16.6924   27.9284 O   0  0  0  0  0  0  0  0  0  0  0  0
  2  1  1  6
  2  3  1  0
  4  5  1  0
  4  3  1  0
  6  5  1  0
  7  6  1  0
  8  9  2  0
  8  2  1  0
 10  8  1  0
 11 10  1  0
 12 13  1  0
 11 12  1  1
 13 14  2  0
 14 15  1  0
 16 15  2  0
 17 16  1  0
 18 13  1  0
 18 17  2  0
 19 20  2  0
 19 11  1  0
 21 19  1  0
 22 21  1  0
 23 24  1  0
 23 22  1  0
 24 25  1  0
 25 21  1  0
 25 26  1  1
 27 26  2  0
 28 26  1  0
M  END
$$$$
