KFP.pdb
     RDKit          3D

 28 29  0  0  1  0  0  0  0  0999 V2000
    7.9931  -13.2370   18.6377 N   0  0  0  0  0  0  0  0  0  0  0  0
    7.7205  -14.5074   19.3091 C   0  0  1  0  0  0  0  0  0  0  0  0
    8.5751  -15.5355   18.6063 C   0  0  0  0  0  0  0  0  0  0  0  0
    8.1733  -16.9515   18.8845 C   0  0  0  0  0  0  0  0  0  0  0  0
    7.4324  -17.4540   17.6477 C   0  0  0  0  0  0  0  0  0  0  0  0
    7.0799  -18.9142   17.8180 C   0  0  0  0  0  0  0  0  0  0  0  0
    6.2346  -19.3175   16.7259 N   0  0  0  0  0  0  0  0  0  0  0  0
    8.0952  -14.3492   20.7270 C   0  0  0  0  0  0  0  0  0  0  0  0
    9.1760  -13.7621   21.0564 O   0  0  0  0  0  0  0  0  0  0  0  0
    7.2882  -14.8336   21.8197 N   0  0  0  0  0  0  0  0  0  0  0  0
    7.5534  -14.4765   23.1742 C   0  0  1  0  0  0  0  0  0  0  0  0
    6.3955  -13.7386   23.8213 C   0  0  0  0  0  0  0  0  0  0  0  0
    6.7266  -13.2486   25.1749 C   0  0  0  0  0  0  0  0  0  0  0  0
    7.5369  -12.1602   25.4066 C   0  0  0  0  0  0  0  0  0  0  0  0
    7.8285  -11.7253   26.6916 C   0  0  0  0  0  0  0  0  0  0  0  0
    7.3095  -12.3775   27.7882 C   0  0  0  0  0  0  0  0  0  0  0  0
    6.4989  -13.4657   27.5695 C   0  0  0  0  0  0  0  0  0  0  0  0
    6.2226  -13.8801   26.2883 C   0  0  0  0  0  0  0  0  0  0  0  0
    8.0995  -15.5217   24.0464 C   0  0  0  0  0  0  0  0  0  0  0  0
    7.2809  -16.4974   24.2862 O   0  0  0  0  0  0  0  0  0  0  0  0
    9.3598  -15.6123   24.6500 N   0  0  0  0  0  0  0  0  0  0  0  0
   10.4387  -14.6771   24.5849 C   0  0  0  0  0  0  0  0  0  0  0  0
   11.6680  -15.5273   24.9490 C   0  0  0  0  0  0  0  0  0  0  0  0
   11.1125  -16.3700   26.0695 C   0  0  0  0  0  0  0  0  0  0  0  0
    9.7598  -16.7460   25.5015 C   0  0  1  0  0  0  0  0  0  0  0  0
    8.8182  -16.9553   26.6059 C   0  0  0  0  0  0  0  0  0  0  0  0
    7.8695  -16.1760   26.8031 O   0  0  0  0  0  0  0  0  0  0  0  0
    8.9926  -18.0418   27.4418 O   0  0  0  0  0  0  0  0  0  0  0  0
  2  1  1  6
  2  3  1  0
  4  5  1  0
  4  3  1  0
  6  5  1  0
  7  6  1  0
  8  9  2  0
  8  2  1  0
 10  8  1  0
 11 10  1  0
 12 13  1  0
 11 12  1  1
 13 14  2  0
 14 15  1  0
 16 15  2  0
 17 16  1  0
 18 13  1  0
 18 17  2  0
 19 20  2  0
 19 11  1  0
 21 19  1  0
 22 21  1  0
 23 24  1  0
 23 22  1  0
 24 25  1  0
 25 21  1  0
 25 26  1  1
 27 26  2  0
 28 26  1  0
M  END
$$$$
