KFP.pdb
     RDKit          3D

 28 29  0  0  1  0  0  0  0  0999 V2000
    4.2816  -20.1023   23.1762 N   0  0  0  0  0  0  0  0  0  0  0  0
    5.6875  -19.8474   23.4892 C   0  0  1  0  0  0  0  0  0  0  0  0
    6.4702  -20.3380   22.2942 C   0  0  0  0  0  0  0  0  0  0  0  0
    6.2028  -21.7684   21.9391 C   0  0  0  0  0  0  0  0  0  0  0  0
    7.0993  -22.1059   20.7501 C   0  0  0  0  0  0  0  0  0  0  0  0
    6.8083  -23.5093   20.2693 C   0  0  0  0  0  0  0  0  0  0  0  0
    7.5720  -23.7581   19.0756 N   0  0  0  0  0  0  0  0  0  0  0  0
    5.8400  -18.3947   23.6947 C   0  0  0  0  0  0  0  0  0  0  0  0
    5.4747  -17.5656   22.8000 O   0  0  0  0  0  0  0  0  0  0  0  0
    6.3988  -17.8172   24.8921 N   0  0  0  0  0  0  0  0  0  0  0  0
    6.7744  -16.4439   24.9673 C   0  0  1  0  0  0  0  0  0  0  0  0
    6.8377  -15.9329   26.3952 C   0  0  0  0  0  0  0  0  0  0  0  0
    6.9398  -14.4608   26.4620 C   0  0  0  0  0  0  0  0  0  0  0  0
    8.1379  -13.7910   26.5646 C   0  0  0  0  0  0  0  0  0  0  0  0
    8.1993  -12.4061   26.6253 C   0  0  0  0  0  0  0  0  0  0  0  0
    7.0488  -11.6499   26.5842 C   0  0  0  0  0  0  0  0  0  0  0  0
    5.8462  -12.3074   26.4817 C   0  0  0  0  0  0  0  0  0  0  0  0
    5.8076  -13.6802   26.4230 C   0  0  0  0  0  0  0  0  0  0  0  0
    7.9377  -16.0249   24.1781 C   0  0  0  0  0  0  0  0  0  0  0  0
    9.0185  -16.6962   24.4240 O   0  0  0  0  0  0  0  0  0  0  0  0
    8.0451  -15.0158   23.2132 N   0  0  0  0  0  0  0  0  0  0  0  0
    7.1102  -13.9764   22.9153 C   0  0  0  0  0  0  0  0  0  0  0  0
    7.4921  -13.5542   21.4861 C   0  0  0  0  0  0  0  0  0  0  0  0
    8.9975  -13.5808   21.5716 C   0  0  0  0  0  0  0  0  0  0  0  0
    9.2183  -14.8706   22.3341 C   0  0  1  0  0  0  0  0  0  0  0  0
   10.4633  -14.7658   23.1018 C   0  0  0  0  0  0  0  0  0  0  0  0
   11.5657  -14.6654   22.5352 O   0  0  0  0  0  0  0  0  0  0  0  0
   10.4054  -14.7792   24.4824 O   0  0  0  0  0  0  0  0  0  0  0  0
  2  1  1  6
  2  3  1  0
  4  5  1  0
  4  3  1  0
  6  5  1  0
  7  6  1  0
  8  9  2  0
  8  2  1  0
 10  8  1  0
 11 10  1  0
 12 13  1  0
 11 12  1  1
 13 14  2  0
 14 15  1  0
 16 15  2  0
 17 16  1  0
 18 13  1  0
 18 17  2  0
 19 20  2  0
 19 11  1  0
 21 19  1  0
 22 21  1  0
 23 24  1  0
 23 22  1  0
 24 25  1  0
 25 21  1  0
 25 26  1  1
 27 26  2  0
 28 26  1  0
M  END
$$$$
