SHV.pdb
     RDKit          3D

 24 24  0  0  1  0  0  0  0  0999 V2000
   19.0326  -11.9005  -19.8321 O   0  0  0  0  0  0  0  0  0  0  0  0
   18.5945  -10.7439  -19.1620 C   0  0  0  0  0  0  0  0  0  0  0  0
   19.7860  -10.0512  -18.5170 C   0  0  2  0  0  0  0  0  0  0  0  0
   20.6847  -11.0569  -18.0401 N   0  0  0  0  0  0  0  0  0  0  0  0
   19.3191   -9.1276  -17.4475 C   0  0  0  0  0  0  0  0  0  0  0  0
   18.5350   -8.2122  -17.7474 O   0  0  0  0  0  0  0  0  0  0  0  0
   19.7466   -9.2657  -16.0934 N   0  0  0  0  0  0  0  0  0  0  0  0
   19.3855   -8.3525  -15.0379 C   0  0  1  0  0  0  0  0  0  0  0  0
   18.5316   -8.9005  -13.9676 C   0  0  0  0  0  0  0  0  0  0  0  0
   17.1427   -9.2061  -14.3219 C   0  0  0  0  0  0  0  0  0  0  0  0
   16.5069   -8.9377  -15.5062 C   0  0  0  0  0  0  0  0  0  0  0  0
   15.2332   -9.3586  -15.4129 N   0  0  0  0  0  0  0  0  0  0  0  0
   15.0476   -9.8835  -14.2057 C   0  0  0  0  0  0  0  0  0  0  0  0
   16.2016   -9.7949  -13.5368 N   0  0  0  0  0  0  0  0  0  0  0  0
   20.5851   -7.6317  -14.5109 C   0  0  0  0  0  0  0  0  0  0  0  0
   21.5583   -8.2536  -14.0245 O   0  0  0  0  0  0  0  0  0  0  0  0
   21.6908   -4.0072  -16.1588 C   0  0  0  0  0  0  0  0  0  0  0  0
   22.6044   -4.9286  -15.3767 C   0  0  2  0  0  0  0  0  0  0  0  0
   23.1837   -6.0179  -16.2436 C   0  0  0  0  0  0  0  0  0  0  0  0
   21.8867   -5.4922  -14.1615 C   0  0  2  0  0  0  0  0  0  0  0  0
   20.6857   -6.2147  -14.5329 N   0  0  0  0  0  0  0  0  0  0  0  0
   21.4524   -4.3357  -13.3320 C   0  0  0  0  0  0  0  0  0  0  0  0
   22.4504   -3.6904  -12.5999 O   0  0  0  0  0  0  0  0  0  0  0  0
   20.2786   -3.9345  -13.2661 O   0  0  0  0  0  0  0  0  0  0  0  0
  2  3  1  0
  2  1  1  0
  3  4  1  1
  5  6  2  0
  5  3  1  0
  7  5  1  0
  8  7  1  0
  8 15  1  0
  8  9  1  1
 10  9  1  0
 11 10  2  0
 12 13  1  0
 12 11  1  0
 13 14  2  0
 14 10  1  0
 15 21  1  0
 16 15  2  0
 18 17  1  6
 18 20  1  0
 19 18  1  0
 20 22  1  0
 20 21  1  6
 22 24  2  0
 22 23  1  0
M  END
$$$$
