SHV.pdb
     RDKit          3D

 24 24  0  0  1  0  0  0  0  0999 V2000
   19.5813  -11.1907  -19.1033 O   0  0  0  0  0  0  0  0  0  0  0  0
   19.2191  -10.0289  -18.3979 C   0  0  0  0  0  0  0  0  0  0  0  0
   20.3276   -9.6641  -17.4212 C   0  0  2  0  0  0  0  0  0  0  0  0
   20.8168  -10.8704  -16.8279 N   0  0  0  0  0  0  0  0  0  0  0  0
   19.8226   -8.6827  -16.4228 C   0  0  0  0  0  0  0  0  0  0  0  0
   19.2791   -7.6421  -16.8283 O   0  0  0  0  0  0  0  0  0  0  0  0
   19.9460   -8.9051  -15.0190 N   0  0  0  0  0  0  0  0  0  0  0  0
   19.5004   -7.9727  -14.0138 C   0  0  1  0  0  0  0  0  0  0  0  0
   18.8558   -8.5584  -12.8236 C   0  0  0  0  0  0  0  0  0  0  0  0
   18.4038   -7.6232  -11.7896 C   0  0  0  0  0  0  0  0  0  0  0  0
   18.5113   -6.2567  -11.7980 C   0  0  0  0  0  0  0  0  0  0  0  0
   17.9943   -5.7798  -10.6519 N   0  0  0  0  0  0  0  0  0  0  0  0
   17.5650   -6.8046   -9.9219 C   0  0  0  0  0  0  0  0  0  0  0  0
   17.8098   -7.9274  -10.6050 N   0  0  0  0  0  0  0  0  0  0  0  0
   20.5762   -6.9934  -13.6679 C   0  0  0  0  0  0  0  0  0  0  0  0
   21.6162   -7.3518  -13.0675 O   0  0  0  0  0  0  0  0  0  0  0  0
   21.1856   -3.8133  -16.1852 C   0  0  0  0  0  0  0  0  0  0  0  0
   22.2140   -4.3813  -15.2287 C   0  0  2  0  0  0  0  0  0  0  0  0
   22.9159   -5.5853  -15.8045 C   0  0  0  0  0  0  0  0  0  0  0  0
   21.5835   -4.6838  -13.8794 C   0  0  2  0  0  0  0  0  0  0  0  0
   20.4786   -5.6151  -13.9984 N   0  0  0  0  0  0  0  0  0  0  0  0
   21.0162   -3.4086  -13.3636 C   0  0  0  0  0  0  0  0  0  0  0  0
   19.6286   -3.2753  -13.4355 O   0  0  0  0  0  0  0  0  0  0  0  0
   21.7028   -2.4891  -12.8879 O   0  0  0  0  0  0  0  0  0  0  0  0
  2  3  1  0
  2  1  1  0
  3  4  1  1
  5  6  2  0
  5  3  1  0
  7  5  1  0
  8  7  1  0
  8 15  1  0
  8  9  1  1
 10  9  1  0
 11 10  2  0
 12 13  1  0
 12 11  1  0
 13 14  2  0
 14 10  1  0
 15 21  1  0
 16 15  2  0
 18 17  1  6
 18 20  1  0
 19 18  1  0
 20 22  1  0
 20 21  1  6
 22 24  2  0
 22 23  1  0
M  END
$$$$
