SHV.pdb
     RDKit          3D

 24 24  0  0  1  0  0  0  0  0999 V2000
   25.3104  -22.3322   -7.1058 O   0  0  0  0  0  0  0  0  0  0  0  0
   24.9600  -21.6867   -8.3056 C   0  0  0  0  0  0  0  0  0  0  0  0
   25.9890  -20.6107   -8.6202 C   0  0  2  0  0  0  0  0  0  0  0  0
   25.8751  -19.5801   -7.6347 N   0  0  0  0  0  0  0  0  0  0  0  0
   25.7980  -20.1159  -10.0106 C   0  0  0  0  0  0  0  0  0  0  0  0
   24.8242  -19.3855  -10.2575 O   0  0  0  0  0  0  0  0  0  0  0  0
   26.6998  -20.4570  -11.0622 N   0  0  0  0  0  0  0  0  0  0  0  0
   26.5615  -19.9985  -12.4220 C   0  0  1  0  0  0  0  0  0  0  0  0
   27.8013  -19.9425  -13.2187 C   0  0  0  0  0  0  0  0  0  0  0  0
   27.6852  -19.4282  -14.5862 C   0  0  0  0  0  0  0  0  0  0  0  0
   26.5370  -19.0902  -15.2542 C   0  0  0  0  0  0  0  0  0  0  0  0
   26.8664  -18.6839  -16.4930 N   0  0  0  0  0  0  0  0  0  0  0  0
   28.1872  -18.7563  -16.6254 C   0  0  0  0  0  0  0  0  0  0  0  0
   28.6922  -19.2073  -15.4727 N   0  0  0  0  0  0  0  0  0  0  0  0
   25.4522  -20.7137  -13.1250 C   0  0  0  0  0  0  0  0  0  0  0  0
   25.3972  -21.9654  -13.1523 O   0  0  0  0  0  0  0  0  0  0  0  0
   21.7156  -18.9089  -13.6348 C   0  0  0  0  0  0  0  0  0  0  0  0
   21.9815  -20.3989  -13.7004 C   0  0  2  0  0  0  0  0  0  0  0  0
   21.9493  -21.0386  -12.3353 C   0  0  0  0  0  0  0  0  0  0  0  0
   23.2855  -20.6806  -14.4281 C   0  0  2  0  0  0  0  0  0  0  0  0
   24.4093  -20.0189  -13.7943 N   0  0  0  0  0  0  0  0  0  0  0  0
   23.1610  -20.1017  -15.7932 C   0  0  0  0  0  0  0  0  0  0  0  0
   22.3383  -20.7918  -16.6849 O   0  0  0  0  0  0  0  0  0  0  0  0
   23.7392  -19.0651  -16.1596 O   0  0  0  0  0  0  0  0  0  0  0  0
  2  3  1  0
  2  1  1  0
  3  4  1  1
  5  6  2  0
  5  3  1  0
  7  5  1  0
  8  7  1  0
  8 15  1  0
  8  9  1  6
 10  9  1  0
 11 10  2  0
 12 13  1  0
 12 11  1  0
 13 14  2  0
 14 10  1  0
 15 21  1  0
 16 15  2  0
 18 17  1  1
 18 20  1  0
 19 18  1  0
 20 22  1  0
 20 21  1  1
 22 24  2  0
 22 23  1  0
M  END
$$$$
