SHV.pdb
     RDKit          3D

 24 24  0  0  1  0  0  0  0  0999 V2000
   21.6050  -16.7569  -16.7537 O   0  0  0  0  0  0  0  0  0  0  0  0
   22.2015  -17.8502  -16.0999 C   0  0  0  0  0  0  0  0  0  0  0  0
   23.2218  -18.4974  -17.0250 C   0  0  2  0  0  0  0  0  0  0  0  0
   22.5162  -19.2782  -17.9939 N   0  0  0  0  0  0  0  0  0  0  0  0
   24.1970  -19.2918  -16.2295 C   0  0  0  0  0  0  0  0  0  0  0  0
   23.9026  -20.4559  -15.9115 O   0  0  0  0  0  0  0  0  0  0  0  0
   25.4548  -18.7538  -15.8249 N   0  0  0  0  0  0  0  0  0  0  0  0
   26.4396  -19.4884  -15.0705 C   0  0  1  0  0  0  0  0  0  0  0  0
   27.8405  -19.3319  -15.5042 C   0  0  0  0  0  0  0  0  0  0  0  0
   28.2298  -20.0162  -16.7404 C   0  0  0  0  0  0  0  0  0  0  0  0
   27.4717  -20.8785  -17.4892 C   0  0  0  0  0  0  0  0  0  0  0  0
   28.2087  -21.3015  -18.5314 N   0  0  0  0  0  0  0  0  0  0  0  0
   29.4079  -20.7321  -18.4613 C   0  0  0  0  0  0  0  0  0  0  0  0
   29.4294  -19.9503  -17.3770 N   0  0  0  0  0  0  0  0  0  0  0  0
   26.2611  -19.2816  -13.6003 C   0  0  0  0  0  0  0  0  0  0  0  0
   26.2605  -18.1333  -13.0984 O   0  0  0  0  0  0  0  0  0  0  0  0
   24.8165  -22.4968  -11.0974 C   0  0  0  0  0  0  0  0  0  0  0  0
   24.5566  -21.0192  -10.8868 C   0  0  2  0  0  0  0  0  0  0  0  0
   23.3027  -20.5612  -11.5880 C   0  0  0  0  0  0  0  0  0  0  0  0
   25.7675  -20.1970  -11.2955 C   0  0  2  0  0  0  0  0  0  0  0  0
   26.0838  -20.3665  -12.7004 N   0  0  0  0  0  0  0  0  0  0  0  0
   26.9313  -20.7171  -10.5279 C   0  0  0  0  0  0  0  0  0  0  0  0
   26.9450  -20.4374   -9.1605 O   0  0  0  0  0  0  0  0  0  0  0  0
   27.8595  -21.3676  -11.0362 O   0  0  0  0  0  0  0  0  0  0  0  0
  2  3  1  0
  2  1  1  0
  3  4  1  6
  5  6  2  0
  5  3  1  0
  7  5  1  0
  8  7  1  0
  8 15  1  0
  8  9  1  6
 10  9  1  0
 11 10  2  0
 12 13  1  0
 12 11  1  0
 13 14  2  0
 14 10  1  0
 15 21  1  0
 16 15  2  0
 18 17  1  6
 18 20  1  0
 19 18  1  0
 20 22  1  0
 20 21  1  6
 22 24  2  0
 22 23  1  0
M  END
$$$$
