SHV.pdb
     RDKit          3D

 24 24  0  0  1  0  0  0  0  0999 V2000
   27.8587  -20.4715  -16.9060 O   0  0  0  0  0  0  0  0  0  0  0  0
   27.4492  -19.7767  -15.7535 C   0  0  0  0  0  0  0  0  0  0  0  0
   27.7736  -20.6073  -14.5204 C   0  0  2  0  0  0  0  0  0  0  0  0
   27.5101  -21.9804  -14.8232 N   0  0  0  0  0  0  0  0  0  0  0  0
   27.0000  -20.1058  -13.3521 C   0  0  0  0  0  0  0  0  0  0  0  0
   27.0691  -18.9002  -13.0613 O   0  0  0  0  0  0  0  0  0  0  0  0
   26.1853  -20.9696  -12.5612 N   0  0  0  0  0  0  0  0  0  0  0  0
   25.4095  -20.5305  -11.4282 C   0  0  1  0  0  0  0  0  0  0  0  0
   23.9634  -20.8153  -11.4805 C   0  0  0  0  0  0  0  0  0  0  0  0
   23.2120  -20.2177  -12.5880 C   0  0  0  0  0  0  0  0  0  0  0  0
   23.6826  -19.3559  -13.5444 C   0  0  0  0  0  0  0  0  0  0  0  0
   22.6664  -19.0275  -14.3616 N   0  0  0  0  0  0  0  0  0  0  0  0
   21.5703  -19.6560  -13.9485 C   0  0  0  0  0  0  0  0  0  0  0  0
   21.8925  -20.3807  -12.8722 N   0  0  0  0  0  0  0  0  0  0  0  0
   26.0389  -20.9596  -10.1414 C   0  0  0  0  0  0  0  0  0  0  0  0
   26.4664  -22.1268   -9.9815 O   0  0  0  0  0  0  0  0  0  0  0  0
   28.3784  -18.7876   -7.6191 C   0  0  0  0  0  0  0  0  0  0  0  0
   27.1799  -19.3748   -6.9021 C   0  0  2  0  0  0  0  0  0  0  0  0
   27.5178  -19.8043   -5.4967 C   0  0  0  0  0  0  0  0  0  0  0  0
   26.5722  -20.5087   -7.7111 C   0  0  2  0  0  0  0  0  0  0  0  0
   26.1853  -20.0748   -9.0395 N   0  0  0  0  0  0  0  0  0  0  0  0
   25.3246  -20.9253   -7.0155 C   0  0  0  0  0  0  0  0  0  0  0  0
   24.1245  -20.5937   -7.6465 O   0  0  0  0  0  0  0  0  0  0  0  0
   25.3073  -21.5352   -5.9334 O   0  0  0  0  0  0  0  0  0  0  0  0
  2  3  1  0
  2  1  1  0
  3  4  1  6
  5  6  2  0
  5  3  1  0
  7  5  1  0
  8  7  1  0
  8 15  1  0
  8  9  1  6
 10  9  1  0
 11 10  2  0
 12 13  1  0
 12 11  1  0
 13 14  2  0
 14 10  1  0
 15 21  1  0
 16 15  2  0
 18 17  1  6
 18 20  1  0
 19 18  1  0
 20 22  1  0
 20 21  1  6
 22 24  2  0
 22 23  1  0
M  END
$$$$
