SHV.pdb
     RDKit          3D

 24 24  0  0  1  0  0  0  0  0999 V2000
   21.6499   -9.2524  -22.1601 O   0  0  0  0  0  0  0  0  0  0  0  0
   21.1767   -8.7223  -20.9461 C   0  0  0  0  0  0  0  0  0  0  0  0
   20.9539   -9.8536  -19.9530 C   0  0  2  0  0  0  0  0  0  0  0  0
   19.9149  -10.6963  -20.4598 N   0  0  0  0  0  0  0  0  0  0  0  0
   20.6520   -9.2958  -18.6067 C   0  0  0  0  0  0  0  0  0  0  0  0
   19.6492   -8.5762  -18.4681 O   0  0  0  0  0  0  0  0  0  0  0  0
   21.4804   -9.5649  -17.4768 N   0  0  0  0  0  0  0  0  0  0  0  0
   21.1613   -9.1614  -16.1301 C   0  0  1  0  0  0  0  0  0  0  0  0
   20.9872  -10.2489  -15.1493 C   0  0  0  0  0  0  0  0  0  0  0  0
   19.8783  -11.1784  -15.3832 C   0  0  0  0  0  0  0  0  0  0  0  0
   18.5422  -10.8803  -15.4515 C   0  0  0  0  0  0  0  0  0  0  0  0
   17.8595  -12.0204  -15.6573 N   0  0  0  0  0  0  0  0  0  0  0  0
   18.7252  -13.0273  -15.7203 C   0  0  0  0  0  0  0  0  0  0  0  0
   19.9531  -12.5251  -15.5548 N   0  0  0  0  0  0  0  0  0  0  0  0
   22.0892   -8.0912  -15.6507 C   0  0  0  0  0  0  0  0  0  0  0  0
   23.3316   -8.2557  -15.6533 O   0  0  0  0  0  0  0  0  0  0  0  0
   20.8602   -4.0910  -15.8075 C   0  0  0  0  0  0  0  0  0  0  0  0
   22.2981   -4.5679  -15.8177 C   0  0  2  0  0  0  0  0  0  0  0  0
   22.7683   -4.9130  -17.2083 C   0  0  0  0  0  0  0  0  0  0  0  0
   22.4872   -5.7255  -14.8514 C   0  0  2  0  0  0  0  0  0  0  0  0
   21.6168   -6.8404  -15.1704 N   0  0  0  0  0  0  0  0  0  0  0  0
   22.0878   -5.2416  -13.5023 C   0  0  0  0  0  0  0  0  0  0  0  0
   20.9035   -5.7667  -12.9826 O   0  0  0  0  0  0  0  0  0  0  0  0
   22.7422   -4.4177  -12.8418 O   0  0  0  0  0  0  0  0  0  0  0  0
  2  3  1  0
  2  1  1  0
  3  4  1  6
  5  6  2  0
  5  3  1  0
  7  5  1  0
  8  7  1  0
  8 15  1  0
  8  9  1  1
 10  9  1  0
 11 10  2  0
 12 13  1  0
 12 11  1  0
 13 14  2  0
 14 10  1  0
 15 21  1  0
 16 15  2  0
 18 17  1  6
 18 20  1  0
 19 18  1  0
 20 22  1  0
 20 21  1  6
 22 24  2  0
 22 23  1  0
M  END
$$$$
