SHV.pdb
     RDKit          3D

 24 24  0  0  1  0  0  0  0  0999 V2000
   16.2111  -32.3863  -11.6352 O   0  0  0  0  0  0  0  0  0  0  0  0
   17.2429  -31.4311  -11.6746 C   0  0  0  0  0  0  0  0  0  0  0  0
   18.2006  -31.6729  -10.5170 C   0  0  2  0  0  0  0  0  0  0  0  0
   17.5755  -32.5752   -9.5995 N   0  0  0  0  0  0  0  0  0  0  0  0
   18.5836  -30.3764   -9.8950 C   0  0  0  0  0  0  0  0  0  0  0  0
   19.7117  -30.2663   -9.3870 O   0  0  0  0  0  0  0  0  0  0  0  0
   17.6931  -29.2621   -9.8672 N   0  0  0  0  0  0  0  0  0  0  0  0
   18.0545  -27.9545   -9.3792 C   0  0  1  0  0  0  0  0  0  0  0  0
   18.3507  -26.9367  -10.4045 C   0  0  0  0  0  0  0  0  0  0  0  0
   19.4070  -27.2578  -11.3685 C   0  0  0  0  0  0  0  0  0  0  0  0
   20.7570  -27.3124  -11.1373 C   0  0  0  0  0  0  0  0  0  0  0  0
   21.3765  -27.6195  -12.2906 N   0  0  0  0  0  0  0  0  0  0  0  0
   20.4576  -27.7596  -13.2410 C   0  0  0  0  0  0  0  0  0  0  0  0
   19.2592  -27.5417  -12.6899 N   0  0  0  0  0  0  0  0  0  0  0  0
   17.0843  -27.4736   -8.3479 C   0  0  0  0  0  0  0  0  0  0  0  0
   15.8785  -27.8141   -8.3777 O   0  0  0  0  0  0  0  0  0  0  0  0
   16.3535  -25.4867   -3.8467 C   0  0  0  0  0  0  0  0  0  0  0  0
   17.3008  -25.9993   -4.9120 C   0  0  2  0  0  0  0  0  0  0  0  0
   18.5169  -25.1195   -5.0565 C   0  0  0  0  0  0  0  0  0  0  0  0
   16.5740  -26.1837   -6.2338 C   0  0  2  0  0  0  0  0  0  0  0  0
   17.4734  -26.6121   -7.2874 N   0  0  0  0  0  0  0  0  0  0  0  0
   16.0468  -24.8514   -6.6351 C   0  0  0  0  0  0  0  0  0  0  0  0
   14.8436  -24.4594   -6.0461 O   0  0  0  0  0  0  0  0  0  0  0  0
   16.6138  -24.0991   -7.4449 O   0  0  0  0  0  0  0  0  0  0  0  0
  2  3  1  0
  2  1  1  0
  3  4  1  1
  5  6  2  0
  5  3  1  0
  7  5  1  0
  8  7  1  0
  8 15  1  0
  8  9  1  6
 10  9  1  0
 11 10  2  0
 12 13  1  0
 12 11  1  0
 13 14  2  0
 14 10  1  0
 15 21  1  0
 16 15  2  0
 18 17  1  1
 18 20  1  0
 19 18  1  0
 20 22  1  0
 20 21  1  6
 22 24  2  0
 22 23  1  0
M  END
$$$$
