SHV.pdb
     RDKit          3D

 24 24  0  0  1  0  0  0  0  0999 V2000
   17.0221  -16.1977  -15.0956 O   0  0  0  0  0  0  0  0  0  0  0  0
   17.7729  -15.0423  -15.3786 C   0  0  0  0  0  0  0  0  0  0  0  0
   17.8472  -14.8439  -16.8856 C   0  0  2  0  0  0  0  0  0  0  0  0
   18.4936  -15.9854  -17.4563 N   0  0  0  0  0  0  0  0  0  0  0  0
   18.5380  -13.5629  -17.1961 C   0  0  0  0  0  0  0  0  0  0  0  0
   19.7403  -13.5911  -17.5064 O   0  0  0  0  0  0  0  0  0  0  0  0
   17.8584  -12.3094  -17.1468 N   0  0  0  0  0  0  0  0  0  0  0  0
   18.5064  -11.0345  -17.3282 C   0  0  1  0  0  0  0  0  0  0  0  0
   17.6536   -9.9353  -17.8176 C   0  0  0  0  0  0  0  0  0  0  0  0
   18.3011   -8.6358  -18.0182 C   0  0  0  0  0  0  0  0  0  0  0  0
   18.1336   -7.4979  -17.2726 C   0  0  0  0  0  0  0  0  0  0  0  0
   18.8918   -6.5227  -17.8039 N   0  0  0  0  0  0  0  0  0  0  0  0
   19.5313   -7.0120  -18.8617 C   0  0  0  0  0  0  0  0  0  0  0  0
   19.1785   -8.2941  -18.9991 N   0  0  0  0  0  0  0  0  0  0  0  0
   19.3051  -10.6559  -16.1220 C   0  0  0  0  0  0  0  0  0  0  0  0
   18.8589  -10.8285  -14.9637 O   0  0  0  0  0  0  0  0  0  0  0  0
   22.8801  -11.8099  -15.6037 C   0  0  0  0  0  0  0  0  0  0  0  0
   22.8726  -10.3239  -15.3089 C   0  0  2  0  0  0  0  0  0  0  0  0
   23.7855   -9.9716  -14.1615 C   0  0  0  0  0  0  0  0  0  0  0  0
   21.4545   -9.8289  -15.0780 C   0  0  2  0  0  0  0  0  0  0  0  0
   20.6021  -10.0850  -16.2227 N   0  0  0  0  0  0  0  0  0  0  0  0
   21.5253   -8.3513  -14.9178 C   0  0  0  0  0  0  0  0  0  0  0  0
   21.5327   -7.8710  -13.6073 O   0  0  0  0  0  0  0  0  0  0  0  0
   21.5764   -7.5546  -15.8696 O   0  0  0  0  0  0  0  0  0  0  0  0
  2  3  1  0
  2  1  1  0
  3  4  1  6
  5  6  2  0
  5  3  1  0
  7  5  1  0
  8  7  1  0
  8 15  1  0
  8  9  1  1
 10  9  1  0
 11 10  2  0
 12 13  1  0
 12 11  1  0
 13 14  2  0
 14 10  1  0
 15 21  1  0
 16 15  2  0
 18 17  1  1
 18 20  1  0
 19 18  1  0
 20 22  1  0
 20 21  1  6
 22 24  2  0
 22 23  1  0
M  END
$$$$
