SHV.pdb
     RDKit          3D

 24 24  0  0  1  0  0  0  0  0999 V2000
   33.8274  -13.9832  -22.3134 O   0  0  0  0  0  0  0  0  0  0  0  0
   33.3201  -13.0810  -21.3609 C   0  0  0  0  0  0  0  0  0  0  0  0
   33.4724  -13.6766  -19.9688 C   0  0  2  0  0  0  0  0  0  0  0  0
   32.4600  -14.6722  -19.7944 N   0  0  0  0  0  0  0  0  0  0  0  0
   33.4159  -12.5976  -18.9454 C   0  0  0  0  0  0  0  0  0  0  0  0
   32.3086  -12.2491  -18.5035 O   0  0  0  0  0  0  0  0  0  0  0  0
   34.5947  -11.9564  -18.4611 N   0  0  0  0  0  0  0  0  0  0  0  0
   34.5935  -10.9185  -17.4605 C   0  0  1  0  0  0  0  0  0  0  0  0
   35.8650  -10.7037  -16.7448 C   0  0  0  0  0  0  0  0  0  0  0  0
   35.8718   -9.6699  -15.7058 C   0  0  0  0  0  0  0  0  0  0  0  0
   35.2993   -9.7355  -14.4620 C   0  0  0  0  0  0  0  0  0  0  0  0
   35.5155   -8.5686  -13.8296 N   0  0  0  0  0  0  0  0  0  0  0  0
   36.2063   -7.7703  -14.6375 C   0  0  0  0  0  0  0  0  0  0  0  0
   36.4268   -8.4309  -15.7786 N   0  0  0  0  0  0  0  0  0  0  0  0
   34.0077   -9.6508  -17.9951 C   0  0  0  0  0  0  0  0  0  0  0  0
   34.4167   -9.1438  -19.0658 O   0  0  0  0  0  0  0  0  0  0  0  0
   30.3542   -9.1506  -18.5515 C   0  0  0  0  0  0  0  0  0  0  0  0
   30.8037   -7.8974  -17.8284 C   0  0  2  0  0  0  0  0  0  0  0  0
   30.1286   -6.6617  -18.3679 C   0  0  0  0  0  0  0  0  0  0  0  0
   32.3182   -7.7745  -17.8570 C   0  0  2  0  0  0  0  0  0  0  0  0
   32.9643   -8.9582  -17.3242 N   0  0  0  0  0  0  0  0  0  0  0  0
   32.6845   -6.6453  -16.9600 C   0  0  0  0  0  0  0  0  0  0  0  0
   33.0593   -5.4551  -17.5856 O   0  0  0  0  0  0  0  0  0  0  0  0
   32.6711   -6.7154  -15.7198 O   0  0  0  0  0  0  0  0  0  0  0  0
  2  3  1  0
  2  1  1  0
  3  4  1  1
  5  6  2  0
  5  3  1  0
  7  5  1  0
  8  7  1  0
  8 15  1  0
  8  9  1  6
 10  9  1  0
 11 10  2  0
 12 13  1  0
 12 11  1  0
 13 14  2  0
 14 10  1  0
 15 21  1  0
 16 15  2  0
 18 17  1  6
 18 20  1  0
 19 18  1  0
 20 22  1  0
 20 21  1  1
 22 24  2  0
 22 23  1  0
M  END
$$$$
