AAH.pdb
     RDKit          3D

 21 21  0  0  1  0  0  0  0  0999 V2000
   10.2540  -19.1359   21.0201 C   0  0  0  0  0  0  0  0  0  0  0  0
    8.8379  -18.5775   21.0065 C   0  0  2  0  0  0  0  0  0  0  0  0
    8.1963  -19.0969   19.8127 N   0  0  0  0  0  0  0  0  0  0  0  0
    8.9383  -17.1011   20.9810 C   0  0  0  0  0  0  0  0  0  0  0  0
    9.0137  -16.5373   19.8612 O   0  0  0  0  0  0  0  0  0  0  0  0
    6.9258  -15.0136   21.9430 C   0  0  0  0  0  0  0  0  0  0  0  0
    8.4260  -14.9260   22.1430 C   0  0  2  0  0  0  0  0  0  0  0  0
    8.9548  -16.2812   22.1431 N   0  0  0  0  0  0  0  0  0  0  0  0
    8.7562  -14.2125   23.4076 C   0  0  0  0  0  0  0  0  0  0  0  0
    8.1516  -13.1402   23.6279 O   0  0  0  0  0  0  0  0  0  0  0  0
    9.7017  -14.6841   24.3481 N   0  0  0  0  0  0  0  0  0  0  0  0
    9.3232  -15.2388   25.6317 C   0  0  1  0  0  0  0  0  0  0  0  0
    7.8157  -15.2537   25.6917 C   0  0  0  0  0  0  0  0  0  0  0  0
    7.2153  -13.9812   26.1344 C   0  0  0  0  0  0  0  0  0  0  0  0
    7.8752  -12.8464   26.5496 C   0  0  0  0  0  0  0  0  0  0  0  0
    6.9449  -11.9317   26.8742 N   0  0  0  0  0  0  0  0  0  0  0  0
    5.7516  -12.5019   26.6597 C   0  0  0  0  0  0  0  0  0  0  0  0
    5.8943  -13.7440   26.2112 N   0  0  0  0  0  0  0  0  0  0  0  0
    9.8378  -16.6241   25.7950 C   0  0  0  0  0  0  0  0  0  0  0  0
   10.8760  -16.8819   26.4572 O   0  0  0  0  0  0  0  0  0  0  0  0
    9.2120  -17.7413   25.2271 O   0  0  0  0  0  0  0  0  0  0  0  0
  2  1  1  6
  2  4  1  0
  2  3  1  0
  4  5  2  0
  7  6  1  1
  8  7  1  0
  8  4  1  0
  9 10  2  0
  9  7  1  0
 11  9  1  0
 12 11  1  0
 12 13  1  6
 13 14  1  0
 14 15  2  0
 14 18  1  0
 15 16  1  0
 16 17  1  0
 18 17  2  0
 19 12  1  0
 20 19  2  0
 21 19  1  0
M  END
$$$$
