AAH.pdb
     RDKit          3D

 21 21  0  0  1  0  0  0  0  0999 V2000
   10.0697  -12.8763   19.5879 C   0  0  0  0  0  0  0  0  0  0  0  0
    8.9057  -13.5526   18.8773 C   0  0  2  0  0  0  0  0  0  0  0  0
    8.0965  -12.4939   18.3021 N   0  0  0  0  0  0  0  0  0  0  0  0
    8.1563  -14.3332   19.8871 C   0  0  0  0  0  0  0  0  0  0  0  0
    7.2771  -13.7359   20.5564 O   0  0  0  0  0  0  0  0  0  0  0  0
    7.4745  -17.9129   20.5149 C   0  0  0  0  0  0  0  0  0  0  0  0
    7.4926  -16.4831   21.0188 C   0  0  2  0  0  0  0  0  0  0  0  0
    8.3684  -15.7152   20.1473 N   0  0  0  0  0  0  0  0  0  0  0  0
    7.9445  -16.4213   22.4363 C   0  0  0  0  0  0  0  0  0  0  0  0
    7.2503  -17.0304   23.2795 O   0  0  0  0  0  0  0  0  0  0  0  0
    9.0975  -15.7200   22.8602 N   0  0  0  0  0  0  0  0  0  0  0  0
    9.4479  -15.5558   24.2562 C   0  0  1  0  0  0  0  0  0  0  0  0
    8.1622  -15.5241   25.0451 C   0  0  0  0  0  0  0  0  0  0  0  0
    7.4960  -14.2082   25.0633 C   0  0  0  0  0  0  0  0  0  0  0  0
    7.9108  -13.0535   24.4387 C   0  0  0  0  0  0  0  0  0  0  0  0
    7.0179  -12.0914   24.7294 N   0  0  0  0  0  0  0  0  0  0  0  0
    6.0861  -12.6531   25.5114 C   0  0  0  0  0  0  0  0  0  0  0  0
    6.3581  -13.9355   25.7253 N   0  0  0  0  0  0  0  0  0  0  0  0
   10.2948  -16.6792   24.7368 C   0  0  0  0  0  0  0  0  0  0  0  0
   10.7856  -16.7035   25.8950 O   0  0  0  0  0  0  0  0  0  0  0  0
   10.6108  -17.7891   23.9427 O   0  0  0  0  0  0  0  0  0  0  0  0
  2  1  1  1
  2  4  1  0
  2  3  1  0
  4  5  2  0
  7  6  1  6
  8  7  1  0
  8  4  1  0
  9 10  2  0
  9  7  1  0
 11  9  1  0
 12 11  1  0
 12 13  1  1
 13 14  1  0
 14 15  2  0
 14 18  1  0
 15 16  1  0
 16 17  1  0
 18 17  2  0
 19 12  1  0
 20 19  2  0
 21 19  1  0
M  END
$$$$
