AAH.pdb
     RDKit          3D

 21 21  0  0  1  0  0  0  0  0999 V2000
    8.5590  -19.3154   21.6044 C   0  0  0  0  0  0  0  0  0  0  0  0
    8.0543  -17.9505   21.1576 C   0  0  2  0  0  0  0  0  0  0  0  0
    8.6333  -17.6993   19.8506 N   0  0  0  0  0  0  0  0  0  0  0  0
    8.5017  -16.9571   22.1594 C   0  0  0  0  0  0  0  0  0  0  0  0
    9.6625  -16.4911   22.0459 O   0  0  0  0  0  0  0  0  0  0  0  0
    7.0518  -14.9211   24.9318 C   0  0  0  0  0  0  0  0  0  0  0  0
    8.2264  -15.6199   24.2759 C   0  0  2  0  0  0  0  0  0  0  0  0
    7.7011  -16.4972   23.2412 N   0  0  0  0  0  0  0  0  0  0  0  0
    9.0256  -16.3776   25.2782 C   0  0  0  0  0  0  0  0  0  0  0  0
    9.4534  -15.7371   26.2634 O   0  0  0  0  0  0  0  0  0  0  0  0
    9.3149  -17.7578   25.1667 N   0  0  0  0  0  0  0  0  0  0  0  0
   10.1180  -18.4728   26.1375 C   0  0  1  0  0  0  0  0  0  0  0  0
    9.5776  -19.8788   26.2247 C   0  0  0  0  0  0  0  0  0  0  0  0
    8.3247  -19.9986   26.9938 C   0  0  0  0  0  0  0  0  0  0  0  0
    8.0879  -19.5613   28.2777 C   0  0  0  0  0  0  0  0  0  0  0  0
    6.8213  -19.8863   28.5901 N   0  0  0  0  0  0  0  0  0  0  0  0
    6.3063  -20.5055   27.5193 C   0  0  0  0  0  0  0  0  0  0  0  0
    7.2018  -20.5834   26.5414 N   0  0  0  0  0  0  0  0  0  0  0  0
   11.5469  -18.5171   25.7295 C   0  0  0  0  0  0  0  0  0  0  0  0
   11.9270  -18.1916   24.5752 O   0  0  0  0  0  0  0  0  0  0  0  0
   12.5733  -18.9232   26.5919 O   0  0  0  0  0  0  0  0  0  0  0  0
  2  1  1  1
  2  4  1  0
  2  3  1  0
  4  5  2  0
  7  6  1  1
  8  7  1  0
  8  4  1  0
  9 10  2  0
  9  7  1  0
 11  9  1  0
 12 11  1  0
 12 13  1  6
 13 14  1  0
 14 15  2  0
 14 18  1  0
 15 16  1  0
 16 17  1  0
 18 17  2  0
 19 12  1  0
 20 19  2  0
 21 19  1  0
M  END
$$$$
