AAH.pdb
     RDKit          3D

 21 21  0  0  1  0  0  0  0  0999 V2000
    7.9434  -15.5776   16.3607 C   0  0  0  0  0  0  0  0  0  0  0  0
    7.6080  -14.1748   16.8477 C   0  0  2  0  0  0  0  0  0  0  0  0
    7.9872  -13.2626   15.7844 N   0  0  0  0  0  0  0  0  0  0  0  0
    8.3831  -13.9324   18.0851 C   0  0  0  0  0  0  0  0  0  0  0  0
    9.5957  -13.6269   17.9676 O   0  0  0  0  0  0  0  0  0  0  0  0
    7.7233  -13.7705   21.7818 C   0  0  0  0  0  0  0  0  0  0  0  0
    8.6545  -13.8173   20.5864 C   0  0  2  0  0  0  0  0  0  0  0  0
    7.8422  -14.0235   19.3973 N   0  0  0  0  0  0  0  0  0  0  0  0
    9.6728  -14.8925   20.7435 C   0  0  0  0  0  0  0  0  0  0  0  0
    9.3701  -16.0270   20.3131 O   0  0  0  0  0  0  0  0  0  0  0  0
   10.9374  -14.6907   21.3442 N   0  0  0  0  0  0  0  0  0  0  0  0
   11.9083  -15.7536   21.5065 C   0  0  1  0  0  0  0  0  0  0  0  0
   13.2776  -15.1490   21.3174 C   0  0  0  0  0  0  0  0  0  0  0  0
   13.6010  -14.8095   19.9189 C   0  0  0  0  0  0  0  0  0  0  0  0
   12.8672  -15.1144   18.7945 C   0  0  0  0  0  0  0  0  0  0  0  0
   13.5323  -14.6289   17.7317 N   0  0  0  0  0  0  0  0  0  0  0  0
   14.6416  -14.0449   18.2044 C   0  0  0  0  0  0  0  0  0  0  0  0
   14.7015  -14.1437   19.5276 N   0  0  0  0  0  0  0  0  0  0  0  0
   11.8204  -16.3641   22.8593 C   0  0  0  0  0  0  0  0  0  0  0  0
   11.0812  -15.8940   23.7624 O   0  0  0  0  0  0  0  0  0  0  0  0
   12.5495  -17.5009   23.2310 O   0  0  0  0  0  0  0  0  0  0  0  0
  2  1  1  6
  2  4  1  0
  2  3  1  0
  4  5  2  0
  7  6  1  1
  8  7  1  0
  8  4  1  0
  9 10  2  0
  9  7  1  0
 11  9  1  0
 12 11  1  0
 12 13  1  1
 13 14  1  0
 14 15  2  0
 14 18  1  0
 15 16  1  0
 16 17  1  0
 18 17  2  0
 19 12  1  0
 20 19  2  0
 21 19  1  0
M  END
$$$$
