AAH.pdb
     RDKit          3D

 21 21  0  0  1  0  0  0  0  0999 V2000
    7.4724  -19.0081   18.3338 C   0  0  0  0  0  0  0  0  0  0  0  0
    7.6503  -18.7378   19.8213 C   0  0  2  0  0  0  0  0  0  0  0  0
    6.3264  -18.7817   20.4144 N   0  0  0  0  0  0  0  0  0  0  0  0
    8.2744  -17.4032   19.9630 C   0  0  0  0  0  0  0  0  0  0  0  0
    9.4744  -17.2766   19.6145 O   0  0  0  0  0  0  0  0  0  0  0  0
    7.2347  -13.8838   20.4737 C   0  0  0  0  0  0  0  0  0  0  0  0
    8.2726  -14.9766   20.6376 C   0  0  2  0  0  0  0  0  0  0  0  0
    7.6019  -16.2563   20.4682 N   0  0  0  0  0  0  0  0  0  0  0  0
    8.9418  -14.8839   21.9646 C   0  0  0  0  0  0  0  0  0  0  0  0
    9.6533  -13.8766   22.1715 O   0  0  0  0  0  0  0  0  0  0  0  0
    8.8106  -15.8629   22.9772 N   0  0  0  0  0  0  0  0  0  0  0  0
    9.5098  -15.7818   24.2433 C   0  0  1  0  0  0  0  0  0  0  0  0
    8.4781  -15.8946   25.3384 C   0  0  0  0  0  0  0  0  0  0  0  0
    7.6916  -14.6661   25.5573 C   0  0  0  0  0  0  0  0  0  0  0  0
    8.0238  -13.3839   25.1817 C   0  0  0  0  0  0  0  0  0  0  0  0
    7.0328  -12.5719   25.5892 N   0  0  0  0  0  0  0  0  0  0  0  0
    6.1241  -13.3467   26.1968 C   0  0  0  0  0  0  0  0  0  0  0  0
    6.5051  -14.6190   26.1878 N   0  0  0  0  0  0  0  0  0  0  0  0
   10.5020  -16.8800   24.3843 C   0  0  0  0  0  0  0  0  0  0  0  0
   10.5646  -17.8381   23.5713 O   0  0  0  0  0  0  0  0  0  0  0  0
   11.4364  -16.9335   25.4266 O   0  0  0  0  0  0  0  0  0  0  0  0
  2  1  1  6
  2  4  1  0
  2  3  1  0
  4  5  2  0
  7  6  1  1
  8  7  1  0
  8  4  1  0
  9 10  2  0
  9  7  1  0
 11  9  1  0
 12 11  1  0
 12 13  1  1
 13 14  1  0
 14 15  2  0
 14 18  1  0
 15 16  1  0
 16 17  1  0
 18 17  2  0
 19 12  1  0
 20 19  2  0
 21 19  1  0
M  END
$$$$
