AAH.pdb
     RDKit          3D

 21 21  0  0  1  0  0  0  0  0999 V2000
    8.8109  -12.2938   19.4271 C   0  0  0  0  0  0  0  0  0  0  0  0
    8.4921  -13.6710   18.8622 C   0  0  2  0  0  0  0  0  0  0  0  0
    7.2333  -13.5486   18.1502 N   0  0  0  0  0  0  0  0  0  0  0  0
    8.3924  -14.6108   20.0014 C   0  0  0  0  0  0  0  0  0  0  0  0
    7.4225  -14.4781   20.7883 O   0  0  0  0  0  0  0  0  0  0  0  0
    9.6685  -17.9493   20.8724 C   0  0  0  0  0  0  0  0  0  0  0  0
    9.1367  -16.6093   21.3413 C   0  0  2  0  0  0  0  0  0  0  0  0
    9.3244  -15.6533   20.2610 N   0  0  0  0  0  0  0  0  0  0  0  0
    9.8245  -16.1667   22.5857 C   0  0  0  0  0  0  0  0  0  0  0  0
   10.9905  -15.7312   22.4646 O   0  0  0  0  0  0  0  0  0  0  0  0
    9.2301  -16.2165   23.8683 N   0  0  0  0  0  0  0  0  0  0  0  0
    9.9812  -16.0143   25.0904 C   0  0  1  0  0  0  0  0  0  0  0  0
    9.5120  -14.7167   25.7009 C   0  0  0  0  0  0  0  0  0  0  0  0
    8.0625  -14.4765   25.5711 C   0  0  0  0  0  0  0  0  0  0  0  0
    7.4149  -13.8029   24.5599 C   0  0  0  0  0  0  0  0  0  0  0  0
    6.1011  -13.8080   24.8451 N   0  0  0  0  0  0  0  0  0  0  0  0
    5.9598  -14.4694   26.0017 C   0  0  0  0  0  0  0  0  0  0  0  0
    7.1369  -14.8824   26.4577 N   0  0  0  0  0  0  0  0  0  0  0  0
    9.7552  -17.1238   26.0538 C   0  0  0  0  0  0  0  0  0  0  0  0
    8.9501  -18.0623   25.8217 O   0  0  0  0  0  0  0  0  0  0  0  0
   10.4151  -17.2089   27.2865 O   0  0  0  0  0  0  0  0  0  0  0  0
  2  1  1  1
  2  4  1  0
  2  3  1  0
  4  5  2  0
  7  6  1  6
  8  7  1  0
  8  4  1  0
  9 10  2  0
  9  7  1  0
 11  9  1  0
 12 11  1  0
 12 13  1  1
 13 14  1  0
 14 15  2  0
 14 18  1  0
 15 16  1  0
 16 17  1  0
 18 17  2  0
 19 12  1  0
 20 19  2  0
 21 19  1  0
M  END
$$$$
