AAH.pdb
     RDKit          3D

 21 21  0  0  1  0  0  0  0  0999 V2000
    6.9531  -12.8386   19.3604 C   0  0  0  0  0  0  0  0  0  0  0  0
    8.4473  -13.1149   19.4520 C   0  0  2  0  0  0  0  0  0  0  0  0
    8.9780  -12.9881   18.1070 N   0  0  0  0  0  0  0  0  0  0  0  0
    8.6181  -14.4849   19.9856 C   0  0  0  0  0  0  0  0  0  0  0  0
    8.1947  -14.7202   21.1445 O   0  0  0  0  0  0  0  0  0  0  0  0
    9.3686  -17.8802   18.7068 C   0  0  0  0  0  0  0  0  0  0  0  0
    9.3917  -16.8776   19.8437 C   0  0  2  0  0  0  0  0  0  0  0  0
    9.2306  -15.5505   19.2700 N   0  0  0  0  0  0  0  0  0  0  0  0
   10.6551  -16.9836   20.6247 C   0  0  0  0  0  0  0  0  0  0  0  0
   10.9760  -18.1216   21.0318 O   0  0  0  0  0  0  0  0  0  0  0  0
   11.4881  -15.8788   20.9190 N   0  0  0  0  0  0  0  0  0  0  0  0
   12.7165  -16.0014   21.6770 C   0  0  1  0  0  0  0  0  0  0  0  0
   13.5910  -14.8263   21.3153 C   0  0  0  0  0  0  0  0  0  0  0  0
   14.1010  -14.8552   19.9315 C   0  0  0  0  0  0  0  0  0  0  0  0
   14.0711  -15.9144   19.0525 C   0  0  0  0  0  0  0  0  0  0  0  0
   14.6534  -15.5104   17.9100 N   0  0  0  0  0  0  0  0  0  0  0  0
   15.0259  -14.2369   18.0960 C   0  0  0  0  0  0  0  0  0  0  0  0
   14.6999  -13.8216   19.3148 N   0  0  0  0  0  0  0  0  0  0  0  0
   12.4526  -15.9890   23.1400 C   0  0  0  0  0  0  0  0  0  0  0  0
   11.3001  -15.8158   23.6139 O   0  0  0  0  0  0  0  0  0  0  0  0
   13.4596  -16.1664   24.0975 O   0  0  0  0  0  0  0  0  0  0  0  0
  2  1  1  6
  2  4  1  0
  2  3  1  0
  4  5  2  0
  7  6  1  6
  8  7  1  0
  8  4  1  0
  9 10  2  0
  9  7  1  0
 11  9  1  0
 12 11  1  0
 12 13  1  1
 13 14  1  0
 14 15  2  0
 14 18  1  0
 15 16  1  0
 16 17  1  0
 18 17  2  0
 19 12  1  0
 20 19  2  0
 21 19  1  0
M  END
$$$$
