AAH.pdb
     RDKit          3D

 21 21  0  0  1  0  0  0  0  0999 V2000
    7.3738  -18.3096   19.0595 C   0  0  0  0  0  0  0  0  0  0  0  0
    7.7835  -17.6406   17.7549 C   0  0  2  0  0  0  0  0  0  0  0  0
    8.5495  -18.6203   17.0066 N   0  0  0  0  0  0  0  0  0  0  0  0
    8.5942  -16.4504   18.0967 C   0  0  0  0  0  0  0  0  0  0  0  0
    9.7766  -16.6355   18.4777 O   0  0  0  0  0  0  0  0  0  0  0  0
    8.2267  -12.7142   17.9607 C   0  0  0  0  0  0  0  0  0  0  0  0
    8.9421  -13.9750   18.4046 C   0  0  2  0  0  0  0  0  0  0  0  0
    8.1195  -15.1118   18.0210 N   0  0  0  0  0  0  0  0  0  0  0  0
    9.1965  -13.9573   19.8717 C   0  0  0  0  0  0  0  0  0  0  0  0
   10.1723  -13.2840   20.2696 O   0  0  0  0  0  0  0  0  0  0  0  0
    8.4010  -14.6526   20.8122 N   0  0  0  0  0  0  0  0  0  0  0  0
    8.5879  -14.5282   22.2433 C   0  0  1  0  0  0  0  0  0  0  0  0
    7.2210  -14.5475   22.8819 C   0  0  0  0  0  0  0  0  0  0  0  0
    7.2290  -14.2995   24.3359 C   0  0  0  0  0  0  0  0  0  0  0  0
    8.3263  -14.0951   25.1421 C   0  0  0  0  0  0  0  0  0  0  0  0
    7.8803  -13.9228   26.3986 N   0  0  0  0  0  0  0  0  0  0  0  0
    6.5449  -14.0212   26.3511 C   0  0  0  0  0  0  0  0  0  0  0  0
    6.1310  -14.2494   25.1099 N   0  0  0  0  0  0  0  0  0  0  0  0
    9.4007  -15.6504   22.7821 C   0  0  0  0  0  0  0  0  0  0  0  0
    9.5599  -16.7280   22.1527 O   0  0  0  0  0  0  0  0  0  0  0  0
   10.0465  -15.5959   24.0240 O   0  0  0  0  0  0  0  0  0  0  0  0
  2  1  1  1
  2  4  1  0
  2  3  1  0
  4  5  2  0
  7  6  1  1
  8  7  1  0
  8  4  1  0
  9 10  2  0
  9  7  1  0
 11  9  1  0
 12 11  1  0
 12 13  1  1
 13 14  1  0
 14 15  2  0
 14 18  1  0
 15 16  1  0
 16 17  1  0
 18 17  2  0
 19 12  1  0
 20 19  2  0
 21 19  1  0
M  END
$$$$
