AAH.pdb
     RDKit          3D

 21 21  0  0  1  0  0  0  0  0999 V2000
   11.0894  -17.6240   14.9484 C   0  0  0  0  0  0  0  0  0  0  0  0
    9.9224  -18.5727   15.1841 C   0  0  2  0  0  0  0  0  0  0  0  0
    8.8528  -18.1455   14.3008 N   0  0  0  0  0  0  0  0  0  0  0  0
    9.5374  -18.4646   16.6091 C   0  0  0  0  0  0  0  0  0  0  0  0
    8.8455  -17.4757   16.9567 O   0  0  0  0  0  0  0  0  0  0  0  0
    9.7158  -20.6270   19.6692 C   0  0  0  0  0  0  0  0  0  0  0  0
    9.4235  -19.3091   18.9792 C   0  0  2  0  0  0  0  0  0  0  0  0
    9.9010  -19.4088   17.6087 N   0  0  0  0  0  0  0  0  0  0  0  0
   10.0661  -18.1747   19.6987 C   0  0  0  0  0  0  0  0  0  0  0  0
   11.2144  -17.8462   19.3282 O   0  0  0  0  0  0  0  0  0  0  0  0
    9.4483  -17.4693   20.7578 N   0  0  0  0  0  0  0  0  0  0  0  0
   10.0595  -16.3238   21.4003 C   0  0  1  0  0  0  0  0  0  0  0  0
    8.9746  -15.3005   21.6290 C   0  0  0  0  0  0  0  0  0  0  0  0
    8.5604  -14.5760   20.4128 C   0  0  0  0  0  0  0  0  0  0  0  0
    9.1420  -14.6358   19.1663 C   0  0  0  0  0  0  0  0  0  0  0  0
    8.4564  -13.8085   18.3583 N   0  0  0  0  0  0  0  0  0  0  0  0
    7.4838  -13.2623   19.1006 C   0  0  0  0  0  0  0  0  0  0  0  0
    7.5301  -13.7147   20.3485 N   0  0  0  0  0  0  0  0  0  0  0  0
   10.6697  -16.6967   22.7037 C   0  0  0  0  0  0  0  0  0  0  0  0
   10.3556  -17.7496   23.3165 O   0  0  0  0  0  0  0  0  0  0  0  0
   11.6336  -15.9095   23.3468 O   0  0  0  0  0  0  0  0  0  0  0  0
  2  1  1  1
  2  4  1  0
  2  3  1  0
  4  5  2  0
  7  6  1  1
  8  7  1  0
  8  4  1  0
  9 10  2  0
  9  7  1  0
 11  9  1  0
 12 11  1  0
 12 13  1  1
 13 14  1  0
 14 15  2  0
 14 18  1  0
 15 16  1  0
 16 17  1  0
 18 17  2  0
 19 12  1  0
 20 19  2  0
 21 19  1  0
M  END
$$$$
