AAH.pdb
     RDKit          3D

 21 21  0  0  1  0  0  0  0  0999 V2000
    9.1952  -14.1072   15.9604 C   0  0  0  0  0  0  0  0  0  0  0  0
    9.3100  -15.6022   15.6978 C   0  0  2  0  0  0  0  0  0  0  0  0
    8.0423  -16.0246   15.1310 N   0  0  0  0  0  0  0  0  0  0  0  0
    9.5837  -16.2652   16.9924 C   0  0  0  0  0  0  0  0  0  0  0  0
    8.6366  -16.3677   17.8110 O   0  0  0  0  0  0  0  0  0  0  0  0
   12.3462  -18.3090   18.4754 C   0  0  0  0  0  0  0  0  0  0  0  0
   11.0421  -17.5457   18.5978 C   0  0  2  0  0  0  0  0  0  0  0  0
   10.8500  -16.7929   17.3679 N   0  0  0  0  0  0  0  0  0  0  0  0
   11.0561  -16.6504   19.7876 C   0  0  0  0  0  0  0  0  0  0  0  0
   11.7326  -15.6022   19.7003 O   0  0  0  0  0  0  0  0  0  0  0  0
   10.3539  -16.9278   20.9838 N   0  0  0  0  0  0  0  0  0  0  0  0
   10.3644  -16.0360   22.1254 C   0  0  1  0  0  0  0  0  0  0  0  0
    8.9369  -15.6290   22.3953 C   0  0  0  0  0  0  0  0  0  0  0  0
    8.3750  -14.6971   21.3995 C   0  0  0  0  0  0  0  0  0  0  0  0
    9.0202  -14.1438   20.3164 C   0  0  0  0  0  0  0  0  0  0  0  0
    8.1423  -13.3443   19.6858 N   0  0  0  0  0  0  0  0  0  0  0  0
    6.9942  -13.4140   20.3730 C   0  0  0  0  0  0  0  0  0  0  0  0
    7.1150  -14.2286   21.4151 N   0  0  0  0  0  0  0  0  0  0  0  0
   10.9233  -16.7056   23.3295 C   0  0  0  0  0  0  0  0  0  0  0  0
   11.0543  -17.9547   23.4042 O   0  0  0  0  0  0  0  0  0  0  0  0
   11.3429  -16.0030   24.4663 O   0  0  0  0  0  0  0  0  0  0  0  0
  2  1  1  1
  2  4  1  0
  2  3  1  0
  4  5  2  0
  7  6  1  6
  8  7  1  0
  8  4  1  0
  9 10  2  0
  9  7  1  0
 11  9  1  0
 12 11  1  0
 12 13  1  1
 13 14  1  0
 14 15  2  0
 14 18  1  0
 15 16  1  0
 16 17  1  0
 18 17  2  0
 19 12  1  0
 20 19  2  0
 21 19  1  0
M  END
$$$$
