YTC.pdb
     RDKit          3D

 26 26  0  0  1  0  0  0  0  0999 V2000
   20.0785  -19.7676  -15.6869 O   0  0  0  0  0  0  0  0  0  0  0  0
   20.6590  -18.5691  -16.0827 C   0  0  0  0  0  0  0  0  0  0  0  0
   22.0223  -18.4865  -16.2820 C   0  0  0  0  0  0  0  0  0  0  0  0
   22.5595  -17.2849  -16.6731 C   0  0  0  0  0  0  0  0  0  0  0  0
   21.7762  -16.1546  -16.8734 C   0  0  0  0  0  0  0  0  0  0  0  0
   22.4122  -14.8841  -17.2958 C   0  0  0  0  0  0  0  0  0  0  0  0
   22.1541  -14.6462  -18.7779 C   0  0  2  0  0  0  0  0  0  0  0  0
   22.8911  -15.6471  -19.5207 N   0  0  0  0  0  0  0  0  0  0  0  0
   22.6724  -13.3136  -19.1570 C   0  0  0  0  0  0  0  0  0  0  0  0
   23.8766  -13.1565  -19.4667 O   0  0  0  0  0  0  0  0  0  0  0  0
   20.4287  -16.2621  -16.6695 C   0  0  0  0  0  0  0  0  0  0  0  0
   19.8681  -17.4626  -16.2757 C   0  0  0  0  0  0  0  0  0  0  0  0
   21.5323  -11.3136  -21.8940 C   0  0  0  0  0  0  0  0  0  0  0  0
   21.4110  -10.3481  -20.7405 C   0  0  1  0  0  0  0  0  0  0  0  0
   20.0849  -10.3469  -20.2574 O   0  0  0  0  0  0  0  0  0  0  0  0
   22.2590  -10.8624  -19.5850 C   0  0  2  0  0  0  0  0  0  0  0  0
   21.8204  -12.1776  -19.1803 N   0  0  0  0  0  0  0  0  0  0  0  0
   22.2280   -9.9041  -18.4334 C   0  0  0  0  0  0  0  0  0  0  0  0
   21.7424  -10.3097  -17.3491 O   0  0  0  0  0  0  0  0  0  0  0  0
   22.7169   -8.5898  -18.5290 N   0  0  0  0  0  0  0  0  0  0  0  0
   22.7205   -7.5888  -17.5066 C   0  0  1  0  0  0  0  0  0  0  0  0
   23.7457   -7.7569  -16.4409 C   0  0  0  0  0  0  0  0  0  0  0  0
   23.7364   -6.4080  -15.2387 S   0  0  0  0  0  0  0  0  0  0  0  0
   22.7090   -6.2149  -18.0899 C   0  0  0  0  0  0  0  0  0  0  0  0
   22.0038   -5.1751  -17.4871 O   0  0  0  0  0  0  0  0  0  0  0  0
   23.3229   -5.9574  -19.1228 O   0  0  0  0  0  0  0  0  0  0  0  0
  2  1  1  0
  2  3  2  0
  4  3  1  0
  5  4  2  0
  6  5  1  0
  7  6  1  0
  7  9  1  0
  7  8  1  6
  9 17  1  0
  9 10  2  0
 11 12  2  0
 11  5  1  0
 12  2  1  0
 14 13  1  6
 14 15  1  0
 16 14  1  0
 16 17  1  1
 18 16  1  0
 18 19  2  0
 20 18  1  0
 21 20  1  0
 21 22  1  6
 23 22  1  0
 24 21  1  0
 25 24  1  0
 26 24  2  0
M  END
$$$$
