YTC.pdb
     RDKit          3D

 26 26  0  0  1  0  0  0  0  0999 V2000
   22.9419  -21.8793   -6.2207 O   0  0  0  0  0  0  0  0  0  0  0  0
   23.5213  -21.4200   -7.3969 C   0  0  0  0  0  0  0  0  0  0  0  0
   22.7466  -21.2050   -8.5187 C   0  0  0  0  0  0  0  0  0  0  0  0
   23.3552  -20.7507   -9.6627 C   0  0  0  0  0  0  0  0  0  0  0  0
   24.7210  -20.5019   -9.7252 C   0  0  0  0  0  0  0  0  0  0  0  0
   25.3225  -20.0121  -10.9882 C   0  0  0  0  0  0  0  0  0  0  0  0
   25.0304  -20.9956  -12.1138 C   0  0  2  0  0  0  0  0  0  0  0  0
   25.9451  -22.1095  -11.9753 N   0  0  0  0  0  0  0  0  0  0  0  0
   25.2911  -20.3417  -13.4148 C   0  0  0  0  0  0  0  0  0  0  0  0
   26.4607  -20.2095  -13.8450 O   0  0  0  0  0  0  0  0  0  0  0  0
   25.4666  -20.7226   -8.6008 C   0  0  0  0  0  0  0  0  0  0  0  0
   24.8732  -21.1798   -7.4391 C   0  0  0  0  0  0  0  0  0  0  0  0
   24.1236  -21.2047  -16.7725 C   0  0  0  0  0  0  0  0  0  0  0  0
   23.6154  -19.7979  -16.5722 C   0  0  1  0  0  0  0  0  0  0  0  0
   22.2862  -19.8342  -16.0990 O   0  0  0  0  0  0  0  0  0  0  0  0
   24.4209  -19.1443  -15.4573 C   0  0  2  0  0  0  0  0  0  0  0  0
   24.2241  -19.8467  -14.2108 N   0  0  0  0  0  0  0  0  0  0  0  0
   24.0660  -17.6948  -15.3228 C   0  0  0  0  0  0  0  0  0  0  0  0
   23.1239  -17.3934  -14.5497 O   0  0  0  0  0  0  0  0  0  0  0  0
   24.7433  -16.6815  -16.0230 N   0  0  0  0  0  0  0  0  0  0  0  0
   24.4825  -15.2753  -15.9821 C   0  0  1  0  0  0  0  0  0  0  0  0
   25.6503  -14.4101  -15.6617 C   0  0  0  0  0  0  0  0  0  0  0  0
   25.2486  -12.6488  -15.6918 S   0  0  0  0  0  0  0  0  0  0  0  0
   23.7410  -14.8237  -17.1964 C   0  0  0  0  0  0  0  0  0  0  0  0
   24.2414  -15.0453  -18.4780 O   0  0  0  0  0  0  0  0  0  0  0  0
   22.6633  -14.2408  -17.1033 O   0  0  0  0  0  0  0  0  0  0  0  0
  2  1  1  0
  2  3  2  0
  4  3  1  0
  5  4  2  0
  6  5  1  0
  7  6  1  0
  7  9  1  0
  7  8  1  1
  9 17  1  0
  9 10  2  0
 11 12  2  0
 11  5  1  0
 12  2  1  0
 14 13  1  1
 14 15  1  0
 16 14  1  0
 16 17  1  1
 18 16  1  0
 18 19  2  0
 20 18  1  0
 21 20  1  0
 21 22  1  6
 23 22  1  0
 24 21  1  0
 25 24  1  0
 26 24  2  0
M  END
$$$$
