YTC.pdb
     RDKit          3D

 26 26  0  0  1  0  0  0  0  0999 V2000
   24.6368  -21.7274   -8.1943 O   0  0  0  0  0  0  0  0  0  0  0  0
   25.2291  -21.2634   -9.3621 C   0  0  0  0  0  0  0  0  0  0  0  0
   26.5359  -21.5927   -9.6601 C   0  0  0  0  0  0  0  0  0  0  0  0
   27.0870  -21.1152  -10.8237 C   0  0  0  0  0  0  0  0  0  0  0  0
   26.3725  -20.3142  -11.7063 C   0  0  0  0  0  0  0  0  0  0  0  0
   27.0201  -19.8280  -12.9477 C   0  0  0  0  0  0  0  0  0  0  0  0
   26.2489  -20.3292  -14.1618 C   0  0  2  0  0  0  0  0  0  0  0  0
   26.6815  -21.6846  -14.4309 N   0  0  0  0  0  0  0  0  0  0  0  0
   26.5870  -19.4940  -15.3350 C   0  0  0  0  0  0  0  0  0  0  0  0
   27.4381  -19.8755  -16.1719 O   0  0  0  0  0  0  0  0  0  0  0  0
   25.0799  -20.0021  -11.3886 C   0  0  0  0  0  0  0  0  0  0  0  0
   24.5066  -20.4727  -10.2222 C   0  0  0  0  0  0  0  0  0  0  0  0
   26.5000  -19.5376  -18.0358 C   0  0  0  0  0  0  0  0  0  0  0  0
   25.6540  -18.2899  -17.9640 C   0  0  1  0  0  0  0  0  0  0  0  0
   24.3114  -18.6388  -17.7033 O   0  0  0  0  0  0  0  0  0  0  0  0
   26.0973  -17.4707  -16.7594 C   0  0  2  0  0  0  0  0  0  0  0  0
   25.9567  -18.2386  -15.5444 N   0  0  0  0  0  0  0  0  0  0  0  0
   25.3315  -16.1853  -16.6781 C   0  0  0  0  0  0  0  0  0  0  0  0
   24.1424  -16.2382  -16.2790 O   0  0  0  0  0  0  0  0  0  0  0  0
   25.8938  -14.9456  -17.0285 N   0  0  0  0  0  0  0  0  0  0  0  0
   25.3234  -13.6480  -16.8341 C   0  0  1  0  0  0  0  0  0  0  0  0
   26.2517  -12.6038  -16.3215 C   0  0  0  0  0  0  0  0  0  0  0  0
   27.2520  -13.1755  -14.9297 S   0  0  0  0  0  0  0  0  0  0  0  0
   24.5572  -13.2046  -18.0360 C   0  0  0  0  0  0  0  0  0  0  0  0
   23.5427  -12.2539  -17.9413 O   0  0  0  0  0  0  0  0  0  0  0  0
   24.7980  -13.6655  -19.1493 O   0  0  0  0  0  0  0  0  0  0  0  0
  2  1  1  0
  2  3  2  0
  4  3  1  0
  5  4  2  0
  6  5  1  0
  7  6  1  0
  7  9  1  0
  7  8  1  6
  9 17  1  0
  9 10  2  0
 11 12  2  0
 11  5  1  0
 12  2  1  0
 14 13  1  1
 14 15  1  0
 16 14  1  0
 16 17  1  1
 18 16  1  0
 18 19  2  0
 20 18  1  0
 21 20  1  0
 21 22  1  6
 23 22  1  0
 24 21  1  0
 25 24  1  0
 26 24  2  0
M  END
$$$$
