YTC.pdb
     RDKit          3D

 26 26  0  0  1  0  0  0  0  0999 V2000
   30.8326  -16.9668  -18.4131 O   0  0  0  0  0  0  0  0  0  0  0  0
   29.6878  -16.9822  -17.6262 C   0  0  0  0  0  0  0  0  0  0  0  0
   29.2337  -15.8220  -17.0322 C   0  0  0  0  0  0  0  0  0  0  0  0
   28.0987  -15.8768  -16.2615 C   0  0  0  0  0  0  0  0  0  0  0  0
   27.3963  -17.0592  -16.0620 C   0  0  0  0  0  0  0  0  0  0  0  0
   26.1769  -17.0575  -15.2195 C   0  0  0  0  0  0  0  0  0  0  0  0
   24.9497  -17.3008  -16.0882 C   0  0  2  0  0  0  0  0  0  0  0  0
   24.6940  -16.0900  -16.8401 N   0  0  0  0  0  0  0  0  0  0  0  0
   23.7804  -17.5624  -15.2208 C   0  0  0  0  0  0  0  0  0  0  0  0
   23.1948  -16.6245  -14.6309 O   0  0  0  0  0  0  0  0  0  0  0  0
   27.8663  -18.1948  -16.6610 C   0  0  0  0  0  0  0  0  0  0  0  0
   29.0071  -18.1609  -17.4407 C   0  0  0  0  0  0  0  0  0  0  0  0
   19.8199  -20.1073  -14.3279 C   0  0  0  0  0  0  0  0  0  0  0  0
   21.0015  -19.7122  -15.1797 C   0  0  1  0  0  0  0  0  0  0  0  0
   20.6511  -18.6217  -16.0044 O   0  0  0  0  0  0  0  0  0  0  0  0
   22.1040  -19.1891  -14.2688 C   0  0  2  0  0  0  0  0  0  0  0  0
   23.2902  -18.8821  -15.0333 N   0  0  0  0  0  0  0  0  0  0  0  0
   22.4036  -20.1706  -13.1769 C   0  0  0  0  0  0  0  0  0  0  0  0
   22.8396  -21.2998  -13.5100 O   0  0  0  0  0  0  0  0  0  0  0  0
   22.2149  -19.8707  -11.8167 N   0  0  0  0  0  0  0  0  0  0  0  0
   22.3320  -20.7655  -10.7065 C   0  0  1  0  0  0  0  0  0  0  0  0
   23.1769  -20.2885   -9.5779 C   0  0  0  0  0  0  0  0  0  0  0  0
   23.1165  -21.3851   -8.1432 S   0  0  0  0  0  0  0  0  0  0  0  0
   20.9954  -21.2601  -10.2626 C   0  0  0  0  0  0  0  0  0  0  0  0
   20.7503  -22.6183  -10.0695 O   0  0  0  0  0  0  0  0  0  0  0  0
   20.0671  -20.4827  -10.0531 O   0  0  0  0  0  0  0  0  0  0  0  0
  2  1  1  0
  2  3  2  0
  4  3  1  0
  5  4  2  0
  6  5  1  0
  7  6  1  0
  7  9  1  0
  7  8  1  1
  9 17  1  0
  9 10  2  0
 11 12  2  0
 11  5  1  0
 12  2  1  0
 14 13  1  1
 14 15  1  0
 16 14  1  0
 16 17  1  6
 18 16  1  0
 18 19  2  0
 20 18  1  0
 21 20  1  0
 21 22  1  1
 23 22  1  0
 24 21  1  0
 25 24  1  0
 26 24  2  0
M  END
$$$$
