YTC.pdb
     RDKit          3D

 26 26  0  0  1  0  0  0  0  0999 V2000
   21.0450  -22.2426   -6.2625 O   0  0  0  0  0  0  0  0  0  0  0  0
   21.8450  -21.6626   -7.2390 C   0  0  0  0  0  0  0  0  0  0  0  0
   22.9965  -20.9878   -6.8874 C   0  0  0  0  0  0  0  0  0  0  0  0
   23.7615  -20.4278   -7.8807 C   0  0  0  0  0  0  0  0  0  0  0  0
   23.4134  -20.5192   -9.2230 C   0  0  0  0  0  0  0  0  0  0  0  0
   24.2785  -19.8945  -10.2516 C   0  0  0  0  0  0  0  0  0  0  0  0
   25.0569  -20.9726  -10.9944 C   0  0  2  0  0  0  0  0  0  0  0  0
   26.0618  -21.4931  -10.0911 N   0  0  0  0  0  0  0  0  0  0  0  0
   25.7467  -20.3666  -12.1542 C   0  0  0  0  0  0  0  0  0  0  0  0
   26.9649  -20.0780  -12.0989 O   0  0  0  0  0  0  0  0  0  0  0  0
   22.2682  -21.1927   -9.5455 C   0  0  0  0  0  0  0  0  0  0  0  0
   21.4842  -21.7636   -8.5606 C   0  0  0  0  0  0  0  0  0  0  0  0
   27.6604  -21.1235  -13.8581 C   0  0  0  0  0  0  0  0  0  0  0  0
   26.6546  -20.9718  -14.9729 C   0  0  1  0  0  0  0  0  0  0  0  0
   25.8440  -22.1250  -15.0438 O   0  0  0  0  0  0  0  0  0  0  0  0
   25.7053  -19.8347  -14.6196 C   0  0  2  0  0  0  0  0  0  0  0  0
   25.0477  -20.0958  -13.3605 N   0  0  0  0  0  0  0  0  0  0  0  0
   24.7071  -19.6139  -15.7152 C   0  0  0  0  0  0  0  0  0  0  0  0
   23.6873  -20.3460  -15.7323 O   0  0  0  0  0  0  0  0  0  0  0  0
   24.8750  -18.6306  -16.7054 N   0  0  0  0  0  0  0  0  0  0  0  0
   23.9112  -18.1969  -17.6698 C   0  0  1  0  0  0  0  0  0  0  0  0
   23.6665  -16.7298  -17.7247 C   0  0  0  0  0  0  0  0  0  0  0  0
   23.7207  -15.9475  -16.0970 S   0  0  0  0  0  0  0  0  0  0  0  0
   24.1790  -18.7916  -19.0125 C   0  0  0  0  0  0  0  0  0  0  0  0
   23.2747  -18.6507  -20.0634 O   0  0  0  0  0  0  0  0  0  0  0  0
   25.2082  -19.4257  -19.2333 O   0  0  0  0  0  0  0  0  0  0  0  0
  2  1  1  0
  2  3  2  0
  4  3  1  0
  5  4  2  0
  6  5  1  0
  7  6  1  0
  7  9  1  0
  7  8  1  1
  9 17  1  0
  9 10  2  0
 11 12  2  0
 11  5  1  0
 12  2  1  0
 14 13  1  1
 14 15  1  0
 16 14  1  0
 16 17  1  1
 18 16  1  0
 18 19  2  0
 20 18  1  0
 21 20  1  0
 21 22  1  6
 23 22  1  0
 24 21  1  0
 25 24  1  0
 26 24  2  0
M  END
$$$$
