YTC.pdb
     RDKit          3D

 26 26  0  0  1  0  0  0  0  0999 V2000
   19.3700  -18.7346  -15.1543 O   0  0  0  0  0  0  0  0  0  0  0  0
   19.3054  -17.4640  -15.7123 C   0  0  0  0  0  0  0  0  0  0  0  0
   19.7569  -16.3678  -15.0055 C   0  0  0  0  0  0  0  0  0  0  0  0
   19.6767  -15.1280  -15.5902 C   0  0  0  0  0  0  0  0  0  0  0  0
   19.1573  -14.9440  -16.8659 C   0  0  0  0  0  0  0  0  0  0  0  0
   19.0960  -13.5813  -17.4459 C   0  0  0  0  0  0  0  0  0  0  0  0
   17.8192  -12.8853  -16.9931 C   0  0  2  0  0  0  0  0  0  0  0  0
   16.6982  -13.6117  -17.5521 N   0  0  0  0  0  0  0  0  0  0  0  0
   17.7943  -11.5086  -17.5336 C   0  0  0  0  0  0  0  0  0  0  0  0
   17.1220  -11.2306  -18.5540 O   0  0  0  0  0  0  0  0  0  0  0  0
   18.7167  -16.0454  -17.5455 C   0  0  0  0  0  0  0  0  0  0  0  0
   18.7886  -17.3022  -16.9748 C   0  0  0  0  0  0  0  0  0  0  0  0
   16.1473   -9.4595  -18.1397 C   0  0  0  0  0  0  0  0  0  0  0  0
   16.9866   -8.6038  -17.2228 C   0  0  1  0  0  0  0  0  0  0  0  0
   16.5975   -8.8170  -15.8830 O   0  0  0  0  0  0  0  0  0  0  0  0
   18.4313   -9.0789  -17.3019 C   0  0  2  0  0  0  0  0  0  0  0  0
   18.5310  -10.4658  -16.9115 N   0  0  0  0  0  0  0  0  0  0  0  0
   19.3229   -8.2156  -16.4624 C   0  0  0  0  0  0  0  0  0  0  0  0
   19.3650   -8.4450  -15.2288 O   0  0  0  0  0  0  0  0  0  0  0  0
   20.0989   -7.1763  -17.0041 N   0  0  0  0  0  0  0  0  0  0  0  0
   21.0144   -6.3241  -16.3093 C   0  0  1  0  0  0  0  0  0  0  0  0
   21.9463   -5.5413  -17.1659 C   0  0  0  0  0  0  0  0  0  0  0  0
   22.6934   -6.5324  -18.4789 S   0  0  0  0  0  0  0  0  0  0  0  0
   20.3126   -5.4831  -15.2952 C   0  0  0  0  0  0  0  0  0  0  0  0
   20.9870   -4.9565  -14.1952 O   0  0  0  0  0  0  0  0  0  0  0  0
   19.1150   -5.2283  -15.3993 O   0  0  0  0  0  0  0  0  0  0  0  0
  2  1  1  0
  2  3  2  0
  4  3  1  0
  5  4  2  0
  6  5  1  0
  7  6  1  0
  7  9  1  0
  7  8  1  6
  9 17  1  0
  9 10  2  0
 11 12  2  0
 11  5  1  0
 12  2  1  0
 14 13  1  6
 14 15  1  0
 16 14  1  0
 16 17  1  1
 18 16  1  0
 18 19  2  0
 20 18  1  0
 21 20  1  0
 21 22  1  6
 23 22  1  0
 24 21  1  0
 25 24  1  0
 26 24  2  0
M  END
$$$$
