YTC.pdb
     RDKit          3D

 26 26  0  0  1  0  0  0  0  0999 V2000
   25.3215  -15.8842  -16.9588 O   0  0  0  0  0  0  0  0  0  0  0  0
   24.6187  -14.6899  -16.8598 C   0  0  0  0  0  0  0  0  0  0  0  0
   24.8641  -13.8204  -15.8164 C   0  0  0  0  0  0  0  0  0  0  0  0
   24.1495  -12.6496  -15.7523 C   0  0  0  0  0  0  0  0  0  0  0  0
   23.1911  -12.3150  -16.7014 C   0  0  0  0  0  0  0  0  0  0  0  0
   22.4507  -11.0367  -16.5803 C   0  0  0  0  0  0  0  0  0  0  0  0
   21.3600  -11.1706  -15.5257 C   0  0  2  0  0  0  0  0  0  0  0  0
   20.4304  -12.1845  -15.9782 N   0  0  0  0  0  0  0  0  0  0  0  0
   20.6287   -9.8897  -15.4128 C   0  0  0  0  0  0  0  0  0  0  0  0
   19.7388   -9.5824  -16.2399 O   0  0  0  0  0  0  0  0  0  0  0  0
   22.9665  -13.1928  -17.7251 C   0  0  0  0  0  0  0  0  0  0  0  0
   23.6751  -14.3767  -17.8078 C   0  0  0  0  0  0  0  0  0  0  0  0
   18.6558   -8.6317  -12.5424 C   0  0  0  0  0  0  0  0  0  0  0  0
   19.7059   -7.5734  -12.7767 C   0  0  1  0  0  0  0  0  0  0  0  0
   20.8201   -7.8151  -11.9448 O   0  0  0  0  0  0  0  0  0  0  0  0
   20.2290   -7.7145  -14.1998 C   0  0  2  0  0  0  0  0  0  0  0  0
   20.9152   -8.9745  -14.3652 N   0  0  0  0  0  0  0  0  0  0  0  0
   21.1193   -6.5633  -14.5569 C   0  0  0  0  0  0  0  0  0  0  0  0
   22.2847   -6.8244  -14.9439 O   0  0  0  0  0  0  0  0  0  0  0  0
   20.6968   -5.2253  -14.4733 N   0  0  0  0  0  0  0  0  0  0  0  0
   21.3629   -4.0709  -14.9936 C   0  0  1  0  0  0  0  0  0  0  0  0
   21.6510   -4.0938  -16.4535 C   0  0  0  0  0  0  0  0  0  0  0  0
   22.4112   -2.5645  -17.0433 S   0  0  0  0  0  0  0  0  0  0  0  0
   20.6932   -2.8115  -14.5535 C   0  0  0  0  0  0  0  0  0  0  0  0
   19.3524   -2.7955  -14.1740 O   0  0  0  0  0  0  0  0  0  0  0  0
   21.3052   -1.7468  -14.5121 O   0  0  0  0  0  0  0  0  0  0  0  0
  2  1  1  0
  2  3  2  0
  4  3  1  0
  5  4  2  0
  6  5  1  0
  7  6  1  0
  7  9  1  0
  7  8  1  6
  9 17  1  0
  9 10  2  0
 11 12  2  0
 11  5  1  0
 12  2  1  0
 14 13  1  1
 14 15  1  0
 16 14  1  0
 16 17  1  1
 18 16  1  0
 18 19  2  0
 20 18  1  0
 21 20  1  0
 21 22  1  6
 23 22  1  0
 24 21  1  0
 25 24  1  0
 26 24  2  0
M  END
$$$$
