ARI.pdb
     RDKit          3D

 25 24  0  0  1  0  0  0  0  0999 V2000
   23.3454  -26.0559  -16.4565 C   0  0  0  0  0  0  0  0  0  0  0  0
   24.8141  -25.8317  -16.7948 C   0  0  2  0  0  0  0  0  0  0  0  0
   25.4728  -27.0994  -16.6959 N   0  0  0  0  0  0  0  0  0  0  0  0
   25.3888  -24.8150  -15.8728 C   0  0  0  0  0  0  0  0  0  0  0  0
   25.7482  -25.1769  -14.7311 O   0  0  0  0  0  0  0  0  0  0  0  0
   30.3242  -21.8861  -18.3804 N   0  0  0  0  0  0  0  0  0  0  0  0
   29.4196  -21.3307  -19.3047 C   0  0  0  0  0  0  0  0  0  0  0  0
   29.5291  -21.6725  -20.5489 N   0  0  0  0  0  0  0  0  0  0  0  0
   28.3995  -20.4200  -18.9423 N   0  0  0  0  0  0  0  0  0  0  0  0
   28.0771  -20.1162  -17.5749 C   0  0  0  0  0  0  0  0  0  0  0  0
   27.7547  -21.3450  -16.7734 C   0  0  0  0  0  0  0  0  0  0  0  0
   26.3877  -21.2232  -16.1303 C   0  0  0  0  0  0  0  0  0  0  0  0
   26.0390  -22.4367  -15.3178 C   0  0  2  0  0  0  0  0  0  0  0  0
   25.5540  -23.4515  -16.2145 N   0  0  0  0  0  0  0  0  0  0  0  0
   25.1008  -22.1429  -14.2202 C   0  0  0  0  0  0  0  0  0  0  0  0
   23.8801  -22.3786  -14.4063 O   0  0  0  0  0  0  0  0  0  0  0  0
   28.9075  -21.3001  -21.2899 C   0  0  0  0  0  0  0  0  0  0  0  0
   25.2784  -20.3641   -8.3206 C   0  0  0  0  0  0  0  0  0  0  0  0
   24.4034  -20.9163   -9.4293 C   0  0  2  0  0  0  0  0  0  0  0  0
   25.3043  -21.2158  -10.6015 C   0  0  0  0  0  0  0  0  0  0  0  0
   26.2743  -20.0601  -10.7350 C   0  0  2  0  0  0  0  0  0  0  0  0
   24.5445  -21.3151  -11.8996 N   0  0  0  0  0  0  0  0  0  0  0  0
   25.5056  -21.6107  -12.9727 C   0  0  0  0  0  0  0  0  0  0  0  0
   23.8904  -20.0175  -12.1377 O   0  0  0  0  0  0  0  0  0  0  0  0
   22.6722  -19.7577  -11.5574 O   0  0  0  0  0  0  0  0  0  0  0  0
  2  1  1  1
  3  2  1  0
  4  5  2  0
  4  2  1  0
  6  7  1  0
  7  9  1  0
  7  8  2  0
  9 10  1  0
 10 11  1  0
 11 12  1  0
 13 12  1  6
 13 14  1  0
 14  4  1  0
 15 22  1  0
 15 13  1  0
 16 15  2  0
 18 17  1  0
 19 18  1  0
 19 21  1  0
 19 20  1  1
 21 22  1  6
 21 23  1  0
 23 24  1  0
 25 23  2  0
M  END
$$$$
