ARI.pdb
     RDKit          3D

 25 24  0  0  1  0  0  0  0  0999 V2000
   28.1232  -20.7826  -18.5015 C   0  0  0  0  0  0  0  0  0  0  0  0
   28.5383  -21.7162  -17.3712 C   0  0  2  0  0  0  0  0  0  0  0  0
   28.9995  -22.9324  -17.9701 N   0  0  0  0  0  0  0  0  0  0  0  0
   27.3867  -21.9313  -16.4535 C   0  0  0  0  0  0  0  0  0  0  0  0
   26.5687  -22.8382  -16.7215 O   0  0  0  0  0  0  0  0  0  0  0  0
   26.3286  -20.3731   -7.7160 N   0  0  0  0  0  0  0  0  0  0  0  0
   25.0980  -20.8256   -8.2281 C   0  0  0  0  0  0  0  0  0  0  0  0
   24.1343  -21.0523   -7.3934 N   0  0  0  0  0  0  0  0  0  0  0  0
   24.8631  -21.0443   -9.6059 N   0  0  0  0  0  0  0  0  0  0  0  0
   25.8675  -20.8270  -10.6108 C   0  0  0  0  0  0  0  0  0  0  0  0
   25.3859  -21.1758  -11.9902 C   0  0  0  0  0  0  0  0  0  0  0  0
   26.4846  -20.9629  -13.0123 C   0  0  0  0  0  0  0  0  0  0  0  0
   26.0426  -21.3358  -14.3979 C   0  0  2  0  0  0  0  0  0  0  0  0
   27.1610  -21.1639  -15.2860 N   0  0  0  0  0  0  0  0  0  0  0  0
   24.8426  -20.6008  -14.8352 C   0  0  0  0  0  0  0  0  0  0  0  0
   24.9448  -19.3629  -15.0284 O   0  0  0  0  0  0  0  0  0  0  0  0
   23.1944  -21.3688   -7.6943 C   0  0  0  0  0  0  0  0  0  0  0  0
   21.5314  -22.1379  -18.6934 C   0  0  0  0  0  0  0  0  0  0  0  0
   22.3557  -21.2737  -17.7589 C   0  0  2  0  0  0  0  0  0  0  0  0
   21.6198  -21.2110  -16.4436 C   0  0  0  0  0  0  0  0  0  0  0  0
   20.3216  -20.4690  -16.6852 C   0  0  2  0  0  0  0  0  0  0  0  0
   22.3841  -20.4461  -15.3933 N   0  0  0  0  0  0  0  0  0  0  0  0
   23.5868  -21.2184  -15.0473 C   0  0  0  0  0  0  0  0  0  0  0  0
   21.5095  -20.3014  -14.2175 O   0  0  0  0  0  0  0  0  0  0  0  0
   21.5227  -21.2689  -13.2418 O   0  0  0  0  0  0  0  0  0  0  0  0
  2  1  1  6
  3  2  1  0
  4  5  2  0
  4  2  1  0
  6  7  1  0
  7  9  1  0
  7  8  2  0
  9 10  1  0
 10 11  1  0
 11 12  1  0
 13 12  1  1
 13 14  1  0
 14  4  1  0
 15 22  1  0
 15 13  1  0
 16 15  2  0
 18 17  1  0
 19 18  1  0
 19 21  1  0
 19 20  1  1
 21 22  1  6
 21 23  1  0
 23 24  1  0
 25 23  2  0
M  END
$$$$
