ARI.pdb
     RDKit          3D

 25 24  0  0  1  0  0  0  0  0999 V2000
   27.9004  -19.5943  -16.2684 C   0  0  0  0  0  0  0  0  0  0  0  0
   27.9165  -20.9285  -15.5329 C   0  0  2  0  0  0  0  0  0  0  0  0
   28.2283  -21.9422  -16.4951 N   0  0  0  0  0  0  0  0  0  0  0  0
   26.6010  -21.1507  -14.8738 C   0  0  0  0  0  0  0  0  0  0  0  0
   25.6826  -21.6833  -15.5343 O   0  0  0  0  0  0  0  0  0  0  0  0
   22.8995  -22.3759   -7.5409 N   0  0  0  0  0  0  0  0  0  0  0  0
   22.2212  -21.1989   -7.9091 C   0  0  0  0  0  0  0  0  0  0  0  0
   20.9541  -21.1180   -7.6545 N   0  0  0  0  0  0  0  0  0  0  0  0
   22.8538  -20.1031   -8.5417 N   0  0  0  0  0  0  0  0  0  0  0  0
   24.0944  -20.2273   -9.2569 C   0  0  0  0  0  0  0  0  0  0  0  0
   23.8914  -20.5666  -10.7060 C   0  0  0  0  0  0  0  0  0  0  0  0
   25.2210  -20.6533  -11.4285 C   0  0  0  0  0  0  0  0  0  0  0  0
   25.0475  -20.9442  -12.8912 C   0  0  2  0  0  0  0  0  0  0  0  0
   26.3259  -20.7919  -13.5327 N   0  0  0  0  0  0  0  0  0  0  0  0
   23.9895  -20.1314  -13.5168 C   0  0  0  0  0  0  0  0  0  0  0  0
   24.1521  -18.8859  -13.5668 O   0  0  0  0  0  0  0  0  0  0  0  0
   20.4030  -20.2556   -7.8178 C   0  0  0  0  0  0  0  0  0  0  0  0
   20.5678  -19.9794  -18.2991 C   0  0  0  0  0  0  0  0  0  0  0  0
   20.5428  -19.5240  -16.8528 C   0  0  2  0  0  0  0  0  0  0  0  0
   21.6150  -20.2949  -16.1236 C   0  0  0  0  0  0  0  0  0  0  0  0
   21.1896  -21.7484  -16.0965 C   0  0  2  0  0  0  0  0  0  0  0  0
   21.7723  -19.8474  -14.6928 N   0  0  0  0  0  0  0  0  0  0  0  0
   22.8050  -20.6825  -14.0615 C   0  0  0  0  0  0  0  0  0  0  0  0
   20.4765  -20.0340  -14.0187 O   0  0  0  0  0  0  0  0  0  0  0  0
   20.2906  -21.1220  -13.2002 O   0  0  0  0  0  0  0  0  0  0  0  0
  2  1  1  6
  3  2  1  0
  4  5  2  0
  4  2  1  0
  6  7  1  0
  7  9  1  0
  7  8  2  0
  9 10  1  0
 10 11  1  0
 11 12  1  0
 13 12  1  1
 13 14  1  0
 14  4  1  0
 15 22  1  0
 15 13  1  0
 16 15  2  0
 18 17  1  0
 19 18  1  0
 19 21  1  0
 19 20  1  6
 21 22  1  1
 21 23  1  0
 23 24  1  0
 25 23  2  0
M  END
$$$$
