ARI.pdb
     RDKit          3D

 25 24  0  0  1  0  0  0  0  0999 V2000
   27.8394  -19.3056  -17.1939 C   0  0  0  0  0  0  0  0  0  0  0  0
   28.2112  -20.5335  -16.3720 C   0  0  2  0  0  0  0  0  0  0  0  0
   28.5830  -21.5659  -17.2919 N   0  0  0  0  0  0  0  0  0  0  0  0
   27.0629  -20.9225  -15.5091 C   0  0  0  0  0  0  0  0  0  0  0  0
   26.1166  -21.5585  -16.0223 O   0  0  0  0  0  0  0  0  0  0  0  0
   22.6560  -19.9825   -9.5551 N   0  0  0  0  0  0  0  0  0  0  0  0
   23.1955  -20.8411   -8.5789 C   0  0  0  0  0  0  0  0  0  0  0  0
   22.4013  -21.3090   -7.6695 N   0  0  0  0  0  0  0  0  0  0  0  0
   24.5588  -21.2169   -8.5426 N   0  0  0  0  0  0  0  0  0  0  0  0
   25.5236  -20.7388   -9.4948 C   0  0  0  0  0  0  0  0  0  0  0  0
   25.1076  -20.9981  -10.9146 C   0  0  0  0  0  0  0  0  0  0  0  0
   26.2095  -20.6033  -11.8775 C   0  0  0  0  0  0  0  0  0  0  0  0
   25.8260  -20.8611  -13.3061 C   0  0  2  0  0  0  0  0  0  0  0  0
   26.9781  -20.6127  -14.1307 N   0  0  0  0  0  0  0  0  0  0  0  0
   24.6400  -20.0959  -13.7294 C   0  0  0  0  0  0  0  0  0  0  0  0
   24.7347  -18.8439  -13.7909 O   0  0  0  0  0  0  0  0  0  0  0  0
   22.7078  -21.9955   -6.9561 C   0  0  0  0  0  0  0  0  0  0  0  0
   20.8945  -19.3994  -17.9955 C   0  0  0  0  0  0  0  0  0  0  0  0
   20.8574  -19.3089  -16.4822 C   0  0  2  0  0  0  0  0  0  0  0  0
   22.0377  -20.0892  -15.9594 C   0  0  0  0  0  0  0  0  0  0  0  0
   21.7535  -21.5574  -16.2006 C   0  0  2  0  0  0  0  0  0  0  0  0
   22.2343  -19.9089  -14.4758 N   0  0  0  0  0  0  0  0  0  0  0  0
   23.4054  -20.6995  -14.0684 C   0  0  0  0  0  0  0  0  0  0  0  0
   21.0218  -20.3992  -13.7991 O   0  0  0  0  0  0  0  0  0  0  0  0
   19.8951  -19.6130  -13.7767 O   0  0  0  0  0  0  0  0  0  0  0  0
  2  1  1  6
  3  2  1  0
  4  5  2  0
  4  2  1  0
  6  7  1  0
  7  9  1  0
  7  8  2  0
  9 10  1  0
 10 11  1  0
 11 12  1  0
 13 12  1  1
 13 14  1  0
 14  4  1  0
 15 22  1  0
 15 13  1  0
 16 15  2  0
 18 17  1  0
 19 18  1  0
 19 21  1  0
 19 20  1  1
 21 22  1  1
 21 23  1  0
 23 24  1  0
 25 23  2  0
M  END
$$$$
