ARI.pdb
     RDKit          3D

 25 24  0  0  1  0  0  0  0  0999 V2000
   24.4160  -24.7566  -17.0311 C   0  0  0  0  0  0  0  0  0  0  0  0
   25.9153  -24.4857  -17.0293 C   0  0  2  0  0  0  0  0  0  0  0  0
   26.5775  -25.7525  -16.9425 N   0  0  0  0  0  0  0  0  0  0  0  0
   26.2577  -23.5826  -15.8973 C   0  0  0  0  0  0  0  0  0  0  0  0
   26.5942  -24.0914  -14.8058 O   0  0  0  0  0  0  0  0  0  0  0  0
   28.0293  -19.1156  -19.1492 N   0  0  0  0  0  0  0  0  0  0  0  0
   27.2105  -18.2130  -18.4450 C   0  0  0  0  0  0  0  0  0  0  0  0
   26.2521  -17.6265  -19.0886 N   0  0  0  0  0  0  0  0  0  0  0  0
   27.3827  -17.9159  -17.0727 N   0  0  0  0  0  0  0  0  0  0  0  0
   28.4159  -18.5122  -16.2708 C   0  0  0  0  0  0  0  0  0  0  0  0
   27.8683  -19.2480  -15.0813 C   0  0  0  0  0  0  0  0  0  0  0  0
   26.5306  -19.8801  -15.4102 C   0  0  0  0  0  0  0  0  0  0  0  0
   26.4228  -21.2781  -14.8732 C   0  0  2  0  0  0  0  0  0  0  0  0
   26.2246  -22.1703  -15.9839 N   0  0  0  0  0  0  0  0  0  0  0  0
   25.3879  -21.4155  -13.8332 C   0  0  0  0  0  0  0  0  0  0  0  0
   24.2008  -21.6042  -14.2012 O   0  0  0  0  0  0  0  0  0  0  0  0
   25.5439  -17.0316  -18.6208 C   0  0  0  0  0  0  0  0  0  0  0  0
   26.9180  -20.2453   -8.5872 C   0  0  0  0  0  0  0  0  0  0  0  0
   26.3777  -21.1493   -9.6783 C   0  0  2  0  0  0  0  0  0  0  0  0
   25.1592  -20.4729  -10.2556 C   0  0  0  0  0  0  0  0  0  0  0  0
   24.0911  -20.4690   -9.1816 C   0  0  2  0  0  0  0  0  0  0  0  0
   24.5986  -21.2140  -11.4424 N   0  0  0  0  0  0  0  0  0  0  0  0
   25.6646  -21.3457  -12.4468 C   0  0  0  0  0  0  0  0  0  0  0  0
   23.4802  -20.4210  -11.9799 O   0  0  0  0  0  0  0  0  0  0  0  0
   22.1894  -20.8408  -11.7659 O   0  0  0  0  0  0  0  0  0  0  0  0
  2  1  1  1
  3  2  1  0
  4  5  2  0
  4  2  1  0
  6  7  1  0
  7  9  1  0
  7  8  2  0
  9 10  1  0
 10 11  1  0
 11 12  1  0
 13 12  1  6
 13 14  1  0
 14  4  1  0
 15 22  1  0
 15 13  1  0
 16 15  2  0
 18 17  1  0
 19 18  1  0
 19 21  1  0
 19 20  1  6
 21 22  1  1
 21 23  1  0
 23 24  1  0
 25 23  2  0
M  END
$$$$
