ARI.pdb
     RDKit          3D

 25 24  0  0  1  0  0  0  0  0999 V2000
   20.2474  -16.2660  -18.0867 C   0  0  0  0  0  0  0  0  0  0  0  0
   21.3442  -17.2895  -18.3529 C   0  0  2  0  0  0  0  0  0  0  0  0
   21.6794  -17.2038  -19.7425 N   0  0  0  0  0  0  0  0  0  0  0  0
   20.8680  -18.6440  -17.9619 C   0  0  0  0  0  0  0  0  0  0  0  0
   19.9476  -19.1698  -18.6251 O   0  0  0  0  0  0  0  0  0  0  0  0
   25.6070  -23.0121  -15.7895 N   0  0  0  0  0  0  0  0  0  0  0  0
   24.8460  -24.0417  -16.3743 C   0  0  0  0  0  0  0  0  0  0  0  0
   25.4082  -24.7810  -17.2766 N   0  0  0  0  0  0  0  0  0  0  0  0
   23.5011  -24.3077  -16.0256 N   0  0  0  0  0  0  0  0  0  0  0  0
   22.8209  -23.6171  -14.9643 C   0  0  0  0  0  0  0  0  0  0  0  0
   21.6370  -22.8332  -15.4542 C   0  0  0  0  0  0  0  0  0  0  0  0
   22.0559  -21.4424  -15.8873 C   0  0  0  0  0  0  0  0  0  0  0  0
   20.8997  -20.6491  -16.4239 C   0  0  2  0  0  0  0  0  0  0  0  0
   21.3997  -19.3781  -16.8749 N   0  0  0  0  0  0  0  0  0  0  0  0
   19.7931  -20.5224  -15.4591 C   0  0  0  0  0  0  0  0  0  0  0  0
   19.9249  -19.7070  -14.5115 O   0  0  0  0  0  0  0  0  0  0  0  0
   24.9206  -25.5699  -17.7391 C   0  0  0  0  0  0  0  0  0  0  0  0
   13.8150  -20.5199  -15.3283 C   0  0  0  0  0  0  0  0  0  0  0  0
   15.0092  -20.8512  -14.4545 C   0  0  2  0  0  0  0  0  0  0  0  0
   16.2241  -20.8725  -15.3486 C   0  0  0  0  0  0  0  0  0  0  0  0
   16.0578  -22.0292  -16.3123 C   0  0  2  0  0  0  0  0  0  0  0  0
   17.4991  -21.1093  -14.5801 N   0  0  0  0  0  0  0  0  0  0  0  0
   18.5949  -21.2707  -15.5474 C   0  0  0  0  0  0  0  0  0  0  0  0
   17.3252  -22.3395  -13.7896 O   0  0  0  0  0  0  0  0  0  0  0  0
   16.5929  -22.2987  -12.6276 O   0  0  0  0  0  0  0  0  0  0  0  0
  2  1  1  6
  3  2  1  0
  4  5  2  0
  4  2  1  0
  6  7  1  0
  7  9  1  0
  7  8  2  0
  9 10  1  0
 10 11  1  0
 11 12  1  0
 13 12  1  1
 13 14  1  0
 14  4  1  0
 15 22  1  0
 15 13  1  0
 16 15  2  0
 18 17  1  0
 19 18  1  0
 19 21  1  0
 19 20  1  6
 21 22  1  1
 21 23  1  0
 23 24  1  0
 25 23  2  0
M  END
$$$$
