ARI.pdb
     RDKit          3D

 25 24  0  0  1  0  0  0  0  0999 V2000
   19.7523  -19.6042  -14.0594 C   0  0  0  0  0  0  0  0  0  0  0  0
   20.4089  -19.0758  -15.3288 C   0  0  2  0  0  0  0  0  0  0  0  0
   20.5121  -20.1725  -16.2439 N   0  0  0  0  0  0  0  0  0  0  0  0
   21.7322  -18.4821  -14.9959 C   0  0  0  0  0  0  0  0  0  0  0  0
   21.7740  -17.5248  -14.1926 O   0  0  0  0  0  0  0  0  0  0  0  0
   28.0146  -21.9611  -16.4970 N   0  0  0  0  0  0  0  0  0  0  0  0
   26.8977  -22.6709  -16.0175 C   0  0  0  0  0  0  0  0  0  0  0  0
   26.5360  -23.7418  -16.6494 N   0  0  0  0  0  0  0  0  0  0  0  0
   26.1531  -22.2732  -14.8823 N   0  0  0  0  0  0  0  0  0  0  0  0
   26.5124  -21.1406  -14.0734 C   0  0  0  0  0  0  0  0  0  0  0  0
   25.4242  -20.1069  -14.0154 C   0  0  0  0  0  0  0  0  0  0  0  0
   25.2842  -19.3992  -15.3483 C   0  0  0  0  0  0  0  0  0  0  0  0
   24.2353  -18.3257  -15.3069 C   0  0  2  0  0  0  0  0  0  0  0  0
   22.9559  -18.9407  -15.5392 N   0  0  0  0  0  0  0  0  0  0  0  0
   24.5152  -17.2133  -16.2318 C   0  0  0  0  0  0  0  0  0  0  0  0
   24.0410  -17.2768  -17.3942 O   0  0  0  0  0  0  0  0  0  0  0  0
   25.7059  -24.2999  -16.3783 C   0  0  0  0  0  0  0  0  0  0  0  0
   26.4258  -11.3748  -15.9671 C   0  0  0  0  0  0  0  0  0  0  0  0
   26.1705  -12.5534  -16.8865 C   0  0  2  0  0  0  0  0  0  0  0  0
   25.8574  -13.7420  -16.0120 C   0  0  0  0  0  0  0  0  0  0  0  0
   27.0986  -14.0464  -15.1990 C   0  0  2  0  0  0  0  0  0  0  0  0
   25.5334  -14.9763  -16.8142 N   0  0  0  0  0  0  0  0  0  0  0  0
   25.2885  -16.0822  -15.8763 C   0  0  0  0  0  0  0  0  0  0  0  0
   26.6949  -15.2743  -17.6689 O   0  0  0  0  0  0  0  0  0  0  0  0
   26.8455  -14.6083  -18.8614 O   0  0  0  0  0  0  0  0  0  0  0  0
  2  1  1  1
  3  2  1  0
  4  5  2  0
  4  2  1  0
  6  7  1  0
  7  9  1  0
  7  8  2  0
  9 10  1  0
 10 11  1  0
 11 12  1  0
 13 12  1  6
 13 14  1  0
 14  4  1  0
 15 22  1  0
 15 13  1  0
 16 15  2  0
 18 17  1  0
 19 18  1  0
 19 21  1  0
 19 20  1  1
 21 22  1  6
 21 23  1  0
 23 24  1  0
 25 23  2  0
M  END
$$$$
