ARI.pdb
     RDKit          3D

 25 24  0  0  1  0  0  0  0  0999 V2000
   20.9961  -26.8320  -16.0574 C   0  0  0  0  0  0  0  0  0  0  0  0
   20.1648  -25.6702  -15.5275 C   0  0  2  0  0  0  0  0  0  0  0  0
   19.2338  -25.3088  -16.5538 N   0  0  0  0  0  0  0  0  0  0  0  0
   21.0632  -24.5461  -15.1484 C   0  0  0  0  0  0  0  0  0  0  0  0
   21.8798  -24.7199  -14.2175 O   0  0  0  0  0  0  0  0  0  0  0  0
   21.2492  -19.5043  -19.7999 N   0  0  0  0  0  0  0  0  0  0  0  0
   20.4150  -18.9513  -18.8102 C   0  0  0  0  0  0  0  0  0  0  0  0
   19.1884  -18.6809  -19.1251 N   0  0  0  0  0  0  0  0  0  0  0  0
   20.8495  -18.6772  -17.4921 N   0  0  0  0  0  0  0  0  0  0  0  0
   22.2293  -18.7512  -17.0962 C   0  0  0  0  0  0  0  0  0  0  0  0
   22.4815  -19.8374  -16.0900 C   0  0  0  0  0  0  0  0  0  0  0  0
   21.6809  -21.0792  -16.4283 C   0  0  0  0  0  0  0  0  0  0  0  0
   21.8919  -22.1746  -15.4234 C   0  0  2  0  0  0  0  0  0  0  0  0
   21.0477  -23.2819  -15.7843 N   0  0  0  0  0  0  0  0  0  0  0  0
   21.6902  -21.7263  -14.0343 C   0  0  0  0  0  0  0  0  0  0  0  0
   20.5111  -21.5553  -13.6332 O   0  0  0  0  0  0  0  0  0  0  0  0
   18.5198  -18.2519  -18.4596 C   0  0  0  0  0  0  0  0  0  0  0  0
   25.0350  -21.0652   -8.8838 C   0  0  0  0  0  0  0  0  0  0  0  0
   23.6692  -20.8954   -9.5206 C   0  0  2  0  0  0  0  0  0  0  0  0
   23.8257  -21.1779  -10.9941 C   0  0  0  0  0  0  0  0  0  0  0  0
   24.7601  -20.1288  -11.5603 C   0  0  2  0  0  0  0  0  0  0  0  0
   22.5217  -21.0671  -11.7422 N   0  0  0  0  0  0  0  0  0  0  0  0
   22.7545  -21.4801  -13.1342 C   0  0  0  0  0  0  0  0  0  0  0  0
   22.0910  -19.6599  -11.6881 O   0  0  0  0  0  0  0  0  0  0  0  0
   22.3039  -18.8454  -12.7741 O   0  0  0  0  0  0  0  0  0  0  0  0
  2  1  1  6
  3  2  1  0
  4  5  2  0
  4  2  1  0
  6  7  1  0
  7  9  1  0
  7  8  2  0
  9 10  1  0
 10 11  1  0
 11 12  1  0
 13 12  1  6
 13 14  1  0
 14  4  1  0
 15 22  1  0
 15 13  1  0
 16 15  2  0
 18 17  1  0
 19 18  1  0
 19 21  1  0
 19 20  1  6
 21 22  1  1
 21 23  1  0
 23 24  1  0
 25 23  2  0
M  END
$$$$
