ARI.pdb
     RDKit          3D

 25 24  0  0  1  0  0  0  0  0999 V2000
   27.4137  -20.5786  -16.4518 C   0  0  0  0  0  0  0  0  0  0  0  0
   27.6219  -21.3365  -15.1466 C   0  0  2  0  0  0  0  0  0  0  0  0
   27.0476  -22.6377  -15.3126 N   0  0  0  0  0  0  0  0  0  0  0  0
   27.0047  -20.5776  -14.0252 C   0  0  0  0  0  0  0  0  0  0  0  0
   27.4175  -19.4219  -13.7854 O   0  0  0  0  0  0  0  0  0  0  0  0
   22.1731  -21.8606  -15.6384 N   0  0  0  0  0  0  0  0  0  0  0  0
   21.3572  -21.7120  -14.5012 C   0  0  0  0  0  0  0  0  0  0  0  0
   20.4893  -22.6385  -14.2457 N   0  0  0  0  0  0  0  0  0  0  0  0
   21.4385  -20.6035  -13.6260 N   0  0  0  0  0  0  0  0  0  0  0  0
   22.1464  -19.3981  -13.9604 C   0  0  0  0  0  0  0  0  0  0  0  0
   23.6219  -19.5069  -13.7013 C   0  0  0  0  0  0  0  0  0  0  0  0
   23.8865  -20.2577  -12.4115 C   0  0  0  0  0  0  0  0  0  0  0  0
   25.3550  -20.3757  -12.1215 C   0  0  2  0  0  0  0  0  0  0  0  0
   25.9698  -21.0908  -13.2075 N   0  0  0  0  0  0  0  0  0  0  0  0
   25.6339  -20.9774  -10.8056 C   0  0  0  0  0  0  0  0  0  0  0  0
   25.6870  -22.2309  -10.7275 O   0  0  0  0  0  0  0  0  0  0  0  0
   19.8298  -22.5850  -13.4480 C   0  0  0  0  0  0  0  0  0  0  0  0
   28.4615  -18.4845   -6.8241 C   0  0  0  0  0  0  0  0  0  0  0  0
   27.9561  -19.5824   -7.7400 C   0  0  2  0  0  0  0  0  0  0  0  0
   26.5298  -19.8726   -7.3440 C   0  0  0  0  0  0  0  0  0  0  0  0
   26.5632  -20.5385   -5.9839 C   0  0  2  0  0  0  0  0  0  0  0  0
   25.8526  -20.8274   -8.2937 N   0  0  0  0  0  0  0  0  0  0  0  0
   25.8439  -20.2159   -9.6311 C   0  0  0  0  0  0  0  0  0  0  0  0
   24.4759  -21.0367   -7.8147 O   0  0  0  0  0  0  0  0  0  0  0  0
   23.4429  -20.3488   -8.4043 O   0  0  0  0  0  0  0  0  0  0  0  0
  2  1  1  6
  3  2  1  0
  4  5  2  0
  4  2  1  0
  6  7  1  0
  7  9  1  0
  7  8  2  0
  9 10  1  0
 10 11  1  0
 11 12  1  0
 13 12  1  6
 13 14  1  0
 14  4  1  0
 15 22  1  0
 15 13  1  0
 16 15  2  0
 18 17  1  0
 19 18  1  0
 19 21  1  0
 19 20  1  6
 21 22  1  6
 21 23  1  0
 23 24  1  0
 25 23  2  0
M  END
$$$$
