ARI.pdb
     RDKit          3D

 25 24  0  0  1  0  0  0  0  0999 V2000
   27.0037  -15.2495  -15.7562 C   0  0  0  0  0  0  0  0  0  0  0  0
   26.4662  -16.6071  -16.1916 C   0  0  2  0  0  0  0  0  0  0  0  0
   25.6944  -16.3991  -17.3798 N   0  0  0  0  0  0  0  0  0  0  0  0
   25.6670  -17.2046  -15.0877 C   0  0  0  0  0  0  0  0  0  0  0  0
   24.7850  -16.5069  -14.5413 O   0  0  0  0  0  0  0  0  0  0  0  0
   25.2196  -24.3259  -14.4560 N   0  0  0  0  0  0  0  0  0  0  0  0
   23.8690  -24.0750  -14.1494 C   0  0  0  0  0  0  0  0  0  0  0  0
   23.2827  -24.8476  -13.2914 N   0  0  0  0  0  0  0  0  0  0  0  0
   23.1226  -23.0234  -14.7310 N   0  0  0  0  0  0  0  0  0  0  0  0
   23.6996  -22.0674  -15.6361 C   0  0  0  0  0  0  0  0  0  0  0  0
   24.7243  -21.1926  -14.9723 C   0  0  0  0  0  0  0  0  0  0  0  0
   24.0572  -20.0485  -14.2352 C   0  0  0  0  0  0  0  0  0  0  0  0
   25.0591  -19.1410  -13.5818 C   0  0  2  0  0  0  0  0  0  0  0  0
   25.8479  -18.5267  -14.6160 N   0  0  0  0  0  0  0  0  0  0  0  0
   25.8767  -19.8256  -12.5649 C   0  0  0  0  0  0  0  0  0  0  0  0
   26.8868  -20.4665  -12.9513 O   0  0  0  0  0  0  0  0  0  0  0  0
   22.3100  -24.6922  -12.9693 C   0  0  0  0  0  0  0  0  0  0  0  0
   27.9827  -19.2551   -7.0133 C   0  0  0  0  0  0  0  0  0  0  0  0
   27.5490  -20.3200   -8.0019 C   0  0  2  0  0  0  0  0  0  0  0  0
   26.7252  -19.6345   -9.0635 C   0  0  0  0  0  0  0  0  0  0  0  0
   25.4298  -19.1905   -8.4160 C   0  0  2  0  0  0  0  0  0  0  0  0
   26.3649  -20.5595  -10.1979 N   0  0  0  0  0  0  0  0  0  0  0  0
   25.5812  -19.7967  -11.1810 C   0  0  0  0  0  0  0  0  0  0  0  0
   25.5608  -21.6606   -9.6416 O   0  0  0  0  0  0  0  0  0  0  0  0
   24.2048  -21.6863   -9.8625 O   0  0  0  0  0  0  0  0  0  0  0  0
  2  1  1  1
  3  2  1  0
  4  5  2  0
  4  2  1  0
  6  7  1  0
  7  9  1  0
  7  8  2  0
  9 10  1  0
 10 11  1  0
 11 12  1  0
 13 12  1  6
 13 14  1  0
 14  4  1  0
 15 22  1  0
 15 13  1  0
 16 15  2  0
 18 17  1  0
 19 18  1  0
 19 21  1  0
 19 20  1  6
 21 22  1  1
 21 23  1  0
 23 24  1  0
 25 23  2  0
M  END
$$$$
