HMM.pdb
     RDKit          3D

 27 27  0  0  1  0  0  0  0  0999 V2000
   19.0454  -15.1524  -17.1306 N   0  0  0  0  0  0  0  0  0  0  0  0
   19.3014  -13.8672  -17.7176 C   0  0  1  0  0  0  0  0  0  0  0  0
   18.0132  -13.2003  -18.1208 C   0  0  0  0  0  0  0  0  0  0  0  0
   17.3175  -14.0012  -19.1673 C   0  0  0  0  0  0  0  0  0  0  0  0
   17.7891  -15.1492  -19.7520 C   0  0  0  0  0  0  0  0  0  0  0  0
   16.8619  -15.5568  -20.6413 N   0  0  0  0  0  0  0  0  0  0  0  0
   15.8578  -14.6874  -20.6014 C   0  0  0  0  0  0  0  0  0  0  0  0
   16.1186  -13.7294  -19.7060 N   0  0  0  0  0  0  0  0  0  0  0  0
   20.1390  -12.9991  -16.8764 C   0  0  0  0  0  0  0  0  0  0  0  0
   19.8955  -12.9758  -15.6400 O   0  0  0  0  0  0  0  0  0  0  0  0
   26.9708  -10.1451  -14.8343 C   0  0  0  0  0  0  0  0  0  0  0  0
   26.0365  -11.0906  -16.0946 S   0  0  0  0  0  0  0  0  0  0  0  0
   24.2964  -10.7534  -15.8414 C   0  0  0  0  0  0  0  0  0  0  0  0
   23.4022  -11.5967  -16.7194 C   0  0  0  0  0  0  0  0  0  0  0  0
   21.9419  -11.3447  -16.4488 C   0  0  2  0  0  0  0  0  0  0  0  0
   21.1893  -12.1950  -17.3499 N   0  0  0  0  0  0  0  0  0  0  0  0
   21.5940   -9.9251  -16.7457 C   0  0  0  0  0  0  0  0  0  0  0  0
   21.6102   -9.4886  -17.9405 O   0  0  0  0  0  0  0  0  0  0  0  0
   17.0319   -7.1252  -18.4437 C   0  0  0  0  0  0  0  0  0  0  0  0
   17.4863   -5.7812  -17.3453 S   0  0  0  0  0  0  0  0  0  0  0  0
   19.1996   -5.9966  -16.7865 C   0  0  0  0  0  0  0  0  0  0  0  0
   19.4963   -7.4354  -16.4635 C   0  0  0  0  0  0  0  0  0  0  0  0
   20.9164   -7.5940  -16.0552 C   0  0  2  0  0  0  0  0  0  0  0  0
   21.2311   -8.9921  -15.7375 N   0  0  0  0  0  0  0  0  0  0  0  0
   21.3726   -6.7093  -14.9610 C   0  0  0  0  0  0  0  0  0  0  0  0
   21.7185   -7.0732  -13.8161 O   0  0  0  0  0  0  0  0  0  0  0  0
   21.4514   -5.3082  -15.1518 O   0  0  0  0  0  0  0  0  0  0  0  0
  2  1  1  1
  2  3  1  0
  4  3  1  0
  5  4  2  0
  6  5  1  0
  7  6  1  0
  7  8  2  0
  8  4  1  0
  9  2  1  0
  9 10  2  0
 12 11  1  0
 13 14  1  0
 13 12  1  0
 15 14  1  6
 15 16  1  0
 16  9  1  0
 17 24  1  0
 17 15  1  0
 18 17  2  0
 20 19  1  0
 21 20  1  0
 22 21  1  0
 23 22  1  1
 23 24  1  0
 23 25  1  0
 25 27  1  0
 26 25  2  0
M  END
$$$$
