HMM.pdb
     RDKit          3D

 27 27  0  0  1  0  0  0  0  0999 V2000
   20.7033  -19.5239  -13.0071 N   0  0  0  0  0  0  0  0  0  0  0  0
   22.0709  -19.8650  -13.2811 C   0  0  1  0  0  0  0  0  0  0  0  0
   22.3031  -21.3384  -13.0762 C   0  0  0  0  0  0  0  0  0  0  0  0
   22.0147  -21.7196  -11.6648 C   0  0  0  0  0  0  0  0  0  0  0  0
   20.9728  -22.5029  -11.2367 C   0  0  0  0  0  0  0  0  0  0  0  0
   21.0717  -22.6046   -9.8964 N   0  0  0  0  0  0  0  0  0  0  0  0
   22.1376  -21.9073   -9.5182 C   0  0  0  0  0  0  0  0  0  0  0  0
   22.7269  -21.3591  -10.5857 N   0  0  0  0  0  0  0  0  0  0  0  0
   22.5327  -19.4060  -14.5998 C   0  0  0  0  0  0  0  0  0  0  0  0
   21.6729  -19.3082  -15.5162 O   0  0  0  0  0  0  0  0  0  0  0  0
   28.7049  -17.7682  -16.3775 C   0  0  0  0  0  0  0  0  0  0  0  0
   27.6667  -16.4951  -17.1878 S   0  0  0  0  0  0  0  0  0  0  0  0
   26.0041  -17.1492  -17.3044 C   0  0  0  0  0  0  0  0  0  0  0  0
   25.5612  -17.8524  -16.0430 C   0  0  0  0  0  0  0  0  0  0  0  0
   24.1982  -18.4764  -16.1911 C   0  0  2  0  0  0  0  0  0  0  0  0
   23.8605  -19.0693  -14.9121 N   0  0  0  0  0  0  0  0  0  0  0  0
   24.2295  -19.5603  -17.2152 C   0  0  0  0  0  0  0  0  0  0  0  0
   24.7104  -20.7044  -16.9354 O   0  0  0  0  0  0  0  0  0  0  0  0
   19.6889  -22.7696  -20.1010 C   0  0  0  0  0  0  0  0  0  0  0  0
   20.7472  -22.4141  -21.5056 S   0  0  0  0  0  0  0  0  0  0  0  0
   22.4121  -21.9816  -20.9268 C   0  0  0  0  0  0  0  0  0  0  0  0
   22.3820  -20.7985  -19.9986 C   0  0  0  0  0  0  0  0  0  0  0  0
   23.7513  -20.4821  -19.5155 C   0  0  2  0  0  0  0  0  0  0  0  0
   23.7363  -19.3886  -18.5365 N   0  0  0  0  0  0  0  0  0  0  0  0
   24.7559  -20.2094  -20.5664 C   0  0  0  0  0  0  0  0  0  0  0  0
   24.8666  -19.1504  -21.2217 O   0  0  0  0  0  0  0  0  0  0  0  0
   25.7149  -21.1900  -20.9193 O   0  0  0  0  0  0  0  0  0  0  0  0
  2  1  1  6
  2  3  1  0
  4  3  1  0
  5  4  2  0
  6  5  1  0
  7  6  1  0
  7  8  2  0
  8  4  1  0
  9  2  1  0
  9 10  2  0
 12 11  1  0
 13 14  1  0
 13 12  1  0
 15 14  1  1
 15 16  1  0
 16  9  1  0
 17 24  1  0
 17 15  1  0
 18 17  2  0
 20 19  1  0
 21 20  1  0
 22 21  1  0
 23 22  1  6
 23 24  1  0
 23 25  1  0
 25 27  1  0
 26 25  2  0
M  END
$$$$
