HMM.pdb
     RDKit          3D

 27 27  0  0  1  0  0  0  0  0999 V2000
   27.9693  -21.3430  -16.8657 N   0  0  0  0  0  0  0  0  0  0  0  0
   27.1821  -20.3429  -16.2007 C   0  0  1  0  0  0  0  0  0  0  0  0
   26.4222  -19.5124  -17.2005 C   0  0  0  0  0  0  0  0  0  0  0  0
   27.3638  -18.7319  -18.0520 C   0  0  0  0  0  0  0  0  0  0  0  0
   27.8379  -17.4722  -17.7861 C   0  0  0  0  0  0  0  0  0  0  0  0
   28.6588  -17.1304  -18.7990 N   0  0  0  0  0  0  0  0  0  0  0  0
   28.6855  -18.1466  -19.6547 C   0  0  0  0  0  0  0  0  0  0  0  0
   27.8998  -19.1348  -19.2147 N   0  0  0  0  0  0  0  0  0  0  0  0
   26.3082  -20.8914  -15.1527 C   0  0  0  0  0  0  0  0  0  0  0  0
   25.5444  -21.8423  -15.4702 O   0  0  0  0  0  0  0  0  0  0  0  0
   24.6264  -21.6625   -7.5184 C   0  0  0  0  0  0  0  0  0  0  0  0
   25.6223  -20.7408   -8.7487 S   0  0  0  0  0  0  0  0  0  0  0  0
   25.0367  -21.2075  -10.3751 C   0  0  0  0  0  0  0  0  0  0  0  0
   25.8488  -20.5908  -11.4896 C   0  0  0  0  0  0  0  0  0  0  0  0
   25.4013  -21.0669  -12.8468 C   0  0  2  0  0  0  0  0  0  0  0  0
   26.2627  -20.4331  -13.8254 N   0  0  0  0  0  0  0  0  0  0  0  0
   23.9975  -20.6390  -13.1129 C   0  0  0  0  0  0  0  0  0  0  0  0
   23.7231  -19.4182  -13.3423 O   0  0  0  0  0  0  0  0  0  0  0  0
   19.6093  -21.9490  -17.6593 C   0  0  0  0  0  0  0  0  0  0  0  0
   18.7398  -22.2984  -16.1292 S   0  0  0  0  0  0  0  0  0  0  0  0
   19.5122  -21.3886  -14.7618 C   0  0  0  0  0  0  0  0  0  0  0  0
   20.9105  -21.8754  -14.4973 C   0  0  0  0  0  0  0  0  0  0  0  0
   21.5316  -21.0974  -13.3939 C   0  0  2  0  0  0  0  0  0  0  0  0
   22.9035  -21.5455  -13.1266 N   0  0  0  0  0  0  0  0  0  0  0  0
   20.7601  -21.0432  -12.1331 C   0  0  0  0  0  0  0  0  0  0  0  0
   20.9346  -21.7710  -11.1316 O   0  0  0  0  0  0  0  0  0  0  0  0
   19.7103  -20.1066  -11.9696 O   0  0  0  0  0  0  0  0  0  0  0  0
  2  1  1  6
  2  3  1  0
  4  3  1  0
  5  4  2  0
  6  5  1  0
  7  6  1  0
  7  8  2  0
  8  4  1  0
  9  2  1  0
  9 10  2  0
 12 11  1  0
 13 14  1  0
 13 12  1  0
 15 14  1  1
 15 16  1  0
 16  9  1  0
 17 24  1  0
 17 15  1  0
 18 17  2  0
 20 19  1  0
 21 20  1  0
 22 21  1  0
 23 22  1  6
 23 24  1  0
 23 25  1  0
 25 27  1  0
 26 25  2  0
M  END
$$$$
