HMM.pdb
     RDKit          3D

 27 27  0  0  1  0  0  0  0  0999 V2000
   27.2504  -21.7207  -15.1478 N   0  0  0  0  0  0  0  0  0  0  0  0
   27.2033  -20.7162  -14.1227 C   0  0  1  0  0  0  0  0  0  0  0  0
   26.6323  -19.4318  -14.6622 C   0  0  0  0  0  0  0  0  0  0  0  0
   27.5729  -18.8136  -15.6388 C   0  0  0  0  0  0  0  0  0  0  0  0
   27.8785  -19.3001  -16.8846 C   0  0  0  0  0  0  0  0  0  0  0  0
   28.7635  -18.4497  -17.4415 N   0  0  0  0  0  0  0  0  0  0  0  0
   28.9910  -17.4766  -16.5659 C   0  0  0  0  0  0  0  0  0  0  0  0
   28.2718  -17.6821  -15.4578 N   0  0  0  0  0  0  0  0  0  0  0  0
   26.5159  -21.1623  -12.9015 C   0  0  0  0  0  0  0  0  0  0  0  0
   25.5593  -21.9721  -13.0345 O   0  0  0  0  0  0  0  0  0  0  0  0
   27.3322  -18.6947   -6.6359 C   0  0  0  0  0  0  0  0  0  0  0  0
   26.7206  -20.4146   -6.4842 S   0  0  0  0  0  0  0  0  0  0  0  0
   25.8440  -20.8105   -7.9944 C   0  0  0  0  0  0  0  0  0  0  0  0
   26.6954  -20.6341   -9.2296 C   0  0  0  0  0  0  0  0  0  0  0  0
   25.9552  -21.0106  -10.4863 C   0  0  2  0  0  0  0  0  0  0  0  0
   26.8473  -20.7520  -11.5993 N   0  0  0  0  0  0  0  0  0  0  0  0
   24.7420  -20.1589  -10.6519 C   0  0  0  0  0  0  0  0  0  0  0  0
   24.8324  -18.9879  -11.1408 O   0  0  0  0  0  0  0  0  0  0  0  0
   23.2866  -20.5185  -15.5349 C   0  0  0  0  0  0  0  0  0  0  0  0
   21.5622  -20.7835  -15.1160 S   0  0  0  0  0  0  0  0  0  0  0  0
   21.2855  -20.3812  -13.3680 C   0  0  0  0  0  0  0  0  0  0  0  0
   22.5000  -20.6852  -12.5344 C   0  0  0  0  0  0  0  0  0  0  0  0
   22.2657  -20.3052  -11.1169 C   0  0  2  0  0  0  0  0  0  0  0  0
   23.4396  -20.5904  -10.2831 N   0  0  0  0  0  0  0  0  0  0  0  0
   21.0498  -20.8712  -10.4930 C   0  0  0  0  0  0  0  0  0  0  0  0
   19.9002  -20.3827  -10.5457 O   0  0  0  0  0  0  0  0  0  0  0  0
   21.1138  -22.0757   -9.7508 O   0  0  0  0  0  0  0  0  0  0  0  0
  2  1  1  6
  2  3  1  0
  4  3  1  0
  5  4  2  0
  6  5  1  0
  7  6  1  0
  7  8  2  0
  8  4  1  0
  9  2  1  0
  9 10  2  0
 12 11  1  0
 13 14  1  0
 13 12  1  0
 15 14  1  1
 15 16  1  0
 16  9  1  0
 17 24  1  0
 17 15  1  0
 18 17  2  0
 20 19  1  0
 21 20  1  0
 22 21  1  0
 23 22  1  6
 23 24  1  0
 23 25  1  0
 25 27  1  0
 26 25  2  0
M  END
$$$$
