HMM.pdb
     RDKit          3D

 27 27  0  0  1  0  0  0  0  0999 V2000
   18.9246  -15.1811  -17.4875 N   0  0  0  0  0  0  0  0  0  0  0  0
   19.5681  -14.3349  -16.5221 C   0  0  1  0  0  0  0  0  0  0  0  0
   20.8516  -14.9575  -16.0407 C   0  0  0  0  0  0  0  0  0  0  0  0
   20.5891  -16.2988  -15.4469 C   0  0  0  0  0  0  0  0  0  0  0  0
   19.6642  -16.5845  -14.4747 C   0  0  0  0  0  0  0  0  0  0  0  0
   19.7446  -17.9057  -14.2202 N   0  0  0  0  0  0  0  0  0  0  0  0
   20.6864  -18.4101  -15.0101 C   0  0  0  0  0  0  0  0  0  0  0  0
   21.2139  -17.4427  -15.7671 N   0  0  0  0  0  0  0  0  0  0  0  0
   19.7603  -12.9551  -16.9934 C   0  0  0  0  0  0  0  0  0  0  0  0
   20.1887  -12.7953  -18.1678 O   0  0  0  0  0  0  0  0  0  0  0  0
   16.5625   -6.1955  -18.1992 C   0  0  0  0  0  0  0  0  0  0  0  0
   16.5085   -7.7770  -17.2767 S   0  0  0  0  0  0  0  0  0  0  0  0
   18.1429   -8.5038  -17.3563 C   0  0  0  0  0  0  0  0  0  0  0  0
   18.1825   -9.9167  -16.8233 C   0  0  0  0  0  0  0  0  0  0  0  0
   19.5781  -10.4836  -16.8244 C   0  0  2  0  0  0  0  0  0  0  0  0
   19.5015  -11.8038  -16.2308 N   0  0  0  0  0  0  0  0  0  0  0  0
   20.4820   -9.6453  -15.9849 C   0  0  0  0  0  0  0  0  0  0  0  0
   20.3662   -9.6335  -14.7181 O   0  0  0  0  0  0  0  0  0  0  0  0
   27.0510  -10.2325  -16.7070 C   0  0  0  0  0  0  0  0  0  0  0  0
   26.0709   -8.7508  -16.9585 S   0  0  0  0  0  0  0  0  0  0  0  0
   24.4571   -8.9366  -16.1490 C   0  0  0  0  0  0  0  0  0  0  0  0
   23.6411   -7.6773  -16.2529 C   0  0  0  0  0  0  0  0  0  0  0  0
   22.2779   -7.8946  -15.7025 C   0  0  2  0  0  0  0  0  0  0  0  0
   21.5053   -8.8261  -16.5331 N   0  0  0  0  0  0  0  0  0  0  0  0
   21.4882   -6.6713  -15.4419 C   0  0  0  0  0  0  0  0  0  0  0  0
   21.6159   -5.9082  -14.4600 O   0  0  0  0  0  0  0  0  0  0  0  0
   20.4751   -6.2613  -16.3427 O   0  0  0  0  0  0  0  0  0  0  0  0
  2  1  1  6
  2  3  1  0
  4  3  1  0
  5  4  2  0
  6  5  1  0
  7  6  1  0
  7  8  2  0
  8  4  1  0
  9  2  1  0
  9 10  2  0
 12 11  1  0
 13 14  1  0
 13 12  1  0
 15 14  1  1
 15 16  1  0
 16  9  1  0
 17 24  1  0
 17 15  1  0
 18 17  2  0
 20 19  1  0
 21 20  1  0
 22 21  1  0
 23 22  1  6
 23 24  1  0
 23 25  1  0
 25 27  1  0
 26 25  2  0
M  END
$$$$
