HMM.pdb
     RDKit          3D

 27 27  0  0  1  0  0  0  0  0999 V2000
   27.6947  -22.4989  -16.4030 N   0  0  0  0  0  0  0  0  0  0  0  0
   27.2092  -21.2764  -15.8271 C   0  0  1  0  0  0  0  0  0  0  0  0
   26.5834  -20.4031  -16.8819 C   0  0  0  0  0  0  0  0  0  0  0  0
   27.6080  -19.9676  -17.8724 C   0  0  0  0  0  0  0  0  0  0  0  0
   27.7252  -20.4167  -19.1635 C   0  0  0  0  0  0  0  0  0  0  0  0
   28.7735  -19.7759  -19.7176 N   0  0  0  0  0  0  0  0  0  0  0  0
   29.2798  -18.9630  -18.7966 C   0  0  0  0  0  0  0  0  0  0  0  0
   28.5802  -19.0665  -17.6620 N   0  0  0  0  0  0  0  0  0  0  0  0
   26.3168  -21.4883  -14.6775 C   0  0  0  0  0  0  0  0  0  0  0  0
   25.4109  -22.3566  -14.7958 O   0  0  0  0  0  0  0  0  0  0  0  0
   24.9127  -20.6704   -6.9959 C   0  0  0  0  0  0  0  0  0  0  0  0
   25.9917  -20.1652   -8.3872 S   0  0  0  0  0  0  0  0  0  0  0  0
   25.2617  -20.7999   -9.8938 C   0  0  0  0  0  0  0  0  0  0  0  0
   26.1400  -20.5893  -11.1045 C   0  0  0  0  0  0  0  0  0  0  0  0
   25.4916  -21.0897  -12.3687 C   0  0  2  0  0  0  0  0  0  0  0  0
   26.4003  -20.7943  -13.4588 N   0  0  0  0  0  0  0  0  0  0  0  0
   24.2108  -20.3675  -12.6190 C   0  0  0  0  0  0  0  0  0  0  0  0
   24.1695  -19.3749  -13.4136 O   0  0  0  0  0  0  0  0  0  0  0  0
   21.7858  -22.0226  -17.2756 C   0  0  0  0  0  0  0  0  0  0  0  0
   20.6548  -20.8624  -16.5049 S   0  0  0  0  0  0  0  0  0  0  0  0
   20.4607  -21.2689  -14.7467 C   0  0  0  0  0  0  0  0  0  0  0  0
   21.7900  -21.3264  -14.0452 C   0  0  0  0  0  0  0  0  0  0  0  0
   21.7063  -20.6626  -12.7182 C   0  0  2  0  0  0  0  0  0  0  0  0
   22.9849  -20.7328  -12.0008 N   0  0  0  0  0  0  0  0  0  0  0  0
   20.6058  -21.1178  -11.8408 C   0  0  0  0  0  0  0  0  0  0  0  0
   20.6247  -22.1230  -11.0978 O   0  0  0  0  0  0  0  0  0  0  0  0
   19.3859  -20.4005  -11.7829 O   0  0  0  0  0  0  0  0  0  0  0  0
  2  1  1  6
  2  3  1  0
  4  3  1  0
  5  4  2  0
  6  5  1  0
  7  6  1  0
  7  8  2  0
  8  4  1  0
  9  2  1  0
  9 10  2  0
 12 11  1  0
 13 14  1  0
 13 12  1  0
 15 14  1  1
 15 16  1  0
 16  9  1  0
 17 24  1  0
 17 15  1  0
 18 17  2  0
 20 19  1  0
 21 20  1  0
 22 21  1  0
 23 22  1  6
 23 24  1  0
 23 25  1  0
 25 27  1  0
 26 25  2  0
M  END
$$$$
