HMM.pdb
     RDKit          3D

 27 27  0  0  1  0  0  0  0  0999 V2000
   21.5366  -15.0864  -18.5209 N   0  0  0  0  0  0  0  0  0  0  0  0
   20.5101  -14.1557  -18.1441 C   0  0  1  0  0  0  0  0  0  0  0  0
   19.7334  -14.6703  -16.9615 C   0  0  0  0  0  0  0  0  0  0  0  0
   19.0336  -15.9389  -17.3102 C   0  0  0  0  0  0  0  0  0  0  0  0
   17.7778  -16.0457  -17.8522 C   0  0  0  0  0  0  0  0  0  0  0  0
   17.5207  -17.3590  -18.0135 N   0  0  0  0  0  0  0  0  0  0  0  0
   18.5833  -18.0318  -17.5848 C   0  0  0  0  0  0  0  0  0  0  0  0
   19.5184  -17.1804  -17.1511 N   0  0  0  0  0  0  0  0  0  0  0  0
   21.0123  -12.7901  -17.9296 C   0  0  0  0  0  0  0  0  0  0  0  0
   22.0655  -12.6570  -17.2504 O   0  0  0  0  0  0  0  0  0  0  0  0
   21.2092   -5.2774  -20.1853 C   0  0  0  0  0  0  0  0  0  0  0  0
   20.4277   -6.9130  -20.4486 S   0  0  0  0  0  0  0  0  0  0  0  0
   21.0813   -8.0286  -19.2100 C   0  0  0  0  0  0  0  0  0  0  0  0
   20.4926   -9.4166  -19.3024 C   0  0  0  0  0  0  0  0  0  0  0  0
   21.0034  -10.3223  -18.2125 C   0  0  2  0  0  0  0  0  0  0  0  0
   20.4042  -11.6249  -18.4260 N   0  0  0  0  0  0  0  0  0  0  0  0
   20.5723   -9.8230  -16.8749 C   0  0  0  0  0  0  0  0  0  0  0  0
   19.3858  -10.0190  -16.4600 O   0  0  0  0  0  0  0  0  0  0  0  0
   22.5309  -11.4633  -11.4612 C   0  0  0  0  0  0  0  0  0  0  0  0
   22.0698   -9.8227  -10.9000 S   0  0  0  0  0  0  0  0  0  0  0  0
   21.2405   -8.9247  -12.2416 C   0  0  0  0  0  0  0  0  0  0  0  0
   21.7344   -9.3714  -13.5903 C   0  0  0  0  0  0  0  0  0  0  0  0
   20.9990   -8.6667  -14.6724 C   0  0  2  0  0  0  0  0  0  0  0  0
   21.4381   -9.1137  -15.9997 N   0  0  0  0  0  0  0  0  0  0  0  0
   21.0149   -7.1892  -14.6029 C   0  0  0  0  0  0  0  0  0  0  0  0
   21.7445   -6.4286  -15.2753 O   0  0  0  0  0  0  0  0  0  0  0  0
   20.1524   -6.4996  -13.7161 O   0  0  0  0  0  0  0  0  0  0  0  0
  2  1  1  1
  2  3  1  0
  4  3  1  0
  5  4  2  0
  6  5  1  0
  7  6  1  0
  7  8  2  0
  8  4  1  0
  9  2  1  0
  9 10  2  0
 12 11  1  0
 13 14  1  0
 13 12  1  0
 15 14  1  6
 15 16  1  0
 16  9  1  0
 17 24  1  0
 17 15  1  0
 18 17  2  0
 20 19  1  0
 21 20  1  0
 22 21  1  0
 23 22  1  1
 23 24  1  0
 23 25  1  0
 25 27  1  0
 26 25  2  0
M  END
$$$$
