HMM.pdb
     RDKit          3D

 27 27  0  0  1  0  0  0  0  0999 V2000
   17.7323   -8.8059  -10.7675 N   0  0  0  0  0  0  0  0  0  0  0  0
   17.8617   -7.3808  -10.6488 C   0  0  1  0  0  0  0  0  0  0  0  0
   18.6233   -6.8164  -11.8185 C   0  0  0  0  0  0  0  0  0  0  0  0
   19.8887   -7.5744  -12.0305 C   0  0  0  0  0  0  0  0  0  0  0  0
   20.3204   -8.6474  -11.2927 C   0  0  0  0  0  0  0  0  0  0  0  0
   21.5032   -9.0384  -11.8073 N   0  0  0  0  0  0  0  0  0  0  0  0
   21.7847   -8.2317  -12.8249 C   0  0  0  0  0  0  0  0  0  0  0  0
   20.8091   -7.3303  -12.9765 N   0  0  0  0  0  0  0  0  0  0  0  0
   16.5780   -6.6952  -10.4364 C   0  0  0  0  0  0  0  0  0  0  0  0
   15.6594   -6.9068  -11.2730 O   0  0  0  0  0  0  0  0  0  0  0  0
   12.3940   -9.3354   -7.1276 C   0  0  0  0  0  0  0  0  0  0  0  0
   12.9179   -7.6146   -6.7817 S   0  0  0  0  0  0  0  0  0  0  0  0
   13.7371   -6.9952   -8.2483 C   0  0  0  0  0  0  0  0  0  0  0  0
   14.3348   -5.6221   -8.0500 C   0  0  0  0  0  0  0  0  0  0  0  0
   15.0339   -5.1245   -9.2879 C   0  0  2  0  0  0  0  0  0  0  0  0
   16.3016   -5.8227   -9.3704 N   0  0  0  0  0  0  0  0  0  0  0  0
   15.3114   -3.6631   -9.1782 C   0  0  0  0  0  0  0  0  0  0  0  0
   14.3683   -2.8375   -8.9606 O   0  0  0  0  0  0  0  0  0  0  0  0
   18.2429    2.4710   -6.0075 C   0  0  0  0  0  0  0  0  0  0  0  0
   17.9848    0.6962   -6.0611 S   0  0  0  0  0  0  0  0  0  0  0  0
   17.5229    0.1927   -7.7425 C   0  0  0  0  0  0  0  0  0  0  0  0
   17.2475   -1.2840   -7.8186 C   0  0  0  0  0  0  0  0  0  0  0  0
   16.8590   -1.6696   -9.2003 C   0  0  2  0  0  0  0  0  0  0  0  0
   16.6151   -3.1130   -9.3068 N   0  0  0  0  0  0  0  0  0  0  0  0
   17.7781   -1.2292  -10.2723 C   0  0  0  0  0  0  0  0  0  0  0  0
   18.3278   -1.9663  -11.1193 O   0  0  0  0  0  0  0  0  0  0  0  0
   18.1150    0.1389  -10.4166 O   0  0  0  0  0  0  0  0  0  0  0  0
  2  1  1  6
  2  3  1  0
  4  3  1  0
  5  4  2  0
  6  5  1  0
  7  6  1  0
  7  8  2  0
  8  4  1  0
  9  2  1  0
  9 10  2  0
 12 11  1  0
 13 14  1  0
 13 12  1  0
 15 14  1  1
 15 16  1  0
 16  9  1  0
 17 24  1  0
 17 15  1  0
 18 17  2  0
 20 19  1  0
 21 20  1  0
 22 21  1  0
 23 22  1  1
 23 24  1  0
 23 25  1  0
 25 27  1  0
 26 25  2  0
M  END
$$$$
