MPW.pdb
     RDKit          3D

 30 32  0  0  1  0  0  0  0  0999 V2000
   21.0624  -23.0534  -18.9245 C   0  0  0  0  0  0  0  0  0  0  0  0
   21.9798  -22.9281  -17.3587 S   0  0  0  0  0  0  0  0  0  0  0  0
   23.7456  -22.6472  -17.6522 C   0  0  0  0  0  0  0  0  0  0  0  0
   24.4492  -22.3764  -16.3582 C   0  0  0  0  0  0  0  0  0  0  0  0
   25.9266  -22.0868  -16.5268 C   0  0  2  0  0  0  0  0  0  0  0  0
   26.5435  -23.1126  -17.2937 N   0  0  0  0  0  0  0  0  0  0  0  0
   26.5771  -21.6733  -15.2976 C   0  0  0  0  0  0  0  0  0  0  0  0
   27.0028  -22.6347  -14.5551 O   0  0  0  0  0  0  0  0  0  0  0  0
   26.8001  -20.3393  -14.8127 N   0  0  0  0  0  0  0  0  0  0  0  0
   26.5343  -19.1861  -15.6172 C   0  0  0  0  0  0  0  0  0  0  0  0
   27.4800  -18.1180  -15.0277 C   0  0  0  0  0  0  0  0  0  0  0  0
   27.5165  -18.4731  -13.5673 C   0  0  0  0  0  0  0  0  0  0  0  0
   27.3015  -19.9451  -13.5542 C   0  0  1  0  0  0  0  0  0  0  0  0
   26.4704  -20.3753  -12.3982 C   0  0  0  0  0  0  0  0  0  0  0  0
   25.2381  -20.4679  -12.4267 O   0  0  0  0  0  0  0  0  0  0  0  0
   27.1563  -20.6934  -11.2036 N   0  0  0  0  0  0  0  0  0  0  0  0
   26.4962  -21.0315   -9.9459 C   0  0  1  0  0  0  0  0  0  0  0  0
   27.5957  -21.0906   -8.9215 C   0  0  0  0  0  0  0  0  0  0  0  0
   27.1711  -20.8550   -7.5305 C   0  0  0  0  0  0  0  0  0  0  0  0
   25.9399  -21.2269   -7.0168 C   0  0  0  0  0  0  0  0  0  0  0  0
   25.8762  -20.8323   -5.7357 N   0  0  0  0  0  0  0  0  0  0  0  0
   27.0122  -20.2151   -5.3768 C   0  0  0  0  0  0  0  0  0  0  0  0
   27.4068  -19.6598   -4.1729 C   0  0  0  0  0  0  0  0  0  0  0  0
   28.6586  -19.0968   -4.0806 C   0  0  0  0  0  0  0  0  0  0  0  0
   29.4712  -19.1070   -5.1888 C   0  0  0  0  0  0  0  0  0  0  0  0
   29.0743  -19.6600   -6.3852 C   0  0  0  0  0  0  0  0  0  0  0  0
   27.8318  -20.2250   -6.4978 C   0  0  0  0  0  0  0  0  0  0  0  0
   25.3557  -20.1986   -9.6549 C   0  0  0  0  0  0  0  0  0  0  0  0
   24.2693  -20.6872   -9.2748 O   0  0  0  0  0  0  0  0  0  0  0  0
   25.4283  -18.8205   -9.7882 O   0  0  0  0  0  0  0  0  0  0  0  0
  1  2  1  0
  2  3  1  0
  4  3  1  0
  4  5  1  0
  5  7  1  0
  5  6  1  1
  7  8  2  0
  9 13  1  0
  9  7  1  0
 10  9  1  0
 11 10  1  0
 11 12  1  0
 12 13  1  0
 13 14  1  1
 14 15  2  0
 16 14  1  0
 16 17  1  0
 17 28  1  0
 17 18  1  1
 19 18  1  0
 20 19  2  0
 21 20  1  0
 22 21  1  0
 22 27  2  0
 23 22  1  0
 24 23  2  0
 24 25  1  0
 25 26  2  0
 26 27  1  0
 27 19  1  0
 28 29  2  0
 28 30  1  0
M  END
$$$$
