MPW.pdb
     RDKit          3D

 30 32  0  0  1  0  0  0  0  0999 V2000
   28.3917  -23.3208  -21.2791 C   0  0  0  0  0  0  0  0  0  0  0  0
   26.8098  -23.4355  -20.3885 S   0  0  0  0  0  0  0  0  0  0  0  0
   27.0592  -23.9518  -18.6696 C   0  0  0  0  0  0  0  0  0  0  0  0
   25.7924  -23.7826  -17.8889 C   0  0  0  0  0  0  0  0  0  0  0  0
   25.9384  -24.1359  -16.4230 C   0  0  2  0  0  0  0  0  0  0  0  0
   26.3460  -25.4906  -16.2828 N   0  0  0  0  0  0  0  0  0  0  0  0
   24.8342  -23.6707  -15.6049 C   0  0  0  0  0  0  0  0  0  0  0  0
   24.0316  -24.5907  -15.1970 O   0  0  0  0  0  0  0  0  0  0  0  0
   24.5292  -22.3261  -15.2009 N   0  0  0  0  0  0  0  0  0  0  0  0
   25.4200  -21.2364  -15.4597 C   0  0  0  0  0  0  0  0  0  0  0  0
   25.0666  -20.2201  -14.3530 C   0  0  0  0  0  0  0  0  0  0  0  0
   23.5901  -20.4312  -14.1643 C   0  0  0  0  0  0  0  0  0  0  0  0
   23.3891  -21.8641  -14.5100 C   0  0  1  0  0  0  0  0  0  0  0  0
   22.1037  -22.0888  -15.2237 C   0  0  0  0  0  0  0  0  0  0  0  0
   21.9643  -21.9908  -16.4481 O   0  0  0  0  0  0  0  0  0  0  0  0
   20.9864  -22.4358  -14.4301 N   0  0  0  0  0  0  0  0  0  0  0  0
   19.6501  -22.6863  -14.9627 C   0  0  1  0  0  0  0  0  0  0  0  0
   19.3974  -24.1510  -14.7337 C   0  0  0  0  0  0  0  0  0  0  0  0
   19.2014  -24.5418  -13.3267 C   0  0  0  0  0  0  0  0  0  0  0  0
   18.3950  -23.8581  -12.4321 C   0  0  0  0  0  0  0  0  0  0  0  0
   18.4735  -24.4655  -11.2379 N   0  0  0  0  0  0  0  0  0  0  0  0
   19.2966  -25.5232  -11.3017 C   0  0  0  0  0  0  0  0  0  0  0  0
   19.6719  -26.4454  -10.3414 C   0  0  0  0  0  0  0  0  0  0  0  0
   20.5339  -27.4576  -10.6946 C   0  0  0  0  0  0  0  0  0  0  0  0
   20.9907  -27.5149  -11.9894 C   0  0  0  0  0  0  0  0  0  0  0  0
   20.6154  -26.5946  -12.9418 C   0  0  0  0  0  0  0  0  0  0  0  0
   19.7584  -25.5791  -12.6101 C   0  0  0  0  0  0  0  0  0  0  0  0
   18.6587  -21.7544  -14.4854 C   0  0  0  0  0  0  0  0  0  0  0  0
   17.5024  -21.7295  -14.9607 O   0  0  0  0  0  0  0  0  0  0  0  0
   18.9583  -20.8505  -13.4777 O   0  0  0  0  0  0  0  0  0  0  0  0
  1  2  1  0
  2  3  1  0
  4  3  1  0
  4  5  1  0
  5  7  1  0
  5  6  1  6
  7  8  2  0
  9 13  1  0
  9  7  1  0
 10  9  1  0
 11 10  1  0
 11 12  1  0
 12 13  1  0
 13 14  1  6
 14 15  2  0
 16 14  1  0
 16 17  1  0
 17 28  1  0
 17 18  1  1
 19 18  1  0
 20 19  2  0
 21 20  1  0
 22 21  1  0
 22 27  2  0
 23 22  1  0
 24 23  2  0
 24 25  1  0
 25 26  2  0
 26 27  1  0
 27 19  1  0
 28 29  2  0
 28 30  1  0
M  END
$$$$
