MPW.pdb
     RDKit          3D

 30 32  0  0  1  0  0  0  0  0999 V2000
   24.5349  -23.4842  -20.8585 C   0  0  0  0  0  0  0  0  0  0  0  0
   24.7330  -23.2874  -19.0610 S   0  0  0  0  0  0  0  0  0  0  0  0
   26.3849  -22.6697  -18.6455 C   0  0  0  0  0  0  0  0  0  0  0  0
   26.5304  -22.5379  -17.1608 C   0  0  0  0  0  0  0  0  0  0  0  0
   27.8874  -22.0170  -16.7340 C   0  0  2  0  0  0  0  0  0  0  0  0
   28.9069  -22.9302  -17.1188 N   0  0  0  0  0  0  0  0  0  0  0  0
   27.9087  -21.5084  -15.3754 C   0  0  0  0  0  0  0  0  0  0  0  0
   28.2076  -22.3756  -14.4724 O   0  0  0  0  0  0  0  0  0  0  0  0
   27.6388  -20.1728  -14.9197 N   0  0  0  0  0  0  0  0  0  0  0  0
   27.3762  -19.1000  -15.8297 C   0  0  0  0  0  0  0  0  0  0  0  0
   27.7990  -17.8480  -15.0320 C   0  0  0  0  0  0  0  0  0  0  0  0
   27.4506  -18.2194  -13.6175 C   0  0  0  0  0  0  0  0  0  0  0  0
   27.6017  -19.6991  -13.5912 C   0  0  1  0  0  0  0  0  0  0  0  0
   26.5732  -20.3479  -12.7348 C   0  0  0  0  0  0  0  0  0  0  0  0
   25.4335  -20.6356  -13.1176 O   0  0  0  0  0  0  0  0  0  0  0  0
   26.9469  -20.6446  -11.4041 N   0  0  0  0  0  0  0  0  0  0  0  0
   26.0823  -21.3235  -10.4430 C   0  0  1  0  0  0  0  0  0  0  0  0
   26.9844  -21.7242   -9.3083 C   0  0  0  0  0  0  0  0  0  0  0  0
   27.1364  -20.7189   -8.2421 C   0  0  0  0  0  0  0  0  0  0  0  0
   26.5171  -19.4802   -8.2434 C   0  0  0  0  0  0  0  0  0  0  0  0
   26.8999  -18.8114   -7.1447 N   0  0  0  0  0  0  0  0  0  0  0  0
   27.7461  -19.5532   -6.4139 C   0  0  0  0  0  0  0  0  0  0  0  0
   28.3821  -19.2935   -5.2133 C   0  0  0  0  0  0  0  0  0  0  0  0
   29.1977  -20.2601   -4.6719 C   0  0  0  0  0  0  0  0  0  0  0  0
   29.3503  -21.4486   -5.3445 C   0  0  0  0  0  0  0  0  0  0  0  0
   28.7160  -21.7027   -6.5395 C   0  0  0  0  0  0  0  0  0  0  0  0
   27.9003  -20.7533   -7.0953 C   0  0  0  0  0  0  0  0  0  0  0  0
   24.8906  -20.5794  -10.1186 C   0  0  0  0  0  0  0  0  0  0  0  0
   24.8110  -19.3490  -10.3271 O   0  0  0  0  0  0  0  0  0  0  0  0
   23.7880  -21.2088   -9.5615 O   0  0  0  0  0  0  0  0  0  0  0  0
  1  2  1  0
  2  3  1  0
  4  3  1  0
  4  5  1  0
  5  7  1  0
  5  6  1  1
  7  8  2  0
  9 13  1  0
  9  7  1  0
 10  9  1  0
 11 10  1  0
 11 12  1  0
 12 13  1  0
 13 14  1  1
 14 15  2  0
 16 14  1  0
 16 17  1  0
 17 28  1  0
 17 18  1  1
 19 18  1  0
 20 19  2  0
 21 20  1  0
 22 21  1  0
 22 27  2  0
 23 22  1  0
 24 23  2  0
 24 25  1  0
 25 26  2  0
 26 27  1  0
 27 19  1  0
 28 29  2  0
 28 30  1  0
M  END
$$$$
