MPW.pdb
     RDKit          3D

 30 32  0  0  1  0  0  0  0  0999 V2000
   15.7554  -19.3271  -18.6820 C   0  0  0  0  0  0  0  0  0  0  0  0
   16.7354  -17.9436  -18.0232 S   0  0  0  0  0  0  0  0  0  0  0  0
   16.6710  -16.5081  -19.1271 C   0  0  0  0  0  0  0  0  0  0  0  0
   17.4704  -15.3784  -18.5551 C   0  0  0  0  0  0  0  0  0  0  0  0
   18.7095  -15.0500  -19.3624 C   0  0  2  0  0  0  0  0  0  0  0  0
   19.6220  -16.1396  -19.3260 N   0  0  0  0  0  0  0  0  0  0  0  0
   19.2293  -13.7200  -19.1058 C   0  0  0  0  0  0  0  0  0  0  0  0
   20.1397  -13.6554  -18.1982 O   0  0  0  0  0  0  0  0  0  0  0  0
   18.8561  -12.4815  -19.7312 N   0  0  0  0  0  0  0  0  0  0  0  0
   17.9205  -12.4304  -20.8128 C   0  0  0  0  0  0  0  0  0  0  0  0
   18.3129  -11.1375  -21.5592 C   0  0  0  0  0  0  0  0  0  0  0  0
   18.7817  -10.2394  -20.4484 C   0  0  0  0  0  0  0  0  0  0  0  0
   19.3193  -11.1829  -19.4316 C   0  0  1  0  0  0  0  0  0  0  0  0
   19.0290  -10.7305  -18.0448 C   0  0  0  0  0  0  0  0  0  0  0  0
   18.0629  -11.1170  -17.3775 O   0  0  0  0  0  0  0  0  0  0  0  0
   19.9295   -9.8007  -17.4762 N   0  0  0  0  0  0  0  0  0  0  0  0
   19.7195   -9.1379  -16.1922 C   0  0  1  0  0  0  0  0  0  0  0  0
   21.0302   -9.2547  -15.4640 C   0  0  0  0  0  0  0  0  0  0  0  0
   21.1835   -8.3638  -14.3007 C   0  0  0  0  0  0  0  0  0  0  0  0
   20.8020   -8.6924  -13.0105 C   0  0  0  0  0  0  0  0  0  0  0  0
   21.0535   -7.6436  -12.2118 N   0  0  0  0  0  0  0  0  0  0  0  0
   21.5862   -6.6334  -12.9162 C   0  0  0  0  0  0  0  0  0  0  0  0
   22.0139   -5.3768  -12.5270 C   0  0  0  0  0  0  0  0  0  0  0  0
   22.5457   -4.5338  -13.4751 C   0  0  0  0  0  0  0  0  0  0  0  0
   22.6323   -4.9717  -14.7747 C   0  0  0  0  0  0  0  0  0  0  0  0
   22.2048   -6.2228  -15.1580 C   0  0  0  0  0  0  0  0  0  0  0  0
   21.6720   -7.0768  -14.2293 C   0  0  0  0  0  0  0  0  0  0  0  0
   19.1371   -7.8244  -16.3135 C   0  0  0  0  0  0  0  0  0  0  0  0
   19.4050   -7.0772  -17.2797 O   0  0  0  0  0  0  0  0  0  0  0  0
   18.2558   -7.3454  -15.3565 O   0  0  0  0  0  0  0  0  0  0  0  0
  1  2  1  0
  2  3  1  0
  4  3  1  0
  4  5  1  0
  5  7  1  0
  5  6  1  1
  7  8  2  0
  9 13  1  0
  9  7  1  0
 10  9  1  0
 11 10  1  0
 11 12  1  0
 12 13  1  0
 13 14  1  1
 14 15  2  0
 16 14  1  0
 16 17  1  0
 17 28  1  0
 17 18  1  6
 19 18  1  0
 20 19  2  0
 21 20  1  0
 22 21  1  0
 22 27  2  0
 23 22  1  0
 24 23  2  0
 24 25  1  0
 25 26  2  0
 26 27  1  0
 27 19  1  0
 28 29  2  0
 28 30  1  0
M  END
$$$$
