MPW.pdb
     RDKit          3D

 30 32  0  0  1  0  0  0  0  0999 V2000
   26.7697  -13.9294  -15.8057 C   0  0  0  0  0  0  0  0  0  0  0  0
   25.8696  -15.4993  -15.6210 S   0  0  0  0  0  0  0  0  0  0  0  0
   25.6545  -15.9321  -13.8747 C   0  0  0  0  0  0  0  0  0  0  0  0
   25.0378  -17.2911  -13.7499 C   0  0  0  0  0  0  0  0  0  0  0  0
   25.3164  -18.1886  -14.9382 C   0  0  2  0  0  0  0  0  0  0  0  0
   24.2599  -18.0920  -15.8846 N   0  0  0  0  0  0  0  0  0  0  0  0
   25.7749  -19.5136  -14.5652 C   0  0  0  0  0  0  0  0  0  0  0  0
   24.8436  -20.3473  -14.2583 O   0  0  0  0  0  0  0  0  0  0  0  0
   27.1241  -20.0027  -14.4954 N   0  0  0  0  0  0  0  0  0  0  0  0
   28.2477  -19.1748  -14.8115 C   0  0  0  0  0  0  0  0  0  0  0  0
   29.3258  -20.1914  -15.2437 C   0  0  0  0  0  0  0  0  0  0  0  0
   29.0289  -21.3827  -14.3759 C   0  0  0  0  0  0  0  0  0  0  0  0
   27.5616  -21.2976  -14.1457 C   0  0  1  0  0  0  0  0  0  0  0  0
   27.1892  -21.7226  -12.7699 C   0  0  0  0  0  0  0  0  0  0  0  0
   27.8460  -22.5176  -12.0883 O   0  0  0  0  0  0  0  0  0  0  0  0
   26.0060  -21.1682  -12.2300 N   0  0  0  0  0  0  0  0  0  0  0  0
   25.6177  -21.2762  -10.8266 C   0  0  1  0  0  0  0  0  0  0  0  0
   26.8018  -20.7770  -10.0454 C   0  0  0  0  0  0  0  0  0  0  0  0
   26.5664  -20.5830   -8.6040 C   0  0  0  0  0  0  0  0  0  0  0  0
   25.4095  -20.9628   -7.9443 C   0  0  0  0  0  0  0  0  0  0  0  0
   25.5190  -20.6086   -6.6544 N   0  0  0  0  0  0  0  0  0  0  0  0
   26.6990  -20.0109   -6.4296 C   0  0  0  0  0  0  0  0  0  0  0  0
   27.2544  -19.4968   -5.2718 C   0  0  0  0  0  0  0  0  0  0  0  0
   28.5135  -18.9454   -5.3279 C   0  0  0  0  0  0  0  0  0  0  0  0
   29.1731  -18.9257   -6.5333 C   0  0  0  0  0  0  0  0  0  0  0  0
   28.6164  -19.4377   -7.6834 C   0  0  0  0  0  0  0  0  0  0  0  0
   27.3639  -19.9905   -7.6486 C   0  0  0  0  0  0  0  0  0  0  0  0
   24.3324  -20.6884  -10.5406 C   0  0  0  0  0  0  0  0  0  0  0  0
   23.7172  -20.9448   -9.4826 O   0  0  0  0  0  0  0  0  0  0  0  0
   23.7342  -19.8147  -11.4356 O   0  0  0  0  0  0  0  0  0  0  0  0
  1  2  1  0
  2  3  1  0
  4  3  1  0
  4  5  1  0
  5  7  1  0
  5  6  1  1
  7  8  2  0
  9 13  1  0
  9  7  1  0
 10  9  1  0
 11 10  1  0
 11 12  1  0
 12 13  1  0
 13 14  1  1
 14 15  2  0
 16 14  1  0
 16 17  1  0
 17 28  1  0
 17 18  1  1
 19 18  1  0
 20 19  2  0
 21 20  1  0
 22 21  1  0
 22 27  2  0
 23 22  1  0
 24 23  2  0
 24 25  1  0
 25 26  2  0
 26 27  1  0
 27 19  1  0
 28 29  2  0
 28 30  1  0
M  END
$$$$
