MPW.pdb
     RDKit          3D

 30 32  0  0  1  0  0  0  0  0999 V2000
   28.0485  -25.7358  -16.6424 C   0  0  0  0  0  0  0  0  0  0  0  0
   26.8262  -25.0615  -17.8086 S   0  0  0  0  0  0  0  0  0  0  0  0
   26.8902  -23.2512  -17.8543 C   0  0  0  0  0  0  0  0  0  0  0  0
   27.1198  -22.7061  -16.4785 C   0  0  0  0  0  0  0  0  0  0  0  0
   27.1784  -21.1930  -16.4338 C   0  0  2  0  0  0  0  0  0  0  0  0
   28.3533  -20.7279  -17.0854 N   0  0  0  0  0  0  0  0  0  0  0  0
   26.8617  -20.6418  -15.1297 C   0  0  0  0  0  0  0  0  0  0  0  0
   27.8744  -20.4418  -14.3609 O   0  0  0  0  0  0  0  0  0  0  0  0
   25.5724  -20.2978  -14.5970 N   0  0  0  0  0  0  0  0  0  0  0  0
   24.3928  -20.2986  -15.4072 C   0  0  0  0  0  0  0  0  0  0  0  0
   23.4680  -19.2946  -14.6866 C   0  0  0  0  0  0  0  0  0  0  0  0
   23.8256  -19.4898  -13.2394 C   0  0  0  0  0  0  0  0  0  0  0  0
   25.2530  -19.9071  -13.2794 C   0  0  1  0  0  0  0  0  0  0  0  0
   25.5633  -20.9273  -12.2425 C   0  0  0  0  0  0  0  0  0  0  0  0
   25.4818  -22.1473  -12.4242 O   0  0  0  0  0  0  0  0  0  0  0  0
   25.9757  -20.4463  -10.9787 N   0  0  0  0  0  0  0  0  0  0  0  0
   26.1618  -21.2910   -9.8023 C   0  0  1  0  0  0  0  0  0  0  0  0
   27.5404  -20.9697   -9.2944 C   0  0  0  0  0  0  0  0  0  0  0  0
   27.5849  -20.0963   -8.1088 C   0  0  0  0  0  0  0  0  0  0  0  0
   26.8472  -18.9326   -7.9687 C   0  0  0  0  0  0  0  0  0  0  0  0
   27.1541  -18.3734   -6.7879 N   0  0  0  0  0  0  0  0  0  0  0  0
   28.0631  -19.1162   -6.1381 C   0  0  0  0  0  0  0  0  0  0  0  0
   28.6612  -18.9494   -4.9020 C   0  0  0  0  0  0  0  0  0  0  0  0
   29.5632  -19.8934   -4.4686 C   0  0  0  0  0  0  0  0  0  0  0  0
   29.8367  -20.9678   -5.2804 C   0  0  0  0  0  0  0  0  0  0  0  0
   29.2398  -21.1296   -6.5102 C   0  0  0  0  0  0  0  0  0  0  0  0
   28.3395  -20.2008   -6.9600 C   0  0  0  0  0  0  0  0  0  0  0  0
   25.0696  -21.2159   -8.8640 C   0  0  0  0  0  0  0  0  0  0  0  0
   24.2271  -20.2931   -8.9139 O   0  0  0  0  0  0  0  0  0  0  0  0
   24.9179  -22.1706   -7.8702 O   0  0  0  0  0  0  0  0  0  0  0  0
  1  2  1  0
  2  3  1  0
  4  3  1  0
  4  5  1  0
  5  7  1  0
  5  6  1  1
  7  8  2  0
  9 13  1  0
  9  7  1  0
 10  9  1  0
 11 10  1  0
 11 12  1  0
 12 13  1  0
 13 14  1  1
 14 15  2  0
 16 14  1  0
 16 17  1  0
 17 28  1  0
 17 18  1  1
 19 18  1  0
 20 19  2  0
 21 20  1  0
 22 21  1  0
 22 27  2  0
 23 22  1  0
 24 23  2  0
 24 25  1  0
 25 26  2  0
 26 27  1  0
 27 19  1  0
 28 29  2  0
 28 30  1  0
M  END
$$$$
