MPW.pdb
     RDKit          3D

 30 32  0  0  1  0  0  0  0  0999 V2000
   31.0072  -18.7646  -17.7452 C   0  0  0  0  0  0  0  0  0  0  0  0
   31.1250  -16.9581  -17.5676 S   0  0  0  0  0  0  0  0  0  0  0  0
   29.4902  -16.1813  -17.6520 C   0  0  0  0  0  0  0  0  0  0  0  0
   28.4943  -16.9844  -16.8737 C   0  0  0  0  0  0  0  0  0  0  0  0
   27.1015  -16.3887  -16.8852 C   0  0  2  0  0  0  0  0  0  0  0  0
   27.1273  -15.0700  -16.3544 N   0  0  0  0  0  0  0  0  0  0  0  0
   26.0814  -17.2975  -16.3969 C   0  0  0  0  0  0  0  0  0  0  0  0
   26.0874  -17.4921  -15.1245 O   0  0  0  0  0  0  0  0  0  0  0  0
   25.0791  -17.9995  -17.1498 N   0  0  0  0  0  0  0  0  0  0  0  0
   24.8503  -17.7356  -18.5376 C   0  0  0  0  0  0  0  0  0  0  0  0
   23.3786  -18.1550  -18.7395 C   0  0  0  0  0  0  0  0  0  0  0  0
   23.2249  -19.3058  -17.7843 C   0  0  0  0  0  0  0  0  0  0  0  0
   24.1875  -18.9933  -16.6939 C   0  0  1  0  0  0  0  0  0  0  0  0
   24.8474  -20.2177  -16.1671 C   0  0  0  0  0  0  0  0  0  0  0  0
   25.8958  -20.6899  -16.6209 O   0  0  0  0  0  0  0  0  0  0  0  0
   24.2172  -20.8631  -15.0785 N   0  0  0  0  0  0  0  0  0  0  0  0
   24.7493  -22.0466  -14.4090 C   0  0  1  0  0  0  0  0  0  0  0  0
   26.0624  -21.6137  -13.8173 C   0  0  0  0  0  0  0  0  0  0  0  0
   26.0397  -21.3428  -12.3694 C   0  0  0  0  0  0  0  0  0  0  0  0
   25.6997  -22.2776  -11.4059 C   0  0  0  0  0  0  0  0  0  0  0  0
   25.7522  -21.6869  -10.2020 N   0  0  0  0  0  0  0  0  0  0  0  0
   26.1131  -20.4005  -10.3250 C   0  0  0  0  0  0  0  0  0  0  0  0
   26.3099  -19.4141   -9.3753 C   0  0  0  0  0  0  0  0  0  0  0  0
   26.7030  -18.1627   -9.7900 C   0  0  0  0  0  0  0  0  0  0  0  0
   26.8857  -17.9389  -11.1335 C   0  0  0  0  0  0  0  0  0  0  0  0
   26.6881  -18.9231  -12.0754 C   0  0  0  0  0  0  0  0  0  0  0  0
   26.2962  -20.1754  -11.6830 C   0  0  0  0  0  0  0  0  0  0  0  0
   23.7992  -22.6850  -13.5321 C   0  0  0  0  0  0  0  0  0  0  0  0
   22.8454  -22.0516  -13.0294 O   0  0  0  0  0  0  0  0  0  0  0  0
   23.9140  -24.0302  -13.2167 O   0  0  0  0  0  0  0  0  0  0  0  0
  1  2  1  0
  2  3  1  0
  4  3  1  0
  4  5  1  0
  5  7  1  0
  5  6  1  1
  7  8  2  0
  9 13  1  0
  9  7  1  0
 10  9  1  0
 11 10  1  0
 11 12  1  0
 12 13  1  0
 13 14  1  6
 14 15  2  0
 16 14  1  0
 16 17  1  0
 17 28  1  0
 17 18  1  1
 19 18  1  0
 20 19  2  0
 21 20  1  0
 22 21  1  0
 22 27  2  0
 23 22  1  0
 24 23  2  0
 24 25  1  0
 25 26  2  0
 26 27  1  0
 27 19  1  0
 28 29  2  0
 28 30  1  0
M  END
$$$$
