MPW.pdb
     RDKit          3D

 30 32  0  0  1  0  0  0  0  0999 V2000
   26.3374  -13.3757  -14.6714 C   0  0  0  0  0  0  0  0  0  0  0  0
   27.7944  -13.9803  -15.5771 S   0  0  0  0  0  0  0  0  0  0  0  0
   27.3874  -15.4312  -16.5833 C   0  0  0  0  0  0  0  0  0  0  0  0
   26.8543  -16.5298  -15.7165 C   0  0  0  0  0  0  0  0  0  0  0  0
   26.4336  -17.7592  -16.4953 C   0  0  2  0  0  0  0  0  0  0  0  0
   25.3516  -17.4446  -17.3622 N   0  0  0  0  0  0  0  0  0  0  0  0
   26.3226  -18.9512  -15.6757 C   0  0  0  0  0  0  0  0  0  0  0  0
   25.2023  -19.0854  -15.0563 O   0  0  0  0  0  0  0  0  0  0  0  0
   27.2980  -19.9862  -15.4716 N   0  0  0  0  0  0  0  0  0  0  0  0
   28.5191  -20.0344  -16.2163 C   0  0  0  0  0  0  0  0  0  0  0  0
   28.8939  -21.5315  -16.1845 C   0  0  0  0  0  0  0  0  0  0  0  0
   28.3922  -21.9732  -14.8379 C   0  0  0  0  0  0  0  0  0  0  0  0
   27.2334  -21.0770  -14.5790 C   0  0  1  0  0  0  0  0  0  0  0  0
   27.1361  -20.6941  -13.1451 C   0  0  0  0  0  0  0  0  0  0  0  0
   28.1059  -20.3909  -12.4412 O   0  0  0  0  0  0  0  0  0  0  0  0
   25.8425  -20.6831  -12.5749 N   0  0  0  0  0  0  0  0  0  0  0  0
   25.5539  -21.0558  -11.1929 C   0  0  1  0  0  0  0  0  0  0  0  0
   26.4527  -20.1928  -10.3510 C   0  0  0  0  0  0  0  0  0  0  0  0
   26.2315  -20.2864   -8.8974 C   0  0  0  0  0  0  0  0  0  0  0  0
   25.1827  -20.9745   -8.3105 C   0  0  0  0  0  0  0  0  0  0  0  0
   25.2670  -20.8251   -6.9795 N   0  0  0  0  0  0  0  0  0  0  0  0
   26.3270  -20.0681   -6.6577 C   0  0  0  0  0  0  0  0  0  0  0  0
   26.8171  -19.6605   -5.4301 C   0  0  0  0  0  0  0  0  0  0  0  0
   27.9544  -18.8874   -5.3931 C   0  0  0  0  0  0  0  0  0  0  0  0
   28.5618  -18.5485   -6.5783 C   0  0  0  0  0  0  0  0  0  0  0  0
   28.0704  -18.9555   -7.7979 C   0  0  0  0  0  0  0  0  0  0  0  0
   26.9391  -19.7253   -7.8561 C   0  0  0  0  0  0  0  0  0  0  0  0
   24.1459  -21.0575  -10.8817 C   0  0  0  0  0  0  0  0  0  0  0  0
   23.7109  -21.5623   -9.8236 O   0  0  0  0  0  0  0  0  0  0  0  0
   23.2239  -20.4960  -11.7516 O   0  0  0  0  0  0  0  0  0  0  0  0
  1  2  1  0
  2  3  1  0
  4  3  1  0
  4  5  1  0
  5  7  1  0
  5  6  1  1
  7  8  2  0
  9 13  1  0
  9  7  1  0
 10  9  1  0
 11 10  1  0
 11 12  1  0
 12 13  1  0
 13 14  1  1
 14 15  2  0
 16 14  1  0
 16 17  1  0
 17 28  1  0
 17 18  1  1
 19 18  1  0
 20 19  2  0
 21 20  1  0
 22 21  1  0
 22 27  2  0
 23 22  1  0
 24 23  2  0
 24 25  1  0
 25 26  2  0
 26 27  1  0
 27 19  1  0
 28 29  2  0
 28 30  1  0
M  END
$$$$
