QET.pdb
     RDKit          3D

 26 25  0  0  1  0  0  0  0  0999 V2000
   11.2542  -12.6363   19.8425 N   0  0  0  0  0  0  0  0  0  0  0  0
   10.4634  -12.8848   18.6842 C   0  0  0  0  0  0  0  0  0  0  0  0
   11.0204  -13.4034   17.7032 O   0  0  0  0  0  0  0  0  0  0  0  0
    9.0434  -12.5280   18.6857 C   0  0  0  0  0  0  0  0  0  0  0  0
    8.2207  -13.2618   19.6851 C   0  0  0  0  0  0  0  0  0  0  0  0
    8.4332  -14.7398   19.7181 C   0  0  2  0  0  0  0  0  0  0  0  0
    7.5893  -15.3403   18.6890 N   0  0  0  0  0  0  0  0  0  0  0  0
    8.0443  -15.2698   21.0683 C   0  0  0  0  0  0  0  0  0  0  0  0
    6.8195  -15.4751   21.2773 O   0  0  0  0  0  0  0  0  0  0  0  0
    9.0165  -15.5276   22.0649 N   0  0  0  0  0  0  0  0  0  0  0  0
    8.5346  -16.0200   23.3637 C   0  0  1  0  0  0  0  0  0  0  0  0
    9.1307  -17.3855   23.5809 C   0  0  0  0  0  0  0  0  0  0  0  0
   10.6029  -17.4598   23.4113 C   0  0  0  0  0  0  0  0  0  0  0  0
   11.1625  -18.8027   23.6135 C   0  0  0  0  0  0  0  0  0  0  0  0
   11.6001  -19.5092   22.6909 O   0  0  0  0  0  0  0  0  0  0  0  0
    8.9011  -15.0662   24.4353 C   0  0  0  0  0  0  0  0  0  0  0  0
   10.0283  -14.5287   24.4594 O   0  0  0  0  0  0  0  0  0  0  0  0
   11.2001  -19.3027   24.9160 O   0  0  0  0  0  0  0  0  0  0  0  0
    7.2629  -11.7283   25.5727 C   0  0  0  0  0  0  0  0  0  0  0  0
    7.2423  -12.7270   26.7037 C   0  0  1  0  0  0  0  0  0  0  0  0
    6.0124  -13.3806   26.6666 O   0  0  0  0  0  0  0  0  0  0  0  0
    8.3095  -13.7849   26.5317 C   0  0  2  0  0  0  0  0  0  0  0  0
    7.9878  -14.7252   25.4760 N   0  0  0  0  0  0  0  0  0  0  0  0
    8.5653  -14.5246   27.7857 C   0  0  0  0  0  0  0  0  0  0  0  0
    9.0108  -13.8948   28.9358 O   0  0  0  0  0  0  0  0  0  0  0  0
    8.3822  -15.7679   27.8435 O   0  0  0  0  0  0  0  0  0  0  0  0
  1  2  1  0
  2  4  1  0
  3  2  2  0
  4  5  1  0
  5  6  1  0
  6  7  1  6
  6  8  1  0
  8 10  1  0
  8  9  2  0
 10 11  1  0
 11 16  1  0
 11 12  1  1
 13 12  1  0
 13 14  1  0
 14 15  2  0
 16 17  2  0
 18 14  1  0
 20 19  1  6
 20 21  1  0
 20 22  1  0
 22 24  1  0
 22 23  1  6
 23 16  1  0
 24 25  1  0
 26 24  2  0
M  END
$$$$
