QET.pdb
     RDKit          3D

 26 25  0  0  1  0  0  0  0  0999 V2000
    7.1905  -12.9164   19.4467 N   0  0  0  0  0  0  0  0  0  0  0  0
    7.9047  -13.4305   18.3267 C   0  0  0  0  0  0  0  0  0  0  0  0
    7.3173  -13.4687   17.2334 O   0  0  0  0  0  0  0  0  0  0  0  0
    9.2847  -13.8896   18.4955 C   0  0  0  0  0  0  0  0  0  0  0  0
    9.8410  -13.6924   19.8613 C   0  0  0  0  0  0  0  0  0  0  0  0
   10.6467  -14.8343   20.3883 C   0  0  2  0  0  0  0  0  0  0  0  0
   10.7409  -15.8433   19.3372 N   0  0  0  0  0  0  0  0  0  0  0  0
    9.9613  -15.4153   21.5916 C   0  0  0  0  0  0  0  0  0  0  0  0
    9.0069  -16.2105   21.3847 O   0  0  0  0  0  0  0  0  0  0  0  0
   10.3725  -15.0815   22.9047 N   0  0  0  0  0  0  0  0  0  0  0  0
    9.7039  -15.7744   24.0158 C   0  0  1  0  0  0  0  0  0  0  0  0
    9.9497  -17.2499   23.8438 C   0  0  0  0  0  0  0  0  0  0  0  0
   11.3114  -17.6072   23.3750 C   0  0  0  0  0  0  0  0  0  0  0  0
   11.3996  -18.9294   22.7414 C   0  0  0  0  0  0  0  0  0  0  0  0
   11.7850  -19.1061   21.5744 O   0  0  0  0  0  0  0  0  0  0  0  0
   10.2108  -15.2640   25.3100 C   0  0  0  0  0  0  0  0  0  0  0  0
   10.8774  -15.9948   26.0725 O   0  0  0  0  0  0  0  0  0  0  0  0
   11.0279  -20.0405   23.4998 O   0  0  0  0  0  0  0  0  0  0  0  0
    7.7322  -12.2289   25.8621 C   0  0  0  0  0  0  0  0  0  0  0  0
    8.0024  -13.1627   27.0162 C   0  0  1  0  0  0  0  0  0  0  0  0
    7.2370  -14.3100   26.8184 O   0  0  0  0  0  0  0  0  0  0  0  0
    9.4502  -13.5988   27.0523 C   0  0  2  0  0  0  0  0  0  0  0  0
    9.9597  -13.9261   25.7349 N   0  0  0  0  0  0  0  0  0  0  0  0
    9.6618  -14.7471   27.9588 C   0  0  0  0  0  0  0  0  0  0  0  0
    9.7398  -16.0492   27.4939 O   0  0  0  0  0  0  0  0  0  0  0  0
    9.7789  -14.5698   29.1988 O   0  0  0  0  0  0  0  0  0  0  0  0
  1  2  1  0
  2  4  1  0
  3  2  2  0
  4  5  1  0
  5  6  1  0
  6  7  1  6
  6  8  1  0
  8 10  1  0
  8  9  2  0
 10 11  1  0
 11 16  1  0
 11 12  1  6
 13 12  1  0
 13 14  1  0
 14 15  2  0
 16 17  2  0
 18 14  1  0
 20 19  1  6
 20 21  1  0
 20 22  1  0
 22 24  1  0
 22 23  1  6
 23 16  1  0
 24 25  1  0
 26 24  2  0
M  END
$$$$
