QET.pdb
     RDKit          3D

 26 25  0  0  1  0  0  0  0  0999 V2000
    8.1268  -12.3951   18.1821 N   0  0  0  0  0  0  0  0  0  0  0  0
    7.8494  -13.6683   17.6071 C   0  0  0  0  0  0  0  0  0  0  0  0
    7.7987  -13.7457   16.3688 O   0  0  0  0  0  0  0  0  0  0  0  0
    7.6365  -14.8260   18.4777 C   0  0  0  0  0  0  0  0  0  0  0  0
    7.7024  -14.5273   19.9338 C   0  0  0  0  0  0  0  0  0  0  0  0
    9.0234  -14.7960   20.5767 C   0  0  2  0  0  0  0  0  0  0  0  0
    9.7122  -15.8115   19.7854 N   0  0  0  0  0  0  0  0  0  0  0  0
    8.8049  -15.3012   21.9739 C   0  0  0  0  0  0  0  0  0  0  0  0
    7.7052  -15.0257   22.5223 O   0  0  0  0  0  0  0  0  0  0  0  0
    9.7961  -16.0566   22.6462 N   0  0  0  0  0  0  0  0  0  0  0  0
    9.4967  -16.4890   24.0191 C   0  0  1  0  0  0  0  0  0  0  0  0
   10.4328  -17.6202   24.3528 C   0  0  0  0  0  0  0  0  0  0  0  0
   10.2960  -18.1607   25.7279 C   0  0  0  0  0  0  0  0  0  0  0  0
   11.2146  -19.2659   26.0316 C   0  0  0  0  0  0  0  0  0  0  0  0
   12.0240  -19.7296   25.2120 O   0  0  0  0  0  0  0  0  0  0  0  0
    9.6347  -15.3473   24.9517 C   0  0  0  0  0  0  0  0  0  0  0  0
   10.6477  -14.6172   24.9285 O   0  0  0  0  0  0  0  0  0  0  0  0
   11.1676  -19.8178   27.3126 O   0  0  0  0  0  0  0  0  0  0  0  0
    7.2530  -12.3422   25.5054 C   0  0  0  0  0  0  0  0  0  0  0  0
    7.4401  -13.0772   26.8099 C   0  0  1  0  0  0  0  0  0  0  0  0
    6.3760  -13.9657   26.9497 O   0  0  0  0  0  0  0  0  0  0  0  0
    8.7072  -13.9031   26.8067 C   0  0  2  0  0  0  0  0  0  0  0  0
    8.6229  -15.0375   25.9076 N   0  0  0  0  0  0  0  0  0  0  0  0
    9.0649  -14.3765   28.1606 C   0  0  0  0  0  0  0  0  0  0  0  0
    9.3863  -13.5032   29.1863 O   0  0  0  0  0  0  0  0  0  0  0  0
    9.0877  -15.6067   28.4227 O   0  0  0  0  0  0  0  0  0  0  0  0
  1  2  1  0
  2  4  1  0
  3  2  2  0
  4  5  1  0
  5  6  1  0
  6  7  1  6
  6  8  1  0
  8 10  1  0
  8  9  2  0
 10 11  1  0
 11 16  1  0
 11 12  1  1
 13 12  1  0
 13 14  1  0
 14 15  2  0
 16 17  2  0
 18 14  1  0
 20 19  1  6
 20 21  1  0
 20 22  1  0
 22 24  1  0
 22 23  1  6
 23 16  1  0
 24 25  1  0
 26 24  2  0
M  END
$$$$
