QET.pdb
     RDKit          3D

 26 25  0  0  1  0  0  0  0  0999 V2000
    8.7539  -14.2098   15.8005 N   0  0  0  0  0  0  0  0  0  0  0  0
    7.8169  -14.6180   16.7925 C   0  0  0  0  0  0  0  0  0  0  0  0
    7.4428  -15.8019   16.7833 O   0  0  0  0  0  0  0  0  0  0  0  0
    7.3323  -13.6467   17.7752 C   0  0  0  0  0  0  0  0  0  0  0  0
    7.2475  -14.1634   19.1679 C   0  0  0  0  0  0  0  0  0  0  0  0
    8.2443  -13.5873   20.1193 C   0  0  2  0  0  0  0  0  0  0  0  0
    9.5721  -13.7474   19.5336 N   0  0  0  0  0  0  0  0  0  0  0  0
    8.1718  -14.3249   21.4253 C   0  0  0  0  0  0  0  0  0  0  0  0
    7.0729  -14.3040   22.0402 O   0  0  0  0  0  0  0  0  0  0  0  0
    9.2943  -15.0153   21.9432 N   0  0  0  0  0  0  0  0  0  0  0  0
    9.1029  -15.7719   23.1892 C   0  0  1  0  0  0  0  0  0  0  0  0
   10.1482  -16.8549   23.2275 C   0  0  0  0  0  0  0  0  0  0  0  0
   10.1851  -17.6450   24.4830 C   0  0  0  0  0  0  0  0  0  0  0  0
   11.2167  -18.6904   24.5032 C   0  0  0  0  0  0  0  0  0  0  0  0
   12.4327  -18.4554   24.4148 O   0  0  0  0  0  0  0  0  0  0  0  0
    9.1894  -14.8614   24.3536 C   0  0  0  0  0  0  0  0  0  0  0  0
   10.1855  -14.1271   24.5227 O   0  0  0  0  0  0  0  0  0  0  0  0
   10.7978  -20.0157   24.6288 O   0  0  0  0  0  0  0  0  0  0  0  0
    7.2844  -11.8539   25.5248 C   0  0  0  0  0  0  0  0  0  0  0  0
    7.1079  -12.9331   26.5645 C   0  0  1  0  0  0  0  0  0  0  0  0
    5.9250  -13.6094   26.2737 O   0  0  0  0  0  0  0  0  0  0  0  0
    8.2245  -13.9516   26.5049 C   0  0  2  0  0  0  0  0  0  0  0  0
    8.1456  -14.7867   25.3223 N   0  0  0  0  0  0  0  0  0  0  0  0
    8.2592  -14.8087   27.7088 C   0  0  0  0  0  0  0  0  0  0  0  0
    8.5285  -14.3004   28.9685 O   0  0  0  0  0  0  0  0  0  0  0  0
    8.0413  -16.0446   27.6204 O   0  0  0  0  0  0  0  0  0  0  0  0
  1  2  1  0
  2  4  1  0
  3  2  2  0
  4  5  1  0
  5  6  1  0
  6  7  1  6
  6  8  1  0
  8 10  1  0
  8  9  2  0
 10 11  1  0
 11 16  1  0
 11 12  1  1
 13 12  1  0
 13 14  1  0
 14 15  2  0
 16 17  2  0
 18 14  1  0
 20 19  1  6
 20 21  1  0
 20 22  1  0
 22 24  1  0
 22 23  1  6
 23 16  1  0
 24 25  1  0
 26 24  2  0
M  END
$$$$
