QET.pdb
     RDKit          3D

 26 25  0  0  1  0  0  0  0  0999 V2000
    6.9772  -12.5602   17.4399 N   0  0  0  0  0  0  0  0  0  0  0  0
    7.5091  -13.7941   16.9675 C   0  0  0  0  0  0  0  0  0  0  0  0
    7.3913  -14.0503   15.7582 O   0  0  0  0  0  0  0  0  0  0  0  0
    8.1669  -14.7062   17.9051 C   0  0  0  0  0  0  0  0  0  0  0  0
    8.0694  -14.3030   19.3340 C   0  0  0  0  0  0  0  0  0  0  0  0
    9.2850  -14.5823   20.1555 C   0  0  2  0  0  0  0  0  0  0  0  0
   10.0070  -15.6876   19.5321 N   0  0  0  0  0  0  0  0  0  0  0  0
    8.8698  -14.9659   21.5467 C   0  0  0  0  0  0  0  0  0  0  0  0
    7.9352  -14.3061   22.0732 O   0  0  0  0  0  0  0  0  0  0  0  0
    9.5045  -16.0267   22.2374 N   0  0  0  0  0  0  0  0  0  0  0  0
    8.9873  -16.3660   23.5711 C   0  0  1  0  0  0  0  0  0  0  0  0
    9.6984  -17.6112   24.0302 C   0  0  0  0  0  0  0  0  0  0  0  0
    9.3069  -18.0949   25.3772 C   0  0  0  0  0  0  0  0  0  0  0  0
   10.0412  -19.2863   25.8231 C   0  0  0  0  0  0  0  0  0  0  0  0
    9.8772  -19.8170   26.9337 O   0  0  0  0  0  0  0  0  0  0  0  0
    9.1864  -15.2276   24.4967 C   0  0  0  0  0  0  0  0  0  0  0  0
   10.2846  -14.6364   24.5616 O   0  0  0  0  0  0  0  0  0  0  0  0
   10.9709  -19.8445   24.9445 O   0  0  0  0  0  0  0  0  0  0  0  0
    6.9095  -12.0205   24.8390 C   0  0  0  0  0  0  0  0  0  0  0  0
    7.0523  -12.7154   26.1708 C   0  0  1  0  0  0  0  0  0  0  0  0
    5.9433  -13.5425   26.3359 O   0  0  0  0  0  0  0  0  0  0  0  0
    8.2752  -13.6047   26.2064 C   0  0  2  0  0  0  0  0  0  0  0  0
    8.1388  -14.7635   25.3457 N   0  0  0  0  0  0  0  0  0  0  0  0
    8.5991  -14.0488   27.5786 C   0  0  0  0  0  0  0  0  0  0  0  0
    8.9263  -13.1555   28.5851 O   0  0  0  0  0  0  0  0  0  0  0  0
    8.5862  -15.2714   27.8748 O   0  0  0  0  0  0  0  0  0  0  0  0
  1  2  1  0
  2  4  1  0
  3  2  2  0
  4  5  1  0
  5  6  1  0
  6  7  1  6
  6  8  1  0
  8 10  1  0
  8  9  2  0
 10 11  1  0
 11 16  1  0
 11 12  1  1
 13 12  1  0
 13 14  1  0
 14 15  2  0
 16 17  2  0
 18 14  1  0
 20 19  1  6
 20 21  1  0
 20 22  1  0
 22 24  1  0
 22 23  1  6
 23 16  1  0
 24 25  1  0
 26 24  2  0
M  END
$$$$
