QET.pdb
     RDKit          3D

 26 25  0  0  1  0  0  0  0  0999 V2000
    9.9655  -12.7624   18.8999 N   0  0  0  0  0  0  0  0  0  0  0  0
    8.5635  -12.9533   18.7360 C   0  0  0  0  0  0  0  0  0  0  0  0
    7.9106  -12.0333   18.2172 O   0  0  0  0  0  0  0  0  0  0  0  0
    7.9462  -14.2059   19.1759 C   0  0  0  0  0  0  0  0  0  0  0  0
    8.8760  -15.1524   19.8493 C   0  0  0  0  0  0  0  0  0  0  0  0
    8.2791  -16.4698   20.2219 C   0  0  2  0  0  0  0  0  0  0  0  0
    6.9834  -16.5822   19.5583 N   0  0  0  0  0  0  0  0  0  0  0  0
    8.0952  -16.5311   21.7110 C   0  0  0  0  0  0  0  0  0  0  0  0
    6.9603  -16.2291   22.1658 O   0  0  0  0  0  0  0  0  0  0  0  0
    9.1559  -16.9130   22.5678 N   0  0  0  0  0  0  0  0  0  0  0  0
    8.8749  -16.9517   24.0104 C   0  0  1  0  0  0  0  0  0  0  0  0
    9.9285  -17.8131   24.6549 C   0  0  0  0  0  0  0  0  0  0  0  0
    9.8766  -17.8616   26.1370 C   0  0  0  0  0  0  0  0  0  0  0  0
   10.9233  -18.6925   26.7465 C   0  0  0  0  0  0  0  0  0  0  0  0
   10.7217  -19.4548   27.7057 O   0  0  0  0  0  0  0  0  0  0  0  0
    8.8547  -15.5770   24.5601 C   0  0  0  0  0  0  0  0  0  0  0  0
    9.7033  -14.7312   24.2072 O   0  0  0  0  0  0  0  0  0  0  0  0
   12.2101  -18.6141   26.2119 O   0  0  0  0  0  0  0  0  0  0  0  0
    6.4307  -11.8181   26.5546 C   0  0  0  0  0  0  0  0  0  0  0  0
    6.4410  -13.2347   26.0348 C   0  0  1  0  0  0  0  0  0  0  0  0
    6.0527  -13.1959   24.6973 O   0  0  0  0  0  0  0  0  0  0  0  0
    7.8300  -13.8320   26.0739 C   0  0  2  0  0  0  0  0  0  0  0  0
    7.8719  -15.1663   25.5081 N   0  0  0  0  0  0  0  0  0  0  0  0
    8.3826  -13.8633   27.4446 C   0  0  0  0  0  0  0  0  0  0  0  0
    8.8165  -15.0369   28.0382 O   0  0  0  0  0  0  0  0  0  0  0  0
    8.4754  -12.8067   28.1210 O   0  0  0  0  0  0  0  0  0  0  0  0
  1  2  1  0
  2  4  1  0
  3  2  2  0
  4  5  1  0
  5  6  1  0
  6  7  1  6
  6  8  1  0
  8 10  1  0
  8  9  2  0
 10 11  1  0
 11 16  1  0
 11 12  1  1
 13 12  1  0
 13 14  1  0
 14 15  2  0
 16 17  2  0
 18 14  1  0
 20 19  1  6
 20 21  1  0
 20 22  1  0
 22 24  1  0
 22 23  1  1
 23 16  1  0
 24 25  1  0
 26 24  2  0
M  END
$$$$
