QET.pdb
     RDKit          3D

 26 25  0  0  1  0  0  0  0  0999 V2000
    7.7354  -13.8374   14.9298 N   0  0  0  0  0  0  0  0  0  0  0  0
    8.3998  -14.6564   15.8871 C   0  0  0  0  0  0  0  0  0  0  0  0
    9.5709  -14.9928   15.6479 O   0  0  0  0  0  0  0  0  0  0  0  0
    7.6947  -15.0689   17.1022 C   0  0  0  0  0  0  0  0  0  0  0  0
    7.2852  -13.9488   17.9919 C   0  0  0  0  0  0  0  0  0  0  0  0
    8.3360  -13.4787   18.9434 C   0  0  2  0  0  0  0  0  0  0  0  0
    9.5821  -13.3226   18.1986 N   0  0  0  0  0  0  0  0  0  0  0  0
    8.5172  -14.4987   20.0306 C   0  0  0  0  0  0  0  0  0  0  0  0
    7.4841  -14.8840   20.6391 O   0  0  0  0  0  0  0  0  0  0  0  0
    9.7984  -15.0057   20.3571 N   0  0  0  0  0  0  0  0  0  0  0  0
    9.8647  -16.0563   21.3834 C   0  0  1  0  0  0  0  0  0  0  0  0
   11.1229  -16.8474   21.1423 C   0  0  0  0  0  0  0  0  0  0  0  0
   11.3639  -17.9492   22.1064 C   0  0  0  0  0  0  0  0  0  0  0  0
   12.6151  -18.6836   21.8770 C   0  0  0  0  0  0  0  0  0  0  0  0
   13.2048  -19.3263   22.7607 O   0  0  0  0  0  0  0  0  0  0  0  0
    9.8287  -15.4492   22.7334 C   0  0  0  0  0  0  0  0  0  0  0  0
   10.7362  -14.6819   23.1175 O   0  0  0  0  0  0  0  0  0  0  0  0
   13.1627  -18.6512   20.5936 O   0  0  0  0  0  0  0  0  0  0  0  0
    7.2812  -13.1668   24.3702 C   0  0  0  0  0  0  0  0  0  0  0  0
    7.3929  -14.4105   25.2173 C   0  0  1  0  0  0  0  0  0  0  0  0
    6.3685  -15.2742   24.8355 O   0  0  0  0  0  0  0  0  0  0  0  0
    8.6968  -15.1364   24.9713 C   0  0  2  0  0  0  0  0  0  0  0  0
    8.7632  -15.7145   23.6432 N   0  0  0  0  0  0  0  0  0  0  0  0
    8.9440  -16.1906   25.9776 C   0  0  0  0  0  0  0  0  0  0  0  0
    9.0957  -17.5222   25.6288 O   0  0  0  0  0  0  0  0  0  0  0  0
    9.0248  -15.9020   27.1995 O   0  0  0  0  0  0  0  0  0  0  0  0
  1  2  1  0
  2  4  1  0
  3  2  2  0
  4  5  1  0
  5  6  1  0
  6  7  1  6
  6  8  1  0
  8 10  1  0
  8  9  2  0
 10 11  1  0
 11 16  1  0
 11 12  1  6
 13 12  1  0
 13 14  1  0
 14 15  2  0
 16 17  2  0
 18 14  1  0
 20 19  1  6
 20 21  1  0
 20 22  1  0
 22 24  1  0
 22 23  1  6
 23 16  1  0
 24 25  1  0
 26 24  2  0
M  END
$$$$
