ITA.pdb
     RDKit          3D

 21 20  0  0  1  0  0  0  0  0999 V2000
   27.0562  -19.3913   -5.2931 C   0  0  0  0  0  0  0  0  0  0  0  0
   25.9588  -19.7819   -6.2393 C   0  0  0  0  0  0  0  0  0  0  0  0
   26.3816  -20.0850   -7.6125 C   0  0  2  0  0  0  0  0  0  0  0  0
   27.3410  -18.9629   -8.0722 C   0  0  0  0  0  0  0  0  0  0  0  0
   25.4248  -20.3917   -8.6740 C   0  0  2  0  0  0  0  0  0  0  0  0
   24.5337  -21.4471   -8.0956 N   0  0  0  0  0  0  0  0  0  0  0  0
   25.8628  -20.7624  -10.0017 C   0  0  0  0  0  0  0  0  0  0  0  0
   26.7408  -21.6441  -10.1881 O   0  0  0  0  0  0  0  0  0  0  0  0
   25.1883  -22.9041  -12.4692 C   0  0  0  0  0  0  0  0  0  0  0  0
   25.0571  -21.5839  -13.1827 C   0  0  1  0  0  0  0  0  0  0  0  0
   23.7128  -21.3007  -13.3083 O   0  0  0  0  0  0  0  0  0  0  0  0
   25.8657  -20.4900  -12.5328 C   0  0  2  0  0  0  0  0  0  0  0  0
   25.3542  -20.1776  -11.2131 N   0  0  0  0  0  0  0  0  0  0  0  0
   25.8805  -19.3209  -13.4231 C   0  0  0  0  0  0  0  0  0  0  0  0
   25.1290  -18.3182  -13.2883 O   0  0  0  0  0  0  0  0  0  0  0  0
   28.2631  -18.2028  -16.0320 C   0  0  0  0  0  0  0  0  0  0  0  0
   26.9034  -18.1308  -15.3722 C   0  0  2  0  0  0  0  0  0  0  0  0
   26.7918  -19.2999  -14.5053 N   0  0  0  0  0  0  0  0  0  0  0  0
   25.8853  -18.2625  -16.4522 C   0  0  0  0  0  0  0  0  0  0  0  0
   25.2931  -19.3522  -16.6638 O   0  0  0  0  0  0  0  0  0  0  0  0
   25.5453  -17.1932  -17.2706 O   0  0  0  0  0  0  0  0  0  0  0  0
  2  1  1  0
  2  3  1  0
  3  5  1  0
  3  4  1  6
  5  6  1  1
  5  7  1  0
  7 13  1  0
  7  8  2  0
 10  9  1  1
 10 11  1  0
 12 10  1  0
 12 13  1  1
 14 15  2  0
 14 12  1  0
 17 16  1  6
 17 18  1  0
 18 14  1  0
 19 21  1  0
 19 17  1  0
 20 19  2  0
M  END
$$$$
