ITA.pdb
     RDKit          3D

 21 20  0  0  1  0  0  0  0  0999 V2000
   15.6347  -13.4188  -15.6145 C   0  0  0  0  0  0  0  0  0  0  0  0
   16.8633  -13.1931  -16.4461 C   0  0  0  0  0  0  0  0  0  0  0  0
   17.8174  -12.2103  -15.9168 C   0  0  2  0  0  0  0  0  0  0  0  0
   17.0486  -10.8933  -15.6606 C   0  0  0  0  0  0  0  0  0  0  0  0
   19.0913  -11.9264  -16.5747 C   0  0  2  0  0  0  0  0  0  0  0  0
   19.7115  -13.2694  -16.8078 N   0  0  0  0  0  0  0  0  0  0  0  0
   20.0519  -11.0117  -15.9981 C   0  0  0  0  0  0  0  0  0  0  0  0
   20.7217  -11.3112  -14.9760 O   0  0  0  0  0  0  0  0  0  0  0  0
   23.1616   -9.7472  -17.4216 C   0  0  0  0  0  0  0  0  0  0  0  0
   22.4120   -8.5154  -16.9860 C   0  0  1  0  0  0  0  0  0  0  0  0
   21.9566   -7.8726  -18.1186 O   0  0  0  0  0  0  0  0  0  0  0  0
   21.3414   -8.8169  -15.9684 C   0  0  2  0  0  0  0  0  0  0  0  0
   20.3333   -9.7010  -16.5188 N   0  0  0  0  0  0  0  0  0  0  0  0
   20.7766   -7.5486  -15.4867 C   0  0  0  0  0  0  0  0  0  0  0  0
   19.6098   -7.1489  -15.7457 O   0  0  0  0  0  0  0  0  0  0  0  0
   19.9598   -5.8754  -13.1328 C   0  0  0  0  0  0  0  0  0  0  0  0
   21.0425   -5.4753  -14.1111 C   0  0  2  0  0  0  0  0  0  0  0  0
   21.5782   -6.7097  -14.6768 N   0  0  0  0  0  0  0  0  0  0  0  0
   22.1264   -4.8247  -13.3224 C   0  0  0  0  0  0  0  0  0  0  0  0
   23.1202   -5.4785  -12.9127 O   0  0  0  0  0  0  0  0  0  0  0  0
   22.0892   -3.4731  -13.0050 O   0  0  0  0  0  0  0  0  0  0  0  0
  2  1  1  0
  2  3  1  0
  3  5  1  0
  3  4  1  6
  5  6  1  1
  5  7  1  0
  7 13  1  0
  7  8  2  0
 10  9  1  6
 10 11  1  0
 12 10  1  0
 12 13  1  6
 14 15  2  0
 14 12  1  0
 17 16  1  1
 17 18  1  0
 18 14  1  0
 19 21  1  0
 19 17  1  0
 20 19  2  0
M  END
$$$$
