ITA.pdb
     RDKit          3D

 21 20  0  0  1  0  0  0  0  0999 V2000
   13.1284   -9.2698  -14.0856 C   0  0  0  0  0  0  0  0  0  0  0  0
   13.9850   -9.6853  -15.2456 C   0  0  0  0  0  0  0  0  0  0  0  0
   15.4072   -9.3343  -15.1433 C   0  0  2  0  0  0  0  0  0  0  0  0
   15.5016   -7.8217  -14.8367 C   0  0  0  0  0  0  0  0  0  0  0  0
   16.3769   -9.6976  -16.1748 C   0  0  2  0  0  0  0  0  0  0  0  0
   16.3039  -11.1907  -16.2628 N   0  0  0  0  0  0  0  0  0  0  0  0
   17.7523   -9.2550  -16.1079 C   0  0  0  0  0  0  0  0  0  0  0  0
   18.6495   -9.9576  -15.5748 O   0  0  0  0  0  0  0  0  0  0  0  0
   21.4668   -6.3221  -17.6267 C   0  0  0  0  0  0  0  0  0  0  0  0
   20.0538   -6.8321  -17.7391 C   0  0  1  0  0  0  0  0  0  0  0  0
   19.9675   -7.5947  -18.8856 O   0  0  0  0  0  0  0  0  0  0  0  0
   19.5887   -7.5336  -16.4884 C   0  0  2  0  0  0  0  0  0  0  0  0
   18.2239   -8.0005  -16.6295 N   0  0  0  0  0  0  0  0  0  0  0  0
   19.7585   -6.6248  -15.3461 C   0  0  0  0  0  0  0  0  0  0  0  0
   19.0485   -5.6039  -15.1414 O   0  0  0  0  0  0  0  0  0  0  0  0
   21.7455   -6.8842  -12.2211 C   0  0  0  0  0  0  0  0  0  0  0  0
   20.9419   -6.0708  -13.2120 C   0  0  2  0  0  0  0  0  0  0  0  0
   20.7776   -6.8982  -14.4033 N   0  0  0  0  0  0  0  0  0  0  0  0
   21.7719   -4.8908  -13.5848 C   0  0  0  0  0  0  0  0  0  0  0  0
   22.4911   -4.8965  -14.6171 O   0  0  0  0  0  0  0  0  0  0  0  0
   21.7894   -3.7362  -12.8132 O   0  0  0  0  0  0  0  0  0  0  0  0
  2  1  1  0
  2  3  1  0
  3  5  1  0
  3  4  1  6
  5  6  1  1
  5  7  1  0
  7 13  1  0
  7  8  2  0
 10  9  1  1
 10 11  1  0
 12 10  1  0
 12 13  1  6
 14 15  2  0
 14 12  1  0
 17 16  1  1
 17 18  1  0
 18 14  1  0
 19 21  1  0
 19 17  1  0
 20 19  2  0
M  END
$$$$
