ITA.pdb
     RDKit          3D

 21 20  0  0  1  0  0  0  0  0999 V2000
   24.0869  -16.4549  -16.2898 C   0  0  0  0  0  0  0  0  0  0  0  0
   23.2312  -15.4753  -15.5412 C   0  0  0  0  0  0  0  0  0  0  0  0
   23.5512  -14.0583  -15.7556 C   0  0  2  0  0  0  0  0  0  0  0  0
   25.0368  -13.8457  -15.3832 C   0  0  0  0  0  0  0  0  0  0  0  0
   22.7361  -12.9810  -15.1976 C   0  0  2  0  0  0  0  0  0  0  0  0
   21.3222  -13.3750  -15.4944 N   0  0  0  0  0  0  0  0  0  0  0  0
   22.9674  -11.5978  -15.5516 C   0  0  0  0  0  0  0  0  0  0  0  0
   24.1132  -11.0813  -15.4932 O   0  0  0  0  0  0  0  0  0  0  0  0
   22.1493   -9.7644  -18.8648 C   0  0  0  0  0  0  0  0  0  0  0  0
   21.5301   -9.0148  -17.7142 C   0  0  1  0  0  0  0  0  0  0  0  0
   20.1707   -9.2486  -17.7374 O   0  0  0  0  0  0  0  0  0  0  0  0
   22.1926   -9.3246  -16.3959 C   0  0  2  0  0  0  0  0  0  0  0  0
   21.9400  -10.6943  -15.9948 N   0  0  0  0  0  0  0  0  0  0  0  0
   21.7336   -8.3505  -15.3959 C   0  0  0  0  0  0  0  0  0  0  0  0
   20.8537   -8.5894  -14.5259 O   0  0  0  0  0  0  0  0  0  0  0  0
   22.7923   -4.8525  -14.6143 C   0  0  0  0  0  0  0  0  0  0  0  0
   21.9015   -6.0579  -14.4073 C   0  0  2  0  0  0  0  0  0  0  0  0
   22.3062   -7.0566  -15.3920 N   0  0  0  0  0  0  0  0  0  0  0  0
   20.5099   -5.6342  -14.7298 C   0  0  0  0  0  0  0  0  0  0  0  0
   20.0024   -5.8595  -15.8588 O   0  0  0  0  0  0  0  0  0  0  0  0
   19.7132   -4.9745  -13.8031 O   0  0  0  0  0  0  0  0  0  0  0  0
  2  1  1  0
  2  3  1  0
  3  5  1  0
  3  4  1  1
  5  6  1  6
  5  7  1  0
  7 13  1  0
  7  8  2  0
 10  9  1  6
 10 11  1  0
 12 10  1  0
 12 13  1  1
 14 15  2  0
 14 12  1  0
 17 16  1  6
 17 18  1  0
 18 14  1  0
 19 21  1  0
 19 17  1  0
 20 19  2  0
M  END
$$$$
