ITA.pdb
     RDKit          3D

 21 20  0  0  1  0  0  0  0  0999 V2000
   17.3560  -14.2616  -17.6851 C   0  0  0  0  0  0  0  0  0  0  0  0
   17.8757  -13.4740  -16.5182 C   0  0  0  0  0  0  0  0  0  0  0  0
   18.4611  -12.1672  -16.8435 C   0  0  2  0  0  0  0  0  0  0  0  0
   19.5377  -12.3873  -17.9314 C   0  0  0  0  0  0  0  0  0  0  0  0
   18.9670  -11.2607  -15.8146 C   0  0  2  0  0  0  0  0  0  0  0  0
   17.8412  -11.1216  -14.8370 N   0  0  0  0  0  0  0  0  0  0  0  0
   19.5151   -9.9655  -16.1524 C   0  0  0  0  0  0  0  0  0  0  0  0
   20.4630   -9.8395  -16.9700 O   0  0  0  0  0  0  0  0  0  0  0  0
   17.6181   -6.9725  -17.6318 C   0  0  0  0  0  0  0  0  0  0  0  0
   18.3508   -6.5226  -16.3949 C   0  0  1  0  0  0  0  0  0  0  0  0
   17.4243   -6.3710  -15.3840 O   0  0  0  0  0  0  0  0  0  0  0  0
   19.5098   -7.4219  -16.0474 C   0  0  2  0  0  0  0  0  0  0  0  0
   19.0463   -8.7215  -15.6036 N   0  0  0  0  0  0  0  0  0  0  0  0
   20.3460   -6.7486  -15.0438 C   0  0  0  0  0  0  0  0  0  0  0  0
   20.2057   -6.8841  -13.7988 O   0  0  0  0  0  0  0  0  0  0  0  0
   23.4168   -4.6528  -15.3284 C   0  0  0  0  0  0  0  0  0  0  0  0
   22.2686   -5.2315  -14.5308 C   0  0  2  0  0  0  0  0  0  0  0  0
   21.3818   -5.8912  -15.4842 N   0  0  0  0  0  0  0  0  0  0  0  0
   21.5280   -4.0844  -13.9342 C   0  0  0  0  0  0  0  0  0  0  0  0
   21.9933   -3.4422  -12.9574 O   0  0  0  0  0  0  0  0  0  0  0  0
   20.2963   -3.6738  -14.4269 O   0  0  0  0  0  0  0  0  0  0  0  0
  2  1  1  0
  2  3  1  0
  3  5  1  0
  3  4  1  6
  5  6  1  1
  5  7  1  0
  7 13  1  0
  7  8  2  0
 10  9  1  6
 10 11  1  0
 12 10  1  0
 12 13  1  1
 14 15  2  0
 14 12  1  0
 17 16  1  6
 17 18  1  0
 18 14  1  0
 19 21  1  0
 19 17  1  0
 20 19  2  0
M  END
$$$$
