ITA.pdb
     RDKit          3D

 21 20  0  0  1  0  0  0  0  0999 V2000
   24.1798  -15.1356  -16.0003 C   0  0  0  0  0  0  0  0  0  0  0  0
   23.1656  -14.2322  -15.3622 C   0  0  0  0  0  0  0  0  0  0  0  0
   23.2448  -12.8168  -15.7453 C   0  0  2  0  0  0  0  0  0  0  0  0
   24.6894  -12.3335  -15.4795 C   0  0  0  0  0  0  0  0  0  0  0  0
   22.2877  -11.8229  -15.2632 C   0  0  2  0  0  0  0  0  0  0  0  0
   20.9420  -12.4147  -15.5483 N   0  0  0  0  0  0  0  0  0  0  0  0
   22.3445  -10.4454  -15.7003 C   0  0  0  0  0  0  0  0  0  0  0  0
   23.3710   -9.7378  -15.5305 O   0  0  0  0  0  0  0  0  0  0  0  0
   20.4712   -6.6624  -18.3815 C   0  0  0  0  0  0  0  0  0  0  0  0
   20.4149   -8.0964  -17.9236 C   0  0  1  0  0  0  0  0  0  0  0  0
   20.6563   -8.9014  -19.0177 O   0  0  0  0  0  0  0  0  0  0  0  0
   21.3135   -8.3645  -16.7432 C   0  0  2  0  0  0  0  0  0  0  0  0
   21.2634   -9.7603  -16.3562 N   0  0  0  0  0  0  0  0  0  0  0  0
   20.9356   -7.4616  -15.6469 C   0  0  0  0  0  0  0  0  0  0  0  0
   19.9077   -7.6065  -14.9323 O   0  0  0  0  0  0  0  0  0  0  0  0
   22.7376   -4.6470  -14.0006 C   0  0  0  0  0  0  0  0  0  0  0  0
   21.4987   -5.4890  -14.2140 C   0  0  2  0  0  0  0  0  0  0  0  0
   21.7677   -6.3542  -15.3585 N   0  0  0  0  0  0  0  0  0  0  0  0
   20.3972   -4.5593  -14.5915 C   0  0  0  0  0  0  0  0  0  0  0  0
   19.8011   -3.8660  -13.7271 O   0  0  0  0  0  0  0  0  0  0  0  0
   19.9803   -4.4162  -15.9084 O   0  0  0  0  0  0  0  0  0  0  0  0
  2  1  1  0
  2  3  1  0
  3  5  1  0
  3  4  1  1
  5  6  1  6
  5  7  1  0
  7 13  1  0
  7  8  2  0
 10  9  1  6
 10 11  1  0
 12 10  1  0
 12 13  1  1
 14 15  2  0
 14 12  1  0
 17 16  1  6
 17 18  1  0
 18 14  1  0
 19 21  1  0
 19 17  1  0
 20 19  2  0
M  END
$$$$
