ITA.pdb
     RDKit          3D

 21 20  0  0  1  0  0  0  0  0999 V2000
   15.3012  -14.9611  -16.3942 C   0  0  0  0  0  0  0  0  0  0  0  0
   15.6544  -13.9421  -15.3508 C   0  0  0  0  0  0  0  0  0  0  0  0
   16.4549  -12.8037  -15.8194 C   0  0  2  0  0  0  0  0  0  0  0  0
   17.6710  -13.3650  -16.5922 C   0  0  0  0  0  0  0  0  0  0  0  0
   16.8825  -11.7294  -14.9253 C   0  0  2  0  0  0  0  0  0  0  0  0
   15.6126  -11.1656  -14.3666 N   0  0  0  0  0  0  0  0  0  0  0  0
   17.7564  -10.6707  -15.3805 C   0  0  0  0  0  0  0  0  0  0  0  0
   18.9102  -10.9076  -15.8227 O   0  0  0  0  0  0  0  0  0  0  0  0
   16.4149   -6.5685  -15.7246 C   0  0  0  0  0  0  0  0  0  0  0  0
   17.5419   -7.1404  -16.5444 C   0  0  1  0  0  0  0  0  0  0  0  0
   18.3250   -6.0914  -16.9799 O   0  0  0  0  0  0  0  0  0  0  0  0
   18.2987   -8.2218  -15.8161 C   0  0  2  0  0  0  0  0  0  0  0  0
   17.4068   -9.2756  -15.3750 N   0  0  0  0  0  0  0  0  0  0  0  0
   19.0432   -7.6116  -14.7057 C   0  0  0  0  0  0  0  0  0  0  0  0
   18.5229   -7.2582  -13.6136 O   0  0  0  0  0  0  0  0  0  0  0  0
   22.5519   -7.6310  -13.7732 C   0  0  0  0  0  0  0  0  0  0  0  0
   21.2373   -6.8823  -13.7489 C   0  0  2  0  0  0  0  0  0  0  0  0
   20.4347   -7.4015  -14.8521 N   0  0  0  0  0  0  0  0  0  0  0  0
   21.5424   -5.4527  -14.0376 C   0  0  0  0  0  0  0  0  0  0  0  0
   22.1326   -4.7268  -13.1963 O   0  0  0  0  0  0  0  0  0  0  0  0
   21.1909   -4.8591  -15.2429 O   0  0  0  0  0  0  0  0  0  0  0  0
  2  1  1  0
  2  3  1  0
  3  5  1  0
  3  4  1  1
  5  6  1  6
  5  7  1  0
  7 13  1  0
  7  8  2  0
 10  9  1  1
 10 11  1  0
 12 10  1  0
 12 13  1  1
 14 15  2  0
 14 12  1  0
 17 16  1  6
 17 18  1  0
 18 14  1  0
 19 21  1  0
 19 17  1  0
 20 19  2  0
M  END
$$$$
