ITA.pdb
     RDKit          3D

 21 20  0  0  1  0  0  0  0  0999 V2000
   16.8131  -14.1240  -17.2340 C   0  0  0  0  0  0  0  0  0  0  0  0
   17.4351  -13.4112  -16.0691 C   0  0  0  0  0  0  0  0  0  0  0  0
   17.8767  -12.0349  -16.3282 C   0  0  2  0  0  0  0  0  0  0  0  0
   18.8149  -12.0611  -17.5570 C   0  0  0  0  0  0  0  0  0  0  0  0
   18.4457  -11.1877  -15.2818 C   0  0  2  0  0  0  0  0  0  0  0  0
   17.4200  -11.1827  -14.1907 N   0  0  0  0  0  0  0  0  0  0  0  0
   18.9015   -9.8441  -15.5625 C   0  0  0  0  0  0  0  0  0  0  0  0
   19.8138   -9.6146  -16.3981 O   0  0  0  0  0  0  0  0  0  0  0  0
   16.8022   -6.8890  -16.7659 C   0  0  0  0  0  0  0  0  0  0  0  0
   17.5809   -6.4436  -15.5558 C   0  0  1  0  0  0  0  0  0  0  0  0
   16.7002   -6.3385  -14.4991 O   0  0  0  0  0  0  0  0  0  0  0  0
   18.7792   -7.3167  -15.2830 C   0  0  2  0  0  0  0  0  0  0  0  0
   18.3739   -8.6636  -14.9330 N   0  0  0  0  0  0  0  0  0  0  0  0
   19.5965   -6.6844  -14.2381 C   0  0  0  0  0  0  0  0  0  0  0  0
   19.7950   -7.1806  -13.0968 O   0  0  0  0  0  0  0  0  0  0  0  0
   22.3468   -5.7248  -13.4870 C   0  0  0  0  0  0  0  0  0  0  0  0
   21.1306   -4.8276  -13.5594 C   0  0  2  0  0  0  0  0  0  0  0  0
   20.2102   -5.4395  -14.5131 N   0  0  0  0  0  0  0  0  0  0  0  0
   21.5803   -3.5256  -14.1276 C   0  0  0  0  0  0  0  0  0  0  0  0
   21.3647   -3.2274  -15.3307 O   0  0  0  0  0  0  0  0  0  0  0  0
   22.2549   -2.5864  -13.3585 O   0  0  0  0  0  0  0  0  0  0  0  0
  2  1  1  0
  2  3  1  0
  3  5  1  0
  3  4  1  6
  5  6  1  1
  5  7  1  0
  7 13  1  0
  7  8  2  0
 10  9  1  6
 10 11  1  0
 12 10  1  0
 12 13  1  1
 14 15  2  0
 14 12  1  0
 17 16  1  6
 17 18  1  0
 18 14  1  0
 19 21  1  0
 19 17  1  0
 20 19  2  0
M  END
$$$$
