ITA.pdb
     RDKit          3D

 21 20  0  0  1  0  0  0  0  0999 V2000
   24.9649  -14.1168  -15.1968 C   0  0  0  0  0  0  0  0  0  0  0  0
   23.5606  -13.8715  -15.6654 C   0  0  0  0  0  0  0  0  0  0  0  0
   23.2149  -12.4693  -15.9310 C   0  0  2  0  0  0  0  0  0  0  0  0
   23.5312  -11.6531  -14.6562 C   0  0  0  0  0  0  0  0  0  0  0  0
   21.9144  -12.0743  -16.4685 C   0  0  2  0  0  0  0  0  0  0  0  0
   21.7795  -12.8381  -17.7495 N   0  0  0  0  0  0  0  0  0  0  0  0
   21.5682  -10.6835  -16.6625 C   0  0  0  0  0  0  0  0  0  0  0  0
   22.1159   -9.9817  -17.5517 O   0  0  0  0  0  0  0  0  0  0  0  0
   18.3975   -6.9210  -16.3078 C   0  0  0  0  0  0  0  0  0  0  0  0
   18.7734   -8.3652  -16.1030 C   0  0  1  0  0  0  0  0  0  0  0  0
   18.1115   -9.1152  -17.0531 O   0  0  0  0  0  0  0  0  0  0  0  0
   20.2656   -8.5777  -16.0710 C   0  0  2  0  0  0  0  0  0  0  0  0
   20.5888   -9.9777  -15.8808 N   0  0  0  0  0  0  0  0  0  0  0  0
   20.8429   -7.7189  -15.0275 C   0  0  0  0  0  0  0  0  0  0  0  0
   20.9307   -8.0420  -13.8125 O   0  0  0  0  0  0  0  0  0  0  0  0
   23.4206   -5.4918  -14.7127 C   0  0  0  0  0  0  0  0  0  0  0  0
   21.9423   -5.5611  -14.3979 C   0  0  2  0  0  0  0  0  0  0  0  0
   21.3396   -6.4449  -15.3911 N   0  0  0  0  0  0  0  0  0  0  0  0
   21.3864   -4.1940  -14.6038 C   0  0  0  0  0  0  0  0  0  0  0  0
   20.8448   -3.8648  -15.6907 O   0  0  0  0  0  0  0  0  0  0  0  0
   21.4406   -3.2254  -13.6100 O   0  0  0  0  0  0  0  0  0  0  0  0
  2  1  1  0
  2  3  1  0
  3  5  1  0
  3  4  1  1
  5  6  1  6
  5  7  1  0
  7 13  1  0
  7  8  2  0
 10  9  1  6
 10 11  1  0
 12 10  1  0
 12 13  1  1
 14 15  2  0
 14 12  1  0
 17 16  1  6
 17 18  1  0
 18 14  1  0
 19 21  1  0
 19 17  1  0
 20 19  2  0
M  END
$$$$
