MGS.pdb
     RDKit          3D

 19 18  0  0  1  0  0  0  0  0999 V2000
   30.2320  -20.3808   -4.1254 C   0  0  0  0  0  0  0  0  0  0  0  0
   29.3065  -19.1480   -5.0109 S   0  0  0  0  0  0  0  0  0  0  0  0
   27.6153  -19.5223   -5.3564 C   0  0  0  0  0  0  0  0  0  0  0  0
   27.3233  -20.3073   -6.5759 C   0  0  0  0  0  0  0  0  0  0  0  0
   26.8966  -19.6305   -7.8091 C   0  0  2  0  0  0  0  0  0  0  0  0
   25.7453  -18.7943   -7.5922 N   0  0  0  0  0  0  0  0  0  0  0  0
   26.6257  -20.5577   -8.9381 C   0  0  0  0  0  0  0  0  0  0  0  0
   27.5474  -21.2153   -9.4443 O   0  0  0  0  0  0  0  0  0  0  0  0
   25.3012  -20.7253   -9.4798 N   0  0  0  0  0  0  0  0  0  0  0  0
   25.0992  -21.5039  -10.6757 C   0  0  0  0  0  0  0  0  0  0  0  0
   25.3988  -20.8573  -11.9324 C   0  0  0  0  0  0  0  0  0  0  0  0
   25.1842  -19.5933  -11.9861 O   0  0  0  0  0  0  0  0  0  0  0  0
   28.4273  -21.5566  -14.2834 O   0  0  0  0  0  0  0  0  0  0  0  0
   27.2671  -21.4931  -15.0732 C   0  0  0  0  0  0  0  0  0  0  0  0
   26.1795  -20.8219  -14.2854 C   0  0  2  0  0  0  0  0  0  0  0  0
   25.8980  -21.5294  -13.0610 N   0  0  0  0  0  0  0  0  0  0  0  0
   24.9368  -20.6931  -15.1241 C   0  0  0  0  0  0  0  0  0  0  0  0
   24.8945  -19.9170  -16.2493 O   0  0  0  0  0  0  0  0  0  0  0  0
   23.9111  -21.3285  -14.7636 O   0  0  0  0  0  0  0  0  0  0  0  0
  1  2  1  0
  3  2  1  0
  4  5  1  0
  4  3  1  0
  5  6  1  1
  7  9  1  0
  7  5  1  0
  8  7  2  0
 10 11  1  0
 10  9  1  0
 11 16  1  0
 12 11  2  0
 13 14  1  0
 15 14  1  6
 15 17  1  0
 16 15  1  0
 17 19  2  0
 17 18  1  0
M  END
$$$$
