MGS.pdb
     RDKit          3D

 19 18  0  0  1  0  0  0  0  0999 V2000
   30.9936  -22.2398   -8.8232 C   0  0  0  0  0  0  0  0  0  0  0  0
   31.5597  -21.5828  -10.3751 S   0  0  0  0  0  0  0  0  0  0  0  0
   30.3819  -21.5285  -11.6902 C   0  0  0  0  0  0  0  0  0  0  0  0
   28.9982  -21.1275  -11.3539 C   0  0  0  0  0  0  0  0  0  0  0  0
   27.9437  -21.1718  -12.3771 C   0  0  2  0  0  0  0  0  0  0  0  0
   28.3333  -20.4841  -13.5800 N   0  0  0  0  0  0  0  0  0  0  0  0
   26.6347  -20.6453  -11.9113 C   0  0  0  0  0  0  0  0  0  0  0  0
   26.0307  -19.7898  -12.5759 O   0  0  0  0  0  0  0  0  0  0  0  0
   26.0263  -21.1020  -10.6878 N   0  0  0  0  0  0  0  0  0  0  0  0
   24.5927  -21.2093  -10.5859 C   0  0  0  0  0  0  0  0  0  0  0  0
   23.8163  -20.5713  -11.6238 C   0  0  0  0  0  0  0  0  0  0  0  0
   23.5796  -19.3197  -11.4681 O   0  0  0  0  0  0  0  0  0  0  0  0
   22.6671  -22.5310  -15.0451 O   0  0  0  0  0  0  0  0  0  0  0  0
   22.8331  -21.1392  -15.1403 C   0  0  0  0  0  0  0  0  0  0  0  0
   22.6060  -20.5294  -13.7873 C   0  0  2  0  0  0  0  0  0  0  0  0
   23.3251  -21.2389  -12.7586 N   0  0  0  0  0  0  0  0  0  0  0  0
   21.1339  -20.4898  -13.4778 C   0  0  0  0  0  0  0  0  0  0  0  0
   20.2519  -19.7586  -14.2244 O   0  0  0  0  0  0  0  0  0  0  0  0
   20.7176  -21.1587  -12.4954 O   0  0  0  0  0  0  0  0  0  0  0  0
  1  2  1  0
  3  2  1  0
  4  5  1  0
  4  3  1  0
  5  6  1  6
  7  9  1  0
  7  5  1  0
  8  7  2  0
 10 11  1  0
 10  9  1  0
 11 16  1  0
 12 11  2  0
 13 14  1  0
 15 14  1  6
 15 17  1  0
 16 15  1  0
 17 19  2  0
 17 18  1  0
M  END
$$$$
