MGS.pdb
     RDKit          3D

 19 18  0  0  1  0  0  0  0  0999 V2000
   23.2864  -21.1498   -8.5577 C   0  0  0  0  0  0  0  0  0  0  0  0
   24.9216  -21.6902   -8.9991 S   0  0  0  0  0  0  0  0  0  0  0  0
   26.0706  -20.4353   -9.4730 C   0  0  0  0  0  0  0  0  0  0  0  0
   26.6542  -20.5186  -10.8299 C   0  0  0  0  0  0  0  0  0  0  0  0
   25.8493  -20.1606  -12.0067 C   0  0  2  0  0  0  0  0  0  0  0  0
   24.8595  -21.1619  -12.3054 N   0  0  0  0  0  0  0  0  0  0  0  0
   26.6565  -19.8882  -13.2241 C   0  0  0  0  0  0  0  0  0  0  0  0
   26.7145  -20.7246  -14.1380 O   0  0  0  0  0  0  0  0  0  0  0  0
   27.3918  -18.6599  -13.3865 N   0  0  0  0  0  0  0  0  0  0  0  0
   27.1749  -17.8319  -14.5459 C   0  0  0  0  0  0  0  0  0  0  0  0
   27.4943  -18.4122  -15.8299 C   0  0  0  0  0  0  0  0  0  0  0  0
   27.0355  -17.7996  -16.8599 O   0  0  0  0  0  0  0  0  0  0  0  0
   29.3798  -21.9744  -18.5073 O   0  0  0  0  0  0  0  0  0  0  0  0
   29.1820  -21.4766  -17.2085 C   0  0  0  0  0  0  0  0  0  0  0  0
   28.4374  -20.1759  -17.2951 C   0  0  2  0  0  0  0  0  0  0  0  0
   28.2597  -19.5790  -15.9947 N   0  0  0  0  0  0  0  0  0  0  0  0
   27.1095  -20.3837  -17.9719 C   0  0  0  0  0  0  0  0  0  0  0  0
   26.9397  -20.1972  -19.3160 O   0  0  0  0  0  0  0  0  0  0  0  0
   26.1331  -20.7418  -17.2619 O   0  0  0  0  0  0  0  0  0  0  0  0
  1  2  1  0
  3  2  1  0
  4  5  1  0
  4  3  1  0
  5  6  1  6
  7  9  1  0
  7  5  1  0
  8  7  2  0
 10 11  1  0
 10  9  1  0
 11 16  1  0
 12 11  2  0
 13 14  1  0
 15 14  1  1
 15 17  1  0
 16 15  1  0
 17 19  2  0
 17 18  1  0
M  END
$$$$
