MGS.pdb
     RDKit          3D

 19 18  0  0  1  0  0  0  0  0999 V2000
   28.5572  -19.4092   -5.7762 C   0  0  0  0  0  0  0  0  0  0  0  0
   27.6436  -19.3068   -7.2977 S   0  0  0  0  0  0  0  0  0  0  0  0
   26.7656  -20.7566   -7.7947 C   0  0  0  0  0  0  0  0  0  0  0  0
   25.7270  -20.6044   -8.8371 C   0  0  0  0  0  0  0  0  0  0  0  0
   26.0203  -20.9581  -10.2335 C   0  0  2  0  0  0  0  0  0  0  0  0
   27.2974  -20.4493  -10.6596 N   0  0  0  0  0  0  0  0  0  0  0  0
   24.9726  -20.5247  -11.1938 C   0  0  0  0  0  0  0  0  0  0  0  0
   24.9655  -19.3646  -11.6325 O   0  0  0  0  0  0  0  0  0  0  0  0
   23.9403  -21.4226  -11.6452 N   0  0  0  0  0  0  0  0  0  0  0  0
   22.8946  -20.9474  -12.5159 C   0  0  0  0  0  0  0  0  0  0  0  0
   23.2241  -20.8119  -13.9160 C   0  0  0  0  0  0  0  0  0  0  0  0
   23.3105  -21.9021  -14.5872 O   0  0  0  0  0  0  0  0  0  0  0  0
   21.4397  -18.5157  -16.2125 O   0  0  0  0  0  0  0  0  0  0  0  0
   22.7935  -18.3468  -16.5481 C   0  0  0  0  0  0  0  0  0  0  0  0
   23.5800  -19.4959  -15.9869 C   0  0  2  0  0  0  0  0  0  0  0  0
   23.4468  -19.5797  -14.5537 N   0  0  0  0  0  0  0  0  0  0  0  0
   25.0271  -19.3744  -16.3813 C   0  0  0  0  0  0  0  0  0  0  0  0
   25.4912  -19.8097  -17.5918 O   0  0  0  0  0  0  0  0  0  0  0  0
   25.8231  -18.8516  -15.5574 O   0  0  0  0  0  0  0  0  0  0  0  0
  1  2  1  0
  3  2  1  0
  4  5  1  0
  4  3  1  0
  5  6  1  6
  7  9  1  0
  7  5  1  0
  8  7  2  0
 10 11  1  0
 10  9  1  0
 11 16  1  0
 12 11  2  0
 13 14  1  0
 15 14  1  1
 15 17  1  0
 16 15  1  0
 17 19  2  0
 17 18  1  0
M  END
$$$$
