MGS.pdb
     RDKit          3D

 19 18  0  0  1  0  0  0  0  0999 V2000
   15.3755  -14.2267  -13.8131 C   0  0  0  0  0  0  0  0  0  0  0  0
   15.5205  -14.1533  -15.5834 S   0  0  0  0  0  0  0  0  0  0  0  0
   17.0175  -13.4737  -16.2290 C   0  0  0  0  0  0  0  0  0  0  0  0
   17.2895  -12.0435  -15.9657 C   0  0  0  0  0  0  0  0  0  0  0  0
   18.4602  -11.3884  -16.5665 C   0  0  2  0  0  0  0  0  0  0  0  0
   19.6917  -11.8417  -15.9753 N   0  0  0  0  0  0  0  0  0  0  0  0
   18.4074   -9.9043  -16.5165 C   0  0  0  0  0  0  0  0  0  0  0  0
   17.4282   -9.2960  -16.9742 O   0  0  0  0  0  0  0  0  0  0  0  0
   19.4762   -9.1270  -15.9430 N   0  0  0  0  0  0  0  0  0  0  0  0
   19.4371   -7.6873  -15.9978 C   0  0  0  0  0  0  0  0  0  0  0  0
   20.5495   -6.9823  -15.4038 C   0  0  0  0  0  0  0  0  0  0  0  0
   21.4646   -7.7090  -14.8736 O   0  0  0  0  0  0  0  0  0  0  0  0
   21.5397   -3.1776  -16.3736 O   0  0  0  0  0  0  0  0  0  0  0  0
   21.7947   -3.4547  -15.0201 C   0  0  0  0  0  0  0  0  0  0  0  0
   21.8373   -4.9431  -14.8288 C   0  0  2  0  0  0  0  0  0  0  0  0
   20.6692   -5.5824  -15.3819 N   0  0  0  0  0  0  0  0  0  0  0  0
   21.9839   -5.2734  -13.3679 C   0  0  0  0  0  0  0  0  0  0  0  0
   23.1961   -5.2560  -12.7352 O   0  0  0  0  0  0  0  0  0  0  0  0
   20.9453   -5.5728  -12.7219 O   0  0  0  0  0  0  0  0  0  0  0  0
  1  2  1  0
  3  2  1  0
  4  5  1  0
  4  3  1  0
  5  6  1  1
  7  9  1  0
  7  5  1  0
  8  7  2  0
 10 11  1  0
 10  9  1  0
 11 16  1  0
 12 11  2  0
 13 14  1  0
 15 14  1  1
 15 17  1  0
 16 15  1  0
 17 19  2  0
 17 18  1  0
M  END
$$$$
