MGS.pdb
     RDKit          3D

 19 18  0  0  1  0  0  0  0  0999 V2000
   22.2006  -19.4018  -14.0426 C   0  0  0  0  0  0  0  0  0  0  0  0
   21.1711  -18.4682  -15.1512 S   0  0  0  0  0  0  0  0  0  0  0  0
   20.7977  -16.8080  -14.6781 C   0  0  0  0  0  0  0  0  0  0  0  0
   19.8936  -16.0330  -15.5559 C   0  0  0  0  0  0  0  0  0  0  0  0
   20.4446  -15.1530  -16.5965 C   0  0  2  0  0  0  0  0  0  0  0  0
   21.6658  -14.5197  -16.1731 N   0  0  0  0  0  0  0  0  0  0  0  0
   19.4915  -14.1163  -17.0705 C   0  0  0  0  0  0  0  0  0  0  0  0
   18.3665  -14.4396  -17.4808 O   0  0  0  0  0  0  0  0  0  0  0  0
   19.8331  -12.7167  -17.0717 N   0  0  0  0  0  0  0  0  0  0  0  0
   18.8475  -11.7292  -17.4331 C   0  0  0  0  0  0  0  0  0  0  0  0
   19.2801  -10.3508  -17.4449 C   0  0  0  0  0  0  0  0  0  0  0  0
   20.4675  -10.1245  -17.0139 O   0  0  0  0  0  0  0  0  0  0  0  0
   17.6594   -7.4922  -19.7807 O   0  0  0  0  0  0  0  0  0  0  0  0
   18.0118   -6.9791  -18.5211 C   0  0  0  0  0  0  0  0  0  0  0  0
   18.9725   -7.9263  -17.8625 C   0  0  2  0  0  0  0  0  0  0  0  0
   18.4844   -9.2827  -17.8925 N   0  0  0  0  0  0  0  0  0  0  0  0
   19.2433   -7.4888  -16.4483 C   0  0  0  0  0  0  0  0  0  0  0  0
   18.9965   -8.2995  -15.3750 O   0  0  0  0  0  0  0  0  0  0  0  0
   19.7132   -6.3349  -16.2656 O   0  0  0  0  0  0  0  0  0  0  0  0
  1  2  1  0
  3  2  1  0
  4  5  1  0
  4  3  1  0
  5  6  1  1
  7  9  1  0
  7  5  1  0
  8  7  2  0
 10 11  1  0
 10  9  1  0
 11 16  1  0
 12 11  2  0
 13 14  1  0
 15 14  1  1
 15 17  1  0
 16 15  1  0
 17 19  2  0
 17 18  1  0
M  END
$$$$
