MGS.pdb
     RDKit          3D

 19 18  0  0  1  0  0  0  0  0999 V2000
   29.6745  -21.0966   -8.9015 C   0  0  0  0  0  0  0  0  0  0  0  0
   30.6728  -21.6977  -10.2441 S   0  0  0  0  0  0  0  0  0  0  0  0
   30.4684  -20.8964  -11.8048 C   0  0  0  0  0  0  0  0  0  0  0  0
   29.1618  -20.2604  -12.0820 C   0  0  0  0  0  0  0  0  0  0  0  0
   28.0711  -21.0393  -12.6859 C   0  0  2  0  0  0  0  0  0  0  0  0
   28.4354  -21.5628  -13.9761 N   0  0  0  0  0  0  0  0  0  0  0  0
   26.7931  -20.2901  -12.8018 C   0  0  0  0  0  0  0  0  0  0  0  0
   26.1926  -19.9136  -11.7840 O   0  0  0  0  0  0  0  0  0  0  0  0
   26.2116  -19.9774  -14.0823 N   0  0  0  0  0  0  0  0  0  0  0  0
   24.9927  -19.2122  -14.1586 C   0  0  0  0  0  0  0  0  0  0  0  0
   23.7684  -19.9019  -13.8232 C   0  0  0  0  0  0  0  0  0  0  0  0
   23.3289  -20.7352  -14.6945 O   0  0  0  0  0  0  0  0  0  0  0  0
   20.1585  -20.8781  -10.7551 O   0  0  0  0  0  0  0  0  0  0  0  0
   21.2685  -20.0573  -11.0160 C   0  0  0  0  0  0  0  0  0  0  0  0
   21.8419  -20.4268  -12.3533 C   0  0  2  0  0  0  0  0  0  0  0  0
   23.0612  -19.7067  -12.6247 N   0  0  0  0  0  0  0  0  0  0  0  0
   20.8268  -20.1831  -13.4371 C   0  0  0  0  0  0  0  0  0  0  0  0
   19.9865  -21.1658  -13.8826 O   0  0  0  0  0  0  0  0  0  0  0  0
   20.7622  -19.0300  -13.9390 O   0  0  0  0  0  0  0  0  0  0  0  0
  1  2  1  0
  3  2  1  0
  4  5  1  0
  4  3  1  0
  5  6  1  6
  7  9  1  0
  7  5  1  0
  8  7  2  0
 10 11  1  0
 10  9  1  0
 11 16  1  0
 12 11  2  0
 13 14  1  0
 15 14  1  1
 15 17  1  0
 16 15  1  0
 17 19  2  0
 17 18  1  0
M  END
$$$$
