MGS.pdb
     RDKit          3D

 19 18  0  0  1  0  0  0  0  0999 V2000
   28.7590  -18.7737   -6.0779 C   0  0  0  0  0  0  0  0  0  0  0  0
   26.9929  -18.8145   -6.2776 S   0  0  0  0  0  0  0  0  0  0  0  0
   26.3314  -20.1588   -7.2128 C   0  0  0  0  0  0  0  0  0  0  0  0
   26.2940  -20.0158   -8.6848 C   0  0  0  0  0  0  0  0  0  0  0  0
   25.8890  -21.1484   -9.5299 C   0  0  2  0  0  0  0  0  0  0  0  0
   26.8093  -22.2503   -9.4286 N   0  0  0  0  0  0  0  0  0  0  0  0
   25.7037  -20.7920  -10.9605 C   0  0  0  0  0  0  0  0  0  0  0  0
   24.7888  -20.0277  -11.3028 O   0  0  0  0  0  0  0  0  0  0  0  0
   26.5673  -21.3132  -11.9892 N   0  0  0  0  0  0  0  0  0  0  0  0
   26.2535  -21.0965  -13.3790 C   0  0  0  0  0  0  0  0  0  0  0  0
   25.9506  -19.7405  -13.7748 C   0  0  0  0  0  0  0  0  0  0  0  0
   24.9986  -19.1621  -13.1377 O   0  0  0  0  0  0  0  0  0  0  0  0
   28.3342  -17.7235  -16.3122 O   0  0  0  0  0  0  0  0  0  0  0  0
   27.4981  -16.9017  -15.5379 C   0  0  0  0  0  0  0  0  0  0  0  0
   26.2882  -17.6898  -15.1268 C   0  0  2  0  0  0  0  0  0  0  0  0
   26.6299  -19.0502  -14.7930 N   0  0  0  0  0  0  0  0  0  0  0  0
   25.2516  -17.6531  -16.2170 C   0  0  0  0  0  0  0  0  0  0  0  0
   24.6382  -16.4924  -16.6002 O   0  0  0  0  0  0  0  0  0  0  0  0
   24.9515  -18.7362  -16.7850 O   0  0  0  0  0  0  0  0  0  0  0  0
  1  2  1  0
  3  2  1  0
  4  5  1  0
  4  3  1  0
  5  6  1  6
  7  9  1  0
  7  5  1  0
  8  7  2  0
 10 11  1  0
 10  9  1  0
 11 16  1  0
 12 11  2  0
 13 14  1  0
 15 14  1  6
 15 17  1  0
 16 15  1  0
 17 19  2  0
 17 18  1  0
M  END
$$$$
