CQT.pdb
     RDKit          3D

 23 22  0  0  1  0  0  0  0  0999 V2000
   28.8068  -20.0871  -17.0809 N   0  0  0  0  0  0  0  0  0  0  0  0
   27.9945  -19.4944  -16.0499 C   0  0  1  0  0  0  0  0  0  0  0  0
   27.4577  -18.1812  -16.6281 C   0  0  0  0  0  0  0  0  0  0  0  0
   26.6099  -17.2230  -15.3434 S   0  0  0  0  0  0  0  0  0  0  0  0
   26.8593  -20.3454  -15.6555 C   0  0  0  0  0  0  0  0  0  0  0  0
   26.5545  -21.3033  -16.4203 O   0  0  0  0  0  0  0  0  0  0  0  0
   25.2885  -24.0646  -14.3427 N   0  0  0  0  0  0  0  0  0  0  0  0
   24.3983  -23.9687  -13.2182 C   0  0  0  0  0  0  0  0  0  0  0  0
   23.6130  -24.9305  -13.0723 O   0  0  0  0  0  0  0  0  0  0  0  0
   24.4430  -22.7954  -12.3263 C   0  0  0  0  0  0  0  0  0  0  0  0
   25.4525  -21.7926  -12.7840 C   0  0  0  0  0  0  0  0  0  0  0  0
   25.0629  -21.1144  -14.0371 C   0  0  2  0  0  0  0  0  0  0  0  0
   26.0889  -20.1746  -14.4943 N   0  0  0  0  0  0  0  0  0  0  0  0
   23.7691  -20.3833  -13.8441 C   0  0  0  0  0  0  0  0  0  0  0  0
   23.5210  -19.6797  -12.8574 O   0  0  0  0  0  0  0  0  0  0  0  0
   21.6487  -18.4308  -16.6769 C   0  0  0  0  0  0  0  0  0  0  0  0
   20.7875  -19.4525  -15.9436 C   0  0  1  0  0  0  0  0  0  0  0  0
   20.7048  -20.6030  -16.7699 O   0  0  0  0  0  0  0  0  0  0  0  0
   21.4903  -19.7728  -14.6567 C   0  0  2  0  0  0  0  0  0  0  0  0
   22.7286  -20.4650  -14.8177 N   0  0  0  0  0  0  0  0  0  0  0  0
   20.5441  -20.5376  -13.7849 C   0  0  0  0  0  0  0  0  0  0  0  0
   19.3061  -20.0863  -13.3837 O   0  0  0  0  0  0  0  0  0  0  0  0
   20.8634  -21.6987  -13.3553 O   0  0  0  0  0  0  0  0  0  0  0  0
  2  3  1  0
  2  1  1  6
  2  5  1  0
  3  4  1  0
  5  6  2  0
  7  8  1  0
  8  9  2  0
 10  8  1  0
 10 11  1  0
 12 11  1  1
 12 14  1  0
 13  5  1  0
 13 12  1  0
 14 20  1  0
 14 15  2  0
 17 16  1  6
 17 19  1  0
 18 17  1  0
 19 21  1  0
 19 20  1  6
 21 23  2  0
 21 22  1  0
M  END
$$$$
