CQT.pdb
     RDKit          3D

 23 22  0  0  1  0  0  0  0  0999 V2000
   22.9522  -13.7557  -19.9075 N   0  0  0  0  0  0  0  0  0  0  0  0
   23.3846  -12.5643  -19.2239 C   0  0  1  0  0  0  0  0  0  0  0  0
   24.1689  -11.7409  -20.2505 C   0  0  0  0  0  0  0  0  0  0  0  0
   25.8160  -12.4532  -20.5087 S   0  0  0  0  0  0  0  0  0  0  0  0
   22.2628  -11.7567  -18.7160 C   0  0  0  0  0  0  0  0  0  0  0  0
   21.2896  -11.5542  -19.4952 O   0  0  0  0  0  0  0  0  0  0  0  0
   17.9401  -11.9964  -16.6490 N   0  0  0  0  0  0  0  0  0  0  0  0
   17.9208  -10.7770  -15.8879 C   0  0  0  0  0  0  0  0  0  0  0  0
   16.7887  -10.2829  -15.6954 O   0  0  0  0  0  0  0  0  0  0  0  0
   19.1765  -10.1853  -15.3909 C   0  0  0  0  0  0  0  0  0  0  0  0
   20.3687  -10.9750  -15.8258 C   0  0  0  0  0  0  0  0  0  0  0  0
   21.0884  -10.3552  -16.9570 C   0  0  2  0  0  0  0  0  0  0  0  0
   22.1910  -11.1940  -17.4317 N   0  0  0  0  0  0  0  0  0  0  0  0
   21.6217   -9.0142  -16.5531 C   0  0  0  0  0  0  0  0  0  0  0  0
   22.5835   -8.8614  -15.7903 O   0  0  0  0  0  0  0  0  0  0  0  0
   22.2858   -6.0166  -18.9826 C   0  0  0  0  0  0  0  0  0  0  0  0
   21.4379   -5.5122  -17.8209 C   0  0  1  0  0  0  0  0  0  0  0  0
   20.0988   -5.4292  -18.2827 O   0  0  0  0  0  0  0  0  0  0  0  0
   21.5579   -6.5254  -16.7202 C   0  0  2  0  0  0  0  0  0  0  0  0
   21.0289   -7.8117  -17.0428 N   0  0  0  0  0  0  0  0  0  0  0  0
   20.9150   -5.9605  -15.4922 C   0  0  0  0  0  0  0  0  0  0  0  0
   21.3104   -4.8021  -14.8604 O   0  0  0  0  0  0  0  0  0  0  0  0
   19.9235   -6.5611  -14.9529 O   0  0  0  0  0  0  0  0  0  0  0  0
  2  3  1  0
  2  1  1  6
  2  5  1  0
  3  4  1  0
  5  6  2  0
  7  8  1  0
  8  9  2  0
 10  8  1  0
 10 11  1  0
 12 11  1  1
 12 14  1  0
 13  5  1  0
 13 12  1  0
 14 20  1  0
 14 15  2  0
 17 16  1  6
 17 19  1  0
 18 17  1  0
 19 21  1  0
 19 20  1  6
 21 23  2  0
 21 22  1  0
M  END
$$$$
