CQT.pdb
     RDKit          3D

 23 22  0  0  1  0  0  0  0  0999 V2000
   24.7554  -13.9102  -17.0681 N   0  0  0  0  0  0  0  0  0  0  0  0
   24.8088  -12.7700  -16.1900 C   0  0  1  0  0  0  0  0  0  0  0  0
   26.2174  -12.1844  -16.3319 C   0  0  0  0  0  0  0  0  0  0  0  0
   27.4482  -13.3194  -15.6361 S   0  0  0  0  0  0  0  0  0  0  0  0
   23.8208  -11.7343  -16.5358 C   0  0  0  0  0  0  0  0  0  0  0  0
   23.5071  -11.6102  -17.7531 O   0  0  0  0  0  0  0  0  0  0  0  0
   18.2517  -11.1413  -14.9110 N   0  0  0  0  0  0  0  0  0  0  0  0
   18.3884   -9.9814  -15.7491 C   0  0  0  0  0  0  0  0  0  0  0  0
   17.3153   -9.4497  -16.1080 O   0  0  0  0  0  0  0  0  0  0  0  0
   19.7240   -9.4904  -16.1350 C   0  0  0  0  0  0  0  0  0  0  0  0
   20.8060  -10.4095  -15.6677 C   0  0  0  0  0  0  0  0  0  0  0  0
   22.1609   -9.9020  -15.9657 C   0  0  2  0  0  0  0  0  0  0  0  0
   23.1998  -10.8735  -15.6169 N   0  0  0  0  0  0  0  0  0  0  0  0
   22.4052   -8.6239  -15.2225 C   0  0  0  0  0  0  0  0  0  0  0  0
   22.7374   -8.5771  -14.0318 O   0  0  0  0  0  0  0  0  0  0  0  0
   24.0762   -5.3864  -16.9655 C   0  0  0  0  0  0  0  0  0  0  0  0
   22.8648   -4.9874  -16.1311 C   0  0  1  0  0  0  0  0  0  0  0  0
   21.7859   -4.7794  -17.0289 O   0  0  0  0  0  0  0  0  0  0  0  0
   22.5734   -6.1344  -15.2079 C   0  0  2  0  0  0  0  0  0  0  0  0
   22.2626   -7.3602  -15.8706 N   0  0  0  0  0  0  0  0  0  0  0  0
   21.4756   -5.7198  -14.2788 C   0  0  0  0  0  0  0  0  0  0  0  0
   20.2446   -6.3323  -14.1944 O   0  0  0  0  0  0  0  0  0  0  0  0
   21.6445   -4.7304  -13.4869 O   0  0  0  0  0  0  0  0  0  0  0  0
  2  3  1  0
  2  1  1  6
  2  5  1  0
  3  4  1  0
  5  6  2  0
  7  8  1  0
  8  9  2  0
 10  8  1  0
 10 11  1  0
 12 11  1  1
 12 14  1  0
 13  5  1  0
 13 12  1  0
 14 20  1  0
 14 15  2  0
 17 16  1  6
 17 19  1  0
 18 17  1  0
 19 21  1  0
 19 20  1  6
 21 23  2  0
 21 22  1  0
M  END
$$$$
