CQT.pdb
     RDKit          3D

 23 22  0  0  1  0  0  0  0  0999 V2000
   26.1747  -11.8144  -17.9518 N   0  0  0  0  0  0  0  0  0  0  0  0
   25.6902  -11.2358  -16.7253 C   0  0  1  0  0  0  0  0  0  0  0  0
   26.8624  -10.4502  -16.1287 C   0  0  0  0  0  0  0  0  0  0  0  0
   28.0680  -11.5804  -15.3827 S   0  0  0  0  0  0  0  0  0  0  0  0
   24.5549  -10.3212  -16.9330 C   0  0  0  0  0  0  0  0  0  0  0  0
   24.5248   -9.6636  -18.0110 O   0  0  0  0  0  0  0  0  0  0  0  0
   18.6382  -11.0648  -15.3437 N   0  0  0  0  0  0  0  0  0  0  0  0
   18.6213   -9.7609  -15.9486 C   0  0  0  0  0  0  0  0  0  0  0  0
   17.4857   -9.2905  -16.1772 O   0  0  0  0  0  0  0  0  0  0  0  0
   19.8828   -9.0652  -16.2622 C   0  0  0  0  0  0  0  0  0  0  0  0
   21.0725   -9.9225  -15.9727 C   0  0  0  0  0  0  0  0  0  0  0  0
   22.3533   -9.2490  -16.2693 C   0  0  2  0  0  0  0  0  0  0  0  0
   23.5025  -10.1233  -16.0251 N   0  0  0  0  0  0  0  0  0  0  0  0
   22.4857   -8.0093  -15.4378 C   0  0  0  0  0  0  0  0  0  0  0  0
   22.8297   -8.0154  -14.2496 O   0  0  0  0  0  0  0  0  0  0  0  0
   24.4537   -4.7704  -16.0196 C   0  0  0  0  0  0  0  0  0  0  0  0
   22.9846   -4.3867  -15.8877 C   0  0  1  0  0  0  0  0  0  0  0  0
   22.4784   -4.2035  -17.2006 O   0  0  0  0  0  0  0  0  0  0  0  0
   22.2934   -5.5322  -15.2075 C   0  0  2  0  0  0  0  0  0  0  0  0
   22.2136   -6.7224  -15.9920 N   0  0  0  0  0  0  0  0  0  0  0  0
   20.9375   -5.0694  -14.7740 C   0  0  0  0  0  0  0  0  0  0  0  0
   20.7045   -4.0432  -13.8853 O   0  0  0  0  0  0  0  0  0  0  0  0
   19.8884   -5.6372  -15.2339 O   0  0  0  0  0  0  0  0  0  0  0  0
  2  3  1  0
  2  1  1  6
  2  5  1  0
  3  4  1  0
  5  6  2  0
  7  8  1  0
  8  9  2  0
 10  8  1  0
 10 11  1  0
 12 11  1  1
 12 14  1  0
 13  5  1  0
 13 12  1  0
 14 20  1  0
 14 15  2  0
 17 16  1  6
 17 19  1  0
 18 17  1  0
 19 21  1  0
 19 20  1  6
 21 23  2  0
 21 22  1  0
M  END
$$$$
