CQT.pdb
     RDKit          3D

 23 22  0  0  1  0  0  0  0  0999 V2000
   22.5866  -13.4907  -17.4087 N   0  0  0  0  0  0  0  0  0  0  0  0
   23.0433  -12.3076  -16.7262 C   0  0  1  0  0  0  0  0  0  0  0  0
   24.4888  -12.0811  -17.1802 C   0  0  0  0  0  0  0  0  0  0  0  0
   25.6249  -13.1137  -16.2157 S   0  0  0  0  0  0  0  0  0  0  0  0
   22.2445  -11.1143  -17.0524 C   0  0  0  0  0  0  0  0  0  0  0  0
   21.8479  -10.9854  -18.2447 O   0  0  0  0  0  0  0  0  0  0  0  0
   16.9470   -9.2678  -15.7492 N   0  0  0  0  0  0  0  0  0  0  0  0
   17.8468   -9.8708  -14.8043 C   0  0  0  0  0  0  0  0  0  0  0  0
   17.3057  -10.3859  -13.8018 O   0  0  0  0  0  0  0  0  0  0  0  0
   19.3018   -9.8562  -15.0423 C   0  0  0  0  0  0  0  0  0  0  0  0
   19.6438   -9.1742  -16.3276 C   0  0  0  0  0  0  0  0  0  0  0  0
   21.0922   -8.9274  -16.4807 C   0  0  2  0  0  0  0  0  0  0  0  0
   21.8891  -10.1079  -16.1403 N   0  0  0  0  0  0  0  0  0  0  0  0
   21.5111   -7.7779  -15.6152 C   0  0  0  0  0  0  0  0  0  0  0  0
   21.7977   -7.8918  -14.4173 O   0  0  0  0  0  0  0  0  0  0  0  0
   24.0548   -4.9850  -16.6906 C   0  0  0  0  0  0  0  0  0  0  0  0
   22.8103   -4.3108  -16.1252 C   0  0  1  0  0  0  0  0  0  0  0  0
   22.0442   -3.8502  -17.2271 O   0  0  0  0  0  0  0  0  0  0  0  0
   22.0578   -5.3571  -15.3561 C   0  0  2  0  0  0  0  0  0  0  0  0
   21.6029   -6.4561  -16.1459 N   0  0  0  0  0  0  0  0  0  0  0  0
   20.9245   -4.6887  -14.6425 C   0  0  0  0  0  0  0  0  0  0  0  0
   21.0657   -3.6789  -13.7163 O   0  0  0  0  0  0  0  0  0  0  0  0
   19.7194   -5.0465  -14.8752 O   0  0  0  0  0  0  0  0  0  0  0  0
  2  3  1  0
  2  1  1  6
  2  5  1  0
  3  4  1  0
  5  6  2  0
  7  8  1  0
  8  9  2  0
 10  8  1  0
 10 11  1  0
 12 11  1  1
 12 14  1  0
 13  5  1  0
 13 12  1  0
 14 20  1  0
 14 15  2  0
 17 16  1  6
 17 19  1  0
 18 17  1  0
 19 21  1  0
 19 20  1  6
 21 23  2  0
 21 22  1  0
M  END
$$$$
