CQT.pdb
     RDKit          3D

 23 22  0  0  1  0  0  0  0  0999 V2000
   22.9818  -11.9631  -18.5415 N   0  0  0  0  0  0  0  0  0  0  0  0
   21.6151  -11.7200  -18.9250 C   0  0  1  0  0  0  0  0  0  0  0  0
   20.8567  -13.0248  -18.6616 C   0  0  0  0  0  0  0  0  0  0  0  0
   21.9658  -14.4484  -18.8360 S   0  0  0  0  0  0  0  0  0  0  0  0
   20.9879  -10.6350  -18.1518 C   0  0  0  0  0  0  0  0  0  0  0  0
   19.7516  -10.4380  -18.3195 O   0  0  0  0  0  0  0  0  0  0  0  0
   18.6393   -7.6156  -12.9081 N   0  0  0  0  0  0  0  0  0  0  0  0
   19.8445   -8.3092  -13.2727 C   0  0  0  0  0  0  0  0  0  0  0  0
   20.0041   -9.4263  -12.7346 O   0  0  0  0  0  0  0  0  0  0  0  0
   20.7992   -7.7035  -14.2190 C   0  0  0  0  0  0  0  0  0  0  0  0
   21.4808   -8.7391  -15.0538 C   0  0  0  0  0  0  0  0  0  0  0  0
   21.0125   -8.7490  -16.4547 C   0  0  2  0  0  0  0  0  0  0  0  0
   21.6580   -9.8019  -17.2418 N   0  0  0  0  0  0  0  0  0  0  0  0
   21.2751   -7.4189  -17.0931 C   0  0  0  0  0  0  0  0  0  0  0  0
   22.4088   -6.9898  -17.3396 O   0  0  0  0  0  0  0  0  0  0  0  0
   19.2510   -5.9934  -20.1437 C   0  0  0  0  0  0  0  0  0  0  0  0
   19.3287   -4.9124  -19.0721 C   0  0  1  0  0  0  0  0  0  0  0  0
   18.0748   -4.8874  -18.4084 O   0  0  0  0  0  0  0  0  0  0  0  0
   20.4223   -5.3134  -18.1256 C   0  0  2  0  0  0  0  0  0  0  0  0
   20.1986   -6.5559  -17.4588 N   0  0  0  0  0  0  0  0  0  0  0  0
   20.6292   -4.1973  -17.1500 C   0  0  0  0  0  0  0  0  0  0  0  0
   20.9746   -2.9085  -17.4924 O   0  0  0  0  0  0  0  0  0  0  0  0
   20.4872   -4.4059  -15.8967 O   0  0  0  0  0  0  0  0  0  0  0  0
  2  3  1  0
  2  1  1  1
  2  5  1  0
  3  4  1  0
  5  6  2  0
  7  8  1  0
  8  9  2  0
 10  8  1  0
 10 11  1  0
 12 11  1  1
 12 14  1  0
 13  5  1  0
 13 12  1  0
 14 20  1  0
 14 15  2  0
 17 16  1  6
 17 19  1  0
 18 17  1  0
 19 21  1  0
 19 20  1  1
 21 23  2  0
 21 22  1  0
M  END
$$$$
