CQT.pdb
     RDKit          3D

 23 22  0  0  1  0  0  0  0  0999 V2000
   15.5698  -14.0049  -12.9113 N   0  0  0  0  0  0  0  0  0  0  0  0
   15.0833  -12.6672  -13.1304 C   0  0  1  0  0  0  0  0  0  0  0  0
   13.6337  -12.6511  -12.6351 C   0  0  0  0  0  0  0  0  0  0  0  0
   12.5663  -13.5790  -13.7695 S   0  0  0  0  0  0  0  0  0  0  0  0
   15.8538  -11.6503  -12.3951 C   0  0  0  0  0  0  0  0  0  0  0  0
   16.1403  -11.8940  -11.1893 O   0  0  0  0  0  0  0  0  0  0  0  0
   20.5196   -8.2311  -14.4501 N   0  0  0  0  0  0  0  0  0  0  0  0
   20.3781   -7.7374  -13.1075 C   0  0  0  0  0  0  0  0  0  0  0  0
   21.3115   -7.0113  -12.7019 O   0  0  0  0  0  0  0  0  0  0  0  0
   19.1960   -8.0920  -12.3006 C   0  0  0  0  0  0  0  0  0  0  0  0
   18.2959   -9.0386  -13.0270 C   0  0  0  0  0  0  0  0  0  0  0  0
   17.1393   -9.4702  -12.2158 C   0  0  2  0  0  0  0  0  0  0  0  0
   16.2951  -10.4298  -12.9307 N   0  0  0  0  0  0  0  0  0  0  0  0
   16.3168   -8.2812  -11.8215 C   0  0  0  0  0  0  0  0  0  0  0  0
   15.4996   -7.7347  -12.5723 O   0  0  0  0  0  0  0  0  0  0  0  0
   14.5341   -7.3646   -8.2201 C   0  0  0  0  0  0  0  0  0  0  0  0
   15.5584   -6.3324   -8.6768 C   0  0  1  0  0  0  0  0  0  0  0  0
   16.7684   -6.6081   -7.9889 O   0  0  0  0  0  0  0  0  0  0  0  0
   15.7347   -6.5169  -10.1558 C   0  0  2  0  0  0  0  0  0  0  0  0
   16.4392   -7.7035  -10.5220 N   0  0  0  0  0  0  0  0  0  0  0  0
   16.4002   -5.2932  -10.7037 C   0  0  0  0  0  0  0  0  0  0  0  0
   15.9319   -4.0073  -10.5469 O   0  0  0  0  0  0  0  0  0  0  0  0
   17.4841   -5.3977  -11.3736 O   0  0  0  0  0  0  0  0  0  0  0  0
  2  3  1  0
  2  1  1  1
  2  5  1  0
  3  4  1  0
  5  6  2  0
  7  8  1  0
  8  9  2  0
 10  8  1  0
 10 11  1  0
 12 11  1  6
 12 14  1  0
 13  5  1  0
 13 12  1  0
 14 20  1  0
 14 15  2  0
 17 16  1  1
 17 19  1  0
 18 17  1  0
 19 21  1  0
 19 20  1  1
 21 23  2  0
 21 22  1  0
M  END
$$$$
