CQT.pdb
     RDKit          3D

 23 22  0  0  1  0  0  0  0  0999 V2000
   28.1350  -21.1868  -15.4871 N   0  0  0  0  0  0  0  0  0  0  0  0
   27.3901  -20.2343  -14.7049 C   0  0  1  0  0  0  0  0  0  0  0  0
   27.4115  -18.9210  -15.4934 C   0  0  0  0  0  0  0  0  0  0  0  0
   29.0896  -18.2359  -15.5375 S   0  0  0  0  0  0  0  0  0  0  0  0
   25.9918  -20.6414  -14.4871 C   0  0  0  0  0  0  0  0  0  0  0  0
   25.5027  -21.4962  -15.2780 O   0  0  0  0  0  0  0  0  0  0  0  0
   22.4597  -19.9274   -9.2653 N   0  0  0  0  0  0  0  0  0  0  0  0
   21.5042  -20.4057  -10.2268 C   0  0  0  0  0  0  0  0  0  0  0  0
   20.3333  -20.5260   -9.8052 O   0  0  0  0  0  0  0  0  0  0  0  0
   21.9233  -20.7222  -11.6046 C   0  0  0  0  0  0  0  0  0  0  0  0
   23.3581  -20.3747  -11.8383 C   0  0  0  0  0  0  0  0  0  0  0  0
   23.7864  -20.6053  -13.2331 C   0  0  2  0  0  0  0  0  0  0  0  0
   25.1593  -20.1527  -13.4676 N   0  0  0  0  0  0  0  0  0  0  0  0
   22.8616  -19.8988  -14.1773 C   0  0  0  0  0  0  0  0  0  0  0  0
   22.8843  -18.6775  -14.3723 O   0  0  0  0  0  0  0  0  0  0  0  0
   20.0174  -19.7853  -18.0576 C   0  0  0  0  0  0  0  0  0  0  0  0
   20.8575  -20.6849  -17.1587 C   0  0  1  0  0  0  0  0  0  0  0  0
   22.1186  -20.8485  -17.7882 O   0  0  0  0  0  0  0  0  0  0  0  0
   21.0080  -19.9730  -15.8461 C   0  0  2  0  0  0  0  0  0  0  0  0
   21.8802  -20.6214  -14.9202 N   0  0  0  0  0  0  0  0  0  0  0  0
   19.6436  -19.7708  -15.2645 C   0  0  0  0  0  0  0  0  0  0  0  0
   18.7844  -18.7518  -15.6122 O   0  0  0  0  0  0  0  0  0  0  0  0
   19.1989  -20.5759  -14.3765 O   0  0  0  0  0  0  0  0  0  0  0  0
  2  3  1  0
  2  1  1  6
  2  5  1  0
  3  4  1  0
  5  6  2  0
  7  8  1  0
  8  9  2  0
 10  8  1  0
 10 11  1  0
 12 11  1  1
 12 14  1  0
 13  5  1  0
 13 12  1  0
 14 20  1  0
 14 15  2  0
 17 16  1  6
 17 19  1  0
 18 17  1  0
 19 21  1  0
 19 20  1  1
 21 23  2  0
 21 22  1  0
M  END
$$$$
