CQT.pdb
     RDKit          3D

 23 22  0  0  1  0  0  0  0  0999 V2000
   24.9650  -16.4908  -16.6932 N   0  0  0  0  0  0  0  0  0  0  0  0
   24.7378  -15.4710  -15.7020 C   0  0  1  0  0  0  0  0  0  0  0  0
   26.0769  -14.7516  -15.5116 C   0  0  0  0  0  0  0  0  0  0  0  0
   27.2847  -15.8570  -14.7327 S   0  0  0  0  0  0  0  0  0  0  0  0
   23.7194  -14.4901  -16.1130 C   0  0  0  0  0  0  0  0  0  0  0  0
   23.6605  -14.1884  -17.3382 O   0  0  0  0  0  0  0  0  0  0  0  0
   17.8505  -14.0356  -14.6091 N   0  0  0  0  0  0  0  0  0  0  0  0
   18.0257  -12.8377  -15.3842 C   0  0  0  0  0  0  0  0  0  0  0  0
   16.9701  -12.2749  -15.7476 O   0  0  0  0  0  0  0  0  0  0  0  0
   19.3779  -12.3458  -15.7061 C   0  0  0  0  0  0  0  0  0  0  0  0
   20.4345  -13.3033  -15.2578 C   0  0  0  0  0  0  0  0  0  0  0  0
   21.7925  -12.8986  -15.6751 C   0  0  2  0  0  0  0  0  0  0  0  0
   22.8081  -13.8635  -15.2482 N   0  0  0  0  0  0  0  0  0  0  0  0
   22.1212  -11.5488  -15.1132 C   0  0  0  0  0  0  0  0  0  0  0  0
   22.5742  -11.3727  -13.9757 O   0  0  0  0  0  0  0  0  0  0  0  0
   24.0739   -8.7325  -17.0995 C   0  0  0  0  0  0  0  0  0  0  0  0
   22.7948   -8.1496  -16.5104 C   0  0  1  0  0  0  0  0  0  0  0  0
   21.8351   -8.1010  -17.5545 O   0  0  0  0  0  0  0  0  0  0  0  0
   22.3494   -9.0835  -15.4232 C   0  0  2  0  0  0  0  0  0  0  0  0
   21.9220  -10.3650  -15.8853 N   0  0  0  0  0  0  0  0  0  0  0  0
   21.2785   -8.4015  -14.6304 C   0  0  0  0  0  0  0  0  0  0  0  0
   21.4378   -7.2111  -13.9560 O   0  0  0  0  0  0  0  0  0  0  0  0
   20.1146   -8.9232  -14.5423 O   0  0  0  0  0  0  0  0  0  0  0  0
  2  3  1  0
  2  1  1  6
  2  5  1  0
  3  4  1  0
  5  6  2  0
  7  8  1  0
  8  9  2  0
 10  8  1  0
 10 11  1  0
 12 11  1  1
 12 14  1  0
 13  5  1  0
 13 12  1  0
 14 20  1  0
 14 15  2  0
 17 16  1  6
 17 19  1  0
 18 17  1  0
 19 21  1  0
 19 20  1  6
 21 23  2  0
 21 22  1  0
M  END
$$$$
