SRP.pdb
     RDKit          3D

 25 25  0  0  1  0  0  0  0  0999 V2000
   29.0351  -10.2876  -15.6856 O   0  0  0  0  0  0  0  0  0  0  0  0
   27.8619   -9.9737  -16.3717 C   0  0  0  0  0  0  0  0  0  0  0  0
   26.8556  -11.1248  -16.2998 C   0  0  2  0  0  0  0  0  0  0  0  0
   27.3984  -12.2043  -17.0891 N   0  0  0  0  0  0  0  0  0  0  0  0
   25.5800  -10.6130  -16.8486 C   0  0  0  0  0  0  0  0  0  0  0  0
   25.4500  -10.4714  -18.0881 O   0  0  0  0  0  0  0  0  0  0  0  0
   17.9733  -13.3704  -14.6357 N   0  0  0  0  0  0  0  0  0  0  0  0
   17.8456  -11.9714  -14.7969 C   0  0  0  0  0  0  0  0  0  0  0  0
   16.7882  -11.3454  -14.3904 N   0  0  0  0  0  0  0  0  0  0  0  0
   18.8655  -11.1785  -15.4108 N   0  0  0  0  0  0  0  0  0  0  0  0
   19.9254  -11.7620  -16.1947 C   0  0  0  0  0  0  0  0  0  0  0  0
   20.8150  -10.6242  -16.7042 C   0  0  0  0  0  0  0  0  0  0  0  0
   22.1694  -10.8148  -16.1275 C   0  0  0  0  0  0  0  0  0  0  0  0
   23.2111   -9.8070  -16.5886 C   0  0  2  0  0  0  0  0  0  0  0  0
   24.4602  -10.2624  -16.0251 N   0  0  0  0  0  0  0  0  0  0  0  0
   22.8613   -8.4152  -16.3415 C   0  0  0  0  0  0  0  0  0  0  0  0
   22.8877   -8.0025  -15.1113 O   0  0  0  0  0  0  0  0  0  0  0  0
   16.6974  -10.3163  -14.5612 N   0  0  0  0  0  0  0  0  0  0  0  0
   22.4877   -7.4205  -17.2693 C   0  0  0  0  0  0  0  0  0  0  0  0
   22.5191   -7.5442  -18.6927 C   0  0  0  0  0  0  0  0  0  0  0  0
   21.6980   -6.3919  -19.2057 C   0  0  0  0  0  0  0  0  0  0  0  0
   22.0022   -5.3061  -18.2006 C   0  0  2  0  0  0  0  0  0  0  0  0
   22.0235   -6.0987  -16.9107 C   0  0  0  0  0  0  0  0  0  0  0  0
   20.6507   -6.1070  -16.3749 O   0  0  0  0  0  0  0  0  0  0  0  0
   20.1302   -4.9994  -15.7490 O   0  0  0  0  0  0  0  0  0  0  0  0
  1  2  1  0
  3  4  1  6
  3  2  1  0
  5  3  1  0
  6  5  2  0
  7  8  1  0
  8  9  2  0
  8 10  1  0
 10 11  1  0
 11 12  1  0
 14 13  1  1
 13 12  1  0
 14 15  1  0
 15  5  1  0
 16 18  1  0
 16 14  1  0
 17 16  2  0
 18 19  1  0
 20 19  1  0
 21 20  1  0
 22 18  1  0
 22 21  1  0
 22 23  1  6
 24 23  1  0
 25 23  2  0
M  END
$$$$
