SRP.pdb
     RDKit          3D

 25 25  0  0  1  0  0  0  0  0999 V2000
   21.9170  -20.4627  -18.0166 O   0  0  0  0  0  0  0  0  0  0  0  0
   21.0009  -19.6017  -17.4127 C   0  0  0  0  0  0  0  0  0  0  0  0
   20.9601  -19.8136  -15.8974 C   0  0  2  0  0  0  0  0  0  0  0  0
   19.9792  -18.8940  -15.3731 N   0  0  0  0  0  0  0  0  0  0  0  0
   22.3216  -19.5339  -15.3893 C   0  0  0  0  0  0  0  0  0  0  0  0
   22.7996  -18.3794  -15.4982 O   0  0  0  0  0  0  0  0  0  0  0  0
   25.2658  -20.5632   -8.3159 N   0  0  0  0  0  0  0  0  0  0  0  0
   24.3098  -20.7271   -9.3448 C   0  0  0  0  0  0  0  0  0  0  0  0
   23.0413  -20.6790   -9.0925 N   0  0  0  0  0  0  0  0  0  0  0  0
   24.6862  -20.9527  -10.7061 N   0  0  0  0  0  0  0  0  0  0  0  0
   26.0501  -21.2131  -11.0938 C   0  0  0  0  0  0  0  0  0  0  0  0
   26.1325  -21.1149  -12.6199 C   0  0  0  0  0  0  0  0  0  0  0  0
   24.7471  -21.1493  -13.1517 C   0  0  0  0  0  0  0  0  0  0  0  0
   24.4993  -20.2537  -14.3559 C   0  0  2  0  0  0  0  0  0  0  0  0
   23.1426  -20.5300  -14.7660 N   0  0  0  0  0  0  0  0  0  0  0  0
   25.5168  -20.3366  -15.3945 C   0  0  0  0  0  0  0  0  0  0  0  0
   25.4601  -21.3478  -16.2061 O   0  0  0  0  0  0  0  0  0  0  0  0
   22.3527  -20.8184   -9.8690 N   0  0  0  0  0  0  0  0  0  0  0  0
   26.5854  -19.4539  -15.6561 C   0  0  0  0  0  0  0  0  0  0  0  0
   26.9314  -18.3009  -14.8860 C   0  0  0  0  0  0  0  0  0  0  0  0
   28.3180  -17.9283  -15.3369 C   0  0  0  0  0  0  0  0  0  0  0  0
   28.2881  -18.2885  -16.8035 C   0  0  1  0  0  0  0  0  0  0  0  0
   27.4968  -19.5789  -16.7721 C   0  0  0  0  0  0  0  0  0  0  0  0
   28.4579  -20.6822  -16.5969 O   0  0  0  0  0  0  0  0  0  0  0  0
   29.2770  -21.0756  -17.6283 O   0  0  0  0  0  0  0  0  0  0  0  0
  1  2  1  0
  3  4  1  1
  3  2  1  0
  5  3  1  0
  6  5  2  0
  7  8  1  0
  8  9  2  0
  8 10  1  0
 10 11  1  0
 11 12  1  0
 14 13  1  1
 13 12  1  0
 14 15  1  0
 15  5  1  0
 16 18  1  0
 16 14  1  0
 17 16  2  0
 18 19  1  0
 20 19  1  0
 21 20  1  0
 22 18  1  0
 22 21  1  0
 22 23  1  1
 24 23  1  0
 25 23  2  0
M  END
$$$$
