SRP.pdb
     RDKit          3D

 25 25  0  0  1  0  0  0  0  0999 V2000
   26.1583  -19.1142  -18.0978 O   0  0  0  0  0  0  0  0  0  0  0  0
   27.1175  -18.8824  -17.1121 C   0  0  0  0  0  0  0  0  0  0  0  0
   27.7290  -20.1954  -16.6173 C   0  0  2  0  0  0  0  0  0  0  0  0
   28.0620  -20.9691  -17.7892 N   0  0  0  0  0  0  0  0  0  0  0  0
   26.7035  -20.8563  -15.7796 C   0  0  0  0  0  0  0  0  0  0  0  0
   25.9751  -21.7475  -16.2780 O   0  0  0  0  0  0  0  0  0  0  0  0
   22.5059  -19.5073   -9.6800 N   0  0  0  0  0  0  0  0  0  0  0  0
   22.8722  -20.5414   -8.7878 C   0  0  0  0  0  0  0  0  0  0  0  0
   22.0769  -20.9183   -7.8388 N   0  0  0  0  0  0  0  0  0  0  0  0
   24.1271  -21.2210   -8.8824 N   0  0  0  0  0  0  0  0  0  0  0  0
   25.1454  -20.8277   -9.8241 C   0  0  0  0  0  0  0  0  0  0  0  0
   24.6743  -21.2338  -11.2236 C   0  0  0  0  0  0  0  0  0  0  0  0
   25.7288  -20.8367  -12.1898 C   0  0  0  0  0  0  0  0  0  0  0  0
   25.3754  -21.0577  -13.6526 C   0  0  2  0  0  0  0  0  0  0  0  0
   26.4912  -20.5279  -14.4005 N   0  0  0  0  0  0  0  0  0  0  0  0
   24.0551  -20.5789  -14.0378 C   0  0  0  0  0  0  0  0  0  0  0  0
   23.8356  -19.3024  -13.9553 O   0  0  0  0  0  0  0  0  0  0  0  0
   22.3573  -21.7075   -7.2103 N   0  0  0  0  0  0  0  0  0  0  0  0
   22.9478  -21.3197  -14.5012 C   0  0  0  0  0  0  0  0  0  0  0  0
   22.8925  -22.7389  -14.6597 C   0  0  0  0  0  0  0  0  0  0  0  0
   21.4304  -23.0608  -14.8136 C   0  0  0  0  0  0  0  0  0  0  0  0
   20.9136  -21.8602  -15.5707 C   0  0  2  0  0  0  0  0  0  0  0  0
   21.6862  -20.7403  -14.9065 C   0  0  0  0  0  0  0  0  0  0  0  0
   20.8859  -20.2699  -13.7620 O   0  0  0  0  0  0  0  0  0  0  0  0
   19.7524  -19.5166  -13.9550 O   0  0  0  0  0  0  0  0  0  0  0  0
  1  2  1  0
  3  4  1  6
  3  2  1  0
  5  3  1  0
  6  5  2  0
  7  8  1  0
  8  9  2  0
  8 10  1  0
 10 11  1  0
 11 12  1  0
 14 13  1  1
 13 12  1  0
 14 15  1  0
 15  5  1  0
 16 18  1  0
 16 14  1  0
 17 16  2  0
 18 19  1  0
 20 19  1  0
 21 20  1  0
 22 18  1  0
 22 21  1  0
 22 23  1  1
 24 23  1  0
 25 23  2  0
M  END
$$$$
