SRP.pdb
     RDKit          3D

 25 25  0  0  1  0  0  0  0  0999 V2000
   22.1048  -19.8885  -18.2597 O   0  0  0  0  0  0  0  0  0  0  0  0
   21.4135  -18.6820  -18.1507 C   0  0  0  0  0  0  0  0  0  0  0  0
   21.0075  -18.4073  -16.7008 C   0  0  2  0  0  0  0  0  0  0  0  0
   20.3193  -17.1388  -16.6926 N   0  0  0  0  0  0  0  0  0  0  0  0
   22.2552  -18.3755  -15.9056 C   0  0  0  0  0  0  0  0  0  0  0  0
   23.0891  -17.4580  -16.0957 O   0  0  0  0  0  0  0  0  0  0  0  0
   23.0085  -21.3618   -8.0679 N   0  0  0  0  0  0  0  0  0  0  0  0
   22.3496  -20.7587   -9.1641 C   0  0  0  0  0  0  0  0  0  0  0  0
   21.0729  -20.5475   -9.1428 N   0  0  0  0  0  0  0  0  0  0  0  0
   23.0485  -20.3529  -10.3442 N   0  0  0  0  0  0  0  0  0  0  0  0
   24.2951  -20.9558  -10.7452 C   0  0  0  0  0  0  0  0  0  0  0  0
   24.7573  -20.2686  -12.0334 C   0  0  0  0  0  0  0  0  0  0  0  0
   23.5580  -20.0289  -12.8747 C   0  0  0  0  0  0  0  0  0  0  0  0
   23.8346  -19.3533  -14.2091 C   0  0  2  0  0  0  0  0  0  0  0  0
   22.5713  -19.3558  -14.9086 N   0  0  0  0  0  0  0  0  0  0  0  0
   24.9760  -19.8900  -14.9369 C   0  0  0  0  0  0  0  0  0  0  0  0
   24.8185  -21.0295  -15.5379 O   0  0  0  0  0  0  0  0  0  0  0  0
   20.6061  -20.1096   -9.9716 N   0  0  0  0  0  0  0  0  0  0  0  0
   26.2648  -19.3374  -15.0898 C   0  0  0  0  0  0  0  0  0  0  0  0
   26.7560  -18.1590  -14.4476 C   0  0  0  0  0  0  0  0  0  0  0  0
   28.2486  -18.2017  -14.6356 C   0  0  0  0  0  0  0  0  0  0  0  0
   28.3839  -18.8339  -16.0007 C   0  0  1  0  0  0  0  0  0  0  0  0
   27.2938  -19.8834  -15.9469 C   0  0  0  0  0  0  0  0  0  0  0  0
   27.8921  -21.1139  -15.3995 O   0  0  0  0  0  0  0  0  0  0  0  0
   28.7446  -21.8817  -16.1566 O   0  0  0  0  0  0  0  0  0  0  0  0
  1  2  1  0
  3  4  1  6
  3  2  1  0
  5  3  1  0
  6  5  2  0
  7  8  1  0
  8  9  2  0
  8 10  1  0
 10 11  1  0
 11 12  1  0
 14 13  1  1
 13 12  1  0
 14 15  1  0
 15  5  1  0
 16 18  1  0
 16 14  1  0
 17 16  2  0
 18 19  1  0
 20 19  1  0
 21 20  1  0
 22 18  1  0
 22 21  1  0
 22 23  1  1
 24 23  1  0
 25 23  2  0
M  END
$$$$
