SRP.pdb
     RDKit          3D

 25 25  0  0  1  0  0  0  0  0999 V2000
   27.8510  -17.6717  -16.5033 O   0  0  0  0  0  0  0  0  0  0  0  0
   27.4483  -19.0052  -16.5745 C   0  0  0  0  0  0  0  0  0  0  0  0
   28.3246  -19.8945  -15.6892 C   0  0  2  0  0  0  0  0  0  0  0  0
   29.0944  -20.7357  -16.5738 N   0  0  0  0  0  0  0  0  0  0  0  0
   27.4093  -20.6743  -14.8265 C   0  0  0  0  0  0  0  0  0  0  0  0
   26.9921  -21.7918  -15.2145 O   0  0  0  0  0  0  0  0  0  0  0  0
   27.0144  -19.3569   -6.7276 N   0  0  0  0  0  0  0  0  0  0  0  0
   27.6407  -20.1895   -7.6836 C   0  0  0  0  0  0  0  0  0  0  0  0
   28.8630  -20.5851   -7.5271 N   0  0  0  0  0  0  0  0  0  0  0  0
   26.9668  -20.6363   -8.8635 N   0  0  0  0  0  0  0  0  0  0  0  0
   25.5325  -20.5800   -8.9977 C   0  0  0  0  0  0  0  0  0  0  0  0
   25.1704  -21.0893  -10.3960 C   0  0  0  0  0  0  0  0  0  0  0  0
   26.1826  -20.5635  -11.3460 C   0  0  0  0  0  0  0  0  0  0  0  0
   25.9247  -20.8960  -12.8077 C   0  0  2  0  0  0  0  0  0  0  0  0
   26.9628  -20.2143  -13.5444 N   0  0  0  0  0  0  0  0  0  0  0  0
   24.5579  -20.6615  -13.2522 C   0  0  0  0  0  0  0  0  0  0  0  0
   24.1591  -19.4289  -13.3311 O   0  0  0  0  0  0  0  0  0  0  0  0
   29.3123  -21.1828   -8.2601 N   0  0  0  0  0  0  0  0  0  0  0  0
   23.5754  -21.6040  -13.6209 C   0  0  0  0  0  0  0  0  0  0  0  0
   23.7265  -23.0250  -13.6078 C   0  0  0  0  0  0  0  0  0  0  0  0
   22.3282  -23.5703  -13.7186 C   0  0  0  0  0  0  0  0  0  0  0  0
   21.6561  -22.5556  -14.6132 C   0  0  1  0  0  0  0  0  0  0  0  0
   22.2500  -21.2649  -14.0899 C   0  0  0  0  0  0  0  0  0  0  0  0
   21.3734  -20.7819  -13.0083 O   0  0  0  0  0  0  0  0  0  0  0  0
   20.1808  -20.1595  -13.2909 O   0  0  0  0  0  0  0  0  0  0  0  0
  1  2  1  0
  3  4  1  6
  3  2  1  0
  5  3  1  0
  6  5  2  0
  7  8  1  0
  8  9  2  0
  8 10  1  0
 10 11  1  0
 11 12  1  0
 14 13  1  1
 13 12  1  0
 14 15  1  0
 15  5  1  0
 16 18  1  0
 16 14  1  0
 17 16  2  0
 18 19  1  0
 20 19  1  0
 21 20  1  0
 22 18  1  0
 22 21  1  0
 22 23  1  1
 24 23  1  0
 25 23  2  0
M  END
$$$$
