SRP.pdb
     RDKit          3D

 25 25  0  0  1  0  0  0  0  0999 V2000
   17.2700  -22.1263  -13.9667 O   0  0  0  0  0  0  0  0  0  0  0  0
   18.1676  -21.4363  -13.1519 C   0  0  0  0  0  0  0  0  0  0  0  0
   19.4768  -22.2128  -12.9917 C   0  0  2  0  0  0  0  0  0  0  0  0
   19.9452  -22.5212  -14.3215 N   0  0  0  0  0  0  0  0  0  0  0  0
   19.1601  -23.4294  -12.2107 C   0  0  0  0  0  0  0  0  0  0  0  0
   19.0402  -24.5308  -12.7988 O   0  0  0  0  0  0  0  0  0  0  0  0
   16.4661  -24.4122   -4.4034 N   0  0  0  0  0  0  0  0  0  0  0  0
   17.1773  -25.6343   -4.4039 C   0  0  0  0  0  0  0  0  0  0  0  0
   16.8928  -26.5736   -3.5601 N   0  0  0  0  0  0  0  0  0  0  0  0
   18.2386  -25.8984   -5.3257 N   0  0  0  0  0  0  0  0  0  0  0  0
   18.7223  -24.9010   -6.2475 C   0  0  0  0  0  0  0  0  0  0  0  0
   18.3821  -25.3670   -7.6662 C   0  0  0  0  0  0  0  0  0  0  0  0
   18.7992  -24.2972   -8.6069 C   0  0  0  0  0  0  0  0  0  0  0  0
   18.5029  -24.5792  -10.0718 C   0  0  2  0  0  0  0  0  0  0  0  0
   18.9785  -23.4195  -10.7888 N   0  0  0  0  0  0  0  0  0  0  0  0
   17.1333  -24.9906  -10.3466 C   0  0  0  0  0  0  0  0  0  0  0  0
   16.2009  -24.1006  -10.1947 O   0  0  0  0  0  0  0  0  0  0  0  0
   17.4434  -27.4642   -3.5709 N   0  0  0  0  0  0  0  0  0  0  0  0
   16.6570  -26.2503  -10.7661 C   0  0  0  0  0  0  0  0  0  0  0  0
   17.4537  -27.4106  -11.0133 C   0  0  0  0  0  0  0  0  0  0  0  0
   16.4768  -28.5541  -11.0682 C   0  0  0  0  0  0  0  0  0  0  0  0
   15.2638  -27.9122  -11.6993 C   0  0  2  0  0  0  0  0  0  0  0  0
   15.2677  -26.5553  -11.0276 C   0  0  0  0  0  0  0  0  0  0  0  0
   14.4717  -26.6714   -9.7929 O   0  0  0  0  0  0  0  0  0  0  0  0
   15.0636  -26.5553   -8.5577 O   0  0  0  0  0  0  0  0  0  0  0  0
  1  2  1  0
  3  4  1  6
  3  2  1  0
  5  3  1  0
  6  5  2  0
  7  8  1  0
  8  9  2  0
  8 10  1  0
 10 11  1  0
 11 12  1  0
 14 13  1  1
 13 12  1  0
 14 15  1  0
 15  5  1  0
 16 18  1  0
 16 14  1  0
 17 16  2  0
 18 19  1  0
 20 19  1  0
 21 20  1  0
 22 18  1  0
 22 21  1  0
 22 23  1  1
 24 23  1  0
 25 23  2  0
M  END
$$$$
