GII.pdb
     RDKit          3D

 21 20  0  0  1  0  0  0  0  0999 V2000
   18.9896  -21.5710   -9.9376 N   0  0  0  0  0  0  0  0  0  0  0  0
   20.0260  -22.2611  -10.6731 C   0  0  0  0  0  0  0  0  0  0  0  0
   20.9818  -21.3091  -11.2975 C   0  0  0  0  0  0  0  0  0  0  0  0
   20.7080  -20.0825  -11.3243 O   0  0  0  0  0  0  0  0  0  0  0  0
   26.3469  -21.4594  -10.3508 C   0  0  0  0  0  0  0  0  0  0  0  0
   24.9036  -21.1537  -10.6548 C   0  0  0  0  0  0  0  0  0  0  0  0
   24.5924  -21.0609  -12.1175 C   0  0  2  0  0  0  0  0  0  0  0  0
   25.5289  -20.1796  -12.8723 C   0  0  0  0  0  0  0  0  0  0  0  0
   23.1585  -20.8128  -12.4626 C   0  0  2  0  0  0  0  0  0  0  0  0
   22.2100  -21.7116  -11.8767 N   0  0  0  0  0  0  0  0  0  0  0  0
   23.0443  -20.8857  -13.9513 C   0  0  0  0  0  0  0  0  0  0  0  0
   23.2118  -22.0063  -14.5377 O   0  0  0  0  0  0  0  0  0  0  0  0
   18.7531  -19.0111  -16.1273 C   0  0  0  0  0  0  0  0  0  0  0  0
   20.0279  -19.7472  -16.0044 C   0  0  0  0  0  0  0  0  0  0  0  0
   21.2828  -19.1701  -16.4881 C   0  0  2  0  0  0  0  0  0  0  0  0
   21.1754  -18.7806  -17.9809 C   0  0  0  0  0  0  0  0  0  0  0  0
   22.5510  -19.9154  -16.2439 C   0  0  2  0  0  0  0  0  0  0  0  0
   22.7567  -19.7627  -14.7511 N   0  0  0  0  0  0  0  0  0  0  0  0
   23.7142  -19.3544  -16.9131 C   0  0  0  0  0  0  0  0  0  0  0  0
   24.3533  -19.8730  -18.0088 O   0  0  0  0  0  0  0  0  0  0  0  0
   24.2233  -18.2708  -16.4531 O   0  0  0  0  0  0  0  0  0  0  0  0
  1  2  1  0
  2  3  1  0
  3 10  1  0
  4  3  2  0
  5  6  1  0
  7  8  1  1
  7  6  1  0
  9  7  1  0
  9 10  1  1
 11  9  1  0
 12 11  2  0
 13 14  1  0
 15 17  1  0
 15 14  1  0
 15 16  1  6
 17 18  1  1
 18 11  1  0
 19 17  1  0
 20 19  1  0
 21 19  2  0
M  END
$$$$
