GII.pdb
     RDKit          3D

 21 20  0  0  1  0  0  0  0  0999 V2000
   17.1681  -12.2709  -15.7702 N   0  0  0  0  0  0  0  0  0  0  0  0
   16.5471  -11.1278  -15.1385 C   0  0  0  0  0  0  0  0  0  0  0  0
   17.1962   -9.8550  -15.5489 C   0  0  0  0  0  0  0  0  0  0  0  0
   18.2221   -9.8871  -16.2746 O   0  0  0  0  0  0  0  0  0  0  0  0
   13.7958   -5.8529  -16.5190 C   0  0  0  0  0  0  0  0  0  0  0  0
   15.0630   -6.6187  -16.7957 C   0  0  0  0  0  0  0  0  0  0  0  0
   16.2027   -6.2641  -15.8901 C   0  0  2  0  0  0  0  0  0  0  0  0
   16.8189   -4.9412  -16.1961 C   0  0  0  0  0  0  0  0  0  0  0  0
   17.2186   -7.3398  -15.6719 C   0  0  2  0  0  0  0  0  0  0  0  0
   16.7162   -8.5799  -15.1618 N   0  0  0  0  0  0  0  0  0  0  0  0
   18.2370   -6.7982  -14.7211 C   0  0  0  0  0  0  0  0  0  0  0  0
   17.9001   -6.5551  -13.5148 O   0  0  0  0  0  0  0  0  0  0  0  0
   22.7960   -9.1492  -14.3425 C   0  0  0  0  0  0  0  0  0  0  0  0
   21.7455   -8.2080  -13.9037 C   0  0  0  0  0  0  0  0  0  0  0  0
   21.7731   -6.8024  -14.3103 C   0  0  2  0  0  0  0  0  0  0  0  0
   23.0143   -6.0822  -13.7337 C   0  0  0  0  0  0  0  0  0  0  0  0
   20.5531   -5.9732  -14.0920 C   0  0  2  0  0  0  0  0  0  0  0  0
   19.5697   -6.5389  -15.0954 N   0  0  0  0  0  0  0  0  0  0  0  0
   20.7282   -4.5601  -14.3885 C   0  0  0  0  0  0  0  0  0  0  0  0
   20.4396   -3.9337  -15.5726 O   0  0  0  0  0  0  0  0  0  0  0  0
   21.2059   -3.7963  -13.4754 O   0  0  0  0  0  0  0  0  0  0  0  0
  1  2  1  0
  2  3  1  0
  3 10  1  0
  4  3  2  0
  5  6  1  0
  7  8  1  6
  7  6  1  0
  9  7  1  0
  9 10  1  1
 11  9  1  0
 12 11  2  0
 13 14  1  0
 15 17  1  0
 15 14  1  0
 15 16  1  1
 17 18  1  6
 18 11  1  0
 19 17  1  0
 20 19  1  0
 21 19  2  0
M  END
$$$$
