GII.pdb
     RDKit          3D

 21 20  0  0  1  0  0  0  0  0999 V2000
   18.7920  -14.8890  -18.4064 N   0  0  0  0  0  0  0  0  0  0  0  0
   19.5818  -13.7053  -18.6643 C   0  0  0  0  0  0  0  0  0  0  0  0
   20.0488  -13.0724  -17.4029 C   0  0  0  0  0  0  0  0  0  0  0  0
   19.2217  -12.8253  -16.4890 O   0  0  0  0  0  0  0  0  0  0  0  0
   25.1004  -13.9469  -15.1710 C   0  0  0  0  0  0  0  0  0  0  0  0
   23.6326  -13.7091  -15.4116 C   0  0  0  0  0  0  0  0  0  0  0  0
   23.2680  -12.2676  -15.5956 C   0  0  2  0  0  0  0  0  0  0  0  0
   23.7112  -11.3918  -14.4731 C   0  0  0  0  0  0  0  0  0  0  0  0
   21.8572  -12.0022  -16.0152 C   0  0  2  0  0  0  0  0  0  0  0  0
   21.4007  -12.7237  -17.1647 N   0  0  0  0  0  0  0  0  0  0  0  0
   21.7454  -10.5359  -16.2836 C   0  0  0  0  0  0  0  0  0  0  0  0
   22.4252  -10.0196  -17.2318 O   0  0  0  0  0  0  0  0  0  0  0  0
   17.5244   -8.2621  -17.6914 C   0  0  0  0  0  0  0  0  0  0  0  0
   18.9678   -8.3501  -17.3895 C   0  0  0  0  0  0  0  0  0  0  0  0
   19.5002   -7.8916  -16.1058 C   0  0  2  0  0  0  0  0  0  0  0  0
   19.2080   -6.3885  -15.8889 C   0  0  0  0  0  0  0  0  0  0  0  0
   20.9241   -8.1885  -15.7776 C   0  0  2  0  0  0  0  0  0  0  0  0
   20.9150   -9.6829  -15.5311 N   0  0  0  0  0  0  0  0  0  0  0  0
   21.4081   -7.5409  -14.5686 C   0  0  0  0  0  0  0  0  0  0  0  0
   21.2827   -8.0092  -13.2869 O   0  0  0  0  0  0  0  0  0  0  0  0
   22.0098   -6.4132  -14.6756 O   0  0  0  0  0  0  0  0  0  0  0  0
  1  2  1  0
  2  3  1  0
  3 10  1  0
  4  3  2  0
  5  6  1  0
  7  8  1  1
  7  6  1  0
  9  7  1  0
  9 10  1  6
 11  9  1  0
 12 11  2  0
 13 14  1  0
 15 17  1  0
 15 14  1  0
 15 16  1  6
 17 18  1  1
 18 11  1  0
 19 17  1  0
 20 19  1  0
 21 19  2  0
M  END
$$$$
