GII.pdb
     RDKit          3D

 21 20  0  0  1  0  0  0  0  0999 V2000
   19.2660  -15.5499  -17.9153 N   0  0  0  0  0  0  0  0  0  0  0  0
   19.5926  -14.1853  -18.2655 C   0  0  0  0  0  0  0  0  0  0  0  0
   20.1775  -13.4490  -17.1141 C   0  0  0  0  0  0  0  0  0  0  0  0
   19.5090  -13.3158  -16.0580 O   0  0  0  0  0  0  0  0  0  0  0  0
   25.4446  -13.9002  -15.6179 C   0  0  0  0  0  0  0  0  0  0  0  0
   23.9497  -13.7341  -15.7006 C   0  0  0  0  0  0  0  0  0  0  0  0
   23.4976  -12.3107  -15.8197 C   0  0  2  0  0  0  0  0  0  0  0  0
   24.0285  -11.4238  -14.7451 C   0  0  0  0  0  0  0  0  0  0  0  0
   22.0359  -12.1114  -16.0661 C   0  0  2  0  0  0  0  0  0  0  0  0
   21.4726  -12.8760  -17.1377 N   0  0  0  0  0  0  0  0  0  0  0  0
   21.8299  -10.6571  -16.3438 C   0  0  0  0  0  0  0  0  0  0  0  0
   22.3208  -10.1470  -17.4053 O   0  0  0  0  0  0  0  0  0  0  0  0
   17.3989   -8.7902  -17.4744 C   0  0  0  0  0  0  0  0  0  0  0  0
   18.8558   -8.8328  -17.2340 C   0  0  0  0  0  0  0  0  0  0  0  0
   19.4399   -8.2440  -16.0282 C   0  0  2  0  0  0  0  0  0  0  0  0
   18.9816   -6.7778  -15.8488 C   0  0  0  0  0  0  0  0  0  0  0  0
   20.9136   -8.3476  -15.8263 C   0  0  2  0  0  0  0  0  0  0  0  0
   21.1105   -9.8089  -15.4798 N   0  0  0  0  0  0  0  0  0  0  0  0
   21.4239   -7.5549  -14.7188 C   0  0  0  0  0  0  0  0  0  0  0  0
   22.0608   -6.3448  -14.8078 O   0  0  0  0  0  0  0  0  0  0  0  0
   21.2884   -8.0079  -13.5264 O   0  0  0  0  0  0  0  0  0  0  0  0
  1  2  1  0
  2  3  1  0
  3 10  1  0
  4  3  2  0
  5  6  1  0
  7  8  1  1
  7  6  1  0
  9  7  1  0
  9 10  1  6
 11  9  1  0
 12 11  2  0
 13 14  1  0
 15 17  1  0
 15 14  1  0
 15 16  1  6
 17 18  1  1
 18 11  1  0
 19 17  1  0
 20 19  1  0
 21 19  2  0
M  END
$$$$
