GII.pdb
     RDKit          3D

 21 20  0  0  1  0  0  0  0  0999 V2000
   18.2265  -12.2377  -18.2264 N   0  0  0  0  0  0  0  0  0  0  0  0
   18.8396  -10.9291  -18.2807 C   0  0  0  0  0  0  0  0  0  0  0  0
   19.5332  -10.5956  -17.0089 C   0  0  0  0  0  0  0  0  0  0  0  0
   18.8766  -10.5461  -15.9382 O   0  0  0  0  0  0  0  0  0  0  0  0
   24.3423  -12.7200  -15.5563 C   0  0  0  0  0  0  0  0  0  0  0  0
   22.9695  -12.1138  -15.6860 C   0  0  0  0  0  0  0  0  0  0  0  0
   22.9393  -10.6252  -15.5189 C   0  0  2  0  0  0  0  0  0  0  0  0
   23.6312  -10.1486  -14.2870 C   0  0  0  0  0  0  0  0  0  0  0  0
   21.6082   -9.9749  -15.7242 C   0  0  2  0  0  0  0  0  0  0  0  0
   20.9212  -10.3242  -16.9309 N   0  0  0  0  0  0  0  0  0  0  0  0
   21.8313   -8.4969  -15.7004 C   0  0  0  0  0  0  0  0  0  0  0  0
   22.6306   -7.9710  -16.5444 O   0  0  0  0  0  0  0  0  0  0  0  0
   18.8732   -3.4264  -15.7205 C   0  0  0  0  0  0  0  0  0  0  0  0
   20.1018   -4.0904  -15.2389 C   0  0  0  0  0  0  0  0  0  0  0  0
   20.2202   -5.5491  -15.2354 C   0  0  2  0  0  0  0  0  0  0  0  0
   19.0236   -6.2011  -14.5042 C   0  0  0  0  0  0  0  0  0  0  0  0
   21.4985   -6.1594  -14.7697 C   0  0  2  0  0  0  0  0  0  0  0  0
   21.1939   -7.6430  -14.7794 N   0  0  0  0  0  0  0  0  0  0  0  0
   21.8792   -5.7921  -13.4149 C   0  0  0  0  0  0  0  0  0  0  0  0
   21.6942   -6.5435  -12.2840 O   0  0  0  0  0  0  0  0  0  0  0  0
   22.4391   -4.6543  -13.2221 O   0  0  0  0  0  0  0  0  0  0  0  0
  1  2  1  0
  2  3  1  0
  3 10  1  0
  4  3  2  0
  5  6  1  0
  7  8  1  1
  7  6  1  0
  9  7  1  0
  9 10  1  6
 11  9  1  0
 12 11  2  0
 13 14  1  0
 15 17  1  0
 15 14  1  0
 15 16  1  1
 17 18  1  1
 18 11  1  0
 19 17  1  0
 20 19  1  0
 21 19  2  0
M  END
$$$$
