GII.pdb
     RDKit          3D

 21 20  0  0  1  0  0  0  0  0999 V2000
   27.3010  -22.4061   -9.9314 N   0  0  0  0  0  0  0  0  0  0  0  0
   26.7072  -22.7037  -11.2161 C   0  0  0  0  0  0  0  0  0  0  0  0
   26.2296  -21.4719  -11.8976 C   0  0  0  0  0  0  0  0  0  0  0  0
   25.6831  -20.5620  -11.2242 O   0  0  0  0  0  0  0  0  0  0  0  0
   29.3156  -18.7921  -15.4125 C   0  0  0  0  0  0  0  0  0  0  0  0
   28.3193  -19.2611  -14.3847 C   0  0  0  0  0  0  0  0  0  0  0  0
   26.9404  -19.4849  -14.9263 C   0  0  2  0  0  0  0  0  0  0  0  0
   26.3996  -18.3191  -15.6824 C   0  0  0  0  0  0  0  0  0  0  0  0
   25.9503  -20.0620  -13.9654 C   0  0  2  0  0  0  0  0  0  0  0  0
   26.3570  -21.2585  -13.2920 N   0  0  0  0  0  0  0  0  0  0  0  0
   24.6982  -20.3368  -14.7343 C   0  0  0  0  0  0  0  0  0  0  0  0
   24.6824  -21.2866  -15.5860 O   0  0  0  0  0  0  0  0  0  0  0  0
   20.0717  -20.4978  -12.2233 C   0  0  0  0  0  0  0  0  0  0  0  0
   21.1123  -20.6474  -13.2611 C   0  0  0  0  0  0  0  0  0  0  0  0
   21.1733  -19.7379  -14.4060 C   0  0  2  0  0  0  0  0  0  0  0  0
   19.8163  -19.6853  -15.1459 C   0  0  0  0  0  0  0  0  0  0  0  0
   22.2847  -19.9001  -15.3868 C   0  0  2  0  0  0  0  0  0  0  0  0
   23.5172  -19.5886  -14.5634 N   0  0  0  0  0  0  0  0  0  0  0  0
   22.2441  -18.9636  -16.4989 C   0  0  0  0  0  0  0  0  0  0  0  0
   22.4886  -17.6165  -16.4396 O   0  0  0  0  0  0  0  0  0  0  0  0
   21.9447  -19.4077  -17.6643 O   0  0  0  0  0  0  0  0  0  0  0  0
  1  2  1  0
  2  3  1  0
  3 10  1  0
  4  3  2  0
  5  6  1  0
  7  8  1  1
  7  6  1  0
  9  7  1  0
  9 10  1  6
 11  9  1  0
 12 11  2  0
 13 14  1  0
 15 17  1  0
 15 14  1  0
 15 16  1  6
 17 18  1  1
 18 11  1  0
 19 17  1  0
 20 19  1  0
 21 19  2  0
M  END
$$$$
