GII.pdb
     RDKit          3D

 21 20  0  0  1  0  0  0  0  0999 V2000
   23.6143  -12.6041  -21.6582 N   0  0  0  0  0  0  0  0  0  0  0  0
   23.7184  -11.2540  -21.1502 C   0  0  0  0  0  0  0  0  0  0  0  0
   23.3567  -11.1808  -19.7102 C   0  0  0  0  0  0  0  0  0  0  0  0
   22.2276  -11.5840  -19.3324 O   0  0  0  0  0  0  0  0  0  0  0  0
   26.8061  -12.3979  -15.6188 C   0  0  0  0  0  0  0  0  0  0  0  0
   25.6180  -12.1804  -16.5189 C   0  0  0  0  0  0  0  0  0  0  0  0
   24.9597  -10.8449  -16.3518 C   0  0  2  0  0  0  0  0  0  0  0  0
   24.5666  -10.5451  -14.9451 C   0  0  0  0  0  0  0  0  0  0  0  0
   23.8799  -10.5248  -17.3359 C   0  0  2  0  0  0  0  0  0  0  0  0
   24.2288  -10.6723  -18.7168 N   0  0  0  0  0  0  0  0  0  0  0  0
   23.4613   -9.1116  -17.0868 C   0  0  0  0  0  0  0  0  0  0  0  0
   24.2810   -8.1642  -17.3285 O   0  0  0  0  0  0  0  0  0  0  0  0
   19.1003   -5.3524  -18.2819 C   0  0  0  0  0  0  0  0  0  0  0  0
   20.1072   -5.7287  -17.2686 C   0  0  0  0  0  0  0  0  0  0  0  0
   20.7749   -7.0302  -17.3144 C   0  0  2  0  0  0  0  0  0  0  0  0
   19.7435   -8.1822  -17.3440 C   0  0  0  0  0  0  0  0  0  0  0  0
   21.8384   -7.3214  -16.3106 C   0  0  2  0  0  0  0  0  0  0  0  0
   22.1884   -8.7680  -16.5915 N   0  0  0  0  0  0  0  0  0  0  0  0
   21.3979   -7.2306  -14.9274 C   0  0  0  0  0  0  0  0  0  0  0  0
   20.9893   -8.2690  -14.1321 O   0  0  0  0  0  0  0  0  0  0  0  0
   21.3690   -6.0770  -14.3673 O   0  0  0  0  0  0  0  0  0  0  0  0
  1  2  1  0
  2  3  1  0
  3 10  1  0
  4  3  2  0
  5  6  1  0
  7  8  1  1
  7  6  1  0
  9  7  1  0
  9 10  1  6
 11  9  1  0
 12 11  2  0
 13 14  1  0
 15 17  1  0
 15 14  1  0
 15 16  1  1
 17 18  1  6
 18 11  1  0
 19 17  1  0
 20 19  1  0
 21 19  2  0
M  END
$$$$
