PAG.pdb
     RDKit          3D

 17 17  0  0  1  0  0  0  0  0999 V2000
   23.7277  -10.4762  -16.7964 N   0  0  0  0  0  0  0  0  0  0  0  0
   24.2413  -11.6342  -16.0508 C   0  0  0  0  0  0  0  0  0  0  0  0
   23.9524  -11.2109  -14.6257 C   0  0  0  0  0  0  0  0  0  0  0  0
   22.7158  -10.3143  -14.7173 C   0  0  0  0  0  0  0  0  0  0  0  0
   22.4309  -10.3097  -16.1856 C   0  0  1  0  0  0  0  0  0  0  0  0
   21.7582   -9.0645  -16.6410 C   0  0  0  0  0  0  0  0  0  0  0  0
   22.3439   -8.1981  -17.3164 O   0  0  0  0  0  0  0  0  0  0  0  0
   18.1725   -8.1263  -16.7928 C   0  0  0  0  0  0  0  0  0  0  0  0
   19.6398   -7.6874  -16.7059 C   0  0  2  0  0  0  0  0  0  0  0  0
   20.3956   -8.8276  -16.3075 N   0  0  0  0  0  0  0  0  0  0  0  0
   19.7992   -6.5225  -15.8118 C   0  0  0  0  0  0  0  0  0  0  0  0
   19.2535   -5.4348  -16.1352 O   0  0  0  0  0  0  0  0  0  0  0  0
   20.5328   -6.5529  -14.6047 N   0  0  0  0  0  0  0  0  0  0  0  0
   20.7436   -5.3851  -13.7698 C   0  0  0  0  0  0  0  0  0  0  0  0
   21.9856   -4.7313  -14.2105 C   0  0  0  0  0  0  0  0  0  0  0  0
   22.6511   -5.2371  -15.1368 O   0  0  0  0  0  0  0  0  0  0  0  0
   22.4211   -3.5728  -13.6159 O   0  0  0  0  0  0  0  0  0  0  0  0
  1  2  1  0
  1  5  1  0
  2  3  1  0
  3  4  1  0
  5  6  1  6
  5  4  1  0
  6  7  2  0
  9  8  1  1
 10  9  1  0
 10  6  1  0
 11  9  1  0
 12 11  2  0
 13 11  1  0
 14 13  1  0
 15 17  1  0
 15 14  1  0
 16 15  2  0
M  END
$$$$
