PAG.pdb
     RDKit          3D

 17 17  0  0  1  0  0  0  0  0999 V2000
   17.7078  -24.5566  -10.8434 N   0  0  0  0  0  0  0  0  0  0  0  0
   18.7074  -23.8935  -11.6930 C   0  0  0  0  0  0  0  0  0  0  0  0
   19.2996  -22.8974  -10.7180 C   0  0  0  0  0  0  0  0  0  0  0  0
   19.1615  -23.5532   -9.3424 C   0  0  0  0  0  0  0  0  0  0  0  0
   18.4963  -24.8519   -9.6714 C   0  0  1  0  0  0  0  0  0  0  0  0
   17.6615  -25.3734   -8.5572 C   0  0  0  0  0  0  0  0  0  0  0  0
   16.4737  -25.0361   -8.3987 O   0  0  0  0  0  0  0  0  0  0  0  0
   18.1314  -28.2009   -6.2004 C   0  0  0  0  0  0  0  0  0  0  0  0
   17.5313  -26.8186   -6.4878 C   0  0  2  0  0  0  0  0  0  0  0  0
   18.2138  -26.2930   -7.6227 N   0  0  0  0  0  0  0  0  0  0  0  0
   17.5948  -25.9481   -5.2961 C   0  0  0  0  0  0  0  0  0  0  0  0
   18.6911  -25.4005   -5.0069 O   0  0  0  0  0  0  0  0  0  0  0  0
   16.4914  -25.6891   -4.4524 N   0  0  0  0  0  0  0  0  0  0  0  0
   16.5317  -24.7407   -3.3551 C   0  0  0  0  0  0  0  0  0  0  0  0
   15.7263  -25.2888   -2.2529 C   0  0  0  0  0  0  0  0  0  0  0  0
   15.0883  -26.3471   -2.4249 O   0  0  0  0  0  0  0  0  0  0  0  0
   15.6678  -24.6509   -1.0382 O   0  0  0  0  0  0  0  0  0  0  0  0
  1  2  1  0
  1  5  1  0
  2  3  1  0
  3  4  1  0
  5  6  1  1
  5  4  1  0
  6  7  2  0
  9  8  1  1
 10  9  1  0
 10  6  1  0
 11  9  1  0
 12 11  2  0
 13 11  1  0
 14 13  1  0
 15 17  1  0
 15 14  1  0
 16 15  2  0
M  END
$$$$
