PAG.pdb
     RDKit          3D

 17 17  0  0  1  0  0  0  0  0999 V2000
   26.0613  -14.4174  -16.9656 N   0  0  0  0  0  0  0  0  0  0  0  0
   25.9555  -15.8608  -17.2231 C   0  0  0  0  0  0  0  0  0  0  0  0
   25.9762  -16.4080  -15.8111 C   0  0  0  0  0  0  0  0  0  0  0  0
   25.3529  -15.3097  -14.9470 C   0  0  0  0  0  0  0  0  0  0  0  0
   25.0488  -14.2446  -15.9520 C   0  0  1  0  0  0  0  0  0  0  0  0
   25.0726  -12.8763  -15.3708 C   0  0  0  0  0  0  0  0  0  0  0  0
   24.3305  -12.5375  -14.4305 O   0  0  0  0  0  0  0  0  0  0  0  0
   27.4831  -10.0682  -15.7409 C   0  0  0  0  0  0  0  0  0  0  0  0
   26.0595  -10.5503  -15.4340 C   0  0  2  0  0  0  0  0  0  0  0  0
   25.9661  -11.8975  -15.8883 N   0  0  0  0  0  0  0  0  0  0  0  0
   25.0490   -9.6491  -16.0245 C   0  0  0  0  0  0  0  0  0  0  0  0
   24.7701   -9.7736  -17.2460 O   0  0  0  0  0  0  0  0  0  0  0  0
   24.3695   -8.6464  -15.2971 N   0  0  0  0  0  0  0  0  0  0  0  0
   23.3311   -7.8105  -15.8701 C   0  0  0  0  0  0  0  0  0  0  0  0
   22.0312   -8.4230  -15.5552 C   0  0  0  0  0  0  0  0  0  0  0  0
   21.5866   -9.3314  -16.2859 O   0  0  0  0  0  0  0  0  0  0  0  0
   21.3017   -8.0079  -14.4684 O   0  0  0  0  0  0  0  0  0  0  0  0
  1  2  1  0
  1  5  1  0
  2  3  1  0
  3  4  1  0
  5  6  1  1
  5  4  1  0
  6  7  2  0
  9  8  1  6
 10  9  1  0
 10  6  1  0
 11  9  1  0
 12 11  2  0
 13 11  1  0
 14 13  1  0
 15 17  1  0
 15 14  1  0
 16 15  2  0
M  END
$$$$
