PAG.pdb
     RDKit          3D

 17 17  0  0  1  0  0  0  0  0999 V2000
   23.0268  -11.6336  -16.5627 N   0  0  0  0  0  0  0  0  0  0  0  0
   23.6641  -12.6885  -15.7616 C   0  0  0  0  0  0  0  0  0  0  0  0
   24.0051  -11.9254  -14.4986 C   0  0  0  0  0  0  0  0  0  0  0  0
   22.9360  -10.8363  -14.3880 C   0  0  0  0  0  0  0  0  0  0  0  0
   22.1000  -11.0828  -15.6035 C   0  0  1  0  0  0  0  0  0  0  0  0
   21.4406   -9.8511  -16.1122 C   0  0  0  0  0  0  0  0  0  0  0  0
   21.8653   -9.2269  -17.1021 O   0  0  0  0  0  0  0  0  0  0  0  0
   18.0669   -8.4837  -15.6403 C   0  0  0  0  0  0  0  0  0  0  0  0
   19.5546   -8.1864  -15.8679 C   0  0  2  0  0  0  0  0  0  0  0  0
   20.2801   -9.3442  -15.4640 N   0  0  0  0  0  0  0  0  0  0  0  0
   19.9669   -6.9500  -15.1728 C   0  0  0  0  0  0  0  0  0  0  0  0
   19.3826   -5.8725  -15.4610 O   0  0  0  0  0  0  0  0  0  0  0  0
   20.9859   -6.9004  -14.1954 N   0  0  0  0  0  0  0  0  0  0  0  0
   21.4370   -5.6688  -13.5750 C   0  0  0  0  0  0  0  0  0  0  0  0
   22.4433   -5.0589  -14.4578 C   0  0  0  0  0  0  0  0  0  0  0  0
   22.9572   -5.7409  -15.3675 O   0  0  0  0  0  0  0  0  0  0  0  0
   22.8238   -3.7498  -14.2934 O   0  0  0  0  0  0  0  0  0  0  0  0
  1  2  1  0
  1  5  1  0
  2  3  1  0
  3  4  1  0
  5  6  1  6
  5  4  1  0
  6  7  2  0
  9  8  1  1
 10  9  1  0
 10  6  1  0
 11  9  1  0
 12 11  2  0
 13 11  1  0
 14 13  1  0
 15 17  1  0
 15 14  1  0
 16 15  2  0
M  END
$$$$
