PAG.pdb
     RDKit          3D

 17 17  0  0  1  0  0  0  0  0999 V2000
   18.8857  -10.4041  -18.1942 N   0  0  0  0  0  0  0  0  0  0  0  0
   18.8219  -10.3283  -19.6608 C   0  0  0  0  0  0  0  0  0  0  0  0
   18.9524   -8.8353  -19.8785 C   0  0  0  0  0  0  0  0  0  0  0  0
   19.7897   -8.3308  -18.7014 C   0  0  0  0  0  0  0  0  0  0  0  0
   20.0436   -9.5852  -17.9273 C   0  0  1  0  0  0  0  0  0  0  0  0
   20.2274   -9.3405  -16.4723 C   0  0  0  0  0  0  0  0  0  0  0  0
   19.2733   -9.3217  -15.6729 O   0  0  0  0  0  0  0  0  0  0  0  0
   23.0898   -9.7144  -14.2492 C   0  0  0  0  0  0  0  0  0  0  0  0
   21.8328   -8.8963  -14.5715 C   0  0  2  0  0  0  0  0  0  0  0  0
   21.5301   -9.1167  -15.9462 N   0  0  0  0  0  0  0  0  0  0  0  0
   22.0145   -7.4730  -14.2202 C   0  0  0  0  0  0  0  0  0  0  0  0
   22.2854   -7.1762  -13.0269 O   0  0  0  0  0  0  0  0  0  0  0  0
   21.9022   -6.4139  -15.1486 N   0  0  0  0  0  0  0  0  0  0  0  0
   22.1123   -5.0214  -14.7993 C   0  0  0  0  0  0  0  0  0  0  0  0
   20.7983   -4.4202  -14.5240 C   0  0  0  0  0  0  0  0  0  0  0  0
   19.7740   -5.1308  -14.5762 O   0  0  0  0  0  0  0  0  0  0  0  0
   20.6848   -3.0881  -14.2107 O   0  0  0  0  0  0  0  0  0  0  0  0
  1  2  1  0
  1  5  1  0
  2  3  1  0
  3  4  1  0
  5  6  1  1
  5  4  1  0
  6  7  2  0
  9  8  1  6
 10  9  1  0
 10  6  1  0
 11  9  1  0
 12 11  2  0
 13 11  1  0
 14 13  1  0
 15 17  1  0
 15 14  1  0
 16 15  2  0
M  END
$$$$
