PAG.pdb
     RDKit          3D

 17 17  0  0  1  0  0  0  0  0999 V2000
   18.0201  -11.0601  -15.5142 N   0  0  0  0  0  0  0  0  0  0  0  0
   17.5560  -12.4544  -15.5505 C   0  0  0  0  0  0  0  0  0  0  0  0
   18.1300  -12.9152  -16.8741 C   0  0  0  0  0  0  0  0  0  0  0  0
   19.3990  -12.0833  -17.0714 C   0  0  0  0  0  0  0  0  0  0  0  0
   19.4148  -11.2264  -15.8455 C   0  0  1  0  0  0  0  0  0  0  0  0
   20.0942   -9.9215  -16.0600 C   0  0  0  0  0  0  0  0  0  0  0  0
   21.3321   -9.8191  -16.1425 O   0  0  0  0  0  0  0  0  0  0  0  0
   18.6717   -6.5967  -17.0108 C   0  0  0  0  0  0  0  0  0  0  0  0
   19.8491   -7.4481  -16.5188 C   0  0  2  0  0  0  0  0  0  0  0  0
   19.3269   -8.7294  -16.1789 N   0  0  0  0  0  0  0  0  0  0  0  0
   20.5670   -6.7826  -15.4126 C   0  0  0  0  0  0  0  0  0  0  0  0
   20.1360   -6.9302  -14.2388 O   0  0  0  0  0  0  0  0  0  0  0  0
   21.7181   -5.9831  -15.5912 N   0  0  0  0  0  0  0  0  0  0  0  0
   22.5325   -5.5004  -14.4917 C   0  0  0  0  0  0  0  0  0  0  0  0
   21.9207   -4.2628  -13.9839 C   0  0  0  0  0  0  0  0  0  0  0  0
   22.4867   -3.6264  -13.0721 O   0  0  0  0  0  0  0  0  0  0  0  0
   20.7356   -3.7995  -14.5003 O   0  0  0  0  0  0  0  0  0  0  0  0
  1  2  1  0
  1  5  1  0
  2  3  1  0
  3  4  1  0
  5  6  1  6
  5  4  1  0
  6  7  2  0
  9  8  1  1
 10  9  1  0
 10  6  1  0
 11  9  1  0
 12 11  2  0
 13 11  1  0
 14 13  1  0
 15 17  1  0
 15 14  1  0
 16 15  2  0
M  END
$$$$
