PAG.pdb
     RDKit          3D

 17 17  0  0  1  0  0  0  0  0999 V2000
   25.7143  -11.0619  -15.8042 N   0  0  0  0  0  0  0  0  0  0  0  0
   27.0258  -11.7081  -15.6513 C   0  0  0  0  0  0  0  0  0  0  0  0
   27.5444  -11.6481  -17.0730 C   0  0  0  0  0  0  0  0  0  0  0  0
   26.9026  -10.3990  -17.6807 C   0  0  0  0  0  0  0  0  0  0  0  0
   26.0762   -9.8792  -16.5476 C   0  0  1  0  0  0  0  0  0  0  0  0
   24.8805   -9.1218  -17.0028 C   0  0  0  0  0  0  0  0  0  0  0  0
   24.9668   -8.0213  -17.5784 O   0  0  0  0  0  0  0  0  0  0  0  0
   21.3520  -10.2114  -17.4199 C   0  0  0  0  0  0  0  0  0  0  0  0
   22.3676   -9.0717  -17.2682 C   0  0  2  0  0  0  0  0  0  0  0  0
   23.5773   -9.6496  -16.7860 N   0  0  0  0  0  0  0  0  0  0  0  0
   21.8378   -7.9918  -16.4110 C   0  0  0  0  0  0  0  0  0  0  0  0
   20.7839   -7.4016  -16.7665 O   0  0  0  0  0  0  0  0  0  0  0  0
   22.4458   -7.5757  -15.2054 N   0  0  0  0  0  0  0  0  0  0  0  0
   21.8670   -6.5806  -14.3222 C   0  0  0  0  0  0  0  0  0  0  0  0
   22.3499   -5.2588  -14.7507 C   0  0  0  0  0  0  0  0  0  0  0  0
   21.8148   -4.6958  -15.7272 O   0  0  0  0  0  0  0  0  0  0  0  0
   23.3810   -4.6374  -14.0903 O   0  0  0  0  0  0  0  0  0  0  0  0
  1  2  1  0
  1  5  1  0
  2  3  1  0
  3  4  1  0
  5  6  1  6
  5  4  1  0
  6  7  2  0
  9  8  1  1
 10  9  1  0
 10  6  1  0
 11  9  1  0
 12 11  2  0
 13 11  1  0
 14 13  1  0
 15 17  1  0
 15 14  1  0
 16 15  2  0
M  END
$$$$
