CCY.pdb
     RDKit          3D

 25 25  0  0  1  0  0  0  0  0999 V2000
   -9.7519  -22.3950   22.2275 N   0  0  0  0  0  0  0  0  0  0  0  0
   -9.7736  -22.5326   23.6675 C   0  0  1  0  0  0  0  0  0  0  0  0
  -10.7392  -23.5844   24.1276 C   0  0  0  0  0  0  0  0  0  0  0  0
  -12.4257  -22.9957   23.8142 S   0  0  0  0  0  0  0  0  0  0  0  0
   -8.4300  -22.7993   24.2264 C   0  0  0  0  0  0  0  0  0  0  0  0
   -7.7000  -23.6142   23.6070 O   0  0  0  0  0  0  0  0  0  0  0  0
   -7.8997  -22.2167   25.3946 N   0  0  0  0  0  0  0  0  0  0  0  0
   -6.5754  -22.4418   25.8941 C   0  0  1  0  0  0  0  0  0  0  0  0
   -5.7645  -21.1817   26.0410 C   0  0  0  0  0  0  0  0  0  0  0  0
   -5.4506  -20.3759   24.4550 S   0  0  0  0  0  0  0  0  0  0  0  0
   -6.5771  -23.2256   27.1532 C   0  0  0  0  0  0  0  0  0  0  0  0
   -7.6408  -23.3159   27.8103 O   0  0  0  0  0  0  0  0  0  0  0  0
   -7.0121  -29.2680   33.1790 O   0  0  0  0  0  0  0  0  0  0  0  0
   -6.8925  -28.4289   32.0742 C   0  0  0  0  0  0  0  0  0  0  0  0
   -7.3046  -27.1199   32.1767 C   0  0  0  0  0  0  0  0  0  0  0  0
   -7.2016  -26.2598   31.1043 C   0  0  0  0  0  0  0  0  0  0  0  0
   -6.6783  -26.6722   29.8727 C   0  0  0  0  0  0  0  0  0  0  0  0
   -6.5859  -25.7415   28.7288 C   0  0  0  0  0  0  0  0  0  0  0  0
   -5.5146  -24.7044   28.8503 C   0  0  2  0  0  0  0  0  0  0  0  0
   -5.4261  -23.8820   27.6531 N   0  0  0  0  0  0  0  0  0  0  0  0
   -4.2056  -25.3429   29.1142 C   0  0  0  0  0  0  0  0  0  0  0  0
   -3.7803  -25.8207   30.3242 O   0  0  0  0  0  0  0  0  0  0  0  0
   -6.2741  -27.9869   29.7981 C   0  0  0  0  0  0  0  0  0  0  0  0
   -6.3794  -28.8583   30.8877 C   0  0  0  0  0  0  0  0  0  0  0  0
   -3.3767  -25.4731   28.1476 O   0  0  0  0  0  0  0  0  0  0  0  0
  2  3  1  0
  2  5  1  0
  2  1  1  6
  4  3  1  0
  5  6  2  0
  7  8  1  0
  7  5  1  0
  8 11  1  0
  8  9  1  1
 10  9  1  0
 11 20  1  0
 12 11  2  0
 14 15  2  0
 14 13  1  0
 16 15  1  0
 17 16  2  0
 18 17  1  0
 19 18  1  6
 20 19  1  0
 21 22  1  0
 21 19  1  0
 23 17  1  0
 23 24  2  0
 24 14  1  0
 25 21  2  0
M  END
$$$$
