CCY.pdb
     RDKit          3D

 25 25  0  0  1  0  0  0  0  0999 V2000
   10.4051  -19.5039   19.9210 N   0  0  0  0  0  0  0  0  0  0  0  0
    9.2332  -18.9237   20.5397 C   0  0  1  0  0  0  0  0  0  0  0  0
    8.6549  -19.8036   21.6081 C   0  0  0  0  0  0  0  0  0  0  0  0
    9.8200  -19.8671   22.9963 S   0  0  0  0  0  0  0  0  0  0  0  0
    9.4956  -17.5729   21.0830 C   0  0  0  0  0  0  0  0  0  0  0  0
   10.6796  -17.3032   21.4087 O   0  0  0  0  0  0  0  0  0  0  0  0
    8.5300  -16.5632   21.2663 N   0  0  0  0  0  0  0  0  0  0  0  0
    8.7851  -15.2832   21.8583 C   0  0  1  0  0  0  0  0  0  0  0  0
    7.9168  -14.1820   21.3103 C   0  0  0  0  0  0  0  0  0  0  0  0
    6.1623  -14.6115   21.3352 S   0  0  0  0  0  0  0  0  0  0  0  0
    8.7198  -15.3277   23.3394 C   0  0  0  0  0  0  0  0  0  0  0  0
    8.0082  -14.4891   23.9408 O   0  0  0  0  0  0  0  0  0  0  0  0
    5.6619  -11.0180   26.5233 O   0  0  0  0  0  0  0  0  0  0  0  0
    6.3225  -12.2426   26.4678 C   0  0  0  0  0  0  0  0  0  0  0  0
    5.7004  -13.3155   25.8713 C   0  0  0  0  0  0  0  0  0  0  0  0
    6.3233  -14.5430   25.7976 C   0  0  0  0  0  0  0  0  0  0  0  0
    7.6049  -14.7550   26.3203 C   0  0  0  0  0  0  0  0  0  0  0  0
    8.2542  -16.0801   26.2444 C   0  0  0  0  0  0  0  0  0  0  0  0
    9.5783  -16.0897   25.5480 C   0  0  2  0  0  0  0  0  0  0  0  0
    9.4281  -16.2791   24.1131 N   0  0  0  0  0  0  0  0  0  0  0  0
   10.4456  -17.1530   26.1029 C   0  0  0  0  0  0  0  0  0  0  0  0
   11.0009  -18.1821   25.3915 O   0  0  0  0  0  0  0  0  0  0  0  0
    8.2039  -13.6646   26.9117 C   0  0  0  0  0  0  0  0  0  0  0  0
    7.5700  -12.4194   26.9854 C   0  0  0  0  0  0  0  0  0  0  0  0
   10.7176  -17.1372   27.3535 O   0  0  0  0  0  0  0  0  0  0  0  0
  2  3  1  0
  2  5  1  0
  2  1  1  1
  4  3  1  0
  5  6  2  0
  7  8  1  0
  7  5  1  0
  8 11  1  0
  8  9  1  6
 10  9  1  0
 11 20  1  0
 12 11  2  0
 14 15  2  0
 14 13  1  0
 16 15  1  0
 17 16  2  0
 18 17  1  0
 19 18  1  1
 20 19  1  0
 21 22  1  0
 21 19  1  0
 23 17  1  0
 23 24  2  0
 24 14  1  0
 25 21  2  0
M  END
$$$$
