CCY.pdb
     RDKit          3D

 25 25  0  0  1  0  0  0  0  0999 V2000
    8.5783  -15.4902   18.8387 N   0  0  0  0  0  0  0  0  0  0  0  0
    8.5303  -14.9255   20.1698 C   0  0  1  0  0  0  0  0  0  0  0  0
    7.3123  -14.0775   20.3883 C   0  0  0  0  0  0  0  0  0  0  0  0
    7.3113  -13.5017   22.1080 S   0  0  0  0  0  0  0  0  0  0  0  0
    8.6223  -15.9607   21.2226 C   0  0  0  0  0  0  0  0  0  0  0  0
    8.0602  -17.0626   20.9975 O   0  0  0  0  0  0  0  0  0  0  0  0
    9.2869  -15.8156   22.4566 N   0  0  0  0  0  0  0  0  0  0  0  0
    9.5013  -16.8719   23.4010 C   0  0  1  0  0  0  0  0  0  0  0  0
   10.4365  -17.9427   22.9054 C   0  0  0  0  0  0  0  0  0  0  0  0
   12.1030  -17.3150   22.6015 S   0  0  0  0  0  0  0  0  0  0  0  0
    9.9291  -16.3608   24.7260 C   0  0  0  0  0  0  0  0  0  0  0  0
   10.7710  -15.4334   24.7756 O   0  0  0  0  0  0  0  0  0  0  0  0
    6.1775  -11.2533   25.5199 O   0  0  0  0  0  0  0  0  0  0  0  0
    6.7585  -12.3668   26.1212 C   0  0  0  0  0  0  0  0  0  0  0  0
    8.0850  -12.3191   26.4845 C   0  0  0  0  0  0  0  0  0  0  0  0
    8.6943  -13.4017   27.0821 C   0  0  0  0  0  0  0  0  0  0  0  0
    8.0003  -14.5890   27.3452 C   0  0  0  0  0  0  0  0  0  0  0  0
    8.6707  -15.7453   27.9752 C   0  0  0  0  0  0  0  0  0  0  0  0
    9.8396  -16.2835   27.2122 C   0  0  2  0  0  0  0  0  0  0  0  0
    9.4286  -16.8738   25.9474 N   0  0  0  0  0  0  0  0  0  0  0  0
   10.5639  -17.2903   28.0201 C   0  0  0  0  0  0  0  0  0  0  0  0
   11.2567  -17.0395   29.1736 O   0  0  0  0  0  0  0  0  0  0  0  0
    6.6747  -14.6094   26.9712 C   0  0  0  0  0  0  0  0  0  0  0  0
    6.0581  -13.5094   26.3649 C   0  0  0  0  0  0  0  0  0  0  0  0
   10.5620  -18.5100   27.6321 O   0  0  0  0  0  0  0  0  0  0  0  0
  2  3  1  0
  2  5  1  0
  2  1  1  6
  4  3  1  0
  5  6  2  0
  7  8  1  0
  7  5  1  0
  8 11  1  0
  8  9  1  6
 10  9  1  0
 11 20  1  0
 12 11  2  0
 14 15  2  0
 14 13  1  0
 16 15  1  0
 17 16  2  0
 18 17  1  0
 19 18  1  1
 20 19  1  0
 21 22  1  0
 21 19  1  0
 23 17  1  0
 23 24  2  0
 24 14  1  0
 25 21  2  0
M  END
$$$$
