CCY.pdb
     RDKit          3D

 25 25  0  0  1  0  0  0  0  0999 V2000
   10.1845  -24.5268   20.9707 N   0  0  0  0  0  0  0  0  0  0  0  0
    9.7981  -24.4388   22.3620 C   0  0  1  0  0  0  0  0  0  0  0  0
   10.2433  -25.6308   23.1564 C   0  0  0  0  0  0  0  0  0  0  0  0
   12.0231  -25.4823   23.4709 S   0  0  0  0  0  0  0  0  0  0  0  0
   10.2808  -23.1950   23.0012 C   0  0  0  0  0  0  0  0  0  0  0  0
   11.0262  -22.4481   22.3177 O   0  0  0  0  0  0  0  0  0  0  0  0
    9.9755  -22.7771   24.3118 N   0  0  0  0  0  0  0  0  0  0  0  0
   10.2912  -21.4894   24.8557 C   0  0  1  0  0  0  0  0  0  0  0  0
    9.4590  -20.3729   24.2832 C   0  0  0  0  0  0  0  0  0  0  0  0
    7.9732  -20.9777   23.4524 S   0  0  0  0  0  0  0  0  0  0  0  0
   10.2480  -21.4813   26.3383 C   0  0  0  0  0  0  0  0  0  0  0  0
    9.2476  -21.9644   26.9188 O   0  0  0  0  0  0  0  0  0  0  0  0
   12.9216  -25.5764   33.2935 O   0  0  0  0  0  0  0  0  0  0  0  0
   12.6231  -24.9558   32.0833 C   0  0  0  0  0  0  0  0  0  0  0  0
   13.6509  -24.4926   31.2939 C   0  0  0  0  0  0  0  0  0  0  0  0
   13.3940  -23.8733   30.0894 C   0  0  0  0  0  0  0  0  0  0  0  0
   12.0892  -23.6877   29.6164 C   0  0  0  0  0  0  0  0  0  0  0  0
   11.8296  -23.0108   28.3289 C   0  0  0  0  0  0  0  0  0  0  0  0
   11.5917  -21.5374   28.4328 C   0  0  2  0  0  0  0  0  0  0  0  0
   11.2906  -20.9501   27.1361 N   0  0  0  0  0  0  0  0  0  0  0  0
   12.7706  -20.8646   29.0230 C   0  0  0  0  0  0  0  0  0  0  0  0
   12.8747  -20.4249   30.3151 O   0  0  0  0  0  0  0  0  0  0  0  0
   11.0802  -24.1604   30.4263 C   0  0  0  0  0  0  0  0  0  0  0  0
   11.3431  -24.7888   31.6484 C   0  0  0  0  0  0  0  0  0  0  0  0
   13.7974  -20.6605   28.2866 O   0  0  0  0  0  0  0  0  0  0  0  0
  2  3  1  0
  2  5  1  0
  2  1  1  6
  4  3  1  0
  5  6  2  0
  7  8  1  0
  7  5  1  0
  8 11  1  0
  8  9  1  6
 10  9  1  0
 11 20  1  0
 12 11  2  0
 14 15  2  0
 14 13  1  0
 16 15  1  0
 17 16  2  0
 18 17  1  0
 19 18  1  6
 20 19  1  0
 21 22  1  0
 21 19  1  0
 23 17  1  0
 23 24  2  0
 24 14  1  0
 25 21  2  0
M  END
$$$$
