CCY.pdb
     RDKit          3D

 25 25  0  0  1  0  0  0  0  0999 V2000
    5.3187  -17.6078   21.8230 N   0  0  0  0  0  0  0  0  0  0  0  0
    5.6468  -17.3146   23.2011 C   0  0  1  0  0  0  0  0  0  0  0  0
    6.3284  -18.4631   23.8842 C   0  0  0  0  0  0  0  0  0  0  0  0
    8.1101  -18.1287   23.9352 S   0  0  0  0  0  0  0  0  0  0  0  0
    6.4638  -16.0885   23.3352 C   0  0  0  0  0  0  0  0  0  0  0  0
    7.2181  -15.7912   22.3742 O   0  0  0  0  0  0  0  0  0  0  0  0
    6.4676  -15.2258   24.4493 N   0  0  0  0  0  0  0  0  0  0  0  0
    7.2706  -14.0448   24.5684 C   0  0  1  0  0  0  0  0  0  0  0  0
    6.5799  -12.9165   25.2874 C   0  0  0  0  0  0  0  0  0  0  0  0
    5.6688  -13.4818   26.7413 S   0  0  0  0  0  0  0  0  0  0  0  0
    8.5973  -14.3273   25.1681 C   0  0  0  0  0  0  0  0  0  0  0  0
    8.7241  -14.2727   26.4140 O   0  0  0  0  0  0  0  0  0  0  0  0
   10.8240  -17.1597   31.1863 O   0  0  0  0  0  0  0  0  0  0  0  0
   10.6706  -17.0886   29.8042 C   0  0  0  0  0  0  0  0  0  0  0  0
   11.2679  -16.0588   29.1137 C   0  0  0  0  0  0  0  0  0  0  0  0
   11.1383  -15.9558   27.7452 C   0  0  0  0  0  0  0  0  0  0  0  0
   10.4008  -16.8839   26.9999 C   0  0  0  0  0  0  0  0  0  0  0  0
   10.2609  -16.7528   25.5348 C   0  0  0  0  0  0  0  0  0  0  0  0
   10.7960  -15.4766   24.9663 C   0  0  2  0  0  0  0  0  0  0  0  0
    9.7369  -14.6583   24.3953 N   0  0  0  0  0  0  0  0  0  0  0  0
   11.8183  -15.7600   23.9341 C   0  0  0  0  0  0  0  0  0  0  0  0
   13.1335  -16.0542   24.1733 O   0  0  0  0  0  0  0  0  0  0  0  0
    9.8136  -17.9036   27.7161 C   0  0  0  0  0  0  0  0  0  0  0  0
    9.9465  -18.0064   29.1051 C   0  0  0  0  0  0  0  0  0  0  0  0
   11.4743  -15.7342   22.7016 O   0  0  0  0  0  0  0  0  0  0  0  0
  2  3  1  0
  2  5  1  0
  2  1  1  6
  4  3  1  0
  5  6  2  0
  7  8  1  0
  7  5  1  0
  8 11  1  0
  8  9  1  1
 10  9  1  0
 11 20  1  0
 12 11  2  0
 14 15  2  0
 14 13  1  0
 16 15  1  0
 17 16  2  0
 18 17  1  0
 19 18  1  6
 20 19  1  0
 21 22  1  0
 21 19  1  0
 23 17  1  0
 23 24  2  0
 24 14  1  0
 25 21  2  0
M  END
$$$$
