CCY.pdb
     RDKit          3D

 25 25  0  0  1  0  0  0  0  0999 V2000
    8.9128  -19.8847   22.5767 N   0  0  0  0  0  0  0  0  0  0  0  0
   10.2568  -19.6108   23.0365 C   0  0  1  0  0  0  0  0  0  0  0  0
   10.5521  -18.1415   23.0995 C   0  0  0  0  0  0  0  0  0  0  0  0
   10.4484  -17.4599   21.4221 S   0  0  0  0  0  0  0  0  0  0  0  0
   10.5424  -20.2413   24.3440 C   0  0  0  0  0  0  0  0  0  0  0  0
    9.5889  -20.3365   25.1579 O   0  0  0  0  0  0  0  0  0  0  0  0
   11.7932  -20.7441   24.7539 N   0  0  0  0  0  0  0  0  0  0  0  0
   12.0552  -21.3532   26.0244 C   0  0  1  0  0  0  0  0  0  0  0  0
   13.2220  -22.3045   26.0075 C   0  0  0  0  0  0  0  0  0  0  0  0
   13.5289  -23.0467   27.6257 S   0  0  0  0  0  0  0  0  0  0  0  0
   12.1995  -20.3503   27.1076 C   0  0  0  0  0  0  0  0  0  0  0  0
   12.8642  -19.3107   26.8873 O   0  0  0  0  0  0  0  0  0  0  0  0
    9.7186  -13.9928   26.5916 O   0  0  0  0  0  0  0  0  0  0  0  0
    9.9181  -15.1411   27.3536 C   0  0  0  0  0  0  0  0  0  0  0  0
    9.3991  -16.3377   26.9147 C   0  0  0  0  0  0  0  0  0  0  0  0
    9.5765  -17.4951   27.6421 C   0  0  0  0  0  0  0  0  0  0  0  0
   10.2855  -17.5087   28.8495 C   0  0  0  0  0  0  0  0  0  0  0  0
   10.4565  -18.7554   29.6241 C   0  0  0  0  0  0  0  0  0  0  0  0
   11.7526  -19.4650   29.3906 C   0  0  2  0  0  0  0  0  0  0  0  0
   11.6181  -20.5116   28.3888 N   0  0  0  0  0  0  0  0  0  0  0  0
   12.2575  -20.0468   30.6545 C   0  0  0  0  0  0  0  0  0  0  0  0
   12.6155  -19.3406   31.7710 O   0  0  0  0  0  0  0  0  0  0  0  0
   10.7936  -16.2977   29.2652 C   0  0  0  0  0  0  0  0  0  0  0  0
   10.6126  -15.1241   28.5253 C   0  0  0  0  0  0  0  0  0  0  0  0
   12.3827  -21.3176   30.7420 O   0  0  0  0  0  0  0  0  0  0  0  0
  2  3  1  0
  2  5  1  0
  2  1  1  1
  4  3  1  0
  5  6  2  0
  7  8  1  0
  7  5  1  0
  8 11  1  0
  8  9  1  6
 10  9  1  0
 11 20  1  0
 12 11  2  0
 14 15  2  0
 14 13  1  0
 16 15  1  0
 17 16  2  0
 18 17  1  0
 19 18  1  1
 20 19  1  0
 21 22  1  0
 21 19  1  0
 23 17  1  0
 23 24  2  0
 24 14  1  0
 25 21  2  0
M  END
$$$$
