CCY.pdb
     RDKit          3D

 25 25  0  0  1  0  0  0  0  0999 V2000
   10.8978  -17.1002   17.4966 N   0  0  0  0  0  0  0  0  0  0  0  0
   10.8683  -17.6108   18.8500 C   0  0  1  0  0  0  0  0  0  0  0  0
   12.2118  -18.0954   19.3084 C   0  0  0  0  0  0  0  0  0  0  0  0
   12.0389  -18.7800   20.9788 S   0  0  0  0  0  0  0  0  0  0  0  0
   10.3312  -16.6228   19.8112 C   0  0  0  0  0  0  0  0  0  0  0  0
   10.8574  -15.4809   19.8180 O   0  0  0  0  0  0  0  0  0  0  0  0
    9.2794  -16.8539   20.7200 N   0  0  0  0  0  0  0  0  0  0  0  0
    8.7138  -15.8636   21.5878 C   0  0  1  0  0  0  0  0  0  0  0  0
    7.2151  -15.9490   21.7037 C   0  0  0  0  0  0  0  0  0  0  0  0
    6.5346  -14.6756   22.7894 S   0  0  0  0  0  0  0  0  0  0  0  0
    9.3534  -15.8600   22.9260 C   0  0  0  0  0  0  0  0  0  0  0  0
   10.5513  -15.5040   23.0250 O   0  0  0  0  0  0  0  0  0  0  0  0
    5.9792  -10.7886   26.1938 O   0  0  0  0  0  0  0  0  0  0  0  0
    6.5479  -12.0576   26.2660 C   0  0  0  0  0  0  0  0  0  0  0  0
    7.8679  -12.1826   26.6347 C   0  0  0  0  0  0  0  0  0  0  0  0
    8.4650  -13.4224   26.7172 C   0  0  0  0  0  0  0  0  0  0  0  0
    7.7647  -14.6012   26.4329 C   0  0  0  0  0  0  0  0  0  0  0  0
    8.4223  -15.9219   26.5140 C   0  0  0  0  0  0  0  0  0  0  0  0
    9.3599  -16.2248   25.3882 C   0  0  2  0  0  0  0  0  0  0  0  0
    8.6711  -16.2423   24.1066 N   0  0  0  0  0  0  0  0  0  0  0  0
   10.0310  -17.5251   25.6111 C   0  0  0  0  0  0  0  0  0  0  0  0
   10.9062  -17.8079   26.6248 O   0  0  0  0  0  0  0  0  0  0  0  0
    6.4459  -14.4468   26.0663 C   0  0  0  0  0  0  0  0  0  0  0  0
    5.8417  -13.1876   25.9833 C   0  0  0  0  0  0  0  0  0  0  0  0
    9.7941  -18.4883   24.8023 O   0  0  0  0  0  0  0  0  0  0  0  0
  2  3  1  0
  2  5  1  0
  2  1  1  6
  4  3  1  0
  5  6  2  0
  7  8  1  0
  7  5  1  0
  8 11  1  0
  8  9  1  1
 10  9  1  0
 11 20  1  0
 12 11  2  0
 14 15  2  0
 14 13  1  0
 16 15  1  0
 17 16  2  0
 18 17  1  0
 19 18  1  1
 20 19  1  0
 21 22  1  0
 21 19  1  0
 23 17  1  0
 23 24  2  0
 24 14  1  0
 25 21  2  0
M  END
$$$$
