CCY.pdb
     RDKit          3D

 25 25  0  0  1  0  0  0  0  0999 V2000
    6.9324  -20.1890   24.9533 N   0  0  0  0  0  0  0  0  0  0  0  0
    6.7273  -18.7785   25.2008 C   0  0  1  0  0  0  0  0  0  0  0  0
    7.3770  -18.3200   26.4727 C   0  0  0  0  0  0  0  0  0  0  0  0
    9.0865  -18.9249   26.4978 S   0  0  0  0  0  0  0  0  0  0  0  0
    7.1791  -17.9384   24.0699 C   0  0  0  0  0  0  0  0  0  0  0  0
    7.9974  -18.4496   23.2637 O   0  0  0  0  0  0  0  0  0  0  0  0
    6.7694  -16.6136   23.8202 N   0  0  0  0  0  0  0  0  0  0  0  0
    7.2912  -15.7766   22.7805 C   0  0  1  0  0  0  0  0  0  0  0  0
    6.3991  -14.6128   22.4391 C   0  0  0  0  0  0  0  0  0  0  0  0
    7.0733  -13.5959   21.1069 S   0  0  0  0  0  0  0  0  0  0  0  0
    8.6740  -15.3234   23.0669 C   0  0  0  0  0  0  0  0  0  0  0  0
    9.4064  -14.9696   22.1130 O   0  0  0  0  0  0  0  0  0  0  0  0
    9.4080  -17.2675   30.4474 O   0  0  0  0  0  0  0  0  0  0  0  0
    9.6972  -16.4726   29.3413 C   0  0  0  0  0  0  0  0  0  0  0  0
   10.7882  -16.7787   28.5603 C   0  0  0  0  0  0  0  0  0  0  0  0
   11.1055  -16.0149   27.4575 C   0  0  0  0  0  0  0  0  0  0  0  0
   10.3413  -14.9029   27.0830 C   0  0  0  0  0  0  0  0  0  0  0  0
   10.7015  -14.0867   25.9052 C   0  0  0  0  0  0  0  0  0  0  0  0
   10.5679  -14.7898   24.5914 C   0  0  2  0  0  0  0  0  0  0  0  0
    9.2115  -15.2705   24.3760 N   0  0  0  0  0  0  0  0  0  0  0  0
   11.5166  -15.9233   24.5138 C   0  0  0  0  0  0  0  0  0  0  0  0
   11.1801  -17.2319   24.2950 O   0  0  0  0  0  0  0  0  0  0  0  0
    9.2557  -14.6193   27.8821 C   0  0  0  0  0  0  0  0  0  0  0  0
    8.9353  -15.3959   29.0010 C   0  0  0  0  0  0  0  0  0  0  0  0
   12.7668  -15.6926   24.6613 O   0  0  0  0  0  0  0  0  0  0  0  0
  2  3  1  0
  2  5  1  0
  2  1  1  6
  4  3  1  0
  5  6  2  0
  7  8  1  0
  7  5  1  0
  8 11  1  0
  8  9  1  1
 10  9  1  0
 11 20  1  0
 12 11  2  0
 14 15  2  0
 14 13  1  0
 16 15  1  0
 17 16  2  0
 18 17  1  0
 19 18  1  1
 20 19  1  0
 21 22  1  0
 21 19  1  0
 23 17  1  0
 23 24  2  0
 24 14  1  0
 25 21  2  0
M  END
$$$$
