CCY.pdb
     RDKit          3D

 25 25  0  0  1  0  0  0  0  0999 V2000
    8.0554  -19.5588   19.4905 N   0  0  0  0  0  0  0  0  0  0  0  0
    7.5407  -18.9147   20.6793 C   0  0  1  0  0  0  0  0  0  0  0  0
    7.6270  -19.7954   21.8905 C   0  0  0  0  0  0  0  0  0  0  0  0
    6.8329  -18.9435   23.2807 S   0  0  0  0  0  0  0  0  0  0  0  0
    8.2024  -17.6189   20.9470 C   0  0  0  0  0  0  0  0  0  0  0  0
    9.4496  -17.5672   20.7967 O   0  0  0  0  0  0  0  0  0  0  0  0
    7.5523  -16.4376   21.3563 N   0  0  0  0  0  0  0  0  0  0  0  0
    8.2057  -15.1863   21.6034 C   0  0  1  0  0  0  0  0  0  0  0  0
    7.2820  -13.9995   21.5304 C   0  0  0  0  0  0  0  0  0  0  0  0
    8.1351  -12.4416   21.8601 S   0  0  0  0  0  0  0  0  0  0  0  0
    8.9667  -15.1931   22.8764 C   0  0  0  0  0  0  0  0  0  0  0  0
    9.7912  -14.2746   23.0954 O   0  0  0  0  0  0  0  0  0  0  0  0
    5.6958  -11.0310   26.5341 O   0  0  0  0  0  0  0  0  0  0  0  0
    6.4201  -12.2189   26.4758 C   0  0  0  0  0  0  0  0  0  0  0  0
    5.7618  -13.3943   26.1950 C   0  0  0  0  0  0  0  0  0  0  0  0
    6.4453  -14.5896   26.1289 C   0  0  0  0  0  0  0  0  0  0  0  0
    7.8272  -14.6644   26.3418 C   0  0  0  0  0  0  0  0  0  0  0  0
    8.5437  -15.9551   26.2797 C   0  0  0  0  0  0  0  0  0  0  0  0
    9.5013  -16.0855   25.1377 C   0  0  2  0  0  0  0  0  0  0  0  0
    8.8058  -16.1949   23.8644 N   0  0  0  0  0  0  0  0  0  0  0  0
   10.3769  -17.2634   25.3302 C   0  0  0  0  0  0  0  0  0  0  0  0
   11.2243  -17.4636   26.3862 O   0  0  0  0  0  0  0  0  0  0  0  0
    8.4606  -13.4734   26.6211 C   0  0  0  0  0  0  0  0  0  0  0  0
    7.7650  -12.2613   26.6877 C   0  0  0  0  0  0  0  0  0  0  0  0
   10.3641  -18.1920   24.4495 O   0  0  0  0  0  0  0  0  0  0  0  0
  2  3  1  0
  2  5  1  0
  2  1  1  6
  4  3  1  0
  5  6  2  0
  7  8  1  0
  7  5  1  0
  8 11  1  0
  8  9  1  1
 10  9  1  0
 11 20  1  0
 12 11  2  0
 14 15  2  0
 14 13  1  0
 16 15  1  0
 17 16  2  0
 18 17  1  0
 19 18  1  1
 20 19  1  0
 21 22  1  0
 21 19  1  0
 23 17  1  0
 23 24  2  0
 24 14  1  0
 25 21  2  0
M  END
$$$$
