CCY.pdb
     RDKit          3D

 25 25  0  0  1  0  0  0  0  0999 V2000
    6.2612  -19.9641   18.2804 N   0  0  0  0  0  0  0  0  0  0  0  0
    7.4346  -19.5648   19.0264 C   0  0  1  0  0  0  0  0  0  0  0  0
    8.5092  -19.0009   18.1446 C   0  0  0  0  0  0  0  0  0  0  0  0
   10.1207  -19.5167   18.7973 S   0  0  0  0  0  0  0  0  0  0  0  0
    7.1136  -18.6083   20.1083 C   0  0  0  0  0  0  0  0  0  0  0  0
    6.5110  -17.5534   19.7843 O   0  0  0  0  0  0  0  0  0  0  0  0
    7.4262  -18.7800   21.4715 N   0  0  0  0  0  0  0  0  0  0  0  0
    7.0396  -17.8831   22.5202 C   0  0  1  0  0  0  0  0  0  0  0  0
    6.0043  -18.4555   23.4516 C   0  0  0  0  0  0  0  0  0  0  0  0
    6.5496  -18.4509   25.1738 S   0  0  0  0  0  0  0  0  0  0  0  0
    8.2075  -17.3651   23.2736 C   0  0  0  0  0  0  0  0  0  0  0  0
    9.1930  -18.1176   23.4577 O   0  0  0  0  0  0  0  0  0  0  0  0
    5.0490  -12.0759   27.6100 O   0  0  0  0  0  0  0  0  0  0  0  0
    6.1463  -12.5687   26.9086 C   0  0  0  0  0  0  0  0  0  0  0  0
    6.0518  -12.7393   25.5463 C   0  0  0  0  0  0  0  0  0  0  0  0
    7.1172  -13.2245   24.8184 C   0  0  0  0  0  0  0  0  0  0  0  0
    8.3336  -13.5635   25.4236 C   0  0  0  0  0  0  0  0  0  0  0  0
    9.4623  -14.0942   24.6315 C   0  0  0  0  0  0  0  0  0  0  0  0
    9.4677  -15.5812   24.4672 C   0  0  2  0  0  0  0  0  0  0  0  0
    8.2637  -16.0513   23.7991 N   0  0  0  0  0  0  0  0  0  0  0  0
    9.5989  -16.2453   25.7836 C   0  0  0  0  0  0  0  0  0  0  0  0
   10.7214  -16.2500   26.5666 O   0  0  0  0  0  0  0  0  0  0  0  0
    8.4004  -13.3832   26.7877 C   0  0  0  0  0  0  0  0  0  0  0  0
    7.3179  -12.8904   27.5245 C   0  0  0  0  0  0  0  0  0  0  0  0
    8.5932  -16.8795   26.2575 O   0  0  0  0  0  0  0  0  0  0  0  0
  2  3  1  0
  2  5  1  0
  2  1  1  6
  4  3  1  0
  5  6  2  0
  7  8  1  0
  7  5  1  0
  8 11  1  0
  8  9  1  1
 10  9  1  0
 11 20  1  0
 12 11  2  0
 14 15  2  0
 14 13  1  0
 16 15  1  0
 17 16  2  0
 18 17  1  0
 19 18  1  1
 20 19  1  0
 21 22  1  0
 21 19  1  0
 23 17  1  0
 23 24  2  0
 24 14  1  0
 25 21  2  0
M  END
$$$$
