CCY.pdb
     RDKit          3D

 25 25  0  0  1  0  0  0  0  0999 V2000
    8.1359  -13.5399   16.6803 N   0  0  0  0  0  0  0  0  0  0  0  0
    8.9129  -14.2335   17.6844 C   0  0  1  0  0  0  0  0  0  0  0  0
   10.1047  -13.4414   18.1342 C   0  0  0  0  0  0  0  0  0  0  0  0
   11.0428  -14.4368   19.3250 S   0  0  0  0  0  0  0  0  0  0  0  0
    8.0961  -14.6274   18.8533 C   0  0  0  0  0  0  0  0  0  0  0  0
    7.4008  -13.7326   19.3979 O   0  0  0  0  0  0  0  0  0  0  0  0
    8.0318  -15.9213   19.4076 N   0  0  0  0  0  0  0  0  0  0  0  0
    7.3256  -16.2651   20.6063 C   0  0  1  0  0  0  0  0  0  0  0  0
    6.4984  -17.5168   20.4804 C   0  0  0  0  0  0  0  0  0  0  0  0
    7.3922  -18.8530   19.6565 S   0  0  0  0  0  0  0  0  0  0  0  0
    8.2230  -16.3345   21.7851 C   0  0  0  0  0  0  0  0  0  0  0  0
    9.4026  -15.9248   21.6747 O   0  0  0  0  0  0  0  0  0  0  0  0
    6.6512  -11.2522   28.4751 O   0  0  0  0  0  0  0  0  0  0  0  0
    6.7716  -12.1083   27.3836 C   0  0  0  0  0  0  0  0  0  0  0  0
    5.6704  -12.3500   26.5943 C   0  0  0  0  0  0  0  0  0  0  0  0
    5.7514  -13.1915   25.5054 C   0  0  0  0  0  0  0  0  0  0  0  0
    6.9450  -13.8337   25.1539 C   0  0  0  0  0  0  0  0  0  0  0  0
    7.0128  -14.7426   23.9909 C   0  0  0  0  0  0  0  0  0  0  0  0
    7.8105  -15.9882   24.2152 C   0  0  2  0  0  0  0  0  0  0  0  0
    7.8087  -16.8452   23.0393 N   0  0  0  0  0  0  0  0  0  0  0  0
    7.2828  -16.7367   25.3781 C   0  0  0  0  0  0  0  0  0  0  0  0
    7.9366  -16.9322   26.5646 O   0  0  0  0  0  0  0  0  0  0  0  0
    8.0308  -13.5743   25.9609 C   0  0  0  0  0  0  0  0  0  0  0  0
    7.9465  -12.7198   27.0656 C   0  0  0  0  0  0  0  0  0  0  0  0
    6.1172  -17.2594   25.2980 O   0  0  0  0  0  0  0  0  0  0  0  0
  2  3  1  0
  2  5  1  0
  2  1  1  6
  4  3  1  0
  5  6  2  0
  7  8  1  0
  7  5  1  0
  8 11  1  0
  8  9  1  6
 10  9  1  0
 11 20  1  0
 12 11  2  0
 14 15  2  0
 14 13  1  0
 16 15  1  0
 17 16  2  0
 18 17  1  0
 19 18  1  6
 20 19  1  0
 21 22  1  0
 21 19  1  0
 23 17  1  0
 23 24  2  0
 24 14  1  0
 25 21  2  0
M  END
$$$$
