KAY.pdb
     RDKit          3D

 27 27  0  0  1  0  0  0  0  0999 V2000
   19.7295  -14.1938  -16.2185 N   0  0  0  0  0  0  0  0  0  0  0  0
   20.5946  -13.2852  -16.9395 C   0  0  1  0  0  0  0  0  0  0  0  0
   20.0247  -13.0039  -18.2841 C   0  0  0  0  0  0  0  0  0  0  0  0
   19.6229  -14.2608  -19.0223 C   0  0  0  0  0  0  0  0  0  0  0  0
   19.1736  -13.9898  -20.4383 C   0  0  0  0  0  0  0  0  0  0  0  0
   18.8587  -15.3508  -21.0743 C   0  0  0  0  0  0  0  0  0  0  0  0
   18.4950  -15.0999  -22.4525 N   0  0  0  0  0  0  0  0  0  0  0  0
   20.8970  -12.1394  -16.1088 C   0  0  0  0  0  0  0  0  0  0  0  0
   19.9487  -11.4832  -15.6087 O   0  0  0  0  0  0  0  0  0  0  0  0
   23.8991  -10.3944  -14.5606 C   0  0  0  0  0  0  0  0  0  0  0  0
   22.5037  -10.4675  -15.0811 C   0  0  2  0  0  0  0  0  0  0  0  0
   22.2083  -11.6731  -15.7965 N   0  0  0  0  0  0  0  0  0  0  0  0
   22.1655   -9.2492  -15.8966 C   0  0  0  0  0  0  0  0  0  0  0  0
   22.3141   -9.2556  -17.1433 O   0  0  0  0  0  0  0  0  0  0  0  0
   15.2383   -5.0698  -15.3867 O   0  0  0  0  0  0  0  0  0  0  0  0
   16.4317   -5.6558  -15.7800 C   0  0  0  0  0  0  0  0  0  0  0  0
   16.7353   -6.9798  -15.4951 C   0  0  0  0  0  0  0  0  0  0  0  0
   17.9379   -7.5101  -15.9112 C   0  0  0  0  0  0  0  0  0  0  0  0
   18.8713   -6.7751  -16.6096 C   0  0  0  0  0  0  0  0  0  0  0  0
   20.1667   -7.3261  -17.0538 C   0  0  0  0  0  0  0  0  0  0  0  0
   21.2482   -6.9241  -16.1185 C   0  0  2  0  0  0  0  0  0  0  0  0
   21.6733   -8.0667  -15.2892 N   0  0  0  0  0  0  0  0  0  0  0  0
   20.8332   -5.8668  -15.1762 C   0  0  0  0  0  0  0  0  0  0  0  0
   20.5957   -6.1229  -13.8112 O   0  0  0  0  0  0  0  0  0  0  0  0
   18.5523   -5.4648  -16.8827 C   0  0  0  0  0  0  0  0  0  0  0  0
   17.3433   -4.9112  -16.4712 C   0  0  0  0  0  0  0  0  0  0  0  0
   20.6569   -4.6521  -15.5103 O   0  0  0  0  0  0  0  0  0  0  0  0
  2  3  1  0
  2  1  1  1
  4  5  1  0
  4  3  1  0
  6  5  1  0
  7  6  1  0
  8  2  1  0
  9  8  2  0
 11 10  1  6
 11 12  1  0
 12  8  1  0
 13 22  1  0
 13 11  1  0
 14 13  2  0
 16 15  1  0
 17 16  2  0
 18 17  1  0
 19 18  2  0
 19 25  1  0
 21 20  1  6
 20 19  1  0
 21 22  1  0
 23 21  1  0
 24 23  1  0
 25 26  2  0
 26 16  1  0
 27 23  2  0
M  END
$$$$
