KAY.pdb
     RDKit          3D

 27 27  0  0  1  0  0  0  0  0999 V2000
   29.1152  -19.2168  -12.4484 N   0  0  0  0  0  0  0  0  0  0  0  0
   28.2136  -20.3467  -12.5122 C   0  0  1  0  0  0  0  0  0  0  0  0
   27.4147  -20.4278  -11.2604 C   0  0  0  0  0  0  0  0  0  0  0  0
   28.2765  -20.5668  -10.0259 C   0  0  0  0  0  0  0  0  0  0  0  0
   27.4681  -20.6377   -8.7525 C   0  0  0  0  0  0  0  0  0  0  0  0
   28.4589  -20.5071   -7.5874 C   0  0  0  0  0  0  0  0  0  0  0  0
   27.6759  -20.4262   -6.3729 N   0  0  0  0  0  0  0  0  0  0  0  0
   27.4729  -20.3084  -13.7550 C   0  0  0  0  0  0  0  0  0  0  0  0
   27.0265  -19.2067  -14.1634 O   0  0  0  0  0  0  0  0  0  0  0  0
   26.3960  -22.5397  -16.6231 C   0  0  0  0  0  0  0  0  0  0  0  0
   26.1777  -21.4876  -15.5893 C   0  0  2  0  0  0  0  0  0  0  0  0
   27.1952  -21.4370  -14.5820 N   0  0  0  0  0  0  0  0  0  0  0  0
   24.8074  -21.6041  -14.9792 C   0  0  0  0  0  0  0  0  0  0  0  0
   24.5761  -22.4610  -14.0912 O   0  0  0  0  0  0  0  0  0  0  0  0
   16.9798  -20.0752  -11.5713 O   0  0  0  0  0  0  0  0  0  0  0  0
   18.2803  -20.0873  -12.0520 C   0  0  0  0  0  0  0  0  0  0  0  0
   19.1717  -21.1071  -11.7491 C   0  0  0  0  0  0  0  0  0  0  0  0
   20.4536  -21.0672  -12.2552 C   0  0  0  0  0  0  0  0  0  0  0  0
   20.9012  -20.0439  -13.0625 C   0  0  0  0  0  0  0  0  0  0  0  0
   22.2730  -19.9826  -13.6044 C   0  0  0  0  0  0  0  0  0  0  0  0
   22.4102  -20.8926  -14.7701 C   0  0  2  0  0  0  0  0  0  0  0  0
   23.7442  -20.7583  -15.3837 N   0  0  0  0  0  0  0  0  0  0  0  0
   21.4365  -20.6084  -15.8422 C   0  0  0  0  0  0  0  0  0  0  0  0
   20.1780  -21.2388  -15.9055 O   0  0  0  0  0  0  0  0  0  0  0  0
   20.0031  -19.0424  -13.3517 C   0  0  0  0  0  0  0  0  0  0  0  0
   18.7047  -19.0649  -12.8504 C   0  0  0  0  0  0  0  0  0  0  0  0
   21.6465  -19.7825  -16.7866 O   0  0  0  0  0  0  0  0  0  0  0  0
  2  3  1  0
  2  1  1  1
  4  5  1  0
  4  3  1  0
  6  5  1  0
  7  6  1  0
  8  2  1  0
  9  8  2  0
 11 10  1  6
 11 12  1  0
 12  8  1  0
 13 22  1  0
 13 11  1  0
 14 13  2  0
 16 15  1  0
 17 16  2  0
 18 17  1  0
 19 18  2  0
 19 25  1  0
 21 20  1  1
 20 19  1  0
 21 22  1  0
 23 21  1  0
 24 23  1  0
 25 26  2  0
 26 16  1  0
 27 23  2  0
M  END
$$$$
