KAY.pdb
     RDKit          3D

 27 27  0  0  1  0  0  0  0  0999 V2000
   29.5882  -23.8342  -17.8294 N   0  0  0  0  0  0  0  0  0  0  0  0
   28.6486  -22.7925  -18.1841 C   0  0  1  0  0  0  0  0  0  0  0  0
   27.7361  -23.2771  -19.2538 C   0  0  0  0  0  0  0  0  0  0  0  0
   28.3098  -23.0885  -20.6400 C   0  0  0  0  0  0  0  0  0  0  0  0
   28.5916  -21.6411  -20.9650 C   0  0  0  0  0  0  0  0  0  0  0  0
   29.1466  -21.6052  -22.3957 C   0  0  0  0  0  0  0  0  0  0  0  0
   29.4515  -20.2227  -22.6969 N   0  0  0  0  0  0  0  0  0  0  0  0
   28.0267  -22.2700  -16.9863 C   0  0  0  0  0  0  0  0  0  0  0  0
   27.6260  -23.0749  -16.1081 O   0  0  0  0  0  0  0  0  0  0  0  0
   27.2519  -18.8908  -15.3944 C   0  0  0  0  0  0  0  0  0  0  0  0
   27.1892  -20.3750  -15.5232 C   0  0  2  0  0  0  0  0  0  0  0  0
   27.8209  -20.8873  -16.7027 N   0  0  0  0  0  0  0  0  0  0  0  0
   25.7736  -20.8698  -15.4005 C   0  0  0  0  0  0  0  0  0  0  0  0
   25.0384  -20.9552  -16.4146 O   0  0  0  0  0  0  0  0  0  0  0  0
   25.6460  -20.2342   -8.1501 O   0  0  0  0  0  0  0  0  0  0  0  0
   25.1904  -20.8297   -9.3164 C   0  0  0  0  0  0  0  0  0  0  0  0
   26.0247  -21.5653  -10.1465 C   0  0  0  0  0  0  0  0  0  0  0  0
   25.5168  -22.1355  -11.2945 C   0  0  0  0  0  0  0  0  0  0  0  0
   24.1955  -22.0077  -11.6648 C   0  0  0  0  0  0  0  0  0  0  0  0
   23.6393  -22.6044  -12.8951 C   0  0  0  0  0  0  0  0  0  0  0  0
   23.8246  -21.6844  -14.0462 C   0  0  2  0  0  0  0  0  0  0  0  0
   25.2303  -21.2515  -14.1481 N   0  0  0  0  0  0  0  0  0  0  0  0
   23.0236  -20.4499  -13.9334 C   0  0  0  0  0  0  0  0  0  0  0  0
   21.6335  -20.4286  -14.1618 O   0  0  0  0  0  0  0  0  0  0  0  0
   23.3842  -21.2751  -10.8291 C   0  0  0  0  0  0  0  0  0  0  0  0
   23.8782  -20.6919   -9.6658 C   0  0  0  0  0  0  0  0  0  0  0  0
   23.5120  -19.3165  -13.6250 O   0  0  0  0  0  0  0  0  0  0  0  0
  2  3  1  0
  2  1  1  1
  4  5  1  0
  4  3  1  0
  6  5  1  0
  7  6  1  0
  8  2  1  0
  9  8  2  0
 11 10  1  6
 11 12  1  0
 12  8  1  0
 13 22  1  0
 13 11  1  0
 14 13  2  0
 16 15  1  0
 17 16  2  0
 18 17  1  0
 19 18  2  0
 19 25  1  0
 21 20  1  1
 20 19  1  0
 21 22  1  0
 23 21  1  0
 24 23  1  0
 25 26  2  0
 26 16  1  0
 27 23  2  0
M  END
$$$$
