KAY.pdb
     RDKit          3D

 27 27  0  0  1  0  0  0  0  0999 V2000
   27.9872  -20.1573  -16.5338 N   0  0  0  0  0  0  0  0  0  0  0  0
   26.8538  -21.0516  -16.4366 C   0  0  1  0  0  0  0  0  0  0  0  0
   27.2534  -22.3003  -15.7344 C   0  0  0  0  0  0  0  0  0  0  0  0
   27.4480  -23.4645  -16.6793 C   0  0  0  0  0  0  0  0  0  0  0  0
   28.7880  -23.4363  -17.3749 C   0  0  0  0  0  0  0  0  0  0  0  0
   28.8180  -24.6346  -18.3337 C   0  0  0  0  0  0  0  0  0  0  0  0
   30.0729  -24.5708  -19.0518 N   0  0  0  0  0  0  0  0  0  0  0  0
   25.7160  -20.3380  -15.8975 C   0  0  0  0  0  0  0  0  0  0  0  0
   25.8422  -19.7275  -14.8061 O   0  0  0  0  0  0  0  0  0  0  0  0
   22.3537  -19.0345  -16.9647 C   0  0  0  0  0  0  0  0  0  0  0  0
   23.2928  -19.5908  -15.9488 C   0  0  2  0  0  0  0  0  0  0  0  0
   24.4288  -20.2616  -16.5074 N   0  0  0  0  0  0  0  0  0  0  0  0
   22.5679  -20.4675  -14.9641 C   0  0  0  0  0  0  0  0  0  0  0  0
   22.3975  -21.6883  -15.2029 O   0  0  0  0  0  0  0  0  0  0  0  0
   27.2967  -21.8040  -10.5189 O   0  0  0  0  0  0  0  0  0  0  0  0
   25.9616  -21.5153  -10.7572 C   0  0  0  0  0  0  0  0  0  0  0  0
   25.2207  -22.1836  -11.7218 C   0  0  0  0  0  0  0  0  0  0  0  0
   23.8959  -21.8546  -11.9156 C   0  0  0  0  0  0  0  0  0  0  0  0
   23.2596  -20.8752  -11.1840 C   0  0  0  0  0  0  0  0  0  0  0  0
   21.8449  -20.5056  -11.3861 C   0  0  0  0  0  0  0  0  0  0  0  0
   21.4144  -20.8413  -12.7673 C   0  0  2  0  0  0  0  0  0  0  0  0
   22.0592  -19.9481  -13.7473 N   0  0  0  0  0  0  0  0  0  0  0  0
   19.9604  -20.6908  -12.9715 C   0  0  0  0  0  0  0  0  0  0  0  0
   19.4120  -19.6649  -13.7663 O   0  0  0  0  0  0  0  0  0  0  0  0
   24.0105  -20.2241  -10.2324 C   0  0  0  0  0  0  0  0  0  0  0  0
   25.3492  -20.5420  -10.0218 C   0  0  0  0  0  0  0  0  0  0  0  0
   19.0909  -21.4625  -12.4552 O   0  0  0  0  0  0  0  0  0  0  0  0
  2  3  1  0
  2  1  1  1
  4  5  1  0
  4  3  1  0
  6  5  1  0
  7  6  1  0
  8  2  1  0
  9  8  2  0
 11 10  1  6
 11 12  1  0
 12  8  1  0
 13 22  1  0
 13 11  1  0
 14 13  2  0
 16 15  1  0
 17 16  2  0
 18 17  1  0
 19 18  2  0
 19 25  1  0
 21 20  1  1
 20 19  1  0
 21 22  1  0
 23 21  1  0
 24 23  1  0
 25 26  2  0
 26 16  1  0
 27 23  2  0
M  END
$$$$
