KAY.pdb
     RDKit          3D

 27 27  0  0  1  0  0  0  0  0999 V2000
   21.5559  -22.0184  -17.1553 N   0  0  0  0  0  0  0  0  0  0  0  0
   22.8774  -22.5742  -16.9597 C   0  0  1  0  0  0  0  0  0  0  0  0
   23.2271  -23.4615  -18.1009 C   0  0  0  0  0  0  0  0  0  0  0  0
   22.2026  -24.5497  -18.3294 C   0  0  0  0  0  0  0  0  0  0  0  0
   22.7038  -25.9180  -17.9335 C   0  0  0  0  0  0  0  0  0  0  0  0
   22.3202  -26.1248  -16.4617 C   0  0  0  0  0  0  0  0  0  0  0  0
   22.7751  -27.4468  -16.0874 N   0  0  0  0  0  0  0  0  0  0  0  0
   23.8111  -21.5121  -16.6519 C   0  0  0  0  0  0  0  0  0  0  0  0
   25.0298  -21.7915  -16.5240 O   0  0  0  0  0  0  0  0  0  0  0  0
   23.8108  -17.7172  -16.2873 C   0  0  0  0  0  0  0  0  0  0  0  0
   24.3983  -19.0853  -16.2062 C   0  0  2  0  0  0  0  0  0  0  0  0
   23.4661  -20.1393  -16.4754 N   0  0  0  0  0  0  0  0  0  0  0  0
   25.0999  -19.2962  -14.8921 C   0  0  0  0  0  0  0  0  0  0  0  0
   25.9932  -18.5001  -14.5118 O   0  0  0  0  0  0  0  0  0  0  0  0
   26.9809  -20.1977   -6.5869 O   0  0  0  0  0  0  0  0  0  0  0  0
   26.3745  -20.1104   -7.8307 C   0  0  0  0  0  0  0  0  0  0  0  0
   25.3501  -20.9638   -8.2161 C   0  0  0  0  0  0  0  0  0  0  0  0
   24.7836  -20.8310   -9.4660 C   0  0  0  0  0  0  0  0  0  0  0  0
   25.1933  -19.8736  -10.3687 C   0  0  0  0  0  0  0  0  0  0  0  0
   24.6029  -19.7250  -11.7134 C   0  0  0  0  0  0  0  0  0  0  0  0
   25.3830  -20.5023  -12.7100 C   0  0  2  0  0  0  0  0  0  0  0  0
   24.7780  -20.3900  -14.0499 N   0  0  0  0  0  0  0  0  0  0  0  0
   25.4349  -21.9452  -12.4043 C   0  0  0  0  0  0  0  0  0  0  0  0
   26.4733  -22.5189  -11.6442 O   0  0  0  0  0  0  0  0  0  0  0  0
   26.2097  -19.0370   -9.9684 C   0  0  0  0  0  0  0  0  0  0  0  0
   26.7942  -19.1552   -8.7107 C   0  0  0  0  0  0  0  0  0  0  0  0
   24.5600  -22.7821  -12.7948 O   0  0  0  0  0  0  0  0  0  0  0  0
  2  3  1  0
  2  1  1  6
  4  5  1  0
  4  3  1  0
  6  5  1  0
  7  6  1  0
  8  2  1  0
  9  8  2  0
 11 10  1  1
 11 12  1  0
 12  8  1  0
 13 22  1  0
 13 11  1  0
 14 13  2  0
 16 15  1  0
 17 16  2  0
 18 17  1  0
 19 18  2  0
 19 25  1  0
 21 20  1  1
 20 19  1  0
 21 22  1  0
 23 21  1  0
 24 23  1  0
 25 26  2  0
 26 16  1  0
 27 23  2  0
M  END
$$$$
