KAY.pdb
     RDKit          3D

 27 27  0  0  1  0  0  0  0  0999 V2000
   20.3683  -12.4016  -18.7442 N   0  0  0  0  0  0  0  0  0  0  0  0
   21.6339  -11.7384  -18.9724 C   0  0  1  0  0  0  0  0  0  0  0  0
   22.0901  -11.9848  -20.3663 C   0  0  0  0  0  0  0  0  0  0  0  0
   22.5871  -13.3972  -20.5767 C   0  0  0  0  0  0  0  0  0  0  0  0
   21.4653  -14.4004  -20.6994 C   0  0  0  0  0  0  0  0  0  0  0  0
   22.1147  -15.7648  -20.9692 C   0  0  0  0  0  0  0  0  0  0  0  0
   21.0453  -16.7383  -21.0284 N   0  0  0  0  0  0  0  0  0  0  0  0
   21.5413  -10.3563  -18.5532 C   0  0  0  0  0  0  0  0  0  0  0  0
   22.5998   -9.7033  -18.3718 O   0  0  0  0  0  0  0  0  0  0  0  0
   18.8890   -7.6583  -18.2811 C   0  0  0  0  0  0  0  0  0  0  0  0
   20.2336   -8.2488  -18.0227 C   0  0  2  0  0  0  0  0  0  0  0  0
   20.3257   -9.6471  -18.3206 N   0  0  0  0  0  0  0  0  0  0  0  0
   20.6933   -7.9555  -16.6204 C   0  0  0  0  0  0  0  0  0  0  0  0
   20.2778   -8.6444  -15.6565 O   0  0  0  0  0  0  0  0  0  0  0  0
   26.7721   -4.4045  -18.6486 O   0  0  0  0  0  0  0  0  0  0  0  0
   25.9797   -5.0418  -17.7061 C   0  0  0  0  0  0  0  0  0  0  0  0
   25.6012   -4.4276  -16.5204 C   0  0  0  0  0  0  0  0  0  0  0  0
   24.8117   -5.1096  -15.6190 C   0  0  0  0  0  0  0  0  0  0  0  0
   24.3720   -6.3964  -15.8425 C   0  0  0  0  0  0  0  0  0  0  0  0
   23.5341   -7.1426  -14.8832 C   0  0  0  0  0  0  0  0  0  0  0  0
   22.1191   -6.7018  -14.9798 C   0  0  2  0  0  0  0  0  0  0  0  0
   21.6014   -6.9023  -16.3457 N   0  0  0  0  0  0  0  0  0  0  0  0
   21.9394   -5.2678  -14.6806 C   0  0  0  0  0  0  0  0  0  0  0  0
   22.2399   -4.7164  -13.4193 O   0  0  0  0  0  0  0  0  0  0  0  0
   24.7573   -6.9883  -17.0233 C   0  0  0  0  0  0  0  0  0  0  0  0
   25.5539   -6.3162  -17.9460 C   0  0  0  0  0  0  0  0  0  0  0  0
   21.5046   -4.4194  -15.5229 O   0  0  0  0  0  0  0  0  0  0  0  0
  2  3  1  0
  2  1  1  6
  4  5  1  0
  4  3  1  0
  6  5  1  0
  7  6  1  0
  8  2  1  0
  9  8  2  0
 11 10  1  1
 11 12  1  0
 12  8  1  0
 13 22  1  0
 13 11  1  0
 14 13  2  0
 16 15  1  0
 17 16  2  0
 18 17  1  0
 19 18  2  0
 19 25  1  0
 21 20  1  6
 20 19  1  0
 21 22  1  0
 23 21  1  0
 24 23  1  0
 25 26  2  0
 26 16  1  0
 27 23  2  0
M  END
$$$$
