KAY.pdb
     RDKit          3D

 27 27  0  0  1  0  0  0  0  0999 V2000
   21.4310  -12.5165  -18.6523 N   0  0  0  0  0  0  0  0  0  0  0  0
   20.5610  -11.3683  -18.5174 C   0  0  1  0  0  0  0  0  0  0  0  0
   19.1484  -11.7745  -18.7445 C   0  0  0  0  0  0  0  0  0  0  0  0
   19.0256  -12.9752  -19.6552 C   0  0  0  0  0  0  0  0  0  0  0  0
   17.6036  -13.4653  -19.7892 C   0  0  0  0  0  0  0  0  0  0  0  0
   17.6410  -14.6977  -20.7034 C   0  0  0  0  0  0  0  0  0  0  0  0
   16.3128  -15.2726  -20.6934 N   0  0  0  0  0  0  0  0  0  0  0  0
   20.8489  -10.6831  -17.2756 C   0  0  0  0  0  0  0  0  0  0  0  0
   19.9501   -9.9835  -16.7442 O   0  0  0  0  0  0  0  0  0  0  0  0
   23.3044  -10.8490  -14.4491 C   0  0  0  0  0  0  0  0  0  0  0  0
   22.3557  -10.0985  -15.3209 C   0  0  2  0  0  0  0  0  0  0  0  0
   22.0933  -10.7299  -16.5799 N   0  0  0  0  0  0  0  0  0  0  0  0
   22.8012   -8.6732  -15.5047 C   0  0  0  0  0  0  0  0  0  0  0  0
   23.6231   -8.3736  -16.4052 O   0  0  0  0  0  0  0  0  0  0  0  0
   16.6449   -4.9891  -16.2902 O   0  0  0  0  0  0  0  0  0  0  0  0
   18.0118   -5.2211  -16.3011 C   0  0  0  0  0  0  0  0  0  0  0  0
   18.5540   -6.4300  -16.7144 C   0  0  0  0  0  0  0  0  0  0  0  0
   19.9215   -6.6049  -16.7043 C   0  0  0  0  0  0  0  0  0  0  0  0
   20.7929   -5.6186  -16.2956 C   0  0  0  0  0  0  0  0  0  0  0  0
   22.2584   -5.7939  -16.2705 C   0  0  0  0  0  0  0  0  0  0  0  0
   22.7041   -6.2340  -14.9238 C   0  0  2  0  0  0  0  0  0  0  0  0
   22.3118   -7.6333  -14.6749 N   0  0  0  0  0  0  0  0  0  0  0  0
   22.1080   -5.4414  -13.8308 C   0  0  0  0  0  0  0  0  0  0  0  0
   22.4203   -4.0828  -13.6264 O   0  0  0  0  0  0  0  0  0  0  0  0
   20.2367   -4.4273  -15.8897 C   0  0  0  0  0  0  0  0  0  0  0  0
   18.8586   -4.2314  -15.8929 C   0  0  0  0  0  0  0  0  0  0  0  0
   21.2738   -5.9097  -12.9923 O   0  0  0  0  0  0  0  0  0  0  0  0
  2  3  1  0
  2  1  1  1
  4  5  1  0
  4  3  1  0
  6  5  1  0
  7  6  1  0
  8  2  1  0
  9  8  2  0
 11 10  1  6
 11 12  1  0
 12  8  1  0
 13 22  1  0
 13 11  1  0
 14 13  2  0
 16 15  1  0
 17 16  2  0
 18 17  1  0
 19 18  2  0
 19 25  1  0
 21 20  1  6
 20 19  1  0
 21 22  1  0
 23 21  1  0
 24 23  1  0
 25 26  2  0
 26 16  1  0
 27 23  2  0
M  END
$$$$
