KAY.pdb
     RDKit          3D

 27 27  0  0  1  0  0  0  0  0999 V2000
   24.4953  -21.9543  -17.7692 N   0  0  0  0  0  0  0  0  0  0  0  0
   24.6376  -22.1172  -16.3385 C   0  0  1  0  0  0  0  0  0  0  0  0
   26.0782  -22.2085  -15.9805 C   0  0  0  0  0  0  0  0  0  0  0  0
   26.7928  -23.3203  -16.7150 C   0  0  0  0  0  0  0  0  0  0  0  0
   26.3886  -24.6936  -16.2345 C   0  0  0  0  0  0  0  0  0  0  0  0
   27.0978  -25.7096  -17.1405 C   0  0  0  0  0  0  0  0  0  0  0  0
   26.7644  -27.0266  -16.6415 N   0  0  0  0  0  0  0  0  0  0  0  0
   23.8603  -21.1062  -15.6542 C   0  0  0  0  0  0  0  0  0  0  0  0
   23.8841  -21.0672  -14.3981 O   0  0  0  0  0  0  0  0  0  0  0  0
   22.4948  -17.7326  -16.2344 C   0  0  0  0  0  0  0  0  0  0  0  0
   22.3361  -19.0794  -15.6145 C   0  0  2  0  0  0  0  0  0  0  0  0
   23.0472  -20.1227  -16.2915 N   0  0  0  0  0  0  0  0  0  0  0  0
   20.8827  -19.4285  -15.4429 C   0  0  0  0  0  0  0  0  0  0  0  0
   20.1172  -18.6706  -14.7981 O   0  0  0  0  0  0  0  0  0  0  0  0
   12.9046  -22.9364  -16.4070 O   0  0  0  0  0  0  0  0  0  0  0  0
   14.2059  -22.4876  -16.5726 C   0  0  0  0  0  0  0  0  0  0  0  0
   14.5473  -21.1476  -16.4542 C   0  0  0  0  0  0  0  0  0  0  0  0
   15.8582  -20.7581  -16.6293 C   0  0  0  0  0  0  0  0  0  0  0  0
   16.8653  -21.6521  -16.9222 C   0  0  0  0  0  0  0  0  0  0  0  0
   18.2714  -21.2493  -17.1214 C   0  0  0  0  0  0  0  0  0  0  0  0
   18.9084  -20.9312  -15.8180 C   0  0  2  0  0  0  0  0  0  0  0  0
   20.3367  -20.6129  -15.9983 N   0  0  0  0  0  0  0  0  0  0  0  0
   18.8571  -22.0536  -14.8611 C   0  0  0  0  0  0  0  0  0  0  0  0
   17.7536  -22.2725  -14.0128 O   0  0  0  0  0  0  0  0  0  0  0  0
   16.5074  -22.9759  -17.0354 C   0  0  0  0  0  0  0  0  0  0  0  0
   15.1894  -23.3887  -16.8620 C   0  0  0  0  0  0  0  0  0  0  0  0
   19.7903  -22.9068  -14.7222 O   0  0  0  0  0  0  0  0  0  0  0  0
  2  3  1  0
  2  1  1  6
  4  5  1  0
  4  3  1  0
  6  5  1  0
  7  6  1  0
  8  2  1  0
  9  8  2  0
 11 10  1  6
 11 12  1  0
 12  8  1  0
 13 22  1  0
 13 11  1  0
 14 13  2  0
 16 15  1  0
 17 16  2  0
 18 17  1  0
 19 18  2  0
 19 25  1  0
 21 20  1  6
 20 19  1  0
 21 22  1  0
 23 21  1  0
 24 23  1  0
 25 26  2  0
 26 16  1  0
 27 23  2  0
M  END
$$$$
