DGQ.pdb
     RDKit          3D

 22 21  0  0  1  0  0  0  0  0999 V2000
   10.1180  -12.6884   18.6563 N   0  0  0  0  0  0  0  0  0  0  0  0
    9.9068  -14.1184   18.5405 C   0  0  1  0  0  0  0  0  0  0  0  0
   11.1562  -14.7874   19.0991 C   0  0  0  0  0  0  0  0  0  0  0  0
   12.2653  -14.5083   18.1646 C   0  0  0  0  0  0  0  0  0  0  0  0
   12.4047  -15.0787   17.0565 O   0  0  0  0  0  0  0  0  0  0  0  0
    8.7428  -14.4934   19.3828 C   0  0  0  0  0  0  0  0  0  0  0  0
    7.6171  -14.6937   18.8620 O   0  0  0  0  0  0  0  0  0  0  0  0
   13.2086  -13.5581   18.5358 O   0  0  0  0  0  0  0  0  0  0  0  0
    8.8483  -14.6405   20.7970 N   0  0  0  0  0  0  0  0  0  0  0  0
    7.7995  -15.1352   21.6293 C   0  0  0  0  0  0  0  0  0  0  0  0
    8.1831  -15.1145   23.0846 C   0  0  0  0  0  0  0  0  0  0  0  0
    9.3901  -14.9890   23.4106 O   0  0  0  0  0  0  0  0  0  0  0  0
    6.7603  -11.4402   26.2353 N   0  0  0  0  0  0  0  0  0  0  0  0
    6.2042  -12.2066   27.2843 C   0  0  0  0  0  0  0  0  0  0  0  0
    5.7315  -11.5494   28.2808 O   0  0  0  0  0  0  0  0  0  0  0  0
    6.1055  -13.6591   27.3475 C   0  0  0  0  0  0  0  0  0  0  0  0
    6.1153  -14.4133   26.0859 C   0  0  0  0  0  0  0  0  0  0  0  0
    7.4329  -14.7824   25.4903 C   0  0  2  0  0  0  0  0  0  0  0  0
    7.1973  -15.2350   24.0942 N   0  0  0  0  0  0  0  0  0  0  0  0
    8.2145  -15.7681   26.2108 C   0  0  0  0  0  0  0  0  0  0  0  0
    9.1257  -15.5441   27.2210 O   0  0  0  0  0  0  0  0  0  0  0  0
    8.0617  -16.9999   25.8818 O   0  0  0  0  0  0  0  0  0  0  0  0
  2  1  1  1
  2  3  1  0
  3  4  1  0
  4  8  1  0
  5  4  2  0
  6  7  2  0
  6  2  1  0
  9  6  1  0
 10  9  1  0
 10 11  1  0
 11 12  2  0
 13 14  1  0
 14 16  1  0
 14 15  2  0
 16 17  1  0
 18 17  1  1
 18 20  1  0
 19 11  1  0
 19 18  1  0
 20 21  1  0
 22 20  2  0
M  END
$$$$
