DGQ.pdb
     RDKit          3D

 22 21  0  0  1  0  0  0  0  0999 V2000
    9.9749  -17.9590   18.9497 N   0  0  0  0  0  0  0  0  0  0  0  0
    8.9233  -17.0009   18.6686 C   0  0  1  0  0  0  0  0  0  0  0  0
    7.9357  -17.7006   17.7436 C   0  0  0  0  0  0  0  0  0  0  0  0
    8.7069  -18.2734   16.6218 C   0  0  0  0  0  0  0  0  0  0  0  0
    9.9503  -18.4355   16.6402 O   0  0  0  0  0  0  0  0  0  0  0  0
    8.2361  -16.6671   19.9420 C   0  0  0  0  0  0  0  0  0  0  0  0
    8.0054  -17.5603   20.7951 O   0  0  0  0  0  0  0  0  0  0  0  0
    8.0133  -18.6545   15.4798 O   0  0  0  0  0  0  0  0  0  0  0  0
    7.8143  -15.3402   20.2490 N   0  0  0  0  0  0  0  0  0  0  0  0
    7.1059  -14.9814   21.4351 C   0  0  0  0  0  0  0  0  0  0  0  0
    8.0127  -14.9331   22.6354 C   0  0  0  0  0  0  0  0  0  0  0  0
    9.2412  -15.1590   22.4995 O   0  0  0  0  0  0  0  0  0  0  0  0
    6.8927  -10.8508   27.4002 N   0  0  0  0  0  0  0  0  0  0  0  0
    6.1142  -11.9882   27.0884 C   0  0  0  0  0  0  0  0  0  0  0  0
    4.9020  -11.9817   27.5113 O   0  0  0  0  0  0  0  0  0  0  0  0
    6.5415  -13.1588   26.3331 C   0  0  0  0  0  0  0  0  0  0  0  0
    7.9103  -13.1809   25.7982 C   0  0  0  0  0  0  0  0  0  0  0  0
    8.3779  -14.4120   25.0962 C   0  0  2  0  0  0  0  0  0  0  0  0
    7.4966  -14.6351   23.9202 N   0  0  0  0  0  0  0  0  0  0  0  0
    8.4617  -15.6190   25.8950 C   0  0  0  0  0  0  0  0  0  0  0  0
    9.3753  -15.9101   26.8857 O   0  0  0  0  0  0  0  0  0  0  0  0
    7.5985  -16.5415   25.6655 O   0  0  0  0  0  0  0  0  0  0  0  0
  2  1  1  1
  2  3  1  0
  3  4  1  0
  4  8  1  0
  5  4  2  0
  6  7  2  0
  6  2  1  0
  9  6  1  0
 10  9  1  0
 10 11  1  0
 11 12  2  0
 13 14  1  0
 14 16  1  0
 14 15  2  0
 16 17  1  0
 18 17  1  1
 18 20  1  0
 19 11  1  0
 19 18  1  0
 20 21  1  0
 22 20  2  0
M  END
$$$$
