DGQ.pdb
     RDKit          3D

 22 21  0  0  1  0  0  0  0  0999 V2000
   10.5803  -19.7254   15.8675 N   0  0  0  0  0  0  0  0  0  0  0  0
   10.3099  -18.3011   15.8313 C   0  0  1  0  0  0  0  0  0  0  0  0
    9.3602  -18.0702   14.6628 C   0  0  0  0  0  0  0  0  0  0  0  0
   10.1844  -17.8282   13.4615 C   0  0  0  0  0  0  0  0  0  0  0  0
   11.4378  -17.8672   13.4553 O   0  0  0  0  0  0  0  0  0  0  0  0
    9.6241  -17.9186   17.0917 C   0  0  0  0  0  0  0  0  0  0  0  0
    9.2603  -16.7316   17.2846 O   0  0  0  0  0  0  0  0  0  0  0  0
    9.5318  -17.5406   12.2690 O   0  0  0  0  0  0  0  0  0  0  0  0
    9.3520  -18.8653   18.1224 N   0  0  0  0  0  0  0  0  0  0  0  0
    8.7156  -18.5403   19.3581 C   0  0  0  0  0  0  0  0  0  0  0  0
    9.5813  -17.6597   20.2185 C   0  0  0  0  0  0  0  0  0  0  0  0
   10.8124  -17.5721   19.9829 O   0  0  0  0  0  0  0  0  0  0  0  0
    7.4463  -11.8566   20.0658 N   0  0  0  0  0  0  0  0  0  0  0  0
    7.7581  -12.7953   21.0750 C   0  0  0  0  0  0  0  0  0  0  0  0
    7.1140  -12.6790   22.1794 O   0  0  0  0  0  0  0  0  0  0  0  0
    8.7257  -13.8815   20.9887 C   0  0  0  0  0  0  0  0  0  0  0  0
    8.9755  -14.6888   22.1913 C   0  0  0  0  0  0  0  0  0  0  0  0
    9.8072  -15.9208   22.0586 C   0  0  2  0  0  0  0  0  0  0  0  0
    9.0235  -16.9261   21.2939 N   0  0  0  0  0  0  0  0  0  0  0  0
   10.3009  -16.5030   23.2910 C   0  0  0  0  0  0  0  0  0  0  0  0
   11.3879  -16.0979   24.0363 O   0  0  0  0  0  0  0  0  0  0  0  0
    9.6722  -17.5205   23.7582 O   0  0  0  0  0  0  0  0  0  0  0  0
  2  1  1  1
  2  3  1  0
  3  4  1  0
  4  8  1  0
  5  4  2  0
  6  7  2  0
  6  2  1  0
  9  6  1  0
 10  9  1  0
 10 11  1  0
 11 12  2  0
 13 14  1  0
 14 16  1  0
 14 15  2  0
 16 17  1  0
 18 17  1  1
 18 20  1  0
 19 11  1  0
 19 18  1  0
 20 21  1  0
 22 20  2  0
M  END
$$$$
