DGQ.pdb
     RDKit          3D

 22 21  0  0  1  0  0  0  0  0999 V2000
    7.7368  -18.2633   20.4055 N   0  0  0  0  0  0  0  0  0  0  0  0
    8.4234  -17.4624   19.4104 C   0  0  1  0  0  0  0  0  0  0  0  0
    7.5570  -17.4921   18.1577 C   0  0  0  0  0  0  0  0  0  0  0  0
    7.9401  -18.6882   17.3806 C   0  0  0  0  0  0  0  0  0  0  0  0
    9.1155  -19.1161   17.2920 O   0  0  0  0  0  0  0  0  0  0  0  0
    8.5067  -16.0647   19.9048 C   0  0  0  0  0  0  0  0  0  0  0  0
    9.3430  -15.2644   19.4162 O   0  0  0  0  0  0  0  0  0  0  0  0
    6.9388  -19.3787   16.7090 O   0  0  0  0  0  0  0  0  0  0  0  0
    7.6556  -15.5759   20.9390 N   0  0  0  0  0  0  0  0  0  0  0  0
    7.7730  -14.2793   21.5242 C   0  0  0  0  0  0  0  0  0  0  0  0
    8.4389  -14.3326   22.8730 C   0  0  0  0  0  0  0  0  0  0  0  0
    9.5450  -13.7622   23.0464 O   0  0  0  0  0  0  0  0  0  0  0  0
    5.9133  -12.0888   25.3881 N   0  0  0  0  0  0  0  0  0  0  0  0
    6.3928  -12.3602   26.6894 C   0  0  0  0  0  0  0  0  0  0  0  0
    6.2930  -11.4067   27.5433 O   0  0  0  0  0  0  0  0  0  0  0  0
    6.9792  -13.6079   27.1616 C   0  0  0  0  0  0  0  0  0  0  0  0
    7.0696  -14.7344   26.2219 C   0  0  0  0  0  0  0  0  0  0  0  0
    8.2818  -14.8423   25.3582 C   0  0  2  0  0  0  0  0  0  0  0  0
    7.8321  -15.0198   23.9525 N   0  0  0  0  0  0  0  0  0  0  0  0
    9.2376  -15.8733   25.7118 C   0  0  0  0  0  0  0  0  0  0  0  0
    9.4849  -17.0550   25.0461 O   0  0  0  0  0  0  0  0  0  0  0  0
    9.9427  -15.6889   26.7691 O   0  0  0  0  0  0  0  0  0  0  0  0
  2  1  1  1
  2  3  1  0
  3  4  1  0
  4  8  1  0
  5  4  2  0
  6  7  2  0
  6  2  1  0
  9  6  1  0
 10  9  1  0
 10 11  1  0
 11 12  2  0
 13 14  1  0
 14 16  1  0
 14 15  2  0
 16 17  1  0
 18 17  1  1
 18 20  1  0
 19 11  1  0
 19 18  1  0
 20 21  1  0
 22 20  2  0
M  END
$$$$
