DGQ.pdb
     RDKit          3D

 22 21  0  0  1  0  0  0  0  0999 V2000
    9.1939  -14.5215   17.2633 N   0  0  0  0  0  0  0  0  0  0  0  0
    8.1524  -15.4764   16.9370 C   0  0  1  0  0  0  0  0  0  0  0  0
    8.7944  -16.5281   16.0412 C   0  0  0  0  0  0  0  0  0  0  0  0
    9.1618  -15.8670   14.7727 C   0  0  0  0  0  0  0  0  0  0  0  0
   10.2549  -15.2831   14.5808 O   0  0  0  0  0  0  0  0  0  0  0  0
    7.6978  -16.1264   18.1924 C   0  0  0  0  0  0  0  0  0  0  0  0
    6.7901  -16.9948   18.1682 O   0  0  0  0  0  0  0  0  0  0  0  0
    8.2418  -15.8941   13.7319 O   0  0  0  0  0  0  0  0  0  0  0  0
    8.2615  -15.7998   19.4607 N   0  0  0  0  0  0  0  0  0  0  0  0
    7.8358  -16.3745   20.6960 C   0  0  0  0  0  0  0  0  0  0  0  0
    8.5135  -15.7304   21.8755 C   0  0  0  0  0  0  0  0  0  0  0  0
    9.7205  -15.3909   21.7937 O   0  0  0  0  0  0  0  0  0  0  0  0
    5.1421  -12.3061   26.1972 N   0  0  0  0  0  0  0  0  0  0  0  0
    6.5128  -12.2485   26.5360 C   0  0  0  0  0  0  0  0  0  0  0  0
    6.8290  -11.4576   27.4967 O   0  0  0  0  0  0  0  0  0  0  0  0
    7.5982  -12.9967   25.9151 C   0  0  0  0  0  0  0  0  0  0  0  0
    7.2705  -13.9170   24.8170 C   0  0  0  0  0  0  0  0  0  0  0  0
    8.3767  -14.7035   24.1966 C   0  0  2  0  0  0  0  0  0  0  0  0
    7.8052  -15.5017   23.0804 N   0  0  0  0  0  0  0  0  0  0  0  0
    9.1385  -15.5592   25.0850 C   0  0  0  0  0  0  0  0  0  0  0  0
   10.3004  -15.2494   25.7595 O   0  0  0  0  0  0  0  0  0  0  0  0
    8.7027  -16.7520   25.2753 O   0  0  0  0  0  0  0  0  0  0  0  0
  2  1  1  1
  2  3  1  0
  3  4  1  0
  4  8  1  0
  5  4  2  0
  6  7  2  0
  6  2  1  0
  9  6  1  0
 10  9  1  0
 10 11  1  0
 11 12  2  0
 13 14  1  0
 14 16  1  0
 14 15  2  0
 16 17  1  0
 18 17  1  1
 18 20  1  0
 19 11  1  0
 19 18  1  0
 20 21  1  0
 22 20  2  0
M  END
$$$$
