DGQ.pdb
     RDKit          3D

 22 21  0  0  1  0  0  0  0  0999 V2000
   10.6567  -17.4010   19.4281 N   0  0  0  0  0  0  0  0  0  0  0  0
    9.6399  -18.1972   20.0877 C   0  0  1  0  0  0  0  0  0  0  0  0
   10.3675  -19.3452   20.7758 C   0  0  0  0  0  0  0  0  0  0  0  0
   11.7743  -18.9339   20.9580 C   0  0  0  0  0  0  0  0  0  0  0  0
   12.5060  -19.3430   21.8907 O   0  0  0  0  0  0  0  0  0  0  0  0
    8.9796  -17.3585   21.1201 C   0  0  0  0  0  0  0  0  0  0  0  0
    7.7485  -17.4734   21.3430 O   0  0  0  0  0  0  0  0  0  0  0  0
   12.3176  -18.0416   20.0420 O   0  0  0  0  0  0  0  0  0  0  0  0
    9.7009  -16.4011   21.8920 N   0  0  0  0  0  0  0  0  0  0  0  0
    9.2794  -15.0515   22.0876 C   0  0  0  0  0  0  0  0  0  0  0  0
    8.0752  -14.9662   22.9864 C   0  0  0  0  0  0  0  0  0  0  0  0
    6.9260  -14.8833   22.4849 O   0  0  0  0  0  0  0  0  0  0  0  0
    6.5243  -10.8829   27.9667 N   0  0  0  0  0  0  0  0  0  0  0  0
    6.1319  -11.5680   26.7946 C   0  0  0  0  0  0  0  0  0  0  0  0
    5.0120  -12.1934   26.8486 O   0  0  0  0  0  0  0  0  0  0  0  0
    6.8607  -11.6309   25.5343 C   0  0  0  0  0  0  0  0  0  0  0  0
    7.0300  -12.9423   24.8925 C   0  0  0  0  0  0  0  0  0  0  0  0
    8.2610  -13.7284   25.1987 C   0  0  2  0  0  0  0  0  0  0  0  0
    8.2217  -14.9783   24.3950 N   0  0  0  0  0  0  0  0  0  0  0  0
    8.4994  -14.0382   26.5947 C   0  0  0  0  0  0  0  0  0  0  0  0
    9.0685  -13.2248   27.5514 O   0  0  0  0  0  0  0  0  0  0  0  0
    8.1546  -15.2036   27.0094 O   0  0  0  0  0  0  0  0  0  0  0  0
  2  1  1  1
  2  3  1  0
  3  4  1  0
  4  8  1  0
  5  4  2  0
  6  7  2  0
  6  2  1  0
  9  6  1  0
 10  9  1  0
 10 11  1  0
 11 12  2  0
 13 14  1  0
 14 16  1  0
 14 15  2  0
 16 17  1  0
 18 17  1  1
 18 20  1  0
 19 11  1  0
 19 18  1  0
 20 21  1  0
 22 20  2  0
M  END
$$$$
