DGQ.pdb
     RDKit          3D

 22 21  0  0  1  0  0  0  0  0999 V2000
    8.8006  -18.4741   20.0223 N   0  0  0  0  0  0  0  0  0  0  0  0
    7.7741  -17.5510   19.5783 C   0  0  1  0  0  0  0  0  0  0  0  0
    6.8037  -18.3594   18.7266 C   0  0  0  0  0  0  0  0  0  0  0  0
    7.4624  -18.6227   17.4312 C   0  0  0  0  0  0  0  0  0  0  0  0
    7.9752  -19.7240   17.1199 O   0  0  0  0  0  0  0  0  0  0  0  0
    7.0541  -17.0364   20.7708 C   0  0  0  0  0  0  0  0  0  0  0  0
    6.2716  -16.0585   20.6703 O   0  0  0  0  0  0  0  0  0  0  0  0
    7.5165  -17.5892   16.5042 O   0  0  0  0  0  0  0  0  0  0  0  0
    7.2156  -17.6191   22.0620 N   0  0  0  0  0  0  0  0  0  0  0  0
    6.5144  -17.1860   23.2274 C   0  0  0  0  0  0  0  0  0  0  0  0
    7.4383  -16.5544   24.2337 C   0  0  0  0  0  0  0  0  0  0  0  0
    8.6704  -16.4889   23.9957 O   0  0  0  0  0  0  0  0  0  0  0  0
    8.0219  -12.0221   26.0037 N   0  0  0  0  0  0  0  0  0  0  0  0
    6.6397  -12.2973   26.1075 C   0  0  0  0  0  0  0  0  0  0  0  0
    5.8451  -11.4118   25.6250 O   0  0  0  0  0  0  0  0  0  0  0  0
    6.0266  -13.4809   26.6962 C   0  0  0  0  0  0  0  0  0  0  0  0
    6.9047  -14.4908   27.3040 C   0  0  0  0  0  0  0  0  0  0  0  0
    7.7932  -15.2891   26.4094 C   0  0  2  0  0  0  0  0  0  0  0  0
    6.9345  -16.0313   25.4496 N   0  0  0  0  0  0  0  0  0  0  0  0
    8.7176  -16.1970   27.0597 C   0  0  0  0  0  0  0  0  0  0  0  0
    9.9415  -15.8942   27.6176 O   0  0  0  0  0  0  0  0  0  0  0  0
    8.3811  -17.4343   27.1297 O   0  0  0  0  0  0  0  0  0  0  0  0
  2  1  1  1
  2  3  1  0
  3  4  1  0
  4  8  1  0
  5  4  2  0
  6  7  2  0
  6  2  1  0
  9  6  1  0
 10  9  1  0
 10 11  1  0
 11 12  2  0
 13 14  1  0
 14 16  1  0
 14 15  2  0
 16 17  1  0
 18 17  1  1
 18 20  1  0
 19 11  1  0
 19 18  1  0
 20 21  1  0
 22 20  2  0
M  END
$$$$
