DGQ.pdb
     RDKit          3D

 22 21  0  0  1  0  0  0  0  0999 V2000
   10.2121  -16.8496   17.0282 N   0  0  0  0  0  0  0  0  0  0  0  0
    8.8675  -16.3603   16.7924 C   0  0  1  0  0  0  0  0  0  0  0  0
    8.2022  -17.3580   15.8528 C   0  0  0  0  0  0  0  0  0  0  0  0
    8.8421  -17.2167   14.5293 C   0  0  0  0  0  0  0  0  0  0  0  0
    8.8660  -16.1465   13.8760 O   0  0  0  0  0  0  0  0  0  0  0  0
    8.1345  -16.3533   18.0839 C   0  0  0  0  0  0  0  0  0  0  0  0
    6.9674  -15.8931   18.1521 O   0  0  0  0  0  0  0  0  0  0  0  0
    9.4532  -18.3355   13.9768 O   0  0  0  0  0  0  0  0  0  0  0  0
    8.7125  -16.8599   19.2848 N   0  0  0  0  0  0  0  0  0  0  0  0
    8.0470  -16.8748   20.5474 C   0  0  0  0  0  0  0  0  0  0  0  0
    8.8649  -16.2051   21.6188 C   0  0  0  0  0  0  0  0  0  0  0  0
   10.1137  -16.1346   21.4989 O   0  0  0  0  0  0  0  0  0  0  0  0
    5.7676  -11.4176   25.3194 N   0  0  0  0  0  0  0  0  0  0  0  0
    6.4073  -12.6731   25.4268 C   0  0  0  0  0  0  0  0  0  0  0  0
    6.1464  -13.3566   26.4818 O   0  0  0  0  0  0  0  0  0  0  0  0
    7.3223  -13.2724   24.4639 C   0  0  0  0  0  0  0  0  0  0  0  0
    8.0610  -14.4789   24.8629 C   0  0  0  0  0  0  0  0  0  0  0  0
    9.0228  -15.0757   23.8904 C   0  0  2  0  0  0  0  0  0  0  0  0
    8.2422  -15.6516   22.7641 N   0  0  0  0  0  0  0  0  0  0  0  0
    9.9449  -16.0629   24.4167 C   0  0  0  0  0  0  0  0  0  0  0  0
   11.1596  -15.8372   25.0286 O   0  0  0  0  0  0  0  0  0  0  0  0
    9.6158  -17.2990   24.3045 O   0  0  0  0  0  0  0  0  0  0  0  0
  2  1  1  1
  2  3  1  0
  3  4  1  0
  4  8  1  0
  5  4  2  0
  6  7  2  0
  6  2  1  0
  9  6  1  0
 10  9  1  0
 10 11  1  0
 11 12  2  0
 13 14  1  0
 14 16  1  0
 14 15  2  0
 16 17  1  0
 18 17  1  1
 18 20  1  0
 19 11  1  0
 19 18  1  0
 20 21  1  0
 22 20  2  0
M  END
$$$$
