DGQ.pdb
     RDKit          3D

 22 21  0  0  1  0  0  0  0  0999 V2000
    6.7468  -18.7049   22.2252 N   0  0  0  0  0  0  0  0  0  0  0  0
    6.4493  -18.2728   20.8733 C   0  0  1  0  0  0  0  0  0  0  0  0
    4.9864  -17.8475   20.8667 C   0  0  0  0  0  0  0  0  0  0  0  0
    4.1689  -19.0702   20.7329 C   0  0  0  0  0  0  0  0  0  0  0  0
    4.3157  -20.0898   21.4479 O   0  0  0  0  0  0  0  0  0  0  0  0
    7.2946  -17.0933   20.5579 C   0  0  0  0  0  0  0  0  0  0  0  0
    7.5996  -16.8274   19.3684 O   0  0  0  0  0  0  0  0  0  0  0  0
    3.1796  -19.0906   19.7575 O   0  0  0  0  0  0  0  0  0  0  0  0
    7.7900  -16.2240   21.5736 N   0  0  0  0  0  0  0  0  0  0  0  0
    8.7364  -15.1812   21.3410 C   0  0  0  0  0  0  0  0  0  0  0  0
    9.1383  -14.4952   22.6190 C   0  0  0  0  0  0  0  0  0  0  0  0
    9.1158  -13.2407   22.6883 O   0  0  0  0  0  0  0  0  0  0  0  0
    7.5383  -12.0948   27.6096 N   0  0  0  0  0  0  0  0  0  0  0  0
    6.8631  -12.8377   26.6150 C   0  0  0  0  0  0  0  0  0  0  0  0
    6.0679  -12.1778   25.8530 O   0  0  0  0  0  0  0  0  0  0  0  0
    6.9819  -14.2677   26.3615 C   0  0  0  0  0  0  0  0  0  0  0  0
    7.6364  -14.7028   25.1194 C   0  0  0  0  0  0  0  0  0  0  0  0
    9.1157  -14.8995   25.1283 C   0  0  2  0  0  0  0  0  0  0  0  0
    9.5427  -15.2486   23.7480 N   0  0  0  0  0  0  0  0  0  0  0  0
    9.6329  -15.8702   26.0728 C   0  0  0  0  0  0  0  0  0  0  0  0
    9.9972  -15.6553   27.3850 O   0  0  0  0  0  0  0  0  0  0  0  0
    9.7843  -17.0762   25.6586 O   0  0  0  0  0  0  0  0  0  0  0  0
  2  1  1  1
  2  3  1  0
  3  4  1  0
  4  8  1  0
  5  4  2  0
  6  7  2  0
  6  2  1  0
  9  6  1  0
 10  9  1  0
 10 11  1  0
 11 12  2  0
 13 14  1  0
 14 16  1  0
 14 15  2  0
 16 17  1  0
 18 17  1  6
 18 20  1  0
 19 11  1  0
 19 18  1  0
 20 21  1  0
 22 20  2  0
M  END
$$$$
