DGQ.pdb
     RDKit          3D

 22 21  0  0  1  0  0  0  0  0999 V2000
    8.0132  -16.5253   18.8248 N   0  0  0  0  0  0  0  0  0  0  0  0
    8.4654  -15.1531   18.9498 C   0  0  1  0  0  0  0  0  0  0  0  0
    7.7843  -14.3694   17.8351 C   0  0  0  0  0  0  0  0  0  0  0  0
    8.4511  -14.7293   16.5674 C   0  0  0  0  0  0  0  0  0  0  0  0
    8.2432  -14.1433   15.4784 O   0  0  0  0  0  0  0  0  0  0  0  0
    8.0083  -14.6229   20.2594 C   0  0  0  0  0  0  0  0  0  0  0  0
    8.2114  -13.4217   20.5669 O   0  0  0  0  0  0  0  0  0  0  0  0
    9.3619  -15.7784   16.5836 O   0  0  0  0  0  0  0  0  0  0  0  0
    7.3296  -15.4393   21.2111 N   0  0  0  0  0  0  0  0  0  0  0  0
    6.8800  -14.9766   22.4843 C   0  0  0  0  0  0  0  0  0  0  0  0
    7.9538  -15.0920   23.5326 C   0  0  0  0  0  0  0  0  0  0  0  0
    9.1000  -15.4943   23.2111 O   0  0  0  0  0  0  0  0  0  0  0  0
    5.4200  -13.1890   26.4268 N   0  0  0  0  0  0  0  0  0  0  0  0
    6.4691  -12.2958   26.7406 C   0  0  0  0  0  0  0  0  0  0  0  0
    6.1615  -11.0502   26.7875 O   0  0  0  0  0  0  0  0  0  0  0  0
    7.8562  -12.6422   27.0226 C   0  0  0  0  0  0  0  0  0  0  0  0
    8.2102  -14.0645   27.1324 C   0  0  0  0  0  0  0  0  0  0  0  0
    8.7465  -14.7574   25.9244 C   0  0  2  0  0  0  0  0  0  0  0  0
    7.6874  -14.7518   24.8813 N   0  0  0  0  0  0  0  0  0  0  0  0
    9.2484  -16.1032   26.1207 C   0  0  0  0  0  0  0  0  0  0  0  0
   10.4877  -16.4778   26.5949 O   0  0  0  0  0  0  0  0  0  0  0  0
    8.4671  -17.0762   25.8177 O   0  0  0  0  0  0  0  0  0  0  0  0
  2  1  1  1
  2  3  1  0
  3  4  1  0
  4  8  1  0
  5  4  2  0
  6  7  2  0
  6  2  1  0
  9  6  1  0
 10  9  1  0
 10 11  1  0
 11 12  2  0
 13 14  1  0
 14 16  1  0
 14 15  2  0
 16 17  1  0
 18 17  1  1
 18 20  1  0
 19 11  1  0
 19 18  1  0
 20 21  1  0
 22 20  2  0
M  END
$$$$
