QHP.pdb
     RDKit          3D

 27 28  0  0  1  0  0  0  0  0999 V2000
   15.4591  -14.3009   19.3287 N   0  0  0  0  0  0  0  0  0  0  0  0
   14.4083  -14.8471   18.4953 C   0  0  0  0  0  0  0  0  0  0  0  0
   14.5597  -14.7213   17.2693 O   0  0  0  0  0  0  0  0  0  0  0  0
   13.2401  -15.5023   19.0864 C   0  0  0  0  0  0  0  0  0  0  0  0
   13.2185  -15.5526   20.5537 C   0  0  0  0  0  0  0  0  0  0  0  0
   12.0389  -16.1172   21.2469 C   0  0  2  0  0  0  0  0  0  0  0  0
   11.2385  -16.8594   20.2183 N   0  0  0  0  0  0  0  0  0  0  0  0
   11.1091  -15.2223   21.9118 C   0  0  0  0  0  0  0  0  0  0  0  0
   11.4903  -14.2725   22.6436 O   0  0  0  0  0  0  0  0  0  0  0  0
    9.6908  -15.3799   21.7563 N   0  0  0  0  0  0  0  0  0  0  0  0
    8.7253  -14.5409   22.4682 C   0  0  1  0  0  0  0  0  0  0  0  0
    7.4314  -14.4928   21.6805 C   0  0  0  0  0  0  0  0  0  0  0  0
    7.6587  -14.1040   20.2441 C   0  0  0  0  0  0  0  0  0  0  0  0
    7.9695  -12.8123   19.8365 C   0  0  0  0  0  0  0  0  0  0  0  0
    8.0960  -12.8523   18.5118 N   0  0  0  0  0  0  0  0  0  0  0  0
    7.8772  -14.1087   18.0867 C   0  0  0  0  0  0  0  0  0  0  0  0
    7.6123  -14.8621   19.1463 N   0  0  0  0  0  0  0  0  0  0  0  0
    8.4487  -15.1852   23.7656 C   0  0  0  0  0  0  0  0  0  0  0  0
    9.0232  -16.2979   24.0396 O   0  0  0  0  0  0  0  0  0  0  0  0
    7.5857  -14.6480   24.7338 N   0  0  0  0  0  0  0  0  0  0  0  0
    6.6322  -13.5572   24.4486 C   0  0  0  0  0  0  0  0  0  0  0  0
    6.9308  -12.6061   25.5835 C   0  0  0  0  0  0  0  0  0  0  0  0
    7.2461  -13.5234   26.7279 C   0  0  0  0  0  0  0  0  0  0  0  0
    7.3748  -14.9163   26.1311 C   0  0  1  0  0  0  0  0  0  0  0  0
    6.0638  -15.6492   26.3155 C   0  0  0  0  0  0  0  0  0  0  0  0
    5.7758  -16.1439   27.4288 O   0  0  0  0  0  0  0  0  0  0  0  0
    5.1473  -15.8035   25.2897 O   0  0  0  0  0  0  0  0  0  0  0  0
  2  4  1  0
  2  1  1  0
  3  2  2  0
  5  4  1  0
  6  8  1  0
  6  5  1  0
  6  7  1  6
  8  9  2  0
 10 11  1  0
 10  8  1  0
 11 12  1  6
 12 13  1  0
 13 14  2  0
 13 17  1  0
 14 15  1  0
 15 16  1  0
 17 16  2  0
 18 20  1  0
 18 11  1  0
 19 18  2  0
 20 24  1  0
 21 22  1  0
 21 20  1  0
 22 23  1  0
 23 24  1  0
 24 25  1  6
 25 27  1  0
 26 25  2  0
M  END
$$$$
