QHP.pdb
     RDKit          3D

 27 28  0  0  1  0  0  0  0  0999 V2000
    8.4396  -12.0447   18.3763 N   0  0  0  0  0  0  0  0  0  0  0  0
    8.2662  -13.4393   18.0267 C   0  0  0  0  0  0  0  0  0  0  0  0
    8.4273  -13.7287   16.8300 O   0  0  0  0  0  0  0  0  0  0  0  0
    7.9163  -14.4340   19.0424 C   0  0  0  0  0  0  0  0  0  0  0  0
    9.0119  -15.3129   19.4702 C   0  0  0  0  0  0  0  0  0  0  0  0
    8.7612  -16.3392   20.5069 C   0  0  2  0  0  0  0  0  0  0  0  0
    7.9855  -17.4439   19.8529 N   0  0  0  0  0  0  0  0  0  0  0  0
    8.0182  -15.9776   21.7005 C   0  0  0  0  0  0  0  0  0  0  0  0
    6.9391  -15.3323   21.6561 O   0  0  0  0  0  0  0  0  0  0  0  0
    8.4859  -16.3516   23.0051 N   0  0  0  0  0  0  0  0  0  0  0  0
    7.7398  -16.0400   24.2254 C   0  0  1  0  0  0  0  0  0  0  0  0
    7.5342  -17.3129   25.0219 C   0  0  0  0  0  0  0  0  0  0  0  0
    6.7026  -18.3198   24.2730 C   0  0  0  0  0  0  0  0  0  0  0  0
    5.5278  -18.0012   23.6025 C   0  0  0  0  0  0  0  0  0  0  0  0
    5.0777  -19.1337   23.0664 N   0  0  0  0  0  0  0  0  0  0  0  0
    5.9215  -20.1331   23.3765 C   0  0  0  0  0  0  0  0  0  0  0  0
    6.9057  -19.6290   24.1098 N   0  0  0  0  0  0  0  0  0  0  0  0
    8.5685  -15.1238   25.0309 C   0  0  0  0  0  0  0  0  0  0  0  0
    9.7715  -14.8865   24.6574 O   0  0  0  0  0  0  0  0  0  0  0  0
    8.1155  -14.4845   26.1956 N   0  0  0  0  0  0  0  0  0  0  0  0
    6.7673  -14.6957   26.7598 C   0  0  0  0  0  0  0  0  0  0  0  0
    6.3096  -13.2701   26.9601 C   0  0  0  0  0  0  0  0  0  0  0  0
    7.5691  -12.5557   27.3523 C   0  0  0  0  0  0  0  0  0  0  0  0
    8.7068  -13.5319   27.0968 C   0  0  1  0  0  0  0  0  0  0  0  0
    9.0635  -14.2171   28.3981 C   0  0  0  0  0  0  0  0  0  0  0  0
    9.7344  -13.6078   29.2616 O   0  0  0  0  0  0  0  0  0  0  0  0
    8.6759  -15.5143   28.6861 O   0  0  0  0  0  0  0  0  0  0  0  0
  2  4  1  0
  2  1  1  0
  3  2  2  0
  5  4  1  0
  6  8  1  0
  6  5  1  0
  6  7  1  6
  8  9  2  0
 10 11  1  0
 10  8  1  0
 11 12  1  1
 12 13  1  0
 13 14  2  0
 13 17  1  0
 14 15  1  0
 15 16  1  0
 17 16  2  0
 18 20  1  0
 18 11  1  0
 19 18  2  0
 20 24  1  0
 21 22  1  0
 21 20  1  0
 22 23  1  0
 23 24  1  0
 24 25  1  1
 25 27  1  0
 26 25  2  0
M  END
$$$$
