QHP.pdb
     RDKit          3D

 27 28  0  0  1  0  0  0  0  0999 V2000
   12.4410  -20.1874   19.4201 N   0  0  0  0  0  0  0  0  0  0  0  0
   13.5702  -19.3568   19.0566 C   0  0  0  0  0  0  0  0  0  0  0  0
   14.5177  -19.3377   19.8589 O   0  0  0  0  0  0  0  0  0  0  0  0
   13.5712  -18.5877   17.8107 C   0  0  0  0  0  0  0  0  0  0  0  0
   12.3799  -18.7485   16.9677 C   0  0  0  0  0  0  0  0  0  0  0  0
   11.7972  -17.5656   16.2953 C   0  0  2  0  0  0  0  0  0  0  0  0
   12.8734  -16.9760   15.4329 N   0  0  0  0  0  0  0  0  0  0  0  0
   11.2818  -16.4725   17.0997 C   0  0  0  0  0  0  0  0  0  0  0  0
   11.9939  -15.4963   17.4503 O   0  0  0  0  0  0  0  0  0  0  0  0
    9.9132  -16.4532   17.5324 N   0  0  0  0  0  0  0  0  0  0  0  0
    9.3510  -15.3465   18.3081 C   0  0  1  0  0  0  0  0  0  0  0  0
    7.9154  -15.1171   17.8800 C   0  0  0  0  0  0  0  0  0  0  0  0
    7.8180  -14.6733   16.4448 C   0  0  0  0  0  0  0  0  0  0  0  0
    8.1551  -13.3974   16.0094 C   0  0  0  0  0  0  0  0  0  0  0  0
    7.9422  -13.3760   14.6954 N   0  0  0  0  0  0  0  0  0  0  0  0
    7.4899  -14.5797   14.3034 C   0  0  0  0  0  0  0  0  0  0  0  0
    7.4177  -15.3613   15.3731 N   0  0  0  0  0  0  0  0  0  0  0  0
    9.3472  -15.7543   19.7254 C   0  0  0  0  0  0  0  0  0  0  0  0
    9.9965  -16.8046   20.0694 O   0  0  0  0  0  0  0  0  0  0  0  0
    8.6701  -15.0534   20.7358 N   0  0  0  0  0  0  0  0  0  0  0  0
    7.7387  -13.9410   20.4610 C   0  0  0  0  0  0  0  0  0  0  0  0
    8.2538  -12.8886   21.4144 C   0  0  0  0  0  0  0  0  0  0  0  0
    8.6952  -13.6882   22.6045 C   0  0  0  0  0  0  0  0  0  0  0  0
    8.6626  -15.1456   22.1712 C   0  0  1  0  0  0  0  0  0  0  0  0
    7.3609  -15.7633   22.6339 C   0  0  0  0  0  0  0  0  0  0  0  0
    6.3991  -15.8626   21.8390 O   0  0  0  0  0  0  0  0  0  0  0  0
    7.1777  -16.2335   23.9228 O   0  0  0  0  0  0  0  0  0  0  0  0
  2  4  1  0
  2  1  1  0
  3  2  2  0
  5  4  1  0
  6  8  1  0
  6  5  1  0
  6  7  1  6
  8  9  2  0
 10 11  1  0
 10  8  1  0
 11 12  1  6
 12 13  1  0
 13 14  2  0
 13 17  1  0
 14 15  1  0
 15 16  1  0
 17 16  2  0
 18 20  1  0
 18 11  1  0
 19 18  2  0
 20 24  1  0
 21 22  1  0
 21 20  1  0
 22 23  1  0
 23 24  1  0
 24 25  1  6
 25 27  1  0
 26 25  2  0
M  END
$$$$
