QHP.pdb
     RDKit          3D

 27 28  0  0  1  0  0  0  0  0999 V2000
   15.7830  -15.2677   17.6767 N   0  0  0  0  0  0  0  0  0  0  0  0
   14.5505  -14.6157   18.0680 C   0  0  0  0  0  0  0  0  0  0  0  0
   14.4855  -13.3938   17.8568 O   0  0  0  0  0  0  0  0  0  0  0  0
   13.4575  -15.3732   18.6806 C   0  0  0  0  0  0  0  0  0  0  0  0
   13.4004  -15.3266   20.1470 C   0  0  0  0  0  0  0  0  0  0  0  0
   12.2822  -15.9895   20.8547 C   0  0  2  0  0  0  0  0  0  0  0  0
   11.3587  -16.5331   19.8053 N   0  0  0  0  0  0  0  0  0  0  0  0
   11.4524  -15.2129   21.7580 C   0  0  0  0  0  0  0  0  0  0  0  0
   11.9326  -14.3851   22.5748 O   0  0  0  0  0  0  0  0  0  0  0  0
   10.0237  -15.3527   21.7552 N   0  0  0  0  0  0  0  0  0  0  0  0
    9.1610  -14.6123   22.6774 C   0  0  1  0  0  0  0  0  0  0  0  0
    7.7538  -14.5690   22.1165 C   0  0  0  0  0  0  0  0  0  0  0  0
    7.7312  -14.1125   20.6822 C   0  0  0  0  0  0  0  0  0  0  0  0
    7.8926  -12.7881   20.2936 C   0  0  0  0  0  0  0  0  0  0  0  0
    7.8151  -12.7702   18.9646 N   0  0  0  0  0  0  0  0  0  0  0  0
    7.6136  -14.0223   18.5188 C   0  0  0  0  0  0  0  0  0  0  0  0
    7.5640  -14.8310   19.5695 N   0  0  0  0  0  0  0  0  0  0  0  0
    9.1252  -15.3592   23.9486 C   0  0  0  0  0  0  0  0  0  0  0  0
    9.5451  -16.5702   23.9674 O   0  0  0  0  0  0  0  0  0  0  0  0
    8.6562  -14.8190   25.1564 N   0  0  0  0  0  0  0  0  0  0  0  0
    7.6698  -13.7220   25.2206 C   0  0  0  0  0  0  0  0  0  0  0  0
    8.3504  -12.7752   26.1809 C   0  0  0  0  0  0  0  0  0  0  0  0
    9.0382  -13.6968   27.1442 C   0  0  0  0  0  0  0  0  0  0  0  0
    8.9426  -15.0891   26.5399 C   0  0  1  0  0  0  0  0  0  0  0  0
    7.7729  -15.8147   27.1686 C   0  0  0  0  0  0  0  0  0  0  0  0
    7.8931  -16.3274   28.3042 O   0  0  0  0  0  0  0  0  0  0  0  0
    6.5493  -15.9427   26.5344 O   0  0  0  0  0  0  0  0  0  0  0  0
  2  4  1  0
  2  1  1  0
  3  2  2  0
  5  4  1  0
  6  8  1  0
  6  5  1  0
  6  7  1  6
  8  9  2  0
 10 11  1  0
 10  8  1  0
 11 12  1  6
 12 13  1  0
 13 14  2  0
 13 17  1  0
 14 15  1  0
 15 16  1  0
 17 16  2  0
 18 20  1  0
 18 11  1  0
 19 18  2  0
 20 24  1  0
 21 22  1  0
 21 20  1  0
 22 23  1  0
 23 24  1  0
 24 25  1  1
 25 27  1  0
 26 25  2  0
M  END
$$$$
