QHP.pdb
     RDKit          3D

 27 28  0  0  1  0  0  0  0  0999 V2000
   13.9471  -15.8373   20.1618 N   0  0  0  0  0  0  0  0  0  0  0  0
   13.3006  -14.5991   19.7794 C   0  0  0  0  0  0  0  0  0  0  0  0
   14.0527  -13.6490   19.5079 O   0  0  0  0  0  0  0  0  0  0  0  0
   11.8412  -14.4945   19.7272 C   0  0  0  0  0  0  0  0  0  0  0  0
   11.1084  -15.7381   19.9957 C   0  0  0  0  0  0  0  0  0  0  0  0
    9.6284  -15.7234   20.0129 C   0  0  2  0  0  0  0  0  0  0  0  0
    9.1815  -15.0253   18.7629 N   0  0  0  0  0  0  0  0  0  0  0  0
    8.9365  -15.0692   21.1087 C   0  0  0  0  0  0  0  0  0  0  0  0
    8.4161  -13.9293   20.9958 O   0  0  0  0  0  0  0  0  0  0  0  0
    8.8077  -15.7067   22.3884 N   0  0  0  0  0  0  0  0  0  0  0  0
    8.2339  -15.0255   23.5502 C   0  0  1  0  0  0  0  0  0  0  0  0
    6.9100  -15.6733   23.9034 C   0  0  0  0  0  0  0  0  0  0  0  0
    6.9664  -17.1732   23.7878 C   0  0  0  0  0  0  0  0  0  0  0  0
    8.0741  -17.8675   23.3165 C   0  0  0  0  0  0  0  0  0  0  0  0
    7.7577  -19.1600   23.3578 N   0  0  0  0  0  0  0  0  0  0  0  0
    6.5070  -19.2919   23.8327 C   0  0  0  0  0  0  0  0  0  0  0  0
    6.0343  -18.0794   24.0912 N   0  0  0  0  0  0  0  0  0  0  0  0
    9.1579  -15.2237   24.6824 C   0  0  0  0  0  0  0  0  0  0  0  0
   10.2412  -15.8813   24.4899 O   0  0  0  0  0  0  0  0  0  0  0  0
    8.9236  -14.7284   25.9748 N   0  0  0  0  0  0  0  0  0  0  0  0
    7.6025  -14.2492   26.4282 C   0  0  0  0  0  0  0  0  0  0  0  0
    7.9685  -12.9122   27.0283 C   0  0  0  0  0  0  0  0  0  0  0  0
    9.3172  -13.1645   27.6349 C   0  0  0  0  0  0  0  0  0  0  0  0
    9.7626  -14.5264   27.1256 C   0  0  1  0  0  0  0  0  0  0  0  0
    9.4439  -15.5682   28.1759 C   0  0  0  0  0  0  0  0  0  0  0  0
    8.3870  -16.2340   28.0949 O   0  0  0  0  0  0  0  0  0  0  0  0
   10.2827  -15.8259   29.2464 O   0  0  0  0  0  0  0  0  0  0  0  0
  2  4  1  0
  2  1  1  0
  3  2  2  0
  5  4  1  0
  6  8  1  0
  6  5  1  0
  6  7  1  6
  8  9  2  0
 10 11  1  0
 10  8  1  0
 11 12  1  1
 12 13  1  0
 13 14  2  0
 13 17  1  0
 14 15  1  0
 15 16  1  0
 17 16  2  0
 18 20  1  0
 18 11  1  0
 19 18  2  0
 20 24  1  0
 21 22  1  0
 21 20  1  0
 22 23  1  0
 23 24  1  0
 24 25  1  1
 25 27  1  0
 26 25  2  0
M  END
$$$$
