QHP.pdb
     RDKit          3D

 27 28  0  0  1  0  0  0  0  0999 V2000
   11.0230  -20.9970   23.6456 N   0  0  0  0  0  0  0  0  0  0  0  0
   12.1548  -20.7707   22.7710 C   0  0  0  0  0  0  0  0  0  0  0  0
   12.8010  -21.7777   22.4387 O   0  0  0  0  0  0  0  0  0  0  0  0
   12.5023  -19.4218   22.3201 C   0  0  0  0  0  0  0  0  0  0  0  0
   11.6377  -18.3458   22.8206 C   0  0  0  0  0  0  0  0  0  0  0  0
   11.0772  -17.3589   21.8705 C   0  0  2  0  0  0  0  0  0  0  0  0
   12.1541  -17.0478   20.8739 N   0  0  0  0  0  0  0  0  0  0  0  0
   10.6082  -16.0787   22.3692 C   0  0  0  0  0  0  0  0  0  0  0  0
   11.3915  -15.1882   22.7892 O   0  0  0  0  0  0  0  0  0  0  0  0
    9.2079  -15.7644   22.3999 N   0  0  0  0  0  0  0  0  0  0  0  0
    8.6811  -14.5967   23.1082 C   0  0  1  0  0  0  0  0  0  0  0  0
    7.2842  -14.2963   22.6029 C   0  0  0  0  0  0  0  0  0  0  0  0
    7.2584  -14.0686   21.1150 C   0  0  0  0  0  0  0  0  0  0  0  0
    7.6302  -12.8724   20.5132 C   0  0  0  0  0  0  0  0  0  0  0  0
    7.4786  -13.0442   19.2017 N   0  0  0  0  0  0  0  0  0  0  0  0
    7.0309  -14.2904   18.9700 C   0  0  0  0  0  0  0  0  0  0  0  0
    6.9002  -14.9052   20.1385 N   0  0  0  0  0  0  0  0  0  0  0  0
    8.5859  -14.9495   24.5370 C   0  0  0  0  0  0  0  0  0  0  0  0
    9.1424  -16.0291   24.9467 O   0  0  0  0  0  0  0  0  0  0  0  0
    7.9171  -14.1653   25.4900 N   0  0  0  0  0  0  0  0  0  0  0  0
    6.8158  -13.2432   25.1471 C   0  0  0  0  0  0  0  0  0  0  0  0
    7.2666  -11.9807   25.8431 C   0  0  0  0  0  0  0  0  0  0  0  0
    7.9291  -12.4914   27.0884 C   0  0  0  0  0  0  0  0  0  0  0  0
    8.0611  -13.9961   26.9111 C   0  0  1  0  0  0  0  0  0  0  0  0
    6.9105  -14.6740   27.6227 C   0  0  0  0  0  0  0  0  0  0  0  0
    5.8453  -14.9066   27.0076 O   0  0  0  0  0  0  0  0  0  0  0  0
    6.9797  -15.0573   28.9510 O   0  0  0  0  0  0  0  0  0  0  0  0
  2  4  1  0
  2  1  1  0
  3  2  2  0
  5  4  1  0
  6  8  1  0
  6  5  1  0
  6  7  1  6
  8  9  2  0
 10 11  1  0
 10  8  1  0
 11 12  1  6
 12 13  1  0
 13 14  2  0
 13 17  1  0
 14 15  1  0
 15 16  1  0
 17 16  2  0
 18 20  1  0
 18 11  1  0
 19 18  2  0
 20 24  1  0
 21 22  1  0
 21 20  1  0
 22 23  1  0
 23 24  1  0
 24 25  1  1
 25 27  1  0
 26 25  2  0
M  END
$$$$
