QHP.pdb
     RDKit          3D

 27 28  0  0  1  0  0  0  0  0999 V2000
    8.0262  -14.0642   16.1903 N   0  0  0  0  0  0  0  0  0  0  0  0
    8.2268  -13.3571   17.4381 C   0  0  0  0  0  0  0  0  0  0  0  0
    9.0009  -12.3870   17.4002 O   0  0  0  0  0  0  0  0  0  0  0  0
    7.5485  -13.7823   18.6639 C   0  0  0  0  0  0  0  0  0  0  0  0
    7.9693  -15.0825   19.2008 C   0  0  0  0  0  0  0  0  0  0  0  0
    8.8294  -15.1307   20.4044 C   0  0  2  0  0  0  0  0  0  0  0  0
    9.5095  -16.4676   20.4050 N   0  0  0  0  0  0  0  0  0  0  0  0
    8.2252  -14.9859   21.7164 C   0  0  0  0  0  0  0  0  0  0  0  0
    7.7200  -13.9040   22.1129 O   0  0  0  0  0  0  0  0  0  0  0  0
    8.1706  -16.0901   22.6321 N   0  0  0  0  0  0  0  0  0  0  0  0
    7.6046  -15.9674   23.9765 C   0  0  1  0  0  0  0  0  0  0  0  0
    7.3605  -17.3521   24.5422 C   0  0  0  0  0  0  0  0  0  0  0  0
    6.3663  -18.1301   23.7221 C   0  0  0  0  0  0  0  0  0  0  0  0
    5.2551  -17.5583   23.1143 C   0  0  0  0  0  0  0  0  0  0  0  0
    4.6180  -18.5432   22.4846 N   0  0  0  0  0  0  0  0  0  0  0  0
    5.2863  -19.6936   22.6775 C   0  0  0  0  0  0  0  0  0  0  0  0
    6.3471  -19.4327   23.4305 N   0  0  0  0  0  0  0  0  0  0  0  0
    8.6098  -15.2972   24.8222 C   0  0  0  0  0  0  0  0  0  0  0  0
    9.8387  -15.3181   24.4581 O   0  0  0  0  0  0  0  0  0  0  0  0
    8.3009  -14.6265   26.0161 N   0  0  0  0  0  0  0  0  0  0  0  0
    6.9376  -14.5705   26.5807 C   0  0  0  0  0  0  0  0  0  0  0  0
    6.7928  -13.0902   26.8440 C   0  0  0  0  0  0  0  0  0  0  0  0
    8.1746  -12.6767   27.2567 C   0  0  0  0  0  0  0  0  0  0  0  0
    9.0794  -13.8604   26.9521 C   0  0  1  0  0  0  0  0  0  0  0  0
    9.2801  -14.6604   28.2208 C   0  0  0  0  0  0  0  0  0  0  0  0
    8.5808  -15.6761   28.4361 O   0  0  0  0  0  0  0  0  0  0  0  0
   10.2198  -14.3154   29.1767 O   0  0  0  0  0  0  0  0  0  0  0  0
  2  4  1  0
  2  1  1  0
  3  2  2  0
  5  4  1  0
  6  8  1  0
  6  5  1  0
  6  7  1  1
  8  9  2  0
 10 11  1  0
 10  8  1  0
 11 12  1  1
 12 13  1  0
 13 14  2  0
 13 17  1  0
 14 15  1  0
 15 16  1  0
 17 16  2  0
 18 20  1  0
 18 11  1  0
 19 18  2  0
 20 24  1  0
 21 22  1  0
 21 20  1  0
 22 23  1  0
 23 24  1  0
 24 25  1  1
 25 27  1  0
 26 25  2  0
M  END
$$$$
