QHP.pdb
     RDKit          3D

 27 28  0  0  1  0  0  0  0  0999 V2000
   14.5738  -17.7727   19.6722 N   0  0  0  0  0  0  0  0  0  0  0  0
   13.3344  -17.2086   19.1795 C   0  0  0  0  0  0  0  0  0  0  0  0
   13.3815  -16.6765   18.0585 O   0  0  0  0  0  0  0  0  0  0  0  0
   12.1080  -17.2694   19.9769 C   0  0  0  0  0  0  0  0  0  0  0  0
   12.2368  -17.9220   21.2858 C   0  0  0  0  0  0  0  0  0  0  0  0
   11.1079  -17.8687   22.2416 C   0  0  2  0  0  0  0  0  0  0  0  0
    9.9320  -18.5124   21.5688 N   0  0  0  0  0  0  0  0  0  0  0  0
   10.6419  -16.5800   22.7205 C   0  0  0  0  0  0  0  0  0  0  0  0
   11.4162  -15.7241   23.2214 O   0  0  0  0  0  0  0  0  0  0  0  0
    9.2557  -16.2165   22.6369 N   0  0  0  0  0  0  0  0  0  0  0  0
    8.7276  -14.9922   23.2412 C   0  0  1  0  0  0  0  0  0  0  0  0
    7.3445  -14.7190   22.6851 C   0  0  0  0  0  0  0  0  0  0  0  0
    7.3867  -14.3316   21.2310 C   0  0  0  0  0  0  0  0  0  0  0  0
    6.7495  -15.0481   20.2251 C   0  0  0  0  0  0  0  0  0  0  0  0
    7.0073  -14.4120   19.0843 N   0  0  0  0  0  0  0  0  0  0  0  0
    7.7734  -13.3381   19.3428 C   0  0  0  0  0  0  0  0  0  0  0  0
    7.9987  -13.2975   20.6497 N   0  0  0  0  0  0  0  0  0  0  0  0
    8.6000  -15.2317   24.6908 C   0  0  0  0  0  0  0  0  0  0  0  0
    9.1316  -16.2841   25.1939 O   0  0  0  0  0  0  0  0  0  0  0  0
    7.9257  -14.3665   25.5668 N   0  0  0  0  0  0  0  0  0  0  0  0
    6.8857  -13.4174   25.1219 C   0  0  0  0  0  0  0  0  0  0  0  0
    7.3627  -12.1389   25.7698 C   0  0  0  0  0  0  0  0  0  0  0  0
    7.9430  -12.6079   27.0714 C   0  0  0  0  0  0  0  0  0  0  0  0
    8.0124  -14.1244   26.9821 C   0  0  1  0  0  0  0  0  0  0  0  0
    6.7999  -14.7099   27.6729 C   0  0  0  0  0  0  0  0  0  0  0  0
    5.7725  -14.9788   27.0103 O   0  0  0  0  0  0  0  0  0  0  0  0
    6.7707  -14.9674   29.0325 O   0  0  0  0  0  0  0  0  0  0  0  0
  2  4  1  0
  2  1  1  0
  3  2  2  0
  5  4  1  0
  6  8  1  0
  6  5  1  0
  6  7  1  6
  8  9  2  0
 10 11  1  0
 10  8  1  0
 11 12  1  6
 12 13  1  0
 13 14  2  0
 13 17  1  0
 14 15  1  0
 15 16  1  0
 17 16  2  0
 18 20  1  0
 18 11  1  0
 19 18  2  0
 20 24  1  0
 21 22  1  0
 21 20  1  0
 22 23  1  0
 23 24  1  0
 24 25  1  1
 25 27  1  0
 26 25  2  0
M  END
$$$$
