QHP.pdb
     RDKit          3D

 27 28  0  0  1  0  0  0  0  0999 V2000
   10.7927  -19.0418   13.0162 N   0  0  0  0  0  0  0  0  0  0  0  0
   11.1880  -17.6753   12.7452 C   0  0  0  0  0  0  0  0  0  0  0  0
   11.2547  -17.3508   11.5485 O   0  0  0  0  0  0  0  0  0  0  0  0
   11.4916  -16.7471   13.8360 C   0  0  0  0  0  0  0  0  0  0  0  0
   11.3246  -17.2877   15.1909 C   0  0  0  0  0  0  0  0  0  0  0  0
   11.6223  -16.4303   16.3601 C   0  0  2  0  0  0  0  0  0  0  0  0
   12.9144  -15.7258   16.0706 N   0  0  0  0  0  0  0  0  0  0  0  0
   11.7809  -17.0409   17.6676 C   0  0  0  0  0  0  0  0  0  0  0  0
   10.8182  -17.5497   18.2979 O   0  0  0  0  0  0  0  0  0  0  0  0
   13.0648  -17.0978   18.3070 N   0  0  0  0  0  0  0  0  0  0  0  0
   13.2898  -17.8354   19.5513 C   0  0  1  0  0  0  0  0  0  0  0  0
   14.6913  -18.4121   19.5417 C   0  0  0  0  0  0  0  0  0  0  0  0
   14.9842  -19.2056   20.7871 C   0  0  0  0  0  0  0  0  0  0  0  0
   14.2803  -20.3454   21.1564 C   0  0  0  0  0  0  0  0  0  0  0  0
   14.8159  -20.7686   22.2995 N   0  0  0  0  0  0  0  0  0  0  0  0
   15.8161  -19.9415   22.6494 C   0  0  0  0  0  0  0  0  0  0  0  0
   15.9109  -18.9949   21.7245 N   0  0  0  0  0  0  0  0  0  0  0  0
   13.1988  -16.8700   20.6625 C   0  0  0  0  0  0  0  0  0  0  0  0
   13.7995  -15.7429   20.5545 O   0  0  0  0  0  0  0  0  0  0  0  0
   12.4836  -17.1103   21.8463 N   0  0  0  0  0  0  0  0  0  0  0  0
   11.7560  -18.3682   22.1083 C   0  0  0  0  0  0  0  0  0  0  0  0
   10.4097  -17.8398   22.5444 C   0  0  0  0  0  0  0  0  0  0  0  0
   10.7577  -16.5902   23.2980 C   0  0  0  0  0  0  0  0  0  0  0  0
   12.2311  -16.3288   23.0272 C   0  0  1  0  0  0  0  0  0  0  0  0
   13.0437  -16.8748   24.1812 C   0  0  0  0  0  0  0  0  0  0  0  0
   13.3303  -16.1345   25.1490 O   0  0  0  0  0  0  0  0  0  0  0  0
   13.4964  -18.1823   24.2189 O   0  0  0  0  0  0  0  0  0  0  0  0
  2  4  1  0
  2  1  1  0
  3  2  2  0
  5  4  1  0
  6  8  1  0
  6  5  1  0
  6  7  1  6
  8  9  2  0
 10 11  1  0
 10  8  1  0
 11 12  1  6
 12 13  1  0
 13 14  2  0
 13 17  1  0
 14 15  1  0
 15 16  1  0
 17 16  2  0
 18 20  1  0
 18 11  1  0
 19 18  2  0
 20 24  1  0
 21 22  1  0
 21 20  1  0
 22 23  1  0
 23 24  1  0
 24 25  1  1
 25 27  1  0
 26 25  2  0
M  END
$$$$
