QHP.pdb
     RDKit          3D

 27 28  0  0  1  0  0  0  0  0999 V2000
   11.7761  -20.6144   24.4332 N   0  0  0  0  0  0  0  0  0  0  0  0
   12.1631  -19.3690   25.0630 C   0  0  0  0  0  0  0  0  0  0  0  0
   12.4555  -19.4317   26.2681 O   0  0  0  0  0  0  0  0  0  0  0  0
   12.1961  -18.1177   24.3036 C   0  0  0  0  0  0  0  0  0  0  0  0
   11.7850  -18.2204   22.8978 C   0  0  0  0  0  0  0  0  0  0  0  0
   11.6256  -16.9887   22.0927 C   0  0  2  0  0  0  0  0  0  0  0  0
   13.0036  -16.4729   21.8014 N   0  0  0  0  0  0  0  0  0  0  0  0
   10.8851  -15.8689   22.6451 C   0  0  0  0  0  0  0  0  0  0  0  0
   11.4417  -14.9391   23.2844 O   0  0  0  0  0  0  0  0  0  0  0  0
    9.4629  -15.7677   22.4785 N   0  0  0  0  0  0  0  0  0  0  0  0
    8.6715  -14.7128   23.1138 C   0  0  1  0  0  0  0  0  0  0  0  0
    7.3069  -14.6503   22.4573 C   0  0  0  0  0  0  0  0  0  0  0  0
    7.3925  -14.2256   21.0156 C   0  0  0  0  0  0  0  0  0  0  0  0
    8.5744  -13.8357   20.3972 C   0  0  0  0  0  0  0  0  0  0  0  0
    8.2628  -13.5349   19.1383 N   0  0  0  0  0  0  0  0  0  0  0  0
    6.9443  -13.7218   18.9547 C   0  0  0  0  0  0  0  0  0  0  0  0
    6.4240  -14.1415   20.1008 N   0  0  0  0  0  0  0  0  0  0  0  0
    8.4835  -15.0887   24.5274 C   0  0  0  0  0  0  0  0  0  0  0  0
    9.0731  -16.1359   24.9735 O   0  0  0  0  0  0  0  0  0  0  0  0
    7.6905  -14.3605   25.4282 N   0  0  0  0  0  0  0  0  0  0  0  0
    6.6999  -13.3530   24.9992 C   0  0  0  0  0  0  0  0  0  0  0  0
    7.0710  -12.1858   25.8832 C   0  0  0  0  0  0  0  0  0  0  0  0
    7.4900  -12.8436   27.1647 C   0  0  0  0  0  0  0  0  0  0  0  0
    7.5941  -14.3305   26.8631 C   0  0  1  0  0  0  0  0  0  0  0  0
    6.3137  -15.0081   27.3006 C   0  0  0  0  0  0  0  0  0  0  0  0
    5.3603  -15.1206   26.4973 O   0  0  0  0  0  0  0  0  0  0  0  0
    6.1413  -15.5202   28.5749 O   0  0  0  0  0  0  0  0  0  0  0  0
  2  4  1  0
  2  1  1  0
  3  2  2  0
  5  4  1  0
  6  8  1  0
  6  5  1  0
  6  7  1  1
  8  9  2  0
 10 11  1  0
 10  8  1  0
 11 12  1  6
 12 13  1  0
 13 14  2  0
 13 17  1  0
 14 15  1  0
 15 16  1  0
 17 16  2  0
 18 20  1  0
 18 11  1  0
 19 18  2  0
 20 24  1  0
 21 22  1  0
 21 20  1  0
 22 23  1  0
 23 24  1  0
 24 25  1  6
 25 27  1  0
 26 25  2  0
M  END
$$$$
