WMY.pdb
     RDKit          3D

 35 37  0  0  1  0  0  0  0  0999 V2000
    6.4006  -18.4144   25.1280 N   0  0  0  0  0  0  0  0  0  0  0  0
    6.7006  -17.0660   24.7056 C   0  0  1  0  0  0  0  0  0  0  0  0
    7.5582  -16.3900   25.7537 C   0  0  0  0  0  0  0  0  0  0  0  0
    6.8996  -15.2440   26.4149 C   0  0  0  0  0  0  0  0  0  0  0  0
    5.7673  -15.3625   27.2322 C   0  0  0  0  0  0  0  0  0  0  0  0
    5.4437  -14.1465   27.6965 N   0  0  0  0  0  0  0  0  0  0  0  0
    6.3019  -13.2090   27.2327 C   0  0  0  0  0  0  0  0  0  0  0  0
    6.3788  -11.8475   27.4191 C   0  0  0  0  0  0  0  0  0  0  0  0
    7.3975  -11.1845   26.7763 C   0  0  0  0  0  0  0  0  0  0  0  0
    8.3146  -11.8180   25.9768 C   0  0  0  0  0  0  0  0  0  0  0  0
    8.2003  -13.1938   25.8162 C   0  0  0  0  0  0  0  0  0  0  0  0
    7.2142  -13.9073   26.4269 C   0  0  0  0  0  0  0  0  0  0  0  0
    7.5347  -17.1487   23.4780 C   0  0  0  0  0  0  0  0  0  0  0  0
    8.5436  -17.8726   23.4700 O   0  0  0  0  0  0  0  0  0  0  0  0
    9.5436  -12.5087   17.4741 C   0  0  0  0  0  0  0  0  0  0  0  0
    8.2721  -12.9577   18.7084 S   0  0  0  0  0  0  0  0  0  0  0  0
    8.8398  -14.4358   19.6272 C   0  0  0  0  0  0  0  0  0  0  0  0
    7.7227  -14.7666   20.6215 C   0  0  0  0  0  0  0  0  0  0  0  0
    8.2427  -15.9679   21.4243 C   0  0  2  0  0  0  0  0  0  0  0  0
    7.1923  -16.4038   22.2961 N   0  0  0  0  0  0  0  0  0  0  0  0
    9.4535  -15.6099   22.1850 C   0  0  0  0  0  0  0  0  0  0  0  0
    9.3166  -14.9033   23.2427 O   0  0  0  0  0  0  0  0  0  0  0  0
   10.2599  -13.7182   28.5482 O   0  0  0  0  0  0  0  0  0  0  0  0
   10.5129  -14.4780   27.4186 C   0  0  0  0  0  0  0  0  0  0  0  0
   10.5024  -13.9171   26.1507 C   0  0  0  0  0  0  0  0  0  0  0  0
   10.7525  -14.6632   25.0228 C   0  0  0  0  0  0  0  0  0  0  0  0
   11.0189  -16.0081   25.1849 C   0  0  0  0  0  0  0  0  0  0  0  0
   11.2739  -16.9106   24.0418 C   0  0  0  0  0  0  0  0  0  0  0  0
   11.7724  -16.1370   22.8735 C   0  0  2  0  0  0  0  0  0  0  0  0
   10.7662  -15.9873   21.8385 N   0  0  0  0  0  0  0  0  0  0  0  0
   13.0290  -16.6597   22.3094 C   0  0  0  0  0  0  0  0  0  0  0  0
   14.0644  -16.8083   22.9829 O   0  0  0  0  0  0  0  0  0  0  0  0
   11.0263  -16.5568   26.4578 C   0  0  0  0  0  0  0  0  0  0  0  0
   10.7762  -15.8091   27.5833 C   0  0  0  0  0  0  0  0  0  0  0  0
   13.0610  -17.0020   20.9667 O   0  0  0  0  0  0  0  0  0  0  0  0
  2  1  1  1
  2  3  1  0
  4  3  1  0
  5  4  2  0
  6  5  1  0
  7  6  1  0
  7 12  2  0
  8  9  2  0
  8  7  1  0
  9 10  1  0
 10 11  2  0
 12 11  1  0
 12  4  1  0
 13 14  2  0
 13  2  1  0
 15 16  1  0
 16 17  1  0
 17 18  1  0
 19 18  1  1
 19 20  1  0
 20 13  1  0
 21 19  1  0
 22 21  2  0
 23 24  1  0
 24 34  2  0
 25 24  1  0
 25 26  2  0
 26 27  1  0
 27 33  2  0
 27 28  1  0
 29 28  1  1
 29 30  1  0
 30 21  1  0
 31 29  1  0
 32 31  2  0
 34 33  1  0
 35 31  1  0
M  END
$$$$
