WMY.pdb
     RDKit          3D

 35 37  0  0  1  0  0  0  0  0999 V2000
    6.5195  -17.8456   24.3365 N   0  0  0  0  0  0  0  0  0  0  0  0
    7.1998  -16.6727   23.8383 C   0  0  1  0  0  0  0  0  0  0  0  0
    7.8669  -15.9515   24.9898 C   0  0  0  0  0  0  0  0  0  0  0  0
    6.9718  -15.0225   25.7107 C   0  0  0  0  0  0  0  0  0  0  0  0
    5.7696  -15.4125   26.3162 C   0  0  0  0  0  0  0  0  0  0  0  0
    5.2193  -14.3416   26.9072 N   0  0  0  0  0  0  0  0  0  0  0  0
    5.9905  -13.2440   26.7309 C   0  0  0  0  0  0  0  0  0  0  0  0
    5.8492  -11.9357   27.1347 C   0  0  0  0  0  0  0  0  0  0  0  0
    6.8402  -11.0567   26.7661 C   0  0  0  0  0  0  0  0  0  0  0  0
    7.9350  -11.4304   26.0289 C   0  0  0  0  0  0  0  0  0  0  0  0
    8.0381  -12.7615   25.6424 C   0  0  0  0  0  0  0  0  0  0  0  0
    7.0905  -13.6805   25.9769 C   0  0  0  0  0  0  0  0  0  0  0  0
    8.2960  -17.1282   22.9437 C   0  0  0  0  0  0  0  0  0  0  0  0
    8.5191  -18.3431   22.8170 O   0  0  0  0  0  0  0  0  0  0  0  0
    7.4006  -12.0588   19.6560 C   0  0  0  0  0  0  0  0  0  0  0  0
    8.1804  -13.5960   19.0469 S   0  0  0  0  0  0  0  0  0  0  0  0
    8.7259  -14.5888   20.4849 C   0  0  0  0  0  0  0  0  0  0  0  0
    9.5809  -15.7231   19.9117 C   0  0  0  0  0  0  0  0  0  0  0  0
    9.8753  -16.6455   21.1036 C   0  0  2  0  0  0  0  0  0  0  0  0
    9.1041  -16.1839   22.2196 N   0  0  0  0  0  0  0  0  0  0  0  0
   11.3153  -16.6577   21.4184 C   0  0  0  0  0  0  0  0  0  0  0  0
   12.0306  -17.6055   20.9422 O   0  0  0  0  0  0  0  0  0  0  0  0
   11.1828  -15.9510   29.8654 O   0  0  0  0  0  0  0  0  0  0  0  0
   11.0516  -15.8495   28.4908 C   0  0  0  0  0  0  0  0  0  0  0  0
   10.4894  -14.7296   27.8972 C   0  0  0  0  0  0  0  0  0  0  0  0
   10.3549  -14.6193   26.5329 C   0  0  0  0  0  0  0  0  0  0  0  0
   10.8005  -15.6684   25.7538 C   0  0  0  0  0  0  0  0  0  0  0  0
   10.6806  -15.6698   24.2802 C   0  0  0  0  0  0  0  0  0  0  0  0
   12.0163  -15.8548   23.6529 C   0  0  2  0  0  0  0  0  0  0  0  0
   11.9771  -15.6985   22.2106 N   0  0  0  0  0  0  0  0  0  0  0  0
   12.6752  -17.1192   24.0241 C   0  0  0  0  0  0  0  0  0  0  0  0
   13.0031  -17.9829   23.1908 O   0  0  0  0  0  0  0  0  0  0  0  0
   11.3606  -16.7823   26.3594 C   0  0  0  0  0  0  0  0  0  0  0  0
   11.4940  -16.8901   27.7228 C   0  0  0  0  0  0  0  0  0  0  0  0
   12.9426  -17.3593   25.3627 O   0  0  0  0  0  0  0  0  0  0  0  0
  2  1  1  1
  2  3  1  0
  4  3  1  0
  5  4  2  0
  6  5  1  0
  7  6  1  0
  7 12  2  0
  8  9  2  0
  8  7  1  0
  9 10  1  0
 10 11  2  0
 12 11  1  0
 12  4  1  0
 13 14  2  0
 13  2  1  0
 15 16  1  0
 16 17  1  0
 17 18  1  0
 19 18  1  6
 19 20  1  0
 20 13  1  0
 21 19  1  0
 22 21  2  0
 23 24  1  0
 24 34  2  0
 25 24  1  0
 25 26  2  0
 26 27  1  0
 27 33  2  0
 27 28  1  0
 29 28  1  6
 29 30  1  0
 30 21  1  0
 31 29  1  0
 32 31  2  0
 34 33  1  0
 35 31  1  0
M  END
$$$$
