WMY.pdb
     RDKit          3D

 35 37  0  0  1  0  0  0  0  0999 V2000
    6.6324  -18.9301   23.8517 N   0  0  0  0  0  0  0  0  0  0  0  0
    6.8958  -17.5142   23.7394 C   0  0  1  0  0  0  0  0  0  0  0  0
    7.3591  -16.9815   25.0783 C   0  0  0  0  0  0  0  0  0  0  0  0
    6.4911  -15.9208   25.6311 C   0  0  0  0  0  0  0  0  0  0  0  0
    5.3368  -16.1737   26.3845 C   0  0  0  0  0  0  0  0  0  0  0  0
    4.8018  -15.0015   26.7571 N   0  0  0  0  0  0  0  0  0  0  0  0
    5.5378  -13.9659   26.2919 C   0  0  0  0  0  0  0  0  0  0  0  0
    5.3947  -12.6015   26.4032 C   0  0  0  0  0  0  0  0  0  0  0  0
    6.3426  -11.8205   25.7851 C   0  0  0  0  0  0  0  0  0  0  0  0
    7.3974  -12.3422   25.0802 C   0  0  0  0  0  0  0  0  0  0  0  0
    7.5040  -13.7252   24.9933 C   0  0  0  0  0  0  0  0  0  0  0  0
    6.5981  -14.5525   25.5842 C   0  0  0  0  0  0  0  0  0  0  0  0
    8.0381  -17.3367   22.8050 C   0  0  0  0  0  0  0  0  0  0  0  0
    8.8150  -18.2833   22.5998 O   0  0  0  0  0  0  0  0  0  0  0  0
    8.6489  -11.8904   19.6465 C   0  0  0  0  0  0  0  0  0  0  0  0
    7.4671  -13.1091   18.9681 S   0  0  0  0  0  0  0  0  0  0  0  0
    7.6984  -14.7018   19.8405 C   0  0  0  0  0  0  0  0  0  0  0  0
    9.1266  -14.6740   20.3932 C   0  0  0  0  0  0  0  0  0  0  0  0
    9.2928  -16.0038   21.1429 C   0  0  2  0  0  0  0  0  0  0  0  0
    8.2590  -16.0848   22.1320 N   0  0  0  0  0  0  0  0  0  0  0  0
   10.6288  -16.0993   21.7583 C   0  0  0  0  0  0  0  0  0  0  0  0
   11.4819  -15.1823   21.4976 O   0  0  0  0  0  0  0  0  0  0  0  0
   11.6949  -15.4441   30.1619 O   0  0  0  0  0  0  0  0  0  0  0  0
   11.4362  -15.5860   28.8091 C   0  0  0  0  0  0  0  0  0  0  0  0
   12.2827  -16.3072   27.9811 C   0  0  0  0  0  0  0  0  0  0  0  0
   12.0343  -16.4539   26.6363 C   0  0  0  0  0  0  0  0  0  0  0  0
   10.9021  -15.8556   26.1204 C   0  0  0  0  0  0  0  0  0  0  0  0
   10.5514  -15.9240   24.6858 C   0  0  0  0  0  0  0  0  0  0  0  0
   11.5009  -16.8117   23.9631 C   0  0  2  0  0  0  0  0  0  0  0  0
   11.0487  -17.1309   22.6215 N   0  0  0  0  0  0  0  0  0  0  0  0
   11.8467  -18.0374   24.7038 C   0  0  0  0  0  0  0  0  0  0  0  0
   12.7152  -18.0693   25.5940 O   0  0  0  0  0  0  0  0  0  0  0  0
   10.0639  -15.1372   26.9588 C   0  0  0  0  0  0  0  0  0  0  0  0
   10.3143  -14.9921   28.3021 C   0  0  0  0  0  0  0  0  0  0  0  0
   11.1748  -19.2099   24.3958 O   0  0  0  0  0  0  0  0  0  0  0  0
  2  1  1  1
  2  3  1  0
  4  3  1  0
  5  4  2  0
  6  5  1  0
  7  6  1  0
  7 12  2  0
  8  9  2  0
  8  7  1  0
  9 10  1  0
 10 11  2  0
 12 11  1  0
 12  4  1  0
 13 14  2  0
 13  2  1  0
 15 16  1  0
 16 17  1  0
 17 18  1  0
 19 18  1  1
 19 20  1  0
 20 13  1  0
 21 19  1  0
 22 21  2  0
 23 24  1  0
 24 34  2  0
 25 24  1  0
 25 26  2  0
 26 27  1  0
 27 33  2  0
 27 28  1  0
 29 28  1  1
 29 30  1  0
 30 21  1  0
 31 29  1  0
 32 31  2  0
 34 33  1  0
 35 31  1  0
M  END
$$$$
