WMY.pdb
     RDKit          3D

 35 37  0  0  1  0  0  0  0  0999 V2000
    8.7767  -17.2529   24.2233 N   0  0  0  0  0  0  0  0  0  0  0  0
    7.5526  -17.7743   23.6610 C   0  0  1  0  0  0  0  0  0  0  0  0
    6.4263  -16.7953   23.9140 C   0  0  0  0  0  0  0  0  0  0  0  0
    6.5825  -16.0151   25.1593 C   0  0  0  0  0  0  0  0  0  0  0  0
    6.4017  -16.5513   26.4415 C   0  0  0  0  0  0  0  0  0  0  0  0
    6.6478  -15.5925   27.3465 N   0  0  0  0  0  0  0  0  0  0  0  0
    6.9863  -14.4317   26.7395 C   0  0  0  0  0  0  0  0  0  0  0  0
    7.3153  -13.1888   27.2308 C   0  0  0  0  0  0  0  0  0  0  0  0
    7.6031  -12.2084   26.3107 C   0  0  0  0  0  0  0  0  0  0  0  0
    7.5737  -12.4224   24.9561 C   0  0  0  0  0  0  0  0  0  0  0  0
    7.2368  -13.6924   24.5032 C   0  0  0  0  0  0  0  0  0  0  0  0
    6.9423  -14.7057   25.3639 C   0  0  0  0  0  0  0  0  0  0  0  0
    7.7213  -17.8397   22.1856 C   0  0  0  0  0  0  0  0  0  0  0  0
    6.7232  -17.9781   21.4600 O   0  0  0  0  0  0  0  0  0  0  0  0
    8.3988  -11.6774   19.5636 C   0  0  0  0  0  0  0  0  0  0  0  0
    7.8345  -13.3366   20.0837 S   0  0  0  0  0  0  0  0  0  0  0  0
    9.0997  -14.0701   21.1848 C   0  0  0  0  0  0  0  0  0  0  0  0
    8.5137  -15.3994   21.6703 C   0  0  0  0  0  0  0  0  0  0  0  0
    9.5962  -16.4474   21.3737 C   0  0  2  0  0  0  0  0  0  0  0  0
    9.0235  -17.7443   21.5823 N   0  0  0  0  0  0  0  0  0  0  0  0
   10.7784  -16.2420   22.2300 C   0  0  0  0  0  0  0  0  0  0  0  0
   11.7178  -15.4909   21.7942 O   0  0  0  0  0  0  0  0  0  0  0  0
    9.4132  -15.4189   29.9401 O   0  0  0  0  0  0  0  0  0  0  0  0
   10.0570  -15.3794   28.7148 C   0  0  0  0  0  0  0  0  0  0  0  0
   10.9549  -16.3655   28.3358 C   0  0  0  0  0  0  0  0  0  0  0  0
   11.5991  -16.3352   27.1210 C   0  0  0  0  0  0  0  0  0  0  0  0
   11.3263  -15.2811   26.2722 C   0  0  0  0  0  0  0  0  0  0  0  0
   11.9813  -15.1322   24.9551 C   0  0  0  0  0  0  0  0  0  0  0  0
   12.1250  -16.4577   24.2963 C   0  0  2  0  0  0  0  0  0  0  0  0
   10.9606  -16.8122   23.5057 N   0  0  0  0  0  0  0  0  0  0  0  0
   12.4773  -17.5458   25.2249 C   0  0  0  0  0  0  0  0  0  0  0  0
   11.8117  -18.5920   25.3273 O   0  0  0  0  0  0  0  0  0  0  0  0
   10.4267  -14.3016   26.6630 C   0  0  0  0  0  0  0  0  0  0  0  0
    9.7842  -14.3342   27.8772 C   0  0  0  0  0  0  0  0  0  0  0  0
   13.6016  -17.3990   26.0221 O   0  0  0  0  0  0  0  0  0  0  0  0
  2  1  1  1
  2  3  1  0
  4  3  1  0
  5  4  2  0
  6  5  1  0
  7  6  1  0
  7 12  2  0
  8  9  2  0
  8  7  1  0
  9 10  1  0
 10 11  2  0
 12 11  1  0
 12  4  1  0
 13 14  2  0
 13  2  1  0
 15 16  1  0
 16 17  1  0
 17 18  1  0
 19 18  1  1
 19 20  1  0
 20 13  1  0
 21 19  1  0
 22 21  2  0
 23 24  1  0
 24 34  2  0
 25 24  1  0
 25 26  2  0
 26 27  1  0
 27 33  2  0
 27 28  1  0
 29 28  1  1
 29 30  1  0
 30 21  1  0
 31 29  1  0
 32 31  2  0
 34 33  1  0
 35 31  1  0
M  END
$$$$
