WMY.pdb
     RDKit          3D

 35 37  0  0  1  0  0  0  0  0999 V2000
    6.2063  -17.5389   23.9862 N   0  0  0  0  0  0  0  0  0  0  0  0
    7.2571  -16.6630   23.5225 C   0  0  1  0  0  0  0  0  0  0  0  0
    8.0637  -16.1749   24.7067 C   0  0  0  0  0  0  0  0  0  0  0  0
    7.3004  -15.3144   25.6344 C   0  0  0  0  0  0  0  0  0  0  0  0
    6.2406  -15.7736   26.4283 C   0  0  0  0  0  0  0  0  0  0  0  0
    5.7887  -14.7538   27.1731 N   0  0  0  0  0  0  0  0  0  0  0  0
    6.4909  -13.6249   26.9219 C   0  0  0  0  0  0  0  0  0  0  0  0
    6.4011  -12.3454   27.4212 C   0  0  0  0  0  0  0  0  0  0  0  0
    7.2876  -11.4175   26.9277 C   0  0  0  0  0  0  0  0  0  0  0  0
    8.2328  -11.7167   25.9796 C   0  0  0  0  0  0  0  0  0  0  0  0
    8.2888  -13.0211   25.5030 C   0  0  0  0  0  0  0  0  0  0  0  0
    7.4394  -13.9857   25.9526 C   0  0  0  0  0  0  0  0  0  0  0  0
    8.1883  -17.4699   22.6911 C   0  0  0  0  0  0  0  0  0  0  0  0
    7.7358  -18.3562   21.9484 O   0  0  0  0  0  0  0  0  0  0  0  0
    7.0930  -13.6178   18.3522 C   0  0  0  0  0  0  0  0  0  0  0  0
    8.1656  -13.5630   19.8315 S   0  0  0  0  0  0  0  0  0  0  0  0
    8.6390  -15.2738   20.2789 C   0  0  0  0  0  0  0  0  0  0  0  0
    9.4918  -15.1556   21.5457 C   0  0  0  0  0  0  0  0  0  0  0  0
   10.2199  -16.5023   21.6665 C   0  0  2  0  0  0  0  0  0  0  0  0
    9.6078  -17.2407   22.7312 N   0  0  0  0  0  0  0  0  0  0  0  0
   11.6595  -16.3036   21.9137 C   0  0  0  0  0  0  0  0  0  0  0  0
   12.4900  -17.0347   21.2715 O   0  0  0  0  0  0  0  0  0  0  0  0
   10.3631  -15.7351   30.3122 O   0  0  0  0  0  0  0  0  0  0  0  0
   10.4532  -15.6672   28.9322 C   0  0  0  0  0  0  0  0  0  0  0  0
   10.6702  -14.4639   28.2785 C   0  0  0  0  0  0  0  0  0  0  0  0
   10.7613  -14.3861   26.9084 C   0  0  0  0  0  0  0  0  0  0  0  0
   10.6293  -15.5551   26.1857 C   0  0  0  0  0  0  0  0  0  0  0  0
   10.6819  -15.5855   24.7085 C   0  0  0  0  0  0  0  0  0  0  0  0
   12.0939  -15.5804   24.2412 C   0  0  2  0  0  0  0  0  0  0  0  0
   12.2027  -15.3623   22.8105 N   0  0  0  0  0  0  0  0  0  0  0  0
   12.8569  -16.7731   24.6479 C   0  0  0  0  0  0  0  0  0  0  0  0
   13.3694  -16.8985   25.7746 O   0  0  0  0  0  0  0  0  0  0  0  0
   10.4126  -16.7515   26.8512 C   0  0  0  0  0  0  0  0  0  0  0  0
   10.3220  -16.8266   28.2202 C   0  0  0  0  0  0  0  0  0  0  0  0
   13.0124  -17.8039   23.7344 O   0  0  0  0  0  0  0  0  0  0  0  0
  2  1  1  1
  2  3  1  0
  4  3  1  0
  5  4  2  0
  6  5  1  0
  7  6  1  0
  7 12  2  0
  8  9  2  0
  8  7  1  0
  9 10  1  0
 10 11  2  0
 12 11  1  0
 12  4  1  0
 13 14  2  0
 13  2  1  0
 15 16  1  0
 16 17  1  0
 17 18  1  0
 19 18  1  1
 19 20  1  0
 20 13  1  0
 21 19  1  0
 22 21  2  0
 23 24  1  0
 24 34  2  0
 25 24  1  0
 25 26  2  0
 26 27  1  0
 27 33  2  0
 27 28  1  0
 29 28  1  6
 29 30  1  0
 30 21  1  0
 31 29  1  0
 32 31  2  0
 34 33  1  0
 35 31  1  0
M  END
$$$$
