WMY.pdb
     RDKit          3D

 35 37  0  0  1  0  0  0  0  0999 V2000
    6.0555  -17.8956   23.4238 N   0  0  0  0  0  0  0  0  0  0  0  0
    7.3777  -17.3146   23.4525 C   0  0  1  0  0  0  0  0  0  0  0  0
    7.7692  -17.0267   24.8860 C   0  0  0  0  0  0  0  0  0  0  0  0
    6.9624  -15.9649   25.5230 C   0  0  0  0  0  0  0  0  0  0  0  0
    6.0270  -16.2020   26.5393 C   0  0  0  0  0  0  0  0  0  0  0  0
    5.4952  -15.0296   26.9156 N   0  0  0  0  0  0  0  0  0  0  0  0
    6.0249  -14.0089   26.2027 C   0  0  0  0  0  0  0  0  0  0  0  0
    5.8009  -12.6509   26.2191 C   0  0  0  0  0  0  0  0  0  0  0  0
    6.5233  -11.8870   25.3330 C   0  0  0  0  0  0  0  0  0  0  0  0
    7.4349  -12.4192   24.4569 C   0  0  0  0  0  0  0  0  0  0  0  0
    7.6302  -13.7952   24.4743 C   0  0  0  0  0  0  0  0  0  0  0  0
    6.9464  -14.6056   25.3286 C   0  0  0  0  0  0  0  0  0  0  0  0
    8.3354  -18.3387   22.9590 C   0  0  0  0  0  0  0  0  0  0  0  0
    7.9261  -19.2653   22.2409 O   0  0  0  0  0  0  0  0  0  0  0  0
   10.7417  -13.0016   19.4247 C   0  0  0  0  0  0  0  0  0  0  0  0
    9.6915  -13.9919   20.5466 S   0  0  0  0  0  0  0  0  0  0  0  0
   10.5863  -15.5266   20.9884 C   0  0  0  0  0  0  0  0  0  0  0  0
    9.7080  -16.2426   22.0190 C   0  0  0  0  0  0  0  0  0  0  0  0
   10.5808  -17.3799   22.5692 C   0  0  2  0  0  0  0  0  0  0  0  0
    9.7316  -18.2743   23.2988 N   0  0  0  0  0  0  0  0  0  0  0  0
   11.6591  -16.8513   23.4241 C   0  0  0  0  0  0  0  0  0  0  0  0
   12.8219  -16.7062   22.9107 O   0  0  0  0  0  0  0  0  0  0  0  0
    8.9188  -12.3097   27.8002 O   0  0  0  0  0  0  0  0  0  0  0  0
    9.5700  -13.5223   27.6493 C   0  0  0  0  0  0  0  0  0  0  0  0
    9.1877  -14.6447   28.3679 C   0  0  0  0  0  0  0  0  0  0  0  0
    9.8281  -15.8534   28.2249 C   0  0  0  0  0  0  0  0  0  0  0  0
   10.8797  -15.9248   27.3332 C   0  0  0  0  0  0  0  0  0  0  0  0
   11.6572  -17.1641   27.1200 C   0  0  0  0  0  0  0  0  0  0  0  0
   12.3256  -17.1331   25.7917 C   0  0  2  0  0  0  0  0  0  0  0  0
   11.5122  -16.4879   24.7776 N   0  0  0  0  0  0  0  0  0  0  0  0
   12.7870  -18.4537   25.3297 C   0  0  0  0  0  0  0  0  0  0  0  0
   12.4858  -18.9268   24.2192 O   0  0  0  0  0  0  0  0  0  0  0  0
   11.2521  -14.7956   26.6209 C   0  0  0  0  0  0  0  0  0  0  0  0
   10.6106  -13.5890   26.7655 C   0  0  0  0  0  0  0  0  0  0  0  0
   13.5938  -19.2052   26.1697 O   0  0  0  0  0  0  0  0  0  0  0  0
  2  1  1  1
  2  3  1  0
  4  3  1  0
  5  4  2  0
  6  5  1  0
  7  6  1  0
  7 12  2  0
  8  9  2  0
  8  7  1  0
  9 10  1  0
 10 11  2  0
 12 11  1  0
 12  4  1  0
 13 14  2  0
 13  2  1  0
 15 16  1  0
 16 17  1  0
 17 18  1  0
 19 18  1  1
 19 20  1  0
 20 13  1  0
 21 19  1  0
 22 21  2  0
 23 24  1  0
 24 34  2  0
 25 24  1  0
 25 26  2  0
 26 27  1  0
 27 33  2  0
 27 28  1  0
 29 28  1  1
 29 30  1  0
 30 21  1  0
 31 29  1  0
 32 31  2  0
 34 33  1  0
 35 31  1  0
M  END
$$$$
