AQR.pdb
     RDKit          3D

 26 25  0  0  1  0  0  0  0  0999 V2000
   19.7702  -27.6896  -13.6719 C   0  0  0  0  0  0  0  0  0  0  0  0
   21.2992  -27.5987  -13.6955 C   0  0  2  0  0  0  0  0  0  0  0  0
   21.8325  -28.4437  -12.6749 N   0  0  0  0  0  0  0  0  0  0  0  0
   21.6627  -26.1706  -13.3978 C   0  0  0  0  0  0  0  0  0  0  0  0
   21.2992  -25.6866  -12.3188 O   0  0  0  0  0  0  0  0  0  0  0  0
   26.5282  -22.8547  -15.9186 N   0  0  0  0  0  0  0  0  0  0  0  0
   25.8414  -21.9339  -15.0887 C   0  0  0  0  0  0  0  0  0  0  0  0
   26.3656  -20.8211  -14.8657 O   0  0  0  0  0  0  0  0  0  0  0  0
   24.4990  -22.2629  -14.4761 C   0  0  0  0  0  0  0  0  0  0  0  0
   24.1222  -23.6553  -14.7886 C   0  0  0  0  0  0  0  0  0  0  0  0
   22.7825  -24.0247  -14.1996 C   0  0  2  0  0  0  0  0  0  0  0  0
   22.3935  -25.3865  -14.3019 N   0  0  0  0  0  0  0  0  0  0  0  0
   21.7276  -23.0252  -14.4076 C   0  0  0  0  0  0  0  0  0  0  0  0
   21.0282  -22.9599  -15.4553 O   0  0  0  0  0  0  0  0  0  0  0  0
   18.1891  -24.2978   -9.8743 N   0  0  0  0  0  0  0  0  0  0  0  0
   16.8447  -23.9140  -10.1938 C   0  0  0  0  0  0  0  0  0  0  0  0
   15.9100  -24.7885  -10.0608 N   0  0  0  0  0  0  0  0  0  0  0  0
   16.6091  -22.5889  -10.6410 N   0  0  0  0  0  0  0  0  0  0  0  0
   17.7437  -21.7002  -10.7642 C   0  0  0  0  0  0  0  0  0  0  0  0
   18.4265  -21.8742  -12.1129 C   0  0  0  0  0  0  0  0  0  0  0  0
   19.6358  -20.9850  -12.1541 C   0  0  0  0  0  0  0  0  0  0  0  0
   20.3565  -21.1340  -13.4843 C   0  0  2  0  0  0  0  0  0  0  0  0
   21.4594  -22.0665  -13.3878 N   0  0  0  0  0  0  0  0  0  0  0  0
   20.8782  -19.8124  -13.9446 C   0  0  0  0  0  0  0  0  0  0  0  0
   22.0725  -19.4760  -13.7484 O   0  0  0  0  0  0  0  0  0  0  0  0
   20.0692  -18.9057  -14.6051 O   0  0  0  0  0  0  0  0  0  0  0  0
  2  1  1  1
  3  2  1  0
  4  2  1  0
  4  5  2  0
  6  7  1  0
  7  9  1  0
  8  7  2  0
  9 10  1  0
 11 10  1  6
 11 12  1  0
 12  4  1  0
 13 11  1  0
 13 23  1  0
 14 13  2  0
 16 18  1  0
 16 15  1  0
 17 16  2  0
 19 20  1  0
 19 18  1  0
 20 21  1  0
 22 21  1  1
 22 23  1  0
 22 24  1  0
 24 25  2  0
 24 26  1  0
M  END
$$$$
