AQR.pdb
     RDKit          3D

 26 25  0  0  1  0  0  0  0  0999 V2000
   22.5236  -25.9923  -15.9001 C   0  0  0  0  0  0  0  0  0  0  0  0
   22.7904  -24.4843  -15.9346 C   0  0  2  0  0  0  0  0  0  0  0  0
   24.1998  -24.2613  -16.0003 N   0  0  0  0  0  0  0  0  0  0  0  0
   22.2563  -23.9104  -14.6518 C   0  0  0  0  0  0  0  0  0  0  0  0
   22.6848  -24.3646  -13.5839 O   0  0  0  0  0  0  0  0  0  0  0  0
   20.0695  -18.0648  -14.0062 N   0  0  0  0  0  0  0  0  0  0  0  0
   21.3531  -18.6092  -14.2598 C   0  0  0  0  0  0  0  0  0  0  0  0
   22.2555  -17.8496  -14.6737 O   0  0  0  0  0  0  0  0  0  0  0  0
   21.6536  -20.0744  -14.0391 C   0  0  0  0  0  0  0  0  0  0  0  0
   20.4352  -20.7864  -13.6065 C   0  0  0  0  0  0  0  0  0  0  0  0
   20.6482  -22.2787  -13.5322 C   0  0  2  0  0  0  0  0  0  0  0  0
   21.2977  -22.8871  -14.6387 N   0  0  0  0  0  0  0  0  0  0  0  0
   19.5341  -23.0255  -12.9354 C   0  0  0  0  0  0  0  0  0  0  0  0
   18.5335  -23.4243  -13.5917 O   0  0  0  0  0  0  0  0  0  0  0  0
   18.5810  -25.6206   -4.6136 N   0  0  0  0  0  0  0  0  0  0  0  0
   17.3185  -25.0808   -5.0279 C   0  0  0  0  0  0  0  0  0  0  0  0
   16.4305  -24.8400   -4.1282 N   0  0  0  0  0  0  0  0  0  0  0  0
   17.1088  -24.8380   -6.4094 N   0  0  0  0  0  0  0  0  0  0  0  0
   18.0763  -25.3634   -7.3474 C   0  0  0  0  0  0  0  0  0  0  0  0
   17.6674  -25.0547   -8.7803 C   0  0  0  0  0  0  0  0  0  0  0  0
   18.7257  -24.1905   -9.4032 C   0  0  0  0  0  0  0  0  0  0  0  0
   18.4901  -24.0619  -10.8995 C   0  0  2  0  0  0  0  0  0  0  0  0
   19.5595  -23.3290  -11.5432 N   0  0  0  0  0  0  0  0  0  0  0  0
   17.1965  -23.3642  -11.1647 C   0  0  0  0  0  0  0  0  0  0  0  0
   16.1983  -23.9835  -11.6100 O   0  0  0  0  0  0  0  0  0  0  0  0
   17.0441  -22.0096  -10.9313 O   0  0  0  0  0  0  0  0  0  0  0  0
  2  1  1  1
  3  2  1  0
  4  2  1  0
  4  5  2  0
  6  7  1  0
  7  9  1  0
  8  7  2  0
  9 10  1  0
 11 10  1  6
 11 12  1  0
 12  4  1  0
 13 11  1  0
 13 23  1  0
 14 13  2  0
 16 18  1  0
 16 15  1  0
 17 16  2  0
 19 20  1  0
 19 18  1  0
 20 21  1  0
 22 21  1  1
 22 23  1  0
 22 24  1  0
 24 25  2  0
 24 26  1  0
M  END
$$$$
