AQR.pdb
     RDKit          3D

 26 25  0  0  1  0  0  0  0  0999 V2000
   16.2049  -10.5052  -15.7132 C   0  0  0  0  0  0  0  0  0  0  0  0
   17.6356  -10.8898  -15.3237 C   0  0  2  0  0  0  0  0  0  0  0  0
   17.6575  -12.2608  -14.9235 N   0  0  0  0  0  0  0  0  0  0  0  0
   18.0245  -10.0257  -14.1565 C   0  0  0  0  0  0  0  0  0  0  0  0
   17.6160  -10.3417  -13.0323 O   0  0  0  0  0  0  0  0  0  0  0  0
   22.4898   -5.3215  -14.3075 N   0  0  0  0  0  0  0  0  0  0  0  0
   22.0415   -5.3787  -12.9643 C   0  0  0  0  0  0  0  0  0  0  0  0
   22.5934   -4.6446  -12.1163 O   0  0  0  0  0  0  0  0  0  0  0  0
   20.9179   -6.2965  -12.5390 C   0  0  0  0  0  0  0  0  0  0  0  0
   20.4513   -7.0989  -13.6867 C   0  0  0  0  0  0  0  0  0  0  0  0
   19.2565   -7.9506  -13.3332 C   0  0  2  0  0  0  0  0  0  0  0  0
   18.8278   -8.8868  -14.3110 N   0  0  0  0  0  0  0  0  0  0  0  0
   18.2015   -7.2460  -12.5946 C   0  0  0  0  0  0  0  0  0  0  0  0
   17.3119   -6.5458  -13.1509 O   0  0  0  0  0  0  0  0  0  0  0  0
   11.9128   -9.4661   -7.4985 N   0  0  0  0  0  0  0  0  0  0  0  0
   11.7428   -8.0518   -7.6641 C   0  0  0  0  0  0  0  0  0  0  0  0
   10.5728   -7.5495   -7.4774 N   0  0  0  0  0  0  0  0  0  0  0  0
   12.8722   -7.2738   -8.0256 N   0  0  0  0  0  0  0  0  0  0  0  0
   13.9614   -7.9330   -8.7120 C   0  0  0  0  0  0  0  0  0  0  0  0
   15.0669   -6.9444   -9.0527 C   0  0  0  0  0  0  0  0  0  0  0  0
   16.1272   -7.6647   -9.8348 C   0  0  0  0  0  0  0  0  0  0  0  0
   17.1372   -6.6746  -10.3923 C   0  0  2  0  0  0  0  0  0  0  0  0
   18.1573   -7.3414  -11.1733 N   0  0  0  0  0  0  0  0  0  0  0  0
   17.7926   -5.9192   -9.2831 C   0  0  0  0  0  0  0  0  0  0  0  0
   18.9150   -6.2599   -8.8332 O   0  0  0  0  0  0  0  0  0  0  0  0
   17.1919   -4.8151   -8.7062 O   0  0  0  0  0  0  0  0  0  0  0  0
  2  1  1  1
  3  2  1  0
  4  2  1  0
  4  5  2  0
  6  7  1  0
  7  9  1  0
  8  7  2  0
  9 10  1  0
 11 10  1  6
 11 12  1  0
 12  4  1  0
 13 11  1  0
 13 23  1  0
 14 13  2  0
 16 18  1  0
 16 15  1  0
 17 16  2  0
 19 20  1  0
 19 18  1  0
 20 21  1  0
 22 21  1  1
 22 23  1  0
 22 24  1  0
 24 25  2  0
 24 26  1  0
M  END
$$$$
