AQR.pdb
     RDKit          3D

 26 25  0  0  1  0  0  0  0  0999 V2000
   22.0274  -26.4461  -14.5959 C   0  0  0  0  0  0  0  0  0  0  0  0
   20.7384  -25.6197  -14.6422 C   0  0  2  0  0  0  0  0  0  0  0  0
   21.0056  -24.3747  -15.2896 N   0  0  0  0  0  0  0  0  0  0  0  0
   20.3265  -25.3611  -13.2197 C   0  0  0  0  0  0  0  0  0  0  0  0
   19.9919  -26.3266  -12.5223 O   0  0  0  0  0  0  0  0  0  0  0  0
   21.5414  -19.9573   -9.8848 N   0  0  0  0  0  0  0  0  0  0  0  0
   20.3112  -19.9404  -10.5881 C   0  0  0  0  0  0  0  0  0  0  0  0
   19.6966  -18.8571  -10.6950 O   0  0  0  0  0  0  0  0  0  0  0  0
   19.7330  -21.1913  -11.2098 C   0  0  0  0  0  0  0  0  0  0  0  0
   20.5672  -22.3616  -10.8735 C   0  0  0  0  0  0  0  0  0  0  0  0
   19.9564  -23.6516  -11.3643 C   0  0  2  0  0  0  0  0  0  0  0  0
   20.3131  -24.0697  -12.6736 N   0  0  0  0  0  0  0  0  0  0  0  0
   18.5561  -23.8523  -10.9719 C   0  0  0  0  0  0  0  0  0  0  0  0
   17.5772  -23.4413  -11.6529 O   0  0  0  0  0  0  0  0  0  0  0  0
   16.5244  -26.6999   -3.2295 N   0  0  0  0  0  0  0  0  0  0  0  0
   17.7927  -26.3382   -3.7929 C   0  0  0  0  0  0  0  0  0  0  0  0
   18.8625  -26.6977   -3.1747 N   0  0  0  0  0  0  0  0  0  0  0  0
   17.8076  -25.6014   -5.0047 N   0  0  0  0  0  0  0  0  0  0  0  0
   16.5398  -25.1958   -5.5704 C   0  0  0  0  0  0  0  0  0  0  0  0
   16.7418  -24.4687   -6.8918 C   0  0  0  0  0  0  0  0  0  0  0  0
   16.8560  -25.4904   -7.9864 C   0  0  0  0  0  0  0  0  0  0  0  0
   16.8989  -24.8080   -9.3441 C   0  0  2  0  0  0  0  0  0  0  0  0
   18.2594  -24.5448   -9.7621 N   0  0  0  0  0  0  0  0  0  0  0  0
   16.1467  -23.5184   -9.3026 C   0  0  0  0  0  0  0  0  0  0  0  0
   14.9111  -23.4740   -9.5255 O   0  0  0  0  0  0  0  0  0  0  0  0
   16.7782  -22.3215   -9.0174 O   0  0  0  0  0  0  0  0  0  0  0  0
  2  1  1  1
  3  2  1  0
  4  2  1  0
  4  5  2  0
  6  7  1  0
  7  9  1  0
  8  7  2  0
  9 10  1  0
 11 10  1  6
 11 12  1  0
 12  4  1  0
 13 11  1  0
 13 23  1  0
 14 13  2  0
 16 18  1  0
 16 15  1  0
 17 16  2  0
 19 20  1  0
 19 18  1  0
 20 21  1  0
 22 21  1  1
 22 23  1  0
 22 24  1  0
 24 25  2  0
 24 26  1  0
M  END
$$$$
