VSP.pdb
     RDKit          3D

 21 21  0  0  1  0  0  0  0  0999 V2000
    8.3759  -14.0663   17.9322 C   0  0  0  0  0  0  0  0  0  0  0  0
    7.7434  -13.9716   19.2819 C   0  0  2  0  0  0  0  0  0  0  0  0
    7.5549  -12.5317   19.6459 C   0  0  0  0  0  0  0  0  0  0  0  0
    8.5149  -14.6607   20.3601 C   0  0  2  0  0  0  0  0  0  0  0  0
    8.6689  -16.0651   20.1629 N   0  0  0  0  0  0  0  0  0  0  0  0
    7.9138  -14.4200   21.7156 C   0  0  0  0  0  0  0  0  0  0  0  0
    7.7568  -13.2501   22.1545 O   0  0  0  0  0  0  0  0  0  0  0  0
    7.2371  -17.7351   24.5537 O   0  0  0  0  0  0  0  0  0  0  0  0
    6.3408  -16.6975   24.2834 C   0  0  0  0  0  0  0  0  0  0  0  0
    7.0032  -15.4250   23.8652 C   0  0  2  0  0  0  0  0  0  0  0  0
    7.5209  -15.5058   22.5064 N   0  0  0  0  0  0  0  0  0  0  0  0
    8.0354  -14.9570   24.8133 C   0  0  0  0  0  0  0  0  0  0  0  0
    9.2481  -15.1431   24.4695 O   0  0  0  0  0  0  0  0  0  0  0  0
    7.7762  -14.3380   26.0287 N   0  0  0  0  0  0  0  0  0  0  0  0
    6.5346  -14.0804   26.7530 C   0  0  0  0  0  0  0  0  0  0  0  0
    6.8032  -12.8245   27.5590 C   0  0  0  0  0  0  0  0  0  0  0  0
    8.1948  -12.4259   27.1672 C   0  0  0  0  0  0  0  0  0  0  0  0
    8.8437  -13.7587   26.8811 C   0  0  1  0  0  0  0  0  0  0  0  0
    8.9762  -14.6305   28.0560 C   0  0  0  0  0  0  0  0  0  0  0  0
    8.1824  -15.7428   28.2784 O   0  0  0  0  0  0  0  0  0  0  0  0
    9.8550  -14.3647   28.9158 O   0  0  0  0  0  0  0  0  0  0  0  0
  2  4  1  0
  2  1  1  6
  3  2  1  0
  4  5  1  6
  6  4  1  0
  7  6  2  0
 10  9  1  1
  9  8  1  0
 10 12  1  0
 10 11  1  0
 11  6  1  0
 12 14  1  0
 13 12  2  0
 14 15  1  0
 14 18  1  0
 15 16  1  0
 16 17  1  0
 18 19  1  1
 18 17  1  0
 19 20  1  0
 21 19  2  0
M  END
$$$$
