VSP.pdb
     RDKit          3D

 21 21  0  0  1  0  0  0  0  0999 V2000
    8.4048  -12.3348   19.5304 C   0  0  0  0  0  0  0  0  0  0  0  0
    9.4135  -13.4028   19.7998 C   0  0  2  0  0  0  0  0  0  0  0  0
   10.4836  -13.3553   18.7540 C   0  0  0  0  0  0  0  0  0  0  0  0
    8.8349  -14.7792   19.8577 C   0  0  2  0  0  0  0  0  0  0  0  0
    8.2332  -15.2125   18.6389 N   0  0  0  0  0  0  0  0  0  0  0  0
    7.8370  -14.9173   20.9721 C   0  0  0  0  0  0  0  0  0  0  0  0
    6.6010  -14.8308   20.7472 O   0  0  0  0  0  0  0  0  0  0  0  0
    7.6050  -17.5230   23.8885 O   0  0  0  0  0  0  0  0  0  0  0  0
    6.7422  -16.4473   23.6617 C   0  0  0  0  0  0  0  0  0  0  0  0
    7.4454  -15.1424   23.4732 C   0  0  2  0  0  0  0  0  0  0  0  0
    8.2802  -15.1451   22.2799 N   0  0  0  0  0  0  0  0  0  0  0  0
    8.2007  -14.7010   24.6641 C   0  0  0  0  0  0  0  0  0  0  0  0
    9.4689  -14.8078   24.6035 O   0  0  0  0  0  0  0  0  0  0  0  0
    7.6312  -14.1855   25.8205 N   0  0  0  0  0  0  0  0  0  0  0  0
    6.2424  -14.0268   26.2432 C   0  0  0  0  0  0  0  0  0  0  0  0
    6.2485  -12.8273   27.1706 C   0  0  0  0  0  0  0  0  0  0  0  0
    7.6708  -12.3523   27.1491 C   0  0  0  0  0  0  0  0  0  0  0  0
    8.4367  -13.6362   26.9390 C   0  0  1  0  0  0  0  0  0  0  0  0
    8.3337  -14.5898   28.0517 C   0  0  0  0  0  0  0  0  0  0  0  0
    9.0923  -14.5046   29.2068 O   0  0  0  0  0  0  0  0  0  0  0  0
    7.5153  -15.5411   27.9651 O   0  0  0  0  0  0  0  0  0  0  0  0
  2  4  1  0
  2  1  1  6
  3  2  1  0
  4  5  1  6
  6  4  1  0
  7  6  2  0
 10  9  1  1
  9  8  1  0
 10 12  1  0
 10 11  1  0
 11  6  1  0
 12 14  1  0
 13 12  2  0
 14 15  1  0
 14 18  1  0
 15 16  1  0
 16 17  1  0
 18 19  1  1
 18 17  1  0
 19 20  1  0
 21 19  2  0
M  END
$$$$
