VSP.pdb
     RDKit          3D

 21 21  0  0  1  0  0  0  0  0999 V2000
    9.1949  -14.9791   25.1828 C   0  0  0  0  0  0  0  0  0  0  0  0
    8.0483  -14.4668   24.3743 C   0  0  2  0  0  0  0  0  0  0  0  0
    7.4038  -13.3211   25.0906 C   0  0  0  0  0  0  0  0  0  0  0  0
    7.0175  -15.5030   24.0639 C   0  0  2  0  0  0  0  0  0  0  0  0
    6.4306  -16.1074   25.2152 N   0  0  0  0  0  0  0  0  0  0  0  0
    7.5625  -16.5802   23.1699 C   0  0  0  0  0  0  0  0  0  0  0  0
    7.9519  -17.6793   23.6456 O   0  0  0  0  0  0  0  0  0  0  0  0
    8.3716  -15.6748   18.9828 O   0  0  0  0  0  0  0  0  0  0  0  0
    7.9093  -16.9176   19.4238 C   0  0  0  0  0  0  0  0  0  0  0  0
    8.3012  -17.2403   20.8292 C   0  0  2  0  0  0  0  0  0  0  0  0
    7.6414  -16.3660   21.7891 N   0  0  0  0  0  0  0  0  0  0  0  0
    9.7630  -17.2758   21.0415 C   0  0  0  0  0  0  0  0  0  0  0  0
   10.2580  -16.3332   21.7414 O   0  0  0  0  0  0  0  0  0  0  0  0
   10.6155  -18.2506   20.5407 N   0  0  0  0  0  0  0  0  0  0  0  0
   10.3776  -19.4310   19.7146 C   0  0  0  0  0  0  0  0  0  0  0  0
   11.4671  -20.4104   20.1057 C   0  0  0  0  0  0  0  0  0  0  0  0
   12.2185  -19.7087   21.1974 C   0  0  0  0  0  0  0  0  0  0  0  0
   12.0752  -18.2575   20.8066 C   0  0  1  0  0  0  0  0  0  0  0  0
   12.7433  -17.9023   19.5475 C   0  0  0  0  0  0  0  0  0  0  0  0
   13.9757  -17.2748   19.4842 O   0  0  0  0  0  0  0  0  0  0  0  0
   12.1768  -18.1775   18.4585 O   0  0  0  0  0  0  0  0  0  0  0  0
  2  4  1  0
  2  1  1  1
  3  2  1  0
  4  5  1  1
  6  4  1  0
  7  6  2  0
 10  9  1  6
  9  8  1  0
 10 12  1  0
 10 11  1  0
 11  6  1  0
 12 14  1  0
 13 12  2  0
 14 15  1  0
 14 18  1  0
 15 16  1  0
 16 17  1  0
 18 19  1  6
 18 17  1  0
 19 20  1  0
 21 19  2  0
M  END
$$$$
