VSP.pdb
     RDKit          3D

 21 21  0  0  1  0  0  0  0  0999 V2000
    7.7614  -12.4483   19.5354 C   0  0  0  0  0  0  0  0  0  0  0  0
    8.8258  -13.4841   19.6921 C   0  0  2  0  0  0  0  0  0  0  0  0
    9.7286  -13.4580   18.4981 C   0  0  0  0  0  0  0  0  0  0  0  0
    8.2977  -14.8683   19.8865 C   0  0  2  0  0  0  0  0  0  0  0  0
    7.5515  -15.3705   18.7791 N   0  0  0  0  0  0  0  0  0  0  0  0
    7.4607  -14.9754   21.1294 C   0  0  0  0  0  0  0  0  0  0  0  0
    6.2148  -14.7977   21.0868 O   0  0  0  0  0  0  0  0  0  0  0  0
    5.8976  -17.1815   23.0793 O   0  0  0  0  0  0  0  0  0  0  0  0
    6.9169  -16.7465   23.9306 C   0  0  0  0  0  0  0  0  0  0  0  0
    7.3905  -15.3592   23.6409 C   0  0  2  0  0  0  0  0  0  0  0  0
    8.0675  -15.2763   22.3541 N   0  0  0  0  0  0  0  0  0  0  0  0
    8.2087  -14.7760   24.7243 C   0  0  0  0  0  0  0  0  0  0  0  0
    9.4668  -14.7364   24.5268 O   0  0  0  0  0  0  0  0  0  0  0  0
    7.7068  -14.2761   25.9183 N   0  0  0  0  0  0  0  0  0  0  0  0
    6.3634  -14.2681   26.4906 C   0  0  0  0  0  0  0  0  0  0  0  0
    6.3166  -13.0312   27.3663 C   0  0  0  0  0  0  0  0  0  0  0  0
    7.6555  -12.3865   27.1649 C   0  0  0  0  0  0  0  0  0  0  0  0
    8.5521  -13.5755   26.9165 C   0  0  1  0  0  0  0  0  0  0  0  0
    8.6934  -14.4764   28.0682 C   0  0  0  0  0  0  0  0  0  0  0  0
    9.5209  -14.2166   29.1474 O   0  0  0  0  0  0  0  0  0  0  0  0
    8.0323  -15.5463   28.0895 O   0  0  0  0  0  0  0  0  0  0  0  0
  2  4  1  0
  2  1  1  6
  3  2  1  0
  4  5  1  6
  6  4  1  0
  7  6  2  0
 10  9  1  1
  9  8  1  0
 10 12  1  0
 10 11  1  0
 11  6  1  0
 12 14  1  0
 13 12  2  0
 14 15  1  0
 14 18  1  0
 15 16  1  0
 16 17  1  0
 18 19  1  1
 18 17  1  0
 19 20  1  0
 21 19  2  0
M  END
$$$$
