VSP.pdb
     RDKit          3D

 21 21  0  0  1  0  0  0  0  0999 V2000
    7.2861  -12.6625   19.6271 C   0  0  0  0  0  0  0  0  0  0  0  0
    8.5172  -13.5007   19.7390 C   0  0  2  0  0  0  0  0  0  0  0  0
    9.3258  -13.3713   18.4857 C   0  0  0  0  0  0  0  0  0  0  0  0
    8.2425  -14.9447   20.0073 C   0  0  2  0  0  0  0  0  0  0  0  0
    7.5981  -15.6269   18.9328 N   0  0  0  0  0  0  0  0  0  0  0  0
    7.4367  -15.1346   21.2608 C   0  0  0  0  0  0  0  0  0  0  0  0
    6.1783  -15.1637   21.2220 O   0  0  0  0  0  0  0  0  0  0  0  0
    7.9235  -17.6350   24.3129 O   0  0  0  0  0  0  0  0  0  0  0  0
    6.9200  -16.6820   24.1187 C   0  0  0  0  0  0  0  0  0  0  0  0
    7.4401  -15.3189   23.7957 C   0  0  2  0  0  0  0  0  0  0  0  0
    8.0868  -15.2817   22.4914 N   0  0  0  0  0  0  0  0  0  0  0  0
    8.3079  -14.7529   24.8492 C   0  0  0  0  0  0  0  0  0  0  0  0
    9.5639  -14.8137   24.6434 O   0  0  0  0  0  0  0  0  0  0  0  0
    7.8541  -14.1686   26.0240 N   0  0  0  0  0  0  0  0  0  0  0  0
    6.5175  -14.0220   26.5937 C   0  0  0  0  0  0  0  0  0  0  0  0
    6.5813  -12.7553   27.4247 C   0  0  0  0  0  0  0  0  0  0  0  0
    7.9714  -12.2385   27.2024 C   0  0  0  0  0  0  0  0  0  0  0  0
    8.7594  -13.5100   26.9978 C   0  0  1  0  0  0  0  0  0  0  0  0
    8.8229  -14.3782   28.1810 C   0  0  0  0  0  0  0  0  0  0  0  0
    8.0763  -15.5354   28.3235 O   0  0  0  0  0  0  0  0  0  0  0  0
    9.5938  -14.0663   29.1248 O   0  0  0  0  0  0  0  0  0  0  0  0
  2  4  1  0
  2  1  1  6
  3  2  1  0
  4  5  1  6
  6  4  1  0
  7  6  2  0
 10  9  1  1
  9  8  1  0
 10 12  1  0
 10 11  1  0
 11  6  1  0
 12 14  1  0
 13 12  2  0
 14 15  1  0
 14 18  1  0
 15 16  1  0
 16 17  1  0
 18 19  1  1
 18 17  1  0
 19 20  1  0
 21 19  2  0
M  END
$$$$
