VSP.pdb
     RDKit          3D

 21 21  0  0  1  0  0  0  0  0999 V2000
    7.6950  -17.1520   18.7872 C   0  0  0  0  0  0  0  0  0  0  0  0
    7.1330  -16.6626   20.0815 C   0  0  2  0  0  0  0  0  0  0  0  0
    7.9942  -15.5607   20.6158 C   0  0  0  0  0  0  0  0  0  0  0  0
    6.9882  -17.7285   21.1186 C   0  0  2  0  0  0  0  0  0  0  0  0
    6.1495  -18.8144   20.7280 N   0  0  0  0  0  0  0  0  0  0  0  0
    6.4928  -17.1723   22.4232 C   0  0  0  0  0  0  0  0  0  0  0  0
    5.3032  -16.7781   22.5476 O   0  0  0  0  0  0  0  0  0  0  0  0
    8.3387  -18.0808   26.1437 O   0  0  0  0  0  0  0  0  0  0  0  0
    7.0626  -17.5679   25.8963 C   0  0  0  0  0  0  0  0  0  0  0  0
    7.0303  -16.5291   24.8226 C   0  0  2  0  0  0  0  0  0  0  0  0
    7.3595  -17.0883   23.5188 N   0  0  0  0  0  0  0  0  0  0  0  0
    7.8518  -15.3393   25.1270 C   0  0  0  0  0  0  0  0  0  0  0  0
    8.9202  -15.1982   24.4472 O   0  0  0  0  0  0  0  0  0  0  0  0
    7.5413  -14.3826   26.0840 N   0  0  0  0  0  0  0  0  0  0  0  0
    6.4255  -14.2553   27.0174 C   0  0  0  0  0  0  0  0  0  0  0  0
    6.2656  -12.7637   27.2377 C   0  0  0  0  0  0  0  0  0  0  0  0
    7.2935  -12.1461   26.3372 C   0  0  0  0  0  0  0  0  0  0  0  0
    8.3859  -13.1882   26.3322 C   0  0  1  0  0  0  0  0  0  0  0  0
    9.0381  -13.3857   27.6335 C   0  0  0  0  0  0  0  0  0  0  0  0
   10.0588  -12.5804   28.1094 O   0  0  0  0  0  0  0  0  0  0  0  0
    8.6589  -14.3344   28.3673 O   0  0  0  0  0  0  0  0  0  0  0  0
  2  4  1  0
  2  1  1  6
  3  2  1  0
  4  5  1  6
  6  4  1  0
  7  6  2  0
 10  9  1  1
  9  8  1  0
 10 12  1  0
 10 11  1  0
 11  6  1  0
 12 14  1  0
 13 12  2  0
 14 15  1  0
 14 18  1  0
 15 16  1  0
 16 17  1  0
 18 19  1  1
 18 17  1  0
 19 20  1  0
 21 19  2  0
M  END
$$$$
