VSP.pdb
     RDKit          3D

 21 21  0  0  1  0  0  0  0  0999 V2000
   10.9662  -20.4963   19.3925 C   0  0  0  0  0  0  0  0  0  0  0  0
    9.6519  -21.2021   19.3218 C   0  0  2  0  0  0  0  0  0  0  0  0
    9.7707  -22.3911   18.4199 C   0  0  0  0  0  0  0  0  0  0  0  0
    8.5257  -20.3365   18.8582 C   0  0  2  0  0  0  0  0  0  0  0  0
    8.6802  -19.8366   17.5310 N   0  0  0  0  0  0  0  0  0  0  0  0
    8.2897  -19.1829   19.7912 C   0  0  0  0  0  0  0  0  0  0  0  0
    8.8009  -18.0543   19.5657 O   0  0  0  0  0  0  0  0  0  0  0  0
    5.7686  -19.7168   23.3127 O   0  0  0  0  0  0  0  0  0  0  0  0
    5.8443  -18.5531   22.5426 C   0  0  0  0  0  0  0  0  0  0  0  0
    7.1828  -18.3336   21.9156 C   0  0  2  0  0  0  0  0  0  0  0  0
    7.4921  -19.3580   20.9278 N   0  0  0  0  0  0  0  0  0  0  0  0
    8.2763  -18.1769   22.8971 C   0  0  0  0  0  0  0  0  0  0  0  0
    9.1801  -19.0749   22.8880 O   0  0  0  0  0  0  0  0  0  0  0  0
    8.3831  -17.1351   23.8085 N   0  0  0  0  0  0  0  0  0  0  0  0
    7.4833  -16.0378   24.1536 C   0  0  0  0  0  0  0  0  0  0  0  0
    8.3918  -14.9151   24.6152 C   0  0  0  0  0  0  0  0  0  0  0  0
    9.7760  -15.4618   24.4305 C   0  0  0  0  0  0  0  0  0  0  0  0
    9.5745  -16.9386   24.6708 C   0  0  1  0  0  0  0  0  0  0  0  0
    9.1731  -17.2780   26.0425 C   0  0  0  0  0  0  0  0  0  0  0  0
   10.0659  -17.4052   27.0930 O   0  0  0  0  0  0  0  0  0  0  0  0
    7.9546  -17.4658   26.2920 O   0  0  0  0  0  0  0  0  0  0  0  0
  2  4  1  0
  2  1  1  6
  3  2  1  0
  4  5  1  6
  6  4  1  0
  7  6  2  0
 10  9  1  1
  9  8  1  0
 10 12  1  0
 10 11  1  0
 11  6  1  0
 12 14  1  0
 13 12  2  0
 14 15  1  0
 14 18  1  0
 15 16  1  0
 16 17  1  0
 18 19  1  1
 18 17  1  0
 19 20  1  0
 21 19  2  0
M  END
$$$$
