VSP.pdb
     RDKit          3D

 21 21  0  0  1  0  0  0  0  0999 V2000
    7.3644  -12.6938   19.6195 C   0  0  0  0  0  0  0  0  0  0  0  0
    8.5742  -13.5634   19.7225 C   0  0  2  0  0  0  0  0  0  0  0  0
    9.3814  -13.4481   18.4670 C   0  0  0  0  0  0  0  0  0  0  0  0
    8.2639  -15.0014   19.9844 C   0  0  2  0  0  0  0  0  0  0  0  0
    7.5877  -15.6582   18.9137 N   0  0  0  0  0  0  0  0  0  0  0  0
    7.4693  -15.1785   21.2469 C   0  0  0  0  0  0  0  0  0  0  0  0
    6.2339  -15.4194   21.2045 O   0  0  0  0  0  0  0  0  0  0  0  0
    7.9370  -17.6099   24.1410 O   0  0  0  0  0  0  0  0  0  0  0  0
    6.9404  -16.6482   23.9541 C   0  0  0  0  0  0  0  0  0  0  0  0
    7.4685  -15.2603   23.7872 C   0  0  2  0  0  0  0  0  0  0  0  0
    8.1040  -15.0756   22.4900 N   0  0  0  0  0  0  0  0  0  0  0  0
    8.3499  -14.8270   24.8911 C   0  0  0  0  0  0  0  0  0  0  0  0
    9.6028  -14.9637   24.7041 O   0  0  0  0  0  0  0  0  0  0  0  0
    7.9119  -14.2890   26.0937 N   0  0  0  0  0  0  0  0  0  0  0  0
    6.5881  -14.1995   26.7036 C   0  0  0  0  0  0  0  0  0  0  0  0
    6.6368  -12.9544   27.5675 C   0  0  0  0  0  0  0  0  0  0  0  0
    8.0037  -12.3888   27.3218 C   0  0  0  0  0  0  0  0  0  0  0  0
    8.8239  -13.6291   27.0603 C   0  0  1  0  0  0  0  0  0  0  0  0
    8.9471  -14.5265   28.2167 C   0  0  0  0  0  0  0  0  0  0  0  0
    8.2988  -15.7461   28.3129 O   0  0  0  0  0  0  0  0  0  0  0  0
    9.6786  -14.1818   29.1802 O   0  0  0  0  0  0  0  0  0  0  0  0
  2  4  1  0
  2  1  1  6
  3  2  1  0
  4  5  1  6
  6  4  1  0
  7  6  2  0
 10  9  1  1
  9  8  1  0
 10 12  1  0
 10 11  1  0
 11  6  1  0
 12 14  1  0
 13 12  2  0
 14 15  1  0
 14 18  1  0
 15 16  1  0
 16 17  1  0
 18 19  1  1
 18 17  1  0
 19 20  1  0
 21 19  2  0
M  END
$$$$
