SKM.pdb
     RDKit          3D

 24 23  0  0  1  0  0  0  0  0999 V2000
    6.1175  -17.8420   24.4141 O   0  0  0  0  0  0  0  0  0  0  0  0
    6.2022  -19.0112   23.6682 C   0  0  0  0  0  0  0  0  0  0  0  0
    6.0295  -18.6501   22.2090 C   0  0  2  0  0  0  0  0  0  0  0  0
    6.0387  -19.7925   21.3506 N   0  0  0  0  0  0  0  0  0  0  0  0
    7.0959  -17.7217   21.8335 C   0  0  0  0  0  0  0  0  0  0  0  0
    8.2410  -18.1571   21.5552 O   0  0  0  0  0  0  0  0  0  0  0  0
    6.8940  -16.2914   21.7646 N   0  0  0  0  0  0  0  0  0  0  0  0
    7.9320  -15.3996   21.3284 C   0  0  1  0  0  0  0  0  0  0  0  0
    7.5252  -14.2699   20.4623 C   0  0  0  0  0  0  0  0  0  0  0  0
    7.9732  -14.3031   19.0360 C   0  0  0  0  0  0  0  0  0  0  0  0
    8.3486  -12.9940   18.4326 C   0  0  0  0  0  0  0  0  0  0  0  0
    7.9246  -13.0408   16.9628 C   0  0  0  0  0  0  0  0  0  0  0  0
    8.5683  -14.1468   16.3038 N   0  0  0  0  0  0  0  0  0  0  0  0
    8.6612  -14.8316   22.5295 C   0  0  0  0  0  0  0  0  0  0  0  0
    9.1929  -13.7058   22.4994 O   0  0  0  0  0  0  0  0  0  0  0  0
    6.1734  -11.7774   28.4405 C   0  0  0  0  0  0  0  0  0  0  0  0
    6.1918  -12.5627   26.8132 S   0  0  0  0  0  0  0  0  0  0  0  0
    7.7864  -13.4527   26.6474 C   0  0  0  0  0  0  0  0  0  0  0  0
    7.8393  -14.0375   25.2757 C   0  0  0  0  0  0  0  0  0  0  0  0
    8.9824  -14.9659   25.0414 C   0  0  2  0  0  0  0  0  0  0  0  0
    8.7509  -15.5852   23.7267 N   0  0  0  0  0  0  0  0  0  0  0  0
    9.2075  -15.9740   26.0735 C   0  0  0  0  0  0  0  0  0  0  0  0
    9.1465  -17.3251   25.7898 O   0  0  0  0  0  0  0  0  0  0  0  0
    9.4666  -15.6605   27.2728 O   0  0  0  0  0  0  0  0  0  0  0  0
  2  1  1  0
  3  2  1  0
  3  4  1  6
  5  6  2  0
  5  3  1  0
  7  5  1  0
  8  7  1  0
  8  9  1  1
 10 11  1  0
 10  9  1  0
 11 12  1  0
 12 13  1  0
 14  8  1  0
 14 21  1  0
 15 14  2  0
 17 16  1  0
 18 17  1  0
 20 19  1  1
 19 18  1  0
 20 21  1  0
 20 22  1  0
 22 23  1  0
 24 22  2  0
M  END
$$$$
