SKM.pdb
     RDKit          3D

 24 23  0  0  1  0  0  0  0  0999 V2000
    9.9646  -16.2263   19.2220 O   0  0  0  0  0  0  0  0  0  0  0  0
    9.7105  -17.5741   18.9994 C   0  0  0  0  0  0  0  0  0  0  0  0
    8.2118  -17.7797   19.0277 C   0  0  2  0  0  0  0  0  0  0  0  0
    7.5120  -16.8740   18.1722 N   0  0  0  0  0  0  0  0  0  0  0  0
    7.7515  -17.6351   20.4087 C   0  0  0  0  0  0  0  0  0  0  0  0
    6.9261  -16.7361   20.7067 O   0  0  0  0  0  0  0  0  0  0  0  0
    8.2102  -18.4962   21.4761 N   0  0  0  0  0  0  0  0  0  0  0  0
    7.6989  -18.3835   22.8137 C   0  0  1  0  0  0  0  0  0  0  0  0
    7.8158  -19.5791   23.6790 C   0  0  0  0  0  0  0  0  0  0  0  0
    7.1731  -19.5153   25.0277 C   0  0  0  0  0  0  0  0  0  0  0  0
    7.8798  -20.2272   26.1288 C   0  0  0  0  0  0  0  0  0  0  0  0
    6.9701  -20.1650   27.3580 C   0  0  0  0  0  0  0  0  0  0  0  0
    7.5509  -20.9239   28.4344 N   0  0  0  0  0  0  0  0  0  0  0  0
    8.3660  -17.2227   23.5238 C   0  0  0  0  0  0  0  0  0  0  0  0
    9.5947  -17.0321   23.4534 O   0  0  0  0  0  0  0  0  0  0  0  0
    6.3972  -10.5113   27.1854 C   0  0  0  0  0  0  0  0  0  0  0  0
    5.9296  -11.9792   26.2410 S   0  0  0  0  0  0  0  0  0  0  0  0
    7.4384  -12.9976   26.0200 C   0  0  0  0  0  0  0  0  0  0  0  0
    7.0529  -14.2202   25.2565 C   0  0  0  0  0  0  0  0  0  0  0  0
    8.1736  -15.1699   25.0003 C   0  0  2  0  0  0  0  0  0  0  0  0
    7.5890  -16.3199   24.2922 N   0  0  0  0  0  0  0  0  0  0  0  0
    8.9304  -15.5952   26.1744 C   0  0  0  0  0  0  0  0  0  0  0  0
   10.0032  -14.8634   26.6469 O   0  0  0  0  0  0  0  0  0  0  0  0
    8.6427  -16.6507   26.8122 O   0  0  0  0  0  0  0  0  0  0  0  0
  2  1  1  0
  3  2  1  0
  3  4  1  6
  5  6  2  0
  5  3  1  0
  7  5  1  0
  8  7  1  0
  8  9  1  1
 10 11  1  0
 10  9  1  0
 11 12  1  0
 12 13  1  0
 14  8  1  0
 14 21  1  0
 15 14  2  0
 17 16  1  0
 18 17  1  0
 20 19  1  1
 19 18  1  0
 20 21  1  0
 20 22  1  0
 22 23  1  0
 24 22  2  0
M  END
$$$$
