SKM.pdb
     RDKit          3D

 24 23  0  0  1  0  0  0  0  0999 V2000
    5.5912  -15.8957   19.8418 O   0  0  0  0  0  0  0  0  0  0  0  0
    6.3698  -16.1072   20.9731 C   0  0  0  0  0  0  0  0  0  0  0  0
    7.0739  -17.4372   20.8159 C   0  0  2  0  0  0  0  0  0  0  0  0
    6.1816  -18.5500   20.9012 N   0  0  0  0  0  0  0  0  0  0  0  0
    8.1108  -17.5352   21.8433 C   0  0  0  0  0  0  0  0  0  0  0  0
    7.8509  -18.0664   22.9517 O   0  0  0  0  0  0  0  0  0  0  0  0
    9.4542  -17.0391   21.6429 N   0  0  0  0  0  0  0  0  0  0  0  0
   10.4506  -17.1112   22.6749 C   0  0  1  0  0  0  0  0  0  0  0  0
   11.8628  -16.9658   22.2548 C   0  0  0  0  0  0  0  0  0  0  0  0
   12.4867  -18.1189   21.5355 C   0  0  0  0  0  0  0  0  0  0  0  0
   13.3644  -17.7786   20.3812 C   0  0  0  0  0  0  0  0  0  0  0  0
   13.7801  -19.0999   19.7304 C   0  0  0  0  0  0  0  0  0  0  0  0
   14.6392  -18.8410   18.6050 N   0  0  0  0  0  0  0  0  0  0  0  0
   10.1672  -16.0688   23.7379 C   0  0  0  0  0  0  0  0  0  0  0  0
   10.0227  -14.8654   23.4515 O   0  0  0  0  0  0  0  0  0  0  0  0
    6.7839  -11.2993   26.1395 C   0  0  0  0  0  0  0  0  0  0  0  0
    6.4639  -13.0778   26.1342 S   0  0  0  0  0  0  0  0  0  0  0  0
    7.9397  -13.9066   26.8395 C   0  0  0  0  0  0  0  0  0  0  0  0
    8.5074  -14.7970   25.7853 C   0  0  0  0  0  0  0  0  0  0  0  0
    9.7663  -15.4946   26.1752 C   0  0  2  0  0  0  0  0  0  0  0  0
   10.0599  -16.4533   25.0980 N   0  0  0  0  0  0  0  0  0  0  0  0
    9.7558  -16.1471   27.4815 C   0  0  0  0  0  0  0  0  0  0  0  0
   10.0989  -17.4778   27.6275 O   0  0  0  0  0  0  0  0  0  0  0  0
    9.4320  -15.5287   28.5381 O   0  0  0  0  0  0  0  0  0  0  0  0
  2  1  1  0
  3  2  1  0
  3  4  1  1
  5  6  2  0
  5  3  1  0
  7  5  1  0
  8  7  1  0
  8  9  1  6
 10 11  1  0
 10  9  1  0
 11 12  1  0
 12 13  1  0
 14  8  1  0
 14 21  1  0
 15 14  2  0
 17 16  1  0
 18 17  1  0
 20 19  1  6
 19 18  1  0
 20 21  1  0
 20 22  1  0
 22 23  1  0
 24 22  2  0
M  END
$$$$
