SKM.pdb
     RDKit          3D

 24 23  0  0  1  0  0  0  0  0999 V2000
    7.2360  -14.1379   17.3787 O   0  0  0  0  0  0  0  0  0  0  0  0
    7.5110  -13.0266   18.1661 C   0  0  0  0  0  0  0  0  0  0  0  0
    8.7879  -13.2981   18.9310 C   0  0  2  0  0  0  0  0  0  0  0  0
    9.8228  -13.8388   18.1075 N   0  0  0  0  0  0  0  0  0  0  0  0
    8.4818  -14.2124   20.0312 C   0  0  0  0  0  0  0  0  0  0  0  0
    7.6418  -13.8857   20.9065 O   0  0  0  0  0  0  0  0  0  0  0  0
    9.1131  -15.5063   20.1664 N   0  0  0  0  0  0  0  0  0  0  0  0
    8.7429  -16.4255   21.2062 C   0  0  1  0  0  0  0  0  0  0  0  0
    9.2881  -17.7987   21.1125 C   0  0  0  0  0  0  0  0  0  0  0  0
    8.8684  -18.7766   22.1631 C   0  0  0  0  0  0  0  0  0  0  0  0
    9.4383  -20.1483   22.0520 C   0  0  0  0  0  0  0  0  0  0  0  0
    8.7408  -21.0094   23.1076 C   0  0  0  0  0  0  0  0  0  0  0  0
    9.3173  -22.3282   23.1209 N   0  0  0  0  0  0  0  0  0  0  0  0
    9.1297  -15.8577   22.5570 C   0  0  0  0  0  0  0  0  0  0  0  0
   10.2851  -15.4561   22.7910 O   0  0  0  0  0  0  0  0  0  0  0  0
    6.2933  -11.0993   27.8553 C   0  0  0  0  0  0  0  0  0  0  0  0
    6.1272  -12.0739   26.3426 S   0  0  0  0  0  0  0  0  0  0  0  0
    7.4523  -13.3413   26.3540 C   0  0  0  0  0  0  0  0  0  0  0  0
    7.3854  -14.0795   25.0590 C   0  0  0  0  0  0  0  0  0  0  0  0
    8.4400  -15.1188   24.8829 C   0  0  2  0  0  0  0  0  0  0  0  0
    8.1663  -15.7729   23.5934 N   0  0  0  0  0  0  0  0  0  0  0  0
    8.5595  -16.0957   25.9616 C   0  0  0  0  0  0  0  0  0  0  0  0
    8.0603  -17.3780   25.8340 O   0  0  0  0  0  0  0  0  0  0  0  0
    9.1221  -15.8161   27.0610 O   0  0  0  0  0  0  0  0  0  0  0  0
  2  1  1  0
  3  2  1  0
  3  4  1  6
  5  6  2  0
  5  3  1  0
  7  5  1  0
  8  7  1  0
  8  9  1  6
 10 11  1  0
 10  9  1  0
 11 12  1  0
 12 13  1  0
 14  8  1  0
 14 21  1  0
 15 14  2  0
 17 16  1  0
 18 17  1  0
 20 19  1  1
 19 18  1  0
 20 21  1  0
 20 22  1  0
 22 23  1  0
 24 22  2  0
M  END
$$$$
