SKM.pdb
     RDKit          3D

 24 23  0  0  1  0  0  0  0  0999 V2000
   10.6786  -12.9155   19.7538 O   0  0  0  0  0  0  0  0  0  0  0  0
   10.1609  -13.9004   18.9215 C   0  0  0  0  0  0  0  0  0  0  0  0
    8.6518  -13.7949   18.9524 C   0  0  2  0  0  0  0  0  0  0  0  0
    8.1893  -12.4445   18.8881 N   0  0  0  0  0  0  0  0  0  0  0  0
    8.1684  -14.4418   20.1723 C   0  0  0  0  0  0  0  0  0  0  0  0
    7.6481  -13.7542   21.0860 O   0  0  0  0  0  0  0  0  0  0  0  0
    8.2613  -15.8690   20.3856 N   0  0  0  0  0  0  0  0  0  0  0  0
    7.8050  -16.4852   21.6002 C   0  0  1  0  0  0  0  0  0  0  0  0
    7.8252  -17.9647   21.6501 C   0  0  0  0  0  0  0  0  0  0  0  0
    7.3502  -18.6152   22.9100 C   0  0  0  0  0  0  0  0  0  0  0  0
    7.4699  -20.0987   22.9713 C   0  0  0  0  0  0  0  0  0  0  0  0
    6.7707  -20.5512   24.2553 C   0  0  0  0  0  0  0  0  0  0  0  0
    6.9317  -21.9714   24.4246 N   0  0  0  0  0  0  0  0  0  0  0  0
    8.6085  -15.9646   22.7750 C   0  0  0  0  0  0  0  0  0  0  0  0
    9.8499  -15.8748   22.7297 O   0  0  0  0  0  0  0  0  0  0  0  0
    5.8810  -11.8290   26.3934 C   0  0  0  0  0  0  0  0  0  0  0  0
    7.5407  -11.6210   27.0772 S   0  0  0  0  0  0  0  0  0  0  0  0
    8.4442  -13.1963   26.8231 C   0  0  0  0  0  0  0  0  0  0  0  0
    7.9473  -13.8050   25.5546 C   0  0  0  0  0  0  0  0  0  0  0  0
    8.6689  -15.0409   25.1360 C   0  0  2  0  0  0  0  0  0  0  0  0
    7.9490  -15.5647   23.9643 N   0  0  0  0  0  0  0  0  0  0  0  0
    8.8301  -16.0649   26.1644 C   0  0  0  0  0  0  0  0  0  0  0  0
    9.7305  -15.9122   27.2015 O   0  0  0  0  0  0  0  0  0  0  0  0
    8.1570  -17.1375   26.1549 O   0  0  0  0  0  0  0  0  0  0  0  0
  2  1  1  0
  3  2  1  0
  3  4  1  1
  5  6  2  0
  5  3  1  0
  7  5  1  0
  8  7  1  0
  8  9  1  6
 10 11  1  0
 10  9  1  0
 11 12  1  0
 12 13  1  0
 14  8  1  0
 14 21  1  0
 15 14  2  0
 17 16  1  0
 18 17  1  0
 20 19  1  1
 19 18  1  0
 20 21  1  0
 20 22  1  0
 22 23  1  0
 24 22  2  0
M  END
$$$$
