PEV.pdb
     RDKit          3D

 24 24  0  0  1  0  0  0  0  0999 V2000
    8.7617  -15.0480   19.2852 N   0  0  0  0  0  0  0  0  0  0  0  0
    8.5839  -14.5732   17.9066 C   0  0  0  0  0  0  0  0  0  0  0  0
    7.3077  -13.7525   18.0917 C   0  0  0  0  0  0  0  0  0  0  0  0
    7.6778  -12.9747   19.3557 C   0  0  0  0  0  0  0  0  0  0  0  0
    8.6926  -13.8388   20.0756 C   0  0  1  0  0  0  0  0  0  0  0  0
    8.2375  -14.1355   21.4735 C   0  0  0  0  0  0  0  0  0  0  0  0
    7.9740  -13.2078   22.2466 O   0  0  0  0  0  0  0  0  0  0  0  0
    8.1039  -15.4727   21.9225 N   0  0  0  0  0  0  0  0  0  0  0  0
    7.6132  -15.8694   23.1888 C   0  0  1  0  0  0  0  0  0  0  0  0
    7.5766  -17.3368   23.4568 C   0  0  0  0  0  0  0  0  0  0  0  0
    6.9376  -17.6494   24.7868 C   0  0  0  0  0  0  0  0  0  0  0  0
    6.8882  -19.1114   25.0388 C   0  0  0  0  0  0  0  0  0  0  0  0
    7.8698  -19.7323   25.5216 O   0  0  0  0  0  0  0  0  0  0  0  0
    8.2043  -15.1441   24.3555 C   0  0  0  0  0  0  0  0  0  0  0  0
    9.4352  -15.2419   24.4817 O   0  0  0  0  0  0  0  0  0  0  0  0
    5.7334  -19.8168   24.7363 O   0  0  0  0  0  0  0  0  0  0  0  0
    7.2120  -11.4766   25.5592 C   0  0  0  0  0  0  0  0  0  0  0  0
    7.1203  -12.4326   26.7302 C   0  0  1  0  0  0  0  0  0  0  0  0
    5.6721  -12.6625   27.0383 C   0  0  0  0  0  0  0  0  0  0  0  0
    7.8776  -13.6785   26.4139 C   0  0  2  0  0  0  0  0  0  0  0  0
    7.4467  -14.3961   25.2657 N   0  0  0  0  0  0  0  0  0  0  0  0
    8.1568  -14.4582   27.6397 C   0  0  0  0  0  0  0  0  0  0  0  0
    8.8103  -13.8682   28.7131 O   0  0  0  0  0  0  0  0  0  0  0  0
    7.8283  -15.6398   27.7577 O   0  0  0  0  0  0  0  0  0  0  0  0
  1  5  1  0
  1  2  1  0
  2  3  1  0
  4  3  1  0
  5  4  1  0
  6  8  1  0
  5  6  1  1
  7  6  2  0
  9  8  1  0
 10 11  1  0
  9 10  1  1
 12 16  1  0
 12 11  1  0
 13 12  2  0
 14  9  1  0
 14 21  1  0
 15 14  2  0
 18 17  1  6
 18 20  1  0
 19 18  1  0
 20 21  1  6
 20 22  1  0
 22 23  1  0
 24 22  2  0
M  END
$$$$
