PEV.pdb
     RDKit          3D

 24 24  0  0  1  0  0  0  0  0999 V2000
    9.2446  -14.5598   18.8884 N   0  0  0  0  0  0  0  0  0  0  0  0
    8.9377  -14.0445   17.5476 C   0  0  0  0  0  0  0  0  0  0  0  0
    7.4381  -13.8005   17.7149 C   0  0  0  0  0  0  0  0  0  0  0  0
    7.4391  -13.0808   19.0646 C   0  0  0  0  0  0  0  0  0  0  0  0
    8.6878  -13.5617   19.7747 C   0  0  1  0  0  0  0  0  0  0  0  0
    8.3419  -14.1582   21.1066 C   0  0  0  0  0  0  0  0  0  0  0  0
    7.6275  -13.5313   21.8967 O   0  0  0  0  0  0  0  0  0  0  0  0
    8.8252  -15.4386   21.4734 N   0  0  0  0  0  0  0  0  0  0  0  0
    8.7291  -16.0154   22.7617 C   0  0  1  0  0  0  0  0  0  0  0  0
    9.4036  -17.3327   22.9516 C   0  0  0  0  0  0  0  0  0  0  0  0
    9.1104  -18.2828   21.8175 C   0  0  0  0  0  0  0  0  0  0  0  0
    9.9972  -19.4725   21.8586 C   0  0  0  0  0  0  0  0  0  0  0  0
    9.5336  -20.6415   21.8875 O   0  0  0  0  0  0  0  0  0  0  0  0
    9.0571  -15.0971   23.8956 C   0  0  0  0  0  0  0  0  0  0  0  0
   10.2104  -14.6381   23.8992 O   0  0  0  0  0  0  0  0  0  0  0  0
   11.3727  -19.2979   21.8657 O   0  0  0  0  0  0  0  0  0  0  0  0
    5.9581  -13.4868   26.6097 C   0  0  0  0  0  0  0  0  0  0  0  0
    7.2331  -12.8202   26.1365 C   0  0  1  0  0  0  0  0  0  0  0  0
    7.5754  -11.7227   27.0973 C   0  0  0  0  0  0  0  0  0  0  0  0
    8.3036  -13.8484   25.9848 C   0  0  2  0  0  0  0  0  0  0  0  0
    8.1465  -14.7579   24.9044 N   0  0  0  0  0  0  0  0  0  0  0  0
    8.6933  -14.4096   27.2969 C   0  0  0  0  0  0  0  0  0  0  0  0
    9.1459  -13.5757   28.3104 O   0  0  0  0  0  0  0  0  0  0  0  0
    8.6345  -15.6158   27.5409 O   0  0  0  0  0  0  0  0  0  0  0  0
  1  5  1  0
  1  2  1  0
  2  3  1  0
  4  3  1  0
  5  4  1  0
  6  8  1  0
  5  6  1  1
  7  6  2  0
  9  8  1  0
 10 11  1  0
  9 10  1  6
 12 16  1  0
 12 11  1  0
 13 12  2  0
 14  9  1  0
 14 21  1  0
 15 14  2  0
 18 17  1  1
 18 20  1  0
 19 18  1  0
 20 21  1  6
 20 22  1  0
 22 23  1  0
 24 22  2  0
M  END
$$$$
