PEV.pdb
     RDKit          3D

 24 24  0  0  1  0  0  0  0  0999 V2000
    8.5518  -15.0442   19.2360 N   0  0  0  0  0  0  0  0  0  0  0  0
    8.3686  -14.5143   17.8783 C   0  0  0  0  0  0  0  0  0  0  0  0
    7.2369  -13.5238   18.1513 C   0  0  0  0  0  0  0  0  0  0  0  0
    7.7850  -12.8392   19.4046 C   0  0  0  0  0  0  0  0  0  0  0  0
    8.7023  -13.8578   20.0493 C   0  0  1  0  0  0  0  0  0  0  0  0
    8.2870  -14.1210   21.4662 C   0  0  0  0  0  0  0  0  0  0  0  0
    8.1625  -13.1799   22.2578 O   0  0  0  0  0  0  0  0  0  0  0  0
    8.0331  -15.4416   21.9124 N   0  0  0  0  0  0  0  0  0  0  0  0
    7.6061  -15.8023   23.2120 C   0  0  1  0  0  0  0  0  0  0  0  0
    7.6260  -17.2584   23.5373 C   0  0  0  0  0  0  0  0  0  0  0  0
    7.0153  -17.5411   24.8871 C   0  0  0  0  0  0  0  0  0  0  0  0
    7.0493  -18.9897   25.2093 C   0  0  0  0  0  0  0  0  0  0  0  0
    6.4167  -19.4641   26.1876 O   0  0  0  0  0  0  0  0  0  0  0  0
    8.2203  -15.0143   24.3248 C   0  0  0  0  0  0  0  0  0  0  0  0
    9.4607  -15.0242   24.3695 O   0  0  0  0  0  0  0  0  0  0  0  0
    7.7956  -19.8475   24.4158 O   0  0  0  0  0  0  0  0  0  0  0  0
    6.8295  -11.4394   25.6081 C   0  0  0  0  0  0  0  0  0  0  0  0
    7.0272  -12.3890   26.7712 C   0  0  1  0  0  0  0  0  0  0  0  0
    5.6794  -12.8418   27.2439 C   0  0  0  0  0  0  0  0  0  0  0  0
    7.9288  -13.5024   26.3548 C   0  0  2  0  0  0  0  0  0  0  0  0
    7.4737  -14.3020   25.2719 N   0  0  0  0  0  0  0  0  0  0  0  0
    8.4886  -14.2032   27.5313 C   0  0  0  0  0  0  0  0  0  0  0  0
    8.4165  -15.5865   27.6241 O   0  0  0  0  0  0  0  0  0  0  0  0
    9.0310  -13.6016   28.4596 O   0  0  0  0  0  0  0  0  0  0  0  0
  1  5  1  0
  1  2  1  0
  2  3  1  0
  4  3  1  0
  5  4  1  0
  6  8  1  0
  5  6  1  1
  7  6  2  0
  9  8  1  0
 10 11  1  0
  9 10  1  1
 12 16  1  0
 12 11  1  0
 13 12  2  0
 14  9  1  0
 14 21  1  0
 15 14  2  0
 18 17  1  6
 18 20  1  0
 19 18  1  0
 20 21  1  6
 20 22  1  0
 22 23  1  0
 24 22  2  0
M  END
$$$$
