PEV.pdb
     RDKit          3D

 24 24  0  0  1  0  0  0  0  0999 V2000
    8.7507  -15.2211   19.2052 N   0  0  0  0  0  0  0  0  0  0  0  0
    8.7202  -14.7219   17.8240 C   0  0  0  0  0  0  0  0  0  0  0  0
    7.4389  -13.8911   17.8908 C   0  0  0  0  0  0  0  0  0  0  0  0
    7.6832  -13.1381   19.1996 C   0  0  0  0  0  0  0  0  0  0  0  0
    8.6108  -14.0243   20.0051 C   0  0  1  0  0  0  0  0  0  0  0  0
    8.0113  -14.3391   21.3433 C   0  0  0  0  0  0  0  0  0  0  0  0
    7.6726  -13.4215   22.0990 O   0  0  0  0  0  0  0  0  0  0  0  0
    7.8260  -15.6820   21.7554 N   0  0  0  0  0  0  0  0  0  0  0  0
    7.3346  -16.0945   23.0163 C   0  0  1  0  0  0  0  0  0  0  0  0
    7.1989  -17.5654   23.2272 C   0  0  0  0  0  0  0  0  0  0  0  0
    6.6274  -17.8880   24.5853 C   0  0  0  0  0  0  0  0  0  0  0  0
    6.4524  -19.3503   24.7708 C   0  0  0  0  0  0  0  0  0  0  0  0
    6.4067  -19.8704   25.9152 O   0  0  0  0  0  0  0  0  0  0  0  0
    8.0001  -15.4611   24.1963 C   0  0  0  0  0  0  0  0  0  0  0  0
    9.2329  -15.5938   24.2536 O   0  0  0  0  0  0  0  0  0  0  0  0
    6.3358  -20.1698   23.6583 O   0  0  0  0  0  0  0  0  0  0  0  0
    7.7694  -11.8435   27.5174 C   0  0  0  0  0  0  0  0  0  0  0  0
    6.9857  -12.7449   26.5863 C   0  0  1  0  0  0  0  0  0  0  0  0
    6.5382  -11.9321   25.4098 C   0  0  0  0  0  0  0  0  0  0  0  0
    7.8189  -13.9281   26.2234 C   0  0  2  0  0  0  0  0  0  0  0  0
    7.3070  -14.7586   25.1903 N   0  0  0  0  0  0  0  0  0  0  0  0
    8.3533  -14.5943   27.4314 C   0  0  0  0  0  0  0  0  0  0  0  0
    9.1196  -13.8825   28.3444 O   0  0  0  0  0  0  0  0  0  0  0  0
    8.1457  -15.7843   27.6734 O   0  0  0  0  0  0  0  0  0  0  0  0
  1  5  1  0
  1  2  1  0
  2  3  1  0
  4  3  1  0
  5  4  1  0
  6  8  1  0
  5  6  1  1
  7  6  2  0
  9  8  1  0
 10 11  1  0
  9 10  1  1
 12 16  1  0
 12 11  1  0
 13 12  2  0
 14  9  1  0
 14 21  1  0
 15 14  2  0
 18 17  1  1
 18 20  1  0
 19 18  1  0
 20 21  1  1
 20 22  1  0
 22 23  1  0
 24 22  2  0
M  END
$$$$
