PEV.pdb
     RDKit          3D

 24 24  0  0  1  0  0  0  0  0999 V2000
    9.2389  -14.4166   18.9106 N   0  0  0  0  0  0  0  0  0  0  0  0
    8.8638  -13.9012   17.5873 C   0  0  0  0  0  0  0  0  0  0  0  0
    7.3445  -13.8790   17.7533 C   0  0  0  0  0  0  0  0  0  0  0  0
    7.2412  -13.2165   19.1281 C   0  0  0  0  0  0  0  0  0  0  0  0
    8.5445  -13.5410   19.8287 C   0  0  1  0  0  0  0  0  0  0  0  0
    8.2850  -14.2291   21.1357 C   0  0  0  0  0  0  0  0  0  0  0  0
    7.4811  -13.7441   21.9396 O   0  0  0  0  0  0  0  0  0  0  0  0
    8.9522  -15.4354   21.4635 N   0  0  0  0  0  0  0  0  0  0  0  0
    8.8808  -16.1020   22.7093 C   0  0  1  0  0  0  0  0  0  0  0  0
    9.6915  -17.3474   22.8435 C   0  0  0  0  0  0  0  0  0  0  0  0
    9.4310  -18.0492   24.1529 C   0  0  0  0  0  0  0  0  0  0  0  0
   10.2795  -19.2579   24.3029 C   0  0  0  0  0  0  0  0  0  0  0  0
   11.0876  -19.6133   23.4069 O   0  0  0  0  0  0  0  0  0  0  0  0
    9.0691  -15.2293   23.9091 C   0  0  0  0  0  0  0  0  0  0  0  0
   10.1535  -14.6286   23.9719 O   0  0  0  0  0  0  0  0  0  0  0  0
   10.1837  -20.0192   25.4579 O   0  0  0  0  0  0  0  0  0  0  0  0
    7.1054  -12.3839   27.3396 C   0  0  0  0  0  0  0  0  0  0  0  0
    6.8709  -13.3961   26.2377 C   0  0  1  0  0  0  0  0  0  0  0  0
    6.4156  -12.6625   25.0132 C   0  0  0  0  0  0  0  0  0  0  0  0
    8.1085  -14.2042   26.0347 C   0  0  2  0  0  0  0  0  0  0  0  0
    8.1059  -15.0788   24.9148 N   0  0  0  0  0  0  0  0  0  0  0  0
    8.6105  -14.7419   27.3182 C   0  0  0  0  0  0  0  0  0  0  0  0
    8.9982  -13.8811   28.3361 O   0  0  0  0  0  0  0  0  0  0  0  0
    8.7042  -15.9513   27.5339 O   0  0  0  0  0  0  0  0  0  0  0  0
  1  5  1  0
  1  2  1  0
  2  3  1  0
  4  3  1  0
  5  4  1  0
  6  8  1  0
  5  6  1  1
  7  6  2  0
  9  8  1  0
 10 11  1  0
  9 10  1  6
 12 16  1  0
 12 11  1  0
 13 12  2  0
 14  9  1  0
 14 21  1  0
 15 14  2  0
 18 17  1  1
 18 20  1  0
 19 18  1  0
 20 21  1  6
 20 22  1  0
 22 23  1  0
 24 22  2  0
M  END
$$$$
