WRK.pdb
     RDKit          3D

 35 36  0  0  1  0  0  0  0  0999 V2000
    6.2445  -17.1621   25.4358 N   0  0  0  0  0  0  0  0  0  0  0  0
    7.0203  -16.0506   25.0061 C   0  0  1  0  0  0  0  0  0  0  0  0
    8.2548  -15.7580   25.7774 C   0  0  0  0  0  0  0  0  0  0  0  0
    7.9741  -14.7328   26.8031 C   0  0  0  0  0  0  0  0  0  0  0  0
    8.1963  -14.8225   28.1668 C   0  0  0  0  0  0  0  0  0  0  0  0
    7.8312  -13.6800   28.7665 N   0  0  0  0  0  0  0  0  0  0  0  0
    7.3690  -12.8256   27.8403 C   0  0  0  0  0  0  0  0  0  0  0  0
    6.8699  -11.5469   27.8980 C   0  0  0  0  0  0  0  0  0  0  0  0
    6.4423  -10.8700   26.7667 C   0  0  0  0  0  0  0  0  0  0  0  0
    6.5151  -11.4911   25.5336 C   0  0  0  0  0  0  0  0  0  0  0  0
    7.0184  -12.7795   25.4779 C   0  0  0  0  0  0  0  0  0  0  0  0
    7.4524  -13.4745   26.5989 C   0  0  0  0  0  0  0  0  0  0  0  0
    7.2627  -16.1511   23.5366 C   0  0  0  0  0  0  0  0  0  0  0  0
    7.0511  -17.2502   22.9532 O   0  0  0  0  0  0  0  0  0  0  0  0
    9.6354  -13.5795   16.2306 N   0  0  0  0  0  0  0  0  0  0  0  0
    8.6386  -14.6161   16.2186 C   0  0  0  0  0  0  0  0  0  0  0  0
    8.5567  -15.3715   15.1816 N   0  0  0  0  0  0  0  0  0  0  0  0
    7.7883  -14.7807   17.3201 N   0  0  0  0  0  0  0  0  0  0  0  0
    7.4796  -13.5883   18.1667 C   0  0  0  0  0  0  0  0  0  0  0  0
    8.3304  -13.6768   19.3543 C   0  0  0  0  0  0  0  0  0  0  0  0
    7.8515  -13.9998   20.6913 C   0  0  0  0  0  0  0  0  0  0  0  0
    8.0508  -15.3199   21.3352 C   0  0  2  0  0  0  0  0  0  0  0  0
    7.7182  -15.0700   22.7728 N   0  0  0  0  0  0  0  0  0  0  0  0
    9.4676  -15.7761   21.3292 C   0  0  0  0  0  0  0  0  0  0  0  0
   10.3534  -15.3436   22.0750 O   0  0  0  0  0  0  0  0  0  0  0  0
    7.9009  -16.1736   15.1214 N   0  0  0  0  0  0  0  0  0  0  0  0
    9.9292  -16.8041   20.4066 C   0  0  2  0  0  0  0  0  0  0  0  0
   11.2779  -17.3569   20.5172 C   0  0  0  0  0  0  0  0  0  0  0  0
   11.4449  -18.5608   19.6135 C   0  0  0  0  0  0  0  0  0  0  0  0
   12.8574  -19.0208   19.6578 C   0  0  0  0  0  0  0  0  0  0  0  0
   13.1340  -20.2817   18.8834 C   0  0  0  0  0  0  0  0  0  0  0  0
   14.5161  -20.8170   19.0277 N   0  0  0  0  0  0  0  0  0  0  0  0
   14.6152  -21.9978   18.1704 C   0  0  0  0  0  0  0  0  0  0  0  0
   12.2236  -16.2706   20.1507 O   0  0  0  0  0  0  0  0  0  0  0  0
   11.9814  -15.4518   19.0594 O   0  0  0  0  0  0  0  0  0  0  0  0
  2  1  1  1
  3  2  1  0
  4  3  1  0
  4  5  2  0
  6  5  1  0
  7 12  2  0
  7  6  1  0
  8  7  1  0
  9 10  1  0
  9  8  2  0
 10 11  2  0
 11 12  1  0
 12  4  1  0
 13  2  1  0
 14 13  2  0
 15 16  1  0
 16 17  2  0
 18 16  1  0
 18 19  1  0
 20 21  1  0
 20 19  1  0
 22 21  1  6
 22 23  1  0
 22 24  1  0
 23 13  1  0
 24 25  2  0
 26 24  1  0
 26 27  1  0
 27 33  1  0
 27 28  1  1
 29 28  1  0
 30 29  1  0
 31 30  1  0
 31 32  1  0
 33 34  1  0
 35 33  2  0
M  END
$$$$
