WRK.pdb
     RDKit          3D

 35 36  0  0  1  0  0  0  0  0999 V2000
    6.1220  -17.9738   25.4033 N   0  0  0  0  0  0  0  0  0  0  0  0
    6.8856  -16.8118   25.1055 C   0  0  1  0  0  0  0  0  0  0  0  0
    7.9729  -16.4640   26.0550 C   0  0  0  0  0  0  0  0  0  0  0  0
    7.6007  -15.2589   26.8238 C   0  0  0  0  0  0  0  0  0  0  0  0
    7.1824  -15.1966   28.1423 C   0  0  0  0  0  0  0  0  0  0  0  0
    6.9547  -13.9219   28.4908 N   0  0  0  0  0  0  0  0  0  0  0  0
    7.2090  -13.1267   27.4398 C   0  0  0  0  0  0  0  0  0  0  0  0
    7.1384  -11.7690   27.2419 C   0  0  0  0  0  0  0  0  0  0  0  0
    7.4570  -11.1830   26.0269 C   0  0  0  0  0  0  0  0  0  0  0  0
    7.8601  -11.9801   24.9716 C   0  0  0  0  0  0  0  0  0  0  0  0
    7.9305  -13.3478   25.1734 C   0  0  0  0  0  0  0  0  0  0  0  0
    7.6165  -13.9542   26.3824 C   0  0  0  0  0  0  0  0  0  0  0  0
    7.3484  -16.8701   23.6875 C   0  0  0  0  0  0  0  0  0  0  0  0
    7.7215  -17.9767   23.2085 O   0  0  0  0  0  0  0  0  0  0  0  0
    9.7230  -14.1148   17.0379 N   0  0  0  0  0  0  0  0  0  0  0  0
    8.3841  -13.9548   16.5379 C   0  0  0  0  0  0  0  0  0  0  0  0
    8.1492  -14.2661   15.3128 N   0  0  0  0  0  0  0  0  0  0  0  0
    7.3762  -13.4701   17.3820 N   0  0  0  0  0  0  0  0  0  0  0  0
    7.7477  -13.0495   18.7673 C   0  0  0  0  0  0  0  0  0  0  0  0
    8.1327  -14.2613   19.4920 C   0  0  0  0  0  0  0  0  0  0  0  0
    7.6654  -14.6090   20.8269 C   0  0  0  0  0  0  0  0  0  0  0  0
    7.9820  -15.8932   21.4961 C   0  0  2  0  0  0  0  0  0  0  0  0
    7.3866  -15.7411   22.8607 N   0  0  0  0  0  0  0  0  0  0  0  0
    9.4385  -16.1032   21.7199 C   0  0  0  0  0  0  0  0  0  0  0  0
   10.1772  -15.3322   22.3425 O   0  0  0  0  0  0  0  0  0  0  0  0
    7.2285  -14.1097   14.8602 N   0  0  0  0  0  0  0  0  0  0  0  0
   10.1239  -17.2781   21.1993 C   0  0  2  0  0  0  0  0  0  0  0  0
   11.5723  -17.4201   21.3353 C   0  0  0  0  0  0  0  0  0  0  0  0
   11.9363  -18.8056   21.8273 C   0  0  0  0  0  0  0  0  0  0  0  0
   11.8034  -18.8564   23.3066 C   0  0  0  0  0  0  0  0  0  0  0  0
   12.1072  -20.1967   23.9209 C   0  0  0  0  0  0  0  0  0  0  0  0
   11.9701  -20.2541   25.4025 N   0  0  0  0  0  0  0  0  0  0  0  0
   12.1457  -21.6506   25.8002 C   0  0  0  0  0  0  0  0  0  0  0  0
   12.1624  -17.1489   19.9985 O   0  0  0  0  0  0  0  0  0  0  0  0
   13.3931  -16.5242   19.8753 O   0  0  0  0  0  0  0  0  0  0  0  0
  2  1  1  1
  3  2  1  0
  4  3  1  0
  4  5  2  0
  6  5  1  0
  7 12  2  0
  7  6  1  0
  8  7  1  0
  9 10  1  0
  9  8  2  0
 10 11  2  0
 11 12  1  0
 12  4  1  0
 13  2  1  0
 14 13  2  0
 15 16  1  0
 16 17  2  0
 18 16  1  0
 18 19  1  0
 20 21  1  0
 20 19  1  0
 22 21  1  6
 22 23  1  0
 22 24  1  0
 23 13  1  0
 24 25  2  0
 26 24  1  0
 26 27  1  0
 27 33  1  0
 27 28  1  1
 29 28  1  0
 30 29  1  0
 31 30  1  0
 31 32  1  0
 33 34  1  0
 35 33  2  0
M  END
$$$$
