WRK.pdb
     RDKit          3D

 35 36  0  0  1  0  0  0  0  0999 V2000
    6.2750  -18.0180   25.1004 N   0  0  0  0  0  0  0  0  0  0  0  0
    7.0263  -16.9180   24.6030 C   0  0  1  0  0  0  0  0  0  0  0  0
    7.7705  -16.1097   25.6017 C   0  0  0  0  0  0  0  0  0  0  0  0
    6.9365  -14.9766   26.0516 C   0  0  0  0  0  0  0  0  0  0  0  0
    5.7456  -15.0345   26.7556 C   0  0  0  0  0  0  0  0  0  0  0  0
    5.2960  -13.7946   26.9980 N   0  0  0  0  0  0  0  0  0  0  0  0
    6.1545  -12.9056   26.4743 C   0  0  0  0  0  0  0  0  0  0  0  0
    6.1824  -11.5329   26.4257 C   0  0  0  0  0  0  0  0  0  0  0  0
    7.2057  -10.8373   25.8011 C   0  0  0  0  0  0  0  0  0  0  0  0
    8.2379  -11.5363   25.2033 C   0  0  0  0  0  0  0  0  0  0  0  0
    8.2077  -12.9194   25.2535 C   0  0  0  0  0  0  0  0  0  0  0  0
    7.1925  -13.6348   25.8746 C   0  0  0  0  0  0  0  0  0  0  0  0
    7.8828  -17.3727   23.4681 C   0  0  0  0  0  0  0  0  0  0  0  0
    8.4839  -18.4789   23.5575 O   0  0  0  0  0  0  0  0  0  0  0  0
    8.1185  -13.9849   15.5518 N   0  0  0  0  0  0  0  0  0  0  0  0
    7.9537  -13.6463   16.9398 C   0  0  0  0  0  0  0  0  0  0  0  0
    7.3632  -12.5424   17.2324 N   0  0  0  0  0  0  0  0  0  0  0  0
    8.4325  -14.5122   17.9320 N   0  0  0  0  0  0  0  0  0  0  0  0
    8.8956  -15.8742   17.5265 C   0  0  0  0  0  0  0  0  0  0  0  0
    9.2705  -16.5797   18.7527 C   0  0  0  0  0  0  0  0  0  0  0  0
    8.6804  -16.3325   20.0612 C   0  0  0  0  0  0  0  0  0  0  0  0
    9.0066  -17.1270   21.2693 C   0  0  2  0  0  0  0  0  0  0  0  0
    8.0488  -16.6183   22.3006 N   0  0  0  0  0  0  0  0  0  0  0  0
   10.3628  -16.8481   21.8155 C   0  0  0  0  0  0  0  0  0  0  0  0
   10.7712  -15.7337   22.1606 O   0  0  0  0  0  0  0  0  0  0  0  0
    7.2193  -12.2244   18.2097 N   0  0  0  0  0  0  0  0  0  0  0  0
   11.3440  -17.9105   21.9876 C   0  0  1  0  0  0  0  0  0  0  0  0
   12.6908  -17.6130   22.4716 C   0  0  0  0  0  0  0  0  0  0  0  0
   13.2010  -18.7223   23.3679 C   0  0  0  0  0  0  0  0  0  0  0  0
   12.5318  -18.6361   24.6920 C   0  0  0  0  0  0  0  0  0  0  0  0
   12.9209  -19.7158   25.6661 C   0  0  0  0  0  0  0  0  0  0  0  0
   12.2972  -19.6008   27.0134 N   0  0  0  0  0  0  0  0  0  0  0  0
   12.0944  -20.9598   27.5145 C   0  0  0  0  0  0  0  0  0  0  0  0
   13.5550  -17.4450   21.2743 O   0  0  0  0  0  0  0  0  0  0  0  0
   14.5872  -16.5206   21.2634 O   0  0  0  0  0  0  0  0  0  0  0  0
  2  1  1  1
  3  2  1  0
  4  3  1  0
  4  5  2  0
  6  5  1  0
  7 12  2  0
  7  6  1  0
  8  7  1  0
  9 10  1  0
  9  8  2  0
 10 11  2  0
 11 12  1  0
 12  4  1  0
 13  2  1  0
 14 13  2  0
 15 16  1  0
 16 17  2  0
 18 16  1  0
 18 19  1  0
 20 21  1  0
 20 19  1  0
 22 21  1  6
 22 23  1  0
 22 24  1  0
 23 13  1  0
 24 25  2  0
 26 24  1  0
 26 27  1  0
 27 33  1  0
 27 28  1  1
 29 28  1  0
 30 29  1  0
 31 30  1  0
 31 32  1  0
 33 34  1  0
 35 33  2  0
M  END
$$$$
