WRK.pdb
     RDKit          3D

 35 36  0  0  1  0  0  0  0  0999 V2000
    5.9438  -18.5767   24.1906 N   0  0  0  0  0  0  0  0  0  0  0  0
    6.5543  -17.2927   24.2096 C   0  0  1  0  0  0  0  0  0  0  0  0
    7.2675  -16.9091   25.4541 C   0  0  0  0  0  0  0  0  0  0  0  0
    6.6624  -15.6874   26.0225 C   0  0  0  0  0  0  0  0  0  0  0  0
    5.4713  -15.5837   26.7209 C   0  0  0  0  0  0  0  0  0  0  0  0
    5.2676  -14.3115   27.0927 N   0  0  0  0  0  0  0  0  0  0  0  0
    6.2913  -13.5582   26.6614 C   0  0  0  0  0  0  0  0  0  0  0  0
    6.5866  -12.2198   26.7559 C   0  0  0  0  0  0  0  0  0  0  0  0
    7.7360  -11.6770   26.2035 C   0  0  0  0  0  0  0  0  0  0  0  0
    8.6225  -12.4989   25.5325 C   0  0  0  0  0  0  0  0  0  0  0  0
    8.3229  -13.8471   25.4385 C   0  0  0  0  0  0  0  0  0  0  0  0
    7.1776  -14.4105   25.9853 C   0  0  0  0  0  0  0  0  0  0  0  0
    7.3891  -17.1202   22.9841 C   0  0  0  0  0  0  0  0  0  0  0  0
    7.9212  -18.1356   22.4559 O   0  0  0  0  0  0  0  0  0  0  0  0
    6.9250  -14.5810   17.2101 N   0  0  0  0  0  0  0  0  0  0  0  0
    7.9303  -13.8058   16.5342 C   0  0  0  0  0  0  0  0  0  0  0  0
    8.1025  -13.9961   15.2744 N   0  0  0  0  0  0  0  0  0  0  0  0
    8.6915  -12.8723   17.2499 N   0  0  0  0  0  0  0  0  0  0  0  0
    8.4444  -12.7255   18.7167 C   0  0  0  0  0  0  0  0  0  0  0  0
    8.7487  -14.0182   19.3318 C   0  0  0  0  0  0  0  0  0  0  0  0
    8.0977  -14.5382   20.5264 C   0  0  0  0  0  0  0  0  0  0  0  0
    8.4764  -15.8166   21.1740 C   0  0  2  0  0  0  0  0  0  0  0  0
    7.6086  -15.8708   22.3920 N   0  0  0  0  0  0  0  0  0  0  0  0
    9.8753  -15.8336   21.6824 C   0  0  0  0  0  0  0  0  0  0  0  0
   10.8863  -15.7713   20.9740 O   0  0  0  0  0  0  0  0  0  0  0  0
    8.7772  -13.4451   14.7102 N   0  0  0  0  0  0  0  0  0  0  0  0
   10.1632  -15.9300   23.1067 C   0  0  2  0  0  0  0  0  0  0  0  0
   11.5418  -16.0002   23.5877 C   0  0  0  0  0  0  0  0  0  0  0  0
   11.6381  -16.8604   24.8306 C   0  0  0  0  0  0  0  0  0  0  0  0
   13.0664  -17.0353   25.2020 C   0  0  0  0  0  0  0  0  0  0  0  0
   13.2993  -17.8635   26.4374 C   0  0  0  0  0  0  0  0  0  0  0  0
   14.7212  -17.9619   26.8687 N   0  0  0  0  0  0  0  0  0  0  0  0
   14.7613  -18.8501   28.0300 C   0  0  0  0  0  0  0  0  0  0  0  0
   12.3602  -16.5579   22.4796 O   0  0  0  0  0  0  0  0  0  0  0  0
   11.9873  -17.7267   21.8355 O   0  0  0  0  0  0  0  0  0  0  0  0
  2  1  1  1
  3  2  1  0
  4  3  1  0
  4  5  2  0
  6  5  1  0
  7 12  2  0
  7  6  1  0
  8  7  1  0
  9 10  1  0
  9  8  2  0
 10 11  2  0
 11 12  1  0
 12  4  1  0
 13  2  1  0
 14 13  2  0
 15 16  1  0
 16 17  2  0
 18 16  1  0
 18 19  1  0
 20 21  1  0
 20 19  1  0
 22 21  1  1
 22 23  1  0
 22 24  1  0
 23 13  1  0
 24 25  2  0
 26 24  1  0
 26 27  1  0
 27 33  1  0
 27 28  1  6
 29 28  1  0
 30 29  1  0
 31 30  1  0
 31 32  1  0
 33 34  1  0
 35 33  2  0
M  END
$$$$
