WRK.pdb
     RDKit          3D

 35 36  0  0  1  0  0  0  0  0999 V2000
    6.3379  -17.2256   23.8649 N   0  0  0  0  0  0  0  0  0  0  0  0
    7.1200  -16.0717   23.5847 C   0  0  1  0  0  0  0  0  0  0  0  0
    7.9141  -15.5125   24.7078 C   0  0  0  0  0  0  0  0  0  0  0  0
    7.0363  -14.7304   25.6021 C   0  0  0  0  0  0  0  0  0  0  0  0
    6.0159  -15.2062   26.4080 C   0  0  0  0  0  0  0  0  0  0  0  0
    5.4596  -14.1933   27.0884 N   0  0  0  0  0  0  0  0  0  0  0  0
    6.0801  -13.0495   26.7595 C   0  0  0  0  0  0  0  0  0  0  0  0
    5.9168  -11.7405   27.1431 C   0  0  0  0  0  0  0  0  0  0  0  0
    6.7046  -10.7192   26.6358 C   0  0  0  0  0  0  0  0  0  0  0  0
    7.6904  -11.0144   25.7125 C   0  0  0  0  0  0  0  0  0  0  0  0
    7.8532  -12.3342   25.3275 C   0  0  0  0  0  0  0  0  0  0  0  0
    7.0752  -13.3716   25.8241 C   0  0  0  0  0  0  0  0  0  0  0  0
    7.9358  -16.3091   22.3573 C   0  0  0  0  0  0  0  0  0  0  0  0
    8.0836  -17.4902   21.9375 O   0  0  0  0  0  0  0  0  0  0  0  0
    8.9732  -12.7807   17.2748 N   0  0  0  0  0  0  0  0  0  0  0  0
    8.2902  -13.8574   16.6095 C   0  0  0  0  0  0  0  0  0  0  0  0
    8.7155  -14.2280   15.4542 N   0  0  0  0  0  0  0  0  0  0  0  0
    7.1910  -14.4726   17.2230 N   0  0  0  0  0  0  0  0  0  0  0  0
    6.9874  -14.2696   18.6898 C   0  0  0  0  0  0  0  0  0  0  0  0
    8.2008  -13.6335   19.2045 C   0  0  0  0  0  0  0  0  0  0  0  0
    9.3829  -14.3541   19.6571 C   0  0  0  0  0  0  0  0  0  0  0  0
    9.3252  -15.6246   20.4185 C   0  0  2  0  0  0  0  0  0  0  0  0
    8.5482  -15.2696   21.6473 N   0  0  0  0  0  0  0  0  0  0  0  0
   10.6534  -16.0848   20.9080 C   0  0  0  0  0  0  0  0  0  0  0  0
   11.6533  -16.2418   20.1985 O   0  0  0  0  0  0  0  0  0  0  0  0
    8.2478  -14.9656   14.8936 N   0  0  0  0  0  0  0  0  0  0  0  0
   10.8774  -16.3962   22.3129 C   0  0  2  0  0  0  0  0  0  0  0  0
   12.1653  -16.9176   22.7669 C   0  0  0  0  0  0  0  0  0  0  0  0
   12.1825  -17.0811   24.2726 C   0  0  0  0  0  0  0  0  0  0  0  0
   13.4627  -17.7113   24.6875 C   0  0  0  0  0  0  0  0  0  0  0  0
   13.5732  -18.0031   26.1602 C   0  0  0  0  0  0  0  0  0  0  0  0
   14.8583  -18.6256   26.5825 N   0  0  0  0  0  0  0  0  0  0  0  0
   14.7457  -18.9266   28.0093 C   0  0  0  0  0  0  0  0  0  0  0  0
   12.3734  -18.2188   22.0796 O   0  0  0  0  0  0  0  0  0  0  0  0
   13.5881  -18.5273   21.4885 O   0  0  0  0  0  0  0  0  0  0  0  0
  2  1  1  1
  3  2  1  0
  4  3  1  0
  4  5  2  0
  6  5  1  0
  7 12  2  0
  7  6  1  0
  8  7  1  0
  9 10  1  0
  9  8  2  0
 10 11  2  0
 11 12  1  0
 12  4  1  0
 13  2  1  0
 14 13  2  0
 15 16  1  0
 16 17  2  0
 18 16  1  0
 18 19  1  0
 20 21  1  0
 20 19  1  0
 22 21  1  6
 22 23  1  0
 22 24  1  0
 23 13  1  0
 24 25  2  0
 26 24  1  0
 26 27  1  0
 27 33  1  0
 27 28  1  1
 29 28  1  0
 30 29  1  0
 31 30  1  0
 31 32  1  0
 33 34  1  0
 35 33  2  0
M  END
$$$$
