WRK.pdb
     RDKit          3D

 35 36  0  0  1  0  0  0  0  0999 V2000
    6.2014  -16.9910   24.0314 N   0  0  0  0  0  0  0  0  0  0  0  0
    7.2497  -16.0384   23.9069 C   0  0  1  0  0  0  0  0  0  0  0  0
    7.9414  -15.6371   25.1579 C   0  0  0  0  0  0  0  0  0  0  0  0
    7.0838  -14.7165   25.9319 C   0  0  0  0  0  0  0  0  0  0  0  0
    6.0042  -15.0451   26.7342 C   0  0  0  0  0  0  0  0  0  0  0  0
    5.4906  -13.9368   27.2875 N   0  0  0  0  0  0  0  0  0  0  0  0
    6.1975  -12.8723   26.8768 C   0  0  0  0  0  0  0  0  0  0  0  0
    6.1066  -11.5239   27.1236 C   0  0  0  0  0  0  0  0  0  0  0  0
    6.9790  -10.6093   26.5549 C   0  0  0  0  0  0  0  0  0  0  0  0
    7.9776  -11.0559   25.7094 C   0  0  0  0  0  0  0  0  0  0  0  0
    8.0673  -12.4151   25.4622 C   0  0  0  0  0  0  0  0  0  0  0  0
    7.2041  -13.3474   26.0223 C   0  0  0  0  0  0  0  0  0  0  0  0
    8.1929  -16.4732   22.8346 C   0  0  0  0  0  0  0  0  0  0  0  0
    8.5067  -17.6929   22.7508 O   0  0  0  0  0  0  0  0  0  0  0  0
    9.3108  -14.2266   15.4503 N   0  0  0  0  0  0  0  0  0  0  0  0
    8.0059  -13.9847   16.0046 C   0  0  0  0  0  0  0  0  0  0  0  0
    6.9831  -14.1189   15.2374 N   0  0  0  0  0  0  0  0  0  0  0  0
    7.8758  -13.6131   17.3492 N   0  0  0  0  0  0  0  0  0  0  0  0
    9.1087  -13.5394   18.1910 C   0  0  0  0  0  0  0  0  0  0  0  0
    9.0357  -14.6415   19.1513 C   0  0  0  0  0  0  0  0  0  0  0  0
   10.0962  -14.9950   20.0850 C   0  0  0  0  0  0  0  0  0  0  0  0
    9.9484  -16.0272   21.1385 C   0  0  2  0  0  0  0  0  0  0  0  0
    8.7481  -15.5790   21.9118 N   0  0  0  0  0  0  0  0  0  0  0  0
   11.0691  -16.0410   22.1181 C   0  0  0  0  0  0  0  0  0  0  0  0
   11.2717  -15.1722   22.9736 O   0  0  0  0  0  0  0  0  0  0  0  0
    6.0096  -13.9821   15.5702 N   0  0  0  0  0  0  0  0  0  0  0  0
   12.0456  -17.1213   22.1377 C   0  0  2  0  0  0  0  0  0  0  0  0
   13.1465  -17.1165   23.0993 C   0  0  0  0  0  0  0  0  0  0  0  0
   13.3984  -18.5085   23.6404 C   0  0  0  0  0  0  0  0  0  0  0  0
   14.5948  -18.4880   24.5216 C   0  0  0  0  0  0  0  0  0  0  0  0
   14.9844  -19.8280   25.0863 C   0  0  0  0  0  0  0  0  0  0  0  0
   16.1351  -19.8009   26.0311 N   0  0  0  0  0  0  0  0  0  0  0  0
   16.4105  -21.1841   26.4184 C   0  0  0  0  0  0  0  0  0  0  0  0
   14.3405  -16.5883   22.3893 O   0  0  0  0  0  0  0  0  0  0  0  0
   14.4316  -16.6435   21.0078 O   0  0  0  0  0  0  0  0  0  0  0  0
  2  1  1  1
  3  2  1  0
  4  3  1  0
  4  5  2  0
  6  5  1  0
  7 12  2  0
  7  6  1  0
  8  7  1  0
  9 10  1  0
  9  8  2  0
 10 11  2  0
 11 12  1  0
 12  4  1  0
 13  2  1  0
 14 13  2  0
 15 16  1  0
 16 17  2  0
 18 16  1  0
 18 19  1  0
 20 21  1  0
 20 19  1  0
 22 21  1  6
 22 23  1  0
 22 24  1  0
 23 13  1  0
 24 25  2  0
 26 24  1  0
 26 27  1  0
 27 33  1  0
 27 28  1  1
 29 28  1  0
 30 29  1  0
 31 30  1  0
 31 32  1  0
 33 34  1  0
 35 33  2  0
M  END
$$$$
