RIC.pdb
     RDKit          3D

 26 25  0  0  1  0  0  0  0  0999 V2000
   22.5288  -22.2042   -7.5449 N   0  0  0  0  0  0  0  0  0  0  0  0
   21.2863  -21.7334   -8.0296 C   0  0  0  0  0  0  0  0  0  0  0  0
   20.2132  -22.2997   -7.6035 N   0  0  0  0  0  0  0  0  0  0  0  0
   21.2095  -20.6675   -8.9612 N   0  0  0  0  0  0  0  0  0  0  0  0
   22.2745  -20.4778   -9.9235 C   0  0  0  0  0  0  0  0  0  0  0  0
   23.5783  -20.2818   -9.2165 C   0  0  0  0  0  0  0  0  0  0  0  0
   24.7250  -19.9891  -10.1439 C   0  0  0  0  0  0  0  0  0  0  0  0
   24.6838  -20.9281  -11.3024 C   0  0  2  0  0  0  0  0  0  0  0  0
   25.7222  -21.9285  -11.1614 N   0  0  0  0  0  0  0  0  0  0  0  0
   24.9322  -20.2130  -12.6019 C   0  0  0  0  0  0  0  0  0  0  0  0
   24.8302  -18.9892  -12.6923 O   0  0  0  0  0  0  0  0  0  0  0  0
   19.2910  -21.9724   -7.9008 C   0  0  0  0  0  0  0  0  0  0  0  0
   28.6671  -22.5524  -14.7750 C   0  0  0  0  0  0  0  0  0  0  0  0
   27.9494  -21.2704  -14.9223 C   0  0  2  0  0  0  0  0  0  0  0  0
   26.6428  -21.2710  -15.6026 C   0  0  0  0  0  0  0  0  0  0  0  0
   26.7311  -21.2335  -17.1106 C   0  0  2  0  0  0  0  0  0  0  0  0
   25.5483  -20.4134  -15.0594 N   0  0  0  0  0  0  0  0  0  0  0  0
   25.2843  -20.9895  -13.7077 C   0  0  0  0  0  0  0  0  0  0  0  0
   24.2671  -20.4141  -15.7406 O   0  0  0  0  0  0  0  0  0  0  0  0
   23.5945  -21.5037  -15.8577 N   0  0  0  0  0  0  0  0  0  0  0  0
   23.6058  -19.2921  -16.3315 C   0  0  1  0  0  0  0  0  0  0  0  0
   22.3628  -19.4106  -17.0621 C   0  0  0  0  0  0  0  0  0  0  0  0
   21.6539  -18.0547  -17.1268 S   0  0  0  0  0  0  0  0  0  0  0  0
   21.5137  -17.2996  -15.4862 C   0  0  0  0  0  0  0  0  0  0  0  0
   22.4573  -20.0293  -18.3770 O   0  0  0  0  0  0  0  0  0  0  0  0
   21.5387  -20.7416  -18.8397 O   0  0  0  0  0  0  0  0  0  0  0  0
  1  2  1  0
  2  3  2  0
  4  2  1  0
  5  4  1  0
  6  5  1  0
  7  6  1  0
  8  7  1  0
  8  9  1  1
 10 11  2  0
 10  8  1  0
 13 12  1  0
 14 13  1  0
 14 15  1  1
 16 17  1  6
 16 14  1  0
 17 10  1  0
 18 16  1  0
 19 18  2  0
 20 18  1  0
 21 20  1  0
 22 23  1  0
 21 22  1  6
 24 21  1  0
 24 26  1  0
 25 24  2  0
M  END
$$$$
