RIC.pdb
     RDKit          3D

 26 25  0  0  1  0  0  0  0  0999 V2000
   21.9659  -21.8984  -14.0328 N   0  0  0  0  0  0  0  0  0  0  0  0
   22.0734  -21.1538  -15.2304 C   0  0  0  0  0  0  0  0  0  0  0  0
   21.0644  -21.1348  -16.0274 N   0  0  0  0  0  0  0  0  0  0  0  0
   23.2555  -20.4430  -15.5580 N   0  0  0  0  0  0  0  0  0  0  0  0
   23.9590  -19.7075  -14.5283 C   0  0  0  0  0  0  0  0  0  0  0  0
   23.8555  -20.4263  -13.2203 C   0  0  0  0  0  0  0  0  0  0  0  0
   24.4612  -19.6696  -12.0710 C   0  0  0  0  0  0  0  0  0  0  0  0
   25.8319  -20.1904  -11.7960 C   0  0  2  0  0  0  0  0  0  0  0  0
   26.2644  -21.0372  -12.8891 N   0  0  0  0  0  0  0  0  0  0  0  0
   25.8639  -21.0288  -10.5477 C   0  0  0  0  0  0  0  0  0  0  0  0
   25.7766  -22.2562  -10.5950 O   0  0  0  0  0  0  0  0  0  0  0  0
   21.1070  -20.6369  -16.9197 C   0  0  0  0  0  0  0  0  0  0  0  0
   27.4887  -18.3970   -5.5960 C   0  0  0  0  0  0  0  0  0  0  0  0
   26.6463  -18.9922   -6.6526 C   0  0  2  0  0  0  0  0  0  0  0  0
   27.0547  -20.2835   -7.2323 C   0  0  0  0  0  0  0  0  0  0  0  0
   28.4251  -20.2696   -7.8688 C   0  0  1  0  0  0  0  0  0  0  0  0
   26.0549  -21.0697   -8.0139 N   0  0  0  0  0  0  0  0  0  0  0  0
   25.9969  -20.3631   -9.3275 C   0  0  0  0  0  0  0  0  0  0  0  0
   24.6858  -21.1164   -7.5354 O   0  0  0  0  0  0  0  0  0  0  0  0
   23.8481  -20.2016   -7.8739 N   0  0  0  0  0  0  0  0  0  0  0  0
   24.1033  -22.1111   -6.6889 C   0  0  1  0  0  0  0  0  0  0  0  0
   22.6840  -22.1745   -6.4161 C   0  0  0  0  0  0  0  0  0  0  0  0
   22.2695  -23.6128   -6.0924 S   0  0  0  0  0  0  0  0  0  0  0  0
   20.5127  -23.7172   -5.6634 C   0  0  0  0  0  0  0  0  0  0  0  0
   22.1880  -21.2364   -5.4188 O   0  0  0  0  0  0  0  0  0  0  0  0
   22.8866  -20.8761   -4.4454 O   0  0  0  0  0  0  0  0  0  0  0  0
  1  2  1  0
  2  3  2  0
  4  2  1  0
  5  4  1  0
  6  5  1  0
  7  6  1  0
  8  7  1  0
  8  9  1  6
 10 11  2  0
 10  8  1  0
 13 12  1  0
 14 13  1  0
 14 15  1  1
 16 17  1  6
 16 14  1  0
 17 10  1  0
 18 16  1  0
 19 18  2  0
 20 18  1  0
 21 20  1  0
 22 23  1  0
 21 22  1  1
 24 21  1  0
 24 26  1  0
 25 24  2  0
M  END
$$$$
