RIC.pdb
     RDKit          3D

 26 25  0  0  1  0  0  0  0  0999 V2000
   20.0929  -19.5268  -15.6931 N   0  0  0  0  0  0  0  0  0  0  0  0
   20.2343  -18.6075  -16.7586 C   0  0  0  0  0  0  0  0  0  0  0  0
   19.3584  -17.6733  -16.8761 N   0  0  0  0  0  0  0  0  0  0  0  0
   21.3067  -18.7008  -17.6812 N   0  0  0  0  0  0  0  0  0  0  0  0
   22.3832  -19.6378  -17.4375 C   0  0  0  0  0  0  0  0  0  0  0  0
   23.6737  -18.9033  -17.2552 C   0  0  0  0  0  0  0  0  0  0  0  0
   23.9303  -18.4859  -15.8338 C   0  0  0  0  0  0  0  0  0  0  0  0
   24.9946  -19.3486  -15.2434 C   0  0  2  0  0  0  0  0  0  0  0  0
   25.7908  -19.9393  -16.2999 N   0  0  0  0  0  0  0  0  0  0  0  0
   24.4084  -20.4809  -14.4458 C   0  0  0  0  0  0  0  0  0  0  0  0
   24.3842  -21.6314  -14.8841 O   0  0  0  0  0  0  0  0  0  0  0  0
   19.4177  -16.9875  -17.6324 C   0  0  0  0  0  0  0  0  0  0  0  0
   25.9883  -20.4105   -9.4217 C   0  0  0  0  0  0  0  0  0  0  0  0
   25.4373  -20.8279  -10.7266 C   0  0  2  0  0  0  0  0  0  0  0  0
   23.9772  -20.7877  -10.9177 C   0  0  0  0  0  0  0  0  0  0  0  0
   23.1848  -21.2926   -9.7343 C   0  0  2  0  0  0  0  0  0  0  0  0
   23.4109  -21.2221  -12.2289 N   0  0  0  0  0  0  0  0  0  0  0  0
   23.8901  -20.1802  -13.1846 C   0  0  0  0  0  0  0  0  0  0  0  0
   21.9683  -21.2570  -12.3811 O   0  0  0  0  0  0  0  0  0  0  0  0
   21.2852  -20.1682  -12.3467 N   0  0  0  0  0  0  0  0  0  0  0  0
   21.1519  -22.4135  -12.5842 C   0  0  1  0  0  0  0  0  0  0  0  0
   19.7352  -22.3331  -12.8658 C   0  0  0  0  0  0  0  0  0  0  0  0
   19.3505  -23.3474  -13.9467 S   0  0  0  0  0  0  0  0  0  0  0  0
   19.9751  -25.0024  -13.5570 C   0  0  0  0  0  0  0  0  0  0  0  0
   18.8536  -22.4210  -11.7100 O   0  0  0  0  0  0  0  0  0  0  0  0
   19.2435  -22.8847  -10.6153 O   0  0  0  0  0  0  0  0  0  0  0  0
  1  2  1  0
  2  3  2  0
  4  2  1  0
  5  4  1  0
  6  5  1  0
  7  6  1  0
  8  7  1  0
  8  9  1  6
 10 11  2  0
 10  8  1  0
 13 12  1  0
 14 13  1  0
 14 15  1  6
 16 17  1  6
 16 14  1  0
 17 10  1  0
 18 16  1  0
 19 18  2  0
 20 18  1  0
 21 20  1  0
 22 23  1  0
 21 22  1  1
 24 21  1  0
 24 26  1  0
 25 24  2  0
M  END
$$$$
