RIC.pdb
     RDKit          3D

 26 25  0  0  1  0  0  0  0  0999 V2000
   24.4820  -25.1936  -14.5103 N   0  0  0  0  0  0  0  0  0  0  0  0
   24.8713  -25.5574  -15.8204 C   0  0  0  0  0  0  0  0  0  0  0  0
   24.7015  -26.7778  -16.1886 N   0  0  0  0  0  0  0  0  0  0  0  0
   25.4360  -24.6138  -16.7152 N   0  0  0  0  0  0  0  0  0  0  0  0
   25.4305  -23.2072  -16.3719 C   0  0  0  0  0  0  0  0  0  0  0  0
   26.7844  -22.7891  -15.8922 C   0  0  0  0  0  0  0  0  0  0  0  0
   26.8222  -21.3865  -15.3521 C   0  0  0  0  0  0  0  0  0  0  0  0
   26.2537  -20.4463  -16.3613 C   0  0  2  0  0  0  0  0  0  0  0  0
   27.3131  -19.6416  -16.9351 N   0  0  0  0  0  0  0  0  0  0  0  0
   25.2664  -19.4982  -15.7382 C   0  0  0  0  0  0  0  0  0  0  0  0
   25.6352  -18.5496  -15.0449 O   0  0  0  0  0  0  0  0  0  0  0  0
   25.0269  -27.1028  -17.1020 C   0  0  0  0  0  0  0  0  0  0  0  0
   22.6348  -16.6011  -18.5724 C   0  0  0  0  0  0  0  0  0  0  0  0
   23.1567  -17.2413  -17.3483 C   0  0  2  0  0  0  0  0  0  0  0  0
   22.2795  -18.1671  -16.6112 C   0  0  0  0  0  0  0  0  0  0  0  0
   20.8728  -17.6547  -16.4064 C   0  0  2  0  0  0  0  0  0  0  0  0
   22.8238  -18.8754  -15.4150 N   0  0  0  0  0  0  0  0  0  0  0  0
   23.9104  -19.7325  -15.9746 C   0  0  0  0  0  0  0  0  0  0  0  0
   21.9497  -19.7780  -14.6893 O   0  0  0  0  0  0  0  0  0  0  0  0
   21.4676  -20.8201  -15.2679 N   0  0  0  0  0  0  0  0  0  0  0  0
   21.5307  -19.6606  -13.3269 C   0  0  1  0  0  0  0  0  0  0  0  0
   20.6706  -20.6308  -12.6852 C   0  0  0  0  0  0  0  0  0  0  0  0
   21.1363  -20.8848  -11.2486 S   0  0  0  0  0  0  0  0  0  0  0  0
   20.6836  -19.5161  -10.1518 C   0  0  0  0  0  0  0  0  0  0  0  0
   19.2432  -20.3488  -12.7440 O   0  0  0  0  0  0  0  0  0  0  0  0
   18.8056  -19.2051  -13.0007 O   0  0  0  0  0  0  0  0  0  0  0  0
  1  2  1  0
  2  3  2  0
  4  2  1  0
  5  4  1  0
  6  5  1  0
  7  6  1  0
  8  7  1  0
  8  9  1  1
 10 11  2  0
 10  8  1  0
 13 12  1  0
 14 13  1  0
 14 15  1  6
 16 17  1  1
 16 14  1  0
 17 10  1  0
 18 16  1  0
 19 18  2  0
 20 18  1  0
 21 20  1  0
 22 23  1  0
 21 22  1  6
 24 21  1  0
 24 26  1  0
 25 24  2  0
M  END
$$$$
