RIC.pdb
     RDKit          3D

 26 25  0  0  1  0  0  0  0  0999 V2000
   18.8188  -25.3606  -12.0071 N   0  0  0  0  0  0  0  0  0  0  0  0
   17.6799  -24.8735  -11.3246 C   0  0  0  0  0  0  0  0  0  0  0  0
   16.9669  -25.7099  -10.6569 N   0  0  0  0  0  0  0  0  0  0  0  0
   17.3200  -23.5028  -11.3667 N   0  0  0  0  0  0  0  0  0  0  0  0
   18.2160  -22.5444  -11.9790 C   0  0  0  0  0  0  0  0  0  0  0  0
   19.4699  -22.4234  -11.1720 C   0  0  0  0  0  0  0  0  0  0  0  0
   20.4035  -21.3559  -11.6715 C   0  0  0  0  0  0  0  0  0  0  0  0
   21.6207  -21.3129  -10.8101 C   0  0  2  0  0  0  0  0  0  0  0  0
   21.2803  -20.7861   -9.5040 N   0  0  0  0  0  0  0  0  0  0  0  0
   22.6756  -20.4109  -11.3894 C   0  0  0  0  0  0  0  0  0  0  0  0
   22.8080  -19.2478  -11.0071 O   0  0  0  0  0  0  0  0  0  0  0  0
   16.1431  -25.4015  -10.1353 C   0  0  0  0  0  0  0  0  0  0  0  0
   28.3742  -20.8844  -12.3607 C   0  0  0  0  0  0  0  0  0  0  0  0
   27.1519  -20.2627  -12.9083 C   0  0  2  0  0  0  0  0  0  0  0  0
   25.8441  -20.7608  -12.4482 C   0  0  0  0  0  0  0  0  0  0  0  0
   25.7698  -22.2634  -12.3068 C   0  0  2  0  0  0  0  0  0  0  0  0
   24.6033  -20.1660  -13.0273 N   0  0  0  0  0  0  0  0  0  0  0  0
   23.5035  -20.9412  -12.3809 C   0  0  0  0  0  0  0  0  0  0  0  0
   24.3796  -20.2888  -14.4557 O   0  0  0  0  0  0  0  0  0  0  0  0
   24.2165  -21.4468  -14.9902 N   0  0  0  0  0  0  0  0  0  0  0  0
   24.3044  -19.2260  -15.4098 C   0  0  1  0  0  0  0  0  0  0  0  0
   24.0476  -19.4515  -16.8155 C   0  0  0  0  0  0  0  0  0  0  0  0
   23.2825  -18.2665  -17.4119 S   0  0  0  0  0  0  0  0  0  0  0  0
   21.8883  -17.7801  -16.3626 C   0  0  0  0  0  0  0  0  0  0  0  0
   25.2076  -19.8018  -17.6231 O   0  0  0  0  0  0  0  0  0  0  0  0
   26.3130  -19.2354  -17.4726 O   0  0  0  0  0  0  0  0  0  0  0  0
  1  2  1  0
  2  3  2  0
  4  2  1  0
  5  4  1  0
  6  5  1  0
  7  6  1  0
  8  7  1  0
  8  9  1  1
 10 11  2  0
 10  8  1  0
 13 12  1  0
 14 13  1  0
 14 15  1  1
 16 17  1  6
 16 14  1  0
 17 10  1  0
 18 16  1  0
 19 18  2  0
 20 18  1  0
 21 20  1  0
 22 23  1  0
 21 22  1  6
 24 21  1  0
 24 26  1  0
 25 24  2  0
M  END
$$$$
