RIC.pdb
     RDKit          3D

 26 25  0  0  1  0  0  0  0  0999 V2000
   12.1520  -16.6944    6.6878 N   0  0  0  0  0  0  0  0  0  0  0  0
   11.8357  -15.9635    5.5190 C   0  0  0  0  0  0  0  0  0  0  0  0
   10.6124  -15.6135    5.3329 N   0  0  0  0  0  0  0  0  0  0  0  0
   12.8293  -15.6193    4.5681 N   0  0  0  0  0  0  0  0  0  0  0  0
   14.2063  -16.0027    4.7986 C   0  0  0  0  0  0  0  0  0  0  0  0
   15.0422  -14.7892    5.0569 C   0  0  0  0  0  0  0  0  0  0  0  0
   16.5087  -15.0900    5.1963 C   0  0  0  0  0  0  0  0  0  0  0  0
   17.2662  -13.8168    5.3714 C   0  0  2  0  0  0  0  0  0  0  0  0
   17.3500  -13.1167    4.1057 N   0  0  0  0  0  0  0  0  0  0  0  0
   18.6757  -14.0714    5.8301 C   0  0  0  0  0  0  0  0  0  0  0  0
   19.5434  -14.4686    5.0519 O   0  0  0  0  0  0  0  0  0  0  0  0
   10.3384  -15.0731    4.5090 C   0  0  0  0  0  0  0  0  0  0  0  0
   19.7954  -10.3491    7.7301 C   0  0  0  0  0  0  0  0  0  0  0  0
   20.7417  -11.4686    7.5513 C   0  0  2  0  0  0  0  0  0  0  0  0
   20.5869  -12.6615    8.4016 C   0  0  0  0  0  0  0  0  0  0  0  0
   21.5761  -12.7409    9.5412 C   0  0  2  0  0  0  0  0  0  0  0  0
   20.3376  -13.9817    7.7507 N   0  0  0  0  0  0  0  0  0  0  0  0
   18.9671  -13.8402    7.1759 C   0  0  0  0  0  0  0  0  0  0  0  0
   20.2893  -15.1665    8.5871 O   0  0  0  0  0  0  0  0  0  0  0  0
   19.3611  -15.3033    9.4662 N   0  0  0  0  0  0  0  0  0  0  0  0
   21.1894  -16.2774    8.5586 C   0  0  1  0  0  0  0  0  0  0  0  0
   21.0530  -17.4193    9.4363 C   0  0  0  0  0  0  0  0  0  0  0  0
   19.9212  -18.3296    8.9508 S   0  0  0  0  0  0  0  0  0  0  0  0
   20.1844  -18.8613    7.2393 C   0  0  0  0  0  0  0  0  0  0  0  0
   22.2735  -18.1713    9.6919 O   0  0  0  0  0  0  0  0  0  0  0  0
   23.3285  -17.9550    9.0550 O   0  0  0  0  0  0  0  0  0  0  0  0
  1  2  1  0
  2  3  2  0
  4  2  1  0
  5  4  1  0
  6  5  1  0
  7  6  1  0
  8  7  1  0
  8  9  1  6
 10 11  2  0
 10  8  1  0
 13 12  1  0
 14 13  1  0
 14 15  1  6
 16 17  1  6
 16 14  1  0
 17 10  1  0
 18 16  1  0
 19 18  2  0
 20 18  1  0
 21 20  1  0
 22 23  1  0
 21 22  1  1
 24 21  1  0
 24 26  1  0
 25 24  2  0
M  END
$$$$
