CAA.pdb
     RDKit          3D

 17 16  0  0  1  0  0  0  0  0999 V2000
   -0.9809  -22.1600   23.9414 N   0  0  0  0  0  0  0  0  0  0  0  0
   -0.4818  -21.2541   22.8935 C   0  0  1  0  0  0  0  0  0  0  0  0
   -0.2241  -19.9439   23.6043 C   0  0  0  0  0  0  0  0  0  0  0  0
   -1.6986  -18.9833   23.9293 S   0  0  0  0  0  0  0  0  0  0  0  0
    0.7058  -21.8388   22.2629 C   0  0  0  0  0  0  0  0  0  0  0  0
    1.3771  -22.6864   22.9162 O   0  0  0  0  0  0  0  0  0  0  0  0
    2.1431  -22.0159   18.8451 C   0  0  0  0  0  0  0  0  0  0  0  0
    2.3469  -22.0742   20.3377 C   0  0  2  0  0  0  0  0  0  0  0  0
    1.1647  -21.5225   20.9591 N   0  0  0  0  0  0  0  0  0  0  0  0
    3.5877  -21.4368   20.7823 C   0  0  0  0  0  0  0  0  0  0  0  0
    4.6849  -21.9171   20.3992 O   0  0  0  0  0  0  0  0  0  0  0  0
    4.4963  -18.2740   22.6864 C   0  0  0  0  0  0  0  0  0  0  0  0
    4.7875  -19.6258   22.0863 C   0  0  2  0  0  0  0  0  0  0  0  0
    3.5984  -20.2993   21.6280 N   0  0  0  0  0  0  0  0  0  0  0  0
    5.5154  -20.4817   23.0782 C   0  0  0  0  0  0  0  0  0  0  0  0
    5.0072  -21.4751   23.6140 O   0  0  0  0  0  0  0  0  0  0  0  0
    6.8202  -20.1498   23.4156 O   0  0  0  0  0  0  0  0  0  0  0  0
  2  1  1  1
  2  3  1  0
  4  3  1  0
  5  2  1  0
  6  5  2  0
  8  7  1  6
  8  9  1  0
  9  5  1  0
 10  8  1  0
 10 14  1  0
 11 10  2  0
 13 15  1  0
 13 12  1  1
 13 14  1  0
 15 17  1  0
 16 15  2  0
M  END
$$$$
