CAA.pdb
     RDKit          3D

 17 16  0  0  1  0  0  0  0  0999 V2000
    8.9537  -15.5510   14.4040 N   0  0  0  0  0  0  0  0  0  0  0  0
    8.1319  -15.8797   15.5805 C   0  0  1  0  0  0  0  0  0  0  0  0
    8.2537  -17.3800   15.7315 C   0  0  0  0  0  0  0  0  0  0  0  0
    7.4411  -18.0396   17.1832 S   0  0  0  0  0  0  0  0  0  0  0  0
    8.6073  -15.1191   16.7404 C   0  0  0  0  0  0  0  0  0  0  0  0
    9.8516  -15.0570   16.9491 O   0  0  0  0  0  0  0  0  0  0  0  0
    7.0952  -12.9327   19.3756 C   0  0  0  0  0  0  0  0  0  0  0  0
    8.2056  -13.8312   18.8933 C   0  0  2  0  0  0  0  0  0  0  0  0
    7.7670  -14.4384   17.6576 N   0  0  0  0  0  0  0  0  0  0  0  0
    8.6447  -14.8049   19.8948 C   0  0  0  0  0  0  0  0  0  0  0  0
    9.1179  -14.3832   20.9809 O   0  0  0  0  0  0  0  0  0  0  0  0
    8.0522  -18.4722   20.4794 C   0  0  0  0  0  0  0  0  0  0  0  0
    8.8420  -17.2045   20.6833 C   0  0  2  0  0  0  0  0  0  0  0  0
    8.5563  -16.2041   19.6860 N   0  0  0  0  0  0  0  0  0  0  0  0
   10.3089  -17.5111   20.7011 C   0  0  0  0  0  0  0  0  0  0  0  0
   11.1121  -17.0148   19.9007 O   0  0  0  0  0  0  0  0  0  0  0  0
   10.7953  -18.3919   21.6572 O   0  0  0  0  0  0  0  0  0  0  0  0
  2  1  1  6
  2  3  1  0
  4  3  1  0
  5  2  1  0
  6  5  2  0
  8  7  1  1
  8  9  1  0
  9  5  1  0
 10  8  1  0
 10 14  1  0
 11 10  2  0
 13 15  1  0
 13 12  1  6
 13 14  1  0
 15 17  1  0
 16 15  2  0
M  END
$$$$
