CAA.pdb
     RDKit          3D

 17 16  0  0  1  0  0  0  0  0999 V2000
    4.9563  -14.4830   25.6939 N   0  0  0  0  0  0  0  0  0  0  0  0
    6.1876  -13.7806   25.2960 C   0  0  1  0  0  0  0  0  0  0  0  0
    6.3863  -12.7173   26.3535 C   0  0  0  0  0  0  0  0  0  0  0  0
    5.3316  -11.2845   26.1603 S   0  0  0  0  0  0  0  0  0  0  0  0
    7.2909  -14.7411   25.1957 C   0  0  0  0  0  0  0  0  0  0  0  0
    7.4013  -15.6250   26.0914 O   0  0  0  0  0  0  0  0  0  0  0  0
   10.0492  -15.4250   22.7408 C   0  0  0  0  0  0  0  0  0  0  0  0
    9.3360  -15.7075   24.0386 C   0  0  2  0  0  0  0  0  0  0  0  0
    8.2559  -14.7549   24.1568 N   0  0  0  0  0  0  0  0  0  0  0  0
   10.2256  -15.7239   25.2014 C   0  0  0  0  0  0  0  0  0  0  0  0
   11.2327  -16.4765   25.1813 O   0  0  0  0  0  0  0  0  0  0  0  0
   10.5198  -13.7702   28.4509 C   0  0  0  0  0  0  0  0  0  0  0  0
   10.8094  -14.9332   27.5366 C   0  0  2  0  0  0  0  0  0  0  0  0
    9.9941  -14.9235   26.3482 N   0  0  0  0  0  0  0  0  0  0  0  0
   10.6287  -16.2244   28.2758 C   0  0  0  0  0  0  0  0  0  0  0  0
   11.3222  -16.5483   29.2485 O   0  0  0  0  0  0  0  0  0  0  0  0
    9.6392  -17.1019   27.8545 O   0  0  0  0  0  0  0  0  0  0  0  0
  2  1  1  1
  2  3  1  0
  4  3  1  0
  5  2  1  0
  6  5  2  0
  8  7  1  6
  8  9  1  0
  9  5  1  0
 10  8  1  0
 10 14  1  0
 11 10  2  0
 13 15  1  0
 13 12  1  1
 13 14  1  0
 15 17  1  0
 16 15  2  0
M  END
$$$$
