CAA.pdb
     RDKit          3D

 17 16  0  0  1  0  0  0  0  0999 V2000
    4.8521  -13.9395   26.0942 N   0  0  0  0  0  0  0  0  0  0  0  0
    6.0858  -13.3478   25.5507 C   0  0  1  0  0  0  0  0  0  0  0  0
    6.5894  -12.4303   26.6429 C   0  0  0  0  0  0  0  0  0  0  0  0
    5.6625  -10.9083   26.8078 S   0  0  0  0  0  0  0  0  0  0  0  0
    7.0223  -14.4145   25.1834 C   0  0  0  0  0  0  0  0  0  0  0  0
    7.0405  -15.4655   25.8839 O   0  0  0  0  0  0  0  0  0  0  0  0
    9.4248  -15.0546   22.3789 C   0  0  0  0  0  0  0  0  0  0  0  0
    8.8833  -15.3794   23.7479 C   0  0  2  0  0  0  0  0  0  0  0  0
    7.9207  -14.3568   24.0878 N   0  0  0  0  0  0  0  0  0  0  0  0
    9.9257  -15.5553   24.7608 C   0  0  0  0  0  0  0  0  0  0  0  0
   10.8716  -16.3491   24.5232 O   0  0  0  0  0  0  0  0  0  0  0  0
   10.7887  -13.9534   28.1016 C   0  0  0  0  0  0  0  0  0  0  0  0
   10.8917  -15.0195   27.0409 C   0  0  2  0  0  0  0  0  0  0  0  0
    9.9086  -14.8645   25.9985 N   0  0  0  0  0  0  0  0  0  0  0  0
   10.7728  -16.3771   27.6646 C   0  0  0  0  0  0  0  0  0  0  0  0
   11.5651  -16.8006   28.5162 O   0  0  0  0  0  0  0  0  0  0  0  0
    9.7277  -17.2024   27.2731 O   0  0  0  0  0  0  0  0  0  0  0  0
  2  1  1  1
  2  3  1  0
  4  3  1  0
  5  2  1  0
  6  5  2  0
  8  7  1  6
  8  9  1  0
  9  5  1  0
 10  8  1  0
 10 14  1  0
 11 10  2  0
 13 15  1  0
 13 12  1  1
 13 14  1  0
 15 17  1  0
 16 15  2  0
M  END
$$$$
