CAA.pdb
     RDKit          3D

 17 16  0  0  1  0  0  0  0  0999 V2000
    8.6294  -16.9691   15.8277 N   0  0  0  0  0  0  0  0  0  0  0  0
    7.6260  -16.2800   16.6560 C   0  0  1  0  0  0  0  0  0  0  0  0
    6.6266  -17.3532   17.0271 C   0  0  0  0  0  0  0  0  0  0  0  0
    7.2291  -18.5320   18.2313 S   0  0  0  0  0  0  0  0  0  0  0  0
    8.2851  -15.6504   17.8045 C   0  0  0  0  0  0  0  0  0  0  0  0
    9.3781  -16.1364   18.2107 O   0  0  0  0  0  0  0  0  0  0  0  0
    7.5056  -12.7958   20.1187 C   0  0  0  0  0  0  0  0  0  0  0  0
    8.3396  -13.9886   19.7256 C   0  0  2  0  0  0  0  0  0  0  0  0
    7.7840  -14.5230   18.5034 N   0  0  0  0  0  0  0  0  0  0  0  0
    8.4687  -14.9862   20.7895 C   0  0  0  0  0  0  0  0  0  0  0  0
    7.4586  -15.6640   21.1082 O   0  0  0  0  0  0  0  0  0  0  0  0
    9.7351  -17.6208   21.9674 C   0  0  0  0  0  0  0  0  0  0  0  0
    9.8849  -16.2158   22.4928 C   0  0  2  0  0  0  0  0  0  0  0  0
    9.6889  -15.2163   21.4731 N   0  0  0  0  0  0  0  0  0  0  0  0
   11.2313  -16.0468   23.1291 C   0  0  0  0  0  0  0  0  0  0  0  0
   11.5968  -16.6951   24.1182 O   0  0  0  0  0  0  0  0  0  0  0  0
   12.1136  -15.1216   22.5886 O   0  0  0  0  0  0  0  0  0  0  0  0
  2  1  1  6
  2  3  1  0
  4  3  1  0
  5  2  1  0
  6  5  2  0
  8  7  1  1
  8  9  1  0
  9  5  1  0
 10  8  1  0
 10 14  1  0
 11 10  2  0
 13 15  1  0
 13 12  1  6
 13 14  1  0
 15 17  1  0
 16 15  2  0
M  END
$$$$
