CAA.pdb
     RDKit          3D

 17 16  0  0  1  0  0  0  0  0999 V2000
    6.0454  -15.3233   20.4384 N   0  0  0  0  0  0  0  0  0  0  0  0
    7.3899  -14.9835   20.9329 C   0  0  1  0  0  0  0  0  0  0  0  0
    7.4520  -13.4730   20.8803 C   0  0  0  0  0  0  0  0  0  0  0  0
    9.0216  -12.7850   21.3956 S   0  0  0  0  0  0  0  0  0  0  0  0
    7.5769  -15.5457   22.2741 C   0  0  0  0  0  0  0  0  0  0  0  0
    6.6366  -15.4316   23.1099 O   0  0  0  0  0  0  0  0  0  0  0  0
    9.7752  -17.9779   23.9405 C   0  0  0  0  0  0  0  0  0  0  0  0
    8.9726  -16.7065   24.0516 C   0  0  2  0  0  0  0  0  0  0  0  0
    8.7471  -16.2169   22.7110 N   0  0  0  0  0  0  0  0  0  0  0  0
    9.5766  -15.7111   24.9394 C   0  0  0  0  0  0  0  0  0  0  0  0
   10.5429  -15.0284   24.5132 O   0  0  0  0  0  0  0  0  0  0  0  0
    8.6472  -13.4741   27.5845 C   0  0  0  0  0  0  0  0  0  0  0  0
    9.6584  -14.5124   27.1700 C   0  0  2  0  0  0  0  0  0  0  0  0
    9.1132  -15.4884   26.2603 N   0  0  0  0  0  0  0  0  0  0  0  0
   10.2208  -15.1933   28.3809 C   0  0  0  0  0  0  0  0  0  0  0  0
   10.0253  -16.3889   28.6350 O   0  0  0  0  0  0  0  0  0  0  0  0
   10.9975  -14.4539   29.2621 O   0  0  0  0  0  0  0  0  0  0  0  0
  2  1  1  1
  2  3  1  0
  4  3  1  0
  5  2  1  0
  6  5  2  0
  8  7  1  6
  8  9  1  0
  9  5  1  0
 10  8  1  0
 10 14  1  0
 11 10  2  0
 13 15  1  0
 13 12  1  1
 13 14  1  0
 15 17  1  0
 16 15  2  0
M  END
$$$$
