CAA.pdb
     RDKit          3D

 17 16  0  0  1  0  0  0  0  0999 V2000
    9.3800  -15.9899   15.3828 N   0  0  0  0  0  0  0  0  0  0  0  0
    8.2643  -15.6742   16.2901 C   0  0  1  0  0  0  0  0  0  0  0  0
    7.6741  -17.0169   16.6605 C   0  0  0  0  0  0  0  0  0  0  0  0
    8.5741  -17.8860   17.9401 S   0  0  0  0  0  0  0  0  0  0  0  0
    8.7630  -14.9019   17.4323 C   0  0  0  0  0  0  0  0  0  0  0  0
    9.9878  -14.9904   17.7286 O   0  0  0  0  0  0  0  0  0  0  0  0
    7.3547  -12.3061   19.7399 C   0  0  0  0  0  0  0  0  0  0  0  0
    8.4540  -13.2597   19.3462 C   0  0  2  0  0  0  0  0  0  0  0  0
    7.9662  -14.0518   18.2405 N   0  0  0  0  0  0  0  0  0  0  0  0
    8.9543  -14.0656   20.4615 C   0  0  0  0  0  0  0  0  0  0  0  0
    9.5907  -13.4935   21.3829 O   0  0  0  0  0  0  0  0  0  0  0  0
    8.2808  -17.5551   21.7433 C   0  0  0  0  0  0  0  0  0  0  0  0
    9.0884  -16.2839   21.6782 C   0  0  2  0  0  0  0  0  0  0  0  0
    8.7480  -15.4657   20.5415 N   0  0  0  0  0  0  0  0  0  0  0  0
   10.5520  -16.6061   21.6622 C   0  0  0  0  0  0  0  0  0  0  0  0
   11.3116  -16.2508   20.7517 O   0  0  0  0  0  0  0  0  0  0  0  0
   11.0863  -17.3367   22.7145 O   0  0  0  0  0  0  0  0  0  0  0  0
  2  1  1  6
  2  3  1  0
  4  3  1  0
  5  2  1  0
  6  5  2  0
  8  7  1  1
  8  9  1  0
  9  5  1  0
 10  8  1  0
 10 14  1  0
 11 10  2  0
 13 15  1  0
 13 12  1  6
 13 14  1  0
 15 17  1  0
 16 15  2  0
M  END
$$$$
