CAA.pdb
     RDKit          3D

 17 16  0  0  1  0  0  0  0  0999 V2000
    4.6858  -17.9493   21.5122 N   0  0  0  0  0  0  0  0  0  0  0  0
    6.0197  -18.5682   21.4389 C   0  0  1  0  0  0  0  0  0  0  0  0
    5.8937  -19.6359   20.3747 C   0  0  0  0  0  0  0  0  0  0  0  0
    4.4842  -20.7184   20.5848 S   0  0  0  0  0  0  0  0  0  0  0  0
    7.0228  -17.5407   21.1427 C   0  0  0  0  0  0  0  0  0  0  0  0
    8.2385  -17.8817   21.1024 O   0  0  0  0  0  0  0  0  0  0  0  0
    7.0370  -13.9359   20.1468 C   0  0  0  0  0  0  0  0  0  0  0  0
    7.7115  -15.1206   20.7906 C   0  0  2  0  0  0  0  0  0  0  0  0
    6.7297  -16.1757   20.8943 N   0  0  0  0  0  0  0  0  0  0  0  0
    8.3583  -14.8020   22.0649 C   0  0  0  0  0  0  0  0  0  0  0  0
    9.4913  -14.2568   22.0480 O   0  0  0  0  0  0  0  0  0  0  0  0
    7.2655  -14.2381   25.5680 C   0  0  0  0  0  0  0  0  0  0  0  0
    8.3103  -14.7258   24.5969 C   0  0  2  0  0  0  0  0  0  0  0  0
    7.7554  -15.0851   23.3162 N   0  0  0  0  0  0  0  0  0  0  0  0
    9.0520  -15.8891   25.1825 C   0  0  0  0  0  0  0  0  0  0  0  0
    9.0536  -17.0158   24.6701 O   0  0  0  0  0  0  0  0  0  0  0  0
    9.7723  -15.7002   26.3539 O   0  0  0  0  0  0  0  0  0  0  0  0
  2  1  1  6
  2  3  1  0
  4  3  1  0
  5  2  1  0
  6  5  2  0
  8  7  1  1
  8  9  1  0
  9  5  1  0
 10  8  1  0
 10 14  1  0
 11 10  2  0
 13 15  1  0
 13 12  1  1
 13 14  1  0
 15 17  1  0
 16 15  2  0
M  END
$$$$
