CAA.pdb
     RDKit          3D

 17 16  0  0  1  0  0  0  0  0999 V2000
    6.7500  -14.9441   20.5899 N   0  0  0  0  0  0  0  0  0  0  0  0
    8.0515  -14.5869   21.1784 C   0  0  1  0  0  0  0  0  0  0  0  0
    8.0491  -13.0753   21.2358 C   0  0  0  0  0  0  0  0  0  0  0  0
    8.2816  -12.2805   19.6493 S   0  0  0  0  0  0  0  0  0  0  0  0
    8.1954  -15.2372   22.4846 C   0  0  0  0  0  0  0  0  0  0  0  0
    7.2169  -15.2051   23.2828 O   0  0  0  0  0  0  0  0  0  0  0  0
   10.3710  -17.7835   23.9943 C   0  0  0  0  0  0  0  0  0  0  0  0
    9.5117  -16.5630   24.2064 C   0  0  2  0  0  0  0  0  0  0  0  0
    9.3635  -15.9086   22.9267 N   0  0  0  0  0  0  0  0  0  0  0  0
   10.0097  -15.6748   25.2585 C   0  0  0  0  0  0  0  0  0  0  0  0
   11.2261  -15.3558   25.2545 O   0  0  0  0  0  0  0  0  0  0  0  0
    8.5029  -13.4572   27.9162 C   0  0  0  0  0  0  0  0  0  0  0  0
    9.6139  -14.3068   27.3540 C   0  0  2  0  0  0  0  0  0  0  0  0
    9.1725  -15.1614   26.2806 N   0  0  0  0  0  0  0  0  0  0  0  0
   10.2350  -15.1266   28.4441 C   0  0  0  0  0  0  0  0  0  0  0  0
   10.0350  -16.3414   28.5727 O   0  0  0  0  0  0  0  0  0  0  0  0
   11.0743  -14.5000   29.3549 O   0  0  0  0  0  0  0  0  0  0  0  0
  2  1  1  1
  2  3  1  0
  4  3  1  0
  5  2  1  0
  6  5  2  0
  8  7  1  6
  8  9  1  0
  9  5  1  0
 10  8  1  0
 10 14  1  0
 11 10  2  0
 13 15  1  0
 13 12  1  1
 13 14  1  0
 15 17  1  0
 16 15  2  0
M  END
$$$$
