MLL.pdb
     RDKit          3D

 25 24  0  0  1  0  0  0  0  0999 V2000
   17.8036  -22.2338   -8.3011 C   0  0  0  0  0  0  0  0  0  0  0  0
   18.5761  -22.5339   -6.6796 S   0  0  0  0  0  0  0  0  0  0  0  0
   20.3348  -22.9333   -6.8797 C   0  0  0  0  0  0  0  0  0  0  0  0
   21.0093  -21.7380   -7.4725 C   0  0  0  0  0  0  0  0  0  0  0  0
   22.1549  -22.0595   -8.3731 C   0  0  2  0  0  0  0  0  0  0  0  0
   22.9832  -23.0844   -7.7952 N   0  0  0  0  0  0  0  0  0  0  0  0
   22.9898  -20.8813   -8.7167 C   0  0  0  0  0  0  0  0  0  0  0  0
   22.4440  -19.8127   -9.0978 O   0  0  0  0  0  0  0  0  0  0  0  0
   26.2480  -18.7722   -6.7647 C   0  0  0  0  0  0  0  0  0  0  0  0
   26.6951  -20.1033   -7.2700 C   0  0  2  0  0  0  0  0  0  0  0  0
   28.0166  -20.5435   -6.7117 C   0  0  0  0  0  0  0  0  0  0  0  0
   26.6698  -20.1247   -8.7800 C   0  0  0  0  0  0  0  0  0  0  0  0
   25.2753  -19.9580   -9.3247 C   0  0  2  0  0  0  0  0  0  0  0  0
   24.4053  -20.8855   -8.6398 N   0  0  0  0  0  0  0  0  0  0  0  0
   25.2367  -20.1609  -10.8028 C   0  0  0  0  0  0  0  0  0  0  0  0
   26.1293  -19.6391  -11.5215 O   0  0  0  0  0  0  0  0  0  0  0  0
   25.1861  -24.1611  -15.0327 C   0  0  0  0  0  0  0  0  0  0  0  0
   24.9638  -22.6933  -14.7309 C   0  0  2  0  0  0  0  0  0  0  0  0
   25.8948  -21.8703  -15.5621 C   0  0  0  0  0  0  0  0  0  0  0  0
   24.7965  -22.3502  -13.3129 C   0  0  0  0  0  0  0  0  0  0  0  0
   24.2446  -21.0315  -12.9224 C   0  0  2  0  0  0  0  0  0  0  0  0
   24.2333  -20.9208  -11.4423 N   0  0  0  0  0  0  0  0  0  0  0  0
   22.8937  -20.6986  -13.3602 C   0  0  0  0  0  0  0  0  0  0  0  0
   21.8790  -21.0205  -12.7063 O   0  0  0  0  0  0  0  0  0  0  0  0
   22.7175  -19.9892  -14.5606 O   0  0  0  0  0  0  0  0  0  0  0  0
  2  3  1  0
  2  1  1  0
  3  4  1  0
  4  5  1  0
  5  6  1  1
  7  8  2  0
  7  5  1  0
 10  9  1  6
 10 12  1  0
 11 10  1  0
 13 12  1  1
 13 14  1  0
 14  7  1  0
 15 13  1  0
 16 15  2  0
 18 19  1  1
 18 17  1  0
 21 20  1  1
 20 18  1  0
 21 22  1  0
 22 15  1  0
 23 25  1  0
 23 21  1  0
 24 23  2  0
M  END
$$$$
