MLL.pdb
     RDKit          3D

 25 24  0  0  1  0  0  0  0  0999 V2000
   17.3148   -6.6327  -21.5824 C   0  0  0  0  0  0  0  0  0  0  0  0
   19.0816   -6.8753  -21.9508 S   0  0  0  0  0  0  0  0  0  0  0  0
   19.6877   -8.3986  -21.1731 C   0  0  0  0  0  0  0  0  0  0  0  0
   19.5232   -8.2523  -19.6943 C   0  0  0  0  0  0  0  0  0  0  0  0
   20.2576   -9.2710  -18.8882 C   0  0  2  0  0  0  0  0  0  0  0  0
   19.8315  -10.5999  -19.2390 N   0  0  0  0  0  0  0  0  0  0  0  0
   20.1249   -9.0777  -17.4225 C   0  0  0  0  0  0  0  0  0  0  0  0
   19.0707   -9.4339  -16.8336 O   0  0  0  0  0  0  0  0  0  0  0  0
   21.6057  -10.7767  -14.0592 C   0  0  0  0  0  0  0  0  0  0  0  0
   22.6843   -9.9237  -14.6391 C   0  0  2  0  0  0  0  0  0  0  0  0
   24.0444  -10.2101  -14.0733 C   0  0  0  0  0  0  0  0  0  0  0  0
   22.3101   -8.4642  -14.5335 C   0  0  0  0  0  0  0  0  0  0  0  0
   21.0053   -8.1636  -15.2237 C   0  0  2  0  0  0  0  0  0  0  0  0
   21.1419   -8.4998  -16.6217 N   0  0  0  0  0  0  0  0  0  0  0  0
   20.6045   -6.7377  -15.0403 C   0  0  0  0  0  0  0  0  0  0  0  0
   20.3448   -6.3129  -13.8838 O   0  0  0  0  0  0  0  0  0  0  0  0
   19.4806   -1.6691  -17.1172 C   0  0  0  0  0  0  0  0  0  0  0  0
   20.7840   -2.0547  -16.4485 C   0  0  2  0  0  0  0  0  0  0  0  0
   21.8652   -1.1250  -16.8976 C   0  0  0  0  0  0  0  0  0  0  0  0
   21.0721   -3.4935  -16.3912 C   0  0  0  0  0  0  0  0  0  0  0  0
   20.0668   -4.4367  -15.8472 C   0  0  2  0  0  0  0  0  0  0  0  0
   20.5017   -5.8300  -16.1167 N   0  0  0  0  0  0  0  0  0  0  0  0
   18.6989   -4.3399  -16.3440 C   0  0  0  0  0  0  0  0  0  0  0  0
   18.2858   -5.0210  -17.3065 O   0  0  0  0  0  0  0  0  0  0  0  0
   17.8053   -3.4505  -15.7229 O   0  0  0  0  0  0  0  0  0  0  0  0
  2  3  1  0
  2  1  1  0
  3  4  1  0
  4  5  1  0
  5  6  1  1
  7  8  2  0
  7  5  1  0
 10  9  1  1
 10 12  1  0
 11 10  1  0
 13 12  1  1
 13 14  1  0
 14  7  1  0
 15 13  1  0
 16 15  2  0
 18 19  1  6
 18 17  1  0
 21 20  1  6
 20 18  1  0
 21 22  1  0
 22 15  1  0
 23 25  1  0
 23 21  1  0
 24 23  2  0
M  END
$$$$
