MLL.pdb
     RDKit          3D

 25 24  0  0  1  0  0  0  0  0999 V2000
   25.9142  -17.6198  -17.4842 C   0  0  0  0  0  0  0  0  0  0  0  0
   27.6402  -17.3456  -16.9729 S   0  0  0  0  0  0  0  0  0  0  0  0
   28.2687  -18.7858  -16.0655 C   0  0  0  0  0  0  0  0  0  0  0  0
   27.1240  -19.3871  -15.3150 C   0  0  0  0  0  0  0  0  0  0  0  0
   27.4664  -20.6256  -14.5562 C   0  0  2  0  0  0  0  0  0  0  0  0
   27.8914  -21.6687  -15.4516 N   0  0  0  0  0  0  0  0  0  0  0  0
   26.3596  -21.1246  -13.7022 C   0  0  0  0  0  0  0  0  0  0  0  0
   25.7481  -22.1792  -14.0170 O   0  0  0  0  0  0  0  0  0  0  0  0
   25.9780  -20.2013   -8.0861 C   0  0  0  0  0  0  0  0  0  0  0  0
   25.7881  -20.9929   -9.3368 C   0  0  2  0  0  0  0  0  0  0  0  0
   27.0697  -21.5183   -9.9141 C   0  0  0  0  0  0  0  0  0  0  0  0
   24.9845  -20.2003  -10.3403 C   0  0  0  0  0  0  0  0  0  0  0  0
   24.8651  -20.9155  -11.6607 C   0  0  2  0  0  0  0  0  0  0  0  0
   25.9365  -20.4677  -12.5194 N   0  0  0  0  0  0  0  0  0  0  0  0
   23.5298  -20.6884  -12.2877 C   0  0  0  0  0  0  0  0  0  0  0  0
   22.4870  -20.9433  -11.6298 O   0  0  0  0  0  0  0  0  0  0  0  0
   21.1227  -17.3483  -16.8861 C   0  0  0  0  0  0  0  0  0  0  0  0
   20.8869  -18.1393  -15.6157 C   0  0  2  0  0  0  0  0  0  0  0  0
   19.8431  -17.4550  -14.7928 C   0  0  0  0  0  0  0  0  0  0  0  0
   22.0910  -18.6463  -14.9453 C   0  0  0  0  0  0  0  0  0  0  0  0
   22.0194  -19.8573  -14.0940 C   0  0  2  0  0  0  0  0  0  0  0  0
   23.3784  -20.1943  -13.6016 N   0  0  0  0  0  0  0  0  0  0  0  0
   21.4928  -21.0808  -14.6881 C   0  0  0  0  0  0  0  0  0  0  0  0
   20.2877  -21.4005  -14.6067 O   0  0  0  0  0  0  0  0  0  0  0  0
   22.3658  -21.9377  -15.3802 O   0  0  0  0  0  0  0  0  0  0  0  0
  2  3  1  0
  2  1  1  0
  3  4  1  0
  4  5  1  0
  5  6  1  6
  7  8  2  0
  7  5  1  0
 10  9  1  1
 10 12  1  0
 11 10  1  0
 13 12  1  1
 13 14  1  0
 14  7  1  0
 15 13  1  0
 16 15  2  0
 18 19  1  1
 18 17  1  0
 21 20  1  6
 20 18  1  0
 21 22  1  0
 22 15  1  0
 23 25  1  0
 23 21  1  0
 24 23  2  0
M  END
$$$$
