MLL.pdb
     RDKit          3D

 25 24  0  0  1  0  0  0  0  0999 V2000
   20.3952  -21.4979  -17.0186 C   0  0  0  0  0  0  0  0  0  0  0  0
   20.5093  -19.7654  -17.5674 S   0  0  0  0  0  0  0  0  0  0  0  0
   21.7946  -18.8883  -16.6340 C   0  0  0  0  0  0  0  0  0  0  0  0
   22.6669  -19.9143  -15.9845 C   0  0  0  0  0  0  0  0  0  0  0  0
   23.2287  -19.5005  -14.6654 C   0  0  2  0  0  0  0  0  0  0  0  0
   23.8711  -18.2169  -14.7670 N   0  0  0  0  0  0  0  0  0  0  0  0
   24.1765  -20.4858  -14.0875 C   0  0  0  0  0  0  0  0  0  0  0  0
   23.8652  -21.7048  -14.0386 O   0  0  0  0  0  0  0  0  0  0  0  0
   29.7863  -20.1534  -14.4976 C   0  0  0  0  0  0  0  0  0  0  0  0
   28.4128  -20.7347  -14.4456 C   0  0  2  0  0  0  0  0  0  0  0  0
   27.5438  -20.3232  -15.5976 C   0  0  0  0  0  0  0  0  0  0  0  0
   27.7736  -20.4469  -13.1078 C   0  0  0  0  0  0  0  0  0  0  0  0
   26.3981  -21.0511  -12.9967 C   0  0  2  0  0  0  0  0  0  0  0  0
   25.4478  -20.1284  -13.5723 N   0  0  0  0  0  0  0  0  0  0  0  0
   26.0560  -21.3772  -11.5810 C   0  0  0  0  0  0  0  0  0  0  0  0
   26.4057  -22.4874  -11.1009 O   0  0  0  0  0  0  0  0  0  0  0  0
   27.7851  -21.0026   -7.8375 C   0  0  0  0  0  0  0  0  0  0  0  0
   27.0209  -19.7633   -8.2560 C   0  0  2  0  0  0  0  0  0  0  0  0
   27.5391  -18.5828   -7.4991 C   0  0  0  0  0  0  0  0  0  0  0  0
   25.5684  -19.9255   -8.3986 C   0  0  0  0  0  0  0  0  0  0  0  0
   25.0163  -20.9095   -9.3594 C   0  0  2  0  0  0  0  0  0  0  0  0
   25.3494  -20.4874  -10.7429 N   0  0  0  0  0  0  0  0  0  0  0  0
   23.5768  -21.1441   -9.3469 C   0  0  0  0  0  0  0  0  0  0  0  0
   22.9668  -21.5122   -8.3206 O   0  0  0  0  0  0  0  0  0  0  0  0
   22.8405  -20.9511  -10.5284 O   0  0  0  0  0  0  0  0  0  0  0  0
  2  3  1  0
  2  1  1  0
  3  4  1  0
  4  5  1  0
  5  6  1  6
  7  8  2  0
  7  5  1  0
 10  9  1  1
 10 12  1  0
 11 10  1  0
 13 12  1  1
 13 14  1  0
 14  7  1  0
 15 13  1  0
 16 15  2  0
 18 19  1  1
 18 17  1  0
 21 20  1  1
 20 18  1  0
 21 22  1  0
 22 15  1  0
 23 25  1  0
 23 21  1  0
 24 23  2  0
M  END
$$$$
