MLL.pdb
     RDKit          3D

 25 24  0  0  1  0  0  0  0  0999 V2000
   18.5281  -18.5288  -14.4618 C   0  0  0  0  0  0  0  0  0  0  0  0
   20.1269  -19.3090  -14.0728 S   0  0  0  0  0  0  0  0  0  0  0  0
   21.1278  -19.4862  -15.5759 C   0  0  0  0  0  0  0  0  0  0  0  0
   22.3549  -20.2616  -15.2178 C   0  0  0  0  0  0  0  0  0  0  0  0
   23.0344  -19.8003  -13.9719 C   0  0  2  0  0  0  0  0  0  0  0  0
   23.4748  -18.4372  -14.1083 N   0  0  0  0  0  0  0  0  0  0  0  0
   24.1796  -20.6541  -13.5684 C   0  0  0  0  0  0  0  0  0  0  0  0
   24.0536  -21.9065  -13.5453 O   0  0  0  0  0  0  0  0  0  0  0  0
   27.5746  -20.9521  -15.5735 C   0  0  0  0  0  0  0  0  0  0  0  0
   27.7662  -19.7664  -14.6878 C   0  0  2  0  0  0  0  0  0  0  0  0
   28.9278  -18.9032  -15.0846 C   0  0  0  0  0  0  0  0  0  0  0  0
   27.8350  -20.1991  -13.2424 C   0  0  0  0  0  0  0  0  0  0  0  0
   26.5871  -20.9228  -12.8087 C   0  0  2  0  0  0  0  0  0  0  0  0
   25.4435  -20.1306  -13.1966 N   0  0  0  0  0  0  0  0  0  0  0  0
   26.5931  -21.1935  -11.3410 C   0  0  0  0  0  0  0  0  0  0  0  0
   27.2891  -22.1410  -10.8904 O   0  0  0  0  0  0  0  0  0  0  0  0
   28.3752  -21.0545   -7.4208 C   0  0  0  0  0  0  0  0  0  0  0  0
   27.7111  -19.7564   -7.8317 C   0  0  2  0  0  0  0  0  0  0  0  0
   28.2115  -18.6474   -6.9630 C   0  0  0  0  0  0  0  0  0  0  0  0
   26.2720  -19.8354   -8.1130 C   0  0  0  0  0  0  0  0  0  0  0  0
   25.7424  -20.8864   -9.0135 C   0  0  2  0  0  0  0  0  0  0  0  0
   25.8452  -20.4268  -10.4211 N   0  0  0  0  0  0  0  0  0  0  0  0
   24.3592  -21.3110   -8.8299 C   0  0  0  0  0  0  0  0  0  0  0  0
   23.9293  -21.7406   -7.7383 O   0  0  0  0  0  0  0  0  0  0  0  0
   23.4696  -21.2373   -9.9156 O   0  0  0  0  0  0  0  0  0  0  0  0
  2  3  1  0
  2  1  1  0
  3  4  1  0
  4  5  1  0
  5  6  1  6
  7  8  2  0
  7  5  1  0
 10  9  1  6
 10 12  1  0
 11 10  1  0
 13 12  1  1
 13 14  1  0
 14  7  1  0
 15 13  1  0
 16 15  2  0
 18 19  1  1
 18 17  1  0
 21 20  1  1
 20 18  1  0
 21 22  1  0
 22 15  1  0
 23 25  1  0
 23 21  1  0
 24 23  2  0
M  END
$$$$
