MLL.pdb
     RDKit          3D

 25 24  0  0  1  0  0  0  0  0999 V2000
   20.7406  -20.5585   -9.6205 C   0  0  0  0  0  0  0  0  0  0  0  0
   19.7164  -19.7241  -10.8738 S   0  0  0  0  0  0  0  0  0  0  0  0
   20.6191  -19.5883  -12.4419 C   0  0  0  0  0  0  0  0  0  0  0  0
   21.8881  -20.3671  -12.3065 C   0  0  0  0  0  0  0  0  0  0  0  0
   22.8484  -20.1827  -13.4338 C   0  0  2  0  0  0  0  0  0  0  0  0
   22.2687  -20.6287  -14.6730 N   0  0  0  0  0  0  0  0  0  0  0  0
   24.1511  -20.8618  -13.2222 C   0  0  0  0  0  0  0  0  0  0  0  0
   24.2456  -22.1068  -13.3842 O   0  0  0  0  0  0  0  0  0  0  0  0
   27.7402  -20.9119  -15.1549 C   0  0  0  0  0  0  0  0  0  0  0  0
   27.6978  -19.6250  -14.4004 C   0  0  2  0  0  0  0  0  0  0  0  0
   28.7621  -18.6517  -14.8149 C   0  0  0  0  0  0  0  0  0  0  0  0
   27.7047  -19.8903  -12.9135 C   0  0  0  0  0  0  0  0  0  0  0  0
   26.5835  -20.8061  -12.4973 C   0  0  2  0  0  0  0  0  0  0  0  0
   25.3300  -20.1748  -12.8377 N   0  0  0  0  0  0  0  0  0  0  0  0
   26.6547  -21.1329  -11.0427 C   0  0  0  0  0  0  0  0  0  0  0  0
   26.7182  -22.3377  -10.6826 O   0  0  0  0  0  0  0  0  0  0  0  0
   27.4791  -18.3422   -5.5669 C   0  0  0  0  0  0  0  0  0  0  0  0
   27.3961  -19.6435   -6.3381 C   0  0  2  0  0  0  0  0  0  0  0  0
   28.3455  -20.6332   -5.7432 C   0  0  0  0  0  0  0  0  0  0  0  0
   27.3352  -19.5177   -7.7999 C   0  0  0  0  0  0  0  0  0  0  0  0
   26.6618  -20.5578   -8.6129 C   0  0  2  0  0  0  0  0  0  0  0  0
   26.6544  -20.1414  -10.0376 N   0  0  0  0  0  0  0  0  0  0  0  0
   25.2807  -20.8938   -8.2857 C   0  0  0  0  0  0  0  0  0  0  0  0
   24.3085  -20.4013   -8.8964 O   0  0  0  0  0  0  0  0  0  0  0  0
   25.0247  -21.8050   -7.2467 O   0  0  0  0  0  0  0  0  0  0  0  0
  2  3  1  0
  2  1  1  0
  3  4  1  0
  4  5  1  0
  5  6  1  6
  7  8  2  0
  7  5  1  0
 10  9  1  6
 10 12  1  0
 11 10  1  0
 13 12  1  1
 13 14  1  0
 14  7  1  0
 15 13  1  0
 16 15  2  0
 18 19  1  6
 18 17  1  0
 21 20  1  1
 20 18  1  0
 21 22  1  0
 22 15  1  0
 23 25  1  0
 23 21  1  0
 24 23  2  0
M  END
$$$$
