MLL.pdb
     RDKit          3D

 25 24  0  0  1  0  0  0  0  0999 V2000
   30.6378  -23.2883  -15.7562 C   0  0  0  0  0  0  0  0  0  0  0  0
   30.2813  -24.1328  -17.3296 S   0  0  0  0  0  0  0  0  0  0  0  0
   28.8849  -23.3383  -18.1730 C   0  0  0  0  0  0  0  0  0  0  0  0
   28.3482  -22.2776  -17.2663 C   0  0  0  0  0  0  0  0  0  0  0  0
   27.2960  -22.7499  -16.3194 C   0  0  2  0  0  0  0  0  0  0  0  0
   26.1399  -23.2181  -17.0370 N   0  0  0  0  0  0  0  0  0  0  0  0
   26.8838  -21.7241  -15.3288 C   0  0  0  0  0  0  0  0  0  0  0  0
   27.7430  -20.9526  -14.8272 O   0  0  0  0  0  0  0  0  0  0  0  0
   24.3535  -18.1542  -15.4500 C   0  0  0  0  0  0  0  0  0  0  0  0
   23.5329  -19.3963  -15.5555 C   0  0  2  0  0  0  0  0  0  0  0  0
   22.1040  -19.1403  -15.9356 C   0  0  0  0  0  0  0  0  0  0  0  0
   23.6571  -20.2138  -14.2916 C   0  0  0  0  0  0  0  0  0  0  0  0
   25.0911  -20.5457  -13.9714 C   0  0  2  0  0  0  0  0  0  0  0  0
   25.5432  -21.5548  -14.9005 N   0  0  0  0  0  0  0  0  0  0  0  0
   25.2464  -20.9953  -12.5567 C   0  0  0  0  0  0  0  0  0  0  0  0
   24.8556  -22.1460  -12.2277 O   0  0  0  0  0  0  0  0  0  0  0  0
   27.4692  -18.9197   -7.1831 C   0  0  0  0  0  0  0  0  0  0  0  0
   27.1063  -20.1574   -7.9776 C   0  0  2  0  0  0  0  0  0  0  0  0
   27.9237  -21.3126   -7.4957 C   0  0  0  0  0  0  0  0  0  0  0  0
   26.9454  -19.9641   -9.4244 C   0  0  0  0  0  0  0  0  0  0  0  0
   25.8812  -20.6852  -10.1617 C   0  0  2  0  0  0  0  0  0  0  0  0
   25.8189  -20.1802  -11.5560 N   0  0  0  0  0  0  0  0  0  0  0  0
   24.5192  -20.6083   -9.6457 C   0  0  0  0  0  0  0  0  0  0  0  0
   23.7246  -19.7053   -9.9835 O   0  0  0  0  0  0  0  0  0  0  0  0
   24.0754  -21.5821   -8.7345 O   0  0  0  0  0  0  0  0  0  0  0  0
  2  3  1  0
  2  1  1  0
  3  4  1  0
  4  5  1  0
  5  6  1  6
  7  8  2  0
  7  5  1  0
 10  9  1  1
 10 12  1  0
 11 10  1  0
 13 12  1  6
 13 14  1  0
 14  7  1  0
 15 13  1  0
 16 15  2  0
 18 19  1  6
 18 17  1  0
 21 20  1  1
 20 18  1  0
 21 22  1  0
 22 15  1  0
 23 25  1  0
 23 21  1  0
 24 23  2  0
M  END
$$$$
