MLL.pdb
     RDKit          3D

 25 24  0  0  1  0  0  0  0  0999 V2000
   19.9823  -22.3558  -14.4568 C   0  0  0  0  0  0  0  0  0  0  0  0
   19.3300  -20.7358  -14.9728 S   0  0  0  0  0  0  0  0  0  0  0  0
   20.6901  -19.5800  -15.2997 C   0  0  0  0  0  0  0  0  0  0  0  0
   21.9740  -20.3047  -15.0516 C   0  0  0  0  0  0  0  0  0  0  0  0
   22.8617  -19.6587  -14.0409 C   0  0  2  0  0  0  0  0  0  0  0  0
   23.1687  -18.3063  -14.4249 N   0  0  0  0  0  0  0  0  0  0  0  0
   24.1220  -20.4031  -13.7942 C   0  0  0  0  0  0  0  0  0  0  0  0
   24.0901  -21.6456  -13.5936 O   0  0  0  0  0  0  0  0  0  0  0  0
   27.3438  -20.2313  -16.4170 C   0  0  0  0  0  0  0  0  0  0  0  0
   27.4886  -19.0869  -15.4702 C   0  0  2  0  0  0  0  0  0  0  0  0
   28.4914  -18.0634  -15.9158 C   0  0  0  0  0  0  0  0  0  0  0  0
   27.7625  -19.5946  -14.0743 C   0  0  0  0  0  0  0  0  0  0  0  0
   26.6492  -20.4711  -13.5628 C   0  0  2  0  0  0  0  0  0  0  0  0
   25.3965  -19.7829  -13.7700 N   0  0  0  0  0  0  0  0  0  0  0  0
   26.8476  -20.8263  -12.1268 C   0  0  0  0  0  0  0  0  0  0  0  0
   27.7802  -21.6096  -11.8074 O   0  0  0  0  0  0  0  0  0  0  0  0
   27.3364  -18.7767   -6.6433 C   0  0  0  0  0  0  0  0  0  0  0  0
   27.2483  -20.0217   -7.5019 C   0  0  2  0  0  0  0  0  0  0  0  0
   28.3509  -20.9598   -7.1286 C   0  0  0  0  0  0  0  0  0  0  0  0
   26.9664  -19.7980   -8.9256 C   0  0  0  0  0  0  0  0  0  0  0  0
   26.2228  -20.8124   -9.7093 C   0  0  2  0  0  0  0  0  0  0  0  0
   26.0281  -20.3185  -11.0954 N   0  0  0  0  0  0  0  0  0  0  0  0
   24.9018  -21.2094   -9.2353 C   0  0  0  0  0  0  0  0  0  0  0  0
   23.8565  -20.9486   -9.8679 O   0  0  0  0  0  0  0  0  0  0  0  0
   24.7912  -21.9124   -8.0233 O   0  0  0  0  0  0  0  0  0  0  0  0
  2  3  1  0
  2  1  1  0
  3  4  1  0
  4  5  1  0
  5  6  1  6
  7  8  2  0
  7  5  1  0
 10  9  1  6
 10 12  1  0
 11 10  1  0
 13 12  1  1
 13 14  1  0
 14  7  1  0
 15 13  1  0
 16 15  2  0
 18 19  1  6
 18 17  1  0
 21 20  1  1
 20 18  1  0
 21 22  1  0
 22 15  1  0
 23 25  1  0
 23 21  1  0
 24 23  2  0
M  END
$$$$
