MLL.pdb
     RDKit          3D

 25 24  0  0  1  0  0  0  0  0999 V2000
   20.6523  -19.4551  -14.1392 C   0  0  0  0  0  0  0  0  0  0  0  0
   21.4135  -17.8467  -14.5260 S   0  0  0  0  0  0  0  0  0  0  0  0
   23.0138  -18.0843  -15.3476 C   0  0  0  0  0  0  0  0  0  0  0  0
   23.7153  -19.2126  -14.6622 C   0  0  0  0  0  0  0  0  0  0  0  0
   25.1002  -19.4688  -15.1557 C   0  0  2  0  0  0  0  0  0  0  0  0
   25.0917  -19.7576  -16.5653 N   0  0  0  0  0  0  0  0  0  0  0  0
   25.7978  -20.5593  -14.4295 C   0  0  0  0  0  0  0  0  0  0  0  0
   25.5515  -21.7614  -14.7115 O   0  0  0  0  0  0  0  0  0  0  0  0
   29.3643  -21.8025  -14.6789 C   0  0  0  0  0  0  0  0  0  0  0  0
   29.4850  -20.6629  -13.7229 C   0  0  2  0  0  0  0  0  0  0  0  0
   30.8941  -20.1801  -13.5406 C   0  0  0  0  0  0  0  0  0  0  0  0
   28.8180  -21.0070  -12.4122 C   0  0  0  0  0  0  0  0  0  0  0  0
   27.3614  -21.3469  -12.5911 C   0  0  2  0  0  0  0  0  0  0  0  0
   26.7523  -20.3237  -13.4083 N   0  0  0  0  0  0  0  0  0  0  0  0
   26.6659  -21.4846  -11.2777 C   0  0  0  0  0  0  0  0  0  0  0  0
   26.9231  -22.4745  -10.5433 O   0  0  0  0  0  0  0  0  0  0  0  0
   26.9177  -21.4601   -7.1156 C   0  0  0  0  0  0  0  0  0  0  0  0
   26.8128  -20.1241   -7.8219 C   0  0  2  0  0  0  0  0  0  0  0  0
   27.3998  -19.0576   -6.9541 C   0  0  0  0  0  0  0  0  0  0  0  0
   25.5376  -19.8573   -8.4994 C   0  0  0  0  0  0  0  0  0  0  0  0
   25.0253  -20.7954   -9.5260 C   0  0  2  0  0  0  0  0  0  0  0  0
   25.7205  -20.5445  -10.8133 N   0  0  0  0  0  0  0  0  0  0  0  0
   23.5987  -20.7664   -9.8280 C   0  0  0  0  0  0  0  0  0  0  0  0
   22.7241  -20.8966   -8.9453 O   0  0  0  0  0  0  0  0  0  0  0  0
   23.1832  -20.5854  -11.1584 O   0  0  0  0  0  0  0  0  0  0  0  0
  2  3  1  0
  2  1  1  0
  3  4  1  0
  4  5  1  0
  5  6  1  6
  7  8  2  0
  7  5  1  0
 10  9  1  6
 10 12  1  0
 11 10  1  0
 13 12  1  1
 13 14  1  0
 14  7  1  0
 15 13  1  0
 16 15  2  0
 18 19  1  1
 18 17  1  0
 21 20  1  1
 20 18  1  0
 21 22  1  0
 22 15  1  0
 23 25  1  0
 23 21  1  0
 24 23  2  0
M  END
$$$$
