MLL.pdb
     RDKit          3D

 25 24  0  0  1  0  0  0  0  0999 V2000
   18.0518  -14.1864  -15.4264 C   0  0  0  0  0  0  0  0  0  0  0  0
   17.9791  -13.4887  -17.1069 S   0  0  0  0  0  0  0  0  0  0  0  0
   18.4165  -11.7279  -17.0815 C   0  0  0  0  0  0  0  0  0  0  0  0
   19.7510  -11.5990  -16.4198 C   0  0  0  0  0  0  0  0  0  0  0  0
   19.9566  -10.3129  -15.6913 C   0  0  2  0  0  0  0  0  0  0  0  0
   18.7340   -9.5556  -15.6427 N   0  0  0  0  0  0  0  0  0  0  0  0
   21.0388   -9.4727  -16.2623 C   0  0  0  0  0  0  0  0  0  0  0  0
   22.2094   -9.9279  -16.3494 O   0  0  0  0  0  0  0  0  0  0  0  0
   23.0135   -5.3004  -19.0734 C   0  0  0  0  0  0  0  0  0  0  0  0
   22.4765   -6.5535  -19.6804 C   0  0  2  0  0  0  0  0  0  0  0  0
   22.0627   -6.3955  -21.1142 C   0  0  0  0  0  0  0  0  0  0  0  0
   21.3725   -7.1202  -18.8194 C   0  0  0  0  0  0  0  0  0  0  0  0
   21.8206   -7.3412  -17.3984 C   0  0  2  0  0  0  0  0  0  0  0  0
   20.8293   -8.1508  -16.7292 N   0  0  0  0  0  0  0  0  0  0  0  0
   22.0426   -6.0482  -16.6867 C   0  0  0  0  0  0  0  0  0  0  0  0
   23.0124   -5.3179  -17.0205 O   0  0  0  0  0  0  0  0  0  0  0  0
   20.5911   -2.0445  -16.8829 C   0  0  0  0  0  0  0  0  0  0  0  0
   19.7150   -2.9419  -16.0332 C   0  0  2  0  0  0  0  0  0  0  0  0
   18.3508   -2.3408  -15.9219 C   0  0  0  0  0  0  0  0  0  0  0  0
   20.3433   -3.4900  -14.8244 C   0  0  0  0  0  0  0  0  0  0  0  0
   21.5501   -4.3435  -14.9299 C   0  0  2  0  0  0  0  0  0  0  0  0
   21.2051   -5.5989  -15.6427 N   0  0  0  0  0  0  0  0  0  0  0  0
   22.2093   -4.7516  -13.6945 C   0  0  0  0  0  0  0  0  0  0  0  0
   22.7006   -3.9283  -12.8934 O   0  0  0  0  0  0  0  0  0  0  0  0
   22.2994   -6.1197  -13.3852 O   0  0  0  0  0  0  0  0  0  0  0  0
  2  3  1  0
  2  1  1  0
  3  4  1  0
  4  5  1  0
  5  6  1  6
  7  8  2  0
  7  5  1  0
 10  9  1  1
 10 12  1  0
 11 10  1  0
 13 12  1  6
 13 14  1  0
 14  7  1  0
 15 13  1  0
 16 15  2  0
 18 19  1  1
 18 17  1  0
 21 20  1  1
 20 18  1  0
 21 22  1  0
 22 15  1  0
 23 25  1  0
 23 21  1  0
 24 23  2  0
M  END
$$$$
