VKR.pdb
     RDKit          3D

 28 27  0  0  1  0  0  0  0  0999 V2000
   11.8712  -19.8462   17.0231 C   0  0  0  0  0  0  0  0  0  0  0  0
   12.4877  -19.3022   15.7534 C   0  0  1  0  0  0  0  0  0  0  0  0
   12.5529  -20.4103   14.7470 C   0  0  0  0  0  0  0  0  0  0  0  0
   11.6568  -18.1369   15.2624 C   0  0  2  0  0  0  0  0  0  0  0  0
   12.1963  -17.5787   14.0361 N   0  0  0  0  0  0  0  0  0  0  0  0
   11.5906  -17.0939   16.3175 C   0  0  0  0  0  0  0  0  0  0  0  0
   12.6397  -16.4172   16.5696 O   0  0  0  0  0  0  0  0  0  0  0  0
   10.4048  -16.8189   17.0571 N   0  0  0  0  0  0  0  0  0  0  0  0
   10.3615  -15.7097   18.0358 C   0  0  1  0  0  0  0  0  0  0  0  0
    8.9162  -15.3009   18.0882 C   0  0  0  0  0  0  0  0  0  0  0  0
    8.5733  -14.2474   19.0730 C   0  0  0  0  0  0  0  0  0  0  0  0
    7.1069  -13.8232   18.9678 C   0  0  0  0  0  0  0  0  0  0  0  0
    6.7869  -12.7878   20.0389 C   0  0  0  0  0  0  0  0  0  0  0  0
    5.4059  -12.3899   19.8801 N   0  0  0  0  0  0  0  0  0  0  0  0
   10.9214  -16.1953   19.2965 C   0  0  0  0  0  0  0  0  0  0  0  0
   10.5280  -17.3248   19.7296 O   0  0  0  0  0  0  0  0  0  0  0  0
   18.6624  -13.8039   18.7770 N   0  0  0  0  0  0  0  0  0  0  0  0
   17.3227  -13.9260   19.2723 C   0  0  0  0  0  0  0  0  0  0  0  0
   16.3819  -13.2110   18.7613 N   0  0  0  0  0  0  0  0  0  0  0  0
   17.0131  -14.8276   20.3228 N   0  0  0  0  0  0  0  0  0  0  0  0
   15.9078  -14.5754   21.2518 C   0  0  0  0  0  0  0  0  0  0  0  0
   14.7525  -15.4554   20.8071 C   0  0  0  0  0  0  0  0  0  0  0  0
   13.6228  -15.3315   21.7862 C   0  0  0  0  0  0  0  0  0  0  0  0
   12.3666  -16.0650   21.3821 C   0  0  2  0  0  0  0  0  0  0  0  0
   11.8679  -15.5422   20.1004 N   0  0  0  0  0  0  0  0  0  0  0  0
   11.3226  -15.7998   22.3850 C   0  0  0  0  0  0  0  0  0  0  0  0
   10.3763  -15.0338   22.0950 O   0  0  0  0  0  0  0  0  0  0  0  0
   11.3265  -16.3571   23.6486 O   0  0  0  0  0  0  0  0  0  0  0  0
  2  1  1  1
  3  2  1  0
  4  2  1  0
  4  5  1  6
  6  7  2  0
  6  4  1  0
  8  6  1  0
  9  8  1  0
  9 10  1  1
 11 10  1  0
 12 11  1  0
 13 14  1  0
 13 12  1  0
 15 16  2  0
 15  9  1  0
 18 17  1  0
 19 18  2  0
 20 18  1  0
 21 22  1  0
 21 20  1  0
 22 23  1  0
 24 23  1  1
 24 25  1  0
 25 15  1  0
 26 24  1  0
 27 26  2  0
 28 26  1  0
M  END
$$$$
