VKR.pdb
     RDKit          3D

 28 27  0  0  1  0  0  0  0  0999 V2000
    6.3586  -10.8841   27.0434 C   0  0  0  0  0  0  0  0  0  0  0  0
    7.0650  -11.9435   26.2269 C   0  0  1  0  0  0  0  0  0  0  0  0
    8.0869  -12.6085   27.0979 C   0  0  0  0  0  0  0  0  0  0  0  0
    6.0405  -12.9253   25.7018 C   0  0  2  0  0  0  0  0  0  0  0  0
    5.4356  -13.6888   26.7777 N   0  0  0  0  0  0  0  0  0  0  0  0
    6.6825  -13.8371   24.7211 C   0  0  0  0  0  0  0  0  0  0  0  0
    6.8955  -15.0452   25.0637 O   0  0  0  0  0  0  0  0  0  0  0  0
    7.0683  -13.4179   23.4156 N   0  0  0  0  0  0  0  0  0  0  0  0
    7.6162  -14.3856   22.4393 C   0  0  1  0  0  0  0  0  0  0  0  0
    7.6997  -13.6216   21.1478 C   0  0  0  0  0  0  0  0  0  0  0  0
    8.2666  -14.3570   19.9923 C   0  0  0  0  0  0  0  0  0  0  0  0
    8.2470  -13.5151   18.7147 C   0  0  0  0  0  0  0  0  0  0  0  0
    8.7778  -14.3338   17.5443 C   0  0  0  0  0  0  0  0  0  0  0  0
    8.8350  -13.4730   16.3839 N   0  0  0  0  0  0  0  0  0  0  0  0
    8.8908  -14.8807   22.9580 C   0  0  0  0  0  0  0  0  0  0  0  0
    9.7511  -14.0270   23.3443 O   0  0  0  0  0  0  0  0  0  0  0  0
   10.6657  -19.7078   28.3361 N   0  0  0  0  0  0  0  0  0  0  0  0
   11.9835  -20.0824   27.9137 C   0  0  0  0  0  0  0  0  0  0  0  0
   12.9054  -20.2828   28.7897 N   0  0  0  0  0  0  0  0  0  0  0  0
   12.2915  -20.2376   26.5378 N   0  0  0  0  0  0  0  0  0  0  0  0
   11.3090  -19.9403   25.4916 C   0  0  0  0  0  0  0  0  0  0  0  0
   11.4943  -18.4795   25.1192 C   0  0  0  0  0  0  0  0  0  0  0  0
   10.4947  -18.1000   24.0672 C   0  0  0  0  0  0  0  0  0  0  0  0
   10.5788  -16.6606   23.6199 C   0  0  2  0  0  0  0  0  0  0  0  0
    9.2805  -16.2228   23.0835 N   0  0  0  0  0  0  0  0  0  0  0  0
   11.5487  -16.5655   22.5171 C   0  0  0  0  0  0  0  0  0  0  0  0
   11.2131  -16.9457   21.3728 O   0  0  0  0  0  0  0  0  0  0  0  0
   12.8290  -16.0723   22.6742 O   0  0  0  0  0  0  0  0  0  0  0  0
  2  1  1  1
  3  2  1  0
  4  2  1  0
  4  5  1  1
  6  7  2  0
  6  4  1  0
  8  6  1  0
  9  8  1  0
  9 10  1  6
 11 10  1  0
 12 11  1  0
 13 14  1  0
 13 12  1  0
 15 16  2  0
 15  9  1  0
 18 17  1  0
 19 18  2  0
 20 18  1  0
 21 22  1  0
 21 20  1  0
 22 23  1  0
 24 23  1  6
 24 25  1  0
 25 15  1  0
 26 24  1  0
 27 26  2  0
 28 26  1  0
M  END
$$$$
