VKR.pdb
     RDKit          3D

 28 27  0  0  1  0  0  0  0  0999 V2000
   10.2797  -13.4778   19.7642 C   0  0  0  0  0  0  0  0  0  0  0  0
    8.8954  -12.9064   19.5515 C   0  0  1  0  0  0  0  0  0  0  0  0
    9.0026  -11.7456   18.6102 C   0  0  0  0  0  0  0  0  0  0  0  0
    7.9913  -13.9933   19.0126 C   0  0  2  0  0  0  0  0  0  0  0  0
    6.6500  -13.4961   18.7676 N   0  0  0  0  0  0  0  0  0  0  0  0
    7.9530  -15.1282   19.9697 C   0  0  0  0  0  0  0  0  0  0  0  0
    7.2877  -14.9921   21.0473 O   0  0  0  0  0  0  0  0  0  0  0  0
    8.6272  -16.3603   19.7328 N   0  0  0  0  0  0  0  0  0  0  0  0
    8.5515  -17.4668   20.7126 C   0  0  1  0  0  0  0  0  0  0  0  0
    8.6633  -18.7179   19.8873 C   0  0  0  0  0  0  0  0  0  0  0  0
    8.7807  -19.9876   20.6432 C   0  0  0  0  0  0  0  0  0  0  0  0
    8.9311  -21.1936   19.7135 C   0  0  0  0  0  0  0  0  0  0  0  0
    9.0724  -22.4691   20.5349 C   0  0  0  0  0  0  0  0  0  0  0  0
    9.2519  -23.5744   19.6202 N   0  0  0  0  0  0  0  0  0  0  0  0
    9.6120  -17.2710   21.7004 C   0  0  0  0  0  0  0  0  0  0  0  0
   10.7179  -16.7849   21.3019 O   0  0  0  0  0  0  0  0  0  0  0  0
   11.0089  -19.3287   29.4768 N   0  0  0  0  0  0  0  0  0  0  0  0
   11.7470  -18.1168   29.6808 C   0  0  0  0  0  0  0  0  0  0  0  0
   12.6148  -18.0458   30.6291 N   0  0  0  0  0  0  0  0  0  0  0  0
   11.5368  -16.9865   28.8499 N   0  0  0  0  0  0  0  0  0  0  0  0
   10.4716  -16.9595   27.8434 C   0  0  0  0  0  0  0  0  0  0  0  0
   11.1375  -17.1741   26.4952 C   0  0  0  0  0  0  0  0  0  0  0  0
   10.0988  -17.1459   25.4134 C   0  0  0  0  0  0  0  0  0  0  0  0
   10.6472  -17.3369   24.0198 C   0  0  2  0  0  0  0  0  0  0  0  0
    9.5454  -17.5630   23.0712 N   0  0  0  0  0  0  0  0  0  0  0  0
   11.4791  -18.5509   24.0030 C   0  0  0  0  0  0  0  0  0  0  0  0
   10.9300  -19.6668   23.8626 O   0  0  0  0  0  0  0  0  0  0  0  0
   12.8536  -18.5296   24.1346 O   0  0  0  0  0  0  0  0  0  0  0  0
  2  1  1  6
  3  2  1  0
  4  2  1  0
  4  5  1  1
  6  7  2  0
  6  4  1  0
  8  6  1  0
  9  8  1  0
  9 10  1  6
 11 10  1  0
 12 11  1  0
 13 14  1  0
 13 12  1  0
 15 16  2  0
 15  9  1  0
 18 17  1  0
 19 18  2  0
 20 18  1  0
 21 22  1  0
 21 20  1  0
 22 23  1  0
 24 23  1  1
 24 25  1  0
 25 15  1  0
 26 24  1  0
 27 26  2  0
 28 26  1  0
M  END
$$$$
