VKR.pdb
     RDKit          3D

 28 27  0  0  1  0  0  0  0  0999 V2000
    9.1620  -12.8460   18.0357 C   0  0  0  0  0  0  0  0  0  0  0  0
    8.7562  -13.5143   19.3306 C   0  0  1  0  0  0  0  0  0  0  0  0
    7.6246  -12.7362   19.9299 C   0  0  0  0  0  0  0  0  0  0  0  0
    8.3707  -14.9491   19.0448 C   0  0  2  0  0  0  0  0  0  0  0  0
    7.3594  -15.0312   18.0070 N   0  0  0  0  0  0  0  0  0  0  0  0
    7.8822  -15.5907   20.2918 C   0  0  0  0  0  0  0  0  0  0  0  0
    6.6907  -15.3502   20.6724 O   0  0  0  0  0  0  0  0  0  0  0  0
    8.6887  -16.4627   21.0779 N   0  0  0  0  0  0  0  0  0  0  0  0
    8.1489  -17.0989   22.3001 C   0  0  1  0  0  0  0  0  0  0  0  0
    8.2264  -18.5753   22.0300 C   0  0  0  0  0  0  0  0  0  0  0  0
    7.9077  -19.4635   23.1732 C   0  0  0  0  0  0  0  0  0  0  0  0
    8.0401  -20.9419   22.8016 C   0  0  0  0  0  0  0  0  0  0  0  0
    7.6515  -21.8135   23.9894 C   0  0  0  0  0  0  0  0  0  0  0  0
    7.8432  -23.1964   23.6131 N   0  0  0  0  0  0  0  0  0  0  0  0
    8.9342  -16.6286   23.4407 C   0  0  0  0  0  0  0  0  0  0  0  0
   10.2024  -16.6569   23.3458 O   0  0  0  0  0  0  0  0  0  0  0  0
    4.9873  -11.7897   28.1904 N   0  0  0  0  0  0  0  0  0  0  0  0
    5.5411  -11.4240   26.9196 C   0  0  0  0  0  0  0  0  0  0  0  0
    5.1771  -10.3269   26.3528 N   0  0  0  0  0  0  0  0  0  0  0  0
    6.4901  -12.2554   26.2715 N   0  0  0  0  0  0  0  0  0  0  0  0
    7.9089  -12.2341   26.6387 C   0  0  0  0  0  0  0  0  0  0  0  0
    8.5961  -13.2920   25.7928 C   0  0  0  0  0  0  0  0  0  0  0  0
    8.6215  -14.5923   26.5402 C   0  0  0  0  0  0  0  0  0  0  0  0
    9.2775  -15.7273   25.7913 C   0  0  2  0  0  0  0  0  0  0  0  0
    8.4353  -16.1352   24.6558 N   0  0  0  0  0  0  0  0  0  0  0  0
    9.3747  -16.8900   26.6883 C   0  0  0  0  0  0  0  0  0  0  0  0
    8.3799  -17.6356   26.8333 O   0  0  0  0  0  0  0  0  0  0  0  0
   10.5195  -17.2118   27.3906 O   0  0  0  0  0  0  0  0  0  0  0  0
  2  1  1  6
  3  2  1  0
  4  2  1  0
  4  5  1  6
  6  7  2  0
  6  4  1  0
  8  6  1  0
  9  8  1  0
  9 10  1  6
 11 10  1  0
 12 11  1  0
 13 14  1  0
 13 12  1  0
 15 16  2  0
 15  9  1  0
 18 17  1  0
 19 18  2  0
 20 18  1  0
 21 22  1  0
 21 20  1  0
 22 23  1  0
 24 23  1  1
 24 25  1  0
 25 15  1  0
 26 24  1  0
 27 26  2  0
 28 26  1  0
M  END
$$$$
