VKR.pdb
     RDKit          3D

 28 27  0  0  1  0  0  0  0  0999 V2000
    8.5020  -12.4033   18.3495 C   0  0  0  0  0  0  0  0  0  0  0  0
    8.6743  -13.3601   19.5083 C   0  0  1  0  0  0  0  0  0  0  0  0
    7.8239  -12.8830   20.6460 C   0  0  0  0  0  0  0  0  0  0  0  0
    8.2918  -14.7530   19.0582 C   0  0  2  0  0  0  0  0  0  0  0  0
    6.9447  -14.7864   18.5192 N   0  0  0  0  0  0  0  0  0  0  0  0
    8.4134  -15.6954   20.1994 C   0  0  0  0  0  0  0  0  0  0  0  0
    7.3860  -15.9125   20.9202 O   0  0  0  0  0  0  0  0  0  0  0  0
    9.6284  -16.3658   20.5203 N   0  0  0  0  0  0  0  0  0  0  0  0
    9.6921  -17.3219   21.6481 C   0  0  1  0  0  0  0  0  0  0  0  0
   10.4561  -18.4990   21.1101 C   0  0  0  0  0  0  0  0  0  0  0  0
   10.7731  -19.5696   22.0850 C   0  0  0  0  0  0  0  0  0  0  0  0
   11.5875  -20.6981   21.4489 C   0  0  0  0  0  0  0  0  0  0  0  0
   11.8639  -21.7852   22.4802 C   0  0  0  0  0  0  0  0  0  0  0  0
   12.5809  -22.8552   21.8232 N   0  0  0  0  0  0  0  0  0  0  0  0
   10.3096  -16.6410   22.7855 C   0  0  0  0  0  0  0  0  0  0  0  0
   10.8569  -15.5111   22.5807 O   0  0  0  0  0  0  0  0  0  0  0  0
    7.0122  -10.9096   26.3896 N   0  0  0  0  0  0  0  0  0  0  0  0
    6.3261  -12.1211   26.7310 C   0  0  0  0  0  0  0  0  0  0  0  0
    5.0735  -12.2471   26.4614 N   0  0  0  0  0  0  0  0  0  0  0  0
    7.0079  -13.1914   27.3648 N   0  0  0  0  0  0  0  0  0  0  0  0
    7.2816  -14.4502   26.6657 C   0  0  0  0  0  0  0  0  0  0  0  0
    8.7508  -14.4272   26.2811 C   0  0  0  0  0  0  0  0  0  0  0  0
    8.9844  -15.3710   25.1389 C   0  0  0  0  0  0  0  0  0  0  0  0
   10.2075  -16.2426   25.2928 C   0  0  2  0  0  0  0  0  0  0  0  0
   10.3657  -17.1025   24.1094 N   0  0  0  0  0  0  0  0  0  0  0  0
   10.0074  -17.1365   26.4447 C   0  0  0  0  0  0  0  0  0  0  0  0
   10.1929  -16.6950   27.6010 O   0  0  0  0  0  0  0  0  0  0  0  0
    9.6197  -18.4562   26.3215 O   0  0  0  0  0  0  0  0  0  0  0  0
  2  1  1  6
  3  2  1  0
  4  2  1  0
  4  5  1  1
  6  7  2  0
  6  4  1  0
  8  6  1  0
  9  8  1  0
  9 10  1  6
 11 10  1  0
 12 11  1  0
 13 14  1  0
 13 12  1  0
 15 16  2  0
 15  9  1  0
 18 17  1  0
 19 18  2  0
 20 18  1  0
 21 22  1  0
 21 20  1  0
 22 23  1  0
 24 23  1  6
 24 25  1  0
 25 15  1  0
 26 24  1  0
 27 26  2  0
 28 26  1  0
M  END
$$$$
