VKR.pdb
     RDKit          3D

 28 27  0  0  1  0  0  0  0  0999 V2000
    8.6554  -13.0168   21.1848 C   0  0  0  0  0  0  0  0  0  0  0  0
    7.6171  -13.4900   20.1918 C   0  0  1  0  0  0  0  0  0  0  0  0
    7.3278  -12.3693   19.2402 C   0  0  0  0  0  0  0  0  0  0  0  0
    8.1397  -14.7189   19.4805 C   0  0  2  0  0  0  0  0  0  0  0  0
    7.2354  -15.1501   18.4304 N   0  0  0  0  0  0  0  0  0  0  0  0
    8.3460  -15.8125   20.4637 C   0  0  0  0  0  0  0  0  0  0  0  0
    7.3377  -16.4998   20.8286 O   0  0  0  0  0  0  0  0  0  0  0  0
    9.6222  -16.1247   21.0139 N   0  0  0  0  0  0  0  0  0  0  0  0
    9.7948  -17.2816   21.9204 C   0  0  1  0  0  0  0  0  0  0  0  0
   10.7654  -18.1833   21.2107 C   0  0  0  0  0  0  0  0  0  0  0  0
   10.1690  -19.2284   20.3451 C   0  0  0  0  0  0  0  0  0  0  0  0
   11.2387  -20.0460   19.6178 C   0  0  0  0  0  0  0  0  0  0  0  0
   10.5782  -21.0544   18.6858 C   0  0  0  0  0  0  0  0  0  0  0  0
   11.6222  -21.8020   18.0211 N   0  0  0  0  0  0  0  0  0  0  0  0
   10.2418  -16.7778   23.2185 C   0  0  0  0  0  0  0  0  0  0  0  0
   11.2900  -16.0578   23.2516 O   0  0  0  0  0  0  0  0  0  0  0  0
    5.0979  -12.4364   25.9380 N   0  0  0  0  0  0  0  0  0  0  0  0
    6.3441  -11.8305   26.3060 C   0  0  0  0  0  0  0  0  0  0  0  0
    6.4042  -10.5612   26.5124 N   0  0  0  0  0  0  0  0  0  0  0  0
    7.5201  -12.6107   26.4482 N   0  0  0  0  0  0  0  0  0  0  0  0
    7.4601  -14.0510   26.7135 C   0  0  0  0  0  0  0  0  0  0  0  0
    8.4973  -14.7050   25.8171 C   0  0  0  0  0  0  0  0  0  0  0  0
    9.1549  -15.8344   26.5534 C   0  0  0  0  0  0  0  0  0  0  0  0
   10.1958  -16.5772   25.7509 C   0  0  2  0  0  0  0  0  0  0  0  0
    9.6294  -17.0016   24.4609 N   0  0  0  0  0  0  0  0  0  0  0  0
   10.5649  -17.8028   26.4774 C   0  0  0  0  0  0  0  0  0  0  0  0
   11.2010  -17.7093   27.5512 O   0  0  0  0  0  0  0  0  0  0  0  0
   10.2442  -19.0713   26.0356 O   0  0  0  0  0  0  0  0  0  0  0  0
  2  1  1  1
  3  2  1  0
  4  2  1  0
  4  5  1  6
  6  7  2  0
  6  4  1  0
  8  6  1  0
  9  8  1  0
  9 10  1  6
 11 10  1  0
 12 11  1  0
 13 14  1  0
 13 12  1  0
 15 16  2  0
 15  9  1  0
 18 17  1  0
 19 18  2  0
 20 18  1  0
 21 22  1  0
 21 20  1  0
 22 23  1  0
 24 23  1  1
 24 25  1  0
 25 15  1  0
 26 24  1  0
 27 26  2  0
 28 26  1  0
M  END
$$$$
