VKR.pdb
     RDKit          3D

 28 27  0  0  1  0  0  0  0  0999 V2000
    7.2021  -12.6030   20.4511 C   0  0  0  0  0  0  0  0  0  0  0  0
    7.7548  -13.3676   19.2688 C   0  0  1  0  0  0  0  0  0  0  0  0
    7.8344  -12.4355   18.0983 C   0  0  0  0  0  0  0  0  0  0  0  0
    9.1087  -13.9335   19.6375 C   0  0  2  0  0  0  0  0  0  0  0  0
    9.7722  -14.5176   18.4864 N   0  0  0  0  0  0  0  0  0  0  0  0
    8.9482  -14.9487   20.7095 C   0  0  0  0  0  0  0  0  0  0  0  0
    8.4475  -14.5833   21.8222 O   0  0  0  0  0  0  0  0  0  0  0  0
    9.3292  -16.3112   20.5450 N   0  0  0  0  0  0  0  0  0  0  0  0
    9.1256  -17.2924   21.6340 C   0  0  1  0  0  0  0  0  0  0  0  0
    8.5606  -18.5078   20.9542 C   0  0  0  0  0  0  0  0  0  0  0  0
    8.8068  -18.6113   19.4962 C   0  0  0  0  0  0  0  0  0  0  0  0
    8.8093  -20.0653   19.0194 C   0  0  0  0  0  0  0  0  0  0  0  0
    9.0241  -20.1180   17.5119 C   0  0  0  0  0  0  0  0  0  0  0  0
    9.0678  -21.5071   17.1130 N   0  0  0  0  0  0  0  0  0  0  0  0
   10.4068  -17.4915   22.3103 C   0  0  0  0  0  0  0  0  0  0  0  0
   10.9425  -18.6436   22.2490 O   0  0  0  0  0  0  0  0  0  0  0  0
   12.3951  -14.9092   28.8617 N   0  0  0  0  0  0  0  0  0  0  0  0
   11.0630  -15.1081   29.3528 C   0  0  0  0  0  0  0  0  0  0  0  0
   10.8790  -15.6163   30.5213 N   0  0  0  0  0  0  0  0  0  0  0  0
    9.9361  -14.7517   28.5685 N   0  0  0  0  0  0  0  0  0  0  0  0
   10.0318  -14.5861   27.1154 C   0  0  0  0  0  0  0  0  0  0  0  0
    9.6908  -15.9313   26.4979 C   0  0  0  0  0  0  0  0  0  0  0  0
    9.8628  -15.8573   25.0096 C   0  0  0  0  0  0  0  0  0  0  0  0
   11.1560  -16.4491   24.5030 C   0  0  2  0  0  0  0  0  0  0  0  0
   11.1310  -16.5321   23.0342 N   0  0  0  0  0  0  0  0  0  0  0  0
   11.2721  -17.8276   25.0052 C   0  0  0  0  0  0  0  0  0  0  0  0
   12.0400  -18.0666   25.9641 O   0  0  0  0  0  0  0  0  0  0  0  0
   10.5706  -18.8905   24.4710 O   0  0  0  0  0  0  0  0  0  0  0  0
  2  1  1  1
  3  2  1  0
  4  2  1  0
  4  5  1  6
  6  7  2  0
  6  4  1  0
  8  6  1  0
  9  8  1  0
  9 10  1  6
 11 10  1  0
 12 11  1  0
 13 14  1  0
 13 12  1  0
 15 16  2  0
 15  9  1  0
 18 17  1  0
 19 18  2  0
 20 18  1  0
 21 22  1  0
 21 20  1  0
 22 23  1  0
 24 23  1  1
 24 25  1  0
 25 15  1  0
 26 24  1  0
 27 26  2  0
 28 26  1  0
M  END
$$$$
