VKR.pdb
     RDKit          3D

 28 27  0  0  1  0  0  0  0  0999 V2000
    7.9484  -11.5546   25.5198 C   0  0  0  0  0  0  0  0  0  0  0  0
    6.9691  -12.3821   26.3224 C   0  0  1  0  0  0  0  0  0  0  0  0
    6.2881  -11.4834   27.3092 C   0  0  0  0  0  0  0  0  0  0  0  0
    5.9858  -13.0363   25.3767 C   0  0  2  0  0  0  0  0  0  0  0  0
    5.0619  -13.9023   26.0858 N   0  0  0  0  0  0  0  0  0  0  0  0
    6.7255  -13.8069   24.3451 C   0  0  0  0  0  0  0  0  0  0  0  0
    7.1247  -14.9814   24.6341 O   0  0  0  0  0  0  0  0  0  0  0  0
    7.0058  -13.2887   23.0483 N   0  0  0  0  0  0  0  0  0  0  0  0
    7.7138  -14.1091   22.0405 C   0  0  1  0  0  0  0  0  0  0  0  0
    7.8334  -13.2180   20.8362 C   0  0  0  0  0  0  0  0  0  0  0  0
    8.6504  -13.7435   19.7166 C   0  0  0  0  0  0  0  0  0  0  0  0
    7.8197  -14.5959   18.7548 C   0  0  0  0  0  0  0  0  0  0  0  0
    8.7013  -15.1145   17.6255 C   0  0  0  0  0  0  0  0  0  0  0  0
    7.8904  -15.9547   16.7728 N   0  0  0  0  0  0  0  0  0  0  0  0
    8.9812  -14.5488   22.6230 C   0  0  0  0  0  0  0  0  0  0  0  0
    9.7499  -13.6648   23.1187 O   0  0  0  0  0  0  0  0  0  0  0  0
    9.3496  -20.3411   28.6557 N   0  0  0  0  0  0  0  0  0  0  0  0
    8.6070  -19.5224   27.7427 C   0  0  0  0  0  0  0  0  0  0  0  0
    7.4320  -19.8873   27.3635 N   0  0  0  0  0  0  0  0  0  0  0  0
    9.1478  -18.3086   27.2466 N   0  0  0  0  0  0  0  0  0  0  0  0
   10.2100  -18.2960   26.2367 C   0  0  0  0  0  0  0  0  0  0  0  0
    9.5953  -17.7457   24.9614 C   0  0  0  0  0  0  0  0  0  0  0  0
   10.6561  -17.6183   23.9086 C   0  0  0  0  0  0  0  0  0  0  0  0
   10.7516  -16.2467   23.2850 C   0  0  2  0  0  0  0  0  0  0  0  0
    9.4554  -15.8670   22.7014 N   0  0  0  0  0  0  0  0  0  0  0  0
   11.7184  -16.2990   22.1766 C   0  0  0  0  0  0  0  0  0  0  0  0
   12.9391  -16.1741   22.4233 O   0  0  0  0  0  0  0  0  0  0  0  0
   11.3506  -16.4816   20.8581 O   0  0  0  0  0  0  0  0  0  0  0  0
  2  1  1  6
  3  2  1  0
  4  2  1  0
  4  5  1  1
  6  7  2  0
  6  4  1  0
  8  6  1  0
  9  8  1  0
  9 10  1  6
 11 10  1  0
 12 11  1  0
 13 14  1  0
 13 12  1  0
 15 16  2  0
 15  9  1  0
 18 17  1  0
 19 18  2  0
 20 18  1  0
 21 22  1  0
 21 20  1  0
 22 23  1  0
 24 23  1  6
 24 25  1  0
 25 15  1  0
 26 24  1  0
 27 26  2  0
 28 26  1  0
M  END
$$$$
