VKR.pdb
     RDKit          3D

 28 27  0  0  1  0  0  0  0  0999 V2000
   10.0196  -14.4420   20.3685 C   0  0  0  0  0  0  0  0  0  0  0  0
    8.9566  -13.3963   20.1150 C   0  0  1  0  0  0  0  0  0  0  0  0
    9.5757  -12.2696   19.3453 C   0  0  0  0  0  0  0  0  0  0  0  0
    7.8078  -14.0336   19.3643 C   0  0  2  0  0  0  0  0  0  0  0  0
    6.7726  -13.0647   19.0545 N   0  0  0  0  0  0  0  0  0  0  0  0
    7.2458  -15.1484   20.1685 C   0  0  0  0  0  0  0  0  0  0  0  0
    6.6744  -14.8730   21.2730 O   0  0  0  0  0  0  0  0  0  0  0  0
    7.3182  -16.5099   19.7564 N   0  0  0  0  0  0  0  0  0  0  0  0
    6.8430  -17.5965   20.6416 C   0  0  1  0  0  0  0  0  0  0  0  0
    6.7795  -18.8106   19.7580 C   0  0  0  0  0  0  0  0  0  0  0  0
    6.4730  -20.0929   20.4355 C   0  0  0  0  0  0  0  0  0  0  0  0
    5.0140  -20.1631   20.8913 C   0  0  0  0  0  0  0  0  0  0  0  0
    4.7324  -21.5191   21.5267 C   0  0  0  0  0  0  0  0  0  0  0  0
    3.3410  -21.5506   21.9190 N   0  0  0  0  0  0  0  0  0  0  0  0
    7.7628  -17.6934   21.7744 C   0  0  0  0  0  0  0  0  0  0  0  0
    9.0098  -17.7470   21.5292 O   0  0  0  0  0  0  0  0  0  0  0  0
    9.1001  -13.3070   29.2083 N   0  0  0  0  0  0  0  0  0  0  0  0
    9.9881  -14.4317   29.2479 C   0  0  0  0  0  0  0  0  0  0  0  0
   10.9050  -14.4940   30.1495 N   0  0  0  0  0  0  0  0  0  0  0  0
    9.8734  -15.4848   28.3045 N   0  0  0  0  0  0  0  0  0  0  0  0
    8.9534  -15.4009   27.1666 C   0  0  0  0  0  0  0  0  0  0  0  0
    9.1606  -16.6597   26.3423 C   0  0  0  0  0  0  0  0  0  0  0  0
    8.2358  -16.6430   25.1613 C   0  0  0  0  0  0  0  0  0  0  0  0
    8.3918  -17.8230   24.2327 C   0  0  2  0  0  0  0  0  0  0  0  0
    7.4175  -17.7319   23.1339 N   0  0  0  0  0  0  0  0  0  0  0  0
    8.0796  -19.0534   24.9774 C   0  0  0  0  0  0  0  0  0  0  0  0
    8.7421  -19.3333   26.0017 O   0  0  0  0  0  0  0  0  0  0  0  0
    7.0807  -19.9316   24.6055 O   0  0  0  0  0  0  0  0  0  0  0  0
  2  1  1  6
  3  2  1  0
  4  2  1  0
  4  5  1  1
  6  7  2  0
  6  4  1  0
  8  6  1  0
  9  8  1  0
  9 10  1  6
 11 10  1  0
 12 11  1  0
 13 14  1  0
 13 12  1  0
 15 16  2  0
 15  9  1  0
 18 17  1  0
 19 18  2  0
 20 18  1  0
 21 22  1  0
 21 20  1  0
 22 23  1  0
 24 23  1  1
 24 25  1  0
 25 15  1  0
 26 24  1  0
 27 26  2  0
 28 26  1  0
M  END
$$$$
