FFN.pdb
     RDKit          3D

 31 32  0  0  1  0  0  0  0  0999 V2000
    9.5385  -17.3631   19.8662 N   0  0  0  0  0  0  0  0  0  0  0  0
    8.2675  -17.1932   20.4957 C   0  0  1  0  0  0  0  0  0  0  0  0
    7.4263  -18.4446   20.3898 C   0  0  0  0  0  0  0  0  0  0  0  0
    6.0871  -18.1901   20.9745 C   0  0  0  0  0  0  0  0  0  0  0  0
    5.8922  -18.5137   22.3001 C   0  0  0  0  0  0  0  0  0  0  0  0
    4.6549  -18.3020   22.9174 C   0  0  0  0  0  0  0  0  0  0  0  0
    3.6183  -17.7706   22.2161 C   0  0  0  0  0  0  0  0  0  0  0  0
    3.7901  -17.4396   20.8901 C   0  0  0  0  0  0  0  0  0  0  0  0
    5.0232  -17.6531   20.2840 C   0  0  0  0  0  0  0  0  0  0  0  0
    8.3786  -16.7226   21.9020 C   0  0  0  0  0  0  0  0  0  0  0  0
    9.2666  -17.1984   22.6604 O   0  0  0  0  0  0  0  0  0  0  0  0
    7.5271  -15.7420   22.4713 N   0  0  0  0  0  0  0  0  0  0  0  0
    7.7759  -15.1518   23.7953 C   0  0  1  0  0  0  0  0  0  0  0  0
    7.1456  -13.8056   23.9163 C   0  0  0  0  0  0  0  0  0  0  0  0
    7.1594  -13.2089   25.2472 C   0  0  0  0  0  0  0  0  0  0  0  0
    6.0214  -13.1580   26.0226 C   0  0  0  0  0  0  0  0  0  0  0  0
    6.0112  -12.5953   27.2841 C   0  0  0  0  0  0  0  0  0  0  0  0
    7.1571  -12.0557   27.8217 C   0  0  0  0  0  0  0  0  0  0  0  0
    8.3053  -12.0965   27.0628 C   0  0  0  0  0  0  0  0  0  0  0  0
    8.3028  -12.6698   25.7850 C   0  0  0  0  0  0  0  0  0  0  0  0
    7.3952  -16.1338   24.8120 C   0  0  0  0  0  0  0  0  0  0  0  0
    6.2977  -16.7855   24.7186 O   0  0  0  0  0  0  0  0  0  0  0  0
    9.6974  -20.9076   25.1098 N   0  0  0  0  0  0  0  0  0  0  0  0
    8.6121  -20.1318   25.5900 C   0  0  0  0  0  0  0  0  0  0  0  0
    7.7682  -20.6140   26.3719 O   0  0  0  0  0  0  0  0  0  0  0  0
    8.4890  -18.7321   25.1510 C   0  0  0  0  0  0  0  0  0  0  0  0
    8.4430  -17.8378   26.3717 C   0  0  2  0  0  0  0  0  0  0  0  0
    8.1803  -16.4471   25.9554 N   0  0  0  0  0  0  0  0  0  0  0  0
    9.6495  -17.9335   27.1855 C   0  0  0  0  0  0  0  0  0  0  0  0
   10.9135  -17.5358   26.7883 O   0  0  0  0  0  0  0  0  0  0  0  0
    9.5882  -18.4165   28.3644 O   0  0  0  0  0  0  0  0  0  0  0  0
  2  1  1  1
  2  3  1  0
  3  4  1  0
  4  5  2  0
  5  6  1  0
  7  6  2  0
  8  7  1  0
  9  4  1  0
  9  8  2  0
 10 12  1  0
 10  2  1  0
 11 10  2  0
 13 12  1  0
 13 14  1  1
 15 16  2  0
 15 14  1  0
 17 16  1  0
 18 17  2  0
 19 18  1  0
 19 20  2  0
 20 15  1  0
 21 28  1  0
 21 13  1  0
 22 21  2  0
 24 23  1  0
 24 25  2  0
 27 26  1  6
 26 24  1  0
 27 28  1  0
 27 29  1  0
 29 30  1  0
 31 29  2  0
M  END
$$$$
