FFN.pdb
     RDKit          3D

 31 32  0  0  1  0  0  0  0  0999 V2000
    6.7392  -17.7257   21.5604 N   0  0  0  0  0  0  0  0  0  0  0  0
    7.3261  -16.4305   21.4251 C   0  0  1  0  0  0  0  0  0  0  0  0
    6.3059  -15.4039   20.9889 C   0  0  0  0  0  0  0  0  0  0  0  0
    7.0046  -14.1879   20.5060 C   0  0  0  0  0  0  0  0  0  0  0  0
    7.1471  -13.1363   21.3855 C   0  0  0  0  0  0  0  0  0  0  0  0
    7.7942  -11.9580   20.9986 C   0  0  0  0  0  0  0  0  0  0  0  0
    8.2961  -11.8300   19.7414 C   0  0  0  0  0  0  0  0  0  0  0  0
    8.1653  -12.8681   18.8454 C   0  0  0  0  0  0  0  0  0  0  0  0
    7.5208  -14.0359   19.2381 C   0  0  0  0  0  0  0  0  0  0  0  0
    8.0548  -15.9969   22.6468 C   0  0  0  0  0  0  0  0  0  0  0  0
    8.9183  -15.0806   22.5771 O   0  0  0  0  0  0  0  0  0  0  0  0
    7.8402  -16.5603   23.9303 N   0  0  0  0  0  0  0  0  0  0  0  0
    8.5498  -16.0884   25.1291 C   0  0  1  0  0  0  0  0  0  0  0  0
    7.5981  -15.5713   26.1544 C   0  0  0  0  0  0  0  0  0  0  0  0
    7.3555  -14.1332   26.1360 C   0  0  0  0  0  0  0  0  0  0  0  0
    8.3790  -13.2304   26.3264 C   0  0  0  0  0  0  0  0  0  0  0  0
    8.1713  -11.8647   26.3156 C   0  0  0  0  0  0  0  0  0  0  0  0
    6.9129  -11.3473   26.1108 C   0  0  0  0  0  0  0  0  0  0  0  0
    5.8762  -12.2329   25.9186 C   0  0  0  0  0  0  0  0  0  0  0  0
    6.0996  -13.6153   25.9317 C   0  0  0  0  0  0  0  0  0  0  0  0
    9.4564  -17.1496   25.5706 C   0  0  0  0  0  0  0  0  0  0  0  0
    9.0031  -18.2759   25.9753 O   0  0  0  0  0  0  0  0  0  0  0  0
   13.8117  -16.1893   23.9263 N   0  0  0  0  0  0  0  0  0  0  0  0
   13.3180  -17.4666   24.2934 C   0  0  0  0  0  0  0  0  0  0  0  0
   12.9935  -18.3072   23.4307 O   0  0  0  0  0  0  0  0  0  0  0  0
   13.1902  -17.7962   25.7224 C   0  0  0  0  0  0  0  0  0  0  0  0
   11.7467  -18.1439   26.0179 C   0  0  2  0  0  0  0  0  0  0  0  0
   10.8737  -17.0350   25.5884 N   0  0  0  0  0  0  0  0  0  0  0  0
   11.5255  -18.4868   27.4182 C   0  0  0  0  0  0  0  0  0  0  0  0
   11.6201  -19.7593   27.9526 O   0  0  0  0  0  0  0  0  0  0  0  0
   11.2168  -17.5774   28.2575 O   0  0  0  0  0  0  0  0  0  0  0  0
  2  1  1  1
  2  3  1  0
  3  4  1  0
  4  5  2  0
  5  6  1  0
  7  6  2  0
  8  7  1  0
  9  4  1  0
  9  8  2  0
 10 12  1  0
 10  2  1  0
 11 10  2  0
 13 12  1  0
 13 14  1  1
 15 16  2  0
 15 14  1  0
 17 16  1  0
 18 17  2  0
 19 18  1  0
 19 20  2  0
 20 15  1  0
 21 28  1  0
 21 13  1  0
 22 21  2  0
 24 23  1  0
 24 25  2  0
 27 26  1  1
 26 24  1  0
 27 28  1  0
 27 29  1  0
 29 30  1  0
 31 29  2  0
M  END
$$$$
