FFN.pdb
     RDKit          3D

 31 32  0  0  1  0  0  0  0  0999 V2000
    7.4392  -16.9132   26.6915 N   0  0  0  0  0  0  0  0  0  0  0  0
    7.2154  -16.3562   25.3953 C   0  0  1  0  0  0  0  0  0  0  0  0
    8.0519  -15.1168   25.1741 C   0  0  0  0  0  0  0  0  0  0  0  0
    7.6868  -14.0890   26.1793 C   0  0  0  0  0  0  0  0  0  0  0  0
    6.3767  -13.6624   26.2160 C   0  0  0  0  0  0  0  0  0  0  0  0
    5.9612  -12.6950   27.1370 C   0  0  0  0  0  0  0  0  0  0  0  0
    6.8477  -12.1566   28.0162 C   0  0  0  0  0  0  0  0  0  0  0  0
    8.1623  -12.5679   27.9978 C   0  0  0  0  0  0  0  0  0  0  0  0
    8.5672  -13.5299   27.0791 C   0  0  0  0  0  0  0  0  0  0  0  0
    7.4005  -17.3470   24.3019 C   0  0  0  0  0  0  0  0  0  0  0  0
    8.0903  -18.3843   24.4977 O   0  0  0  0  0  0  0  0  0  0  0  0
    6.8365  -17.2035   23.0088 N   0  0  0  0  0  0  0  0  0  0  0  0
    7.4111  -16.3111   21.9906 C   0  0  1  0  0  0  0  0  0  0  0  0
    7.1653  -14.8784   22.3240 C   0  0  0  0  0  0  0  0  0  0  0  0
    7.5202  -13.9104   21.2923 C   0  0  0  0  0  0  0  0  0  0  0  0
    7.2338  -14.1399   19.9641 C   0  0  0  0  0  0  0  0  0  0  0  0
    7.5632  -13.2384   18.9706 C   0  0  0  0  0  0  0  0  0  0  0  0
    8.2004  -12.0578   19.2766 C   0  0  0  0  0  0  0  0  0  0  0  0
    8.4955  -11.8094   20.5984 C   0  0  0  0  0  0  0  0  0  0  0  0
    8.1564  -12.7314   21.5965 C   0  0  0  0  0  0  0  0  0  0  0  0
    8.8094  -16.6928   21.7855 C   0  0  0  0  0  0  0  0  0  0  0  0
    9.1167  -17.6954   21.0519 O   0  0  0  0  0  0  0  0  0  0  0  0
   13.7784  -16.2193   20.9167 N   0  0  0  0  0  0  0  0  0  0  0  0
   12.9844  -15.1577   20.4138 C   0  0  0  0  0  0  0  0  0  0  0  0
   13.4432  -14.3407   19.5903 O   0  0  0  0  0  0  0  0  0  0  0  0
   11.5940  -15.0269   20.8794 C   0  0  0  0  0  0  0  0  0  0  0  0
   11.2889  -16.1601   21.8358 C   0  0  2  0  0  0  0  0  0  0  0  0
    9.9174  -16.0097   22.3581 N   0  0  0  0  0  0  0  0  0  0  0  0
   12.2639  -16.2634   22.9156 C   0  0  0  0  0  0  0  0  0  0  0  0
   13.5498  -16.7563   22.7851 O   0  0  0  0  0  0  0  0  0  0  0  0
   11.9552  -15.8834   24.0934 O   0  0  0  0  0  0  0  0  0  0  0  0
  2  1  1  1
  2  3  1  0
  3  4  1  0
  4  5  2  0
  5  6  1  0
  7  6  2  0
  8  7  1  0
  9  4  1  0
  9  8  2  0
 10 12  1  0
 10  2  1  0
 11 10  2  0
 13 12  1  0
 13 14  1  1
 15 16  2  0
 15 14  1  0
 17 16  1  0
 18 17  2  0
 19 18  1  0
 19 20  2  0
 20 15  1  0
 21 28  1  0
 21 13  1  0
 22 21  2  0
 24 23  1  0
 24 25  2  0
 27 26  1  6
 26 24  1  0
 27 28  1  0
 27 29  1  0
 29 30  1  0
 31 29  2  0
M  END
$$$$
