FFN.pdb
     RDKit          3D

 31 32  0  0  1  0  0  0  0  0999 V2000
   11.1422  -17.5230   20.8222 N   0  0  0  0  0  0  0  0  0  0  0  0
   10.2012  -16.4573   20.9611 C   0  0  1  0  0  0  0  0  0  0  0  0
    9.0740  -16.5812   19.9616 C   0  0  0  0  0  0  0  0  0  0  0  0
    8.2748  -15.3316   19.9615 C   0  0  0  0  0  0  0  0  0  0  0  0
    8.9145  -14.1594   19.6203 C   0  0  0  0  0  0  0  0  0  0  0  0
    8.2238  -12.9431   19.5999 C   0  0  0  0  0  0  0  0  0  0  0  0
    6.9026  -12.8970   19.9180 C   0  0  0  0  0  0  0  0  0  0  0  0
    6.2428  -14.0561   20.2621 C   0  0  0  0  0  0  0  0  0  0  0  0
    6.9366  -15.2609   20.2799 C   0  0  0  0  0  0  0  0  0  0  0  0
    9.6909  -16.3158   22.3507 C   0  0  0  0  0  0  0  0  0  0  0  0
   10.2056  -16.9876   23.2856 O   0  0  0  0  0  0  0  0  0  0  0  0
    8.6289  -15.4485   22.7125 N   0  0  0  0  0  0  0  0  0  0  0  0
    8.4753  -14.9124   24.0735 C   0  0  1  0  0  0  0  0  0  0  0  0
    7.8646  -13.5518   24.0549 C   0  0  0  0  0  0  0  0  0  0  0  0
    7.4876  -13.0009   25.3517 C   0  0  0  0  0  0  0  0  0  0  0  0
    8.3056  -12.1168   26.0210 C   0  0  0  0  0  0  0  0  0  0  0  0
    7.9697  -11.5851   27.2509 C   0  0  0  0  0  0  0  0  0  0  0  0
    6.7852  -11.9250   27.8630 C   0  0  0  0  0  0  0  0  0  0  0  0
    5.9534  -12.8072   27.2106 C   0  0  0  0  0  0  0  0  0  0  0  0
    6.3053  -13.3395   25.9640 C   0  0  0  0  0  0  0  0  0  0  0  0
    7.7843  -15.9163   24.8845 C   0  0  0  0  0  0  0  0  0  0  0  0
    6.6737  -16.4223   24.4992 O   0  0  0  0  0  0  0  0  0  0  0  0
    5.7816  -18.9127   24.7961 N   0  0  0  0  0  0  0  0  0  0  0  0
    7.0095  -19.5045   25.1863 C   0  0  0  0  0  0  0  0  0  0  0  0
    7.0751  -20.7093   25.5029 O   0  0  0  0  0  0  0  0  0  0  0  0
    8.2232  -18.6720   25.2148 C   0  0  0  0  0  0  0  0  0  0  0  0
    8.2174  -17.8402   26.4798 C   0  0  2  0  0  0  0  0  0  0  0  0
    8.2647  -16.4080   26.1293 N   0  0  0  0  0  0  0  0  0  0  0  0
    9.2927  -18.2021   27.3964 C   0  0  0  0  0  0  0  0  0  0  0  0
    9.2850  -19.2960   28.2431 O   0  0  0  0  0  0  0  0  0  0  0  0
   10.3451  -17.4845   27.4615 O   0  0  0  0  0  0  0  0  0  0  0  0
  2  1  1  1
  2  3  1  0
  3  4  1  0
  4  5  2  0
  5  6  1  0
  7  6  2  0
  8  7  1  0
  9  4  1  0
  9  8  2  0
 10 12  1  0
 10  2  1  0
 11 10  2  0
 13 12  1  0
 13 14  1  6
 15 16  2  0
 15 14  1  0
 17 16  1  0
 18 17  2  0
 19 18  1  0
 19 20  2  0
 20 15  1  0
 21 28  1  0
 21 13  1  0
 22 21  2  0
 24 23  1  0
 24 25  2  0
 27 26  1  6
 26 24  1  0
 27 28  1  0
 27 29  1  0
 29 30  1  0
 31 29  2  0
M  END
$$$$
