FFN.pdb
     RDKit          3D

 31 32  0  0  1  0  0  0  0  0999 V2000
   10.1436  -17.9304   20.1579 N   0  0  0  0  0  0  0  0  0  0  0  0
    9.6153  -16.6256   20.4007 C   0  0  1  0  0  0  0  0  0  0  0  0
    8.3492  -16.3858   19.6104 C   0  0  0  0  0  0  0  0  0  0  0  0
    7.9060  -14.9833   19.8020 C   0  0  0  0  0  0  0  0  0  0  0  0
    6.6983  -14.7710   20.4314 C   0  0  0  0  0  0  0  0  0  0  0  0
    6.2169  -13.4751   20.6451 C   0  0  0  0  0  0  0  0  0  0  0  0
    6.9365  -12.3975   20.2331 C   0  0  0  0  0  0  0  0  0  0  0  0
    8.1463  -12.5857   19.6019 C   0  0  0  0  0  0  0  0  0  0  0  0
    8.6176  -13.8771   19.3934 C   0  0  0  0  0  0  0  0  0  0  0  0
    9.4227  -16.3412   21.8475 C   0  0  0  0  0  0  0  0  0  0  0  0
    9.9636  -17.0793   22.7152 O   0  0  0  0  0  0  0  0  0  0  0  0
    8.6466  -15.2608   22.3387 N   0  0  0  0  0  0  0  0  0  0  0  0
    8.6634  -14.8541   23.7520 C   0  0  1  0  0  0  0  0  0  0  0  0
    7.5425  -13.9201   24.0612 C   0  0  0  0  0  0  0  0  0  0  0  0
    7.4918  -13.4095   25.4265 C   0  0  0  0  0  0  0  0  0  0  0  0
    8.3982  -13.8197   26.3800 C   0  0  0  0  0  0  0  0  0  0  0  0
    8.3670  -13.3513   27.6792 C   0  0  0  0  0  0  0  0  0  0  0  0
    7.4129  -12.4423   28.0753 C   0  0  0  0  0  0  0  0  0  0  0  0
    6.4977  -12.0198   27.1374 C   0  0  0  0  0  0  0  0  0  0  0  0
    6.5398  -12.5020   25.8233 C   0  0  0  0  0  0  0  0  0  0  0  0
    8.7384  -16.0629   24.5743 C   0  0  0  0  0  0  0  0  0  0  0  0
    7.7660  -16.8940   24.6122 O   0  0  0  0  0  0  0  0  0  0  0  0
   10.4950  -20.1376   27.0514 N   0  0  0  0  0  0  0  0  0  0  0  0
   11.1196  -19.9014   25.8007 C   0  0  0  0  0  0  0  0  0  0  0  0
   11.7821  -20.7911   25.2302 O   0  0  0  0  0  0  0  0  0  0  0  0
   10.9768  -18.5775   25.1730 C   0  0  0  0  0  0  0  0  0  0  0  0
    9.9990  -17.7537   25.9837 C   0  0  2  0  0  0  0  0  0  0  0  0
    9.8578  -16.4165   25.3767 N   0  0  0  0  0  0  0  0  0  0  0  0
   10.3692  -17.6654   27.3917 C   0  0  0  0  0  0  0  0  0  0  0  0
   10.6378  -16.4924   28.0740 O   0  0  0  0  0  0  0  0  0  0  0  0
   10.4681  -18.7256   28.0938 O   0  0  0  0  0  0  0  0  0  0  0  0
  2  1  1  1
  2  3  1  0
  3  4  1  0
  4  5  2  0
  5  6  1  0
  7  6  2  0
  8  7  1  0
  9  4  1  0
  9  8  2  0
 10 12  1  0
 10  2  1  0
 11 10  2  0
 13 12  1  0
 13 14  1  1
 15 16  2  0
 15 14  1  0
 17 16  1  0
 18 17  2  0
 19 18  1  0
 19 20  2  0
 20 15  1  0
 21 28  1  0
 21 13  1  0
 22 21  2  0
 24 23  1  0
 24 25  2  0
 27 26  1  6
 26 24  1  0
 27 28  1  0
 27 29  1  0
 29 30  1  0
 31 29  2  0
M  END
$$$$
