FFN.pdb
     RDKit          3D

 31 32  0  0  1  0  0  0  0  0999 V2000
    8.0981  -18.2362   20.6993 N   0  0  0  0  0  0  0  0  0  0  0  0
    8.3197  -16.8264   20.7606 C   0  0  1  0  0  0  0  0  0  0  0  0
    7.0282  -16.0565   20.6053 C   0  0  0  0  0  0  0  0  0  0  0  0
    7.3256  -14.6059   20.5187 C   0  0  0  0  0  0  0  0  0  0  0  0
    6.9765  -13.8129   21.5906 C   0  0  0  0  0  0  0  0  0  0  0  0
    7.2258  -12.4365   21.5779 C   0  0  0  0  0  0  0  0  0  0  0  0
    7.8200  -11.8550   20.5020 C   0  0  0  0  0  0  0  0  0  0  0  0
    8.1776  -12.6280   19.4194 C   0  0  0  0  0  0  0  0  0  0  0  0
    7.9263  -13.9953   19.4400 C   0  0  0  0  0  0  0  0  0  0  0  0
    9.0639  -16.4119   21.9795 C   0  0  0  0  0  0  0  0  0  0  0  0
   10.2550  -16.0081   21.8873 O   0  0  0  0  0  0  0  0  0  0  0  0
    8.5101  -16.4391   23.2846 N   0  0  0  0  0  0  0  0  0  0  0  0
    9.2672  -16.0183   24.4733 C   0  0  1  0  0  0  0  0  0  0  0  0
    8.3997  -15.2795   25.4356 C   0  0  0  0  0  0  0  0  0  0  0  0
    9.0278  -14.8839   26.6911 C   0  0  0  0  0  0  0  0  0  0  0  0
    9.7148  -13.6949   26.8063 C   0  0  0  0  0  0  0  0  0  0  0  0
   10.3194  -13.3018   27.9846 C   0  0  0  0  0  0  0  0  0  0  0  0
   10.2564  -14.0972   29.1056 C   0  0  0  0  0  0  0  0  0  0  0  0
    9.5744  -15.2897   29.0114 C   0  0  0  0  0  0  0  0  0  0  0  0
    8.9657  -15.6771   27.8111 C   0  0  0  0  0  0  0  0  0  0  0  0
    9.9679  -17.1879   25.0062 C   0  0  0  0  0  0  0  0  0  0  0  0
    9.3293  -18.2535   25.3138 O   0  0  0  0  0  0  0  0  0  0  0  0
   12.1434  -19.4596   23.4694 N   0  0  0  0  0  0  0  0  0  0  0  0
   13.3916  -19.0726   24.0193 C   0  0  0  0  0  0  0  0  0  0  0  0
   14.4463  -19.1676   23.3599 O   0  0  0  0  0  0  0  0  0  0  0  0
   13.4317  -18.5503   25.3950 C   0  0  0  0  0  0  0  0  0  0  0  0
   12.0135  -18.3920   25.9005 C   0  0  2  0  0  0  0  0  0  0  0  0
   11.3720  -17.2497   25.2222 N   0  0  0  0  0  0  0  0  0  0  0  0
   11.9445  -18.2596   27.3514 C   0  0  0  0  0  0  0  0  0  0  0  0
   12.3881  -17.1672   28.0749 O   0  0  0  0  0  0  0  0  0  0  0  0
   11.4453  -19.1987   28.0555 O   0  0  0  0  0  0  0  0  0  0  0  0
  2  1  1  1
  2  3  1  0
  3  4  1  0
  4  5  2  0
  5  6  1  0
  7  6  2  0
  8  7  1  0
  9  4  1  0
  9  8  2  0
 10 12  1  0
 10  2  1  0
 11 10  2  0
 13 12  1  0
 13 14  1  1
 15 16  2  0
 15 14  1  0
 17 16  1  0
 18 17  2  0
 19 18  1  0
 19 20  2  0
 20 15  1  0
 21 28  1  0
 21 13  1  0
 22 21  2  0
 24 23  1  0
 24 25  2  0
 27 26  1  6
 26 24  1  0
 27 28  1  0
 27 29  1  0
 29 30  1  0
 31 29  2  0
M  END
$$$$
