FFN.pdb
     RDKit          3D

 31 32  0  0  1  0  0  0  0  0999 V2000
    7.8146  -17.3793   20.6159 N   0  0  0  0  0  0  0  0  0  0  0  0
    9.1289  -16.8584   20.8203 C   0  0  1  0  0  0  0  0  0  0  0  0
    9.4622  -15.7860   19.8084 C   0  0  0  0  0  0  0  0  0  0  0  0
    8.6034  -14.6000   20.0453 C   0  0  0  0  0  0  0  0  0  0  0  0
    7.2419  -14.7515   19.8939 C   0  0  0  0  0  0  0  0  0  0  0  0
    6.3715  -13.6760   20.1000 C   0  0  0  0  0  0  0  0  0  0  0  0
    6.8570  -12.4566   20.4552 C   0  0  0  0  0  0  0  0  0  0  0  0
    8.2143  -12.2819   20.6123 C   0  0  0  0  0  0  0  0  0  0  0  0
    9.0726  -13.3561   20.4054 C   0  0  0  0  0  0  0  0  0  0  0  0
    9.3531  -16.3889   22.2134 C   0  0  0  0  0  0  0  0  0  0  0  0
   10.4843  -15.9525   22.5599 O   0  0  0  0  0  0  0  0  0  0  0  0
    8.3500  -16.3971   23.2156 N   0  0  0  0  0  0  0  0  0  0  0  0
    8.6409  -16.1040   24.6272 C   0  0  1  0  0  0  0  0  0  0  0  0
    7.4117  -15.6797   25.3576 C   0  0  0  0  0  0  0  0  0  0  0  0
    7.3433  -14.2719   25.7329 C   0  0  0  0  0  0  0  0  0  0  0  0
    8.4240  -13.6249   26.2917 C   0  0  0  0  0  0  0  0  0  0  0  0
    8.3803  -12.2934   26.6571 C   0  0  0  0  0  0  0  0  0  0  0  0
    7.2359  -11.5519   26.4730 C   0  0  0  0  0  0  0  0  0  0  0  0
    6.1445  -12.1799   25.9160 C   0  0  0  0  0  0  0  0  0  0  0  0
    6.2013  -13.5305   25.5498 C   0  0  0  0  0  0  0  0  0  0  0  0
    9.3622  -17.2461   25.1916 C   0  0  0  0  0  0  0  0  0  0  0  0
    8.8895  -18.4320   25.1020 O   0  0  0  0  0  0  0  0  0  0  0  0
   13.7713  -20.4915   25.7107 N   0  0  0  0  0  0  0  0  0  0  0  0
   13.5808  -19.3158   26.4800 C   0  0  0  0  0  0  0  0  0  0  0  0
   14.0489  -19.2135   27.6317 O   0  0  0  0  0  0  0  0  0  0  0  0
   12.8147  -18.2015   25.8984 C   0  0  0  0  0  0  0  0  0  0  0  0
   11.3622  -18.3422   26.3016 C   0  0  2  0  0  0  0  0  0  0  0  0
   10.6108  -17.1501   25.8652 N   0  0  0  0  0  0  0  0  0  0  0  0
   11.1956  -18.5860   27.7299 C   0  0  0  0  0  0  0  0  0  0  0  0
   10.5098  -17.7631   28.6051 O   0  0  0  0  0  0  0  0  0  0  0  0
   11.7048  -19.6264   28.2639 O   0  0  0  0  0  0  0  0  0  0  0  0
  2  1  1  1
  2  3  1  0
  3  4  1  0
  4  5  2  0
  5  6  1  0
  7  6  2  0
  8  7  1  0
  9  4  1  0
  9  8  2  0
 10 12  1  0
 10  2  1  0
 11 10  2  0
 13 12  1  0
 13 14  1  1
 15 16  2  0
 15 14  1  0
 17 16  1  0
 18 17  2  0
 19 18  1  0
 19 20  2  0
 20 15  1  0
 21 28  1  0
 21 13  1  0
 22 21  2  0
 24 23  1  0
 24 25  2  0
 27 26  1  1
 26 24  1  0
 27 28  1  0
 27 29  1  0
 29 30  1  0
 31 29  2  0
M  END
$$$$
