FFN.pdb
     RDKit          3D

 31 32  0  0  1  0  0  0  0  0999 V2000
   11.1639  -16.8869   21.2497 N   0  0  0  0  0  0  0  0  0  0  0  0
   10.1825  -16.0030   21.7939 C   0  0  1  0  0  0  0  0  0  0  0  0
    8.8774  -16.0922   21.0364 C   0  0  0  0  0  0  0  0  0  0  0  0
    8.3092  -14.7322   20.8703 C   0  0  0  0  0  0  0  0  0  0  0  0
    9.0494  -13.8078   20.1651 C   0  0  0  0  0  0  0  0  0  0  0  0
    8.5765  -12.5059   19.9700 C   0  0  0  0  0  0  0  0  0  0  0  0
    7.3720  -12.1287   20.4756 C   0  0  0  0  0  0  0  0  0  0  0  0
    6.6149  -13.0358   21.1838 C   0  0  0  0  0  0  0  0  0  0  0  0
    7.0923  -14.3279   21.3733 C   0  0  0  0  0  0  0  0  0  0  0  0
    9.9839  -16.1912   23.2556 C   0  0  0  0  0  0  0  0  0  0  0  0
   10.9801  -16.2692   24.0249 O   0  0  0  0  0  0  0  0  0  0  0  0
    8.7090  -16.2926   23.8680 N   0  0  0  0  0  0  0  0  0  0  0  0
    8.5228  -16.2072   25.3245 C   0  0  1  0  0  0  0  0  0  0  0  0
    7.1834  -15.6486   25.6684 C   0  0  0  0  0  0  0  0  0  0  0  0
    7.1006  -14.1956   25.7645 C   0  0  0  0  0  0  0  0  0  0  0  0
    8.2098  -13.4313   26.0548 C   0  0  0  0  0  0  0  0  0  0  0  0
    8.1535  -12.0545   26.1534 C   0  0  0  0  0  0  0  0  0  0  0  0
    6.9669  -11.3847   25.9618 C   0  0  0  0  0  0  0  0  0  0  0  0
    5.8465  -12.1303   25.6707 C   0  0  0  0  0  0  0  0  0  0  0  0
    5.9165  -13.5256   25.5735 C   0  0  0  0  0  0  0  0  0  0  0  0
    8.8427  -17.5133   25.9031 C   0  0  0  0  0  0  0  0  0  0  0  0
    8.6091  -17.7612   27.1368 O   0  0  0  0  0  0  0  0  0  0  0  0
    9.4044  -20.3965   22.5095 N   0  0  0  0  0  0  0  0  0  0  0  0
    8.8208  -20.5858   23.7878 C   0  0  0  0  0  0  0  0  0  0  0  0
    7.6009  -20.4047   23.9751 O   0  0  0  0  0  0  0  0  0  0  0  0
    9.6802  -21.0041   24.9074 C   0  0  0  0  0  0  0  0  0  0  0  0
    9.8822  -19.8261   25.8367 C   0  0  2  0  0  0  0  0  0  0  0  0
    9.4192  -18.5909   25.1762 N   0  0  0  0  0  0  0  0  0  0  0  0
   11.2607  -19.7019   26.2967 C   0  0  0  0  0  0  0  0  0  0  0  0
   12.0741  -18.6018   26.0921 O   0  0  0  0  0  0  0  0  0  0  0  0
   11.8070  -20.6564   26.9427 O   0  0  0  0  0  0  0  0  0  0  0  0
  2  1  1  6
  2  3  1  0
  3  4  1  0
  4  5  2  0
  5  6  1  0
  7  6  2  0
  8  7  1  0
  9  4  1  0
  9  8  2  0
 10 12  1  0
 10  2  1  0
 11 10  2  0
 13 12  1  0
 13 14  1  6
 15 16  2  0
 15 14  1  0
 17 16  1  0
 18 17  2  0
 19 18  1  0
 19 20  2  0
 20 15  1  0
 21 28  1  0
 21 13  1  0
 22 21  2  0
 24 23  1  0
 24 25  2  0
 27 26  1  6
 26 24  1  0
 27 28  1  0
 27 29  1  0
 29 30  1  0
 31 29  2  0
M  END
$$$$
