FFN.pdb
     RDKit          3D

 31 32  0  0  1  0  0  0  0  0999 V2000
    9.8062  -18.0519   20.6099 N   0  0  0  0  0  0  0  0  0  0  0  0
    9.1261  -16.8130   20.8178 C   0  0  1  0  0  0  0  0  0  0  0  0
    7.8812  -16.7160   19.9659 C   0  0  0  0  0  0  0  0  0  0  0  0
    7.6753  -15.3067   19.5515 C   0  0  0  0  0  0  0  0  0  0  0  0
    7.9951  -14.9645   18.2552 C   0  0  0  0  0  0  0  0  0  0  0  0
    7.8277  -13.6540   17.7954 C   0  0  0  0  0  0  0  0  0  0  0  0
    7.3440  -12.6908   18.6243 C   0  0  0  0  0  0  0  0  0  0  0  0
    7.0177  -13.0099   19.9240 C   0  0  0  0  0  0  0  0  0  0  0  0
    7.1871  -14.3149   20.3731 C   0  0  0  0  0  0  0  0  0  0  0  0
    8.8333  -16.5491   22.2517 C   0  0  0  0  0  0  0  0  0  0  0  0
    9.3018  -17.3078   23.1434 O   0  0  0  0  0  0  0  0  0  0  0  0
    8.0366  -15.4668   22.7039 N   0  0  0  0  0  0  0  0  0  0  0  0
    8.1045  -14.9574   24.0820 C   0  0  1  0  0  0  0  0  0  0  0  0
    7.3639  -13.6705   24.2218 C   0  0  0  0  0  0  0  0  0  0  0  0
    7.2657  -13.1312   25.5735 C   0  0  0  0  0  0  0  0  0  0  0  0
    6.0472  -12.8091   26.1307 C   0  0  0  0  0  0  0  0  0  0  0  0
    5.9313  -12.2947   27.4076 C   0  0  0  0  0  0  0  0  0  0  0  0
    7.0479  -12.0816   28.1829 C   0  0  0  0  0  0  0  0  0  0  0  0
    8.2753  -12.3970   27.6443 C   0  0  0  0  0  0  0  0  0  0  0  0
    8.3797  -12.9179   26.3485 C   0  0  0  0  0  0  0  0  0  0  0  0
    7.6992  -16.0341   24.9874 C   0  0  0  0  0  0  0  0  0  0  0  0
    6.5078  -16.5006   24.9628 O   0  0  0  0  0  0  0  0  0  0  0  0
    6.0804  -20.0217   27.4093 N   0  0  0  0  0  0  0  0  0  0  0  0
    7.2861  -20.0736   26.6651 C   0  0  0  0  0  0  0  0  0  0  0  0
    8.0232  -21.0794   26.6971 O   0  0  0  0  0  0  0  0  0  0  0  0
    7.6651  -18.9129   25.8428 C   0  0  0  0  0  0  0  0  0  0  0  0
    8.1386  -17.8004   26.7540 C   0  0  2  0  0  0  0  0  0  0  0  0
    8.5593  -16.6426   25.9423 N   0  0  0  0  0  0  0  0  0  0  0  0
    9.1959  -18.2288   27.6628 C   0  0  0  0  0  0  0  0  0  0  0  0
    9.0016  -18.9328   28.8376 O   0  0  0  0  0  0  0  0  0  0  0  0
   10.4138  -17.9563   27.3995 O   0  0  0  0  0  0  0  0  0  0  0  0
  2  1  1  1
  2  3  1  0
  3  4  1  0
  4  5  2  0
  5  6  1  0
  7  6  2  0
  8  7  1  0
  9  4  1  0
  9  8  2  0
 10 12  1  0
 10  2  1  0
 11 10  2  0
 13 12  1  0
 13 14  1  6
 15 16  2  0
 15 14  1  0
 17 16  1  0
 18 17  2  0
 19 18  1  0
 19 20  2  0
 20 15  1  0
 21 28  1  0
 21 13  1  0
 22 21  2  0
 24 23  1  0
 24 25  2  0
 27 26  1  6
 26 24  1  0
 27 28  1  0
 27 29  1  0
 29 30  1  0
 31 29  2  0
M  END
$$$$
