YKF.pdb
     RDKit          3D

 33 34  0  0  1  0  0  0  0  0999 V2000
   18.2222  -26.5870  -15.3609 O   0  0  0  0  0  0  0  0  0  0  0  0
   19.4402  -26.1684  -14.8371 C   0  0  0  0  0  0  0  0  0  0  0  0
   20.4357  -27.0529  -14.4442 C   0  0  0  0  0  0  0  0  0  0  0  0
   21.6386  -26.6236  -13.9302 C   0  0  0  0  0  0  0  0  0  0  0  0
   21.8324  -25.2816  -13.8122 C   0  0  0  0  0  0  0  0  0  0  0  0
   23.1170  -24.7688  -13.2661 C   0  0  0  0  0  0  0  0  0  0  0  0
   24.0551  -24.3532  -14.3780 C   0  0  2  0  0  0  0  0  0  0  0  0
   24.5812  -25.5711  -14.9838 N   0  0  0  0  0  0  0  0  0  0  0  0
   25.1517  -23.5433  -13.7723 C   0  0  0  0  0  0  0  0  0  0  0  0
   26.1556  -24.0744  -13.2500 O   0  0  0  0  0  0  0  0  0  0  0  0
   20.8646  -24.3707  -14.1930 C   0  0  0  0  0  0  0  0  0  0  0  0
   19.6557  -24.8276  -14.7113 C   0  0  0  0  0  0  0  0  0  0  0  0
   25.0816  -22.1209  -13.7702 N   0  0  0  0  0  0  0  0  0  0  0  0
   26.1153  -21.2469  -13.2375 C   0  0  1  0  0  0  0  0  0  0  0  0
   26.1169  -19.9881  -14.0357 C   0  0  0  0  0  0  0  0  0  0  0  0
   27.0669  -18.9394  -13.5619 C   0  0  0  0  0  0  0  0  0  0  0  0
   26.9538  -17.7510  -14.5313 C   0  0  0  0  0  0  0  0  0  0  0  0
   27.9141  -16.6491  -14.1066 C   0  0  0  0  0  0  0  0  0  0  0  0
   27.1095  -15.5874  -13.5323 N   0  0  0  0  0  0  0  0  0  0  0  0
   25.8437  -21.0507  -11.7906 C   0  0  0  0  0  0  0  0  0  0  0  0
   24.6811  -20.8558  -11.3978 O   0  0  0  0  0  0  0  0  0  0  0  0
   26.9013  -21.0850  -10.8822 N   0  0  0  0  0  0  0  0  0  0  0  0
   26.7298  -20.8246   -9.4713 C   0  0  1  0  0  0  0  0  0  0  0  0
   28.0638  -20.4620   -8.9202 C   0  0  0  0  0  0  0  0  0  0  0  0
   28.0896  -20.0141   -7.5203 C   0  0  0  0  0  0  0  0  0  0  0  0
   28.0138  -18.6715   -7.2016 C   0  0  0  0  0  0  0  0  0  0  0  0
   28.0307  -18.2937   -5.8609 C   0  0  0  0  0  0  0  0  0  0  0  0
   28.1224  -19.1885   -4.8227 C   0  0  0  0  0  0  0  0  0  0  0  0
   28.1993  -20.5321   -5.1488 C   0  0  0  0  0  0  0  0  0  0  0  0
   28.1819  -20.9172   -6.4607 C   0  0  0  0  0  0  0  0  0  0  0  0
   25.6967  -19.7523   -9.2545 C   0  0  0  0  0  0  0  0  0  0  0  0
   25.6746  -18.6992   -9.9086 O   0  0  0  0  0  0  0  0  0  0  0  0
   24.7401  -19.9648   -8.2897 O   0  0  0  0  0  0  0  0  0  0  0  0
  2  1  1  0
  3  2  2  0
  4  3  1  0
  5 11  1  0
  5  4  2  0
  6  5  1  0
  7  9  1  0
  7  6  1  0
  7  8  1  1
  9 10  2  0
 11 12  2  0
 12  2  1  0
 13 14  1  0
 13  9  1  0
 15 16  1  0
 14 15  1  6
 17 16  1  0
 18 17  1  0
 19 18  1  0
 20 22  1  0
 20 14  1  0
 21 20  2  0
 23 22  1  0
 23 24  1  6
 24 25  1  0
 25 30  1  0
 26 25  2  0
 26 27  1  0
 27 28  2  0
 28 29  1  0
 30 29  2  0
 31 23  1  0
 32 31  2  0
 33 31  1  0
M  END
$$$$
