YKF.pdb
     RDKit          3D

 33 34  0  0  1  0  0  0  0  0999 V2000
   17.2654  -15.8110  -14.4751 O   0  0  0  0  0  0  0  0  0  0  0  0
   18.1547  -16.6736  -13.8442 C   0  0  0  0  0  0  0  0  0  0  0  0
   19.4707  -16.3288  -13.5665 C   0  0  0  0  0  0  0  0  0  0  0  0
   20.3393  -17.1924  -12.9378 C   0  0  0  0  0  0  0  0  0  0  0  0
   19.8671  -18.4202  -12.5886 C   0  0  0  0  0  0  0  0  0  0  0  0
   20.7662  -19.3869  -11.9038 C   0  0  0  0  0  0  0  0  0  0  0  0
   21.6770  -20.0797  -12.8934 C   0  0  2  0  0  0  0  0  0  0  0  0
   20.8418  -20.9272  -13.7368 N   0  0  0  0  0  0  0  0  0  0  0  0
   22.6552  -20.8978  -12.1194 C   0  0  0  0  0  0  0  0  0  0  0  0
   22.2921  -21.8352  -11.3762 O   0  0  0  0  0  0  0  0  0  0  0  0
   18.5632  -18.7990  -12.8484 C   0  0  0  0  0  0  0  0  0  0  0  0
   17.7019  -17.9087  -13.4846 C   0  0  0  0  0  0  0  0  0  0  0  0
   24.0506  -20.6266  -12.2054 N   0  0  0  0  0  0  0  0  0  0  0  0
   25.0852  -21.4269  -11.5686 C   0  0  1  0  0  0  0  0  0  0  0  0
   26.0123  -21.9165  -12.6280 C   0  0  0  0  0  0  0  0  0  0  0  0
   26.6843  -20.8481  -13.4241 C   0  0  0  0  0  0  0  0  0  0  0  0
   27.6279  -21.5460  -14.4179 C   0  0  0  0  0  0  0  0  0  0  0  0
   28.4905  -20.5081  -15.1218 C   0  0  0  0  0  0  0  0  0  0  0  0
   29.4219  -21.2353  -15.9633 N   0  0  0  0  0  0  0  0  0  0  0  0
   25.7352  -20.5871  -10.5304 C   0  0  0  0  0  0  0  0  0  0  0  0
   25.6680  -19.3484  -10.6019 O   0  0  0  0  0  0  0  0  0  0  0  0
   26.4201  -21.1993   -9.4812 N   0  0  0  0  0  0  0  0  0  0  0  0
   27.3652  -20.4939   -8.6464 C   0  0  1  0  0  0  0  0  0  0  0  0
   26.8067  -20.4658   -7.2672 C   0  0  0  0  0  0  0  0  0  0  0  0
   27.6946  -19.9486   -6.2161 C   0  0  0  0  0  0  0  0  0  0  0  0
   28.3270  -20.8045   -5.3344 C   0  0  0  0  0  0  0  0  0  0  0  0
   29.1683  -20.2706   -4.3610 C   0  0  0  0  0  0  0  0  0  0  0  0
   29.4077  -18.9251   -4.2216 C   0  0  0  0  0  0  0  0  0  0  0  0
   28.7701  -18.0727   -5.1073 C   0  0  0  0  0  0  0  0  0  0  0  0
   27.9428  -18.5834   -6.0690 C   0  0  0  0  0  0  0  0  0  0  0  0
   28.7195  -21.1461   -8.7153 C   0  0  0  0  0  0  0  0  0  0  0  0
   29.7740  -20.4981   -8.7877 O   0  0  0  0  0  0  0  0  0  0  0  0
   28.7749  -22.5201   -8.6916 O   0  0  0  0  0  0  0  0  0  0  0  0
  2  1  1  0
  3  2  2  0
  4  3  1  0
  5 11  1  0
  5  4  2  0
  6  5  1  0
  7  9  1  0
  7  6  1  0
  7  8  1  6
  9 10  2  0
 11 12  2  0
 12  2  1  0
 13 14  1  0
 13  9  1  0
 15 16  1  0
 14 15  1  6
 17 16  1  0
 18 17  1  0
 19 18  1  0
 20 22  1  0
 20 14  1  0
 21 20  2  0
 23 22  1  0
 23 24  1  1
 24 25  1  0
 25 30  1  0
 26 25  2  0
 26 27  1  0
 27 28  2  0
 28 29  1  0
 30 29  2  0
 31 23  1  0
 32 31  2  0
 33 31  1  0
M  END
$$$$
