YKF.pdb
     RDKit          3D

 33 34  0  0  1  0  0  0  0  0999 V2000
   31.9544  -23.3801  -19.0298 O   0  0  0  0  0  0  0  0  0  0  0  0
   31.1133  -22.7189  -18.1417 C   0  0  0  0  0  0  0  0  0  0  0  0
   30.5579  -23.3355  -17.0286 C   0  0  0  0  0  0  0  0  0  0  0  0
   29.7292  -22.6670  -16.1557 C   0  0  0  0  0  0  0  0  0  0  0  0
   29.4601  -21.3586  -16.4167 C   0  0  0  0  0  0  0  0  0  0  0  0
   28.5734  -20.5928  -15.5008 C   0  0  0  0  0  0  0  0  0  0  0  0
   27.1277  -21.0054  -15.6701 C   0  0  2  0  0  0  0  0  0  0  0  0
   26.6792  -20.5052  -16.9646 N   0  0  0  0  0  0  0  0  0  0  0  0
   26.3434  -20.3893  -14.5607 C   0  0  0  0  0  0  0  0  0  0  0  0
   26.0728  -19.1691  -14.5400 O   0  0  0  0  0  0  0  0  0  0  0  0
   29.9948  -20.7111  -17.5149 C   0  0  0  0  0  0  0  0  0  0  0  0
   30.8313  -21.4068  -18.3839 C   0  0  0  0  0  0  0  0  0  0  0  0
   25.8774  -21.1871  -13.4769 N   0  0  0  0  0  0  0  0  0  0  0  0
   25.0886  -20.6825  -12.3635 C   0  0  1  0  0  0  0  0  0  0  0  0
   23.6775  -21.1217  -12.5567 C   0  0  0  0  0  0  0  0  0  0  0  0
   22.6817  -20.4644  -11.6605 C   0  0  0  0  0  0  0  0  0  0  0  0
   21.8165  -21.5778  -11.0468 C   0  0  0  0  0  0  0  0  0  0  0  0
   20.7505  -20.9641  -10.1502 C   0  0  0  0  0  0  0  0  0  0  0  0
   19.9719  -22.0621   -9.6094 N   0  0  0  0  0  0  0  0  0  0  0  0
   25.7121  -21.1701  -11.1068 C   0  0  0  0  0  0  0  0  0  0  0  0
   26.0054  -22.3713  -10.9843 O   0  0  0  0  0  0  0  0  0  0  0  0
   25.9616  -20.2714  -10.0700 N   0  0  0  0  0  0  0  0  0  0  0  0
   26.4508  -20.6864   -8.7754 C   0  0  1  0  0  0  0  0  0  0  0  0
   27.6545  -19.8660   -8.4703 C   0  0  0  0  0  0  0  0  0  0  0  0
   28.1224  -19.8902   -7.0770 C   0  0  0  0  0  0  0  0  0  0  0  0
   27.7238  -18.9211   -6.1759 C   0  0  0  0  0  0  0  0  0  0  0  0
   28.1835  -18.9901   -4.8627 C   0  0  0  0  0  0  0  0  0  0  0  0
   29.0233  -19.9759   -4.4047 C   0  0  0  0  0  0  0  0  0  0  0  0
   29.4200  -20.9432   -5.3129 C   0  0  0  0  0  0  0  0  0  0  0  0
   28.9749  -20.8888   -6.6047 C   0  0  0  0  0  0  0  0  0  0  0  0
   25.3719  -20.5504   -7.7353 C   0  0  0  0  0  0  0  0  0  0  0  0
   24.4042  -19.7867   -7.8676 O   0  0  0  0  0  0  0  0  0  0  0  0
   25.4743  -21.3151   -6.5968 O   0  0  0  0  0  0  0  0  0  0  0  0
  2  1  1  0
  3  2  2  0
  4  3  1  0
  5 11  1  0
  5  4  2  0
  6  5  1  0
  7  9  1  0
  7  6  1  0
  7  8  1  6
  9 10  2  0
 11 12  2  0
 12  2  1  0
 13 14  1  0
 13  9  1  0
 15 16  1  0
 14 15  1  6
 17 16  1  0
 18 17  1  0
 19 18  1  0
 20 22  1  0
 20 14  1  0
 21 20  2  0
 23 22  1  0
 23 24  1  1
 24 25  1  0
 25 30  1  0
 26 25  2  0
 26 27  1  0
 27 28  2  0
 28 29  1  0
 30 29  2  0
 31 23  1  0
 32 31  2  0
 33 31  1  0
M  END
$$$$
