YKF.pdb
     RDKit          3D

 33 34  0  0  1  0  0  0  0  0999 V2000
   14.7192  -15.8352  -14.4692 O   0  0  0  0  0  0  0  0  0  0  0  0
   15.4072  -14.6768  -14.8123 C   0  0  0  0  0  0  0  0  0  0  0  0
   14.7862  -13.5703  -15.3761 C   0  0  0  0  0  0  0  0  0  0  0  0
   15.4800  -12.4282  -15.7077 C   0  0  0  0  0  0  0  0  0  0  0  0
   16.8192  -12.4099  -15.4656 C   0  0  0  0  0  0  0  0  0  0  0  0
   17.6114  -11.1973  -15.8030 C   0  0  0  0  0  0  0  0  0  0  0  0
   17.6625  -10.9782  -17.2991 C   0  0  2  0  0  0  0  0  0  0  0  0
   18.4679  -12.0514  -17.8706 N   0  0  0  0  0  0  0  0  0  0  0  0
   18.2945   -9.6495  -17.5453 C   0  0  0  0  0  0  0  0  0  0  0  0
   19.5343   -9.5113  -17.6263 O   0  0  0  0  0  0  0  0  0  0  0  0
   17.4720  -13.4921  -14.9054 C   0  0  0  0  0  0  0  0  0  0  0  0
   16.7500  -14.6366  -14.5772 C   0  0  0  0  0  0  0  0  0  0  0  0
   17.4896   -8.4841  -17.6938 N   0  0  0  0  0  0  0  0  0  0  0  0
   17.9995   -7.1742  -18.0687 C   0  0  1  0  0  0  0  0  0  0  0  0
   16.9213   -6.4462  -18.7960 C   0  0  0  0  0  0  0  0  0  0  0  0
   16.6418   -6.9425  -20.1753 C   0  0  0  0  0  0  0  0  0  0  0  0
   15.4535   -6.1317  -20.7189 C   0  0  0  0  0  0  0  0  0  0  0  0
   15.0515   -6.6647  -22.0868 C   0  0  0  0  0  0  0  0  0  0  0  0
   16.2612   -6.7320  -22.8847 N   0  0  0  0  0  0  0  0  0  0  0  0
   18.4653   -6.4966  -16.8319 C   0  0  0  0  0  0  0  0  0  0  0  0
   17.8277   -6.6288  -15.7736 O   0  0  0  0  0  0  0  0  0  0  0  0
   19.6181   -5.7127  -16.8704 N   0  0  0  0  0  0  0  0  0  0  0  0
   20.0522   -4.9040  -15.7545 C   0  0  1  0  0  0  0  0  0  0  0  0
   21.4831   -4.5636  -15.9815 C   0  0  0  0  0  0  0  0  0  0  0  0
   22.0727   -3.5825  -15.0591 C   0  0  0  0  0  0  0  0  0  0  0  0
   22.4520   -3.9464  -13.7810 C   0  0  0  0  0  0  0  0  0  0  0  0
   23.0168   -2.9859  -12.9449 C   0  0  0  0  0  0  0  0  0  0  0  0
   23.2191   -1.6799  -13.3196 C   0  0  0  0  0  0  0  0  0  0  0  0
   22.8357   -1.3214  -14.6011 C   0  0  0  0  0  0  0  0  0  0  0  0
   22.2816   -2.2546  -15.4330 C   0  0  0  0  0  0  0  0  0  0  0  0
   19.1775   -3.6878  -15.6126 C   0  0  0  0  0  0  0  0  0  0  0  0
   18.8629   -3.2119  -14.5118 O   0  0  0  0  0  0  0  0  0  0  0  0
   18.7186   -3.0865  -16.7611 O   0  0  0  0  0  0  0  0  0  0  0  0
  2  1  1  0
  3  2  2  0
  4  3  1  0
  5 11  1  0
  5  4  2  0
  6  5  1  0
  7  9  1  0
  7  6  1  0
  7  8  1  6
  9 10  2  0
 11 12  2  0
 12  2  1  0
 13 14  1  0
 13  9  1  0
 15 16  1  0
 14 15  1  1
 17 16  1  0
 18 17  1  0
 19 18  1  0
 20 22  1  0
 20 14  1  0
 21 20  2  0
 23 22  1  0
 23 24  1  6
 24 25  1  0
 25 30  1  0
 26 25  2  0
 26 27  1  0
 27 28  2  0
 28 29  1  0
 30 29  2  0
 31 23  1  0
 32 31  2  0
 33 31  1  0
M  END
$$$$
