YKF.pdb
     RDKit          3D

 33 34  0  0  1  0  0  0  0  0999 V2000
   12.2659  -10.4715  -19.4146 O   0  0  0  0  0  0  0  0  0  0  0  0
   13.4951  -10.1418  -18.8546 C   0  0  0  0  0  0  0  0  0  0  0  0
   14.7061  -10.5193  -19.4191 C   0  0  0  0  0  0  0  0  0  0  0  0
   15.9161  -10.1825  -18.8551 C   0  0  0  0  0  0  0  0  0  0  0  0
   15.8963   -9.4559  -17.7043 C   0  0  0  0  0  0  0  0  0  0  0  0
   17.1778   -9.0644  -17.0592 C   0  0  0  0  0  0  0  0  0  0  0  0
   17.8043  -10.2362  -16.3358 C   0  0  2  0  0  0  0  0  0  0  0  0
   17.0055  -10.4907  -15.1424 N   0  0  0  0  0  0  0  0  0  0  0  0
   19.1997   -9.8552  -15.9709 C   0  0  0  0  0  0  0  0  0  0  0  0
   19.4464   -9.0636  -15.0354 O   0  0  0  0  0  0  0  0  0  0  0  0
   14.7104   -9.0618  -17.1132 C   0  0  0  0  0  0  0  0  0  0  0  0
   13.4983   -9.4130  -17.7019 C   0  0  0  0  0  0  0  0  0  0  0  0
   20.3055  -10.3892  -16.6923 N   0  0  0  0  0  0  0  0  0  0  0  0
   21.6944  -10.0262  -16.4565 C   0  0  1  0  0  0  0  0  0  0  0  0
   22.5595  -11.0193  -17.1542 C   0  0  0  0  0  0  0  0  0  0  0  0
   24.0256  -10.7572  -17.0614 C   0  0  0  0  0  0  0  0  0  0  0  0
   24.6565  -11.9528  -16.3282 C   0  0  0  0  0  0  0  0  0  0  0  0
   26.1693  -11.7904  -16.2887 C   0  0  0  0  0  0  0  0  0  0  0  0
   26.7039  -12.9780  -15.6497 N   0  0  0  0  0  0  0  0  0  0  0  0
   21.8823   -8.6259  -16.9145 C   0  0  0  0  0  0  0  0  0  0  0  0
   21.3615   -8.2446  -17.9763 O   0  0  0  0  0  0  0  0  0  0  0  0
   22.6471   -7.7485  -16.1463 N   0  0  0  0  0  0  0  0  0  0  0  0
   22.9532   -6.4013  -16.5691 C   0  0  1  0  0  0  0  0  0  0  0  0
   23.4491   -5.6621  -15.3764 C   0  0  0  0  0  0  0  0  0  0  0  0
   23.8169   -4.2550  -15.5894 C   0  0  0  0  0  0  0  0  0  0  0  0
   22.8726   -3.2504  -15.4927 C   0  0  0  0  0  0  0  0  0  0  0  0
   23.2687   -1.9299  -15.6918 C   0  0  0  0  0  0  0  0  0  0  0  0
   24.5592   -1.5620  -15.9854 C   0  0  0  0  0  0  0  0  0  0  0  0
   25.5003   -2.5733  -16.0822 C   0  0  0  0  0  0  0  0  0  0  0  0
   25.1257   -3.8739  -15.8874 C   0  0  0  0  0  0  0  0  0  0  0  0
   23.9444   -6.4160  -17.7012 C   0  0  0  0  0  0  0  0  0  0  0  0
   23.8640   -5.6516  -18.6740 O   0  0  0  0  0  0  0  0  0  0  0  0
   24.9807   -7.3179  -17.6386 O   0  0  0  0  0  0  0  0  0  0  0  0
  2  1  1  0
  3  2  2  0
  4  3  1  0
  5 11  1  0
  5  4  2  0
  6  5  1  0
  7  9  1  0
  7  6  1  0
  7  8  1  1
  9 10  2  0
 11 12  2  0
 12  2  1  0
 13 14  1  0
 13  9  1  0
 15 16  1  0
 14 15  1  6
 17 16  1  0
 18 17  1  0
 19 18  1  0
 20 22  1  0
 20 14  1  0
 21 20  2  0
 23 22  1  0
 23 24  1  1
 24 25  1  0
 25 30  1  0
 26 25  2  0
 26 27  1  0
 27 28  2  0
 28 29  1  0
 30 29  2  0
 31 23  1  0
 32 31  2  0
 33 31  1  0
M  END
$$$$
