YKF.pdb
     RDKit          3D

 33 34  0  0  1  0  0  0  0  0999 V2000
   17.5645  -11.2157  -19.7276 O   0  0  0  0  0  0  0  0  0  0  0  0
   18.8935  -10.8311  -19.8656 C   0  0  0  0  0  0  0  0  0  0  0  0
   19.5754  -10.1133  -18.8922 C   0  0  0  0  0  0  0  0  0  0  0  0
   20.8928   -9.7422  -19.0412 C   0  0  0  0  0  0  0  0  0  0  0  0
   21.5244  -10.1024  -20.1917 C   0  0  0  0  0  0  0  0  0  0  0  0
   22.9489   -9.7279  -20.3974 C   0  0  0  0  0  0  0  0  0  0  0  0
   23.0664   -8.3704  -21.0548 C   0  0  2  0  0  0  0  0  0  0  0  0
   22.5364   -8.4928  -22.4080 N   0  0  0  0  0  0  0  0  0  0  0  0
   24.5107   -7.9982  -21.0804 C   0  0  0  0  0  0  0  0  0  0  0  0
   25.3058   -8.4890  -21.9109 O   0  0  0  0  0  0  0  0  0  0  0  0
   20.8783  -10.8173  -21.1830 C   0  0  0  0  0  0  0  0  0  0  0  0
   19.5458  -11.1827  -21.0104 C   0  0  0  0  0  0  0  0  0  0  0  0
   25.0312   -7.0613  -20.1426 N   0  0  0  0  0  0  0  0  0  0  0  0
   26.4238   -6.6447  -20.0822 C   0  0  1  0  0  0  0  0  0  0  0  0
   26.4790   -5.2978  -19.4463 C   0  0  0  0  0  0  0  0  0  0  0  0
   27.8480   -4.7220  -19.3014 C   0  0  0  0  0  0  0  0  0  0  0  0
   27.6968   -3.3554  -18.6125 C   0  0  0  0  0  0  0  0  0  0  0  0
   29.0691   -2.7304  -18.4055 C   0  0  0  0  0  0  0  0  0  0  0  0
   28.8491   -1.3927  -17.8892 N   0  0  0  0  0  0  0  0  0  0  0  0
   27.1811   -7.6942  -19.3537 C   0  0  0  0  0  0  0  0  0  0  0  0
   28.4077   -7.5767  -19.1933 O   0  0  0  0  0  0  0  0  0  0  0  0
   26.5058   -8.8083  -18.8560 N   0  0  0  0  0  0  0  0  0  0  0  0
   27.1810   -9.9027  -18.1971 C   0  0  1  0  0  0  0  0  0  0  0  0
   26.5859  -10.0405  -16.8400 C   0  0  0  0  0  0  0  0  0  0  0  0
   26.7818  -11.3353  -16.1721 C   0  0  0  0  0  0  0  0  0  0  0  0
   27.6824  -11.4703  -15.1326 C   0  0  0  0  0  0  0  0  0  0  0  0
   27.8272  -12.7139  -14.5218 C   0  0  0  0  0  0  0  0  0  0  0  0
   27.1204  -13.8299  -14.8985 C   0  0  0  0  0  0  0  0  0  0  0  0
   26.2206  -13.6883  -15.9415 C   0  0  0  0  0  0  0  0  0  0  0  0
   26.0670  -12.4728  -16.5490 C   0  0  0  0  0  0  0  0  0  0  0  0
   27.0687  -11.1608  -19.0150 C   0  0  0  0  0  0  0  0  0  0  0  0
   26.0187  -11.5043  -19.5779 O   0  0  0  0  0  0  0  0  0  0  0  0
   28.1873  -11.9511  -19.1384 O   0  0  0  0  0  0  0  0  0  0  0  0
  2  1  1  0
  3  2  2  0
  4  3  1  0
  5 11  1  0
  5  4  2  0
  6  5  1  0
  7  9  1  0
  7  6  1  0
  7  8  1  6
  9 10  2  0
 11 12  2  0
 12  2  1  0
 13 14  1  0
 13  9  1  0
 15 16  1  0
 14 15  1  1
 17 16  1  0
 18 17  1  0
 19 18  1  0
 20 22  1  0
 20 14  1  0
 21 20  2  0
 23 22  1  0
 23 24  1  1
 24 25  1  0
 25 30  1  0
 26 25  2  0
 26 27  1  0
 27 28  2  0
 28 29  1  0
 30 29  2  0
 31 23  1  0
 32 31  2  0
 33 31  1  0
M  END
$$$$
