YKF.pdb
     RDKit          3D

 33 34  0  0  1  0  0  0  0  0999 V2000
   22.1965   -6.9882  -24.9177 O   0  0  0  0  0  0  0  0  0  0  0  0
   22.9836   -7.5110  -23.8977 C   0  0  0  0  0  0  0  0  0  0  0  0
   22.7892   -7.1971  -22.5593 C   0  0  0  0  0  0  0  0  0  0  0  0
   23.5746   -7.7253  -21.5594 C   0  0  0  0  0  0  0  0  0  0  0  0
   24.5693   -8.5803  -21.9225 C   0  0  0  0  0  0  0  0  0  0  0  0
   25.4419   -9.1799  -20.8781 C   0  0  0  0  0  0  0  0  0  0  0  0
   25.2287  -10.6746  -20.7817 C   0  0  2  0  0  0  0  0  0  0  0  0
   23.8884  -10.8913  -20.2489 N   0  0  0  0  0  0  0  0  0  0  0  0
   26.2636  -11.2256  -19.8593 C   0  0  0  0  0  0  0  0  0  0  0  0
   26.1780  -11.1004  -18.6185 O   0  0  0  0  0  0  0  0  0  0  0  0
   24.7930   -8.9165  -23.2447 C   0  0  0  0  0  0  0  0  0  0  0  0
   23.9856   -8.3708  -24.2393 C   0  0  0  0  0  0  0  0  0  0  0  0
   27.3962  -11.9171  -20.3762 N   0  0  0  0  0  0  0  0  0  0  0  0
   28.4894  -12.4283  -19.5638 C   0  0  1  0  0  0  0  0  0  0  0  0
   28.9635  -13.7039  -20.1718 C   0  0  0  0  0  0  0  0  0  0  0  0
   30.1167  -14.3464  -19.4761 C   0  0  0  0  0  0  0  0  0  0  0  0
   30.4460  -15.6400  -20.2397 C   0  0  0  0  0  0  0  0  0  0  0  0
   31.5754  -16.3783  -19.5354 C   0  0  0  0  0  0  0  0  0  0  0  0
   31.7776  -17.6224  -20.2536 N   0  0  0  0  0  0  0  0  0  0  0  0
   29.5278  -11.3698  -19.4809 C   0  0  0  0  0  0  0  0  0  0  0  0
   29.8305  -10.7160  -20.4933 O   0  0  0  0  0  0  0  0  0  0  0  0
   30.1582  -11.1196  -18.2623 N   0  0  0  0  0  0  0  0  0  0  0  0
   31.2596  -10.1944  -18.1264 C   0  0  1  0  0  0  0  0  0  0  0  0
   31.2537   -9.6983  -16.7233 C   0  0  0  0  0  0  0  0  0  0  0  0
   32.3465   -8.7887  -16.3502 C   0  0  0  0  0  0  0  0  0  0  0  0
   32.2618   -7.4329  -16.6049 C   0  0  0  0  0  0  0  0  0  0  0  0
   33.3169   -6.6071  -16.2239 C   0  0  0  0  0  0  0  0  0  0  0  0
   34.4534   -7.0669  -15.6043 C   0  0  0  0  0  0  0  0  0  0  0  0
   34.5327   -8.4264  -15.3531 C   0  0  0  0  0  0  0  0  0  0  0  0
   33.5034   -9.2485  -15.7201 C   0  0  0  0  0  0  0  0  0  0  0  0
   32.5558  -10.8578  -18.5062 C   0  0  0  0  0  0  0  0  0  0  0  0
   32.7695  -12.0659  -18.3271 O   0  0  0  0  0  0  0  0  0  0  0  0
   33.5340  -10.0796  -19.0796 O   0  0  0  0  0  0  0  0  0  0  0  0
  2  1  1  0
  3  2  2  0
  4  3  1  0
  5 11  1  0
  5  4  2  0
  6  5  1  0
  7  9  1  0
  7  6  1  0
  7  8  1  1
  9 10  2  0
 11 12  2  0
 12  2  1  0
 13 14  1  0
 13  9  1  0
 15 16  1  0
 14 15  1  6
 17 16  1  0
 18 17  1  0
 19 18  1  0
 20 22  1  0
 20 14  1  0
 21 20  2  0
 23 22  1  0
 23 24  1  1
 24 25  1  0
 25 30  1  0
 26 25  2  0
 26 27  1  0
 27 28  2  0
 28 29  1  0
 30 29  2  0
 31 23  1  0
 32 31  2  0
 33 31  1  0
M  END
$$$$
