YKF.pdb
     RDKit          3D

 33 34  0  0  1  0  0  0  0  0999 V2000
   23.6210  -15.4803  -24.1375 O   0  0  0  0  0  0  0  0  0  0  0  0
   23.3102  -16.7026  -23.5522 C   0  0  0  0  0  0  0  0  0  0  0  0
   22.4173  -17.6034  -24.1171 C   0  0  0  0  0  0  0  0  0  0  0  0
   22.1217  -18.8121  -23.5277 C   0  0  0  0  0  0  0  0  0  0  0  0
   22.7381  -19.1087  -22.3511 C   0  0  0  0  0  0  0  0  0  0  0  0
   22.4544  -20.4041  -21.6779 C   0  0  0  0  0  0  0  0  0  0  0  0
   23.4665  -21.4570  -22.0726 C   0  0  2  0  0  0  0  0  0  0  0  0
   23.2108  -21.8088  -23.4647 N   0  0  0  0  0  0  0  0  0  0  0  0
   23.2706  -22.6367  -21.1809 C   0  0  0  0  0  0  0  0  0  0  0  0
   22.2975  -23.4104  -21.3114 O   0  0  0  0  0  0  0  0  0  0  0  0
   23.6330  -18.2372  -21.7588 C   0  0  0  0  0  0  0  0  0  0  0  0
   23.9176  -17.0205  -22.3733 C   0  0  0  0  0  0  0  0  0  0  0  0
   24.2001  -22.9155  -20.1385 N   0  0  0  0  0  0  0  0  0  0  0  0
   24.0480  -23.9857  -19.1650 C   0  0  1  0  0  0  0  0  0  0  0  0
   25.4076  -24.4251  -18.7407 C   0  0  0  0  0  0  0  0  0  0  0  0
   25.4346  -25.5982  -17.8187 C   0  0  0  0  0  0  0  0  0  0  0  0
   26.9001  -25.8227  -17.4101 C   0  0  0  0  0  0  0  0  0  0  0  0
   26.9951  -27.0227  -16.4786 C   0  0  0  0  0  0  0  0  0  0  0  0
   28.4052  -27.2447  -16.2202 N   0  0  0  0  0  0  0  0  0  0  0  0
   23.1991  -23.4762  -18.0580 C   0  0  0  0  0  0  0  0  0  0  0  0
   23.5835  -22.5132  -17.3732 O   0  0  0  0  0  0  0  0  0  0  0  0
   21.9736  -24.0875  -17.7945 N   0  0  0  0  0  0  0  0  0  0  0  0
   21.1144  -23.6814  -16.7061 C   0  0  1  0  0  0  0  0  0  0  0  0
   19.7770  -23.3781  -17.2840 C   0  0  0  0  0  0  0  0  0  0  0  0
   19.6941  -22.1881  -18.1431 C   0  0  0  0  0  0  0  0  0  0  0  0
   19.5041  -20.9312  -17.6008 C   0  0  0  0  0  0  0  0  0  0  0  0
   19.4427  -19.8306  -18.4524 C   0  0  0  0  0  0  0  0  0  0  0  0
   19.5583  -19.9219  -19.8182 C   0  0  0  0  0  0  0  0  0  0  0  0
   19.7472  -21.1842  -20.3553 C   0  0  0  0  0  0  0  0  0  0  0  0
   19.8112  -22.2733  -19.5309 C   0  0  0  0  0  0  0  0  0  0  0  0
   21.0649  -24.7489  -15.6467 C   0  0  0  0  0  0  0  0  0  0  0  0
   21.4217  -25.9180  -15.8543 O   0  0  0  0  0  0  0  0  0  0  0  0
   20.6064  -24.3972  -14.3987 O   0  0  0  0  0  0  0  0  0  0  0  0
  2  1  1  0
  3  2  2  0
  4  3  1  0
  5 11  1  0
  5  4  2  0
  6  5  1  0
  7  9  1  0
  7  6  1  0
  7  8  1  6
  9 10  2  0
 11 12  2  0
 12  2  1  0
 13 14  1  0
 13  9  1  0
 15 16  1  0
 14 15  1  1
 17 16  1  0
 18 17  1  0
 19 18  1  0
 20 22  1  0
 20 14  1  0
 21 20  2  0
 23 22  1  0
 23 24  1  6
 24 25  1  0
 25 30  1  0
 26 25  2  0
 26 27  1  0
 27 28  2  0
 28 29  1  0
 30 29  2  0
 31 23  1  0
 32 31  2  0
 33 31  1  0
M  END
$$$$
