KST.pdb
     RDKit          3D

 23 22  0  0  1  0  0  0  0  0999 V2000
    8.4452  -16.4787   17.3538 N   0  0  0  0  0  0  0  0  0  0  0  0
    7.5902  -16.4017   18.5659 C   0  0  1  0  0  0  0  0  0  0  0  0
    7.0769  -17.7919   18.7372 C   0  0  0  0  0  0  0  0  0  0  0  0
    6.3862  -18.4064   17.5773 C   0  0  0  0  0  0  0  0  0  0  0  0
    5.9552  -19.8108   18.0487 C   0  0  0  0  0  0  0  0  0  0  0  0
    4.4757  -20.0073   17.8144 C   0  0  0  0  0  0  0  0  0  0  0  0
    4.1462  -21.3586   18.1571 N   0  0  0  0  0  0  0  0  0  0  0  0
    8.4233  -16.0122   19.7309 C   0  0  0  0  0  0  0  0  0  0  0  0
    9.6886  -16.2009   19.7240 O   0  0  0  0  0  0  0  0  0  0  0  0
    6.8047  -14.6283   23.3649 O   0  0  0  0  0  0  0  0  0  0  0  0
    7.9414  -14.0143   22.8336 C   0  0  0  0  0  0  0  0  0  0  0  0
    8.7537  -15.0244   22.0225 C   0  0  2  0  0  0  0  0  0  0  0  0
    7.9171  -15.4174   20.9098 N   0  0  0  0  0  0  0  0  0  0  0  0
    9.1583  -16.1659   22.8606 C   0  0  0  0  0  0  0  0  0  0  0  0
    8.3942  -17.1146   23.1847 O   0  0  0  0  0  0  0  0  0  0  0  0
   12.4121  -18.1283   22.2530 C   0  0  0  0  0  0  0  0  0  0  0  0
   12.4202  -17.6016   23.6599 C   0  0  1  0  0  0  0  0  0  0  0  0
   13.2041  -16.4499   23.7530 O   0  0  0  0  0  0  0  0  0  0  0  0
   11.0055  -17.3108   24.1441 C   0  0  2  0  0  0  0  0  0  0  0  0
   10.4903  -16.2074   23.3369 N   0  0  0  0  0  0  0  0  0  0  0  0
   11.1181  -16.9073   25.5690 C   0  0  0  0  0  0  0  0  0  0  0  0
   10.7579  -15.6049   25.8862 O   0  0  0  0  0  0  0  0  0  0  0  0
   11.5193  -17.7027   26.4470 O   0  0  0  0  0  0  0  0  0  0  0  0
  2  1  1  6
  3  4  1  0
  3  2  1  0
  5  4  1  0
  6  5  1  0
  7  6  1  0
  8 13  1  0
  8  2  1  0
  9  8  2  0
 11 10  1  0
 12 11  1  1
 12 14  1  0
 12 13  1  0
 14 15  2  0
 17 16  1  6
 17 19  1  0
 18 17  1  0
 19 21  1  0
 19 20  1  6
 20 14  1  0
 21 22  1  0
 23 21  2  0
M  END
$$$$
