KST.pdb
     RDKit          3D

 23 22  0  0  1  0  0  0  0  0999 V2000
    6.3620  -16.6409   25.5156 N   0  0  0  0  0  0  0  0  0  0  0  0
    6.6685  -15.6186   24.4825 C   0  0  1  0  0  0  0  0  0  0  0  0
    7.1362  -14.4388   25.2666 C   0  0  0  0  0  0  0  0  0  0  0  0
    6.1930  -13.8681   26.2589 C   0  0  0  0  0  0  0  0  0  0  0  0
    6.4675  -12.3500   26.2654 C   0  0  0  0  0  0  0  0  0  0  0  0
    5.5911  -11.6668   27.2889 C   0  0  0  0  0  0  0  0  0  0  0  0
    5.9944  -10.2950   27.3757 N   0  0  0  0  0  0  0  0  0  0  0  0
    7.7556  -16.1182   23.6042 C   0  0  0  0  0  0  0  0  0  0  0  0
    8.5843  -16.9983   24.0231 O   0  0  0  0  0  0  0  0  0  0  0  0
    8.1066  -14.3547   20.1901 O   0  0  0  0  0  0  0  0  0  0  0  0
    8.8674  -15.5206   20.0757 C   0  0  0  0  0  0  0  0  0  0  0  0
    9.0593  -16.1600   21.4513 C   0  0  2  0  0  0  0  0  0  0  0  0
    7.9675  -15.6873   22.2740 N   0  0  0  0  0  0  0  0  0  0  0  0
   10.3797  -15.8195   22.0082 C   0  0  0  0  0  0  0  0  0  0  0  0
   10.8512  -14.6514   22.0531 O   0  0  0  0  0  0  0  0  0  0  0  0
   11.7317  -16.8829   25.5751 C   0  0  0  0  0  0  0  0  0  0  0  0
   12.4824  -17.5157   24.4381 C   0  0  1  0  0  0  0  0  0  0  0  0
   11.9576  -18.7743   24.1378 O   0  0  0  0  0  0  0  0  0  0  0  0
   12.4520  -16.6284   23.2003 C   0  0  2  0  0  0  0  0  0  0  0  0
   11.1766  -16.8667   22.5287 N   0  0  0  0  0  0  0  0  0  0  0  0
   13.5837  -17.0591   22.3403 C   0  0  0  0  0  0  0  0  0  0  0  0
   13.2671  -17.7660   21.1885 O   0  0  0  0  0  0  0  0  0  0  0  0
   14.7704  -16.7984   22.6373 O   0  0  0  0  0  0  0  0  0  0  0  0
  2  1  1  1
  3  4  1  0
  3  2  1  0
  5  4  1  0
  6  5  1  0
  7  6  1  0
  8 13  1  0
  8  2  1  0
  9  8  2  0
 11 10  1  0
 12 11  1  6
 12 14  1  0
 12 13  1  0
 14 15  2  0
 17 16  1  1
 17 19  1  0
 18 17  1  0
 19 21  1  0
 19 20  1  6
 20 14  1  0
 21 22  1  0
 23 21  2  0
M  END
$$$$
