KST.pdb
     RDKit          3D

 23 22  0  0  1  0  0  0  0  0999 V2000
    7.4118  -13.4021   18.1892 N   0  0  0  0  0  0  0  0  0  0  0  0
    8.1749  -14.3699   19.0184 C   0  0  1  0  0  0  0  0  0  0  0  0
    9.5841  -13.8876   18.9350 C   0  0  0  0  0  0  0  0  0  0  0  0
   10.3722  -14.3011   17.7485 C   0  0  0  0  0  0  0  0  0  0  0  0
   11.2246  -15.4995   18.2148 C   0  0  0  0  0  0  0  0  0  0  0  0
   12.1795  -15.9162   17.1208 C   0  0  0  0  0  0  0  0  0  0  0  0
   13.0563  -16.9166   17.6524 N   0  0  0  0  0  0  0  0  0  0  0  0
    7.6897  -14.3059   20.4197 C   0  0  0  0  0  0  0  0  0  0  0  0
    7.5186  -13.1802   21.0031 O   0  0  0  0  0  0  0  0  0  0  0  0
    6.9178  -17.7268   22.8549 O   0  0  0  0  0  0  0  0  0  0  0  0
    6.0493  -16.6354   22.7783 C   0  0  0  0  0  0  0  0  0  0  0  0
    6.8419  -15.3483   22.5483 C   0  0  2  0  0  0  0  0  0  0  0  0
    7.3811  -15.4379   21.2090 N   0  0  0  0  0  0  0  0  0  0  0  0
    7.8878  -15.1863   23.5726 C   0  0  0  0  0  0  0  0  0  0  0  0
    9.1157  -15.3881   23.3712 O   0  0  0  0  0  0  0  0  0  0  0  0
    7.9359  -12.1305   26.2005 C   0  0  0  0  0  0  0  0  0  0  0  0
    7.8731  -13.4804   26.8566 C   0  0  1  0  0  0  0  0  0  0  0  0
    6.5591  -13.8031   27.2010 O   0  0  0  0  0  0  0  0  0  0  0  0
    8.4549  -14.5577   25.9503 C   0  0  2  0  0  0  0  0  0  0  0  0
    7.4965  -14.7776   24.8697 N   0  0  0  0  0  0  0  0  0  0  0  0
    8.5961  -15.7812   26.7802 C   0  0  0  0  0  0  0  0  0  0  0  0
    9.5283  -15.7422   27.8078 O   0  0  0  0  0  0  0  0  0  0  0  0
    7.9076  -16.8032   26.5659 O   0  0  0  0  0  0  0  0  0  0  0  0
  2  1  1  6
  3  4  1  0
  3  2  1  0
  5  4  1  0
  6  5  1  0
  7  6  1  0
  8 13  1  0
  8  2  1  0
  9  8  2  0
 11 10  1  0
 12 11  1  1
 12 14  1  0
 12 13  1  0
 14 15  2  0
 17 16  1  6
 17 19  1  0
 18 17  1  0
 19 21  1  0
 19 20  1  6
 20 14  1  0
 21 22  1  0
 23 21  2  0
M  END
$$$$
