KST.pdb
     RDKit          3D

 23 22  0  0  1  0  0  0  0  0999 V2000
    8.5356  -12.3993   19.3062 N   0  0  0  0  0  0  0  0  0  0  0  0
    7.7202  -13.4321   19.9951 C   0  0  1  0  0  0  0  0  0  0  0  0
    7.8518  -14.6378   19.1265 C   0  0  0  0  0  0  0  0  0  0  0  0
    7.7098  -14.4373   17.6637 C   0  0  0  0  0  0  0  0  0  0  0  0
    7.6633  -15.8539   17.0544 C   0  0  0  0  0  0  0  0  0  0  0  0
    7.6171  -15.7708   15.5467 C   0  0  0  0  0  0  0  0  0  0  0  0
    7.4094  -17.0923   15.0341 N   0  0  0  0  0  0  0  0  0  0  0  0
    8.2957  -13.6978   21.3372 C   0  0  0  0  0  0  0  0  0  0  0  0
    9.5576  -13.8393   21.4928 O   0  0  0  0  0  0  0  0  0  0  0  0
    5.8895  -14.0737   24.7114 O   0  0  0  0  0  0  0  0  0  0  0  0
    7.1662  -13.5262   24.8582 C   0  0  0  0  0  0  0  0  0  0  0  0
    8.1140  -14.1153   23.8129 C   0  0  2  0  0  0  0  0  0  0  0  0
    7.5337  -13.8126   22.5230 N   0  0  0  0  0  0  0  0  0  0  0  0
    8.2990  -15.5606   24.0280 C   0  0  0  0  0  0  0  0  0  0  0  0
    7.4819  -16.4442   23.6533 O   0  0  0  0  0  0  0  0  0  0  0  0
   10.7779  -17.7473   22.7067 C   0  0  0  0  0  0  0  0  0  0  0  0
   11.0234  -17.7518   24.1887 C   0  0  1  0  0  0  0  0  0  0  0  0
   12.0454  -16.8616   24.5241 O   0  0  0  0  0  0  0  0  0  0  0  0
    9.7542  -17.4025   24.9553 C   0  0  2  0  0  0  0  0  0  0  0  0
    9.4679  -15.9930   24.6984 N   0  0  0  0  0  0  0  0  0  0  0  0
   10.0523  -17.6211   26.3938 C   0  0  0  0  0  0  0  0  0  0  0  0
   10.2887  -18.9279   26.7974 O   0  0  0  0  0  0  0  0  0  0  0  0
   10.0897  -16.6725   27.2082 O   0  0  0  0  0  0  0  0  0  0  0  0
  2  1  1  6
  3  4  1  0
  3  2  1  0
  5  4  1  0
  6  5  1  0
  7  6  1  0
  8 13  1  0
  8  2  1  0
  9  8  2  0
 11 10  1  0
 12 11  1  1
 12 14  1  0
 12 13  1  0
 14 15  2  0
 17 16  1  6
 17 19  1  0
 18 17  1  0
 19 21  1  0
 19 20  1  1
 20 14  1  0
 21 22  1  0
 23 21  2  0
M  END
$$$$
