KST.pdb
     RDKit          3D

 23 22  0  0  1  0  0  0  0  0999 V2000
    6.9424  -15.2840   20.2601 N   0  0  0  0  0  0  0  0  0  0  0  0
    8.3739  -14.8971   20.1743 C   0  0  1  0  0  0  0  0  0  0  0  0
    8.3576  -13.6100   19.4203 C   0  0  0  0  0  0  0  0  0  0  0  0
    7.5245  -13.5538   18.1944 C   0  0  0  0  0  0  0  0  0  0  0  0
    8.5194  -13.5893   17.0158 C   0  0  0  0  0  0  0  0  0  0  0  0
    7.7713  -13.6138   15.7035 C   0  0  0  0  0  0  0  0  0  0  0  0
    8.7309  -13.7262   14.6459 N   0  0  0  0  0  0  0  0  0  0  0  0
    8.9088  -14.6867   21.5427 C   0  0  0  0  0  0  0  0  0  0  0  0
   10.0923  -14.2349   21.7213 O   0  0  0  0  0  0  0  0  0  0  0  0
    6.6242  -14.9258   25.0065 O   0  0  0  0  0  0  0  0  0  0  0  0
    7.8875  -14.3296   25.0085 C   0  0  0  0  0  0  0  0  0  0  0  0
    8.8125  -15.0553   24.0309 C   0  0  2  0  0  0  0  0  0  0  0  0
    8.1883  -14.9529   22.7300 N   0  0  0  0  0  0  0  0  0  0  0  0
    9.0277  -16.4508   24.4500 C   0  0  0  0  0  0  0  0  0  0  0  0
    8.1684  -17.3661   24.3374 O   0  0  0  0  0  0  0  0  0  0  0  0
   11.6362  -18.7672   23.2753 C   0  0  0  0  0  0  0  0  0  0  0  0
   11.8785  -18.5649   24.7440 C   0  0  1  0  0  0  0  0  0  0  0  0
   12.8757  -17.6105   24.9545 O   0  0  0  0  0  0  0  0  0  0  0  0
   10.5989  -18.1492   25.4582 C   0  0  2  0  0  0  0  0  0  0  0  0
   10.2780  -16.7939   25.0170 N   0  0  0  0  0  0  0  0  0  0  0  0
   10.8984  -18.1678   26.9128 C   0  0  0  0  0  0  0  0  0  0  0  0
   11.1723  -19.4025   27.4847 O   0  0  0  0  0  0  0  0  0  0  0  0
   10.9044  -17.1197   27.5955 O   0  0  0  0  0  0  0  0  0  0  0  0
  2  1  1  1
  3  4  1  0
  3  2  1  0
  5  4  1  0
  6  5  1  0
  7  6  1  0
  8 13  1  0
  8  2  1  0
  9  8  2  0
 11 10  1  0
 12 11  1  1
 12 14  1  0
 12 13  1  0
 14 15  2  0
 17 16  1  6
 17 19  1  0
 18 17  1  0
 19 21  1  0
 19 20  1  6
 20 14  1  0
 21 22  1  0
 23 21  2  0
M  END
$$$$
