VSY.pdb
     RDKit          3D

 26 26  0  0  1  0  0  0  0  0999 V2000
   47.1621  -14.6499   -6.3863 C   0  0  0  0  0  0  0  0  0  0  0  0
   46.5375  -13.5006   -7.1541 C   0  0  2  0  0  0  0  0  0  0  0  0
   45.6431  -12.6800   -6.2720 C   0  0  0  0  0  0  0  0  0  0  0  0
   45.8602  -13.9610   -8.4220 C   0  0  2  0  0  0  0  0  0  0  0  0
   46.8527  -14.6680   -9.2052 N   0  0  0  0  0  0  0  0  0  0  0  0
   45.2918  -12.8637   -9.2042 C   0  0  0  0  0  0  0  0  0  0  0  0
   45.9649  -12.0725   -9.9160 O   0  0  0  0  0  0  0  0  0  0  0  0
   41.1109  -12.2873   -9.3588 O   0  0  0  0  0  0  0  0  0  0  0  0
   41.9080  -11.8470  -10.3986 C   0  0  0  0  0  0  0  0  0  0  0  0
   43.2804  -11.5232   -9.8751 C   0  0  2  0  0  0  0  0  0  0  0  0
   43.8904  -12.6393   -9.1889 N   0  0  0  0  0  0  0  0  0  0  0  0
   43.1867  -10.3177   -9.0349 C   0  0  0  0  0  0  0  0  0  0  0  0
   43.0130  -10.3347   -7.7899 O   0  0  0  0  0  0  0  0  0  0  0  0
   48.6466   -9.0697   -5.9635 O   0  0  0  0  0  0  0  0  0  0  0  0
   47.5966   -8.5632   -6.6881 C   0  0  0  0  0  0  0  0  0  0  0  0
   47.3341   -9.0551   -7.9532 C   0  0  0  0  0  0  0  0  0  0  0  0
   46.2858   -8.5654   -8.7046 C   0  0  0  0  0  0  0  0  0  0  0  0
   45.4918   -7.5796   -8.1969 C   0  0  0  0  0  0  0  0  0  0  0  0
   44.3616   -7.0069   -8.9496 C   0  0  0  0  0  0  0  0  0  0  0  0
   43.1024   -7.8355   -8.8554 C   0  0  2  0  0  0  0  0  0  0  0  0
   43.2994   -9.0504   -9.6656 N   0  0  0  0  0  0  0  0  0  0  0  0
   41.9682   -7.0464   -9.3880 C   0  0  0  0  0  0  0  0  0  0  0  0
   41.6360   -5.8495   -8.7501 O   0  0  0  0  0  0  0  0  0  0  0  0
   45.7506   -7.0857   -6.9335 C   0  0  0  0  0  0  0  0  0  0  0  0
   46.8042   -7.5701   -6.1643 C   0  0  0  0  0  0  0  0  0  0  0  0
   41.2889   -7.3907  -10.3783 O   0  0  0  0  0  0  0  0  0  0  0  0
  2  1  1  1
  2  3  1  0
  4  6  1  0
  4  2  1  0
  4  5  1  6
  6  7  2  0
  9  8  1  0
 10  9  1  1
 11  6  1  0
 11 10  1  0
 12 21  1  0
 12 10  1  0
 13 12  2  0
 15 14  1  0
 16 15  2  0
 17 16  1  0
 18 17  2  0
 18 24  1  0
 19 18  1  0
 20 22  1  0
 20 19  1  6
 20 21  1  0
 22 23  1  0
 24 25  2  0
 25 15  1  0
 26 22  2  0
M  END
$$$$
