VSY.pdb
     RDKit          3D

 26 26  0  0  1  0  0  0  0  0999 V2000
   23.9541  -24.5755  -17.4057 C   0  0  0  0  0  0  0  0  0  0  0  0
   24.1600  -23.5747  -16.2848 C   0  0  2  0  0  0  0  0  0  0  0  0
   25.4960  -22.9008  -16.3963 C   0  0  0  0  0  0  0  0  0  0  0  0
   23.9128  -24.1807  -14.9246 C   0  0  2  0  0  0  0  0  0  0  0  0
   25.0352  -25.0487  -14.6322 N   0  0  0  0  0  0  0  0  0  0  0  0
   22.6618  -24.9342  -14.8468 C   0  0  0  0  0  0  0  0  0  0  0  0
   21.5188  -24.4388  -15.0306 O   0  0  0  0  0  0  0  0  0  0  0  0
   22.7389  -28.8778  -13.4470 O   0  0  0  0  0  0  0  0  0  0  0  0
   21.7408  -28.5748  -14.3540 C   0  0  0  0  0  0  0  0  0  0  0  0
   21.4868  -27.0924  -14.3423 C   0  0  2  0  0  0  0  0  0  0  0  0
   22.6918  -26.3211  -14.5463 N   0  0  0  0  0  0  0  0  0  0  0  0
   20.7927  -26.7479  -13.0903 C   0  0  0  0  0  0  0  0  0  0  0  0
   21.2540  -25.9710  -12.2162 O   0  0  0  0  0  0  0  0  0  0  0  0
   17.6551  -24.9371   -5.6740 O   0  0  0  0  0  0  0  0  0  0  0  0
   18.1846  -25.2956   -6.8885 C   0  0  0  0  0  0  0  0  0  0  0  0
   18.4309  -26.6277   -7.1646 C   0  0  0  0  0  0  0  0  0  0  0  0
   18.9625  -27.0176   -8.3765 C   0  0  0  0  0  0  0  0  0  0  0  0
   19.2522  -26.0784   -9.3220 C   0  0  0  0  0  0  0  0  0  0  0  0
   19.8288  -26.4263  -10.6330 C   0  0  0  0  0  0  0  0  0  0  0  0
   18.8151  -26.9947  -11.5975 C   0  0  2  0  0  0  0  0  0  0  0  0
   19.5189  -27.3271  -12.8486 N   0  0  0  0  0  0  0  0  0  0  0  0
   17.7733  -25.9743  -11.8547 C   0  0  0  0  0  0  0  0  0  0  0  0
   16.5183  -26.1456  -11.2670 O   0  0  0  0  0  0  0  0  0  0  0  0
   19.0074  -24.7468   -9.0502 C   0  0  0  0  0  0  0  0  0  0  0  0
   18.4716  -24.3389   -7.8325 C   0  0  0  0  0  0  0  0  0  0  0  0
   17.9528  -24.9655  -12.5695 O   0  0  0  0  0  0  0  0  0  0  0  0
  2  1  1  6
  2  3  1  0
  4  6  1  0
  4  2  1  0
  4  5  1  6
  6  7  2  0
  9  8  1  0
 10  9  1  1
 11  6  1  0
 11 10  1  0
 12 21  1  0
 12 10  1  0
 13 12  2  0
 15 14  1  0
 16 15  2  0
 17 16  1  0
 18 17  2  0
 18 24  1  0
 19 18  1  0
 20 22  1  0
 20 19  1  1
 20 21  1  0
 22 23  1  0
 24 25  2  0
 25 15  1  0
 26 22  2  0
M  END
$$$$
