VSY.pdb
     RDKit          3D

 26 26  0  0  1  0  0  0  0  0999 V2000
   16.7583  -10.7833  -18.3306 C   0  0  0  0  0  0  0  0  0  0  0  0
   18.1192  -10.1685  -18.0651 C   0  0  2  0  0  0  0  0  0  0  0  0
   18.4964   -9.1963  -19.1439 C   0  0  0  0  0  0  0  0  0  0  0  0
   19.1788  -11.2131  -17.8106 C   0  0  2  0  0  0  0  0  0  0  0  0
   18.7550  -11.9809  -16.6577 N   0  0  0  0  0  0  0  0  0  0  0  0
   20.5054  -10.6445  -17.5752 C   0  0  0  0  0  0  0  0  0  0  0  0
   20.7848   -9.8514  -16.6378 O   0  0  0  0  0  0  0  0  0  0  0  0
   23.6586  -11.7350  -20.0835 O   0  0  0  0  0  0  0  0  0  0  0  0
   23.9845  -11.3012  -18.8123 C   0  0  0  0  0  0  0  0  0  0  0  0
   22.8959  -10.4010  -18.2959 C   0  0  2  0  0  0  0  0  0  0  0  0
   21.5806  -10.9827  -18.4379 N   0  0  0  0  0  0  0  0  0  0  0  0
   23.0173   -9.0932  -18.9613 C   0  0  0  0  0  0  0  0  0  0  0  0
   22.3289   -8.7360  -19.9508 O   0  0  0  0  0  0  0  0  0  0  0  0
   21.3048   -5.7354  -13.5070 O   0  0  0  0  0  0  0  0  0  0  0  0
   21.6761   -5.8275  -14.8253 C   0  0  0  0  0  0  0  0  0  0  0  0
   22.7227   -5.0586  -15.2997 C   0  0  0  0  0  0  0  0  0  0  0  0
   23.1180   -5.1301  -16.6195 C   0  0  0  0  0  0  0  0  0  0  0  0
   22.4697   -5.9708  -17.4755 C   0  0  0  0  0  0  0  0  0  0  0  0
   22.8359   -6.0891  -18.8982 C   0  0  0  0  0  0  0  0  0  0  0  0
   24.1134   -6.8630  -19.1220 C   0  0  2  0  0  0  0  0  0  0  0  0
   23.9718   -8.1704  -18.4572 N   0  0  0  0  0  0  0  0  0  0  0  0
   25.2409   -6.1090  -18.5280 C   0  0  0  0  0  0  0  0  0  0  0  0
   25.5633   -4.8628  -19.0693 O   0  0  0  0  0  0  0  0  0  0  0  0
   21.4239   -6.7406  -17.0055 C   0  0  0  0  0  0  0  0  0  0  0  0
   21.0144   -6.6790  -15.6771 C   0  0  0  0  0  0  0  0  0  0  0  0
   25.9230   -6.5247  -17.5673 O   0  0  0  0  0  0  0  0  0  0  0  0
  2  1  1  6
  2  3  1  0
  4  6  1  0
  4  2  1  0
  4  5  1  1
  6  7  2  0
  9  8  1  0
 10  9  1  6
 11  6  1  0
 11 10  1  0
 12 21  1  0
 12 10  1  0
 13 12  2  0
 15 14  1  0
 16 15  2  0
 17 16  1  0
 18 17  2  0
 18 24  1  0
 19 18  1  0
 20 22  1  0
 20 19  1  1
 20 21  1  0
 22 23  1  0
 24 25  2  0
 25 15  1  0
 26 22  2  0
M  END
$$$$
