VSY.pdb
     RDKit          3D

 26 26  0  0  1  0  0  0  0  0999 V2000
   17.3016  -13.8952  -19.3723 C   0  0  0  0  0  0  0  0  0  0  0  0
   18.7992  -14.0996  -19.4984 C   0  0  2  0  0  0  0  0  0  0  0  0
   19.1265  -15.5230  -19.8421 C   0  0  0  0  0  0  0  0  0  0  0  0
   19.5491  -13.5933  -18.2903 C   0  0  2  0  0  0  0  0  0  0  0  0
   19.3433  -14.5534  -17.2253 N   0  0  0  0  0  0  0  0  0  0  0  0
   19.1181  -12.2642  -17.8583 C   0  0  0  0  0  0  0  0  0  0  0  0
   19.3978  -11.1938  -18.4597 O   0  0  0  0  0  0  0  0  0  0  0  0
   16.9469  -11.6786  -14.2058 O   0  0  0  0  0  0  0  0  0  0  0  0
   16.6861  -10.9125  -15.3264 C   0  0  0  0  0  0  0  0  0  0  0  0
   17.9230  -10.8347  -16.1787 C   0  0  2  0  0  0  0  0  0  0  0  0
   18.3293  -12.1252  -16.6865 N   0  0  0  0  0  0  0  0  0  0  0  0
   18.9818  -10.1659  -15.4044 C   0  0  0  0  0  0  0  0  0  0  0  0
   20.0981  -10.6805  -15.1408 O   0  0  0  0  0  0  0  0  0  0  0  0
   22.2752   -2.3668  -15.0472 O   0  0  0  0  0  0  0  0  0  0  0  0
   21.9346   -3.6964  -15.0646 C   0  0  0  0  0  0  0  0  0  0  0  0
   22.2729   -4.5065  -13.9966 C   0  0  0  0  0  0  0  0  0  0  0  0
   21.9437   -5.8462  -13.9863 C   0  0  0  0  0  0  0  0  0  0  0  0
   21.2738   -6.3865  -15.0442 C   0  0  0  0  0  0  0  0  0  0  0  0
   20.8995   -7.8110  -15.1003 C   0  0  0  0  0  0  0  0  0  0  0  0
   19.7844   -8.1716  -14.1477 C   0  0  2  0  0  0  0  0  0  0  0  0
   18.7323   -8.8540  -14.9214 N   0  0  0  0  0  0  0  0  0  0  0  0
   19.2489   -6.9299  -13.5444 C   0  0  0  0  0  0  0  0  0  0  0  0
   18.1468   -6.3213  -14.1484 O   0  0  0  0  0  0  0  0  0  0  0  0
   20.9340   -5.5808  -16.1129 C   0  0  0  0  0  0  0  0  0  0  0  0
   21.2592   -4.2280  -16.1370 C   0  0  0  0  0  0  0  0  0  0  0  0
   19.7275   -6.3934  -12.5227 O   0  0  0  0  0  0  0  0  0  0  0  0
  2  1  1  1
  2  3  1  0
  4  6  1  0
  4  2  1  0
  4  5  1  1
  6  7  2  0
  9  8  1  0
 10  9  1  1
 11  6  1  0
 11 10  1  0
 12 21  1  0
 12 10  1  0
 13 12  2  0
 15 14  1  0
 16 15  2  0
 17 16  1  0
 18 17  2  0
 18 24  1  0
 19 18  1  0
 20 22  1  0
 20 19  1  6
 20 21  1  0
 22 23  1  0
 24 25  2  0
 25 15  1  0
 26 22  2  0
M  END
$$$$
