VSY.pdb
     RDKit          3D

 26 26  0  0  1  0  0  0  0  0999 V2000
   25.2077  -13.9297  -16.4619 C   0  0  0  0  0  0  0  0  0  0  0  0
   25.4310  -15.2911  -15.8316 C   0  0  2  0  0  0  0  0  0  0  0  0
   26.6745  -15.3041  -14.9920 C   0  0  0  0  0  0  0  0  0  0  0  0
   25.3902  -16.4058  -16.8487 C   0  0  2  0  0  0  0  0  0  0  0  0
   24.2168  -16.1924  -17.6709 N   0  0  0  0  0  0  0  0  0  0  0  0
   25.3449  -17.7370  -16.2450 C   0  0  0  0  0  0  0  0  0  0  0  0
   24.3635  -18.1952  -15.6025 O   0  0  0  0  0  0  0  0  0  0  0  0
   28.7282  -20.2822  -16.4105 O   0  0  0  0  0  0  0  0  0  0  0  0
   27.4651  -20.8435  -16.4059 C   0  0  0  0  0  0  0  0  0  0  0  0
   26.5019  -19.9035  -15.7344 C   0  0  2  0  0  0  0  0  0  0  0  0
   26.4614  -18.6048  -16.3671 N   0  0  0  0  0  0  0  0  0  0  0  0
   26.8411  -19.8318  -14.3034 C   0  0  0  0  0  0  0  0  0  0  0  0
   27.4542  -18.8734  -13.7687 O   0  0  0  0  0  0  0  0  0  0  0  0
   20.5001  -20.3200  -11.2903 O   0  0  0  0  0  0  0  0  0  0  0  0
   21.8637  -20.1646  -11.3163 C   0  0  0  0  0  0  0  0  0  0  0  0
   22.5069  -19.9403  -12.5194 C   0  0  0  0  0  0  0  0  0  0  0  0
   23.8761  -19.7805  -12.5762 C   0  0  0  0  0  0  0  0  0  0  0  0
   24.6129  -19.8439  -11.4304 C   0  0  0  0  0  0  0  0  0  0  0  0
   26.0787  -19.6900  -11.4220 C   0  0  0  0  0  0  0  0  0  0  0  0
   26.8042  -20.8631  -12.0372 C   0  0  2  0  0  0  0  0  0  0  0  0
   26.4528  -20.9120  -13.4673 N   0  0  0  0  0  0  0  0  0  0  0  0
   26.3653  -22.1058  -11.3620 C   0  0  0  0  0  0  0  0  0  0  0  0
   25.7370  -23.0899  -12.1279 O   0  0  0  0  0  0  0  0  0  0  0  0
   23.9742  -20.0676  -10.2267 C   0  0  0  0  0  0  0  0  0  0  0  0
   22.5941  -20.2306  -10.1542 C   0  0  0  0  0  0  0  0  0  0  0  0
   26.5252  -22.3255  -10.1426 O   0  0  0  0  0  0  0  0  0  0  0  0
  2  1  1  6
  2  3  1  0
  4  6  1  0
  4  2  1  0
  4  5  1  1
  6  7  2  0
  9  8  1  0
 10  9  1  6
 11  6  1  0
 11 10  1  0
 12 21  1  0
 12 10  1  0
 13 12  2  0
 15 14  1  0
 16 15  2  0
 17 16  1  0
 18 17  2  0
 18 24  1  0
 19 18  1  0
 20 22  1  0
 20 19  1  1
 20 21  1  0
 22 23  1  0
 24 25  2  0
 25 15  1  0
 26 22  2  0
M  END
$$$$
