VSY.pdb
     RDKit          3D

 26 26  0  0  1  0  0  0  0  0999 V2000
   17.0755  -12.8856  -18.1052 C   0  0  0  0  0  0  0  0  0  0  0  0
   17.8104  -11.8982  -17.2190 C   0  0  2  0  0  0  0  0  0  0  0  0
   17.8872  -10.5442  -17.8609 C   0  0  0  0  0  0  0  0  0  0  0  0
   19.1545  -12.4205  -16.7729 C   0  0  2  0  0  0  0  0  0  0  0  0
   18.9242  -13.6934  -16.1207 N   0  0  0  0  0  0  0  0  0  0  0  0
   19.8554  -11.5116  -15.8666 C   0  0  0  0  0  0  0  0  0  0  0  0
   19.3725  -11.0619  -14.7941 O   0  0  0  0  0  0  0  0  0  0  0  0
   23.7639  -10.1192  -16.7821 O   0  0  0  0  0  0  0  0  0  0  0  0
   23.3939  -10.3234  -15.4660 C   0  0  0  0  0  0  0  0  0  0  0  0
   21.9039  -10.1651  -15.3344 C   0  0  2  0  0  0  0  0  0  0  0  0
   21.1716  -11.0815  -16.1784 N   0  0  0  0  0  0  0  0  0  0  0  0
   21.5604   -8.7559  -15.5878 C   0  0  0  0  0  0  0  0  0  0  0  0
   20.9177   -8.3535  -16.5905 O   0  0  0  0  0  0  0  0  0  0  0  0
   18.1921   -1.0000  -15.3601 O   0  0  0  0  0  0  0  0  0  0  0  0
   18.6629   -2.2839  -15.2421 C   0  0  0  0  0  0  0  0  0  0  0  0
   19.9445   -2.5873  -15.6629 C   0  0  0  0  0  0  0  0  0  0  0  0
   20.4446   -3.8687  -15.5567 C   0  0  0  0  0  0  0  0  0  0  0  0
   19.6669   -4.8570  -15.0290 C   0  0  0  0  0  0  0  0  0  0  0  0
   20.1366   -6.2476  -14.8949 C   0  0  0  0  0  0  0  0  0  0  0  0
   21.6420   -6.3691  -14.8826 C   0  0  2  0  0  0  0  0  0  0  0  0
   21.9790   -7.7832  -14.6416 N   0  0  0  0  0  0  0  0  0  0  0  0
   22.1823   -5.5239  -13.7934 C   0  0  0  0  0  0  0  0  0  0  0  0
   22.8459   -4.3442  -14.1369 O   0  0  0  0  0  0  0  0  0  0  0  0
   18.3864   -4.5581  -14.6074 C   0  0  0  0  0  0  0  0  0  0  0  0
   17.8688   -3.2703  -14.7083 C   0  0  0  0  0  0  0  0  0  0  0  0
   22.0786   -5.8060  -12.5808 O   0  0  0  0  0  0  0  0  0  0  0  0
  2  1  1  6
  2  3  1  0
  4  6  1  0
  4  2  1  0
  4  5  1  1
  6  7  2  0
  9  8  1  0
 10  9  1  6
 11  6  1  0
 11 10  1  0
 12 21  1  0
 12 10  1  0
 13 12  2  0
 15 14  1  0
 16 15  2  0
 17 16  1  0
 18 17  2  0
 18 24  1  0
 19 18  1  0
 20 22  1  0
 20 19  1  1
 20 21  1  0
 22 23  1  0
 24 25  2  0
 25 15  1  0
 26 22  2  0
M  END
$$$$
