VSY.pdb
     RDKit          3D

 26 26  0  0  1  0  0  0  0  0999 V2000
   24.0462  -38.0236   -5.9244 C   0  0  0  0  0  0  0  0  0  0  0  0
   25.4302  -37.9142   -6.5352 C   0  0  2  0  0  0  0  0  0  0  0  0
   26.4916  -38.3081   -5.5505 C   0  0  0  0  0  0  0  0  0  0  0  0
   25.6737  -36.5625   -7.1613 C   0  0  2  0  0  0  0  0  0  0  0  0
   26.8543  -36.6819   -7.9922 N   0  0  0  0  0  0  0  0  0  0  0  0
   25.8576  -35.4955   -6.1782 C   0  0  0  0  0  0  0  0  0  0  0  0
   26.9457  -35.2407   -5.5979 O   0  0  0  0  0  0  0  0  0  0  0  0
   22.6339  -32.9486   -5.1598 O   0  0  0  0  0  0  0  0  0  0  0  0
   23.9231  -32.4507   -5.1848 C   0  0  0  0  0  0  0  0  0  0  0  0
   24.8950  -33.5629   -4.9008 C   0  0  2  0  0  0  0  0  0  0  0  0
   24.7612  -34.6664   -5.8243 N   0  0  0  0  0  0  0  0  0  0  0  0
   24.7382  -33.9718   -3.4951 C   0  0  0  0  0  0  0  0  0  0  0  0
   24.9147  -33.2081   -2.5121 O   0  0  0  0  0  0  0  0  0  0  0  0
   18.7326  -32.4549   -1.4312 O   0  0  0  0  0  0  0  0  0  0  0  0
   19.7228  -33.4029   -1.5008 C   0  0  0  0  0  0  0  0  0  0  0  0
   20.4936  -33.6748   -0.3857 C   0  0  0  0  0  0  0  0  0  0  0  0
   21.4957  -34.6221   -0.4261 C   0  0  0  0  0  0  0  0  0  0  0  0
   21.7352  -35.3049   -1.5821 C   0  0  0  0  0  0  0  0  0  0  0  0
   22.7949  -36.3230   -1.6953 C   0  0  0  0  0  0  0  0  0  0  0  0
   24.1783  -35.7308   -1.8238 C   0  0  2  0  0  0  0  0  0  0  0  0
   24.3630  -35.3145   -3.2252 N   0  0  0  0  0  0  0  0  0  0  0  0
   25.1770  -36.7629   -1.4632 C   0  0  0  0  0  0  0  0  0  0  0  0
   25.1909  -37.2421   -0.1517 O   0  0  0  0  0  0  0  0  0  0  0  0
   20.9675  -35.0364   -2.6980 C   0  0  0  0  0  0  0  0  0  0  0  0
   19.9535  -34.0838   -2.6720 C   0  0  0  0  0  0  0  0  0  0  0  0
   26.0108  -37.2313   -2.2670 O   0  0  0  0  0  0  0  0  0  0  0  0
  2  1  1  1
  2  3  1  0
  4  6  1  0
  4  2  1  0
  4  5  1  1
  6  7  2  0
  9  8  1  0
 10  9  1  6
 11  6  1  0
 11 10  1  0
 12 21  1  0
 12 10  1  0
 13 12  2  0
 15 14  1  0
 16 15  2  0
 17 16  1  0
 18 17  2  0
 18 24  1  0
 19 18  1  0
 20 22  1  0
 20 19  1  6
 20 21  1  0
 22 23  1  0
 24 25  2  0
 25 15  1  0
 26 22  2  0
M  END
$$$$
