VSY.pdb
     RDKit          3D

 26 26  0  0  1  0  0  0  0  0999 V2000
   25.3392  -15.1015  -19.7632 C   0  0  0  0  0  0  0  0  0  0  0  0
   24.6087  -15.4683  -18.4856 C   0  0  2  0  0  0  0  0  0  0  0  0
   25.2657  -16.6288  -17.7979 C   0  0  0  0  0  0  0  0  0  0  0  0
   23.1300  -15.6716  -18.7106 C   0  0  2  0  0  0  0  0  0  0  0  0
   22.6104  -14.4438  -19.2770 N   0  0  0  0  0  0  0  0  0  0  0  0
   22.4010  -16.0087  -17.4884 C   0  0  0  0  0  0  0  0  0  0  0  0
   21.6483  -15.2142  -16.8654 O   0  0  0  0  0  0  0  0  0  0  0  0
   19.3521  -18.3346  -15.4476 O   0  0  0  0  0  0  0  0  0  0  0  0
   20.1919  -17.9232  -16.4655 C   0  0  0  0  0  0  0  0  0  0  0  0
   21.5972  -17.8123  -15.9412 C   0  0  2  0  0  0  0  0  0  0  0  0
   22.5212  -17.3088  -16.9318 N   0  0  0  0  0  0  0  0  0  0  0  0
   21.9976  -19.1215  -15.3992 C   0  0  0  0  0  0  0  0  0  0  0  0
   22.3186  -20.1112  -16.1048 O   0  0  0  0  0  0  0  0  0  0  0  0
   24.9391  -20.5838   -7.5892 O   0  0  0  0  0  0  0  0  0  0  0  0
   24.6992  -20.5425   -8.9400 C   0  0  0  0  0  0  0  0  0  0  0  0
   25.7149  -20.1867   -9.8078 C   0  0  0  0  0  0  0  0  0  0  0  0
   25.5031  -20.1365  -11.1702 C   0  0  0  0  0  0  0  0  0  0  0  0
   24.2737  -20.4416  -11.6755 C   0  0  0  0  0  0  0  0  0  0  0  0
   23.9783  -20.3998  -13.1189 C   0  0  0  0  0  0  0  0  0  0  0  0
   22.5091  -20.5584  -13.4308 C   0  0  2  0  0  0  0  0  0  0  0  0
   22.0256  -19.2831  -13.9886 N   0  0  0  0  0  0  0  0  0  0  0  0
   21.7845  -20.8740  -12.1787 C   0  0  0  0  0  0  0  0  0  0  0  0
   20.9523  -19.8962  -11.6299 O   0  0  0  0  0  0  0  0  0  0  0  0
   23.2565  -20.7976  -10.8121 C   0  0  0  0  0  0  0  0  0  0  0  0
   23.4556  -20.8525   -9.4360 C   0  0  0  0  0  0  0  0  0  0  0  0
   21.8748  -21.9683  -11.5827 O   0  0  0  0  0  0  0  0  0  0  0  0
  2  1  1  6
  2  3  1  0
  4  6  1  0
  4  2  1  0
  4  5  1  1
  6  7  2  0
  9  8  1  0
 10  9  1  6
 11  6  1  0
 11 10  1  0
 12 21  1  0
 12 10  1  0
 13 12  2  0
 15 14  1  0
 16 15  2  0
 17 16  1  0
 18 17  2  0
 18 24  1  0
 19 18  1  0
 20 22  1  0
 20 19  1  1
 20 21  1  0
 22 23  1  0
 24 25  2  0
 25 15  1  0
 26 22  2  0
M  END
$$$$
