NPV.pdb
     RDKit          3D

 23 23  0  0  1  0  0  0  0  0999 V2000
    6.7016  -17.8300   20.8889 N   0  0  0  0  0  0  0  0  0  0  0  0
    6.1873  -16.7140   21.5944 C   0  0  0  0  0  0  0  0  0  0  0  0
    5.0825  -16.2326   21.1983 O   0  0  0  0  0  0  0  0  0  0  0  0
    6.9030  -16.1322   22.7424 C   0  0  0  0  0  0  0  0  0  0  0  0
    7.2785  -14.6780   22.4136 C   0  0  2  0  0  0  0  0  0  0  0  0
    7.9343  -14.7511   21.1151 N   0  0  0  0  0  0  0  0  0  0  0  0
    8.2380  -14.2447   23.4489 C   0  0  0  0  0  0  0  0  0  0  0  0
    9.4661  -14.1671   23.0739 O   0  0  0  0  0  0  0  0  0  0  0  0
    7.8938  -13.9245   24.7699 N   0  0  0  0  0  0  0  0  0  0  0  0
    6.5699  -13.9272   25.3225 C   0  0  0  0  0  0  0  0  0  0  0  0
    6.6252  -12.8062   26.3434 C   0  0  0  0  0  0  0  0  0  0  0  0
    8.0669  -12.2839   26.3282 C   0  0  0  0  0  0  0  0  0  0  0  0
    8.7767  -13.5518   25.8278 C   0  0  1  0  0  0  0  0  0  0  0  0
    8.8316  -14.5683   26.9156 C   0  0  0  0  0  0  0  0  0  0  0  0
    7.7880  -15.1187   27.3070 O   0  0  0  0  0  0  0  0  0  0  0  0
   11.8834  -16.3908   25.6243 C   0  0  0  0  0  0  0  0  0  0  0  0
   11.8762  -16.5005   27.1161 C   0  0  2  0  0  0  0  0  0  0  0  0
   12.4428  -17.8490   27.4982 C   0  0  0  0  0  0  0  0  0  0  0  0
   10.4823  -16.3144   27.6976 C   0  0  2  0  0  0  0  0  0  0  0  0
   10.0529  -14.9431   27.5380 N   0  0  0  0  0  0  0  0  0  0  0  0
   10.5756  -16.6106   29.1419 C   0  0  0  0  0  0  0  0  0  0  0  0
   10.6933  -17.8987   29.6463 O   0  0  0  0  0  0  0  0  0  0  0  0
   10.5481  -15.6620   29.9594 O   0  0  0  0  0  0  0  0  0  0  0  0
  2  3  2  0
  2  1  1  0
  4  2  1  0
  5  4  1  0
  5  6  1  6
  7  5  1  0
  7  8  2  0
  9  7  1  0
 10  9  1  0
 11 12  1  0
 11 10  1  0
 12 13  1  0
 13 14  1  1
 13  9  1  0
 14 20  1  0
 15 14  2  0
 17 19  1  0
 17 16  1  6
 18 17  1  0
 19 21  1  0
 19 20  1  1
 21 23  2  0
 21 22  1  0
M  END
$$$$
