NPV.pdb
     RDKit          3D

 23 23  0  0  1  0  0  0  0  0999 V2000
    8.8816  -20.4850   20.7717 N   0  0  0  0  0  0  0  0  0  0  0  0
    9.8779  -20.0856   21.6968 C   0  0  0  0  0  0  0  0  0  0  0  0
   10.8058  -20.9134   21.9477 O   0  0  0  0  0  0  0  0  0  0  0  0
    9.8421  -18.7634   22.3440 C   0  0  0  0  0  0  0  0  0  0  0  0
   10.3107  -17.7003   21.3370 C   0  0  2  0  0  0  0  0  0  0  0  0
   11.7330  -17.9606   21.1611 N   0  0  0  0  0  0  0  0  0  0  0  0
   10.1057  -16.3877   21.9817 C   0  0  0  0  0  0  0  0  0  0  0  0
   11.1590  -15.8373   22.4740 O   0  0  0  0  0  0  0  0  0  0  0  0
    8.8693  -15.7337   22.0813 N   0  0  0  0  0  0  0  0  0  0  0  0
    7.6177  -16.2099   21.5670 C   0  0  0  0  0  0  0  0  0  0  0  0
    6.8982  -14.9301   21.1846 C   0  0  0  0  0  0  0  0  0  0  0  0
    7.8229  -13.7789   21.5984 C   0  0  0  0  0  0  0  0  0  0  0  0
    8.5998  -14.4860   22.7201 C   0  0  1  0  0  0  0  0  0  0  0  0
    7.7358  -14.6319   23.9250 C   0  0  0  0  0  0  0  0  0  0  0  0
    6.9802  -15.6129   24.0345 O   0  0  0  0  0  0  0  0  0  0  0  0
    6.3137  -11.7169   26.6150 C   0  0  0  0  0  0  0  0  0  0  0  0
    7.2936  -12.7047   27.1643 C   0  0  2  0  0  0  0  0  0  0  0  0
    8.6524  -12.0451   27.2264 C   0  0  0  0  0  0  0  0  0  0  0  0
    7.3478  -13.9796   26.3351 C   0  0  2  0  0  0  0  0  0  0  0  0
    7.7393  -13.6764   24.9768 N   0  0  0  0  0  0  0  0  0  0  0  0
    5.9802  -14.5379   26.3146 C   0  0  0  0  0  0  0  0  0  0  0  0
    5.4208  -15.2152   27.3897 O   0  0  0  0  0  0  0  0  0  0  0  0
    5.2831  -14.3995   25.2832 O   0  0  0  0  0  0  0  0  0  0  0  0
  2  3  2  0
  2  1  1  0
  4  2  1  0
  5  4  1  0
  5  6  1  1
  7  5  1  0
  7  8  2  0
  9  7  1  0
 10  9  1  0
 11 12  1  0
 11 10  1  0
 12 13  1  0
 13 14  1  1
 13  9  1  0
 14 20  1  0
 15 14  2  0
 17 19  1  0
 17 16  1  6
 18 17  1  0
 19 21  1  0
 19 20  1  6
 21 23  2  0
 21 22  1  0
M  END
$$$$
