NPV.pdb
     RDKit          3D

 23 23  0  0  1  0  0  0  0  0999 V2000
    7.8317  -16.9218   21.0153 N   0  0  0  0  0  0  0  0  0  0  0  0
    6.5293  -16.6385   21.4961 C   0  0  0  0  0  0  0  0  0  0  0  0
    5.7817  -17.6260   21.7704 O   0  0  0  0  0  0  0  0  0  0  0  0
    6.0574  -15.2547   21.6723 C   0  0  0  0  0  0  0  0  0  0  0  0
    7.2060  -14.2881   21.3398 C   0  0  2  0  0  0  0  0  0  0  0  0
    7.7893  -14.8163   20.1142 N   0  0  0  0  0  0  0  0  0  0  0  0
    8.1739  -14.3836   22.4508 C   0  0  0  0  0  0  0  0  0  0  0  0
    9.3845  -14.6586   22.1140 O   0  0  0  0  0  0  0  0  0  0  0  0
    7.8548  -14.1966   23.8034 N   0  0  0  0  0  0  0  0  0  0  0  0
    6.5345  -14.0781   24.3516 C   0  0  0  0  0  0  0  0  0  0  0  0
    6.7335  -13.1251   25.5151 C   0  0  0  0  0  0  0  0  0  0  0  0
    8.2361  -12.8239   25.5698 C   0  0  0  0  0  0  0  0  0  0  0  0
    8.7623  -14.1038   24.9014 C   0  0  1  0  0  0  0  0  0  0  0  0
    8.6469  -15.2541   25.8411 C   0  0  0  0  0  0  0  0  0  0  0  0
    7.5276  -15.6351   26.2249 O   0  0  0  0  0  0  0  0  0  0  0  0
   11.6181  -18.9301   24.9451 C   0  0  0  0  0  0  0  0  0  0  0  0
   11.1689  -17.5086   25.0682 C   0  0  2  0  0  0  0  0  0  0  0  0
   12.3601  -16.6637   25.4589 C   0  0  0  0  0  0  0  0  0  0  0  0
   10.0388  -17.3500   26.0750 C   0  0  2  0  0  0  0  0  0  0  0  0
    9.7871  -15.9490   26.3276 N   0  0  0  0  0  0  0  0  0  0  0  0
   10.4920  -17.9784   27.3329 C   0  0  0  0  0  0  0  0  0  0  0  0
   10.4692  -19.3499   27.5471 O   0  0  0  0  0  0  0  0  0  0  0  0
   10.9191  -17.2486   28.2569 O   0  0  0  0  0  0  0  0  0  0  0  0
  2  3  2  0
  2  1  1  0
  4  2  1  0
  5  4  1  0
  5  6  1  6
  7  5  1  0
  7  8  2  0
  9  7  1  0
 10  9  1  0
 11 12  1  0
 11 10  1  0
 12 13  1  0
 13 14  1  1
 13  9  1  0
 14 20  1  0
 15 14  2  0
 17 19  1  0
 17 16  1  1
 18 17  1  0
 19 21  1  0
 19 20  1  1
 21 23  2  0
 21 22  1  0
M  END
$$$$
