NPV.pdb
     RDKit          3D

 23 23  0  0  1  0  0  0  0  0999 V2000
    6.8081  -19.5767   16.8857 N   0  0  0  0  0  0  0  0  0  0  0  0
    8.0033  -20.0488   17.4828 C   0  0  0  0  0  0  0  0  0  0  0  0
    8.2569  -21.2874   17.3790 O   0  0  0  0  0  0  0  0  0  0  0  0
    8.9179  -19.1418   18.1965 C   0  0  0  0  0  0  0  0  0  0  0  0
    8.3219  -17.7246   18.1923 C   0  0  2  0  0  0  0  0  0  0  0  0
    8.6686  -17.1826   16.8856 N   0  0  0  0  0  0  0  0  0  0  0  0
    9.0124  -16.9723   19.2589 C   0  0  0  0  0  0  0  0  0  0  0  0
   10.2886  -17.1249   19.3127 O   0  0  0  0  0  0  0  0  0  0  0  0
    8.3741  -16.1311   20.1815 N   0  0  0  0  0  0  0  0  0  0  0  0
    6.9573  -15.9791   20.3470 C   0  0  0  0  0  0  0  0  0  0  0  0
    6.8164  -14.5241   20.7530 C   0  0  0  0  0  0  0  0  0  0  0  0
    8.2418  -13.9676   20.8532 C   0  0  0  0  0  0  0  0  0  0  0  0
    8.9913  -15.2772   21.1446 C   0  0  1  0  0  0  0  0  0  0  0  0
    8.7336  -15.7111   22.5463 C   0  0  0  0  0  0  0  0  0  0  0  0
    7.6130  -16.1415   22.8691 O   0  0  0  0  0  0  0  0  0  0  0  0
   12.1141  -15.7250   25.1605 C   0  0  0  0  0  0  0  0  0  0  0  0
   11.2646  -16.9372   24.9449 C   0  0  2  0  0  0  0  0  0  0  0  0
   11.8540  -17.7365   23.8051 C   0  0  0  0  0  0  0  0  0  0  0  0
    9.8138  -16.5768   24.6602 C   0  0  2  0  0  0  0  0  0  0  0  0
    9.7365  -15.6523   23.5514 N   0  0  0  0  0  0  0  0  0  0  0  0
    9.2927  -15.9041   25.8678 C   0  0  0  0  0  0  0  0  0  0  0  0
    9.0336  -16.5725   27.0567 O   0  0  0  0  0  0  0  0  0  0  0  0
    9.0703  -14.6720   25.8285 O   0  0  0  0  0  0  0  0  0  0  0  0
  2  3  2  0
  2  1  1  0
  4  2  1  0
  5  4  1  0
  5  6  1  6
  7  5  1  0
  7  8  2  0
  9  7  1  0
 10  9  1  0
 11 12  1  0
 11 10  1  0
 12 13  1  0
 13 14  1  1
 13  9  1  0
 14 20  1  0
 15 14  2  0
 17 19  1  0
 17 16  1  6
 18 17  1  0
 19 21  1  0
 19 20  1  6
 21 23  2  0
 21 22  1  0
M  END
$$$$
