NPV.pdb
     RDKit          3D

 23 23  0  0  1  0  0  0  0  0999 V2000
   10.6234  -20.9816   22.0401 N   0  0  0  0  0  0  0  0  0  0  0  0
   10.0115  -19.9242   21.3223 C   0  0  0  0  0  0  0  0  0  0  0  0
    9.6438  -20.1638   20.1321 O   0  0  0  0  0  0  0  0  0  0  0  0
    9.8081  -18.5980   21.9293 C   0  0  0  0  0  0  0  0  0  0  0  0
   10.2533  -17.5169   20.9308 C   0  0  2  0  0  0  0  0  0  0  0  0
   11.6847  -17.7316   20.7688 N   0  0  0  0  0  0  0  0  0  0  0  0
   10.0004  -16.2139   21.5779 C   0  0  0  0  0  0  0  0  0  0  0  0
   11.0322  -15.6284   22.0752 O   0  0  0  0  0  0  0  0  0  0  0  0
    8.7417  -15.6036   21.6746 N   0  0  0  0  0  0  0  0  0  0  0  0
    7.5092  -16.1218   21.1548 C   0  0  0  0  0  0  0  0  0  0  0  0
    6.7469  -14.8670   20.7727 C   0  0  0  0  0  0  0  0  0  0  0  0
    7.6295  -13.6853   21.1923 C   0  0  0  0  0  0  0  0  0  0  0  0
    8.4267  -14.3675   22.3152 C   0  0  1  0  0  0  0  0  0  0  0  0
    7.5641  -14.5462   23.5167 C   0  0  0  0  0  0  0  0  0  0  0  0
    6.9755  -15.6246   23.7060 O   0  0  0  0  0  0  0  0  0  0  0  0
    6.3351  -12.7393   27.6621 C   0  0  0  0  0  0  0  0  0  0  0  0
    7.3662  -12.3904   26.6360 C   0  0  2  0  0  0  0  0  0  0  0  0
    6.7867  -11.3415   25.7144 C   0  0  0  0  0  0  0  0  0  0  0  0
    7.8259  -13.6088   25.8485 C   0  0  2  0  0  0  0  0  0  0  0  0
    7.3821  -13.5137   24.4759 N   0  0  0  0  0  0  0  0  0  0  0  0
    7.1854  -14.7876   26.4671 C   0  0  0  0  0  0  0  0  0  0  0  0
    7.7124  -15.4464   27.5697 O   0  0  0  0  0  0  0  0  0  0  0  0
    6.1155  -15.2220   25.9818 O   0  0  0  0  0  0  0  0  0  0  0  0
  2  3  2  0
  2  1  1  0
  4  2  1  0
  5  4  1  0
  5  6  1  1
  7  5  1  0
  7  8  2  0
  9  7  1  0
 10  9  1  0
 11 12  1  0
 11 10  1  0
 12 13  1  0
 13 14  1  1
 13  9  1  0
 14 20  1  0
 15 14  2  0
 17 19  1  0
 17 16  1  1
 18 17  1  0
 19 21  1  0
 19 20  1  6
 21 23  2  0
 21 22  1  0
M  END
$$$$
