NPV.pdb
     RDKit          3D

 23 23  0  0  1  0  0  0  0  0999 V2000
    7.3975  -18.6925   20.2358 N   0  0  0  0  0  0  0  0  0  0  0  0
    6.8894  -17.5020   20.8124 C   0  0  0  0  0  0  0  0  0  0  0  0
    5.8072  -17.0404   20.3381 O   0  0  0  0  0  0  0  0  0  0  0  0
    7.5861  -16.8237   21.9184 C   0  0  0  0  0  0  0  0  0  0  0  0
    7.9466  -15.3944   21.4812 C   0  0  2  0  0  0  0  0  0  0  0  0
    8.8609  -15.5710   20.3612 N   0  0  0  0  0  0  0  0  0  0  0  0
    8.6465  -14.7677   22.6204 C   0  0  0  0  0  0  0  0  0  0  0  0
    9.9004  -14.5383   22.4470 O   0  0  0  0  0  0  0  0  0  0  0  0
    8.0388  -14.4218   23.8358 N   0  0  0  0  0  0  0  0  0  0  0  0
    6.6479  -14.5656   24.1562 C   0  0  0  0  0  0  0  0  0  0  0  0
    6.3890  -13.3917   25.0817 C   0  0  0  0  0  0  0  0  0  0  0  0
    7.7386  -12.6882   25.2690 C   0  0  0  0  0  0  0  0  0  0  0  0
    8.6706  -13.8791   24.9951 C   0  0  1  0  0  0  0  0  0  0  0  0
    8.6522  -14.8174   26.1521 C   0  0  0  0  0  0  0  0  0  0  0  0
    7.9684  -15.8544   26.1023 O   0  0  0  0  0  0  0  0  0  0  0  0
   11.8454  -15.8446   29.8514 C   0  0  0  0  0  0  0  0  0  0  0  0
   11.1370  -14.8202   29.0228 C   0  0  2  0  0  0  0  0  0  0  0  0
   10.1308  -14.1099   29.8995 C   0  0  0  0  0  0  0  0  0  0  0  0
   10.4578  -15.4357   27.8081 C   0  0  2  0  0  0  0  0  0  0  0  0
    9.3994  -14.5717   27.3356 N   0  0  0  0  0  0  0  0  0  0  0  0
    9.8584  -16.7114   28.2507 C   0  0  0  0  0  0  0  0  0  0  0  0
   10.6100  -17.8399   28.5490 O   0  0  0  0  0  0  0  0  0  0  0  0
    8.6136  -16.7898   28.3657 O   0  0  0  0  0  0  0  0  0  0  0  0
  2  3  2  0
  2  1  1  0
  4  2  1  0
  5  4  1  0
  5  6  1  6
  7  5  1  0
  7  8  2  0
  9  7  1  0
 10  9  1  0
 11 12  1  0
 11 10  1  0
 12 13  1  0
 13 14  1  1
 13  9  1  0
 14 20  1  0
 15 14  2  0
 17 19  1  0
 17 16  1  1
 18 17  1  0
 19 21  1  0
 19 20  1  1
 21 23  2  0
 21 22  1  0
M  END
$$$$
