NPV.pdb
     RDKit          3D

 23 23  0  0  1  0  0  0  0  0999 V2000
   11.8755  -20.4681   22.1263 N   0  0  0  0  0  0  0  0  0  0  0  0
   11.0105  -19.7045   21.3037 C   0  0  0  0  0  0  0  0  0  0  0  0
   10.8687  -20.0798   20.1003 O   0  0  0  0  0  0  0  0  0  0  0  0
   10.3020  -18.5215   21.8204 C   0  0  0  0  0  0  0  0  0  0  0  0
   10.5493  -17.3363   20.8727 C   0  0  2  0  0  0  0  0  0  0  0  0
   11.9932  -17.3106   20.6834 N   0  0  0  0  0  0  0  0  0  0  0  0
   10.1044  -16.1233   21.5876 C   0  0  0  0  0  0  0  0  0  0  0  0
   11.0367  -15.4200   22.1269 O   0  0  0  0  0  0  0  0  0  0  0  0
    8.7687  -15.7126   21.7045 N   0  0  0  0  0  0  0  0  0  0  0  0
    7.6237  -16.4033   21.1851 C   0  0  0  0  0  0  0  0  0  0  0  0
    6.6762  -15.2725   20.8310 C   0  0  0  0  0  0  0  0  0  0  0  0
    7.3738  -13.9776   21.2646 C   0  0  0  0  0  0  0  0  0  0  0  0
    8.2766  -14.5491   22.3692 C   0  0  1  0  0  0  0  0  0  0  0  0
    7.4634  -14.8761   23.5739 C   0  0  0  0  0  0  0  0  0  0  0  0
    7.0313  -16.0299   23.7394 O   0  0  0  0  0  0  0  0  0  0  0  0
    5.5595  -12.8120   26.6570 C   0  0  0  0  0  0  0  0  0  0  0  0
    7.0527  -12.8269   26.7443 C   0  0  2  0  0  0  0  0  0  0  0  0
    7.5707  -11.4800   26.2937 C   0  0  0  0  0  0  0  0  0  0  0  0
    7.6639  -13.9472   25.9152 C   0  0  2  0  0  0  0  0  0  0  0  0
    7.1543  -13.9037   24.5629 N   0  0  0  0  0  0  0  0  0  0  0  0
    7.2412  -15.2203   26.5341 C   0  0  0  0  0  0  0  0  0  0  0  0
    7.9146  -15.8080   27.5964 O   0  0  0  0  0  0  0  0  0  0  0  0
    6.2283  -15.8060   26.0871 O   0  0  0  0  0  0  0  0  0  0  0  0
  2  3  2  0
  2  1  1  0
  4  2  1  0
  5  4  1  0
  5  6  1  1
  7  5  1  0
  7  8  2  0
  9  7  1  0
 10  9  1  0
 11 12  1  0
 11 10  1  0
 12 13  1  0
 13 14  1  1
 13  9  1  0
 14 20  1  0
 15 14  2  0
 17 19  1  0
 17 16  1  6
 18 17  1  0
 19 21  1  0
 19 20  1  6
 21 23  2  0
 21 22  1  0
M  END
$$$$
