YGE.pdb
     RDKit          3D

 26 26  0  0  1  0  0  0  0  0999 V2000
   29.0796  -19.2617   -5.8362 O   0  0  0  0  0  0  0  0  0  0  0  0
   28.3480  -19.7593   -6.9162 C   0  0  0  0  0  0  0  0  0  0  0  0
   26.9997  -19.4970   -7.0309 C   0  0  0  0  0  0  0  0  0  0  0  0
   26.3083  -19.9994   -8.1027 C   0  0  0  0  0  0  0  0  0  0  0  0
   26.8973  -20.7752   -9.1045 C   0  0  0  0  0  0  0  0  0  0  0  0
   26.0953  -21.2918  -10.2413 C   0  0  0  0  0  0  0  0  0  0  0  0
   26.9202  -21.3338  -11.5186 C   0  0  2  0  0  0  0  0  0  0  0  0
   27.6821  -20.1173  -11.5722 N   0  0  0  0  0  0  0  0  0  0  0  0
   26.0177  -21.4843  -12.7021 C   0  0  0  0  0  0  0  0  0  0  0  0
   25.3138  -22.4999  -12.8986 O   0  0  0  0  0  0  0  0  0  0  0  0
   28.2464  -21.0227   -8.9657 C   0  0  0  0  0  0  0  0  0  0  0  0
   28.9543  -20.5255   -7.8957 C   0  0  0  0  0  0  0  0  0  0  0  0
   25.9440  -20.4434  -13.6497 N   0  0  0  0  0  0  0  0  0  0  0  0
   25.2530  -20.5445  -14.9112 C   0  0  0  0  0  0  0  0  0  0  0  0
   23.7695  -20.4356  -14.7341 C   0  0  0  0  0  0  0  0  0  0  0  0
   23.3235  -20.2452  -13.5722 O   0  0  0  0  0  0  0  0  0  0  0  0
   22.8628  -20.5363  -15.7998 N   0  0  0  0  0  0  0  0  0  0  0  0
   21.4116  -20.6269  -15.6148 C   0  0  1  0  0  0  0  0  0  0  0  0
   21.0512  -21.5430  -14.5150 C   0  0  0  0  0  0  0  0  0  0  0  0
   20.3074  -20.8928  -13.4108 C   0  0  0  0  0  0  0  0  0  0  0  0
   19.3711  -21.6480  -12.6145 C   0  0  0  0  0  0  0  0  0  0  0  0
   18.6166  -21.2101  -11.7604 O   0  0  0  0  0  0  0  0  0  0  0  0
   20.7802  -19.3165  -15.6577 C   0  0  0  0  0  0  0  0  0  0  0  0
   21.5301  -18.1323  -15.6898 O   0  0  0  0  0  0  0  0  0  0  0  0
   19.2957  -23.0508  -12.8223 O   0  0  0  0  0  0  0  0  0  0  0  0
   19.5081  -19.1604  -15.6696 O   0  0  0  0  0  0  0  0  0  0  0  0
  1  2  1  0
  2  3  2  0
  3  4  1  0
  5  4  2  0
  5  6  1  0
  6  7  1  0
  7  9  1  0
  7  8  1  6
  9 13  1  0
 10  9  2  0
 11  5  1  0
 12  2  1  0
 12 11  2  0
 13 14  1  0
 15 17  1  0
 15 14  1  0
 16 15  2  0
 18 17  1  0
 18 23  1  0
 18 19  1  1
 20 19  1  0
 21 20  1  0
 22 21  2  0
 23 24  1  0
 25 21  1  0
 26 23  2  0
M  END
$$$$
