YGE.pdb
     RDKit          3D

 26 26  0  0  1  0  0  0  0  0999 V2000
   23.1831  -15.3868  -20.0811 O   0  0  0  0  0  0  0  0  0  0  0  0
   22.9206  -14.4287  -19.1003 C   0  0  0  0  0  0  0  0  0  0  0  0
   23.1942  -14.6884  -17.7745 C   0  0  0  0  0  0  0  0  0  0  0  0
   22.9254  -13.7277  -16.8343 C   0  0  0  0  0  0  0  0  0  0  0  0
   22.3812  -12.4784  -17.1431 C   0  0  0  0  0  0  0  0  0  0  0  0
   22.1116  -11.4788  -16.0798 C   0  0  0  0  0  0  0  0  0  0  0  0
   23.1496  -10.3671  -16.0979 C   0  0  2  0  0  0  0  0  0  0  0  0
   24.4248  -10.9724  -15.8315 N   0  0  0  0  0  0  0  0  0  0  0  0
   22.7982   -9.3265  -15.0822 C   0  0  0  0  0  0  0  0  0  0  0  0
   23.0942   -9.4282  -13.8708 O   0  0  0  0  0  0  0  0  0  0  0  0
   22.1169  -12.2444  -18.4758 C   0  0  0  0  0  0  0  0  0  0  0  0
   22.3811  -13.1984  -19.4314 C   0  0  0  0  0  0  0  0  0  0  0  0
   22.1019   -8.1712  -15.4913 N   0  0  0  0  0  0  0  0  0  0  0  0
   21.7497   -7.0844  -14.6116 C   0  0  0  0  0  0  0  0  0  0  0  0
   21.1369   -5.9447  -15.3664 C   0  0  0  0  0  0  0  0  0  0  0  0
   21.0920   -6.0212  -16.6223 O   0  0  0  0  0  0  0  0  0  0  0  0
   20.6151   -4.8042  -14.7381 N   0  0  0  0  0  0  0  0  0  0  0  0
   19.9542   -3.7168  -15.4657 C   0  0  1  0  0  0  0  0  0  0  0  0
   18.8799   -3.0923  -14.6691 C   0  0  0  0  0  0  0  0  0  0  0  0
   17.8092   -4.0323  -14.2628 C   0  0  0  0  0  0  0  0  0  0  0  0
   16.5650   -4.0837  -14.9911 C   0  0  0  0  0  0  0  0  0  0  0  0
   16.0146   -5.0812  -15.4300 O   0  0  0  0  0  0  0  0  0  0  0  0
   20.9164   -2.8495  -16.1287 C   0  0  0  0  0  0  0  0  0  0  0  0
   20.7192   -2.3863  -17.4372 O   0  0  0  0  0  0  0  0  0  0  0  0
   15.8849   -2.8621  -15.2399 O   0  0  0  0  0  0  0  0  0  0  0  0
   21.9975   -2.4551  -15.5645 O   0  0  0  0  0  0  0  0  0  0  0  0
  1  2  1  0
  2  3  2  0
  3  4  1  0
  5  4  2  0
  5  6  1  0
  6  7  1  0
  7  9  1  0
  7  8  1  1
  9 13  1  0
 10  9  2  0
 11  5  1  0
 12  2  1  0
 12 11  2  0
 13 14  1  0
 15 17  1  0
 15 14  1  0
 16 15  2  0
 18 17  1  0
 18 23  1  0
 18 19  1  1
 20 19  1  0
 21 20  1  0
 22 21  2  0
 23 24  1  0
 25 21  1  0
 26 23  2  0
M  END
$$$$
