YGE.pdb
     RDKit          3D

 26 26  0  0  1  0  0  0  0  0999 V2000
   29.5634  -18.4510   -3.0157 O   0  0  0  0  0  0  0  0  0  0  0  0
   29.1987  -19.0132   -4.2404 C   0  0  0  0  0  0  0  0  0  0  0  0
   28.9138  -20.3582   -4.3381 C   0  0  0  0  0  0  0  0  0  0  0  0
   28.5585  -20.8812   -5.5544 C   0  0  0  0  0  0  0  0  0  0  0  0
   28.4657  -20.1204   -6.7227 C   0  0  0  0  0  0  0  0  0  0  0  0
   28.0761  -20.7445   -8.0116 C   0  0  0  0  0  0  0  0  0  0  0  0
   26.8381  -20.0769   -8.5908 C   0  0  2  0  0  0  0  0  0  0  0  0
   25.7518  -20.3414   -7.6888 N   0  0  0  0  0  0  0  0  0  0  0  0
   26.5700  -20.6065   -9.9640 C   0  0  0  0  0  0  0  0  0  0  0  0
   27.4282  -20.6073  -10.8745 O   0  0  0  0  0  0  0  0  0  0  0  0
   28.7558  -18.7785   -6.5975 C   0  0  0  0  0  0  0  0  0  0  0  0
   29.1139  -18.2385   -5.3836 C   0  0  0  0  0  0  0  0  0  0  0  0
   25.2974  -21.1334  -10.2634 N   0  0  0  0  0  0  0  0  0  0  0  0
   24.8636  -21.4976  -11.5893 C   0  0  0  0  0  0  0  0  0  0  0  0
   23.6047  -20.7808  -11.9706 C   0  0  0  0  0  0  0  0  0  0  0  0
   23.1717  -19.8891  -11.1943 O   0  0  0  0  0  0  0  0  0  0  0  0
   22.8928  -21.0588  -13.1470 N   0  0  0  0  0  0  0  0  0  0  0  0
   21.6422  -20.3849  -13.5082 C   0  0  1  0  0  0  0  0  0  0  0  0
   21.3357  -20.5231  -14.9454 C   0  0  0  0  0  0  0  0  0  0  0  0
   20.1080  -19.8100  -15.3691 C   0  0  0  0  0  0  0  0  0  0  0  0
   19.6520  -19.8860  -16.7356 C   0  0  0  0  0  0  0  0  0  0  0  0
   18.6368  -19.3890  -17.1971 O   0  0  0  0  0  0  0  0  0  0  0  0
   20.5851  -20.6595  -12.5465 C   0  0  0  0  0  0  0  0  0  0  0  0
   19.7107  -19.6590  -12.0993 O   0  0  0  0  0  0  0  0  0  0  0  0
   20.4455  -20.6080  -17.6662 O   0  0  0  0  0  0  0  0  0  0  0  0
   20.3855  -21.8242  -12.0501 O   0  0  0  0  0  0  0  0  0  0  0  0
  1  2  1  0
  2  3  2  0
  3  4  1  0
  5  4  2  0
  5  6  1  0
  6  7  1  0
  7  9  1  0
  7  8  1  1
  9 13  1  0
 10  9  2  0
 11  5  1  0
 12  2  1  0
 12 11  2  0
 13 14  1  0
 15 17  1  0
 15 14  1  0
 16 15  2  0
 18 17  1  0
 18 23  1  0
 18 19  1  6
 20 19  1  0
 21 20  1  0
 22 21  2  0
 23 24  1  0
 25 21  1  0
 26 23  2  0
M  END
$$$$
