YGE.pdb
     RDKit          3D

 26 26  0  0  1  0  0  0  0  0999 V2000
   17.7697  -21.9533  -17.0323 O   0  0  0  0  0  0  0  0  0  0  0  0
   19.0334  -21.3715  -17.1484 C   0  0  0  0  0  0  0  0  0  0  0  0
   20.1720  -22.1434  -17.0618 C   0  0  0  0  0  0  0  0  0  0  0  0
   21.3989  -21.5434  -17.1797 C   0  0  0  0  0  0  0  0  0  0  0  0
   21.5691  -20.1719  -17.3862 C   0  0  0  0  0  0  0  0  0  0  0  0
   22.9248  -19.5800  -17.5053 C   0  0  0  0  0  0  0  0  0  0  0  0
   23.4467  -19.1304  -16.1491 C   0  0  2  0  0  0  0  0  0  0  0  0
   22.6697  -17.9893  -15.7521 N   0  0  0  0  0  0  0  0  0  0  0  0
   24.9050  -18.8112  -16.2457 C   0  0  0  0  0  0  0  0  0  0  0  0
   25.7772  -19.6735  -16.4928 O   0  0  0  0  0  0  0  0  0  0  0  0
   20.4146  -19.4230  -17.4689 C   0  0  0  0  0  0  0  0  0  0  0  0
   19.1759  -20.0105  -17.3526 C   0  0  0  0  0  0  0  0  0  0  0  0
   25.3342  -17.4825  -16.0528 N   0  0  0  0  0  0  0  0  0  0  0  0
   26.7062  -17.0517  -16.1577 C   0  0  0  0  0  0  0  0  0  0  0  0
   27.1235  -16.8940  -17.5877 C   0  0  0  0  0  0  0  0  0  0  0  0
   26.2955  -17.2024  -18.4845 O   0  0  0  0  0  0  0  0  0  0  0  0
   28.3885  -16.4209  -17.9673 N   0  0  0  0  0  0  0  0  0  0  0  0
   28.7608  -16.1487  -19.3587 C   0  0  1  0  0  0  0  0  0  0  0  0
   29.8949  -15.2089  -19.4531 C   0  0  0  0  0  0  0  0  0  0  0  0
   30.1701  -14.7358  -20.8298 C   0  0  0  0  0  0  0  0  0  0  0  0
   31.2328  -13.7932  -21.0813 C   0  0  0  0  0  0  0  0  0  0  0  0
   32.3415  -14.0422  -21.5278 O   0  0  0  0  0  0  0  0  0  0  0  0
   28.8051  -17.3674  -20.1527 C   0  0  0  0  0  0  0  0  0  0  0  0
   29.4391  -18.5301  -19.6927 O   0  0  0  0  0  0  0  0  0  0  0  0
   30.9953  -12.4240  -20.7887 O   0  0  0  0  0  0  0  0  0  0  0  0
   28.2712  -17.4571  -21.3145 O   0  0  0  0  0  0  0  0  0  0  0  0
  1  2  1  0
  2  3  2  0
  3  4  1  0
  5  4  2  0
  5  6  1  0
  6  7  1  0
  7  9  1  0
  7  8  1  6
  9 13  1  0
 10  9  2  0
 11  5  1  0
 12  2  1  0
 12 11  2  0
 13 14  1  0
 15 17  1  0
 15 14  1  0
 16 15  2  0
 18 17  1  0
 18 23  1  0
 18 19  1  1
 20 19  1  0
 21 20  1  0
 22 21  2  0
 23 24  1  0
 25 21  1  0
 26 23  2  0
M  END
$$$$
