YGE.pdb
     RDKit          3D

 26 26  0  0  1  0  0  0  0  0999 V2000
   29.8487  -19.3944   -3.5379 O   0  0  0  0  0  0  0  0  0  0  0  0
   28.9451  -19.4369   -4.6012 C   0  0  0  0  0  0  0  0  0  0  0  0
   28.1084  -20.5194   -4.7683 C   0  0  0  0  0  0  0  0  0  0  0  0
   27.2318  -20.5323   -5.8221 C   0  0  0  0  0  0  0  0  0  0  0  0
   27.1326  -19.4963   -6.7545 C   0  0  0  0  0  0  0  0  0  0  0  0
   26.1632  -19.5683   -7.8758 C   0  0  0  0  0  0  0  0  0  0  0  0
   26.3954  -20.8113   -8.7211 C   0  0  2  0  0  0  0  0  0  0  0  0
   27.7042  -20.6920   -9.3011 N   0  0  0  0  0  0  0  0  0  0  0  0
   25.3275  -20.9251   -9.7625 C   0  0  0  0  0  0  0  0  0  0  0  0
   24.3692  -21.7245   -9.6725 O   0  0  0  0  0  0  0  0  0  0  0  0
   27.9804  -18.4260   -6.5646 C   0  0  0  0  0  0  0  0  0  0  0  0
   28.8658  -18.3982   -5.5117 C   0  0  0  0  0  0  0  0  0  0  0  0
   25.3874  -20.1009  -10.9045 N   0  0  0  0  0  0  0  0  0  0  0  0
   26.4011  -20.2037  -11.9246 C   0  0  0  0  0  0  0  0  0  0  0  0
   25.8257  -20.6789  -13.2235 C   0  0  0  0  0  0  0  0  0  0  0  0
   26.5491  -20.6135  -14.2518 O   0  0  0  0  0  0  0  0  0  0  0  0
   24.5245  -21.1898  -13.3420 N   0  0  0  0  0  0  0  0  0  0  0  0
   23.8675  -21.4250  -14.6309 C   0  0  1  0  0  0  0  0  0  0  0  0
   23.7214  -22.8648  -14.9217 C   0  0  0  0  0  0  0  0  0  0  0  0
   25.0059  -23.6016  -14.9682 C   0  0  0  0  0  0  0  0  0  0  0  0
   25.0217  -25.0367  -15.1145 C   0  0  0  0  0  0  0  0  0  0  0  0
   26.0052  -25.7600  -15.1295 O   0  0  0  0  0  0  0  0  0  0  0  0
   22.7091  -20.5627  -14.8104 C   0  0  0  0  0  0  0  0  0  0  0  0
   22.3197  -19.6314  -13.8375 O   0  0  0  0  0  0  0  0  0  0  0  0
   23.7786  -25.7079  -15.2585 O   0  0  0  0  0  0  0  0  0  0  0  0
   21.9758  -20.5973  -15.8610 O   0  0  0  0  0  0  0  0  0  0  0  0
  1  2  1  0
  2  3  2  0
  3  4  1  0
  5  4  2  0
  5  6  1  0
  6  7  1  0
  7  9  1  0
  7  8  1  6
  9 13  1  0
 10  9  2  0
 11  5  1  0
 12  2  1  0
 12 11  2  0
 13 14  1  0
 15 17  1  0
 15 14  1  0
 16 15  2  0
 18 17  1  0
 18 23  1  0
 18 19  1  1
 20 19  1  0
 21 20  1  0
 22 21  2  0
 23 24  1  0
 25 21  1  0
 26 23  2  0
M  END
$$$$
