YGE.pdb
     RDKit          3D

 26 26  0  0  1  0  0  0  0  0999 V2000
   28.3098  -20.4460   -6.1350 O   0  0  0  0  0  0  0  0  0  0  0  0
   27.8999  -20.4149   -7.4691 C   0  0  0  0  0  0  0  0  0  0  0  0
   26.5993  -20.0969   -7.7965 C   0  0  0  0  0  0  0  0  0  0  0  0
   26.2267  -20.0746   -9.1155 C   0  0  0  0  0  0  0  0  0  0  0  0
   27.1006  -20.3597  -10.1679 C   0  0  0  0  0  0  0  0  0  0  0  0
   26.6375  -20.3198  -11.5773 C   0  0  0  0  0  0  0  0  0  0  0  0
   25.6085  -21.4072  -11.8462 C   0  0  2  0  0  0  0  0  0  0  0  0
   26.2897  -22.6686  -11.7543 N   0  0  0  0  0  0  0  0  0  0  0  0
   24.9892  -21.1997  -13.1921 C   0  0  0  0  0  0  0  0  0  0  0  0
   25.5395  -21.5542  -14.2583 O   0  0  0  0  0  0  0  0  0  0  0  0
   28.3950  -20.6747   -9.8132 C   0  0  0  0  0  0  0  0  0  0  0  0
   28.7844  -20.7013   -8.4938 C   0  0  0  0  0  0  0  0  0  0  0  0
   23.7272  -20.5781  -13.2819 N   0  0  0  0  0  0  0  0  0  0  0  0
   22.9353  -20.5241  -14.4855 C   0  0  0  0  0  0  0  0  0  0  0  0
   21.6424  -19.8021  -14.2592 C   0  0  0  0  0  0  0  0  0  0  0  0
   21.3854  -19.3969  -13.0953 O   0  0  0  0  0  0  0  0  0  0  0  0
   20.7126  -19.5603  -15.2815 N   0  0  0  0  0  0  0  0  0  0  0  0
   19.4287  -18.8893  -15.0582 C   0  0  1  0  0  0  0  0  0  0  0  0
   19.3629  -17.5818  -15.7399 C   0  0  0  0  0  0  0  0  0  0  0  0
   19.3876  -17.6732  -17.2184 C   0  0  0  0  0  0  0  0  0  0  0  0
   19.3551  -16.4786  -18.0264 C   0  0  0  0  0  0  0  0  0  0  0  0
   18.3960  -16.0341  -18.6374 O   0  0  0  0  0  0  0  0  0  0  0  0
   18.3084  -19.8055  -15.2110 C   0  0  0  0  0  0  0  0  0  0  0  0
   18.4645  -21.0815  -15.7704 O   0  0  0  0  0  0  0  0  0  0  0  0
   20.5485  -15.7178  -18.1434 O   0  0  0  0  0  0  0  0  0  0  0  0
   17.1160  -19.5087  -14.8465 O   0  0  0  0  0  0  0  0  0  0  0  0
  1  2  1  0
  2  3  2  0
  3  4  1  0
  5  4  2  0
  5  6  1  0
  6  7  1  0
  7  9  1  0
  7  8  1  6
  9 13  1  0
 10  9  2  0
 11  5  1  0
 12  2  1  0
 12 11  2  0
 13 14  1  0
 15 17  1  0
 15 14  1  0
 16 15  2  0
 18 17  1  0
 18 23  1  0
 18 19  1  6
 20 19  1  0
 21 20  1  0
 22 21  2  0
 23 24  1  0
 25 21  1  0
 26 23  2  0
M  END
$$$$
