CYQ.pdb
     RDKit          3D

 28 28  0  0  1  0  0  0  0  0999 V2000
    9.6760  -16.7885   18.2110 N   0  0  0  0  0  0  0  0  0  0  0  0
    8.5589  -16.8975   19.1202 C   0  0  1  0  0  0  0  0  0  0  0  0
    8.1695  -18.3298   19.3602 C   0  0  0  0  0  0  0  0  0  0  0  0
    7.2747  -18.9418   17.9127 S   0  0  0  0  0  0  0  0  0  0  0  0
    8.9120  -16.2550   20.4142 C   0  0  0  0  0  0  0  0  0  0  0  0
   10.0879  -16.3223   20.8580 O   0  0  0  0  0  0  0  0  0  0  0  0
    7.4414  -11.8081   28.0922 O   0  0  0  0  0  0  0  0  0  0  0  0
    7.3873  -12.3601   26.8191 C   0  0  0  0  0  0  0  0  0  0  0  0
    8.2476  -11.9925   25.8132 C   0  0  0  0  0  0  0  0  0  0  0  0
    8.1636  -12.5666   24.5516 C   0  0  0  0  0  0  0  0  0  0  0  0
    7.2166  -13.5257   24.2574 C   0  0  0  0  0  0  0  0  0  0  0  0
    7.1029  -14.1403   22.9398 C   0  0  0  0  0  0  0  0  0  0  0  0
    8.2855  -14.9299   22.4773 C   0  0  2  0  0  0  0  0  0  0  0  0
    7.9490  -15.5505   21.1880 N   0  0  0  0  0  0  0  0  0  0  0  0
    8.6131  -15.9588   23.4862 C   0  0  0  0  0  0  0  0  0  0  0  0
    7.8730  -16.9692   23.6627 O   0  0  0  0  0  0  0  0  0  0  0  0
    6.3580  -13.8846   25.2818 C   0  0  0  0  0  0  0  0  0  0  0  0
    6.4357  -13.3215   26.5298 C   0  0  0  0  0  0  0  0  0  0  0  0
   14.0327  -19.7449   26.6125 N   0  0  0  0  0  0  0  0  0  0  0  0
   13.5086  -18.6704   25.8816 C   0  0  0  0  0  0  0  0  0  0  0  0
   14.2317  -17.9750   25.1581 O   0  0  0  0  0  0  0  0  0  0  0  0
   12.0590  -18.3638   25.9797 C   0  0  0  0  0  0  0  0  0  0  0  0
   11.6534  -17.2533   25.0512 C   0  0  0  0  0  0  0  0  0  0  0  0
   10.1824  -17.0610   25.1199 C   0  0  2  0  0  0  0  0  0  0  0  0
    9.7543  -15.9092   24.3247 N   0  0  0  0  0  0  0  0  0  0  0  0
    9.7481  -16.8107   26.5028 C   0  0  0  0  0  0  0  0  0  0  0  0
    9.7119  -17.8203   27.2994 O   0  0  0  0  0  0  0  0  0  0  0  0
    9.3763  -15.5794   27.0297 O   0  0  0  0  0  0  0  0  0  0  0  0
  2  3  1  0
  2  1  1  6
  4  3  1  0
  5  2  1  0
  6  5  2  0
  8  9  2  0
  8  7  1  0
 10  9  1  0
 11 10  2  0
 13 12  1  1
 12 11  1  0
 13 14  1  0
 14  5  1  0
 15 25  1  0
 15 13  1  0
 16 15  2  0
 17 11  1  0
 17 18  2  0
 18  8  1  0
 20 19  1  0
 21 20  2  0
 22 20  1  0
 24 23  1  1
 23 22  1  0
 24 25  1  0
 26 24  1  0
 26 28  1  0
 27 26  2  0
M  END
$$$$
