CYQ.pdb
     RDKit          3D

 28 28  0  0  1  0  0  0  0  0999 V2000
    8.0832  -12.7672   17.6055 N   0  0  0  0  0  0  0  0  0  0  0  0
    7.7465  -13.8667   18.4797 C   0  0  1  0  0  0  0  0  0  0  0  0
    8.3857  -15.1526   18.0343 C   0  0  0  0  0  0  0  0  0  0  0  0
    7.4693  -15.7992   16.6157 S   0  0  0  0  0  0  0  0  0  0  0  0
    8.1847  -13.5474   19.8645 C   0  0  0  0  0  0  0  0  0  0  0  0
    9.1735  -12.7937   20.0611 O   0  0  0  0  0  0  0  0  0  0  0  0
    7.6404  -13.1346   28.8133 O   0  0  0  0  0  0  0  0  0  0  0  0
    7.4220  -13.2935   27.4512 C   0  0  0  0  0  0  0  0  0  0  0  0
    7.2808  -12.2305   26.5926 C   0  0  0  0  0  0  0  0  0  0  0  0
    7.0633  -12.4281   25.2355 C   0  0  0  0  0  0  0  0  0  0  0  0
    6.9802  -13.6948   24.6955 C   0  0  0  0  0  0  0  0  0  0  0  0
    6.7469  -13.9304   23.2753 C   0  0  0  0  0  0  0  0  0  0  0  0
    7.9255  -13.7431   22.3744 C   0  0  2  0  0  0  0  0  0  0  0  0
    7.5136  -14.0735   21.0026 N   0  0  0  0  0  0  0  0  0  0  0  0
    9.0268  -14.6227   22.8185 C   0  0  0  0  0  0  0  0  0  0  0  0
    9.5256  -14.5223   23.9765 O   0  0  0  0  0  0  0  0  0  0  0  0
    7.1247  -14.7545   25.5739 C   0  0  0  0  0  0  0  0  0  0  0  0
    7.3398  -14.5661   26.9151 C   0  0  0  0  0  0  0  0  0  0  0  0
   14.3035  -14.5033   21.5829 N   0  0  0  0  0  0  0  0  0  0  0  0
   13.3517  -14.6357   20.5631 C   0  0  0  0  0  0  0  0  0  0  0  0
   13.5749  -14.2166   19.4209 O   0  0  0  0  0  0  0  0  0  0  0  0
   12.0533  -15.2912   20.8621 C   0  0  0  0  0  0  0  0  0  0  0  0
   12.0223  -15.8755   22.2468 C   0  0  0  0  0  0  0  0  0  0  0  0
   10.6920  -16.4859   22.4984 C   0  0  2  0  0  0  0  0  0  0  0  0
    9.6087  -15.6310   22.0107 N   0  0  0  0  0  0  0  0  0  0  0  0
   10.4664  -16.6816   23.9387 C   0  0  0  0  0  0  0  0  0  0  0  0
   10.6024  -15.6535   24.7000 O   0  0  0  0  0  0  0  0  0  0  0  0
   10.1148  -17.8778   24.5531 O   0  0  0  0  0  0  0  0  0  0  0  0
  2  3  1  0
  2  1  1  6
  4  3  1  0
  5  2  1  0
  6  5  2  0
  8  9  2  0
  8  7  1  0
 10  9  1  0
 11 10  2  0
 13 12  1  1
 12 11  1  0
 13 14  1  0
 14  5  1  0
 15 25  1  0
 15 13  1  0
 16 15  2  0
 17 11  1  0
 17 18  2  0
 18  8  1  0
 20 19  1  0
 21 20  2  0
 22 20  1  0
 24 23  1  1
 23 22  1  0
 24 25  1  0
 26 24  1  0
 26 28  1  0
 27 26  2  0
M  END
$$$$
