CYQ.pdb
     RDKit          3D

 28 28  0  0  1  0  0  0  0  0999 V2000
    8.6809  -12.4433   19.2112 N   0  0  0  0  0  0  0  0  0  0  0  0
    8.1947  -13.6891   19.7569 C   0  0  1  0  0  0  0  0  0  0  0  0
    8.5336  -14.8578   18.8737 C   0  0  0  0  0  0  0  0  0  0  0  0
    7.1673  -16.0415   18.9219 S   0  0  0  0  0  0  0  0  0  0  0  0
    8.7830  -13.8991   21.1066 C   0  0  0  0  0  0  0  0  0  0  0  0
    9.8913  -13.3824   21.4049 O   0  0  0  0  0  0  0  0  0  0  0  0
    6.2189  -10.4122   27.5030 O   0  0  0  0  0  0  0  0  0  0  0  0
    6.5011  -11.5273   26.7251 C   0  0  0  0  0  0  0  0  0  0  0  0
    5.6127  -12.0393   25.8110 C   0  0  0  0  0  0  0  0  0  0  0  0
    5.9298  -13.1568   25.0502 C   0  0  0  0  0  0  0  0  0  0  0  0
    7.1451  -13.7966   25.1805 C   0  0  0  0  0  0  0  0  0  0  0  0
    7.5012  -14.9749   24.3983 C   0  0  0  0  0  0  0  0  0  0  0  0
    8.6557  -14.8187   23.4609 C   0  0  2  0  0  0  0  0  0  0  0  0
    8.1257  -14.6798   22.0969 N   0  0  0  0  0  0  0  0  0  0  0  0
    9.5353  -16.0016   23.5649 C   0  0  0  0  0  0  0  0  0  0  0  0
    9.8856  -16.4668   24.6877 O   0  0  0  0  0  0  0  0  0  0  0  0
    8.0285  -13.2681   26.1055 C   0  0  0  0  0  0  0  0  0  0  0  0
    7.7214  -12.1648   26.8598 C   0  0  0  0  0  0  0  0  0  0  0  0
   10.8747  -20.6745   19.7312 N   0  0  0  0  0  0  0  0  0  0  0  0
    9.9724  -19.6207   19.5345 C   0  0  0  0  0  0  0  0  0  0  0  0
    9.0587  -19.7068   18.7052 O   0  0  0  0  0  0  0  0  0  0  0  0
   10.1184  -18.3801   20.3373 C   0  0  0  0  0  0  0  0  0  0  0  0
   11.2846  -18.4544   21.2829 C   0  0  0  0  0  0  0  0  0  0  0  0
   10.8919  -17.8926   22.6005 C   0  0  2  0  0  0  0  0  0  0  0  0
   10.0525  -16.7034   22.4479 N   0  0  0  0  0  0  0  0  0  0  0  0
   12.0754  -17.4840   23.3725 C   0  0  0  0  0  0  0  0  0  0  0  0
   12.2067  -16.2298   23.6274 O   0  0  0  0  0  0  0  0  0  0  0  0
   13.0650  -18.3317   23.8564 O   0  0  0  0  0  0  0  0  0  0  0  0
  2  3  1  0
  2  1  1  6
  4  3  1  0
  5  2  1  0
  6  5  2  0
  8  9  2  0
  8  7  1  0
 10  9  1  0
 11 10  2  0
 13 12  1  1
 12 11  1  0
 13 14  1  0
 14  5  1  0
 15 25  1  0
 15 13  1  0
 16 15  2  0
 17 11  1  0
 17 18  2  0
 18  8  1  0
 20 19  1  0
 21 20  2  0
 22 20  1  0
 24 23  1  6
 23 22  1  0
 24 25  1  0
 26 24  1  0
 26 28  1  0
 27 26  2  0
M  END
$$$$
