CYQ.pdb
     RDKit          3D

 28 28  0  0  1  0  0  0  0  0999 V2000
    9.5706  -17.7101   19.5756 N   0  0  0  0  0  0  0  0  0  0  0  0
    8.3276  -17.5829   20.3002 C   0  0  1  0  0  0  0  0  0  0  0  0
    7.7319  -18.9233   20.6306 C   0  0  0  0  0  0  0  0  0  0  0  0
    6.2315  -18.6705   21.6079 S   0  0  0  0  0  0  0  0  0  0  0  0
    8.5644  -16.8213   21.5555 C   0  0  0  0  0  0  0  0  0  0  0  0
    9.5499  -17.0948   22.2892 O   0  0  0  0  0  0  0  0  0  0  0  0
    6.5824  -11.0374   28.1452 O   0  0  0  0  0  0  0  0  0  0  0  0
    6.7109  -11.7197   26.9426 C   0  0  0  0  0  0  0  0  0  0  0  0
    7.8118  -11.5932   26.1309 C   0  0  0  0  0  0  0  0  0  0  0  0
    7.9054  -12.2919   24.9345 C   0  0  0  0  0  0  0  0  0  0  0  0
    6.9008  -13.1383   24.5133 C   0  0  0  0  0  0  0  0  0  0  0  0
    6.9711  -13.8793   23.2591 C   0  0  0  0  0  0  0  0  0  0  0  0
    7.8827  -15.0645   23.2448 C   0  0  2  0  0  0  0  0  0  0  0  0
    7.6996  -15.7708   21.9687 N   0  0  0  0  0  0  0  0  0  0  0  0
    7.5580  -15.9467   24.3850 C   0  0  0  0  0  0  0  0  0  0  0  0
    6.4054  -16.4488   24.5235 O   0  0  0  0  0  0  0  0  0  0  0  0
    5.7989  -13.2545   25.3426 C   0  0  0  0  0  0  0  0  0  0  0  0
    5.7004  -12.5674   26.5254 C   0  0  0  0  0  0  0  0  0  0  0  0
    6.7918  -21.0296   25.1720 N   0  0  0  0  0  0  0  0  0  0  0  0
    6.9934  -20.8411   26.5458 C   0  0  0  0  0  0  0  0  0  0  0  0
    6.7755  -21.7506   27.3553 O   0  0  0  0  0  0  0  0  0  0  0  0
    7.4773  -19.5253   27.0350 C   0  0  0  0  0  0  0  0  0  0  0  0
    7.7188  -18.5591   25.9090 C   0  0  0  0  0  0  0  0  0  0  0  0
    8.1406  -17.2471   26.4625 C   0  0  2  0  0  0  0  0  0  0  0  0
    8.4819  -16.3011   25.3991 N   0  0  0  0  0  0  0  0  0  0  0  0
    9.3369  -17.3915   27.3062 C   0  0  0  0  0  0  0  0  0  0  0  0
    9.2334  -18.1362   28.3502 O   0  0  0  0  0  0  0  0  0  0  0  0
   10.5727  -16.7986   27.0756 O   0  0  0  0  0  0  0  0  0  0  0  0
  2  3  1  0
  2  1  1  1
  4  3  1  0
  5  2  1  0
  6  5  2  0
  8  9  2  0
  8  7  1  0
 10  9  1  0
 11 10  2  0
 13 12  1  6
 12 11  1  0
 13 14  1  0
 14  5  1  0
 15 25  1  0
 15 13  1  0
 16 15  2  0
 17 11  1  0
 17 18  2  0
 18  8  1  0
 20 19  1  0
 21 20  2  0
 22 20  1  0
 24 23  1  6
 23 22  1  0
 24 25  1  0
 26 24  1  0
 26 28  1  0
 27 26  2  0
M  END
$$$$
