CYQ.pdb
     RDKit          3D

 28 28  0  0  1  0  0  0  0  0999 V2000
   10.0508  -16.6544   18.6177 N   0  0  0  0  0  0  0  0  0  0  0  0
    8.8095  -16.7743   19.3465 C   0  0  1  0  0  0  0  0  0  0  0  0
    8.3260  -18.1970   19.3995 C   0  0  0  0  0  0  0  0  0  0  0  0
    6.7632  -18.2489   20.3078 S   0  0  0  0  0  0  0  0  0  0  0  0
    8.9985  -16.2617   20.7297 C   0  0  0  0  0  0  0  0  0  0  0  0
   10.1026  -16.4065   21.3165 O   0  0  0  0  0  0  0  0  0  0  0  0
    7.3961  -11.8860   28.3230 O   0  0  0  0  0  0  0  0  0  0  0  0
    7.3185  -12.3943   27.0331 C   0  0  0  0  0  0  0  0  0  0  0  0
    6.1539  -12.3966   26.3046 C   0  0  0  0  0  0  0  0  0  0  0  0
    6.1142  -12.9138   25.0165 C   0  0  0  0  0  0  0  0  0  0  0  0
    7.2379  -13.4446   24.4177 C   0  0  0  0  0  0  0  0  0  0  0  0
    7.2226  -13.9993   23.0690 C   0  0  0  0  0  0  0  0  0  0  0  0
    8.0943  -15.1919   22.8375 C   0  0  2  0  0  0  0  0  0  0  0  0
    7.9548  -15.5983   21.4317 N   0  0  0  0  0  0  0  0  0  0  0  0
    7.6819  -16.2840   23.7436 C   0  0  0  0  0  0  0  0  0  0  0  0
    6.6193  -16.2099   24.4256 O   0  0  0  0  0  0  0  0  0  0  0  0
    8.4026  -13.4346   25.1651 C   0  0  0  0  0  0  0  0  0  0  0  0
    8.4485  -12.9252   26.4376 C   0  0  0  0  0  0  0  0  0  0  0  0
   13.0591  -15.5123   22.6698 N   0  0  0  0  0  0  0  0  0  0  0  0
   13.0767  -16.4619   23.7000 C   0  0  0  0  0  0  0  0  0  0  0  0
   14.0043  -17.2731   23.8070 O   0  0  0  0  0  0  0  0  0  0  0  0
   11.9605  -16.4923   24.6789 C   0  0  0  0  0  0  0  0  0  0  0  0
   10.6180  -16.4338   24.0052 C   0  0  0  0  0  0  0  0  0  0  0  0
    9.7360  -17.4904   24.5633 C   0  0  2  0  0  0  0  0  0  0  0  0
    8.4183  -17.4807   23.9264 N   0  0  0  0  0  0  0  0  0  0  0  0
    9.5161  -17.2864   26.0033 C   0  0  0  0  0  0  0  0  0  0  0  0
   10.0739  -18.1217   26.8072 O   0  0  0  0  0  0  0  0  0  0  0  0
    8.7622  -16.2688   26.5762 O   0  0  0  0  0  0  0  0  0  0  0  0
  2  3  1  0
  2  1  1  6
  4  3  1  0
  5  2  1  0
  6  5  2  0
  8  9  2  0
  8  7  1  0
 10  9  1  0
 11 10  2  0
 13 12  1  6
 12 11  1  0
 13 14  1  0
 14  5  1  0
 15 25  1  0
 15 13  1  0
 16 15  2  0
 17 11  1  0
 17 18  2  0
 18  8  1  0
 20 19  1  0
 21 20  2  0
 22 20  1  0
 24 23  1  6
 23 22  1  0
 24 25  1  0
 26 24  1  0
 26 28  1  0
 27 26  2  0
M  END
$$$$
