IVS.pdb
     RDKit          3D

 22 21  0  0  1  0  0  0  0  0999 V2000
    6.3597  -22.4289   25.5195 C   0  0  0  0  0  0  0  0  0  0  0  0
    5.6495  -21.1780   25.1292 C   0  0  0  0  0  0  0  0  0  0  0  0
    6.5596  -20.0170   24.7852 C   0  0  2  0  0  0  0  0  0  0  0  0
    7.4657  -19.8179   26.0064 C   0  0  0  0  0  0  0  0  0  0  0  0
    5.7074  -18.7893   24.5315 C   0  0  2  0  0  0  0  0  0  0  0  0
    4.9227  -18.9960   23.2967 N   0  0  0  0  0  0  0  0  0  0  0  0
    6.5000  -17.5543   24.3326 C   0  0  0  0  0  0  0  0  0  0  0  0
    7.0114  -17.3028   23.1800 O   0  0  0  0  0  0  0  0  0  0  0  0
    5.8619  -14.0103   25.9048 C   0  0  0  0  0  0  0  0  0  0  0  0
    7.3069  -14.3953   26.0771 C   0  0  2  0  0  0  0  0  0  0  0  0
    8.1736  -13.1811   25.8055 C   0  0  0  0  0  0  0  0  0  0  0  0
    7.6673  -15.4502   25.0776 C   0  0  2  0  0  0  0  0  0  0  0  0
    6.7587  -16.5879   25.3192 N   0  0  0  0  0  0  0  0  0  0  0  0
    9.0711  -15.8839   25.1462 C   0  0  0  0  0  0  0  0  0  0  0  0
    9.4676  -16.4702   26.1772 O   0  0  0  0  0  0  0  0  0  0  0  0
   10.9265  -16.5998   21.7834 O   0  0  0  0  0  0  0  0  0  0  0  0
   11.8441  -16.0101   22.6472 C   0  0  0  0  0  0  0  0  0  0  0  0
   11.3280  -16.1948   24.0672 C   0  0  2  0  0  0  0  0  0  0  0  0
    9.9832  -15.6676   24.1044 N   0  0  0  0  0  0  0  0  0  0  0  0
   12.2474  -15.4228   24.9521 C   0  0  0  0  0  0  0  0  0  0  0  0
   11.7769  -14.4166   25.5406 O   0  0  0  0  0  0  0  0  0  0  0  0
   13.5495  -15.8516   25.0740 O   0  0  0  0  0  0  0  0  0  0  0  0
  2  1  1  0
  2  3  1  0
  3  4  1  1
  5  3  1  0
  5  7  1  0
  5  6  1  6
  7  8  2  0
 10  9  1  6
 10 12  1  0
 10 11  1  0
 12 13  1  1
 13  7  1  0
 14 12  1  0
 14 15  2  0
 16 17  1  0
 18 17  1  6
 18 19  1  0
 18 20  1  0
 19 14  1  0
 20 21  2  0
 20 22  1  0
M  END
$$$$
