IVS.pdb
     RDKit          3D

 22 21  0  0  1  0  0  0  0  0999 V2000
    6.4899  -11.5165   27.8934 C   0  0  0  0  0  0  0  0  0  0  0  0
    5.9069  -12.6034   27.0567 C   0  0  0  0  0  0  0  0  0  0  0  0
    6.9261  -13.4492   26.3215 C   0  0  2  0  0  0  0  0  0  0  0  0
    7.7320  -12.4751   25.4534 C   0  0  0  0  0  0  0  0  0  0  0  0
    6.1914  -14.4629   25.4669 C   0  0  2  0  0  0  0  0  0  0  0  0
    5.5087  -15.4310   26.3500 N   0  0  0  0  0  0  0  0  0  0  0  0
    7.0862  -15.2465   24.5845 C   0  0  0  0  0  0  0  0  0  0  0  0
    7.4616  -16.4239   24.9395 O   0  0  0  0  0  0  0  0  0  0  0  0
    6.8586  -15.0588   20.7062 C   0  0  0  0  0  0  0  0  0  0  0  0
    8.3091  -15.1504   21.0982 C   0  0  2  0  0  0  0  0  0  0  0  0
    9.0073  -16.1249   20.1698 C   0  0  0  0  0  0  0  0  0  0  0  0
    8.4188  -15.6848   22.4925 C   0  0  2  0  0  0  0  0  0  0  0  0
    7.5859  -14.8140   23.3446 N   0  0  0  0  0  0  0  0  0  0  0  0
    9.7970  -15.7449   23.0028 C   0  0  0  0  0  0  0  0  0  0  0  0
   10.4576  -14.6853   23.0711 O   0  0  0  0  0  0  0  0  0  0  0  0
   10.9695  -19.1896   24.4197 O   0  0  0  0  0  0  0  0  0  0  0  0
   11.8624  -18.2013   24.8220 C   0  0  0  0  0  0  0  0  0  0  0  0
   11.7856  -17.0677   23.8092 C   0  0  2  0  0  0  0  0  0  0  0  0
   10.4012  -16.9402   23.4157 N   0  0  0  0  0  0  0  0  0  0  0  0
   12.6499  -17.4699   22.6622 C   0  0  0  0  0  0  0  0  0  0  0  0
   12.0841  -17.7091   21.5656 O   0  0  0  0  0  0  0  0  0  0  0  0
   14.0082  -17.5560   22.8668 O   0  0  0  0  0  0  0  0  0  0  0  0
  2  1  1  0
  2  3  1  0
  3  4  1  6
  5  3  1  0
  5  7  1  0
  5  6  1  1
  7  8  2  0
 10  9  1  6
 10 12  1  0
 10 11  1  0
 12 13  1  1
 13  7  1  0
 14 12  1  0
 14 15  2  0
 16 17  1  0
 18 17  1  1
 18 19  1  0
 18 20  1  0
 19 14  1  0
 20 21  2  0
 20 22  1  0
M  END
$$$$
