IVS.pdb
     RDKit          3D

 22 21  0  0  1  0  0  0  0  0999 V2000
    6.6664  -11.5294   27.9072 C   0  0  0  0  0  0  0  0  0  0  0  0
    6.0767  -12.6478   27.1180 C   0  0  0  0  0  0  0  0  0  0  0  0
    7.0838  -13.4731   26.3439 C   0  0  2  0  0  0  0  0  0  0  0  0
    7.8309  -12.4844   25.4405 C   0  0  0  0  0  0  0  0  0  0  0  0
    6.3377  -14.5064   25.5232 C   0  0  2  0  0  0  0  0  0  0  0  0
    5.7659  -15.5208   26.4327 N   0  0  0  0  0  0  0  0  0  0  0  0
    7.2024  -15.2313   24.5640 C   0  0  0  0  0  0  0  0  0  0  0  0
    7.6939  -16.3749   24.8859 O   0  0  0  0  0  0  0  0  0  0  0  0
    6.7264  -14.8261   20.6383 C   0  0  0  0  0  0  0  0  0  0  0  0
    8.1827  -14.9696   20.9912 C   0  0  2  0  0  0  0  0  0  0  0  0
    8.8470  -15.8759   19.9731 C   0  0  0  0  0  0  0  0  0  0  0  0
    8.3116  -15.6160   22.3355 C   0  0  2  0  0  0  0  0  0  0  0  0
    7.5530  -14.7754   23.2821 N   0  0  0  0  0  0  0  0  0  0  0  0
    9.7011  -15.7823   22.7880 C   0  0  0  0  0  0  0  0  0  0  0  0
   10.3912  -14.7598   22.9928 O   0  0  0  0  0  0  0  0  0  0  0  0
   10.9009  -19.4753   23.2494 O   0  0  0  0  0  0  0  0  0  0  0  0
   11.7046  -18.6555   24.0355 C   0  0  0  0  0  0  0  0  0  0  0  0
   11.6391  -17.2496   23.4558 C   0  0  2  0  0  0  0  0  0  0  0  0
   10.2845  -17.0390   22.9993 N   0  0  0  0  0  0  0  0  0  0  0  0
   12.6130  -17.2149   22.3269 C   0  0  0  0  0  0  0  0  0  0  0  0
   12.1479  -17.1268   21.1624 O   0  0  0  0  0  0  0  0  0  0  0  0
   13.9559  -17.2807   22.6207 O   0  0  0  0  0  0  0  0  0  0  0  0
  2  1  1  0
  2  3  1  0
  3  4  1  6
  5  3  1  0
  5  7  1  0
  5  6  1  1
  7  8  2  0
 10  9  1  6
 10 12  1  0
 10 11  1  0
 12 13  1  1
 13  7  1  0
 14 12  1  0
 14 15  2  0
 16 17  1  0
 18 17  1  6
 18 19  1  0
 18 20  1  0
 19 14  1  0
 20 21  2  0
 20 22  1  0
M  END
$$$$
