IVS.pdb
     RDKit          3D

 22 21  0  0  1  0  0  0  0  0999 V2000
   10.2709  -13.9188   29.4155 C   0  0  0  0  0  0  0  0  0  0  0  0
    9.3296  -14.9430   28.8803 C   0  0  0  0  0  0  0  0  0  0  0  0
    9.5228  -15.2725   27.4144 C   0  0  2  0  0  0  0  0  0  0  0  0
    9.8930  -13.9497   26.7322 C   0  0  0  0  0  0  0  0  0  0  0  0
    8.2229  -15.8254   26.8647 C   0  0  2  0  0  0  0  0  0  0  0  0
    7.8872  -17.0705   27.5860 N   0  0  0  0  0  0  0  0  0  0  0  0
    8.2925  -16.1704   25.4261 C   0  0  0  0  0  0  0  0  0  0  0  0
    8.3876  -17.4019   25.0690 O   0  0  0  0  0  0  0  0  0  0  0  0
    6.4670  -14.2555   22.4207 C   0  0  0  0  0  0  0  0  0  0  0  0
    7.9174  -14.5255   22.1218 C   0  0  2  0  0  0  0  0  0  0  0  0
    8.0516  -14.9264   20.6657 C   0  0  0  0  0  0  0  0  0  0  0  0
    8.3975  -15.6696   22.9598 C   0  0  2  0  0  0  0  0  0  0  0  0
    8.2621  -15.2472   24.3674 N   0  0  0  0  0  0  0  0  0  0  0  0
    9.7799  -16.0819   22.6727 C   0  0  0  0  0  0  0  0  0  0  0  0
   10.7069  -15.2766   22.9090 O   0  0  0  0  0  0  0  0  0  0  0  0
   10.2155  -19.7276   21.3439 O   0  0  0  0  0  0  0  0  0  0  0  0
   11.4441  -19.2894   21.8279 C   0  0  0  0  0  0  0  0  0  0  0  0
   11.4376  -17.7676   21.7980 C   0  0  2  0  0  0  0  0  0  0  0  0
   10.1019  -17.3398   22.1453 N   0  0  0  0  0  0  0  0  0  0  0  0
   11.7983  -17.3732   20.4058 C   0  0  0  0  0  0  0  0  0  0  0  0
   10.9123  -16.8097   19.7147 O   0  0  0  0  0  0  0  0  0  0  0  0
   13.0710  -17.6460   19.9587 O   0  0  0  0  0  0  0  0  0  0  0  0
  2  1  1  0
  2  3  1  0
  3  4  1  6
  5  3  1  0
  5  7  1  0
  5  6  1  1
  7  8  2  0
 10  9  1  1
 10 12  1  0
 10 11  1  0
 12 13  1  1
 13  7  1  0
 14 12  1  0
 14 15  2  0
 16 17  1  0
 18 17  1  6
 18 19  1  0
 18 20  1  0
 19 14  1  0
 20 21  2  0
 20 22  1  0
M  END
$$$$
