IVS.pdb
     RDKit          3D

 22 21  0  0  1  0  0  0  0  0999 V2000
    6.3292  -22.3616   25.1978 C   0  0  0  0  0  0  0  0  0  0  0  0
    5.6156  -21.0837   24.9165 C   0  0  0  0  0  0  0  0  0  0  0  0
    6.5222  -19.9071   24.6193 C   0  0  2  0  0  0  0  0  0  0  0  0
    7.4174  -19.7448   25.8540 C   0  0  0  0  0  0  0  0  0  0  0  0
    5.6654  -18.6760   24.4002 C   0  0  2  0  0  0  0  0  0  0  0  0
    4.8863  -18.8479   23.1566 N   0  0  0  0  0  0  0  0  0  0  0  0
    6.4533  -17.4319   24.2423 C   0  0  0  0  0  0  0  0  0  0  0  0
    7.0441  -17.1878   23.1268 O   0  0  0  0  0  0  0  0  0  0  0  0
    5.7791  -13.8553   25.8249 C   0  0  0  0  0  0  0  0  0  0  0  0
    7.1985  -14.2924   26.0700 C   0  0  2  0  0  0  0  0  0  0  0  0
    8.1183  -13.1025   25.8773 C   0  0  0  0  0  0  0  0  0  0  0  0
    7.5817  -15.3368   25.0679 C   0  0  2  0  0  0  0  0  0  0  0  0
    6.6257  -16.4491   25.2316 N   0  0  0  0  0  0  0  0  0  0  0  0
    8.9651  -15.8174   25.2048 C   0  0  0  0  0  0  0  0  0  0  0  0
    9.3283  -16.2935   26.3026 O   0  0  0  0  0  0  0  0  0  0  0  0
   11.3409  -15.7669   21.9139 O   0  0  0  0  0  0  0  0  0  0  0  0
   11.4930  -16.8596   22.7616 C   0  0  0  0  0  0  0  0  0  0  0  0
   11.1951  -16.3910   24.1789 C   0  0  2  0  0  0  0  0  0  0  0  0
    9.8935  -15.7642   24.1563 N   0  0  0  0  0  0  0  0  0  0  0  0
   12.2689  -15.4191   24.5345 C   0  0  0  0  0  0  0  0  0  0  0  0
   11.9299  -14.2234   24.7223 O   0  0  0  0  0  0  0  0  0  0  0  0
   13.5610  -15.8820   24.6365 O   0  0  0  0  0  0  0  0  0  0  0  0
  2  1  1  0
  2  3  1  0
  3  4  1  1
  5  3  1  0
  5  7  1  0
  5  6  1  6
  7  8  2  0
 10  9  1  6
 10 12  1  0
 10 11  1  0
 12 13  1  1
 13  7  1  0
 14 12  1  0
 14 15  2  0
 16 17  1  0
 18 17  1  6
 18 19  1  0
 18 20  1  0
 19 14  1  0
 20 21  2  0
 20 22  1  0
M  END
$$$$
