IVS.pdb
     RDKit          3D

 22 21  0  0  1  0  0  0  0  0999 V2000
    8.3107  -12.5933   28.2008 C   0  0  0  0  0  0  0  0  0  0  0  0
    7.4254  -13.6381   27.6126 C   0  0  0  0  0  0  0  0  0  0  0  0
    7.1026  -13.4389   26.1461 C   0  0  2  0  0  0  0  0  0  0  0  0
    6.2173  -12.1885   26.0774 C   0  0  0  0  0  0  0  0  0  0  0  0
    6.3619  -14.6611   25.6407 C   0  0  2  0  0  0  0  0  0  0  0  0
    6.2221  -15.6299   26.7475 N   0  0  0  0  0  0  0  0  0  0  0  0
    7.0666  -15.3638   24.5440 C   0  0  0  0  0  0  0  0  0  0  0  0
    7.3897  -16.6006   24.6821 O   0  0  0  0  0  0  0  0  0  0  0  0
    6.5009  -14.8042   20.7079 C   0  0  0  0  0  0  0  0  0  0  0  0
    7.9778  -14.8521   20.9950 C   0  0  2  0  0  0  0  0  0  0  0  0
    8.6607  -15.6703   19.9164 C   0  0  0  0  0  0  0  0  0  0  0  0
    8.2117  -15.5345   22.3070 C   0  0  2  0  0  0  0  0  0  0  0  0
    7.4316  -14.7899   23.3145 N   0  0  0  0  0  0  0  0  0  0  0  0
    9.6277  -15.6085   22.6982 C   0  0  0  0  0  0  0  0  0  0  0  0
   10.0384  -14.8547   23.6075 O   0  0  0  0  0  0  0  0  0  0  0  0
   11.0312  -18.6404   23.6165 O   0  0  0  0  0  0  0  0  0  0  0  0
   11.7870  -17.4980   23.8607 C   0  0  0  0  0  0  0  0  0  0  0  0
   11.8855  -16.7204   22.5560 C   0  0  2  0  0  0  0  0  0  0  0  0
   10.5361  -16.4885   22.0945 N   0  0  0  0  0  0  0  0  0  0  0  0
   12.6512  -17.5823   21.6100 C   0  0  0  0  0  0  0  0  0  0  0  0
   12.0416  -18.0207   20.6018 O   0  0  0  0  0  0  0  0  0  0  0  0
   13.9720  -17.8477   21.8912 O   0  0  0  0  0  0  0  0  0  0  0  0
  2  1  1  0
  2  3  1  0
  3  4  1  1
  5  3  1  0
  5  7  1  0
  5  6  1  1
  7  8  2  0
 10  9  1  6
 10 12  1  0
 10 11  1  0
 12 13  1  1
 13  7  1  0
 14 12  1  0
 14 15  2  0
 16 17  1  0
 18 17  1  1
 18 19  1  0
 18 20  1  0
 19 14  1  0
 20 21  2  0
 20 22  1  0
M  END
$$$$
