IVS.pdb
     RDKit          3D

 22 21  0  0  1  0  0  0  0  0999 V2000
    6.4196  -11.2985   27.6770 C   0  0  0  0  0  0  0  0  0  0  0  0
    5.8620  -12.4746   26.9510 C   0  0  0  0  0  0  0  0  0  0  0  0
    6.8980  -13.3440   26.2686 C   0  0  2  0  0  0  0  0  0  0  0  0
    7.7659  -12.3897   25.4391 C   0  0  0  0  0  0  0  0  0  0  0  0
    6.1849  -14.3447   25.3809 C   0  0  2  0  0  0  0  0  0  0  0  0
    5.4621  -15.3123   26.2321 N   0  0  0  0  0  0  0  0  0  0  0  0
    7.1033  -15.1306   24.5253 C   0  0  0  0  0  0  0  0  0  0  0  0
    7.6220  -16.2174   24.9756 O   0  0  0  0  0  0  0  0  0  0  0  0
    6.9059  -14.9412   20.5409 C   0  0  0  0  0  0  0  0  0  0  0  0
    8.3264  -15.1128   21.0089 C   0  0  2  0  0  0  0  0  0  0  0  0
    9.0257  -16.1045   20.0998 C   0  0  0  0  0  0  0  0  0  0  0  0
    8.3327  -15.6768   22.3958 C   0  0  2  0  0  0  0  0  0  0  0  0
    7.4791  -14.7937   23.2140 N   0  0  0  0  0  0  0  0  0  0  0  0
    9.6744  -15.7945   22.9870 C   0  0  0  0  0  0  0  0  0  0  0  0
   10.2672  -14.7516   23.3404 O   0  0  0  0  0  0  0  0  0  0  0  0
   10.7268  -19.2440   24.3512 O   0  0  0  0  0  0  0  0  0  0  0  0
   11.5940  -18.2440   24.7800 C   0  0  0  0  0  0  0  0  0  0  0  0
   11.6563  -17.1856   23.6880 C   0  0  2  0  0  0  0  0  0  0  0  0
   10.3165  -17.0265   23.1710 N   0  0  0  0  0  0  0  0  0  0  0  0
   12.5897  -17.7084   22.6489 C   0  0  0  0  0  0  0  0  0  0  0  0
   12.0909  -18.0864   21.5588 O   0  0  0  0  0  0  0  0  0  0  0  0
   13.9344  -17.7474   22.9393 O   0  0  0  0  0  0  0  0  0  0  0  0
  2  1  1  0
  2  3  1  0
  3  4  1  6
  5  3  1  0
  5  7  1  0
  5  6  1  1
  7  8  2  0
 10  9  1  6
 10 12  1  0
 10 11  1  0
 12 13  1  1
 13  7  1  0
 14 12  1  0
 14 15  2  0
 16 17  1  0
 18 17  1  1
 18 19  1  0
 18 20  1  0
 19 14  1  0
 20 21  2  0
 20 22  1  0
M  END
$$$$
