IVS.pdb
     RDKit          3D

 22 21  0  0  1  0  0  0  0  0999 V2000
    6.4937  -10.8147   27.7397 C   0  0  0  0  0  0  0  0  0  0  0  0
    5.8787  -11.8924   26.9141 C   0  0  0  0  0  0  0  0  0  0  0  0
    6.8639  -12.8964   26.3519 C   0  0  2  0  0  0  0  0  0  0  0  0
    7.8684  -12.0821   25.5274 C   0  0  0  0  0  0  0  0  0  0  0  0
    6.1108  -13.8804   25.4787 C   0  0  2  0  0  0  0  0  0  0  0  0
    5.2668  -14.7367   26.3375 N   0  0  0  0  0  0  0  0  0  0  0  0
    6.9983  -14.7856   24.7130 C   0  0  0  0  0  0  0  0  0  0  0  0
    7.3808  -15.8965   25.2352 O   0  0  0  0  0  0  0  0  0  0  0  0
    6.8664  -15.1117   20.7459 C   0  0  0  0  0  0  0  0  0  0  0  0
    8.2848  -15.1275   21.2497 C   0  0  2  0  0  0  0  0  0  0  0  0
    9.0719  -16.1601   20.4665 C   0  0  0  0  0  0  0  0  0  0  0  0
    8.3006  -15.5333   22.6908 C   0  0  2  0  0  0  0  0  0  0  0  0
    7.4833  -14.5420   23.4170 N   0  0  0  0  0  0  0  0  0  0  0  0
    9.6487  -15.6202   23.2725 C   0  0  0  0  0  0  0  0  0  0  0  0
   10.3203  -14.5717   23.3883 O   0  0  0  0  0  0  0  0  0  0  0  0
   10.7122  -19.1339   24.5733 O   0  0  0  0  0  0  0  0  0  0  0  0
   11.6109  -18.1966   25.0729 C   0  0  0  0  0  0  0  0  0  0  0  0
   11.5769  -16.9855   24.1515 C   0  0  2  0  0  0  0  0  0  0  0  0
   10.2124  -16.8291   23.7027 N   0  0  0  0  0  0  0  0  0  0  0  0
   12.4978  -17.2930   23.0194 C   0  0  0  0  0  0  0  0  0  0  0  0
   11.9830  -17.4838   21.8886 O   0  0  0  0  0  0  0  0  0  0  0  0
   13.8491  -17.3501   23.2738 O   0  0  0  0  0  0  0  0  0  0  0  0
  2  1  1  0
  2  3  1  0
  3  4  1  6
  5  3  1  0
  5  7  1  0
  5  6  1  1
  7  8  2  0
 10  9  1  6
 10 12  1  0
 10 11  1  0
 12 13  1  1
 13  7  1  0
 14 12  1  0
 14 15  2  0
 16 17  1  0
 18 17  1  1
 18 19  1  0
 18 20  1  0
 19 14  1  0
 20 21  2  0
 20 22  1  0
M  END
$$$$
