SEG.pdb
     RDKit          3D

 20 19  0  0  1  0  0  0  0  0999 V2000
   24.9944  -29.0988  -17.7522 O   0  0  0  0  0  0  0  0  0  0  0  0
   25.8759  -30.0104  -17.1868 C   0  0  0  0  0  0  0  0  0  0  0  0
   27.3128  -29.5620  -17.3113 C   0  0  2  0  0  0  0  0  0  0  0  0
   28.2319  -30.4946  -16.7370 N   0  0  0  0  0  0  0  0  0  0  0  0
   27.5406  -28.2062  -16.8106 C   0  0  0  0  0  0  0  0  0  0  0  0
   27.7904  -27.9297  -15.6057 O   0  0  0  0  0  0  0  0  0  0  0  0
   27.4792  -27.1269  -17.7281 N   0  0  0  0  0  0  0  0  0  0  0  0
   27.6452  -25.7131  -17.2991 C   0  0  1  0  0  0  0  0  0  0  0  0
   28.8774  -25.1774  -17.9344 C   0  0  0  0  0  0  0  0  0  0  0  0
   29.8582  -24.5694  -17.0291 C   0  0  0  0  0  0  0  0  0  0  0  0
   31.0546  -23.9891  -17.6386 C   0  0  0  0  0  0  0  0  0  0  0  0
   30.9641  -22.9075  -18.2648 O   0  0  0  0  0  0  0  0  0  0  0  0
   26.3781  -25.0416  -17.5467 C   0  0  0  0  0  0  0  0  0  0  0  0
   25.6000  -25.5284  -18.4421 O   0  0  0  0  0  0  0  0  0  0  0  0
   32.3192  -24.5648  -17.5688 O   0  0  0  0  0  0  0  0  0  0  0  0
   25.8783  -23.8883  -16.8969 N   0  0  0  0  0  0  0  0  0  0  0  0
   24.6223  -23.2609  -17.2491 C   0  0  0  0  0  0  0  0  0  0  0  0
   24.3743  -22.0367  -16.4602 C   0  0  0  0  0  0  0  0  0  0  0  0
   23.2579  -21.2829  -16.7834 O   0  0  0  0  0  0  0  0  0  0  0  0
   25.1020  -21.6370  -15.5237 O   0  0  0  0  0  0  0  0  0  0  0  0
  2  1  1  0
  3  2  1  0
  3  4  1  1
  5  3  1  0
  5  6  2  0
  7  5  1  0
  8  7  1  0
  8  9  1  6
 10  9  1  0
 11 10  1  0
 12 11  2  0
 13  8  1  0
 13 16  1  0
 14 13  2  0
 15 11  1  0
 17 16  1  0
 18 17  1  0
 19 18  1  0
 20 18  2  0
M  END
$$$$
