SEG.pdb
     RDKit          3D

 20 19  0  0  1  0  0  0  0  0999 V2000
   20.9981  -10.2216  -13.7734 O   0  0  0  0  0  0  0  0  0  0  0  0
   21.0074  -10.5176  -15.1299 C   0  0  0  0  0  0  0  0  0  0  0  0
   22.2889  -10.0779  -15.7975 C   0  0  2  0  0  0  0  0  0  0  0  0
   23.4501  -10.6495  -15.1898 N   0  0  0  0  0  0  0  0  0  0  0  0
   22.4076   -8.6248  -15.9204 C   0  0  0  0  0  0  0  0  0  0  0  0
   23.3822   -7.9549  -15.4823 O   0  0  0  0  0  0  0  0  0  0  0  0
   21.3675   -7.9137  -16.5710 N   0  0  0  0  0  0  0  0  0  0  0  0
   21.4515   -6.4527  -16.8330 C   0  0  1  0  0  0  0  0  0  0  0  0
   20.6018   -6.1436  -18.0126 C   0  0  0  0  0  0  0  0  0  0  0  0
   20.9331   -6.8560  -19.2511 C   0  0  0  0  0  0  0  0  0  0  0  0
   20.0909   -7.9979  -19.6064 C   0  0  0  0  0  0  0  0  0  0  0  0
   20.5897   -9.1472  -19.6314 O   0  0  0  0  0  0  0  0  0  0  0  0
   21.1773   -5.7777  -15.5733 C   0  0  0  0  0  0  0  0  0  0  0  0
   20.5255   -6.4174  -14.6733 O   0  0  0  0  0  0  0  0  0  0  0  0
   18.7400   -7.8979  -19.9241 O   0  0  0  0  0  0  0  0  0  0  0  0
   21.5592   -4.4666  -15.2028 N   0  0  0  0  0  0  0  0  0  0  0  0
   21.2922   -3.9016  -13.8972 C   0  0  0  0  0  0  0  0  0  0  0  0
   21.8955   -2.5622  -13.7394 C   0  0  0  0  0  0  0  0  0  0  0  0
   21.6885   -1.9053  -12.5375 O   0  0  0  0  0  0  0  0  0  0  0  0
   22.5778   -1.9842  -14.6149 O   0  0  0  0  0  0  0  0  0  0  0  0
  2  1  1  0
  3  2  1  0
  3  4  1  1
  5  3  1  0
  5  6  2  0
  7  5  1  0
  8  7  1  0
  8  9  1  6
 10  9  1  0
 11 10  1  0
 12 11  2  0
 13  8  1  0
 13 16  1  0
 14 13  2  0
 15 11  1  0
 17 16  1  0
 18 17  1  0
 19 18  1  0
 20 18  2  0
M  END
$$$$
