SEG.pdb
     RDKit          3D

 20 19  0  0  1  0  0  0  0  0999 V2000
   27.0432  -11.2216  -15.5193 O   0  0  0  0  0  0  0  0  0  0  0  0
   26.2009  -10.1230  -15.6265 C   0  0  0  0  0  0  0  0  0  0  0  0
   25.1374  -10.3245  -16.6799 C   0  0  2  0  0  0  0  0  0  0  0  0
   25.6863  -10.5192  -17.9857 N   0  0  0  0  0  0  0  0  0  0  0  0
   24.1159   -9.2770  -16.6777 C   0  0  0  0  0  0  0  0  0  0  0  0
   24.2434   -8.1633  -17.2557 O   0  0  0  0  0  0  0  0  0  0  0  0
   22.9019   -9.5173  -15.9855 N   0  0  0  0  0  0  0  0  0  0  0  0
   21.7898   -8.5307  -15.9725 C   0  0  1  0  0  0  0  0  0  0  0  0
   20.5188   -9.2678  -15.7483 C   0  0  0  0  0  0  0  0  0  0  0  0
   19.2972   -8.4564  -15.7281 C   0  0  0  0  0  0  0  0  0  0  0  0
   18.0500   -9.1239  -16.1004 C   0  0  0  0  0  0  0  0  0  0  0  0
   17.4190   -9.7766  -15.2366 O   0  0  0  0  0  0  0  0  0  0  0  0
   22.1653   -7.4780  -15.0407 C   0  0  0  0  0  0  0  0  0  0  0  0
   22.9049   -7.7903  -14.0408 O   0  0  0  0  0  0  0  0  0  0  0  0
   17.4978   -9.0830  -17.3767 O   0  0  0  0  0  0  0  0  0  0  0  0
   21.8127   -6.1093  -15.1067 N   0  0  0  0  0  0  0  0  0  0  0  0
   22.2124   -5.1381  -14.1106 C   0  0  0  0  0  0  0  0  0  0  0  0
   21.7590   -3.7744  -14.4533 C   0  0  0  0  0  0  0  0  0  0  0  0
   20.5334   -3.3639  -13.9550 O   0  0  0  0  0  0  0  0  0  0  0  0
   22.4052   -2.9690  -15.1605 O   0  0  0  0  0  0  0  0  0  0  0  0
  2  1  1  0
  3  2  1  0
  3  4  1  6
  5  3  1  0
  5  6  2  0
  7  5  1  0
  8  7  1  0
  8  9  1  1
 10  9  1  0
 11 10  1  0
 12 11  2  0
 13  8  1  0
 13 16  1  0
 14 13  2  0
 15 11  1  0
 17 16  1  0
 18 17  1  0
 19 18  1  0
 20 18  2  0
M  END
$$$$
