SEG.pdb
     RDKit          3D

 20 19  0  0  1  0  0  0  0  0999 V2000
   13.9794  -10.9003  -12.0162 O   0  0  0  0  0  0  0  0  0  0  0  0
   14.6838   -9.7044  -11.9775 C   0  0  0  0  0  0  0  0  0  0  0  0
   16.1363   -9.9131  -11.6198 C   0  0  2  0  0  0  0  0  0  0  0  0
   16.3037  -10.5972  -10.3755 N   0  0  0  0  0  0  0  0  0  0  0  0
   16.9256   -8.6820  -11.6660 C   0  0  0  0  0  0  0  0  0  0  0  0
   17.0632   -7.8929  -10.6918 O   0  0  0  0  0  0  0  0  0  0  0  0
   17.5818   -8.3440  -12.8767 N   0  0  0  0  0  0  0  0  0  0  0  0
   18.4590   -7.1495  -12.9946 C   0  0  1  0  0  0  0  0  0  0  0  0
   19.8323   -7.6134  -13.3228 C   0  0  0  0  0  0  0  0  0  0  0  0
   20.8413   -6.5647  -13.5056 C   0  0  0  0  0  0  0  0  0  0  0  0
   22.2031   -6.9997  -13.8153 C   0  0  0  0  0  0  0  0  0  0  0  0
   23.0920   -6.1410  -14.0224 O   0  0  0  0  0  0  0  0  0  0  0  0
   17.7959   -6.2218  -13.8986 C   0  0  0  0  0  0  0  0  0  0  0  0
   17.3263   -6.6812  -14.9997 O   0  0  0  0  0  0  0  0  0  0  0  0
   22.5936   -8.3327  -13.8957 O   0  0  0  0  0  0  0  0  0  0  0  0
   17.5907   -4.8353  -13.7046 N   0  0  0  0  0  0  0  0  0  0  0  0
   17.0484   -3.9632  -14.7246 C   0  0  0  0  0  0  0  0  0  0  0  0
   16.8231   -2.5932  -14.2196 C   0  0  0  0  0  0  0  0  0  0  0  0
   16.4196   -1.6332  -15.1331 O   0  0  0  0  0  0  0  0  0  0  0  0
   16.9718   -2.2437  -13.0271 O   0  0  0  0  0  0  0  0  0  0  0  0
  2  1  1  0
  3  2  1  0
  3  4  1  1
  5  3  1  0
  5  6  2  0
  7  5  1  0
  8  7  1  0
  8  9  1  6
 10  9  1  0
 11 10  1  0
 12 11  2  0
 13  8  1  0
 13 16  1  0
 14 13  2  0
 15 11  1  0
 17 16  1  0
 18 17  1  0
 19 18  1  0
 20 18  2  0
M  END
$$$$
