QVR.pdb
     RDKit          3D

 28 27  0  0  1  0  0  0  0  0999 V2000
   30.0460  -23.5957  -16.5056 N   0  0  0  0  0  0  0  0  0  0  0  0
   29.8054  -22.4244  -17.3237 C   0  0  0  0  0  0  0  0  0  0  0  0
   30.6089  -22.1281  -18.2035 O   0  0  0  0  0  0  0  0  0  0  0  0
   28.5994  -21.6429  -17.0500 C   0  0  0  0  0  0  0  0  0  0  0  0
   27.7647  -22.1000  -15.8970 C   0  0  0  0  0  0  0  0  0  0  0  0
   26.3128  -22.1757  -16.0781 C   0  0  2  0  0  0  0  0  0  0  0  0
   25.9741  -22.1283  -17.5012 N   0  0  0  0  0  0  0  0  0  0  0  0
   25.3553  -21.4413  -15.2786 C   0  0  0  0  0  0  0  0  0  0  0  0
   25.4768  -21.3647  -13.9888 O   0  0  0  0  0  0  0  0  0  0  0  0
   24.3286  -17.7143  -15.5551 C   0  0  0  0  0  0  0  0  0  0  0  0
   23.0842  -18.5695  -15.5815 C   0  0  2  0  0  0  0  0  0  0  0  0
   21.9920  -17.7563  -14.9457 C   0  0  0  0  0  0  0  0  0  0  0  0
   23.2658  -19.9486  -15.0626 C   0  0  2  0  0  0  0  0  0  0  0  0
   24.2272  -20.7634  -15.7729 N   0  0  0  0  0  0  0  0  0  0  0  0
   22.0130  -20.6775  -14.8310 C   0  0  0  0  0  0  0  0  0  0  0  0
   21.3908  -21.2729  -15.7673 O   0  0  0  0  0  0  0  0  0  0  0  0
   18.8951  -24.8678   -7.5602 N   0  0  0  0  0  0  0  0  0  0  0  0
   17.8770  -24.8106   -8.5419 C   0  0  0  0  0  0  0  0  0  0  0  0
   16.7403  -25.4076   -8.3584 N   0  0  0  0  0  0  0  0  0  0  0  0
   18.0303  -24.1097   -9.7703 N   0  0  0  0  0  0  0  0  0  0  0  0
   19.2604  -23.4100  -10.0852 C   0  0  0  0  0  0  0  0  0  0  0  0
   19.0990  -22.8439  -11.4969 C   0  0  0  0  0  0  0  0  0  0  0  0
   20.3103  -22.0949  -11.9353 C   0  0  0  0  0  0  0  0  0  0  0  0
   20.1672  -21.5012  -13.3354 C   0  0  2  0  0  0  0  0  0  0  0  0
   21.4183  -20.7750  -13.5542 N   0  0  0  0  0  0  0  0  0  0  0  0
   19.0072  -20.6347  -13.4932 C   0  0  0  0  0  0  0  0  0  0  0  0
   17.7716  -21.1420  -13.9134 O   0  0  0  0  0  0  0  0  0  0  0  0
   19.0215  -19.3920  -13.2702 O   0  0  0  0  0  0  0  0  0  0  0  0
  2  1  1  0
  2  4  1  0
  3  2  2  0
  5  4  1  0
  6  5  1  0
  6  7  1  6
  8  9  2  0
  8  6  1  0
 11 10  1  1
 11 13  1  0
 12 11  1  0
 13 14  1  6
 13 15  1  0
 14  8  1  0
 15 16  2  0
 15 25  1  0
 17 18  1  0
 18 20  1  0
 18 19  2  0
 20 21  1  0
 21 22  1  0
 23 22  1  0
 24 23  1  1
 24 26  1  0
 25 24  1  0
 26 28  2  0
 26 27  1  0
M  END
$$$$
