QVR.pdb
     RDKit          3D

 28 27  0  0  1  0  0  0  0  0999 V2000
   23.8570  -23.4038  -16.8169 N   0  0  0  0  0  0  0  0  0  0  0  0
   23.7836  -24.8248  -16.5439 C   0  0  0  0  0  0  0  0  0  0  0  0
   23.0804  -25.5394  -17.2526 O   0  0  0  0  0  0  0  0  0  0  0  0
   24.5619  -25.3393  -15.4172 C   0  0  0  0  0  0  0  0  0  0  0  0
   25.2962  -24.3224  -14.6036 C   0  0  0  0  0  0  0  0  0  0  0  0
   24.9912  -22.9063  -14.8226 C   0  0  2  0  0  0  0  0  0  0  0  0
   26.2241  -22.1468  -15.0348 N   0  0  0  0  0  0  0  0  0  0  0  0
   24.0293  -22.1532  -14.0460 C   0  0  0  0  0  0  0  0  0  0  0  0
   24.3932  -21.4794  -12.9982 O   0  0  0  0  0  0  0  0  0  0  0  0
   22.4447  -19.0496  -14.5759 C   0  0  0  0  0  0  0  0  0  0  0  0
   21.2890  -19.9971  -14.3581 C   0  0  2  0  0  0  0  0  0  0  0  0
   20.1804  -19.1872  -13.7469 C   0  0  0  0  0  0  0  0  0  0  0  0
   21.6426  -21.2602  -13.6627 C   0  0  2  0  0  0  0  0  0  0  0  0
   22.6510  -22.0705  -14.3103 N   0  0  0  0  0  0  0  0  0  0  0  0
   20.4880  -22.0685  -13.2525 C   0  0  0  0  0  0  0  0  0  0  0  0
   19.7410  -22.6614  -14.0943 O   0  0  0  0  0  0  0  0  0  0  0  0
   18.1047  -25.3284   -5.1591 N   0  0  0  0  0  0  0  0  0  0  0  0
   17.0929  -25.5976   -6.1116 C   0  0  0  0  0  0  0  0  0  0  0  0
   16.0178  -26.2417   -5.7775 N   0  0  0  0  0  0  0  0  0  0  0  0
   17.1866  -25.1891   -7.4710 N   0  0  0  0  0  0  0  0  0  0  0  0
   18.3496  -24.4750   -7.9601 C   0  0  0  0  0  0  0  0  0  0  0  0
   18.0626  -24.1059   -9.4164 C   0  0  0  0  0  0  0  0  0  0  0  0
   19.1964  -23.3611  -10.0331 C   0  0  0  0  0  0  0  0  0  0  0  0
   18.9542  -23.0203  -11.5023 C   0  0  2  0  0  0  0  0  0  0  0  0
   20.1332  -22.2499  -11.8981 N   0  0  0  0  0  0  0  0  0  0  0  0
   17.7226  -22.2805  -11.7412 C   0  0  0  0  0  0  0  0  0  0  0  0
   16.5821  -22.9114  -12.2527 O   0  0  0  0  0  0  0  0  0  0  0  0
   17.5877  -21.0460  -11.5128 O   0  0  0  0  0  0  0  0  0  0  0  0
  2  1  1  0
  2  4  1  0
  3  2  2  0
  5  4  1  0
  6  5  1  0
  6  7  1  1
  8  9  2  0
  8  6  1  0
 11 10  1  1
 11 13  1  0
 12 11  1  0
 13 14  1  6
 13 15  1  0
 14  8  1  0
 15 16  2  0
 15 25  1  0
 17 18  1  0
 18 20  1  0
 18 19  2  0
 20 21  1  0
 21 22  1  0
 23 22  1  0
 24 23  1  1
 24 26  1  0
 25 24  1  0
 26 28  2  0
 26 27  1  0
M  END
$$$$
