QVR.pdb
     RDKit          3D

 28 27  0  0  1  0  0  0  0  0999 V2000
   19.4965  -24.1009   -6.2144 N   0  0  0  0  0  0  0  0  0  0  0  0
   18.1101  -24.5214   -6.2281 C   0  0  0  0  0  0  0  0  0  0  0  0
   17.4425  -24.4311   -5.2017 O   0  0  0  0  0  0  0  0  0  0  0  0
   17.5727  -25.0428   -7.4848 C   0  0  0  0  0  0  0  0  0  0  0  0
   18.5043  -25.0360   -8.6540 C   0  0  0  0  0  0  0  0  0  0  0  0
   18.0696  -25.6882   -9.8918 C   0  0  2  0  0  0  0  0  0  0  0  0
   18.0130  -27.1394   -9.7098 N   0  0  0  0  0  0  0  0  0  0  0  0
   18.5548  -25.3357  -11.2093 C   0  0  0  0  0  0  0  0  0  0  0  0
   19.4073  -26.0888  -11.8340 O   0  0  0  0  0  0  0  0  0  0  0  0
   16.7918  -24.8366  -14.5894 C   0  0  0  0  0  0  0  0  0  0  0  0
   17.5585  -23.5791  -14.2552 C   0  0  2  0  0  0  0  0  0  0  0  0
   17.9722  -22.9689  -15.5648 C   0  0  0  0  0  0  0  0  0  0  0  0
   18.6297  -23.7541  -13.2424 C   0  0  2  0  0  0  0  0  0  0  0  0
   18.1899  -24.1878  -11.9342 N   0  0  0  0  0  0  0  0  0  0  0  0
   19.5621  -22.6244  -13.1468 C   0  0  0  0  0  0  0  0  0  0  0  0
   19.2342  -21.5167  -12.6141 O   0  0  0  0  0  0  0  0  0  0  0  0
   27.7294  -20.9596  -15.6437 N   0  0  0  0  0  0  0  0  0  0  0  0
   26.7216  -21.8886  -15.9969 C   0  0  0  0  0  0  0  0  0  0  0  0
   26.6569  -22.3775  -17.1964 N   0  0  0  0  0  0  0  0  0  0  0  0
   25.7323  -22.3377  -15.0785 N   0  0  0  0  0  0  0  0  0  0  0  0
   25.6652  -21.8074  -13.7310 C   0  0  0  0  0  0  0  0  0  0  0  0
   24.2860  -21.1645  -13.5762 C   0  0  0  0  0  0  0  0  0  0  0  0
   23.1943  -22.1778  -13.6186 C   0  0  0  0  0  0  0  0  0  0  0  0
   21.8018  -21.5542  -13.5471 C   0  0  2  0  0  0  0  0  0  0  0  0
   20.8866  -22.6924  -13.6309 N   0  0  0  0  0  0  0  0  0  0  0  0
   21.5396  -20.5745  -14.5924 C   0  0  0  0  0  0  0  0  0  0  0  0
   21.6347  -19.2001  -14.3423 O   0  0  0  0  0  0  0  0  0  0  0  0
   21.2147  -20.8766  -15.7746 O   0  0  0  0  0  0  0  0  0  0  0  0
  2  1  1  0
  2  4  1  0
  3  2  2  0
  5  4  1  0
  6  5  1  0
  6  7  1  1
  8  9  2  0
  8  6  1  0
 11 10  1  6
 11 13  1  0
 12 11  1  0
 13 14  1  1
 13 15  1  0
 14  8  1  0
 15 16  2  0
 15 25  1  0
 17 18  1  0
 18 20  1  0
 18 19  2  0
 20 21  1  0
 21 22  1  0
 23 22  1  0
 24 23  1  6
 24 26  1  0
 25 24  1  0
 26 28  2  0
 26 27  1  0
M  END
$$$$
