QVR.pdb
     RDKit          3D

 28 27  0  0  1  0  0  0  0  0999 V2000
   29.7000  -20.8126  -18.2166 N   0  0  0  0  0  0  0  0  0  0  0  0
   29.4306  -19.4307  -17.8748 C   0  0  0  0  0  0  0  0  0  0  0  0
   30.2212  -18.5583  -18.2233 O   0  0  0  0  0  0  0  0  0  0  0  0
   28.2123  -19.1454  -17.1170 C   0  0  0  0  0  0  0  0  0  0  0  0
   27.3426  -20.3193  -16.7997 C   0  0  0  0  0  0  0  0  0  0  0  0
   27.6398  -21.0977  -15.5946 C   0  0  2  0  0  0  0  0  0  0  0  0
   28.5676  -22.1856  -15.9071 N   0  0  0  0  0  0  0  0  0  0  0  0
   26.6445  -21.5086  -14.6272 C   0  0  0  0  0  0  0  0  0  0  0  0
   25.9148  -22.5640  -14.8223 O   0  0  0  0  0  0  0  0  0  0  0  0
   27.2288  -21.2529  -10.5809 C   0  0  0  0  0  0  0  0  0  0  0  0
   25.8437  -20.8158  -10.9948 C   0  0  2  0  0  0  0  0  0  0  0  0
   24.9175  -21.2164   -9.8812 C   0  0  0  0  0  0  0  0  0  0  0  0
   25.4444  -21.2278  -12.3640 C   0  0  2  0  0  0  0  0  0  0  0  0
   26.3521  -20.8443  -13.4232 N   0  0  0  0  0  0  0  0  0  0  0  0
   24.0534  -20.9108  -12.7096 C   0  0  0  0  0  0  0  0  0  0  0  0
   23.6276  -19.7143  -12.7814 O   0  0  0  0  0  0  0  0  0  0  0  0
   18.6562  -25.6799  -17.0215 N   0  0  0  0  0  0  0  0  0  0  0  0
   18.7633  -25.9773  -15.6419 C   0  0  0  0  0  0  0  0  0  0  0  0
   18.6101  -27.1898  -15.2079 N   0  0  0  0  0  0  0  0  0  0  0  0
   19.0393  -24.9859  -14.6596 N   0  0  0  0  0  0  0  0  0  0  0  0
   19.1239  -23.5829  -15.0144 C   0  0  0  0  0  0  0  0  0  0  0  0
   19.5684  -22.8341  -13.7570 C   0  0  0  0  0  0  0  0  0  0  0  0
   21.0393  -22.9375  -13.5413 C   0  0  0  0  0  0  0  0  0  0  0  0
   21.6940  -21.5876  -13.2544 C   0  0  2  0  0  0  0  0  0  0  0  0
   23.0970  -21.9097  -12.9937 N   0  0  0  0  0  0  0  0  0  0  0  0
   21.0923  -20.8643  -12.1426 C   0  0  0  0  0  0  0  0  0  0  0  0
   20.1811  -19.8234  -12.3594 O   0  0  0  0  0  0  0  0  0  0  0  0
   21.3364  -21.1104  -10.9284 O   0  0  0  0  0  0  0  0  0  0  0  0
  2  1  1  0
  2  4  1  0
  3  2  2  0
  5  4  1  0
  6  5  1  0
  6  7  1  6
  8  9  2  0
  8  6  1  0
 11 10  1  1
 11 13  1  0
 12 11  1  0
 13 14  1  6
 13 15  1  0
 14  8  1  0
 15 16  2  0
 15 25  1  0
 17 18  1  0
 18 20  1  0
 18 19  2  0
 20 21  1  0
 21 22  1  0
 23 22  1  0
 24 23  1  1
 24 26  1  0
 25 24  1  0
 26 28  2  0
 26 27  1  0
M  END
$$$$
