QVR.pdb
     RDKit          3D

 28 27  0  0  1  0  0  0  0  0999 V2000
   16.9724  -24.8383   -5.8970 N   0  0  0  0  0  0  0  0  0  0  0  0
   17.4278  -25.9255   -6.7395 C   0  0  0  0  0  0  0  0  0  0  0  0
   17.1869  -27.0839   -6.4116 O   0  0  0  0  0  0  0  0  0  0  0  0
   18.1656  -25.5782   -7.9540 C   0  0  0  0  0  0  0  0  0  0  0  0
   18.3837  -24.1196   -8.1990 C   0  0  0  0  0  0  0  0  0  0  0  0
   19.7320  -23.5782   -8.0110 C   0  0  2  0  0  0  0  0  0  0  0  0
   20.1596  -23.7478   -6.6215 N   0  0  0  0  0  0  0  0  0  0  0  0
   20.1835  -22.3155   -8.5562 C   0  0  0  0  0  0  0  0  0  0  0  0
   19.7003  -21.1892   -8.1293 O   0  0  0  0  0  0  0  0  0  0  0  0
   24.0735  -21.4375  -10.3240 C   0  0  0  0  0  0  0  0  0  0  0  0
   22.9726  -20.5096   -9.8681 C   0  0  2  0  0  0  0  0  0  0  0  0
   23.2275  -20.2241   -8.4148 C   0  0  0  0  0  0  0  0  0  0  0  0
   21.6001  -20.9516  -10.2217 C   0  0  2  0  0  0  0  0  0  0  0  0
   21.1443  -22.1605   -9.5707 N   0  0  0  0  0  0  0  0  0  0  0  0
   21.3279  -20.9843  -11.6637 C   0  0  0  0  0  0  0  0  0  0  0  0
   21.3836  -22.0597  -12.3409 O   0  0  0  0  0  0  0  0  0  0  0  0
   16.2315  -15.7068  -16.8068 N   0  0  0  0  0  0  0  0  0  0  0  0
   17.0389  -16.5245  -17.6332 C   0  0  0  0  0  0  0  0  0  0  0  0
   16.9007  -16.5108  -18.9227 N   0  0  0  0  0  0  0  0  0  0  0  0
   18.0343  -17.3986  -17.1148 N   0  0  0  0  0  0  0  0  0  0  0  0
   18.2479  -17.5276  -15.6867 C   0  0  0  0  0  0  0  0  0  0  0  0
   19.3215  -18.5999  -15.4945 C   0  0  0  0  0  0  0  0  0  0  0  0
   19.6107  -18.8424  -14.0529 C   0  0  0  0  0  0  0  0  0  0  0  0
   20.7189  -19.8705  -13.8341 C   0  0  2  0  0  0  0  0  0  0  0  0
   20.9779  -19.8283  -12.3948 N   0  0  0  0  0  0  0  0  0  0  0  0
   21.9262  -19.6102  -14.6061 C   0  0  0  0  0  0  0  0  0  0  0  0
   22.0793  -20.1055  -15.9068 O   0  0  0  0  0  0  0  0  0  0  0  0
   22.9040  -18.9362  -14.1773 O   0  0  0  0  0  0  0  0  0  0  0  0
  2  1  1  0
  2  4  1  0
  3  2  2  0
  5  4  1  0
  6  5  1  0
  6  7  1  1
  8  9  2  0
  8  6  1  0
 11 10  1  1
 11 13  1  0
 12 11  1  0
 13 14  1  6
 13 15  1  0
 14  8  1  0
 15 16  2  0
 15 25  1  0
 17 18  1  0
 18 20  1  0
 18 19  2  0
 20 21  1  0
 21 22  1  0
 23 22  1  0
 24 23  1  1
 24 26  1  0
 25 24  1  0
 26 28  2  0
 26 27  1  0
M  END
$$$$
