QVR.pdb
     RDKit          3D

 28 27  0  0  1  0  0  0  0  0999 V2000
   25.8725  -26.7185  -16.2197 N   0  0  0  0  0  0  0  0  0  0  0  0
   26.2042  -26.5626  -17.6214 C   0  0  0  0  0  0  0  0  0  0  0  0
   26.4299  -27.5592  -18.3021 O   0  0  0  0  0  0  0  0  0  0  0  0
   26.2566  -25.2027  -18.1580 C   0  0  0  0  0  0  0  0  0  0  0  0
   25.8580  -24.1080  -17.2211 C   0  0  0  0  0  0  0  0  0  0  0  0
   26.8917  -23.1774  -16.7609 C   0  0  2  0  0  0  0  0  0  0  0  0
   27.9446  -23.8994  -16.0452 N   0  0  0  0  0  0  0  0  0  0  0  0
   26.6158  -21.8948  -16.1492 C   0  0  0  0  0  0  0  0  0  0  0  0
   26.3835  -21.7946  -14.8763 O   0  0  0  0  0  0  0  0  0  0  0  0
   28.7708  -18.6542  -16.2571 C   0  0  0  0  0  0  0  0  0  0  0  0
   27.3561  -18.3192  -16.6661 C   0  0  2  0  0  0  0  0  0  0  0  0
   27.0966  -16.9144  -16.1993 C   0  0  0  0  0  0  0  0  0  0  0  0
   26.3422  -19.3362  -16.2899 C   0  0  2  0  0  0  0  0  0  0  0  0
   26.5579  -20.6631  -16.8245 N   0  0  0  0  0  0  0  0  0  0  0  0
   24.9523  -18.9027  -16.4769 C   0  0  0  0  0  0  0  0  0  0  0  0
   24.4430  -18.7344  -17.6304 O   0  0  0  0  0  0  0  0  0  0  0  0
   17.9964  -20.7023  -12.7951 N   0  0  0  0  0  0  0  0  0  0  0  0
   18.5887  -19.6937  -11.9980 C   0  0  0  0  0  0  0  0  0  0  0  0
   18.3719  -19.6413  -10.7203 N   0  0  0  0  0  0  0  0  0  0  0  0
   19.4426  -18.6904  -12.5345 N   0  0  0  0  0  0  0  0  0  0  0  0
   19.7166  -18.6217  -13.9564 C   0  0  0  0  0  0  0  0  0  0  0  0
   20.7569  -17.5181  -14.1543 C   0  0  0  0  0  0  0  0  0  0  0  0
   22.1442  -18.0619  -14.1765 C   0  0  0  0  0  0  0  0  0  0  0  0
   22.7170  -18.1710  -15.5882 C   0  0  2  0  0  0  0  0  0  0  0  0
   24.0847  -18.6515  -15.3918 N   0  0  0  0  0  0  0  0  0  0  0  0
   22.6877  -16.9211  -16.3352 C   0  0  0  0  0  0  0  0  0  0  0  0
   21.6995  -16.6697  -17.2949 O   0  0  0  0  0  0  0  0  0  0  0  0
   23.5266  -15.9899  -16.1823 O   0  0  0  0  0  0  0  0  0  0  0  0
  2  1  1  0
  2  4  1  0
  3  2  2  0
  5  4  1  0
  6  5  1  0
  6  7  1  1
  8  9  2  0
  8  6  1  0
 11 10  1  1
 11 13  1  0
 12 11  1  0
 13 14  1  6
 13 15  1  0
 14  8  1  0
 15 16  2  0
 15 25  1  0
 17 18  1  0
 18 20  1  0
 18 19  2  0
 20 21  1  0
 21 22  1  0
 23 22  1  0
 24 23  1  1
 24 26  1  0
 25 24  1  0
 26 28  2  0
 26 27  1  0
M  END
$$$$
