QVR.pdb
     RDKit          3D

 28 27  0  0  1  0  0  0  0  0999 V2000
   19.0007  -20.5610  -14.1435 N   0  0  0  0  0  0  0  0  0  0  0  0
   19.2519  -19.2134  -13.6748 C   0  0  0  0  0  0  0  0  0  0  0  0
   18.3464  -18.5844  -13.1343 O   0  0  0  0  0  0  0  0  0  0  0  0
   20.5926  -18.6644  -13.8774 C   0  0  0  0  0  0  0  0  0  0  0  0
   21.5968  -19.5859  -14.4919 C   0  0  0  0  0  0  0  0  0  0  0  0
   22.8462  -19.8332  -13.7680 C   0  0  2  0  0  0  0  0  0  0  0  0
   23.9084  -20.2132  -14.7005 N   0  0  0  0  0  0  0  0  0  0  0  0
   22.9337  -20.5782  -12.5298 C   0  0  0  0  0  0  0  0  0  0  0  0
   23.0501  -21.8707  -12.5313 O   0  0  0  0  0  0  0  0  0  0  0  0
   25.3854  -20.0860   -9.5036 C   0  0  0  0  0  0  0  0  0  0  0  0
   23.9618  -20.1196   -9.0004 C   0  0  2  0  0  0  0  0  0  0  0  0
   24.0047  -20.7466   -7.6353 C   0  0  0  0  0  0  0  0  0  0  0  0
   22.9775  -20.6876   -9.9556 C   0  0  2  0  0  0  0  0  0  0  0  0
   22.8949  -20.0240  -11.2384 N   0  0  0  0  0  0  0  0  0  0  0  0
   21.6449  -20.9184   -9.3850 C   0  0  0  0  0  0  0  0  0  0  0  0
   20.8133  -19.9740   -9.1986 O   0  0  0  0  0  0  0  0  0  0  0  0
   15.4333  -26.4758  -11.4347 N   0  0  0  0  0  0  0  0  0  0  0  0
   15.5558  -26.4437  -10.0250 C   0  0  0  0  0  0  0  0  0  0  0  0
   14.9822  -27.3419   -9.2858 N   0  0  0  0  0  0  0  0  0  0  0  0
   16.3000  -25.4439   -9.3393 N   0  0  0  0  0  0  0  0  0  0  0  0
   16.9779  -24.3864  -10.0629 C   0  0  0  0  0  0  0  0  0  0  0  0
   17.7124  -23.5386   -9.0231 C   0  0  0  0  0  0  0  0  0  0  0  0
   19.0964  -23.2014   -9.4605 C   0  0  0  0  0  0  0  0  0  0  0  0
   19.8774  -22.4164   -8.4083 C   0  0  2  0  0  0  0  0  0  0  0  0
   21.1924  -22.2029   -9.0128 N   0  0  0  0  0  0  0  0  0  0  0  0
   19.9794  -23.0930   -7.1226 C   0  0  0  0  0  0  0  0  0  0  0  0
   18.9824  -22.9591   -6.1486 O   0  0  0  0  0  0  0  0  0  0  0  0
   20.9470  -23.8337   -6.7920 O   0  0  0  0  0  0  0  0  0  0  0  0
  2  1  1  0
  2  4  1  0
  3  2  2  0
  5  4  1  0
  6  5  1  0
  6  7  1  6
  8  9  2  0
  8  6  1  0
 11 10  1  6
 11 13  1  0
 12 11  1  0
 13 14  1  6
 13 15  1  0
 14  8  1  0
 15 16  2  0
 15 25  1  0
 17 18  1  0
 18 20  1  0
 18 19  2  0
 20 21  1  0
 21 22  1  0
 23 22  1  0
 24 23  1  6
 24 26  1  0
 25 24  1  0
 26 28  2  0
 26 27  1  0
M  END
$$$$
