QVR.pdb
     RDKit          3D

 28 27  0  0  1  0  0  0  0  0999 V2000
   26.0579  -19.1430   -8.0256 N   0  0  0  0  0  0  0  0  0  0  0  0
   26.9120  -20.2869   -7.7784 C   0  0  0  0  0  0  0  0  0  0  0  0
   27.3558  -20.4751   -6.6492 O   0  0  0  0  0  0  0  0  0  0  0  0
   27.2072  -21.1686   -8.9077 C   0  0  0  0  0  0  0  0  0  0  0  0
   26.6773  -20.7373  -10.2375 C   0  0  0  0  0  0  0  0  0  0  0  0
   27.0405  -21.5251  -11.4181 C   0  0  2  0  0  0  0  0  0  0  0  0
   28.4957  -21.5845  -11.5626 N   0  0  0  0  0  0  0  0  0  0  0  0
   26.3824  -21.4138  -12.7026 C   0  0  0  0  0  0  0  0  0  0  0  0
   27.0380  -21.0540  -13.7634 O   0  0  0  0  0  0  0  0  0  0  0  0
   23.1201  -23.8292  -14.0610 C   0  0  0  0  0  0  0  0  0  0  0  0
   24.0189  -22.9030  -14.8455 C   0  0  2  0  0  0  0  0  0  0  0  0
   25.2224  -23.7101  -15.2440 C   0  0  0  0  0  0  0  0  0  0  0  0
   24.2882  -21.5970  -14.1930 C   0  0  2  0  0  0  0  0  0  0  0  0
   25.0198  -21.6587  -12.9465 N   0  0  0  0  0  0  0  0  0  0  0  0
   23.1143  -20.7226  -14.0826 C   0  0  0  0  0  0  0  0  0  0  0  0
   22.3416  -20.7479  -13.0724 O   0  0  0  0  0  0  0  0  0  0  0  0
   22.1662  -12.9729  -15.3037 N   0  0  0  0  0  0  0  0  0  0  0  0
   22.0531  -13.5835  -16.5756 C   0  0  0  0  0  0  0  0  0  0  0  0
   22.3898  -12.9452  -17.6533 N   0  0  0  0  0  0  0  0  0  0  0  0
   21.5713  -14.9102  -16.7529 N   0  0  0  0  0  0  0  0  0  0  0  0
   20.9285  -15.6250  -15.6677 C   0  0  0  0  0  0  0  0  0  0  0  0
   20.5563  -17.0071  -16.2069 C   0  0  0  0  0  0  0  0  0  0  0  0
   21.7012  -17.9580  -16.1317 C   0  0  0  0  0  0  0  0  0  0  0  0
   21.5629  -18.9652  -14.9917 C   0  0  2  0  0  0  0  0  0  0  0  0
   22.7680  -19.7896  -15.0839 N   0  0  0  0  0  0  0  0  0  0  0  0
   20.3523  -19.7719  -15.0606 C   0  0  0  0  0  0  0  0  0  0  0  0
   19.2255  -19.4609  -14.2896 O   0  0  0  0  0  0  0  0  0  0  0  0
   20.2245  -20.7876  -15.7997 O   0  0  0  0  0  0  0  0  0  0  0  0
  2  1  1  0
  2  4  1  0
  3  2  2  0
  5  4  1  0
  6  5  1  0
  6  7  1  6
  8  9  2  0
  8  6  1  0
 11 10  1  1
 11 13  1  0
 12 11  1  0
 13 14  1  1
 13 15  1  0
 14  8  1  0
 15 16  2  0
 15 25  1  0
 17 18  1  0
 18 20  1  0
 18 19  2  0
 20 21  1  0
 21 22  1  0
 23 22  1  0
 24 23  1  6
 24 26  1  0
 25 24  1  0
 26 28  2  0
 26 27  1  0
M  END
$$$$
