QVR.pdb
     RDKit          3D

 28 27  0  0  1  0  0  0  0  0999 V2000
   26.4586  -27.5019  -16.6465 N   0  0  0  0  0  0  0  0  0  0  0  0
   27.7723  -27.3750  -17.2440 C   0  0  0  0  0  0  0  0  0  0  0  0
   28.3477  -28.3790  -17.6544 O   0  0  0  0  0  0  0  0  0  0  0  0
   28.3536  -26.0349  -17.3240 C   0  0  0  0  0  0  0  0  0  0  0  0
   27.5826  -24.9406  -16.6584 C   0  0  0  0  0  0  0  0  0  0  0  0
   28.0616  -23.5641  -16.8076 C   0  0  2  0  0  0  0  0  0  0  0  0
   29.5180  -23.5446  -16.9515 N   0  0  0  0  0  0  0  0  0  0  0  0
   27.5906  -22.4496  -16.0129 C   0  0  0  0  0  0  0  0  0  0  0  0
   27.8799  -22.3555  -14.7513 O   0  0  0  0  0  0  0  0  0  0  0  0
   28.2288  -18.8046  -15.8390 C   0  0  0  0  0  0  0  0  0  0  0  0
   26.7396  -18.9490  -16.0449 C   0  0  2  0  0  0  0  0  0  0  0  0
   26.0944  -17.7964  -15.3280 C   0  0  0  0  0  0  0  0  0  0  0  0
   26.1978  -20.2981  -15.7444 C   0  0  2  0  0  0  0  0  0  0  0  0
   26.7937  -21.3907  -16.4820 N   0  0  0  0  0  0  0  0  0  0  0  0
   24.7322  -20.3783  -15.7588 C   0  0  0  0  0  0  0  0  0  0  0  0
   24.0545  -20.2275  -16.8247 O   0  0  0  0  0  0  0  0  0  0  0  0
   18.9199  -24.0152   -9.8734 N   0  0  0  0  0  0  0  0  0  0  0  0
   18.2869  -23.6897  -11.0968 C   0  0  0  0  0  0  0  0  0  0  0  0
   17.0684  -24.0636  -11.3366 N   0  0  0  0  0  0  0  0  0  0  0  0
   18.9324  -22.9469  -12.1241 N   0  0  0  0  0  0  0  0  0  0  0  0
   20.3610  -22.7034  -12.0877 C   0  0  0  0  0  0  0  0  0  0  0  0
   20.6930  -21.8329  -13.3007 C   0  0  0  0  0  0  0  0  0  0  0  0
   22.1547  -21.5628  -13.4056 C   0  0  0  0  0  0  0  0  0  0  0  0
   22.5154  -20.7084  -14.6193 C   0  0  2  0  0  0  0  0  0  0  0  0
   23.9764  -20.6362  -14.5946 N   0  0  0  0  0  0  0  0  0  0  0  0
   21.9108  -19.3834  -14.6088 C   0  0  0  0  0  0  0  0  0  0  0  0
   20.7361  -19.1137  -15.3216 O   0  0  0  0  0  0  0  0  0  0  0  0
   22.3833  -18.3992  -13.9744 O   0  0  0  0  0  0  0  0  0  0  0  0
  2  1  1  0
  2  4  1  0
  3  2  2  0
  5  4  1  0
  6  5  1  0
  6  7  1  1
  8  9  2  0
  8  6  1  0
 11 10  1  1
 11 13  1  0
 12 11  1  0
 13 14  1  6
 13 15  1  0
 14  8  1  0
 15 16  2  0
 15 25  1  0
 17 18  1  0
 18 20  1  0
 18 19  2  0
 20 21  1  0
 21 22  1  0
 23 22  1  0
 24 23  1  1
 24 26  1  0
 25 24  1  0
 26 28  2  0
 26 27  1  0
M  END
$$$$
