FLN.pdb
     RDKit          3D

 28 28  0  0  1  0  0  0  0  0999 V2000
    9.3177  -17.4763   21.1120 N   0  0  0  0  0  0  0  0  0  0  0  0
    8.9669  -16.1959   21.6919 C   0  0  1  0  0  0  0  0  0  0  0  0
    7.4934  -15.8690   21.4254 C   0  0  0  0  0  0  0  0  0  0  0  0
    7.4443  -14.4556   21.0204 C   0  0  0  0  0  0  0  0  0  0  0  0
    7.1730  -13.5091   22.0081 C   0  0  0  0  0  0  0  0  0  0  0  0
    7.1249  -12.1871   21.6414 C   0  0  0  0  0  0  0  0  0  0  0  0
    7.3393  -11.8237   20.3383 C   0  0  0  0  0  0  0  0  0  0  0  0
    7.6091  -12.7797   19.3621 C   0  0  0  0  0  0  0  0  0  0  0  0
    7.6625  -14.1239   19.7120 C   0  0  0  0  0  0  0  0  0  0  0  0
    9.1304  -16.2010   23.1682 C   0  0  0  0  0  0  0  0  0  0  0  0
   10.1628  -16.6893   23.6656 O   0  0  0  0  0  0  0  0  0  0  0  0
    8.7936  -12.5936   26.5023 C   0  0  0  0  0  0  0  0  0  0  0  0
    7.4857  -13.0889   25.9026 C   0  0  2  0  0  0  0  0  0  0  0  0
    6.3551  -12.3159   26.5106 C   0  0  0  0  0  0  0  0  0  0  0  0
    7.3496  -14.5803   26.0494 C   0  0  0  0  0  0  0  0  0  0  0  0
    8.4181  -15.3763   25.4202 C   0  0  2  0  0  0  0  0  0  0  0  0
    8.1393  -15.6633   24.0120 N   0  0  0  0  0  0  0  0  0  0  0  0
    8.7346  -16.6820   26.0360 C   0  0  0  0  0  0  0  0  0  0  0  0
    7.7704  -17.4622   26.2435 O   0  0  0  0  0  0  0  0  0  0  0  0
   10.7156  -20.1882   24.4232 N   0  0  0  0  0  0  0  0  0  0  0  0
   11.5113  -19.1926   25.0992 C   0  0  0  0  0  0  0  0  0  0  0  0
   12.2264  -18.4781   24.3672 O   0  0  0  0  0  0  0  0  0  0  0  0
   11.4615  -19.0529   26.5560 C   0  0  0  0  0  0  0  0  0  0  0  0
   10.1651  -18.4492   26.9952 C   0  0  2  0  0  0  0  0  0  0  0  0
   10.0150  -17.1036   26.3984 N   0  0  0  0  0  0  0  0  0  0  0  0
   10.2534  -18.1704   28.4685 C   0  0  0  0  0  0  0  0  0  0  0  0
   10.0976  -19.0775   29.2994 O   0  0  0  0  0  0  0  0  0  0  0  0
   10.5143  -16.8759   28.9301 O   0  0  0  0  0  0  0  0  0  0  0  0
  2  1  1  1
  3  4  1  0
  3  2  1  0
  4  9  2  0
  5  4  1  0
  5  6  2  0
  6  7  1  0
  7  8  2  0
  9  8  1  0
 10  2  1  0
 11 10  2  0
 13 12  1  1
 14 13  1  0
 15 13  1  0
 16 17  1  0
 16 15  1  1
 17 10  1  0
 18 16  1  0
 19 18  2  0
 20 21  1  0
 21 22  2  0
 23 21  1  0
 24 23  1  6
 24 25  1  0
 25 18  1  0
 26 24  1  0
 26 28  1  0
 27 26  2  0
M  END
$$$$
