FLN.pdb
     RDKit          3D

 28 28  0  0  1  0  0  0  0  0999 V2000
    8.9615  -15.4269   25.8274 N   0  0  0  0  0  0  0  0  0  0  0  0
    7.7573  -16.1529   25.4789 C   0  0  1  0  0  0  0  0  0  0  0  0
    6.5488  -15.5857   26.2321 C   0  0  0  0  0  0  0  0  0  0  0  0
    6.8343  -14.1626   26.4714 C   0  0  0  0  0  0  0  0  0  0  0  0
    5.8010  -13.2509   26.2571 C   0  0  0  0  0  0  0  0  0  0  0  0
    6.0563  -11.9203   26.4774 C   0  0  0  0  0  0  0  0  0  0  0  0
    7.2961  -11.5150   26.8958 C   0  0  0  0  0  0  0  0  0  0  0  0
    8.3190  -12.4366   27.1059 C   0  0  0  0  0  0  0  0  0  0  0  0
    8.0817  -13.7888   26.8887 C   0  0  0  0  0  0  0  0  0  0  0  0
    7.4416  -16.0267   24.0330 C   0  0  0  0  0  0  0  0  0  0  0  0
    6.4098  -16.5622   23.5853 O   0  0  0  0  0  0  0  0  0  0  0  0
    7.3767  -12.7472   19.9538 C   0  0  0  0  0  0  0  0  0  0  0  0
    7.5878  -13.6695   21.1455 C   0  0  2  0  0  0  0  0  0  0  0  0
    8.1483  -12.8675   22.2805 C   0  0  0  0  0  0  0  0  0  0  0  0
    8.4280  -14.8603   20.7706 C   0  0  0  0  0  0  0  0  0  0  0  0
    8.6426  -15.8446   21.8458 C   0  0  2  0  0  0  0  0  0  0  0  0
    8.2881  -15.3128   23.1629 N   0  0  0  0  0  0  0  0  0  0  0  0
   10.0075  -16.3918   21.9933 C   0  0  0  0  0  0  0  0  0  0  0  0
   10.5101  -16.9479   20.9835 O   0  0  0  0  0  0  0  0  0  0  0  0
   13.4476  -15.9975   20.9714 N   0  0  0  0  0  0  0  0  0  0  0  0
   13.9146  -15.6238   22.2843 C   0  0  0  0  0  0  0  0  0  0  0  0
   14.9882  -14.9883   22.3199 O   0  0  0  0  0  0  0  0  0  0  0  0
   13.1536  -15.9824   23.4828 C   0  0  0  0  0  0  0  0  0  0  0  0
   12.0942  -16.9903   23.1667 C   0  0  2  0  0  0  0  0  0  0  0  0
   10.7680  -16.3341   23.1624 N   0  0  0  0  0  0  0  0  0  0  0  0
   12.0046  -17.9523   24.3168 C   0  0  0  0  0  0  0  0  0  0  0  0
   12.9556  -18.6951   24.6022 O   0  0  0  0  0  0  0  0  0  0  0  0
   10.8406  -18.0266   25.0892 O   0  0  0  0  0  0  0  0  0  0  0  0
  2  1  1  6
  3  4  1  0
  3  2  1  0
  4  9  2  0
  5  4  1  0
  5  6  2  0
  6  7  1  0
  7  8  2  0
  9  8  1  0
 10  2  1  0
 11 10  2  0
 13 12  1  6
 14 13  1  0
 15 13  1  0
 16 17  1  0
 16 15  1  6
 17 10  1  0
 18 16  1  0
 19 18  2  0
 20 21  1  0
 21 22  2  0
 23 21  1  0
 24 23  1  1
 24 25  1  0
 25 18  1  0
 26 24  1  0
 26 28  1  0
 27 26  2  0
M  END
$$$$
