FLN.pdb
     RDKit          3D

 28 28  0  0  1  0  0  0  0  0999 V2000
    5.9972  -17.6848   25.5331 N   0  0  0  0  0  0  0  0  0  0  0  0
    6.6682  -16.4916   25.0593 C   0  0  1  0  0  0  0  0  0  0  0  0
    7.7653  -16.0643   26.0406 C   0  0  0  0  0  0  0  0  0  0  0  0
    7.5795  -14.6242   26.2760 C   0  0  0  0  0  0  0  0  0  0  0  0
    8.7132  -13.8126   26.2463 C   0  0  0  0  0  0  0  0  0  0  0  0
    8.5514  -12.4671   26.4647 C   0  0  0  0  0  0  0  0  0  0  0  0
    7.3053  -11.9512   26.7037 C   0  0  0  0  0  0  0  0  0  0  0  0
    6.1816  -12.7736   26.7306 C   0  0  0  0  0  0  0  0  0  0  0  0
    6.3231  -14.1389   26.5119 C   0  0  0  0  0  0  0  0  0  0  0  0
    7.3439  -16.7245   23.7571 C   0  0  0  0  0  0  0  0  0  0  0  0
    7.8834  -17.8258   23.5387 O   0  0  0  0  0  0  0  0  0  0  0  0
    8.2904  -13.0589   22.1180 C   0  0  0  0  0  0  0  0  0  0  0  0
    8.5034  -13.6018   20.7124 C   0  0  2  0  0  0  0  0  0  0  0  0
    8.1504  -12.5311   19.7252 C   0  0  0  0  0  0  0  0  0  0  0  0
    7.7523  -14.8893   20.5062 C   0  0  0  0  0  0  0  0  0  0  0  0
    8.0444  -15.9534   21.4826 C   0  0  2  0  0  0  0  0  0  0  0  0
    7.3835  -15.7226   22.7683 N   0  0  0  0  0  0  0  0  0  0  0  0
    9.4658  -16.1973   21.8055 C   0  0  0  0  0  0  0  0  0  0  0  0
    9.7277  -17.2239   22.4832 O   0  0  0  0  0  0  0  0  0  0  0  0
   12.4394  -13.5731   18.9375 N   0  0  0  0  0  0  0  0  0  0  0  0
   12.8412  -14.7926   19.5954 C   0  0  0  0  0  0  0  0  0  0  0  0
   13.1458  -15.7417   18.8443 O   0  0  0  0  0  0  0  0  0  0  0  0
   12.8794  -14.8807   21.0565 C   0  0  0  0  0  0  0  0  0  0  0  0
   11.9028  -15.8957   21.5606 C   0  0  2  0  0  0  0  0  0  0  0  0
   10.5249  -15.3764   21.4144 N   0  0  0  0  0  0  0  0  0  0  0  0
   12.0759  -16.0141   23.0480 C   0  0  0  0  0  0  0  0  0  0  0  0
   12.4280  -17.0844   23.5655 O   0  0  0  0  0  0  0  0  0  0  0  0
   11.8413  -14.9131   23.8783 O   0  0  0  0  0  0  0  0  0  0  0  0
  2  1  1  1
  3  4  1  0
  3  2  1  0
  4  9  2  0
  5  4  1  0
  5  6  2  0
  6  7  1  0
  7  8  2  0
  9  8  1  0
 10  2  1  0
 11 10  2  0
 13 12  1  1
 14 13  1  0
 15 13  1  0
 16 17  1  0
 16 15  1  6
 17 10  1  0
 18 16  1  0
 19 18  2  0
 20 21  1  0
 21 22  2  0
 23 21  1  0
 24 23  1  1
 24 25  1  0
 25 18  1  0
 26 24  1  0
 26 28  1  0
 27 26  2  0
M  END
$$$$
