FLN.pdb
     RDKit          3D

 28 28  0  0  1  0  0  0  0  0999 V2000
    8.3915  -15.7500   25.7696 N   0  0  0  0  0  0  0  0  0  0  0  0
    7.2348  -16.4912   25.3100 C   0  0  1  0  0  0  0  0  0  0  0  0
    5.9424  -15.8445   25.8204 C   0  0  0  0  0  0  0  0  0  0  0  0
    6.2978  -14.4854   26.2570 C   0  0  0  0  0  0  0  0  0  0  0  0
    7.6416  -14.2217   26.5207 C   0  0  0  0  0  0  0  0  0  0  0  0
    7.9846  -12.9567   26.9287 C   0  0  0  0  0  0  0  0  0  0  0  0
    7.0227  -11.9916   27.0683 C   0  0  0  0  0  0  0  0  0  0  0  0
    5.6842  -12.2690   26.8015 C   0  0  0  0  0  0  0  0  0  0  0  0
    5.3153  -13.5434   26.3871 C   0  0  0  0  0  0  0  0  0  0  0  0
    7.1403  -16.4936   23.8276 C   0  0  0  0  0  0  0  0  0  0  0  0
    6.3003  -17.2262   23.2715 O   0  0  0  0  0  0  0  0  0  0  0  0
    7.0309  -12.6630   20.2846 C   0  0  0  0  0  0  0  0  0  0  0  0
    7.4100  -13.6900   21.3415 C   0  0  2  0  0  0  0  0  0  0  0  0
    8.4286  -13.0831   22.2578 C   0  0  0  0  0  0  0  0  0  0  0  0
    7.8542  -14.9821   20.7109 C   0  0  0  0  0  0  0  0  0  0  0  0
    8.2879  -16.0279   21.6539 C   0  0  2  0  0  0  0  0  0  0  0  0
    7.9830  -15.6823   23.0434 N   0  0  0  0  0  0  0  0  0  0  0  0
    9.7202  -16.3922   21.6410 C   0  0  0  0  0  0  0  0  0  0  0  0
   10.2199  -16.6978   20.5281 O   0  0  0  0  0  0  0  0  0  0  0  0
   14.6085  -17.5490   22.5888 N   0  0  0  0  0  0  0  0  0  0  0  0
   14.2715  -16.1826   22.9063 C   0  0  0  0  0  0  0  0  0  0  0  0
   15.2344  -15.4262   23.1478 O   0  0  0  0  0  0  0  0  0  0  0  0
   12.8759  -15.7402   22.9355 C   0  0  0  0  0  0  0  0  0  0  0  0
   11.9478  -16.8623   22.5930 C   0  0  2  0  0  0  0  0  0  0  0  0
   10.5464  -16.4198   22.7657 N   0  0  0  0  0  0  0  0  0  0  0  0
   12.1063  -17.9353   23.6321 C   0  0  0  0  0  0  0  0  0  0  0  0
   11.3235  -18.0152   24.5905 O   0  0  0  0  0  0  0  0  0  0  0  0
   13.1451  -18.8671   23.5355 O   0  0  0  0  0  0  0  0  0  0  0  0
  2  1  1  6
  3  4  1  0
  3  2  1  0
  4  9  2  0
  5  4  1  0
  5  6  2  0
  6  7  1  0
  7  8  2  0
  9  8  1  0
 10  2  1  0
 11 10  2  0
 13 12  1  6
 14 13  1  0
 15 13  1  0
 16 17  1  0
 16 15  1  6
 17 10  1  0
 18 16  1  0
 19 18  2  0
 20 21  1  0
 21 22  2  0
 23 21  1  0
 24 23  1  1
 24 25  1  0
 25 18  1  0
 26 24  1  0
 26 28  1  0
 27 26  2  0
M  END
$$$$
