FLN.pdb
     RDKit          3D

 28 28  0  0  1  0  0  0  0  0999 V2000
    5.7991  -17.8354   25.0185 N   0  0  0  0  0  0  0  0  0  0  0  0
    6.4906  -16.5626   25.0365 C   0  0  1  0  0  0  0  0  0  0  0  0
    7.1120  -16.3061   26.4139 C   0  0  0  0  0  0  0  0  0  0  0  0
    7.3853  -14.8626   26.4883 C   0  0  0  0  0  0  0  0  0  0  0  0
    6.2926  -13.9961   26.4750 C   0  0  0  0  0  0  0  0  0  0  0  0
    6.5361  -12.6469   26.5440 C   0  0  0  0  0  0  0  0  0  0  0  0
    7.8215  -12.1803   26.6231 C   0  0  0  0  0  0  0  0  0  0  0  0
    8.9034  -13.0572   26.6353 C   0  0  0  0  0  0  0  0  0  0  0  0
    8.6792  -14.4272   26.5664 C   0  0  0  0  0  0  0  0  0  0  0  0
    7.6126  -16.5359   24.0636 C   0  0  0  0  0  0  0  0  0  0  0  0
    8.2023  -17.5968   23.7838 O   0  0  0  0  0  0  0  0  0  0  0  0
    6.8999  -14.5094   20.1540 C   0  0  0  0  0  0  0  0  0  0  0  0
    7.5515  -13.5241   21.1133 C   0  0  2  0  0  0  0  0  0  0  0  0
    7.6108  -12.1795   20.4542 C   0  0  0  0  0  0  0  0  0  0  0  0
    8.8883  -14.0276   21.5865 C   0  0  0  0  0  0  0  0  0  0  0  0
    8.8663  -15.3378   22.2603 C   0  0  2  0  0  0  0  0  0  0  0  0
    8.0186  -15.3331   23.4538 N   0  0  0  0  0  0  0  0  0  0  0  0
   10.1652  -15.8899   22.6985 C   0  0  0  0  0  0  0  0  0  0  0  0
   11.0051  -16.1513   21.7997 O   0  0  0  0  0  0  0  0  0  0  0  0
   13.6227  -15.0810   22.0028 N   0  0  0  0  0  0  0  0  0  0  0  0
   13.8562  -15.6598   23.3035 C   0  0  0  0  0  0  0  0  0  0  0  0
   14.9476  -16.2471   23.4502 O   0  0  0  0  0  0  0  0  0  0  0  0
   12.8550  -15.5484   24.3662 C   0  0  0  0  0  0  0  0  0  0  0  0
   11.8714  -16.6737   24.2998 C   0  0  2  0  0  0  0  0  0  0  0  0
   10.5197  -16.1379   24.0256 N   0  0  0  0  0  0  0  0  0  0  0  0
   11.7414  -17.2641   25.6748 C   0  0  0  0  0  0  0  0  0  0  0  0
   10.6707  -17.2010   26.2970 O   0  0  0  0  0  0  0  0  0  0  0  0
   12.8319  -17.8982   26.2795 O   0  0  0  0  0  0  0  0  0  0  0  0
  2  1  1  1
  3  4  1  0
  3  2  1  0
  4  9  2  0
  5  4  1  0
  5  6  2  0
  6  7  1  0
  7  8  2  0
  9  8  1  0
 10  2  1  0
 11 10  2  0
 13 12  1  6
 14 13  1  0
 15 13  1  0
 16 17  1  0
 16 15  1  1
 17 10  1  0
 18 16  1  0
 19 18  2  0
 20 21  1  0
 21 22  2  0
 23 21  1  0
 24 23  1  1
 24 25  1  0
 25 18  1  0
 26 24  1  0
 26 28  1  0
 27 26  2  0
M  END
$$$$
