FLN.pdb
     RDKit          3D

 28 28  0  0  1  0  0  0  0  0999 V2000
    5.8216  -18.0311   25.4809 N   0  0  0  0  0  0  0  0  0  0  0  0
    6.2464  -16.6470   25.4334 C   0  0  1  0  0  0  0  0  0  0  0  0
    6.9493  -16.2537   26.7375 C   0  0  0  0  0  0  0  0  0  0  0  0
    7.0403  -14.7855   26.7383 C   0  0  0  0  0  0  0  0  0  0  0  0
    5.8542  -14.0640   26.6060 C   0  0  0  0  0  0  0  0  0  0  0  0
    5.9275  -12.6933   26.6055 C   0  0  0  0  0  0  0  0  0  0  0  0
    7.1387  -12.0664   26.7323 C   0  0  0  0  0  0  0  0  0  0  0  0
    8.3156  -12.7996   26.8636 C   0  0  0  0  0  0  0  0  0  0  0  0
    8.2638  -14.1886   26.8665 C   0  0  0  0  0  0  0  0  0  0  0  0
    7.2301  -16.4137   24.3452 C   0  0  0  0  0  0  0  0  0  0  0  0
    8.1227  -17.2579   24.1390 O   0  0  0  0  0  0  0  0  0  0  0  0
    8.2147  -12.3212   19.7286 C   0  0  0  0  0  0  0  0  0  0  0  0
    8.4017  -13.7140   20.3123 C   0  0  2  0  0  0  0  0  0  0  0  0
    7.8261  -14.7161   19.3583 C   0  0  0  0  0  0  0  0  0  0  0  0
    7.8326  -13.8028   21.7025 C   0  0  0  0  0  0  0  0  0  0  0  0
    8.0612  -15.0821   22.3971 C   0  0  2  0  0  0  0  0  0  0  0  0
    7.1692  -15.2567   23.5448 N   0  0  0  0  0  0  0  0  0  0  0  0
    9.4236  -15.3331   22.9119 C   0  0  0  0  0  0  0  0  0  0  0  0
    9.6113  -15.1451   24.1412 O   0  0  0  0  0  0  0  0  0  0  0  0
   11.6030  -16.2207   25.5755 N   0  0  0  0  0  0  0  0  0  0  0  0
   11.6095  -17.4775   24.8672 C   0  0  0  0  0  0  0  0  0  0  0  0
   11.6120  -18.5033   25.5782 O   0  0  0  0  0  0  0  0  0  0  0  0
   11.6129  -17.5151   23.4034 C   0  0  0  0  0  0  0  0  0  0  0  0
   11.7539  -16.1407   22.8296 C   0  0  2  0  0  0  0  0  0  0  0  0
   10.5032  -15.7596   22.1367 N   0  0  0  0  0  0  0  0  0  0  0  0
   12.7649  -16.1976   21.7201 C   0  0  0  0  0  0  0  0  0  0  0  0
   13.9682  -16.3729   21.9625 O   0  0  0  0  0  0  0  0  0  0  0  0
   12.3635  -16.0529   20.3879 O   0  0  0  0  0  0  0  0  0  0  0  0
  2  1  1  1
  3  4  1  0
  3  2  1  0
  4  9  2  0
  5  4  1  0
  5  6  2  0
  6  7  1  0
  7  8  2  0
  9  8  1  0
 10  2  1  0
 11 10  2  0
 13 12  1  6
 14 13  1  0
 15 13  1  0
 16 17  1  0
 16 15  1  1
 17 10  1  0
 18 16  1  0
 19 18  2  0
 20 21  1  0
 21 22  2  0
 23 21  1  0
 24 23  1  6
 24 25  1  0
 25 18  1  0
 26 24  1  0
 26 28  1  0
 27 26  2  0
M  END
$$$$
