FLN.pdb
     RDKit          3D

 28 28  0  0  1  0  0  0  0  0999 V2000
    7.7646  -16.6770   22.0748 N   0  0  0  0  0  0  0  0  0  0  0  0
    9.1198  -16.2394   22.3402 C   0  0  1  0  0  0  0  0  0  0  0  0
    9.6135  -15.3086   21.2270 C   0  0  0  0  0  0  0  0  0  0  0  0
    8.4965  -14.4053   20.9099 C   0  0  0  0  0  0  0  0  0  0  0  0
    8.7385  -13.0331   20.9672 C   0  0  0  0  0  0  0  0  0  0  0  0
    7.7032  -12.1809   20.6731 C   0  0  0  0  0  0  0  0  0  0  0  0
    6.4732  -12.6795   20.3346 C   0  0  0  0  0  0  0  0  0  0  0  0
    6.2457  -14.0526   20.2813 C   0  0  0  0  0  0  0  0  0  0  0  0
    7.2802  -14.9330   20.5755 C   0  0  0  0  0  0  0  0  0  0  0  0
    9.2057  -15.4598   23.6015 C   0  0  0  0  0  0  0  0  0  0  0  0
   10.3064  -14.9999   23.9602 O   0  0  0  0  0  0  0  0  0  0  0  0
    8.2547  -11.9393   26.2728 C   0  0  0  0  0  0  0  0  0  0  0  0
    7.0309  -12.7229   25.8213 C   0  0  2  0  0  0  0  0  0  0  0  0
    5.8010  -11.9675   26.2244 C   0  0  0  0  0  0  0  0  0  0  0  0
    7.0699  -14.1371   26.3341 C   0  0  0  0  0  0  0  0  0  0  0  0
    8.1827  -14.9605   25.8294 C   0  0  2  0  0  0  0  0  0  0  0  0
    8.0651  -15.2326   24.3958 N   0  0  0  0  0  0  0  0  0  0  0  0
    8.3871  -16.2778   26.4676 C   0  0  0  0  0  0  0  0  0  0  0  0
    8.5905  -16.2837   27.7087 O   0  0  0  0  0  0  0  0  0  0  0  0
    6.5946  -20.1301   28.0571 N   0  0  0  0  0  0  0  0  0  0  0  0
    6.8047  -20.5284   26.6865 C   0  0  0  0  0  0  0  0  0  0  0  0
    6.0771  -21.4531   26.2705 O   0  0  0  0  0  0  0  0  0  0  0  0
    7.8172  -19.8692   25.8592 C   0  0  0  0  0  0  0  0  0  0  0  0
    8.4650  -18.7408   26.5976 C   0  0  2  0  0  0  0  0  0  0  0  0
    8.3699  -17.5011   25.7955 N   0  0  0  0  0  0  0  0  0  0  0  0
    9.9422  -19.0065   26.6569 C   0  0  0  0  0  0  0  0  0  0  0  0
   10.6880  -18.6723   25.7243 O   0  0  0  0  0  0  0  0  0  0  0  0
   10.5041  -19.6387   27.7711 O   0  0  0  0  0  0  0  0  0  0  0  0
  2  1  1  6
  3  4  1  0
  3  2  1  0
  4  9  2  0
  5  4  1  0
  5  6  2  0
  6  7  1  0
  7  8  2  0
  9  8  1  0
 10  2  1  0
 11 10  2  0
 13 12  1  1
 14 13  1  0
 15 13  1  0
 16 17  1  0
 16 15  1  1
 17 10  1  0
 18 16  1  0
 19 18  2  0
 20 21  1  0
 21 22  2  0
 23 21  1  0
 24 23  1  6
 24 25  1  0
 25 18  1  0
 26 24  1  0
 26 28  1  0
 27 26  2  0
M  END
$$$$
