FIY.pdb
     RDKit          3D

 32 33  0  0  1  0  0  0  0  0999 V2000
   27.6516  -18.8790  -17.4821 N   0  0  0  0  0  0  0  0  0  0  0  0
   27.4485  -18.3730  -16.1406 C   0  0  1  0  0  0  0  0  0  0  0  0
   26.1470  -17.6037  -16.1472 C   0  0  0  0  0  0  0  0  0  0  0  0
   26.3878  -16.2790  -16.7744 C   0  0  0  0  0  0  0  0  0  0  0  0
   25.9282  -15.9768  -18.0504 C   0  0  0  0  0  0  0  0  0  0  0  0
   26.1692  -14.7356  -18.6042 C   0  0  0  0  0  0  0  0  0  0  0  0
   26.8677  -13.7588  -17.9195 C   0  0  0  0  0  0  0  0  0  0  0  0
   27.3265  -14.0532  -16.6520 C   0  0  0  0  0  0  0  0  0  0  0  0
   27.0827  -15.2926  -16.1059 C   0  0  0  0  0  0  0  0  0  0  0  0
   27.4561  -19.4807  -15.1822 C   0  0  0  0  0  0  0  0  0  0  0  0
   26.7485  -20.5063  -15.4443 O   0  0  0  0  0  0  0  0  0  0  0  0
   30.4856  -21.8517  -10.3335 C   0  0  0  0  0  0  0  0  0  0  0  0
   29.1472  -21.6544  -11.0134 C   0  0  0  0  0  0  0  0  0  0  0  0
   29.2670  -20.6148  -12.1236 C   0  0  2  0  0  0  0  0  0  0  0  0
   29.5854  -19.2719  -11.5200 C   0  0  0  0  0  0  0  0  0  0  0  0
   27.9901  -20.5382  -12.9294 C   0  0  2  0  0  0  0  0  0  0  0  0
   28.1837  -19.5129  -13.9844 N   0  0  0  0  0  0  0  0  0  0  0  0
   26.8917  -20.0972  -12.0439 C   0  0  0  0  0  0  0  0  0  0  0  0
   26.4307  -18.9020  -12.1808 O   0  0  0  0  0  0  0  0  0  0  0  0
   18.6777  -19.4935  -10.5924 O   0  0  0  0  0  0  0  0  0  0  0  0
   19.9965  -19.8094  -10.8813 C   0  0  0  0  0  0  0  0  0  0  0  0
   20.4957  -20.9990  -10.4123 C   0  0  0  0  0  0  0  0  0  0  0  0
   21.8038  -21.3462  -10.6806 C   0  0  0  0  0  0  0  0  0  0  0  0
   22.6008  -20.4955  -11.4181 C   0  0  0  0  0  0  0  0  0  0  0  0
   23.9895  -20.8157  -11.7233 C   0  0  0  0  0  0  0  0  0  0  0  0
   24.9047  -20.5371  -10.5715 C   0  0  2  0  0  0  0  0  0  0  0  0
   26.2629  -20.8526  -11.0383 N   0  0  0  0  0  0  0  0  0  0  0  0
   24.5316  -21.3715   -9.4210 C   0  0  0  0  0  0  0  0  0  0  0  0
   24.6287  -22.6430   -9.4184 O   0  0  0  0  0  0  0  0  0  0  0  0
   22.0717  -19.2918  -11.8845 C   0  0  0  0  0  0  0  0  0  0  0  0
   20.7736  -18.9502  -11.6167 C   0  0  0  0  0  0  0  0  0  0  0  0
   24.0525  -20.7856   -8.2718 O   0  0  0  0  0  0  0  0  0  0  0  0
  2  1  1  6
  3  2  1  0
  4  3  1  0
  4  5  2  0
  6  5  1  0
  7  6  2  0
  8  9  2  0
  8  7  1  0
  9  4  1  0
 10  2  1  0
 10 17  1  0
 11 10  2  0
 13 12  1  0
 13 14  1  0
 14 15  1  1
 16 14  1  0
 16 17  1  6
 18 16  1  0
 19 18  2  0
 20 21  1  0
 21 22  2  0
 21 31  1  0
 22 23  1  0
 23 24  2  0
 24 25  1  0
 26 25  1  6
 26 28  1  0
 26 27  1  0
 27 18  1  0
 28 32  1  0
 29 28  2  0
 30 24  1  0
 31 30  2  0
M  END
$$$$
