FIY.pdb
     RDKit          3D

 32 33  0  0  1  0  0  0  0  0999 V2000
   20.0107  -24.5285  -13.2666 N   0  0  0  0  0  0  0  0  0  0  0  0
   21.2080  -25.3228  -13.4460 C   0  0  1  0  0  0  0  0  0  0  0  0
   20.7655  -26.7095  -13.8544 C   0  0  0  0  0  0  0  0  0  0  0  0
   20.0437  -27.3273  -12.7127 C   0  0  0  0  0  0  0  0  0  0  0  0
   20.7125  -27.7925  -11.5870 C   0  0  0  0  0  0  0  0  0  0  0  0
   20.0113  -28.3616  -10.5431 C   0  0  0  0  0  0  0  0  0  0  0  0
   18.6353  -28.4888  -10.5772 C   0  0  0  0  0  0  0  0  0  0  0  0
   17.9658  -28.0286  -11.6926 C   0  0  0  0  0  0  0  0  0  0  0  0
   18.6711  -27.4622  -12.7297 C   0  0  0  0  0  0  0  0  0  0  0  0
   22.0866  -24.6870  -14.4308 C   0  0  0  0  0  0  0  0  0  0  0  0
   21.5511  -23.9857  -15.3488 O   0  0  0  0  0  0  0  0  0  0  0  0
   25.9115  -23.0954  -12.5039 C   0  0  0  0  0  0  0  0  0  0  0  0
   25.4993  -22.6627  -13.8950 C   0  0  0  0  0  0  0  0  0  0  0  0
   25.6619  -23.8185  -14.8775 C   0  0  2  0  0  0  0  0  0  0  0  0
   26.6589  -23.4360  -15.9401 C   0  0  0  0  0  0  0  0  0  0  0  0
   24.3362  -24.1799  -15.5080 C   0  0  2  0  0  0  0  0  0  0  0  0
   23.4849  -24.7832  -14.4530 N   0  0  0  0  0  0  0  0  0  0  0  0
   24.5672  -25.1929  -16.5595 C   0  0  0  0  0  0  0  0  0  0  0  0
   24.3621  -26.4331  -16.2772 O   0  0  0  0  0  0  0  0  0  0  0  0
   21.7594  -29.8758  -22.8681 O   0  0  0  0  0  0  0  0  0  0  0  0
   22.1318  -28.9521  -21.9034 C   0  0  0  0  0  0  0  0  0  0  0  0
   22.1485  -27.6240  -22.2500 C   0  0  0  0  0  0  0  0  0  0  0  0
   22.5139  -26.6768  -21.3156 C   0  0  0  0  0  0  0  0  0  0  0  0
   22.8600  -27.0711  -20.0399 C   0  0  0  0  0  0  0  0  0  0  0  0
   23.2576  -26.1089  -19.0199 C   0  0  0  0  0  0  0  0  0  0  0  0
   24.7425  -25.9286  -18.9548 C   0  0  2  0  0  0  0  0  0  0  0  0
   24.9933  -24.9583  -17.8788 N   0  0  0  0  0  0  0  0  0  0  0  0
   25.2447  -25.4334  -20.2438 C   0  0  0  0  0  0  0  0  0  0  0  0
   25.6685  -26.2000  -21.1706 O   0  0  0  0  0  0  0  0  0  0  0  0
   22.8356  -28.4265  -19.7104 C   0  0  0  0  0  0  0  0  0  0  0  0
   22.4726  -29.3638  -20.6396 C   0  0  0  0  0  0  0  0  0  0  0  0
   25.2713  -24.0815  -20.4992 O   0  0  0  0  0  0  0  0  0  0  0  0
  2  1  1  6
  3  2  1  0
  4  3  1  0
  4  5  2  0
  6  5  1  0
  7  6  2  0
  8  9  2  0
  8  7  1  0
  9  4  1  0
 10  2  1  0
 10 17  1  0
 11 10  2  0
 13 12  1  0
 13 14  1  0
 14 15  1  6
 16 14  1  0
 16 17  1  1
 18 16  1  0
 19 18  2  0
 20 21  1  0
 21 22  2  0
 21 31  1  0
 22 23  1  0
 23 24  2  0
 24 25  1  0
 26 25  1  6
 26 28  1  0
 26 27  1  0
 27 18  1  0
 28 32  1  0
 29 28  2  0
 30 24  1  0
 31 30  2  0
M  END
$$$$
