FIY.pdb
     RDKit          3D

 32 33  0  0  1  0  0  0  0  0999 V2000
   20.4866  -20.7764  -12.7264 N   0  0  0  0  0  0  0  0  0  0  0  0
   21.3081  -20.9218  -13.9100 C   0  0  1  0  0  0  0  0  0  0  0  0
   20.5275  -20.3424  -15.0678 C   0  0  0  0  0  0  0  0  0  0  0  0
   19.5277  -21.3480  -15.5101 C   0  0  0  0  0  0  0  0  0  0  0  0
   18.1679  -21.1820  -15.2776 C   0  0  0  0  0  0  0  0  0  0  0  0
   17.2649  -22.1360  -15.7019 C   0  0  0  0  0  0  0  0  0  0  0  0
   17.6737  -23.2776  -16.3655 C   0  0  0  0  0  0  0  0  0  0  0  0
   19.0229  -23.4478  -16.5991 C   0  0  0  0  0  0  0  0  0  0  0  0
   19.9177  -22.4928  -16.1734 C   0  0  0  0  0  0  0  0  0  0  0  0
   22.6017  -20.2662  -13.7040 C   0  0  0  0  0  0  0  0  0  0  0  0
   22.6082  -19.0940  -13.2067 O   0  0  0  0  0  0  0  0  0  0  0  0
   26.3139  -22.1206  -10.7324 C   0  0  0  0  0  0  0  0  0  0  0  0
   25.4162  -21.2311  -11.5662 C   0  0  0  0  0  0  0  0  0  0  0  0
   26.0176  -21.0251  -12.9531 C   0  0  2  0  0  0  0  0  0  0  0  0
   27.3974  -20.4359  -12.8182 C   0  0  0  0  0  0  0  0  0  0  0  0
   25.1414  -20.1221  -13.7912 C   0  0  2  0  0  0  0  0  0  0  0  0
   23.8516  -20.8222  -14.0101 N   0  0  0  0  0  0  0  0  0  0  0  0
   25.7886  -19.9117  -15.1035 C   0  0  0  0  0  0  0  0  0  0  0  0
   25.9173  -20.9188  -15.8965 O   0  0  0  0  0  0  0  0  0  0  0  0
   29.5709  -16.2663  -22.1644 O   0  0  0  0  0  0  0  0  0  0  0  0
   29.0159  -16.4990  -20.9154 C   0  0  0  0  0  0  0  0  0  0  0  0
   27.6643  -16.3145  -20.7622 C   0  0  0  0  0  0  0  0  0  0  0  0
   27.0776  -16.5367  -19.5333 C   0  0  0  0  0  0  0  0  0  0  0  0
   27.8533  -16.9425  -18.4673 C   0  0  0  0  0  0  0  0  0  0  0  0
   27.2807  -17.1851  -17.1492 C   0  0  0  0  0  0  0  0  0  0  0  0
   26.8960  -18.6184  -16.9503 C   0  0  2  0  0  0  0  0  0  0  0  0
   26.2935  -18.7017  -15.6114 N   0  0  0  0  0  0  0  0  0  0  0  0
   28.0850  -19.4757  -17.0515 C   0  0  0  0  0  0  0  0  0  0  0  0
   28.3025  -20.2567  -18.0359 O   0  0  0  0  0  0  0  0  0  0  0  0
   29.2249  -17.1236  -18.6466 C   0  0  0  0  0  0  0  0  0  0  0  0
   29.8040  -16.9024  -19.8670 C   0  0  0  0  0  0  0  0  0  0  0  0
   29.0332  -19.4590  -16.0544 O   0  0  0  0  0  0  0  0  0  0  0  0
  2  1  1  1
  3  2  1  0
  4  3  1  0
  4  5  2  0
  6  5  1  0
  7  6  2  0
  8  9  2  0
  8  7  1  0
  9  4  1  0
 10  2  1  0
 10 17  1  0
 11 10  2  0
 13 12  1  0
 13 14  1  0
 14 15  1  1
 16 14  1  0
 16 17  1  6
 18 16  1  0
 19 18  2  0
 20 21  1  0
 21 22  2  0
 21 31  1  0
 22 23  1  0
 23 24  2  0
 24 25  1  0
 26 25  1  1
 26 28  1  0
 26 27  1  0
 27 18  1  0
 28 32  1  0
 29 28  2  0
 30 24  1  0
 31 30  2  0
M  END
$$$$
