FIY.pdb
     RDKit          3D

 32 33  0  0  1  0  0  0  0  0999 V2000
   27.7179  -19.5373  -16.6409 N   0  0  0  0  0  0  0  0  0  0  0  0
   26.8986  -18.9235  -15.6168 C   0  0  1  0  0  0  0  0  0  0  0  0
   25.9030  -18.0289  -16.3198 C   0  0  0  0  0  0  0  0  0  0  0  0
   26.6211  -16.8281  -16.8184 C   0  0  0  0  0  0  0  0  0  0  0  0
   26.8734  -16.6330  -18.1709 C   0  0  0  0  0  0  0  0  0  0  0  0
   27.5436  -15.5056  -18.6011 C   0  0  0  0  0  0  0  0  0  0  0  0
   27.9833  -14.5404  -17.7146 C   0  0  0  0  0  0  0  0  0  0  0  0
   27.7355  -14.7288  -16.3704 C   0  0  0  0  0  0  0  0  0  0  0  0
   27.0669  -15.8551  -15.9483 C   0  0  0  0  0  0  0  0  0  0  0  0
   26.2628  -19.9588  -14.7985 C   0  0  0  0  0  0  0  0  0  0  0  0
   25.9272  -21.0491  -15.3640 O   0  0  0  0  0  0  0  0  0  0  0  0
   25.3713  -21.6111   -8.8828 C   0  0  0  0  0  0  0  0  0  0  0  0
   24.8901  -21.7059  -10.3152 C   0  0  0  0  0  0  0  0  0  0  0  0
   25.6969  -20.7667  -11.2067 C   0  0  2  0  0  0  0  0  0  0  0  0
   25.5182  -19.3485  -10.7314 C   0  0  0  0  0  0  0  0  0  0  0  0
   25.2675  -20.8939  -12.6507 C   0  0  2  0  0  0  0  0  0  0  0  0
   25.9866  -19.8547  -13.4281 N   0  0  0  0  0  0  0  0  0  0  0  0
   23.8163  -20.6274  -12.7432 C   0  0  0  0  0  0  0  0  0  0  0  0
   23.4000  -19.4182  -12.5877 O   0  0  0  0  0  0  0  0  0  0  0  0
   15.8077  -19.6156  -15.6310 O   0  0  0  0  0  0  0  0  0  0  0  0
   17.1047  -20.0279  -15.3658 C   0  0  0  0  0  0  0  0  0  0  0  0
   18.0807  -19.0686  -15.2590 C   0  0  0  0  0  0  0  0  0  0  0  0
   19.3825  -19.4422  -14.9958 C   0  0  0  0  0  0  0  0  0  0  0  0
   19.6942  -20.7771  -14.8420 C   0  0  0  0  0  0  0  0  0  0  0  0
   21.0550  -21.2215  -14.5679 C   0  0  0  0  0  0  0  0  0  0  0  0
   21.3901  -21.1643  -13.1098 C   0  0  2  0  0  0  0  0  0  0  0  0
   22.8000  -21.5659  -12.9946 N   0  0  0  0  0  0  0  0  0  0  0  0
   20.5157  -22.0749  -12.3580 C   0  0  0  0  0  0  0  0  0  0  0  0
   20.7289  -23.3285  -12.2613 O   0  0  0  0  0  0  0  0  0  0  0  0
   18.6857  -21.7345  -14.9548 C   0  0  0  0  0  0  0  0  0  0  0  0
   17.3951  -21.3606  -15.2159 C   0  0  0  0  0  0  0  0  0  0  0  0
   19.4041  -21.5852  -11.7114 O   0  0  0  0  0  0  0  0  0  0  0  0
  2  1  1  6
  3  2  1  0
  4  3  1  0
  4  5  2  0
  6  5  1  0
  7  6  2  0
  8  9  2  0
  8  7  1  0
  9  4  1  0
 10  2  1  0
 10 17  1  0
 11 10  2  0
 13 12  1  0
 13 14  1  0
 14 15  1  1
 16 14  1  0
 16 17  1  6
 18 16  1  0
 19 18  2  0
 20 21  1  0
 21 22  2  0
 21 31  1  0
 22 23  1  0
 23 24  2  0
 24 25  1  0
 26 25  1  6
 26 28  1  0
 26 27  1  0
 27 18  1  0
 28 32  1  0
 29 28  2  0
 30 24  1  0
 31 30  2  0
M  END
$$$$
