FIY.pdb
     RDKit          3D

 32 33  0  0  1  0  0  0  0  0999 V2000
   26.3277  -17.6708  -17.0453 N   0  0  0  0  0  0  0  0  0  0  0  0
   25.9039  -17.5115  -15.6698 C   0  0  1  0  0  0  0  0  0  0  0  0
   24.7816  -16.4986  -15.6641 C   0  0  0  0  0  0  0  0  0  0  0  0
   25.3556  -15.1602  -15.9566 C   0  0  0  0  0  0  0  0  0  0  0  0
   26.1962  -14.5106  -15.0610 C   0  0  0  0  0  0  0  0  0  0  0  0
   26.7128  -13.2669  -15.3639 C   0  0  0  0  0  0  0  0  0  0  0  0
   26.4174  -12.6287  -16.5540 C   0  0  0  0  0  0  0  0  0  0  0  0
   25.5831  -13.2691  -17.4472 C   0  0  0  0  0  0  0  0  0  0  0  0
   25.0716  -14.5089  -17.1389 C   0  0  0  0  0  0  0  0  0  0  0  0
   25.5097  -18.8086  -15.1150 C   0  0  0  0  0  0  0  0  0  0  0  0
   24.9939  -19.6665  -15.9019 O   0  0  0  0  0  0  0  0  0  0  0  0
   28.5939  -21.1959  -11.5072 C   0  0  0  0  0  0  0  0  0  0  0  0
   27.6314  -20.9914  -12.6580 C   0  0  0  0  0  0  0  0  0  0  0  0
   26.2007  -20.8893  -12.1381 C   0  0  2  0  0  0  0  0  0  0  0  0
   25.7992  -22.2011  -11.5158 C   0  0  0  0  0  0  0  0  0  0  0  0
   25.2474  -20.5243  -13.2532 C   0  0  2  0  0  0  0  0  0  0  0  0
   25.6517  -19.1955  -13.7751 N   0  0  0  0  0  0  0  0  0  0  0  0
   23.8819  -20.4134  -12.6978 C   0  0  0  0  0  0  0  0  0  0  0  0
   23.7125  -19.7549  -11.6036 O   0  0  0  0  0  0  0  0  0  0  0  0
   20.0888  -17.4418  -17.8575 O   0  0  0  0  0  0  0  0  0  0  0  0
   20.3403  -17.8882  -16.5692 C   0  0  0  0  0  0  0  0  0  0  0  0
   21.6455  -17.9531  -16.1490 C   0  0  0  0  0  0  0  0  0  0  0  0
   21.9333  -18.3926  -14.8732 C   0  0  0  0  0  0  0  0  0  0  0  0
   20.9075  -18.7639  -14.0290 C   0  0  0  0  0  0  0  0  0  0  0  0
   21.1613  -19.2391  -12.6747 C   0  0  0  0  0  0  0  0  0  0  0  0
   21.3897  -20.7179  -12.6234 C   0  0  2  0  0  0  0  0  0  0  0  0
   22.7031  -20.9540  -13.2411 N   0  0  0  0  0  0  0  0  0  0  0  0
   20.3249  -21.4158  -13.3570 C   0  0  0  0  0  0  0  0  0  0  0  0
   20.5123  -21.9984  -14.4758 O   0  0  0  0  0  0  0  0  0  0  0  0
   19.5887  -18.6895  -14.4778 C   0  0  0  0  0  0  0  0  0  0  0  0
   19.3064  -18.2529  -15.7440 C   0  0  0  0  0  0  0  0  0  0  0  0
   19.0507  -21.4656  -12.8399 O   0  0  0  0  0  0  0  0  0  0  0  0
  2  1  1  6
  3  2  1  0
  4  3  1  0
  4  5  2  0
  6  5  1  0
  7  6  2  0
  8  9  2  0
  8  7  1  0
  9  4  1  0
 10  2  1  0
 10 17  1  0
 11 10  2  0
 13 12  1  0
 13 14  1  0
 14 15  1  6
 16 14  1  0
 16 17  1  1
 18 16  1  0
 19 18  2  0
 20 21  1  0
 21 22  2  0
 21 31  1  0
 22 23  1  0
 23 24  2  0
 24 25  1  0
 26 25  1  6
 26 28  1  0
 26 27  1  0
 27 18  1  0
 28 32  1  0
 29 28  2  0
 30 24  1  0
 31 30  2  0
M  END
$$$$
