FIY.pdb
     RDKit          3D

 32 33  0  0  1  0  0  0  0  0999 V2000
   20.6223  -21.1351  -11.9231 N   0  0  0  0  0  0  0  0  0  0  0  0
   21.6824  -21.6485  -12.7654 C   0  0  1  0  0  0  0  0  0  0  0  0
   21.1203  -21.7713  -14.1635 C   0  0  0  0  0  0  0  0  0  0  0  0
   20.1183  -22.8677  -14.1721 C   0  0  0  0  0  0  0  0  0  0  0  0
   20.4860  -24.1990  -14.0195 C   0  0  0  0  0  0  0  0  0  0  0  0
   19.5293  -25.1940  -14.0322 C   0  0  0  0  0  0  0  0  0  0  0  0
   18.1868  -24.9077  -14.1952 C   0  0  0  0  0  0  0  0  0  0  0  0
   17.8159  -23.5874  -14.3472 C   0  0  0  0  0  0  0  0  0  0  0  0
   18.7748  -22.6004  -14.3335 C   0  0  0  0  0  0  0  0  0  0  0  0
   22.8505  -20.7678  -12.6912 C   0  0  0  0  0  0  0  0  0  0  0  0
   22.6526  -19.5110  -12.6405 O   0  0  0  0  0  0  0  0  0  0  0  0
   27.6500  -21.9499  -10.3302 C   0  0  0  0  0  0  0  0  0  0  0  0
   26.7422  -21.8447  -11.5373 C   0  0  0  0  0  0  0  0  0  0  0  0
   26.2658  -20.4064  -11.7162 C   0  0  2  0  0  0  0  0  0  0  0  0
   25.5645  -19.9516  -10.4631 C   0  0  0  0  0  0  0  0  0  0  0  0
   25.3412  -20.2897  -12.9066 C   0  0  2  0  0  0  0  0  0  0  0  0
   24.1866  -21.1914  -12.6708 N   0  0  0  0  0  0  0  0  0  0  0  0
   26.0567  -20.7515  -14.1149 C   0  0  0  0  0  0  0  0  0  0  0  0
   25.7975  -21.9269  -14.5741 O   0  0  0  0  0  0  0  0  0  0  0  0
   24.2311  -17.7514  -21.6752 O   0  0  0  0  0  0  0  0  0  0  0  0
   24.5552  -18.0570  -20.3622 C   0  0  0  0  0  0  0  0  0  0  0  0
   25.2413  -17.1208  -19.6292 C   0  0  0  0  0  0  0  0  0  0  0  0
   25.5806  -17.3907  -18.3194 C   0  0  0  0  0  0  0  0  0  0  0  0
   25.2281  -18.5993  -17.7556 C   0  0  0  0  0  0  0  0  0  0  0  0
   25.5680  -18.9325  -16.3780 C   0  0  0  0  0  0  0  0  0  0  0  0
   26.8262  -19.7382  -16.2807 C   0  0  2  0  0  0  0  0  0  0  0  0
   27.0159  -20.0359  -14.8532 N   0  0  0  0  0  0  0  0  0  0  0  0
   27.9573  -18.9689  -16.8173 C   0  0  0  0  0  0  0  0  0  0  0  0
   28.6209  -19.3261  -17.8460 O   0  0  0  0  0  0  0  0  0  0  0  0
   24.5309  -19.5354  -18.5198 C   0  0  0  0  0  0  0  0  0  0  0  0
   24.1957  -19.2647  -19.8190 C   0  0  0  0  0  0  0  0  0  0  0  0
   28.3461  -17.7988  -16.2065 O   0  0  0  0  0  0  0  0  0  0  0  0
  2  1  1  1
  3  2  1  0
  4  3  1  0
  4  5  2  0
  6  5  1  0
  7  6  2  0
  8  9  2  0
  8  7  1  0
  9  4  1  0
 10  2  1  0
 10 17  1  0
 11 10  2  0
 13 12  1  0
 13 14  1  0
 14 15  1  1
 16 14  1  0
 16 17  1  1
 18 16  1  0
 19 18  2  0
 20 21  1  0
 21 22  2  0
 21 31  1  0
 22 23  1  0
 23 24  2  0
 24 25  1  0
 26 25  1  1
 26 28  1  0
 26 27  1  0
 27 18  1  0
 28 32  1  0
 29 28  2  0
 30 24  1  0
 31 30  2  0
M  END
$$$$
