SPM.pdb
     RDKit          3D

 22 22  0  0  1  0  0  0  0  0999 V2000
   10.6442  -13.3730   19.8602 O   0  0  0  0  0  0  0  0  0  0  0  0
   10.0397  -13.7898   18.6658 C   0  0  0  0  0  0  0  0  0  0  0  0
    8.5147  -13.6754   18.8100 C   0  0  2  0  0  0  0  0  0  0  0  0
    8.2314  -12.2493   18.5902 N   0  0  0  0  0  0  0  0  0  0  0  0
    8.0588  -14.0576   20.1529 C   0  0  0  0  0  0  0  0  0  0  0  0
    7.8947  -13.1323   21.0121 O   0  0  0  0  0  0  0  0  0  0  0  0
    7.7854  -15.3922   20.5649 N   0  0  0  0  0  0  0  0  0  0  0  0
    8.0237  -16.5411   19.6992 C   0  0  0  0  0  0  0  0  0  0  0  0
    7.0341  -17.5876   20.1850 C   0  0  0  0  0  0  0  0  0  0  0  0
    6.8303  -17.2439   21.6551 C   0  0  0  0  0  0  0  0  0  0  0  0
    7.2574  -15.8193   21.8247 C   0  0  1  0  0  0  0  0  0  0  0  0
    8.2702  -15.7454   22.9172 C   0  0  0  0  0  0  0  0  0  0  0  0
    9.4641  -16.0117   22.7229 O   0  0  0  0  0  0  0  0  0  0  0  0
    5.9505  -10.6768   26.5701 C   0  0  0  0  0  0  0  0  0  0  0  0
    6.6293  -12.2341   27.1365 S   0  0  0  0  0  0  0  0  0  0  0  0
    7.4951  -13.1511   25.8368 C   0  0  0  0  0  0  0  0  0  0  0  0
    8.0167  -14.4469   26.4170 C   0  0  0  0  0  0  0  0  0  0  0  0
    8.7229  -15.2833   25.3681 C   0  0  2  0  0  0  0  0  0  0  0  0
    7.8629  -15.3592   24.2207 N   0  0  0  0  0  0  0  0  0  0  0  0
    9.1547  -16.5882   25.8695 C   0  0  0  0  0  0  0  0  0  0  0  0
    8.4050  -17.5994   25.7118 O   0  0  0  0  0  0  0  0  0  0  0  0
   10.3531  -16.8134   26.5232 O   0  0  0  0  0  0  0  0  0  0  0  0
  1  2  1  0
  3  2  1  0
  3  5  1  0
  3  4  1  1
  5  6  2  0
  7  5  1  0
  7 11  1  0
  8  7  1  0
  9  8  1  0
  9 10  1  0
 10 11  1  0
 11 12  1  1
 12 19  1  0
 12 13  2  0
 14 15  1  0
 16 15  1  0
 18 17  1  1
 17 16  1  0
 18 20  1  0
 19 18  1  0
 20 22  1  0
 21 20  2  0
M  END
$$$$
