SPM.pdb
     RDKit          3D

 22 22  0  0  1  0  0  0  0  0999 V2000
   10.0147  -18.6906   20.2990 O   0  0  0  0  0  0  0  0  0  0  0  0
    9.3760  -18.1532   19.1726 C   0  0  0  0  0  0  0  0  0  0  0  0
   10.0370  -16.8140   18.8136 C   0  0  2  0  0  0  0  0  0  0  0  0
   11.4496  -17.1520   18.5840 N   0  0  0  0  0  0  0  0  0  0  0  0
    9.9444  -15.8428   19.9115 C   0  0  0  0  0  0  0  0  0  0  0  0
   10.9744  -15.6661   20.6389 O   0  0  0  0  0  0  0  0  0  0  0  0
    8.7827  -15.0815   20.2222 N   0  0  0  0  0  0  0  0  0  0  0  0
    7.6300  -15.0169   19.3314 C   0  0  0  0  0  0  0  0  0  0  0  0
    6.9854  -13.6777   19.6498 C   0  0  0  0  0  0  0  0  0  0  0  0
    7.3650  -13.4253   21.1035 C   0  0  0  0  0  0  0  0  0  0  0  0
    8.5529  -14.2893   21.3918 C   0  0  1  0  0  0  0  0  0  0  0  0
    8.2626  -15.1246   22.5930 C   0  0  0  0  0  0  0  0  0  0  0  0
    7.8056  -16.2718   22.4983 O   0  0  0  0  0  0  0  0  0  0  0  0
    5.4522  -11.0858   27.2796 C   0  0  0  0  0  0  0  0  0  0  0  0
    6.8626  -12.1837   27.3893 S   0  0  0  0  0  0  0  0  0  0  0  0
    6.9723  -13.3465   26.0052 C   0  0  0  0  0  0  0  0  0  0  0  0
    8.1673  -14.2490   26.2182 C   0  0  0  0  0  0  0  0  0  0  0  0
    8.2821  -15.2903   25.1223 C   0  0  2  0  0  0  0  0  0  0  0  0
    8.5146  -14.5974   23.8863 N   0  0  0  0  0  0  0  0  0  0  0  0
    7.1427  -16.2070   25.0798 C   0  0  0  0  0  0  0  0  0  0  0  0
    6.1374  -15.9242   24.3595 O   0  0  0  0  0  0  0  0  0  0  0  0
    7.0722  -17.3948   25.7858 O   0  0  0  0  0  0  0  0  0  0  0  0
  1  2  1  0
  3  2  1  0
  3  5  1  0
  3  4  1  1
  5  6  2  0
  7  5  1  0
  7 11  1  0
  8  7  1  0
  9  8  1  0
  9 10  1  0
 10 11  1  0
 11 12  1  1
 12 19  1  0
 12 13  2  0
 14 15  1  0
 16 15  1  0
 18 17  1  1
 17 16  1  0
 18 20  1  0
 19 18  1  0
 20 22  1  0
 21 20  2  0
M  END
$$$$
