SPM.pdb
     RDKit          3D

 22 22  0  0  1  0  0  0  0  0999 V2000
    5.9741  -18.2048   23.3371 O   0  0  0  0  0  0  0  0  0  0  0  0
    5.2318  -17.8122   22.2144 C   0  0  0  0  0  0  0  0  0  0  0  0
    6.1615  -17.7597   20.9929 C   0  0  2  0  0  0  0  0  0  0  0  0
    6.5430  -19.1609   20.7618 N   0  0  0  0  0  0  0  0  0  0  0  0
    7.3696  -16.9664   21.2547 C   0  0  0  0  0  0  0  0  0  0  0  0
    8.3864  -17.5685   21.7289 O   0  0  0  0  0  0  0  0  0  0  0  0
    7.4869  -15.5684   21.0151 N   0  0  0  0  0  0  0  0  0  0  0  0
    6.3953  -14.7769   20.4601 C   0  0  0  0  0  0  0  0  0  0  0  0
    7.0898  -13.6191   19.7616 C   0  0  0  0  0  0  0  0  0  0  0  0
    8.3897  -13.4502   20.5380 C   0  0  0  0  0  0  0  0  0  0  0  0
    8.6285  -14.7402   21.2588 C   0  0  1  0  0  0  0  0  0  0  0  0
    8.8208  -14.4544   22.7100 C   0  0  0  0  0  0  0  0  0  0  0  0
    8.5172  -13.3620   23.2085 O   0  0  0  0  0  0  0  0  0  0  0  0
    6.1792  -11.4386   26.9723 C   0  0  0  0  0  0  0  0  0  0  0  0
    6.3130  -13.0355   26.1733 S   0  0  0  0  0  0  0  0  0  0  0  0
    8.0025  -13.6876   26.1582 C   0  0  0  0  0  0  0  0  0  0  0  0
    8.0030  -15.0286   25.4585 C   0  0  0  0  0  0  0  0  0  0  0  0
    9.3921  -15.4110   24.9868 C   0  0  2  0  0  0  0  0  0  0  0  0
    9.3669  -15.4580   23.5519 N   0  0  0  0  0  0  0  0  0  0  0  0
    9.8923  -16.6372   25.6088 C   0  0  0  0  0  0  0  0  0  0  0  0
    9.6886  -17.7546   25.0438 O   0  0  0  0  0  0  0  0  0  0  0  0
   10.5911  -16.6758   26.8024 O   0  0  0  0  0  0  0  0  0  0  0  0
  1  2  1  0
  3  2  1  0
  3  5  1  0
  3  4  1  1
  5  6  2  0
  7  5  1  0
  7 11  1  0
  8  7  1  0
  9  8  1  0
  9 10  1  0
 10 11  1  0
 11 12  1  1
 12 19  1  0
 12 13  2  0
 14 15  1  0
 16 15  1  0
 18 17  1  1
 17 16  1  0
 18 20  1  0
 19 18  1  0
 20 22  1  0
 21 20  2  0
M  END
$$$$
