SPM.pdb
     RDKit          3D

 22 22  0  0  1  0  0  0  0  0999 V2000
   10.5562  -19.4276   20.8153 O   0  0  0  0  0  0  0  0  0  0  0  0
    9.7800  -19.1853   19.6732 C   0  0  0  0  0  0  0  0  0  0  0  0
   10.0016  -17.7359   19.2154 C   0  0  2  0  0  0  0  0  0  0  0  0
   11.4339  -17.6693   18.8890 N   0  0  0  0  0  0  0  0  0  0  0  0
    9.7031  -16.7706   20.2814 C   0  0  0  0  0  0  0  0  0  0  0  0
   10.6807  -16.2897   20.9404 O   0  0  0  0  0  0  0  0  0  0  0  0
    8.3955  -16.3313   20.6320 N   0  0  0  0  0  0  0  0  0  0  0  0
    7.1966  -16.8587   19.9913 C   0  0  0  0  0  0  0  0  0  0  0  0
    6.1796  -15.7362   20.1182 C   0  0  0  0  0  0  0  0  0  0  0  0
    6.6118  -14.9914   21.3750 C   0  0  0  0  0  0  0  0  0  0  0  0
    8.0449  -15.3512   21.6142 C   0  0  1  0  0  0  0  0  0  0  0  0
    8.1872  -15.8688   23.0059 C   0  0  0  0  0  0  0  0  0  0  0  0
    8.2120  -17.0818   23.2545 O   0  0  0  0  0  0  0  0  0  0  0  0
    5.3350  -11.1414   27.2862 C   0  0  0  0  0  0  0  0  0  0  0  0
    6.9321  -11.9508   27.2649 S   0  0  0  0  0  0  0  0  0  0  0  0
    6.9633  -13.4432   26.2395 C   0  0  0  0  0  0  0  0  0  0  0  0
    8.3533  -14.0381   26.2836 C   0  0  0  0  0  0  0  0  0  0  0  0
    8.4411  -15.3115   25.4657 C   0  0  2  0  0  0  0  0  0  0  0  0
    8.2983  -14.9513   24.0831 N   0  0  0  0  0  0  0  0  0  0  0  0
    7.5023  -16.3432   25.9069 C   0  0  0  0  0  0  0  0  0  0  0  0
    6.3668  -16.4371   25.3491 O   0  0  0  0  0  0  0  0  0  0  0  0
    7.7628  -17.2526   26.9166 O   0  0  0  0  0  0  0  0  0  0  0  0
  1  2  1  0
  3  2  1  0
  3  5  1  0
  3  4  1  1
  5  6  2  0
  7  5  1  0
  7 11  1  0
  8  7  1  0
  9  8  1  0
  9 10  1  0
 10 11  1  0
 11 12  1  1
 12 19  1  0
 12 13  2  0
 14 15  1  0
 16 15  1  0
 18 17  1  1
 17 16  1  0
 18 20  1  0
 19 18  1  0
 20 22  1  0
 21 20  2  0
M  END
$$$$
