SPM.pdb
     RDKit          3D

 22 22  0  0  1  0  0  0  0  0999 V2000
   11.3657  -13.4606   17.9627 O   0  0  0  0  0  0  0  0  0  0  0  0
   10.6940  -13.6429   19.1798 C   0  0  0  0  0  0  0  0  0  0  0  0
    9.2063  -13.9004   18.8970 C   0  0  2  0  0  0  0  0  0  0  0  0
    8.6759  -12.5877   18.4998 N   0  0  0  0  0  0  0  0  0  0  0  0
    8.4923  -14.3691   20.0919 C   0  0  0  0  0  0  0  0  0  0  0  0
    8.0153  -13.4926   20.8828 O   0  0  0  0  0  0  0  0  0  0  0  0
    8.2934  -15.7370   20.4308 N   0  0  0  0  0  0  0  0  0  0  0  0
    8.8288  -16.8272   19.6239 C   0  0  0  0  0  0  0  0  0  0  0  0
    7.8858  -17.9890   19.8912 C   0  0  0  0  0  0  0  0  0  0  0  0
    7.3529  -17.7128   21.2915 C   0  0  0  0  0  0  0  0  0  0  0  0
    7.5740  -16.2558   21.5540 C   0  0  1  0  0  0  0  0  0  0  0  0
    8.3314  -16.1043   22.8300 C   0  0  0  0  0  0  0  0  0  0  0  0
    9.5402  -16.3618   22.9090 O   0  0  0  0  0  0  0  0  0  0  0  0
    6.4100  -10.5823   27.0524 C   0  0  0  0  0  0  0  0  0  0  0  0
    6.1059  -12.2824   26.5795 S   0  0  0  0  0  0  0  0  0  0  0  0
    7.6202  -13.2648   26.4317 C   0  0  0  0  0  0  0  0  0  0  0  0
    7.2451  -14.7006   26.1390 C   0  0  0  0  0  0  0  0  0  0  0  0
    8.2763  -15.3778   25.2579 C   0  0  2  0  0  0  0  0  0  0  0  0
    7.6549  -15.6522   23.9929 N   0  0  0  0  0  0  0  0  0  0  0  0
    8.8841  -16.5522   25.8840 C   0  0  0  0  0  0  0  0  0  0  0  0
    8.3876  -17.7008   25.6757 O   0  0  0  0  0  0  0  0  0  0  0  0
    9.9918  -16.5075   26.7118 O   0  0  0  0  0  0  0  0  0  0  0  0
  1  2  1  0
  3  2  1  0
  3  5  1  0
  3  4  1  1
  5  6  2  0
  7  5  1  0
  7 11  1  0
  8  7  1  0
  9  8  1  0
  9 10  1  0
 10 11  1  0
 11 12  1  1
 12 19  1  0
 12 13  2  0
 14 15  1  0
 16 15  1  0
 18 17  1  1
 17 16  1  0
 18 20  1  0
 19 18  1  0
 20 22  1  0
 21 20  2  0
M  END
$$$$
