SPM.pdb
     RDKit          3D

 22 22  0  0  1  0  0  0  0  0999 V2000
   10.4383  -19.3157   21.7488 O   0  0  0  0  0  0  0  0  0  0  0  0
   11.4479  -18.8506   20.8943 C   0  0  0  0  0  0  0  0  0  0  0  0
   10.8330  -17.8804   19.8744 C   0  0  2  0  0  0  0  0  0  0  0  0
   11.9788  -17.4012   19.0871 N   0  0  0  0  0  0  0  0  0  0  0  0
   10.1819  -16.7366   20.5264 C   0  0  0  0  0  0  0  0  0  0  0  0
   10.9260  -15.8205   21.0042 O   0  0  0  0  0  0  0  0  0  0  0  0
    8.7742  -16.5770   20.6628 N   0  0  0  0  0  0  0  0  0  0  0  0
    7.8226  -17.5334   20.1097 C   0  0  0  0  0  0  0  0  0  0  0  0
    6.5656  -16.7136   19.8679 C   0  0  0  0  0  0  0  0  0  0  0  0
    6.6483  -15.6022   20.9066 C   0  0  0  0  0  0  0  0  0  0  0  0
    8.0829  -15.5128   21.3246 C   0  0  1  0  0  0  0  0  0  0  0  0
    8.1612  -15.6245   22.8099 C   0  0  0  0  0  0  0  0  0  0  0  0
    8.5275  -16.6665   23.3702 O   0  0  0  0  0  0  0  0  0  0  0  0
    6.3490  -11.1775   29.1954 C   0  0  0  0  0  0  0  0  0  0  0  0
    6.3137  -11.5075   27.4357 S   0  0  0  0  0  0  0  0  0  0  0  0
    7.0397  -13.1066   26.9938 C   0  0  0  0  0  0  0  0  0  0  0  0
    7.1098  -13.2122   25.4865 C   0  0  0  0  0  0  0  0  0  0  0  0
    7.7892  -14.4947   25.0483 C   0  0  2  0  0  0  0  0  0  0  0  0
    7.8076  -14.5088   23.6126 N   0  0  0  0  0  0  0  0  0  0  0  0
    7.1940  -15.6918   25.6427 C   0  0  0  0  0  0  0  0  0  0  0  0
    6.1254  -16.1693   25.1534 O   0  0  0  0  0  0  0  0  0  0  0  0
    7.7204  -16.3648   26.7310 O   0  0  0  0  0  0  0  0  0  0  0  0
  1  2  1  0
  3  2  1  0
  3  5  1  0
  3  4  1  6
  5  6  2  0
  7  5  1  0
  7 11  1  0
  8  7  1  0
  9  8  1  0
  9 10  1  0
 10 11  1  0
 11 12  1  1
 12 19  1  0
 12 13  2  0
 14 15  1  0
 16 15  1  0
 18 17  1  6
 17 16  1  0
 18 20  1  0
 19 18  1  0
 20 22  1  0
 21 20  2  0
M  END
$$$$
