SPM.pdb
     RDKit          3D

 22 22  0  0  1  0  0  0  0  0999 V2000
    5.9235  -17.7173   20.7914 O   0  0  0  0  0  0  0  0  0  0  0  0
    6.6407  -18.3964   19.7964 C   0  0  0  0  0  0  0  0  0  0  0  0
    7.4025  -17.3727   18.9413 C   0  0  2  0  0  0  0  0  0  0  0  0
    8.2854  -18.1876   18.0934 N   0  0  0  0  0  0  0  0  0  0  0  0
    8.2193  -16.4693   19.7623 C   0  0  0  0  0  0  0  0  0  0  0  0
    9.1938  -16.9709   20.4104 O   0  0  0  0  0  0  0  0  0  0  0  0
    8.0002  -15.0685   19.8859 N   0  0  0  0  0  0  0  0  0  0  0  0
    7.0404  -14.3519   19.0544 C   0  0  0  0  0  0  0  0  0  0  0  0
    7.5767  -12.9304   19.0037 C   0  0  0  0  0  0  0  0  0  0  0  0
    8.3423  -12.7815   20.3125 C   0  0  0  0  0  0  0  0  0  0  0  0
    8.6453  -14.1670   20.7912 C   0  0  1  0  0  0  0  0  0  0  0  0
    8.1462  -14.3152   22.1889 C   0  0  0  0  0  0  0  0  0  0  0  0
    6.9616  -14.1103   22.4868 O   0  0  0  0  0  0  0  0  0  0  0  0
    6.8576  -11.8544   27.7714 C   0  0  0  0  0  0  0  0  0  0  0  0
    6.1645  -12.8818   26.4789 S   0  0  0  0  0  0  0  0  0  0  0  0
    6.9858  -14.4886   26.3258 C   0  0  0  0  0  0  0  0  0  0  0  0
    7.3376  -14.7217   24.8733 C   0  0  0  0  0  0  0  0  0  0  0  0
    8.8212  -14.5367   24.6222 C   0  0  2  0  0  0  0  0  0  0  0  0
    9.0482  -14.7022   23.2141 N   0  0  0  0  0  0  0  0  0  0  0  0
    9.6570  -15.3970   25.4599 C   0  0  0  0  0  0  0  0  0  0  0  0
   10.2282  -16.4070   24.9472 O   0  0  0  0  0  0  0  0  0  0  0  0
    9.8800  -15.1902   26.8097 O   0  0  0  0  0  0  0  0  0  0  0  0
  1  2  1  0
  3  2  1  0
  3  5  1  0
  3  4  1  6
  5  6  2  0
  7  5  1  0
  7 11  1  0
  8  7  1  0
  9  8  1  0
  9 10  1  0
 10 11  1  0
 11 12  1  1
 12 19  1  0
 12 13  2  0
 14 15  1  0
 16 15  1  0
 18 17  1  6
 17 16  1  0
 18 20  1  0
 19 18  1  0
 20 22  1  0
 21 20  2  0
M  END
$$$$
