SPM.pdb
     RDKit          3D

 22 22  0  0  1  0  0  0  0  0999 V2000
    6.3201  -18.5847   22.4962 O   0  0  0  0  0  0  0  0  0  0  0  0
    5.6484  -17.8870   21.4824 C   0  0  0  0  0  0  0  0  0  0  0  0
    6.6441  -17.5494   20.3626 C   0  0  2  0  0  0  0  0  0  0  0  0
    7.2553  -18.8406   20.0137 N   0  0  0  0  0  0  0  0  0  0  0  0
    7.6915  -16.6258   20.8176 C   0  0  0  0  0  0  0  0  0  0  0  0
    8.7496  -17.1256   21.3194 O   0  0  0  0  0  0  0  0  0  0  0  0
    7.6096  -15.2071   20.7375 N   0  0  0  0  0  0  0  0  0  0  0  0
    6.3995  -14.5180   20.3049 C   0  0  0  0  0  0  0  0  0  0  0  0
    6.9026  -13.2053   19.7267 C   0  0  0  0  0  0  0  0  0  0  0  0
    8.1985  -12.9447   20.4842 C   0  0  0  0  0  0  0  0  0  0  0  0
    8.6381  -14.2609   21.0456 C   0  0  1  0  0  0  0  0  0  0  0  0
    8.8494  -14.1131   22.5148 C   0  0  0  0  0  0  0  0  0  0  0  0
    8.8539  -13.0050   23.0679 O   0  0  0  0  0  0  0  0  0  0  0  0
    6.8807  -10.9264   27.2692 C   0  0  0  0  0  0  0  0  0  0  0  0
    6.6165  -12.4882   26.4340 S   0  0  0  0  0  0  0  0  0  0  0  0
    8.1562  -13.3509   26.0281 C   0  0  0  0  0  0  0  0  0  0  0  0
    7.8246  -14.5980   25.2390 C   0  0  0  0  0  0  0  0  0  0  0  0
    9.0771  -15.2952   24.7455 C   0  0  2  0  0  0  0  0  0  0  0  0
    9.0517  -15.2711   23.3101 N   0  0  0  0  0  0  0  0  0  0  0  0
    9.2497  -16.6337   25.3104 C   0  0  0  0  0  0  0  0  0  0  0  0
    9.4531  -16.7670   26.5555 O   0  0  0  0  0  0  0  0  0  0  0  0
    9.2081  -17.8023   24.5708 O   0  0  0  0  0  0  0  0  0  0  0  0
  1  2  1  0
  3  2  1  0
  3  5  1  0
  3  4  1  1
  5  6  2  0
  7  5  1  0
  7 11  1  0
  8  7  1  0
  9  8  1  0
  9 10  1  0
 10 11  1  0
 11 12  1  1
 12 19  1  0
 12 13  2  0
 14 15  1  0
 16 15  1  0
 18 17  1  1
 17 16  1  0
 18 20  1  0
 19 18  1  0
 20 22  1  0
 21 20  2  0
M  END
$$$$
