SPM.pdb
     RDKit          3D

 22 22  0  0  1  0  0  0  0  0999 V2000
  -44.4776  -62.9326    3.8737 O   0  0  0  0  0  0  0  0  0  0  0  0
  -43.5643  -63.8784    3.3869 C   0  0  0  0  0  0  0  0  0  0  0  0
  -42.4246  -63.1470    2.6621 C   0  0  2  0  0  0  0  0  0  0  0  0
  -41.6495  -64.2197    2.0210 N   0  0  0  0  0  0  0  0  0  0  0  0
  -41.5581  -62.4162    3.5961 C   0  0  0  0  0  0  0  0  0  0  0  0
  -41.0127  -61.3413    3.1857 O   0  0  0  0  0  0  0  0  0  0  0  0
  -41.2834  -62.8234    4.9319 N   0  0  0  0  0  0  0  0  0  0  0  0
  -39.9888  -63.3605    5.3339 C   0  0  0  0  0  0  0  0  0  0  0  0
  -40.3057  -64.2482    6.5265 C   0  0  0  0  0  0  0  0  0  0  0  0
  -41.5576  -63.6211    7.1268 C   0  0  0  0  0  0  0  0  0  0  0  0
  -42.1750  -62.7836    6.0507 C   0  0  1  0  0  0  0  0  0  0  0  0
  -42.3712  -61.3988    6.5690 C   0  0  0  0  0  0  0  0  0  0  0  0
  -43.4731  -60.9987    6.9685 O   0  0  0  0  0  0  0  0  0  0  0  0
  -40.9747  -56.2448    9.4432 C   0  0  0  0  0  0  0  0  0  0  0  0
  -41.6214  -55.6137    7.8973 S   0  0  0  0  0  0  0  0  0  0  0  0
  -41.4500  -56.7795    6.5220 C   0  0  0  0  0  0  0  0  0  0  0  0
  -41.2529  -58.1708    7.0818 C   0  0  0  0  0  0  0  0  0  0  0  0
  -41.2248  -59.2152    5.9832 C   0  0  2  0  0  0  0  0  0  0  0  0
  -41.2681  -60.5066    6.6093 N   0  0  0  0  0  0  0  0  0  0  0  0
  -40.1045  -59.0451    5.0578 C   0  0  0  0  0  0  0  0  0  0  0  0
  -38.9810  -58.6546    5.4991 O   0  0  0  0  0  0  0  0  0  0  0  0
  -40.1758  -59.2829    3.6967 O   0  0  0  0  0  0  0  0  0  0  0  0
  1  2  1  0
  3  2  1  0
  3  5  1  0
  3  4  1  1
  5  6  2  0
  7  5  1  0
  7 11  1  0
  8  7  1  0
  9  8  1  0
  9 10  1  0
 10 11  1  0
 11 12  1  1
 12 19  1  0
 12 13  2  0
 14 15  1  0
 16 15  1  0
 18 17  1  1
 17 16  1  0
 18 20  1  0
 19 18  1  0
 20 22  1  0
 21 20  2  0
M  END
$$$$
