SPM.pdb
     RDKit          3D

 22 22  0  0  1  0  0  0  0  0999 V2000
   11.8801  -18.4479   20.6267 O   0  0  0  0  0  0  0  0  0  0  0  0
   11.9827  -17.7150   19.4359 C   0  0  0  0  0  0  0  0  0  0  0  0
   10.5920  -17.6079   18.7924 C   0  0  2  0  0  0  0  0  0  0  0  0
   10.8076  -16.7950   17.5862 N   0  0  0  0  0  0  0  0  0  0  0  0
    9.6310  -16.9264   19.6695 C   0  0  0  0  0  0  0  0  0  0  0  0
    9.6526  -15.6537   19.7018 O   0  0  0  0  0  0  0  0  0  0  0  0
    8.6732  -17.5877   20.4886 N   0  0  0  0  0  0  0  0  0  0  0  0
    8.5827  -19.0410   20.5662 C   0  0  0  0  0  0  0  0  0  0  0  0
    7.1323  -19.3066   20.9356 C   0  0  0  0  0  0  0  0  0  0  0  0
    6.7162  -18.0587   21.7042 C   0  0  0  0  0  0  0  0  0  0  0  0
    7.6861  -16.9819   21.3293 C   0  0  1  0  0  0  0  0  0  0  0  0
    8.2767  -16.4092   22.5735 C   0  0  0  0  0  0  0  0  0  0  0  0
    9.3011  -16.8777   23.0883 O   0  0  0  0  0  0  0  0  0  0  0  0
    6.4293  -10.8769   28.0346 C   0  0  0  0  0  0  0  0  0  0  0  0
    6.0771  -11.8281   26.5589 S   0  0  0  0  0  0  0  0  0  0  0  0
    7.4081  -12.9716   26.1112 C   0  0  0  0  0  0  0  0  0  0  0  0
    7.0631  -13.6326   24.7952 C   0  0  0  0  0  0  0  0  0  0  0  0
    8.1137  -14.6470   24.3882 C   0  0  2  0  0  0  0  0  0  0  0  0
    7.6532  -15.2944   23.1922 N   0  0  0  0  0  0  0  0  0  0  0  0
    8.4634  -15.5745   25.4643 C   0  0  0  0  0  0  0  0  0  0  0  0
    9.4391  -15.3071   26.2297 O   0  0  0  0  0  0  0  0  0  0  0  0
    7.7938  -16.7578   25.7206 O   0  0  0  0  0  0  0  0  0  0  0  0
  1  2  1  0
  3  2  1  0
  3  5  1  0
  3  4  1  6
  5  6  2  0
  7  5  1  0
  7 11  1  0
  8  7  1  0
  9  8  1  0
  9 10  1  0
 10 11  1  0
 11 12  1  1
 12 19  1  0
 12 13  2  0
 14 15  1  0
 16 15  1  0
 18 17  1  1
 17 16  1  0
 18 20  1  0
 19 18  1  0
 20 22  1  0
 21 20  2  0
M  END
$$$$
