SPM.pdb
     RDKit          3D

 22 22  0  0  1  0  0  0  0  0999 V2000
    8.3657  -18.8172   20.1144 O   0  0  0  0  0  0  0  0  0  0  0  0
    8.0468  -18.2676   18.8647 C   0  0  0  0  0  0  0  0  0  0  0  0
    9.0669  -17.1706   18.5252 C   0  0  2  0  0  0  0  0  0  0  0  0
   10.3178  -17.8997   18.2684 N   0  0  0  0  0  0  0  0  0  0  0  0
    9.2695  -16.2420   19.6450 C   0  0  0  0  0  0  0  0  0  0  0  0
   10.1764  -16.5215   20.4939 O   0  0  0  0  0  0  0  0  0  0  0  0
    8.5233  -15.0476   19.8505 N   0  0  0  0  0  0  0  0  0  0  0  0
    7.3830  -14.6861   19.0169 C   0  0  0  0  0  0  0  0  0  0  0  0
    7.3299  -13.1688   19.0926 C   0  0  0  0  0  0  0  0  0  0  0  0
    7.9446  -12.8485   20.4493 C   0  0  0  0  0  0  0  0  0  0  0  0
    8.7467  -14.0473   20.8495 C   0  0  1  0  0  0  0  0  0  0  0  0
    8.3077  -14.4922   22.2038 C   0  0  0  0  0  0  0  0  0  0  0  0
    7.3923  -15.3117   22.3595 O   0  0  0  0  0  0  0  0  0  0  0  0
    6.7883  -11.4948   27.9268 C   0  0  0  0  0  0  0  0  0  0  0  0
    5.8107  -12.3475   26.6925 S   0  0  0  0  0  0  0  0  0  0  0  0
    6.5194  -13.9375   26.1929 C   0  0  0  0  0  0  0  0  0  0  0  0
    7.0514  -13.8143   24.7824 C   0  0  0  0  0  0  0  0  0  0  0  0
    8.5235  -14.1690   24.7087 C   0  0  2  0  0  0  0  0  0  0  0  0
    8.9526  -13.9663   23.3535 N   0  0  0  0  0  0  0  0  0  0  0  0
    8.8190  -15.5045   25.2278 C   0  0  0  0  0  0  0  0  0  0  0  0
    9.3982  -15.6267   26.3499 O   0  0  0  0  0  0  0  0  0  0  0  0
    8.5078  -16.6818   24.5709 O   0  0  0  0  0  0  0  0  0  0  0  0
  1  2  1  0
  3  2  1  0
  3  5  1  0
  3  4  1  1
  5  6  2  0
  7  5  1  0
  7 11  1  0
  8  7  1  0
  9  8  1  0
  9 10  1  0
 10 11  1  0
 11 12  1  1
 12 19  1  0
 12 13  2  0
 14 15  1  0
 16 15  1  0
 18 17  1  6
 17 16  1  0
 18 20  1  0
 19 18  1  0
 20 22  1  0
 21 20  2  0
M  END
$$$$
