SVQ.pdb
     RDKit          3D

 23 22  0  0  1  0  0  0  0  0999 V2000
    4.0336  -17.9349   22.5376 O   0  0  0  0  0  0  0  0  0  0  0  0
    5.3617  -17.6387   22.7374 C   0  0  0  0  0  0  0  0  0  0  0  0
    5.7663  -16.3174   22.0941 C   0  0  2  0  0  0  0  0  0  0  0  0
    6.0873  -16.5356   20.7045 N   0  0  0  0  0  0  0  0  0  0  0  0
    6.9497  -15.8298   22.8496 C   0  0  0  0  0  0  0  0  0  0  0  0
    8.1199  -16.1830   22.5491 O   0  0  0  0  0  0  0  0  0  0  0  0
    6.0767  -13.3180   26.0515 C   0  0  0  0  0  0  0  0  0  0  0  0
    7.3861  -13.1075   25.2836 C   0  0  2  0  0  0  0  0  0  0  0  0
    7.1709  -12.1177   24.1788 C   0  0  0  0  0  0  0  0  0  0  0  0
    7.8136  -14.4622   24.7904 C   0  0  2  0  0  0  0  0  0  0  0  0
    6.7512  -14.9530   23.9249 N   0  0  0  0  0  0  0  0  0  0  0  0
    8.0294  -15.4289   25.8881 C   0  0  0  0  0  0  0  0  0  0  0  0
    7.0813  -15.6816   26.6635 O   0  0  0  0  0  0  0  0  0  0  0  0
    7.9098  -20.9272   25.7110 N   0  0  0  0  0  0  0  0  0  0  0  0
    7.4343  -20.3270   26.8827 C   0  0  0  0  0  0  0  0  0  0  0  0
    6.5367  -20.8883   27.5498 O   0  0  0  0  0  0  0  0  0  0  0  0
    7.9509  -19.0166   27.3991 C   0  0  0  0  0  0  0  0  0  0  0  0
    8.9962  -18.4463   26.4921 C   0  0  0  0  0  0  0  0  0  0  0  0
    9.4942  -17.1563   27.0044 C   0  0  2  0  0  0  0  0  0  0  0  0
    9.2683  -16.0568   26.0670 N   0  0  0  0  0  0  0  0  0  0  0  0
   10.9314  -17.2080   27.2778 C   0  0  0  0  0  0  0  0  0  0  0  0
   11.3293  -18.0575   28.1646 O   0  0  0  0  0  0  0  0  0  0  0  0
   11.9250  -16.4464   26.6863 O   0  0  0  0  0  0  0  0  0  0  0  0
  1  2  1  0
  3  2  1  0
  3  5  1  0
  3  4  1  6
  5 11  1  0
  6  5  2  0
  8  7  1  6
  8  9  1  0
 10  8  1  0
 10 12  1  0
 10 11  1  6
 12 20  1  0
 13 12  2  0
 15 14  1  0
 15 16  2  0
 17 15  1  0
 18 17  1  0
 19 21  1  0
 19 18  1  6
 20 19  1  0
 21 23  1  0
 22 21  2  0
M  END
$$$$
