SVQ.pdb
     RDKit          3D

 23 22  0  0  1  0  0  0  0  0999 V2000
    7.3681  -16.7974   21.6576 O   0  0  0  0  0  0  0  0  0  0  0  0
    6.3858  -15.8360   21.6101 C   0  0  0  0  0  0  0  0  0  0  0  0
    6.9530  -14.4334   21.4246 C   0  0  2  0  0  0  0  0  0  0  0  0
    7.6648  -14.3626   20.1716 N   0  0  0  0  0  0  0  0  0  0  0  0
    7.8636  -14.1952   22.5749 C   0  0  0  0  0  0  0  0  0  0  0  0
    9.0933  -14.4564   22.5123 O   0  0  0  0  0  0  0  0  0  0  0  0
    8.1668  -12.3100   27.1058 C   0  0  0  0  0  0  0  0  0  0  0  0
    7.2868  -12.6027   25.8858 C   0  0  2  0  0  0  0  0  0  0  0  0
    5.9803  -13.1855   26.3329 C   0  0  0  0  0  0  0  0  0  0  0  0
    8.0770  -13.5281   25.0023 C   0  0  2  0  0  0  0  0  0  0  0  0
    7.3328  -13.6653   23.7588 N   0  0  0  0  0  0  0  0  0  0  0  0
    8.2693  -14.8659   25.6017 C   0  0  0  0  0  0  0  0  0  0  0  0
    7.3329  -15.6929   25.5428 O   0  0  0  0  0  0  0  0  0  0  0  0
   12.7276  -18.6896   24.3399 N   0  0  0  0  0  0  0  0  0  0  0  0
   12.3857  -19.1281   25.6244 C   0  0  0  0  0  0  0  0  0  0  0  0
   12.9929  -20.0963   26.1339 O   0  0  0  0  0  0  0  0  0  0  0  0
   11.3062  -18.4892   26.4473 C   0  0  0  0  0  0  0  0  0  0  0  0
   10.8943  -17.1681   25.8765 C   0  0  0  0  0  0  0  0  0  0  0  0
    9.8005  -16.5698   26.6639 C   0  0  2  0  0  0  0  0  0  0  0  0
    9.4734  -15.2130   26.2269 N   0  0  0  0  0  0  0  0  0  0  0  0
   10.1410  -16.4998   28.0859 C   0  0  0  0  0  0  0  0  0  0  0  0
   10.5066  -15.3502   28.5453 O   0  0  0  0  0  0  0  0  0  0  0  0
   10.1121  -17.5336   29.0065 O   0  0  0  0  0  0  0  0  0  0  0  0
  1  2  1  0
  3  2  1  0
  3  5  1  0
  3  4  1  6
  5 11  1  0
  6  5  2  0
  8  7  1  1
  8  9  1  0
 10  8  1  0
 10 12  1  0
 10 11  1  6
 12 20  1  0
 13 12  2  0
 15 14  1  0
 15 16  2  0
 17 15  1  0
 18 17  1  0
 19 21  1  0
 19 18  1  6
 20 19  1  0
 21 23  1  0
 22 21  2  0
M  END
$$$$
