SVQ.pdb
     RDKit          3D

 23 22  0  0  1  0  0  0  0  0999 V2000
    6.5372  -16.1674   21.4702 O   0  0  0  0  0  0  0  0  0  0  0  0
    7.1447  -15.2569   20.6375 C   0  0  0  0  0  0  0  0  0  0  0  0
    7.1437  -13.8472   21.2173 C   0  0  2  0  0  0  0  0  0  0  0  0
    7.7067  -12.9298   20.2565 N   0  0  0  0  0  0  0  0  0  0  0  0
    7.9666  -13.9033   22.4538 C   0  0  0  0  0  0  0  0  0  0  0  0
    9.2084  -14.1050   22.4154 O   0  0  0  0  0  0  0  0  0  0  0  0
    5.7920  -13.5145   25.9005 C   0  0  0  0  0  0  0  0  0  0  0  0
    7.1977  -12.9043   25.9205 C   0  0  2  0  0  0  0  0  0  0  0  0
    7.1253  -11.4553   25.5437 C   0  0  0  0  0  0  0  0  0  0  0  0
    8.0311  -13.7220   24.9729 C   0  0  2  0  0  0  0  0  0  0  0  0
    7.3371  -13.7262   23.6934 N   0  0  0  0  0  0  0  0  0  0  0  0
    8.2140  -15.1164   25.4292 C   0  0  0  0  0  0  0  0  0  0  0  0
    7.2923  -15.9394   25.2361 O   0  0  0  0  0  0  0  0  0  0  0  0
   13.1767  -18.3542   24.1589 N   0  0  0  0  0  0  0  0  0  0  0  0
   12.4661  -19.2105   25.0079 C   0  0  0  0  0  0  0  0  0  0  0  0
   12.8476  -20.3922   25.1620 O   0  0  0  0  0  0  0  0  0  0  0  0
   11.2423  -18.7839   25.7636 C   0  0  0  0  0  0  0  0  0  0  0  0
   10.9519  -17.3301   25.5563 C   0  0  0  0  0  0  0  0  0  0  0  0
    9.7501  -16.9189   26.3053 C   0  0  2  0  0  0  0  0  0  0  0  0
    9.3932  -15.5207   26.0673 N   0  0  0  0  0  0  0  0  0  0  0  0
    9.9368  -17.0818   27.7481 C   0  0  0  0  0  0  0  0  0  0  0  0
   10.0337  -18.2893   28.1940 O   0  0  0  0  0  0  0  0  0  0  0  0
   10.0269  -16.0802   28.6999 O   0  0  0  0  0  0  0  0  0  0  0  0
  1  2  1  0
  3  2  1  0
  3  5  1  0
  3  4  1  6
  5 11  1  0
  6  5  2  0
  8  7  1  6
  8  9  1  0
 10  8  1  0
 10 12  1  0
 10 11  1  6
 12 20  1  0
 13 12  2  0
 15 14  1  0
 15 16  2  0
 17 15  1  0
 18 17  1  0
 19 21  1  0
 19 18  1  6
 20 19  1  0
 21 23  1  0
 22 21  2  0
M  END
$$$$
