SVQ.pdb
     RDKit          3D

 23 22  0  0  1  0  0  0  0  0999 V2000
    5.9492  -15.9999   21.7731 O   0  0  0  0  0  0  0  0  0  0  0  0
    6.7226  -15.4421   20.7821 C   0  0  0  0  0  0  0  0  0  0  0  0
    7.1160  -14.0025   21.0920 C   0  0  2  0  0  0  0  0  0  0  0  0
    7.9225  -13.4802   20.0157 N   0  0  0  0  0  0  0  0  0  0  0  0
    7.8801  -14.0430   22.3662 C   0  0  0  0  0  0  0  0  0  0  0  0
    9.0604  -14.4771   22.4181 O   0  0  0  0  0  0  0  0  0  0  0  0
    7.8287  -12.4428   27.0229 C   0  0  0  0  0  0  0  0  0  0  0  0
    7.0715  -12.6150   25.7017 C   0  0  2  0  0  0  0  0  0  0  0  0
    5.7128  -13.1887   25.9687 C   0  0  0  0  0  0  0  0  0  0  0  0
    7.9260  -13.4953   24.8321 C   0  0  2  0  0  0  0  0  0  0  0  0
    7.2645  -13.5840   23.5386 N   0  0  0  0  0  0  0  0  0  0  0  0
    8.0932  -14.8563   25.3849 C   0  0  0  0  0  0  0  0  0  0  0  0
    7.1679  -15.6846   25.2372 O   0  0  0  0  0  0  0  0  0  0  0  0
   12.3438  -19.7341   23.5370 N   0  0  0  0  0  0  0  0  0  0  0  0
   12.3795  -18.6576   24.4309 C   0  0  0  0  0  0  0  0  0  0  0  0
   13.3824  -17.9103   24.4658 O   0  0  0  0  0  0  0  0  0  0  0  0
   11.2570  -18.3389   25.3739 C   0  0  0  0  0  0  0  0  0  0  0  0
   10.8473  -16.9030   25.2694 C   0  0  0  0  0  0  0  0  0  0  0  0
    9.7311  -16.6035   26.1853 C   0  0  2  0  0  0  0  0  0  0  0  0
    9.2618  -15.2238   26.0636 N   0  0  0  0  0  0  0  0  0  0  0  0
   10.1147  -16.8121   27.5826 C   0  0  0  0  0  0  0  0  0  0  0  0
   10.3256  -15.7574   28.2963 O   0  0  0  0  0  0  0  0  0  0  0  0
   10.2753  -18.0223   28.2359 O   0  0  0  0  0  0  0  0  0  0  0  0
  1  2  1  0
  3  2  1  0
  3  5  1  0
  3  4  1  6
  5 11  1  0
  6  5  2  0
  8  7  1  1
  8  9  1  0
 10  8  1  0
 10 12  1  0
 10 11  1  6
 12 20  1  0
 13 12  2  0
 15 14  1  0
 15 16  2  0
 17 15  1  0
 18 17  1  0
 19 21  1  0
 19 18  1  6
 20 19  1  0
 21 23  1  0
 22 21  2  0
M  END
$$$$
