SVQ.pdb
     RDKit          3D

 23 22  0  0  1  0  0  0  0  0999 V2000
    6.4754  -17.4804   21.2254 O   0  0  0  0  0  0  0  0  0  0  0  0
    7.5459  -16.6966   20.8633 C   0  0  0  0  0  0  0  0  0  0  0  0
    7.2248  -15.2079   20.9272 C   0  0  2  0  0  0  0  0  0  0  0  0
    7.6350  -14.5725   19.6985 N   0  0  0  0  0  0  0  0  0  0  0  0
    7.9774  -14.6676   22.0895 C   0  0  0  0  0  0  0  0  0  0  0  0
    9.2263  -14.5139   22.0574 O   0  0  0  0  0  0  0  0  0  0  0  0
    7.5335  -12.3383   26.3350 C   0  0  0  0  0  0  0  0  0  0  0  0
    6.8196  -13.2311   25.3143 C   0  0  2  0  0  0  0  0  0  0  0  0
    5.9475  -14.2187   26.0290 C   0  0  0  0  0  0  0  0  0  0  0  0
    7.8959  -13.8797   24.4886 C   0  0  2  0  0  0  0  0  0  0  0  0
    7.2719  -14.3215   23.2500 N   0  0  0  0  0  0  0  0  0  0  0  0
    8.5112  -15.0430   25.1626 C   0  0  0  0  0  0  0  0  0  0  0  0
    7.9643  -16.1623   25.0518 O   0  0  0  0  0  0  0  0  0  0  0  0
   12.1413  -16.4195   30.0837 N   0  0  0  0  0  0  0  0  0  0  0  0
   11.3656  -15.2621   29.9501 C   0  0  0  0  0  0  0  0  0  0  0  0
   11.0329  -14.6146   30.9677 O   0  0  0  0  0  0  0  0  0  0  0  0
   10.8976  -14.7388   28.6242 C   0  0  0  0  0  0  0  0  0  0  0  0
   11.4282  -15.5638   27.4935 C   0  0  0  0  0  0  0  0  0  0  0  0
   10.3367  -16.0156   26.6108 C   0  0  2  0  0  0  0  0  0  0  0  0
    9.6850  -14.9071   25.9142 N   0  0  0  0  0  0  0  0  0  0  0  0
    9.3014  -16.7279   27.3616 C   0  0  0  0  0  0  0  0  0  0  0  0
    8.2481  -16.0571   27.6886 O   0  0  0  0  0  0  0  0  0  0  0  0
    9.3188  -18.0532   27.7623 O   0  0  0  0  0  0  0  0  0  0  0  0
  1  2  1  0
  3  2  1  0
  3  5  1  0
  3  4  1  6
  5 11  1  0
  6  5  2  0
  8  7  1  1
  8  9  1  0
 10  8  1  0
 10 12  1  0
 10 11  1  6
 12 20  1  0
 13 12  2  0
 15 14  1  0
 15 16  2  0
 17 15  1  0
 18 17  1  0
 19 21  1  0
 19 18  1  1
 20 19  1  0
 21 23  1  0
 22 21  2  0
M  END
$$$$
