SVQ.pdb
     RDKit          3D

 23 22  0  0  1  0  0  0  0  0999 V2000
    7.0169  -18.9629   18.9821 O   0  0  0  0  0  0  0  0  0  0  0  0
    7.6488  -18.9294   17.7610 C   0  0  0  0  0  0  0  0  0  0  0  0
    7.7940  -17.5118   17.2198 C   0  0  2  0  0  0  0  0  0  0  0  0
    8.4928  -17.5463   15.9579 N   0  0  0  0  0  0  0  0  0  0  0  0
    8.5627  -16.7517   18.2398 C   0  0  0  0  0  0  0  0  0  0  0  0
    9.7467  -17.0553   18.5402 O   0  0  0  0  0  0  0  0  0  0  0  0
    8.5105  -12.6965   21.0266 C   0  0  0  0  0  0  0  0  0  0  0  0
    7.7562  -13.6067   20.0513 C   0  0  2  0  0  0  0  0  0  0  0  0
    6.3733  -13.8656   20.5679 C   0  0  0  0  0  0  0  0  0  0  0  0
    8.5800  -14.8569   19.9109 C   0  0  2  0  0  0  0  0  0  0  0  0
    7.9471  -15.6683   18.8814 N   0  0  0  0  0  0  0  0  0  0  0  0
    8.6543  -15.6369   21.1647 C   0  0  0  0  0  0  0  0  0  0  0  0
    7.8102  -16.5378   21.3648 O   0  0  0  0  0  0  0  0  0  0  0  0
    9.8600  -19.8860   21.5991 N   0  0  0  0  0  0  0  0  0  0  0  0
   11.0025  -19.8083   22.4038 C   0  0  0  0  0  0  0  0  0  0  0  0
   11.5687  -20.8573   22.7844 O   0  0  0  0  0  0  0  0  0  0  0  0
   11.6038  -18.5077   22.8484 C   0  0  0  0  0  0  0  0  0  0  0  0
   11.0768  -17.3598   22.0451 C   0  0  0  0  0  0  0  0  0  0  0  0
   10.3163  -16.4247   22.8947 C   0  0  2  0  0  0  0  0  0  0  0  0
    9.6470  -15.3812   22.1188 N   0  0  0  0  0  0  0  0  0  0  0  0
   11.1847  -15.7569   23.8658 C   0  0  0  0  0  0  0  0  0  0  0  0
   10.9944  -16.0362   25.1116 O   0  0  0  0  0  0  0  0  0  0  0  0
   12.2002  -14.8539   23.6002 O   0  0  0  0  0  0  0  0  0  0  0  0
  1  2  1  0
  3  2  1  0
  3  5  1  0
  3  4  1  6
  5 11  1  0
  6  5  2  0
  8  7  1  1
  8  9  1  0
 10  8  1  0
 10 12  1  0
 10 11  1  6
 12 20  1  0
 13 12  2  0
 15 14  1  0
 15 16  2  0
 17 15  1  0
 18 17  1  0
 19 21  1  0
 19 18  1  6
 20 19  1  0
 21 23  1  0
 22 21  2  0
M  END
$$$$
