SVQ.pdb
     RDKit          3D

 23 22  0  0  1  0  0  0  0  0999 V2000
    5.5823  -16.8253   22.1735 O   0  0  0  0  0  0  0  0  0  0  0  0
    6.8348  -16.2605   22.1131 C   0  0  0  0  0  0  0  0  0  0  0  0
    6.7888  -14.7375   22.1561 C   0  0  2  0  0  0  0  0  0  0  0  0
    7.1574  -14.2069   20.8659 N   0  0  0  0  0  0  0  0  0  0  0  0
    7.7548  -14.3196   23.2055 C   0  0  0  0  0  0  0  0  0  0  0  0
    8.9972  -14.3268   23.0040 O   0  0  0  0  0  0  0  0  0  0  0  0
    6.0041  -13.4375   26.8167 C   0  0  0  0  0  0  0  0  0  0  0  0
    7.2816  -12.6619   26.4773 C   0  0  2  0  0  0  0  0  0  0  0  0
    6.9244  -11.3570   25.8322 C   0  0  0  0  0  0  0  0  0  0  0  0
    8.1007  -13.5573   25.5893 C   0  0  2  0  0  0  0  0  0  0  0  0
    7.2630  -13.9074   24.4516 N   0  0  0  0  0  0  0  0  0  0  0  0
    8.5353  -14.7957   26.2700 C   0  0  0  0  0  0  0  0  0  0  0  0
    7.6659  -15.5598   26.7438 O   0  0  0  0  0  0  0  0  0  0  0  0
   13.6824  -17.6014   24.4608 N   0  0  0  0  0  0  0  0  0  0  0  0
   13.7587  -16.4237   25.2133 C   0  0  0  0  0  0  0  0  0  0  0  0
   14.7749  -15.6980   25.1329 O   0  0  0  0  0  0  0  0  0  0  0  0
   12.6654  -15.9684   26.1343 C   0  0  0  0  0  0  0  0  0  0  0  0
   11.5149  -16.9261   26.1313 C   0  0  0  0  0  0  0  0  0  0  0  0
   10.3820  -16.3941   26.9110 C   0  0  2  0  0  0  0  0  0  0  0  0
    9.8928  -15.1187   26.3887 N   0  0  0  0  0  0  0  0  0  0  0  0
   10.7500  -16.1795   28.3115 C   0  0  0  0  0  0  0  0  0  0  0  0
   11.0826  -17.2217   28.9966 O   0  0  0  0  0  0  0  0  0  0  0  0
   10.7874  -14.9748   28.9931 O   0  0  0  0  0  0  0  0  0  0  0  0
  1  2  1  0
  3  2  1  0
  3  5  1  0
  3  4  1  6
  5 11  1  0
  6  5  2  0
  8  7  1  6
  8  9  1  0
 10  8  1  0
 10 12  1  0
 10 11  1  6
 12 20  1  0
 13 12  2  0
 15 14  1  0
 15 16  2  0
 17 15  1  0
 18 17  1  0
 19 21  1  0
 19 18  1  6
 20 19  1  0
 21 23  1  0
 22 21  2  0
M  END
$$$$
