FYW.pdb
     RDKit          3D

 38 41  0  0  1  0  0  0  0  0999 V2000
   28.0053  -20.8469  -17.9554 N   0  0  0  0  0  0  0  0  0  0  0  0
   27.7691  -19.9733  -16.8454 C   0  0  1  0  0  0  0  0  0  0  0  0
   27.0785  -18.6991  -17.2790 C   0  0  0  0  0  0  0  0  0  0  0  0
   28.0739  -17.9505  -18.0859 C   0  0  0  0  0  0  0  0  0  0  0  0
   27.8194  -17.6207  -19.3971 C   0  0  0  0  0  0  0  0  0  0  0  0
   28.7422  -16.9209  -20.1704 C   0  0  0  0  0  0  0  0  0  0  0  0
   29.9624  -16.5301  -19.6339 C   0  0  0  0  0  0  0  0  0  0  0  0
   30.2167  -16.8585  -18.3260 C   0  0  0  0  0  0  0  0  0  0  0  0
   29.2967  -17.5494  -17.5753 C   0  0  0  0  0  0  0  0  0  0  0  0
   27.1388  -20.6457  -15.7026 C   0  0  0  0  0  0  0  0  0  0  0  0
   26.2417  -21.5030  -15.9805 O   0  0  0  0  0  0  0  0  0  0  0  0
   24.2135  -21.0046   -7.2522 O   0  0  0  0  0  0  0  0  0  0  0  0
   24.9631  -20.8632   -8.3996 C   0  0  0  0  0  0  0  0  0  0  0  0
   25.4581  -21.9787   -9.0411 C   0  0  0  0  0  0  0  0  0  0  0  0
   26.2096  -21.8519  -10.1902 C   0  0  0  0  0  0  0  0  0  0  0  0
   26.5005  -20.6244  -10.7487 C   0  0  0  0  0  0  0  0  0  0  0  0
   27.2958  -20.4366  -11.9601 C   0  0  0  0  0  0  0  0  0  0  0  0
   26.5779  -20.7569  -13.2489 C   0  0  2  0  0  0  0  0  0  0  0  0
   27.4488  -20.4161  -14.3561 N   0  0  0  0  0  0  0  0  0  0  0  0
   25.2790  -20.0584  -13.3826 C   0  0  0  0  0  0  0  0  0  0  0  0
   25.2002  -18.8493  -13.7326 O   0  0  0  0  0  0  0  0  0  0  0  0
   26.0001  -19.5155  -10.0985 C   0  0  0  0  0  0  0  0  0  0  0  0
   25.2412  -19.6300   -8.9394 C   0  0  0  0  0  0  0  0  0  0  0  0
   24.0302  -20.6983  -13.1262 N   0  0  0  0  0  0  0  0  0  0  0  0
   22.7519  -20.1071  -13.4375 C   0  0  1  0  0  0  0  0  0  0  0  0
   22.6119  -19.7705  -14.8985 C   0  0  0  0  0  0  0  0  0  0  0  0
   21.3251  -19.0817  -15.1739 C   0  0  0  0  0  0  0  0  0  0  0  0
   20.5801  -18.3913  -14.2426 C   0  0  0  0  0  0  0  0  0  0  0  0
   19.4811  -17.9015  -14.8504 N   0  0  0  0  0  0  0  0  0  0  0  0
   19.5133  -18.2635  -16.1363 C   0  0  0  0  0  0  0  0  0  0  0  0
   18.6158  -18.0032  -17.1516 C   0  0  0  0  0  0  0  0  0  0  0  0
   18.8455  -18.4760  -18.4096 C   0  0  0  0  0  0  0  0  0  0  0  0
   19.9997  -19.2222  -18.6419 C   0  0  0  0  0  0  0  0  0  0  0  0
   20.9028  -19.4920  -17.6487 C   0  0  0  0  0  0  0  0  0  0  0  0
   20.6664  -19.0117  -16.3769 C   0  0  0  0  0  0  0  0  0  0  0  0
   21.6291  -21.0391  -13.0995 C   0  0  0  0  0  0  0  0  0  0  0  0
   21.6885  -22.2459  -13.4556 O   0  0  0  0  0  0  0  0  0  0  0  0
   20.5204  -20.5939  -12.3981 O   0  0  0  0  0  0  0  0  0  0  0  0
  2  1  1  6
  2  3  1  0
  3  4  1  0
  4  9  1  0
  4  5  2  0
  5  6  1  0
  6  7  2  0
  8  7  1  0
  9  8  2  0
 10  2  1  0
 11 10  2  0
 12 13  1  0
 13 14  2  0
 14 15  1  0
 16 15  2  0
 16 17  1  0
 18 17  1  1
 18 20  1  0
 18 19  1  0
 19 10  1  0
 20 21  2  0
 22 16  1  0
 23 13  1  0
 23 22  2  0
 24 25  1  0
 24 20  1  0
 25 26  1  6
 26 27  1  0
 27 28  2  0
 28 29  1  0
 30 29  1  0
 31 30  2  0
 32 31  1  0
 33 34  1  0
 33 32  2  0
 34 35  2  0
 35 27  1  0
 35 30  1  0
 36 25  1  0
 36 38  1  0
 37 36  2  0
M  END
$$$$
