FYW.pdb
     RDKit          3D

 38 41  0  0  1  0  0  0  0  0999 V2000
   23.6710  -17.1398  -20.7933 N   0  0  0  0  0  0  0  0  0  0  0  0
   23.7194  -17.0528  -19.3646 C   0  0  1  0  0  0  0  0  0  0  0  0
   22.8822  -15.9027  -18.8498 C   0  0  0  0  0  0  0  0  0  0  0  0
   23.5377  -14.6674  -19.3464 C   0  0  0  0  0  0  0  0  0  0  0  0
   22.9977  -13.9481  -20.3875 C   0  0  0  0  0  0  0  0  0  0  0  0
   23.5997  -12.7882  -20.8685 C   0  0  0  0  0  0  0  0  0  0  0  0
   24.7783  -12.3171  -20.3042 C   0  0  0  0  0  0  0  0  0  0  0  0
   25.3173  -13.0339  -19.2655 C   0  0  0  0  0  0  0  0  0  0  0  0
   24.7121  -14.1766  -18.8016 C   0  0  0  0  0  0  0  0  0  0  0  0
   23.4640  -18.3350  -18.6968 C   0  0  0  0  0  0  0  0  0  0  0  0
   22.5108  -19.0329  -19.1674 O   0  0  0  0  0  0  0  0  0  0  0  0
   24.6461  -25.8135  -14.0892 O   0  0  0  0  0  0  0  0  0  0  0  0
   24.7744  -24.5791  -14.6879 C   0  0  0  0  0  0  0  0  0  0  0  0
   24.9112  -24.4882  -16.0569 C   0  0  0  0  0  0  0  0  0  0  0  0
   25.0404  -23.2595  -16.6693 C   0  0  0  0  0  0  0  0  0  0  0  0
   25.0395  -22.0777  -15.9575 C   0  0  0  0  0  0  0  0  0  0  0  0
   25.1784  -20.7527  -16.5579 C   0  0  0  0  0  0  0  0  0  0  0  0
   23.8778  -20.0830  -16.9303 C   0  0  2  0  0  0  0  0  0  0  0  0
   24.1803  -18.8349  -17.6020 N   0  0  0  0  0  0  0  0  0  0  0  0
   22.9927  -19.8401  -15.7681 C   0  0  0  0  0  0  0  0  0  0  0  0
   23.2891  -19.0173  -14.8593 O   0  0  0  0  0  0  0  0  0  0  0  0
   24.9020  -22.1809  -14.5888 C   0  0  0  0  0  0  0  0  0  0  0  0
   24.7710  -23.4134  -13.9595 C   0  0  0  0  0  0  0  0  0  0  0  0
   21.7485  -20.5153  -15.5929 N   0  0  0  0  0  0  0  0  0  0  0  0
   20.9375  -20.3985  -14.4059 C   0  0  1  0  0  0  0  0  0  0  0  0
   19.8191  -19.4031  -14.5664 C   0  0  0  0  0  0  0  0  0  0  0  0
   19.0784  -19.6218  -15.8351 C   0  0  0  0  0  0  0  0  0  0  0  0
   18.4451  -20.7925  -16.1919 C   0  0  0  0  0  0  0  0  0  0  0  0
   17.8812  -20.6226  -17.4044 N   0  0  0  0  0  0  0  0  0  0  0  0
   18.1413  -19.3797  -17.8205 C   0  0  0  0  0  0  0  0  0  0  0  0
   17.7791  -18.7442  -18.9906 C   0  0  0  0  0  0  0  0  0  0  0  0
   18.1569  -17.4539  -19.2169 C   0  0  0  0  0  0  0  0  0  0  0  0
   18.9114  -16.7989  -18.2449 C   0  0  0  0  0  0  0  0  0  0  0  0
   19.2814  -17.4111  -17.0774 C   0  0  0  0  0  0  0  0  0  0  0  0
   18.8971  -18.7172  -16.8524 C   0  0  0  0  0  0  0  0  0  0  0  0
   20.3024  -21.7088  -14.0545 C   0  0  0  0  0  0  0  0  0  0  0  0
   19.6250  -21.8126  -12.9975 O   0  0  0  0  0  0  0  0  0  0  0  0
   20.4481  -22.8143  -14.8766 O   0  0  0  0  0  0  0  0  0  0  0  0
  2  1  1  6
  2  3  1  0
  3  4  1  0
  4  9  1  0
  4  5  2  0
  5  6  1  0
  6  7  2  0
  8  7  1  0
  9  8  2  0
 10  2  1  0
 11 10  2  0
 12 13  1  0
 13 14  2  0
 14 15  1  0
 16 15  2  0
 16 17  1  0
 18 17  1  1
 18 20  1  0
 18 19  1  0
 19 10  1  0
 20 21  2  0
 22 16  1  0
 23 13  1  0
 23 22  2  0
 24 25  1  0
 24 20  1  0
 25 26  1  6
 26 27  1  0
 27 28  2  0
 28 29  1  0
 30 29  1  0
 31 30  2  0
 32 31  1  0
 33 34  1  0
 33 32  2  0
 34 35  2  0
 35 27  1  0
 35 30  1  0
 36 25  1  0
 36 38  1  0
 37 36  2  0
M  END
$$$$
