FYW.pdb
     RDKit          3D

 38 41  0  0  1  0  0  0  0  0999 V2000
   28.6706  -20.7960   -8.5323 N   0  0  0  0  0  0  0  0  0  0  0  0
   27.3062  -20.3875   -8.3818 C   0  0  1  0  0  0  0  0  0  0  0  0
   27.1745  -19.2423   -7.4021 C   0  0  0  0  0  0  0  0  0  0  0  0
   27.8846  -19.6742   -6.1727 C   0  0  0  0  0  0  0  0  0  0  0  0
   27.2553  -20.4492   -5.2261 C   0  0  0  0  0  0  0  0  0  0  0  0
   27.9046  -20.8620   -4.0654 C   0  0  0  0  0  0  0  0  0  0  0  0
   29.2238  -20.4988   -3.8260 C   0  0  0  0  0  0  0  0  0  0  0  0
   29.8522  -19.7260   -4.7700 C   0  0  0  0  0  0  0  0  0  0  0  0
   29.1988  -19.3262   -5.9103 C   0  0  0  0  0  0  0  0  0  0  0  0
   26.6213  -20.1716   -9.6623 C   0  0  0  0  0  0  0  0  0  0  0  0
   26.9258  -19.1081  -10.2895 O   0  0  0  0  0  0  0  0  0  0  0  0
   29.1854  -21.0762  -16.6034 O   0  0  0  0  0  0  0  0  0  0  0  0
   28.3095  -21.3321  -15.5710 C   0  0  0  0  0  0  0  0  0  0  0  0
   26.9544  -21.1601  -15.7584 C   0  0  0  0  0  0  0  0  0  0  0  0
   26.0666  -21.4125  -14.7341 C   0  0  0  0  0  0  0  0  0  0  0  0
   26.4797  -21.8429  -13.4901 C   0  0  0  0  0  0  0  0  0  0  0  0
   25.5807  -22.1187  -12.3717 C   0  0  0  0  0  0  0  0  0  0  0  0
   25.1598  -20.9049  -11.5790 C   0  0  2  0  0  0  0  0  0  0  0  0
   25.6768  -21.0352  -10.2313 N   0  0  0  0  0  0  0  0  0  0  0  0
   23.6924  -20.7069  -11.5498 C   0  0  0  0  0  0  0  0  0  0  0  0
   22.9285  -21.4490  -10.8744 O   0  0  0  0  0  0  0  0  0  0  0  0
   27.8375  -22.0116  -13.3142 C   0  0  0  0  0  0  0  0  0  0  0  0
   28.7428  -21.7605  -14.3389 C   0  0  0  0  0  0  0  0  0  0  0  0
   23.0405  -19.6691  -12.2796 N   0  0  0  0  0  0  0  0  0  0  0  0
   21.6112  -19.4757  -12.2875 C   0  0  1  0  0  0  0  0  0  0  0  0
   21.2008  -18.2326  -13.0314 C   0  0  0  0  0  0  0  0  0  0  0  0
   19.7253  -18.0627  -13.0282 C   0  0  0  0  0  0  0  0  0  0  0  0
   18.9586  -17.8099  -11.9113 C   0  0  0  0  0  0  0  0  0  0  0  0
   17.6681  -17.7165  -12.2893 N   0  0  0  0  0  0  0  0  0  0  0  0
   17.6007  -17.9031  -13.6107 C   0  0  0  0  0  0  0  0  0  0  0  0
   16.5054  -17.9012  -14.4500 C   0  0  0  0  0  0  0  0  0  0  0  0
   16.6638  -18.1169  -15.7868 C   0  0  0  0  0  0  0  0  0  0  0  0
   17.9489  -18.3375  -16.2798 C   0  0  0  0  0  0  0  0  0  0  0  0
   19.0488  -18.3436  -15.4644 C   0  0  0  0  0  0  0  0  0  0  0  0
   18.8841  -18.1249  -14.1120 C   0  0  0  0  0  0  0  0  0  0  0  0
   20.9143  -20.6248  -12.9490 C   0  0  0  0  0  0  0  0  0  0  0  0
   21.4250  -21.1650  -13.9660 O   0  0  0  0  0  0  0  0  0  0  0  0
   19.7112  -21.1060  -12.4589 O   0  0  0  0  0  0  0  0  0  0  0  0
  2  1  1  6
  2  3  1  0
  3  4  1  0
  4  9  1  0
  4  5  2  0
  5  6  1  0
  6  7  2  0
  8  7  1  0
  9  8  2  0
 10  2  1  0
 11 10  2  0
 12 13  1  0
 13 14  2  0
 14 15  1  0
 16 15  2  0
 16 17  1  0
 18 17  1  6
 18 20  1  0
 18 19  1  0
 19 10  1  0
 20 21  2  0
 22 16  1  0
 23 13  1  0
 23 22  2  0
 24 25  1  0
 24 20  1  0
 25 26  1  6
 26 27  1  0
 27 28  2  0
 28 29  1  0
 30 29  1  0
 31 30  2  0
 32 31  1  0
 33 34  1  0
 33 32  2  0
 34 35  2  0
 35 27  1  0
 35 30  1  0
 36 25  1  0
 36 38  1  0
 37 36  2  0
M  END
$$$$
