FYW.pdb
     RDKit          3D

 38 41  0  0  1  0  0  0  0  0999 V2000
   24.2825  -16.2072  -18.5177 N   0  0  0  0  0  0  0  0  0  0  0  0
   24.8564  -17.4230  -18.0244 C   0  0  1  0  0  0  0  0  0  0  0  0
   26.3108  -17.5512  -18.4206 C   0  0  0  0  0  0  0  0  0  0  0  0
   26.3100  -17.9459  -19.8511 C   0  0  0  0  0  0  0  0  0  0  0  0
   26.0964  -19.2524  -20.2256 C   0  0  0  0  0  0  0  0  0  0  0  0
   26.0945  -19.6420  -21.5626 C   0  0  0  0  0  0  0  0  0  0  0  0
   26.3110  -18.7110  -22.5705 C   0  0  0  0  0  0  0  0  0  0  0  0
   26.5239  -17.4076  -22.1977 C   0  0  0  0  0  0  0  0  0  0  0  0
   26.5230  -17.0381  -20.8746 C   0  0  0  0  0  0  0  0  0  0  0  0
   24.5945  -17.6505  -16.5978 C   0  0  0  0  0  0  0  0  0  0  0  0
   25.1652  -16.8531  -15.7882 O   0  0  0  0  0  0  0  0  0  0  0  0
   20.6198  -20.3687   -9.1249 O   0  0  0  0  0  0  0  0  0  0  0  0
   20.9786  -20.1021  -10.4282 C   0  0  0  0  0  0  0  0  0  0  0  0
   21.4552  -21.1154  -11.2326 C   0  0  0  0  0  0  0  0  0  0  0  0
   21.8179  -20.8628  -12.5388 C   0  0  0  0  0  0  0  0  0  0  0  0
   21.7245  -19.6058  -13.0996 C   0  0  0  0  0  0  0  0  0  0  0  0
   22.1003  -19.2858  -14.4750 C   0  0  0  0  0  0  0  0  0  0  0  0
   23.5389  -18.8676  -14.6609 C   0  0  2  0  0  0  0  0  0  0  0  0
   23.7775  -18.6611  -16.0754 N   0  0  0  0  0  0  0  0  0  0  0  0
   24.5065  -19.8462  -14.1137 C   0  0  0  0  0  0  0  0  0  0  0  0
   24.8315  -20.8910  -14.7409 O   0  0  0  0  0  0  0  0  0  0  0  0
   21.2463  -18.6001  -12.2856 C   0  0  0  0  0  0  0  0  0  0  0  0
   20.8775  -18.8417  -10.9672 C   0  0  0  0  0  0  0  0  0  0  0  0
   25.1369  -19.6792  -12.8452 N   0  0  0  0  0  0  0  0  0  0  0  0
   26.0842  -20.6177  -12.2953 C   0  0  1  0  0  0  0  0  0  0  0  0
   26.9399  -20.0090  -11.2161 C   0  0  0  0  0  0  0  0  0  0  0  0
   26.4420  -20.3686   -9.8638 C   0  0  0  0  0  0  0  0  0  0  0  0
   25.5093  -21.3473   -9.5965 C   0  0  0  0  0  0  0  0  0  0  0  0
   25.3044  -21.3922   -8.2649 N   0  0  0  0  0  0  0  0  0  0  0  0
   26.0808  -20.4707   -7.6872 C   0  0  0  0  0  0  0  0  0  0  0  0
   26.2197  -20.1400   -6.3547 C   0  0  0  0  0  0  0  0  0  0  0  0
   27.0806  -19.1521   -5.9782 C   0  0  0  0  0  0  0  0  0  0  0  0
   27.8103  -18.4907   -6.9647 C   0  0  0  0  0  0  0  0  0  0  0  0
   27.6873  -18.8032   -8.2920 C   0  0  0  0  0  0  0  0  0  0  0  0
   26.8148  -19.8036   -8.6689 C   0  0  0  0  0  0  0  0  0  0  0  0
   25.3866  -21.7927  -11.6819 C   0  0  0  0  0  0  0  0  0  0  0  0
   24.1650  -21.7107  -11.3856 O   0  0  0  0  0  0  0  0  0  0  0  0
   26.0657  -22.9744  -11.4335 O   0  0  0  0  0  0  0  0  0  0  0  0
  2  1  1  1
  2  3  1  0
  3  4  1  0
  4  9  1  0
  4  5  2  0
  5  6  1  0
  6  7  2  0
  8  7  1  0
  9  8  2  0
 10  2  1  0
 11 10  2  0
 12 13  1  0
 13 14  2  0
 14 15  1  0
 16 15  2  0
 16 17  1  0
 18 17  1  6
 18 20  1  0
 18 19  1  0
 19 10  1  0
 20 21  2  0
 22 16  1  0
 23 13  1  0
 23 22  2  0
 24 25  1  0
 24 20  1  0
 25 26  1  1
 26 27  1  0
 27 28  2  0
 28 29  1  0
 30 29  1  0
 31 30  2  0
 32 31  1  0
 33 34  1  0
 33 32  2  0
 34 35  2  0
 35 27  1  0
 35 30  1  0
 36 25  1  0
 36 38  1  0
 37 36  2  0
M  END
$$$$
