FYW.pdb
     RDKit          3D

 38 41  0  0  1  0  0  0  0  0999 V2000
   26.1861  -19.4511  -16.0781 N   0  0  0  0  0  0  0  0  0  0  0  0
   25.0252  -18.9691  -15.3918 C   0  0  1  0  0  0  0  0  0  0  0  0
   24.2692  -17.9564  -16.2233 C   0  0  0  0  0  0  0  0  0  0  0  0
   25.1311  -16.7496  -16.2782 C   0  0  0  0  0  0  0  0  0  0  0  0
   25.3158  -15.9596  -15.1671 C   0  0  0  0  0  0  0  0  0  0  0  0
   26.1188  -14.8223  -15.2002 C   0  0  0  0  0  0  0  0  0  0  0  0
   26.7653  -14.4471  -16.3710 C   0  0  0  0  0  0  0  0  0  0  0  0
   26.5817  -15.2348  -17.4796 C   0  0  0  0  0  0  0  0  0  0  0  0
   25.7864  -16.3540  -17.4319 C   0  0  0  0  0  0  0  0  0  0  0  0
   24.1910  -20.0433  -14.8389 C   0  0  0  0  0  0  0  0  0  0  0  0
   24.1668  -21.1308  -15.4975 O   0  0  0  0  0  0  0  0  0  0  0  0
   28.3927  -20.9203   -9.8757 O   0  0  0  0  0  0  0  0  0  0  0  0
   27.0761  -20.9416  -10.2811 C   0  0  0  0  0  0  0  0  0  0  0  0
   26.6731  -21.8160  -11.2681 C   0  0  0  0  0  0  0  0  0  0  0  0
   25.3586  -21.8481  -11.6835 C   0  0  0  0  0  0  0  0  0  0  0  0
   24.3947  -21.0221  -11.1432 C   0  0  0  0  0  0  0  0  0  0  0  0
   22.9918  -21.0137  -11.5518 C   0  0  0  0  0  0  0  0  0  0  0  0
   22.7624  -21.0819  -13.0423 C   0  0  2  0  0  0  0  0  0  0  0  0
   23.4363  -19.9584  -13.6620 N   0  0  0  0  0  0  0  0  0  0  0  0
   21.3285  -21.0893  -13.4124 C   0  0  0  0  0  0  0  0  0  0  0  0
   20.5430  -20.1630  -13.0724 O   0  0  0  0  0  0  0  0  0  0  0  0
   24.8093  -20.1517  -10.1566 C   0  0  0  0  0  0  0  0  0  0  0  0
   26.1314  -20.1096   -9.7291 C   0  0  0  0  0  0  0  0  0  0  0  0
   20.7352  -22.1384  -14.1752 N   0  0  0  0  0  0  0  0  0  0  0  0
   19.3543  -22.1393  -14.5919 C   0  0  1  0  0  0  0  0  0  0  0  0
   19.0656  -23.1897  -15.6315 C   0  0  0  0  0  0  0  0  0  0  0  0
   17.6639  -23.1014  -16.1147 C   0  0  0  0  0  0  0  0  0  0  0  0
   17.1212  -22.0242  -16.7809 C   0  0  0  0  0  0  0  0  0  0  0  0
   15.8320  -22.2994  -17.0628 N   0  0  0  0  0  0  0  0  0  0  0  0
   15.5483  -23.5180  -16.5935 C   0  0  0  0  0  0  0  0  0  0  0  0
   14.3678  -24.2310  -16.6389 C   0  0  0  0  0  0  0  0  0  0  0  0
   14.2959  -25.4766  -16.0892 C   0  0  0  0  0  0  0  0  0  0  0  0
   15.4351  -26.0067  -15.4857 C   0  0  0  0  0  0  0  0  0  0  0  0
   16.6160  -25.3160  -15.4297 C   0  0  0  0  0  0  0  0  0  0  0  0
   16.6844  -24.0556  -15.9872 C   0  0  0  0  0  0  0  0  0  0  0  0
   18.4415  -22.4131  -13.4362 C   0  0  0  0  0  0  0  0  0  0  0  0
   17.3752  -21.7543  -13.3110 O   0  0  0  0  0  0  0  0  0  0  0  0
   18.7518  -23.3838  -12.4977 O   0  0  0  0  0  0  0  0  0  0  0  0
  2  1  1  6
  2  3  1  0
  3  4  1  0
  4  9  1  0
  4  5  2  0
  5  6  1  0
  6  7  2  0
  8  7  1  0
  9  8  2  0
 10  2  1  0
 11 10  2  0
 12 13  1  0
 13 14  2  0
 14 15  1  0
 16 15  2  0
 16 17  1  0
 18 17  1  1
 18 20  1  0
 18 19  1  0
 19 10  1  0
 20 21  2  0
 22 16  1  0
 23 13  1  0
 23 22  2  0
 24 25  1  0
 24 20  1  0
 25 26  1  6
 26 27  1  0
 27 28  2  0
 28 29  1  0
 30 29  1  0
 31 30  2  0
 32 31  1  0
 33 34  1  0
 33 32  2  0
 34 35  2  0
 35 27  1  0
 35 30  1  0
 36 25  1  0
 36 38  1  0
 37 36  2  0
M  END
$$$$
