FYW.pdb
     RDKit          3D

 38 41  0  0  1  0  0  0  0  0999 V2000
   24.2758  -20.8586   -8.5209 N   0  0  0  0  0  0  0  0  0  0  0  0
   25.5016  -20.4123   -9.1120 C   0  0  1  0  0  0  0  0  0  0  0  0
   26.6653  -21.2896   -8.7061 C   0  0  0  0  0  0  0  0  0  0  0  0
   27.1239  -20.7757   -7.3917 C   0  0  0  0  0  0  0  0  0  0  0  0
   28.2075  -21.3321   -6.7521 C   0  0  0  0  0  0  0  0  0  0  0  0
   28.6508  -20.8649   -5.5174 C   0  0  0  0  0  0  0  0  0  0  0  0
   28.0038  -19.8097   -4.8871 C   0  0  0  0  0  0  0  0  0  0  0  0
   26.9230  -19.2540   -5.5246 C   0  0  0  0  0  0  0  0  0  0  0  0
   26.4971  -19.7256   -6.7425 C   0  0  0  0  0  0  0  0  0  0  0  0
   25.3958  -20.1759  -10.5571 C   0  0  0  0  0  0  0  0  0  0  0  0
   24.2891  -20.4915  -11.0980 O   0  0  0  0  0  0  0  0  0  0  0  0
   27.5315  -17.0990  -18.6925 O   0  0  0  0  0  0  0  0  0  0  0  0
   27.5226  -17.4682  -17.3651 C   0  0  0  0  0  0  0  0  0  0  0  0
   26.7176  -16.7977  -16.4688 C   0  0  0  0  0  0  0  0  0  0  0  0
   26.6988  -17.1566  -15.1375 C   0  0  0  0  0  0  0  0  0  0  0  0
   27.4703  -18.1869  -14.6411 C   0  0  0  0  0  0  0  0  0  0  0  0
   27.4902  -18.6020  -13.2402 C   0  0  0  0  0  0  0  0  0  0  0  0
   26.2291  -19.2778  -12.7585 C   0  0  2  0  0  0  0  0  0  0  0  0
   26.4051  -19.6382  -11.3658 N   0  0  0  0  0  0  0  0  0  0  0  0
   25.8652  -20.4711  -13.5564 C   0  0  0  0  0  0  0  0  0  0  0  0
   26.7157  -21.3414  -13.8882 O   0  0  0  0  0  0  0  0  0  0  0  0
   28.2716  -18.8506  -15.5469 C   0  0  0  0  0  0  0  0  0  0  0  0
   28.2997  -18.4984  -16.8914 C   0  0  0  0  0  0  0  0  0  0  0  0
   24.5346  -20.7212  -14.0053 N   0  0  0  0  0  0  0  0  0  0  0  0
   24.1559  -20.7596  -15.3966 C   0  0  1  0  0  0  0  0  0  0  0  0
   23.5999  -22.0975  -15.8068 C   0  0  0  0  0  0  0  0  0  0  0  0
   24.5820  -23.1865  -15.5712 C   0  0  0  0  0  0  0  0  0  0  0  0
   24.4594  -24.1717  -14.6156 C   0  0  0  0  0  0  0  0  0  0  0  0
   25.5341  -24.9818  -14.6945 N   0  0  0  0  0  0  0  0  0  0  0  0
   26.3285  -24.5349  -15.6716 C   0  0  0  0  0  0  0  0  0  0  0  0
   27.5352  -25.0268  -16.1256 C   0  0  0  0  0  0  0  0  0  0  0  0
   28.1883  -24.4070  -17.1493 C   0  0  0  0  0  0  0  0  0  0  0  0
   27.6113  -23.2740  -17.7206 C   0  0  0  0  0  0  0  0  0  0  0  0
   26.4151  -22.7697  -17.2852 C   0  0  0  0  0  0  0  0  0  0  0  0
   25.7574  -23.3999  -16.2487 C   0  0  0  0  0  0  0  0  0  0  0  0
   23.0984  -19.7421  -15.6968 C   0  0  0  0  0  0  0  0  0  0  0  0
   22.6337  -19.0295  -14.7679 O   0  0  0  0  0  0  0  0  0  0  0  0
   22.6203  -19.5706  -16.9857 O   0  0  0  0  0  0  0  0  0  0  0  0
  2  1  1  6
  2  3  1  0
  3  4  1  0
  4  9  1  0
  4  5  2  0
  5  6  1  0
  6  7  2  0
  8  7  1  0
  9  8  2  0
 10  2  1  0
 11 10  2  0
 12 13  1  0
 13 14  2  0
 14 15  1  0
 16 15  2  0
 16 17  1  0
 18 17  1  6
 18 20  1  0
 18 19  1  0
 19 10  1  0
 20 21  2  0
 22 16  1  0
 23 13  1  0
 23 22  2  0
 24 25  1  0
 24 20  1  0
 25 26  1  1
 26 27  1  0
 27 28  2  0
 28 29  1  0
 30 29  1  0
 31 30  2  0
 32 31  1  0
 33 34  1  0
 33 32  2  0
 34 35  2  0
 35 27  1  0
 35 30  1  0
 36 25  1  0
 36 38  1  0
 37 36  2  0
M  END
$$$$
