FYW.pdb
     RDKit          3D

 38 41  0  0  1  0  0  0  0  0999 V2000
   19.6679  -19.5741  -14.7833 N   0  0  0  0  0  0  0  0  0  0  0  0
   20.7612  -18.8403  -14.2201 C   0  0  1  0  0  0  0  0  0  0  0  0
   20.3391  -18.0762  -12.9845 C   0  0  0  0  0  0  0  0  0  0  0  0
   19.2409  -17.1767  -13.4172 C   0  0  0  0  0  0  0  0  0  0  0  0
   19.5051  -16.0206  -14.1147 C   0  0  0  0  0  0  0  0  0  0  0  0
   18.4881  -15.1631  -14.5268 C   0  0  0  0  0  0  0  0  0  0  0  0
   17.1599  -15.4535  -14.2421 C   0  0  0  0  0  0  0  0  0  0  0  0
   16.8957  -16.6066  -13.5467 C   0  0  0  0  0  0  0  0  0  0  0  0
   17.9095  -17.4429  -13.1466 C   0  0  0  0  0  0  0  0  0  0  0  0
   21.9744  -19.6489  -14.0478 C   0  0  0  0  0  0  0  0  0  0  0  0
   21.8338  -20.7449  -13.4184 O   0  0  0  0  0  0  0  0  0  0  0  0
   30.0933  -22.8986  -15.8125 O   0  0  0  0  0  0  0  0  0  0  0  0
   28.9266  -22.1672  -15.7631 C   0  0  0  0  0  0  0  0  0  0  0  0
   27.7104  -22.7991  -15.9129 C   0  0  0  0  0  0  0  0  0  0  0  0
   26.5351  -22.0796  -15.8656 C   0  0  0  0  0  0  0  0  0  0  0  0
   26.5143  -20.7142  -15.6693 C   0  0  0  0  0  0  0  0  0  0  0  0
   25.2978  -19.9064  -15.6166 C   0  0  0  0  0  0  0  0  0  0  0  0
   24.4108  -20.1686  -14.4235 C   0  0  2  0  0  0  0  0  0  0  0  0
   23.2488  -19.3074  -14.5177 N   0  0  0  0  0  0  0  0  0  0  0  0
   25.0990  -19.9635  -13.1284 C   0  0  0  0  0  0  0  0  0  0  0  0
   25.6848  -18.8836  -12.8433 O   0  0  0  0  0  0  0  0  0  0  0  0
   27.7369  -20.0927  -15.5207 C   0  0  0  0  0  0  0  0  0  0  0  0
   28.9287  -20.8067  -15.5665 C   0  0  0  0  0  0  0  0  0  0  0  0
   25.1496  -20.9668  -12.1156 N   0  0  0  0  0  0  0  0  0  0  0  0
   26.2718  -21.1485  -11.2279 C   0  0  1  0  0  0  0  0  0  0  0  0
   26.5799  -19.9118  -10.4261 C   0  0  0  0  0  0  0  0  0  0  0  0
   27.7594  -20.1170   -9.5471 C   0  0  0  0  0  0  0  0  0  0  0  0
   29.0214  -20.4604   -9.9809 C   0  0  0  0  0  0  0  0  0  0  0  0
   29.8318  -20.5582   -8.9081 N   0  0  0  0  0  0  0  0  0  0  0  0
   29.1165  -20.2864   -7.8127 C   0  0  0  0  0  0  0  0  0  0  0  0
   29.5021  -20.2600   -6.4880 C   0  0  0  0  0  0  0  0  0  0  0  0
   28.5972  -19.9545   -5.5150 C   0  0  0  0  0  0  0  0  0  0  0  0
   27.2845  -19.6719   -5.8892 C   0  0  0  0  0  0  0  0  0  0  0  0
   26.8812  -19.6927   -7.1975 C   0  0  0  0  0  0  0  0  0  0  0  0
   27.8002  -20.0025   -8.1791 C   0  0  0  0  0  0  0  0  0  0  0  0
   26.0096  -22.2470  -10.2438 C   0  0  0  0  0  0  0  0  0  0  0  0
   24.8245  -22.5378   -9.9313 O   0  0  0  0  0  0  0  0  0  0  0  0
   27.0541  -22.9521   -9.6683 O   0  0  0  0  0  0  0  0  0  0  0  0
  2  1  1  1
  2  3  1  0
  3  4  1  0
  4  9  1  0
  4  5  2  0
  5  6  1  0
  6  7  2  0
  8  7  1  0
  9  8  2  0
 10  2  1  0
 11 10  2  0
 12 13  1  0
 13 14  2  0
 14 15  1  0
 16 15  2  0
 16 17  1  0
 18 17  1  6
 18 20  1  0
 18 19  1  0
 19 10  1  0
 20 21  2  0
 22 16  1  0
 23 13  1  0
 23 22  2  0
 24 25  1  0
 24 20  1  0
 25 26  1  1
 26 27  1  0
 27 28  2  0
 28 29  1  0
 30 29  1  0
 31 30  2  0
 32 31  1  0
 33 34  1  0
 33 32  2  0
 34 35  2  0
 35 27  1  0
 35 30  1  0
 36 25  1  0
 36 38  1  0
 37 36  2  0
M  END
$$$$
