RSH.pdb
     RDKit          3D

 28 28  0  0  1  0  0  0  0  0999 V2000
   30.0666  -25.0928  -16.9544 N   0  0  0  0  0  0  0  0  0  0  0  0
   28.8407  -24.6173  -17.4762 C   0  0  0  0  0  0  0  0  0  0  0  0
   28.8196  -23.6689  -18.3676 N   0  0  0  0  0  0  0  0  0  0  0  0
   27.6213  -25.2029  -17.0015 N   0  0  0  0  0  0  0  0  0  0  0  0
   27.7087  -26.3099  -16.0688 C   0  0  0  0  0  0  0  0  0  0  0  0
   27.4822  -27.5753  -16.8606 C   0  0  0  0  0  0  0  0  0  0  0  0
   26.0581  -27.6928  -17.3635 C   0  0  0  0  0  0  0  0  0  0  0  0
   25.9827  -29.0323  -18.1025 C   0  0  2  0  0  0  0  0  0  0  0  0
   26.8591  -28.9464  -19.2294 N   0  0  0  0  0  0  0  0  0  0  0  0
   24.5651  -29.2427  -18.4910 C   0  0  0  0  0  0  0  0  0  0  0  0
   24.0160  -28.5803  -19.4068 O   0  0  0  0  0  0  0  0  0  0  0  0
   27.9157  -23.4016  -18.7835 O   0  0  0  0  0  0  0  0  0  0  0  0
   22.4076  -31.9752  -16.3676 C   0  0  0  0  0  0  0  0  0  0  0  0
   22.0450  -31.8645  -17.7084 C   0  0  1  0  0  0  0  0  0  0  0  0
   22.3864  -30.4631  -18.1829 N   0  0  0  0  0  0  0  0  0  0  0  0
   23.7656  -30.2145  -17.8324 C   0  0  0  0  0  0  0  0  0  0  0  0
   21.5453  -29.4526  -17.4470 O   0  0  0  0  0  0  0  0  0  0  0  0
   22.0701  -28.8263  -16.5047 N   0  0  0  0  0  0  0  0  0  0  0  0
   20.2130  -29.2092  -17.7947 C   0  0  2  0  0  0  0  0  0  0  0  0
   19.3249  -28.2894  -17.2387 C   0  0  0  0  0  0  0  0  0  0  0  0
   19.1978  -28.2134  -15.7351 C   0  0  0  0  0  0  0  0  0  0  0  0
   18.1321  -27.3389  -15.2468 C   0  0  0  0  0  0  0  0  0  0  0  0
   17.2574  -26.4718  -15.8956 N   0  0  0  0  0  0  0  0  0  0  0  0
   16.4855  -25.8374  -14.9985 C   0  0  0  0  0  0  0  0  0  0  0  0
   16.8624  -26.2923  -13.8055 N   0  0  0  0  0  0  0  0  0  0  0  0
   17.8340  -27.1796  -13.9371 C   0  0  0  0  0  0  0  0  0  0  0  0
   19.3653  -26.9352  -17.7889 O   0  0  0  0  0  0  0  0  0  0  0  0
   18.2484  -26.1896  -18.1203 O   0  0  0  0  0  0  0  0  0  0  0  0
  2  1  1  0
  3  2  2  0
  4  2  1  0
  5  4  1  0
  6  5  1  0
  7  6  1  0
  8  7  1  0
  8  9  1  6
 10  8  1  0
 10 15  1  0
 11 10  2  0
 12 13  1  0
 14 13  1  6
 14 15  1  0
 14 16  1  0
 16 18  1  0
 16 17  2  0
 18 19  1  0
 19 20  1  1
 19 26  1  0
 21 22  2  0
 21 20  1  0
 23 22  1  0
 24 25  2  0
 24 23  1  0
 25 21  1  0
 26 27  1  0
 28 26  2  0
M  END
$$$$
