RSH.pdb
     RDKit          3D

 28 28  0  0  1  0  0  0  0  0999 V2000
   22.8881  -19.9310  -17.0858 N   0  0  0  0  0  0  0  0  0  0  0  0
   21.7012  -19.6477  -17.8015 C   0  0  0  0  0  0  0  0  0  0  0  0
   21.7132  -18.8291  -18.8135 N   0  0  0  0  0  0  0  0  0  0  0  0
   20.4840  -20.2823  -17.3878 N   0  0  0  0  0  0  0  0  0  0  0  0
   20.5340  -21.1959  -16.2627 C   0  0  0  0  0  0  0  0  0  0  0  0
   20.3956  -20.3644  -15.0101 C   0  0  0  0  0  0  0  0  0  0  0  0
   20.2760  -21.2167  -13.7635 C   0  0  0  0  0  0  0  0  0  0  0  0
   21.5920  -21.0339  -13.0017 C   0  0  2  0  0  0  0  0  0  0  0  0
   22.6472  -21.4653  -13.8654 N   0  0  0  0  0  0  0  0  0  0  0  0
   21.4988  -21.8422  -11.7595 C   0  0  0  0  0  0  0  0  0  0  0  0
   21.3741  -23.0923  -11.7815 O   0  0  0  0  0  0  0  0  0  0  0  0
   20.8519  -18.7154  -19.3675 O   0  0  0  0  0  0  0  0  0  0  0  0
   21.9966  -19.8318   -8.3703 C   0  0  0  0  0  0  0  0  0  0  0  0
   22.2988  -21.1834   -8.2164 C   0  0  1  0  0  0  0  0  0  0  0  0
   21.5090  -21.9711   -9.2467 N   0  0  0  0  0  0  0  0  0  0  0  0
   21.5479  -21.2233  -10.4821 C   0  0  0  0  0  0  0  0  0  0  0  0
   20.0661  -22.0677   -8.8237 O   0  0  0  0  0  0  0  0  0  0  0  0
   19.2481  -21.2824   -9.3429 N   0  0  0  0  0  0  0  0  0  0  0  0
   19.6363  -23.0037   -7.8781 C   0  0  1  0  0  0  0  0  0  0  0  0
   18.6152  -23.9463   -7.9916 C   0  0  0  0  0  0  0  0  0  0  0  0
   18.4531  -24.6946   -9.2942 C   0  0  0  0  0  0  0  0  0  0  0  0
   17.8174  -23.9349  -10.3701 C   0  0  0  0  0  0  0  0  0  0  0  0
   17.2123  -22.6817  -10.4044 N   0  0  0  0  0  0  0  0  0  0  0  0
   16.7187  -22.4403  -11.6298 C   0  0  0  0  0  0  0  0  0  0  0  0
   17.0046  -23.5177  -12.3576 N   0  0  0  0  0  0  0  0  0  0  0  0
   17.6533  -24.4083  -11.6265 C   0  0  0  0  0  0  0  0  0  0  0  0
   18.4686  -24.8807   -6.8765 O   0  0  0  0  0  0  0  0  0  0  0  0
   19.4208  -25.0855   -5.8945 O   0  0  0  0  0  0  0  0  0  0  0  0
  2  1  1  0
  3  2  2  0
  4  2  1  0
  5  4  1  0
  6  5  1  0
  7  6  1  0
  8  7  1  0
  8  9  1  6
 10  8  1  0
 10 15  1  0
 11 10  2  0
 12 13  1  0
 14 13  1  6
 14 15  1  0
 14 16  1  0
 16 18  1  0
 16 17  2  0
 18 19  1  0
 19 20  1  1
 19 26  1  0
 21 22  2  0
 21 20  1  0
 23 22  1  0
 24 25  2  0
 24 23  1  0
 25 21  1  0
 26 27  1  0
 28 26  2  0
M  END
$$$$
