RSH.pdb
     RDKit          3D

 28 28  0  0  1  0  0  0  0  0999 V2000
   19.3736  -26.7476  -17.7941 N   0  0  0  0  0  0  0  0  0  0  0  0
   18.7778  -25.4659  -17.7342 C   0  0  0  0  0  0  0  0  0  0  0  0
   18.5042  -24.8072  -18.8232 N   0  0  0  0  0  0  0  0  0  0  0  0
   18.4817  -24.9078  -16.4473 N   0  0  0  0  0  0  0  0  0  0  0  0
   18.7650  -25.7067  -15.2707 C   0  0  0  0  0  0  0  0  0  0  0  0
   18.2539  -24.9353  -14.0777 C   0  0  0  0  0  0  0  0  0  0  0  0
   18.9969  -23.6310  -13.8740 C   0  0  0  0  0  0  0  0  0  0  0  0
   18.4562  -23.0389  -12.5690 C   0  0  2  0  0  0  0  0  0  0  0  0
   18.9808  -21.7133  -12.4538 N   0  0  0  0  0  0  0  0  0  0  0  0
   18.8956  -23.9294  -11.4650 C   0  0  0  0  0  0  0  0  0  0  0  0
   19.4967  -25.0123  -11.6767 O   0  0  0  0  0  0  0  0  0  0  0  0
   18.0535  -23.8843  -18.7425 O   0  0  0  0  0  0  0  0  0  0  0  0
   19.9432  -22.2416   -8.2873 C   0  0  0  0  0  0  0  0  0  0  0  0
   20.3243  -23.5765   -8.4086 C   0  0  1  0  0  0  0  0  0  0  0  0
   19.1619  -24.3546   -8.9994 N   0  0  0  0  0  0  0  0  0  0  0  0
   18.6491  -23.5851  -10.1093 C   0  0  0  0  0  0  0  0  0  0  0  0
   18.0550  -24.4741   -7.9843 O   0  0  0  0  0  0  0  0  0  0  0  0
   16.9298  -24.0298   -8.2874 N   0  0  0  0  0  0  0  0  0  0  0  0
   18.2627  -25.0628   -6.7331 C   0  0  1  0  0  0  0  0  0  0  0  0
   17.3649  -25.1903   -5.6739 C   0  0  0  0  0  0  0  0  0  0  0  0
   15.9685  -25.6936   -5.9562 C   0  0  0  0  0  0  0  0  0  0  0  0
   15.0645  -25.6900   -4.8066 C   0  0  0  0  0  0  0  0  0  0  0  0
   14.3222  -24.6814   -4.1987 N   0  0  0  0  0  0  0  0  0  0  0  0
   13.6798  -25.1648   -3.1230 C   0  0  0  0  0  0  0  0  0  0  0  0
   14.0077  -26.4530   -3.0500 N   0  0  0  0  0  0  0  0  0  0  0  0
   14.8248  -26.7768   -4.0379 C   0  0  0  0  0  0  0  0  0  0  0  0
   17.8757  -25.8357   -4.4654 O   0  0  0  0  0  0  0  0  0  0  0  0
   19.2046  -26.1502   -4.2460 O   0  0  0  0  0  0  0  0  0  0  0  0
  2  1  1  0
  3  2  2  0
  4  2  1  0
  5  4  1  0
  6  5  1  0
  7  6  1  0
  8  7  1  0
  8  9  1  1
 10  8  1  0
 10 15  1  0
 11 10  2  0
 12 13  1  0
 14 13  1  6
 14 15  1  0
 14 16  1  0
 16 18  1  0
 16 17  2  0
 18 19  1  0
 19 20  1  1
 19 26  1  0
 21 22  2  0
 21 20  1  0
 23 22  1  0
 24 25  2  0
 24 23  1  0
 25 21  1  0
 26 27  1  0
 28 26  2  0
M  END
$$$$
