RSH.pdb
     RDKit          3D

 28 28  0  0  1  0  0  0  0  0999 V2000
   20.3731  -24.7310  -15.4585 N   0  0  0  0  0  0  0  0  0  0  0  0
   21.3401  -25.7218  -15.1681 C   0  0  0  0  0  0  0  0  0  0  0  0
   21.0372  -26.9863  -15.2305 N   0  0  0  0  0  0  0  0  0  0  0  0
   22.6617  -25.3028  -14.8033 N   0  0  0  0  0  0  0  0  0  0  0  0
   22.9027  -23.8868  -14.6044 C   0  0  0  0  0  0  0  0  0  0  0  0
   23.9647  -23.4746  -15.5952 C   0  0  0  0  0  0  0  0  0  0  0  0
   24.0883  -21.9694  -15.7139 C   0  0  0  0  0  0  0  0  0  0  0  0
   25.2968  -21.5783  -14.8582 C   0  0  2  0  0  0  0  0  0  0  0  0
   25.3127  -22.4469  -13.7221 N   0  0  0  0  0  0  0  0  0  0  0  0
   25.1316  -20.1498  -14.4878 C   0  0  0  0  0  0  0  0  0  0  0  0
   24.3901  -19.7846  -13.5414 O   0  0  0  0  0  0  0  0  0  0  0  0
   21.7697  -27.6807  -15.0236 O   0  0  0  0  0  0  0  0  0  0  0  0
   28.0138  -17.4881  -15.3613 C   0  0  0  0  0  0  0  0  0  0  0  0
   27.0838  -17.2977  -14.3412 C   0  0  1  0  0  0  0  0  0  0  0  0
   25.7199  -17.7304  -14.8497 N   0  0  0  0  0  0  0  0  0  0  0  0
   25.8153  -19.1287  -15.1998 C   0  0  0  0  0  0  0  0  0  0  0  0
   25.3765  -16.9735  -16.1063 O   0  0  0  0  0  0  0  0  0  0  0  0
   25.7089  -17.4708  -17.2007 N   0  0  0  0  0  0  0  0  0  0  0  0
   24.7048  -15.7478  -16.0683 C   0  0  1  0  0  0  0  0  0  0  0  0
   23.7609  -15.2470  -16.9640 C   0  0  0  0  0  0  0  0  0  0  0  0
   22.6934  -16.1749  -17.4953 C   0  0  0  0  0  0  0  0  0  0  0  0
   21.8041  -15.5873  -18.4967 C   0  0  0  0  0  0  0  0  0  0  0  0
   21.8095  -14.3595  -19.1527 N   0  0  0  0  0  0  0  0  0  0  0  0
   20.7364  -14.2589  -19.9537 C   0  0  0  0  0  0  0  0  0  0  0  0
   20.0643  -15.3989  -19.8090 N   0  0  0  0  0  0  0  0  0  0  0  0
   20.6834  -16.1927  -18.9515 C   0  0  0  0  0  0  0  0  0  0  0  0
   23.1546  -13.9627  -16.6160 O   0  0  0  0  0  0  0  0  0  0  0  0
   23.4351  -13.2492  -15.4648 O   0  0  0  0  0  0  0  0  0  0  0  0
  2  1  1  0
  3  2  2  0
  4  2  1  0
  5  4  1  0
  6  5  1  0
  7  6  1  0
  8  7  1  0
  8  9  1  1
 10  8  1  0
 10 15  1  0
 11 10  2  0
 12 13  1  0
 14 13  1  1
 14 15  1  0
 14 16  1  0
 16 18  1  0
 16 17  2  0
 18 19  1  0
 19 20  1  6
 19 26  1  0
 21 22  2  0
 21 20  1  0
 23 22  1  0
 24 25  2  0
 24 23  1  0
 25 21  1  0
 26 27  1  0
 28 26  2  0
M  END
$$$$
