RSH.pdb
     RDKit          3D

 28 28  0  0  1  0  0  0  0  0999 V2000
   18.7808  -14.1130  -16.2366 N   0  0  0  0  0  0  0  0  0  0  0  0
   17.6598  -13.4425  -15.6936 C   0  0  0  0  0  0  0  0  0  0  0  0
   16.6519  -14.1118  -15.2132 N   0  0  0  0  0  0  0  0  0  0  0  0
   17.6577  -12.0089  -15.6840 N   0  0  0  0  0  0  0  0  0  0  0  0
   18.1206  -11.3136  -16.8693 C   0  0  0  0  0  0  0  0  0  0  0  0
   19.6296  -11.3075  -16.8187 C   0  0  0  0  0  0  0  0  0  0  0  0
   20.2426  -10.5891  -18.0031 C   0  0  0  0  0  0  0  0  0  0  0  0
   21.7588  -10.7390  -17.8467 C   0  0  2  0  0  0  0  0  0  0  0  0
   22.0069  -12.0566  -17.3488 N   0  0  0  0  0  0  0  0  0  0  0  0
   22.2134   -9.6767  -16.9142 C   0  0  0  0  0  0  0  0  0  0  0  0
   22.3524   -9.8812  -15.6822 O   0  0  0  0  0  0  0  0  0  0  0  0
   15.8495  -13.5905  -14.8311 O   0  0  0  0  0  0  0  0  0  0  0  0
   22.5162   -5.7864  -18.2154 C   0  0  0  0  0  0  0  0  0  0  0  0
   23.6033   -6.2497  -17.4771 C   0  0  1  0  0  0  0  0  0  0  0  0
   23.1204   -7.3571  -16.5571 N   0  0  0  0  0  0  0  0  0  0  0  0
   22.5125   -8.3712  -17.3870 C   0  0  0  0  0  0  0  0  0  0  0  0
   22.0522   -6.8293  -15.6349 O   0  0  0  0  0  0  0  0  0  0  0  0
   20.8751   -6.8154  -16.0470 N   0  0  0  0  0  0  0  0  0  0  0  0
   22.3509   -6.3641  -14.3507 C   0  0  1  0  0  0  0  0  0  0  0  0
   21.4884   -5.8099  -13.4056 C   0  0  0  0  0  0  0  0  0  0  0  0
   21.8135   -5.9673  -11.9385 C   0  0  0  0  0  0  0  0  0  0  0  0
   20.8322   -5.3893  -11.0210 C   0  0  0  0  0  0  0  0  0  0  0  0
   19.5801   -4.8160  -11.2243 N   0  0  0  0  0  0  0  0  0  0  0  0
   19.0801   -4.3729  -10.0594 C   0  0  0  0  0  0  0  0  0  0  0  0
   19.9958   -4.6591   -9.1364 N   0  0  0  0  0  0  0  0  0  0  0  0
   21.0357   -5.2594   -9.6901 C   0  0  0  0  0  0  0  0  0  0  0  0
   21.0449   -4.4396  -13.6576 O   0  0  0  0  0  0  0  0  0  0  0  0
   19.7403   -4.0003  -13.5235 O   0  0  0  0  0  0  0  0  0  0  0  0
  2  1  1  0
  3  2  2  0
  4  2  1  0
  5  4  1  0
  6  5  1  0
  7  6  1  0
  8  7  1  0
  8  9  1  1
 10  8  1  0
 10 15  1  0
 11 10  2  0
 12 13  1  0
 14 13  1  6
 14 15  1  0
 14 16  1  0
 16 18  1  0
 16 17  2  0
 18 19  1  0
 19 20  1  6
 19 26  1  0
 21 22  2  0
 21 20  1  0
 23 22  1  0
 24 25  2  0
 24 23  1  0
 25 21  1  0
 26 27  1  0
 28 26  2  0
M  END
$$$$
