RSH.pdb
     RDKit          3D

 28 28  0  0  1  0  0  0  0  0999 V2000
   24.1195  -22.6251  -14.1443 N   0  0  0  0  0  0  0  0  0  0  0  0
   24.3219  -21.2254  -14.1102 C   0  0  0  0  0  0  0  0  0  0  0  0
   24.9824  -20.6717  -13.1346 N   0  0  0  0  0  0  0  0  0  0  0  0
   23.7834  -20.4294  -15.1740 N   0  0  0  0  0  0  0  0  0  0  0  0
   23.8421  -18.9859  -15.0490 C   0  0  0  0  0  0  0  0  0  0  0  0
   23.1887  -18.4075  -16.2810 C   0  0  0  0  0  0  0  0  0  0  0  0
   23.0885  -16.8970  -16.2243 C   0  0  0  0  0  0  0  0  0  0  0  0
   22.2378  -16.4868  -17.4301 C   0  0  2  0  0  0  0  0  0  0  0  0
   22.8462  -17.0550  -18.5930 N   0  0  0  0  0  0  0  0  0  0  0  0
   22.2070  -15.0026  -17.4640 C   0  0  0  0  0  0  0  0  0  0  0  0
   23.1333  -14.3248  -17.9755 O   0  0  0  0  0  0  0  0  0  0  0  0
   25.1755  -19.6607  -13.1796 O   0  0  0  0  0  0  0  0  0  0  0  0
   18.9156  -13.0304  -15.9018 C   0  0  0  0  0  0  0  0  0  0  0  0
   19.5611  -12.4727  -17.0036 C   0  0  1  0  0  0  0  0  0  0  0  0
   21.0325  -12.8415  -16.9339 N   0  0  0  0  0  0  0  0  0  0  0  0
   21.1138  -14.2836  -16.9116 C   0  0  0  0  0  0  0  0  0  0  0  0
   21.6280  -12.3366  -15.6453 O   0  0  0  0  0  0  0  0  0  0  0  0
   21.7512  -13.1412  -14.7004 N   0  0  0  0  0  0  0  0  0  0  0  0
   22.0370  -11.0082  -15.4929 C   0  0  1  0  0  0  0  0  0  0  0  0
   22.6527  -10.4101  -14.3942 C   0  0  0  0  0  0  0  0  0  0  0  0
   24.0287  -10.8793  -13.9826 C   0  0  0  0  0  0  0  0  0  0  0  0
   25.0730  -10.6951  -14.9898 C   0  0  0  0  0  0  0  0  0  0  0  0
   25.0455  -10.2059  -16.2928 N   0  0  0  0  0  0  0  0  0  0  0  0
   26.2678  -10.2871  -16.8428 C   0  0  0  0  0  0  0  0  0  0  0  0
   27.0545  -10.8167  -15.9084 N   0  0  0  0  0  0  0  0  0  0  0  0
   26.3621  -11.0627  -14.8090 C   0  0  0  0  0  0  0  0  0  0  0  0
   22.6042   -8.9497  -14.3394 O   0  0  0  0  0  0  0  0  0  0  0  0
   22.8814   -8.1975  -13.2124 O   0  0  0  0  0  0  0  0  0  0  0  0
  2  1  1  0
  3  2  2  0
  4  2  1  0
  5  4  1  0
  6  5  1  0
  7  6  1  0
  8  7  1  0
  8  9  1  6
 10  8  1  0
 10 15  1  0
 11 10  2  0
 12 13  1  0
 14 13  1  6
 14 15  1  0
 14 16  1  0
 16 18  1  0
 16 17  2  0
 18 19  1  0
 19 20  1  1
 19 26  1  0
 21 22  2  0
 21 20  1  0
 23 22  1  0
 24 25  2  0
 24 23  1  0
 25 21  1  0
 26 27  1  0
 28 26  2  0
M  END
$$$$
