RSH.pdb
     RDKit          3D

 28 28  0  0  1  0  0  0  0  0999 V2000
   23.9842  -30.3660  -16.8170 N   0  0  0  0  0  0  0  0  0  0  0  0
   22.7724  -29.8511  -16.2998 C   0  0  0  0  0  0  0  0  0  0  0  0
   21.7187  -30.6082  -16.1936 N   0  0  0  0  0  0  0  0  0  0  0  0
   22.7298  -28.4766  -15.8948 N   0  0  0  0  0  0  0  0  0  0  0  0
   23.8517  -27.6244  -16.2384 C   0  0  0  0  0  0  0  0  0  0  0  0
   24.2955  -26.9419  -14.9669 C   0  0  0  0  0  0  0  0  0  0  0  0
   23.8273  -25.5031  -14.8921 C   0  0  0  0  0  0  0  0  0  0  0  0
   24.6764  -24.7317  -15.9069 C   0  0  2  0  0  0  0  0  0  0  0  0
   26.0445  -24.8807  -15.5177 N   0  0  0  0  0  0  0  0  0  0  0  0
   24.2213  -23.3185  -15.8795 C   0  0  0  0  0  0  0  0  0  0  0  0
   23.7054  -22.8006  -14.8575 O   0  0  0  0  0  0  0  0  0  0  0  0
   20.8465  -30.1938  -15.8345 O   0  0  0  0  0  0  0  0  0  0  0  0
   25.7922  -20.6439  -18.3630 C   0  0  0  0  0  0  0  0  0  0  0  0
   25.0930  -20.2275  -17.2319 C   0  0  1  0  0  0  0  0  0  0  0  0
   23.8793  -21.1241  -17.0620 N   0  0  0  0  0  0  0  0  0  0  0  0
   24.3541  -22.4879  -17.0239 C   0  0  0  0  0  0  0  0  0  0  0  0
   22.9740  -20.9954  -18.2595 O   0  0  0  0  0  0  0  0  0  0  0  0
   23.1163  -21.8098  -19.1934 N   0  0  0  0  0  0  0  0  0  0  0  0
   21.9966  -19.9989  -18.3410 C   0  0  1  0  0  0  0  0  0  0  0  0
   20.8444  -19.9752  -19.1259 C   0  0  0  0  0  0  0  0  0  0  0  0
   19.9610  -21.2003  -19.1642 C   0  0  0  0  0  0  0  0  0  0  0  0
   18.8993  -21.1674  -20.1695 C   0  0  0  0  0  0  0  0  0  0  0  0
   18.8359  -20.6280  -21.4513 N   0  0  0  0  0  0  0  0  0  0  0  0
   17.6091  -20.8061  -21.9674 C   0  0  0  0  0  0  0  0  0  0  0  0
   16.9087  -21.4451  -21.0328 N   0  0  0  0  0  0  0  0  0  0  0  0
   17.6582  -21.6649  -19.9657 C   0  0  0  0  0  0  0  0  0  0  0  0
   20.0086  -18.7805  -19.0143 O   0  0  0  0  0  0  0  0  0  0  0  0
   19.5199  -18.0620  -20.0904 O   0  0  0  0  0  0  0  0  0  0  0  0
  2  1  1  0
  3  2  2  0
  4  2  1  0
  5  4  1  0
  6  5  1  0
  7  6  1  0
  8  7  1  0
  8  9  1  1
 10  8  1  0
 10 15  1  0
 11 10  2  0
 12 13  1  0
 14 13  1  1
 14 15  1  0
 14 16  1  0
 16 18  1  0
 16 17  2  0
 18 19  1  0
 19 20  1  6
 19 26  1  0
 21 22  2  0
 21 20  1  0
 23 22  1  0
 24 25  2  0
 24 23  1  0
 25 21  1  0
 26 27  1  0
 28 26  2  0
M  END
$$$$
