RSH.pdb
     RDKit          3D

 28 28  0  0  1  0  0  0  0  0999 V2000
   28.0398  -28.5783  -16.8208 N   0  0  0  0  0  0  0  0  0  0  0  0
   28.1994  -28.6717  -18.2232 C   0  0  0  0  0  0  0  0  0  0  0  0
   27.5581  -29.5744  -18.9077 N   0  0  0  0  0  0  0  0  0  0  0  0
   29.0834  -27.7501  -18.8748 N   0  0  0  0  0  0  0  0  0  0  0  0
   29.6040  -26.6370  -18.1048 C   0  0  0  0  0  0  0  0  0  0  0  0
   28.4531  -26.0737  -17.3064 C   0  0  0  0  0  0  0  0  0  0  0  0
   28.8440  -24.8334  -16.5293 C   0  0  0  0  0  0  0  0  0  0  0  0
   28.2308  -23.6522  -17.2872 C   0  0  2  0  0  0  0  0  0  0  0  0
   29.2693  -23.0699  -18.0798 N   0  0  0  0  0  0  0  0  0  0  0  0
   27.6853  -22.7133  -16.2744 C   0  0  0  0  0  0  0  0  0  0  0  0
   28.4214  -22.1156  -15.4498 O   0  0  0  0  0  0  0  0  0  0  0  0
   27.7027  -29.6169  -19.9269 O   0  0  0  0  0  0  0  0  0  0  0  0
   25.9042  -19.8596  -16.7502 C   0  0  0  0  0  0  0  0  0  0  0  0
   26.1881  -20.1954  -15.4279 C   0  0  1  0  0  0  0  0  0  0  0  0
   25.7049  -21.6133  -15.1795 N   0  0  0  0  0  0  0  0  0  0  0  0
   26.2912  -22.4523  -16.1989 C   0  0  0  0  0  0  0  0  0  0  0  0
   24.2089  -21.6823  -15.3446 O   0  0  0  0  0  0  0  0  0  0  0  0
   23.7442  -21.6615  -16.5018 N   0  0  0  0  0  0  0  0  0  0  0  0
   23.3491  -21.7677  -14.2453 C   0  0  2  0  0  0  0  0  0  0  0  0
   22.4378  -20.8203  -13.7803 C   0  0  0  0  0  0  0  0  0  0  0  0
   22.8929  -19.8125  -12.7507 C   0  0  0  0  0  0  0  0  0  0  0  0
   23.4866  -20.3855  -11.5431 C   0  0  0  0  0  0  0  0  0  0  0  0
   23.6090  -21.6951  -11.0872 N   0  0  0  0  0  0  0  0  0  0  0  0
   24.1897  -21.7105   -9.8765 C   0  0  0  0  0  0  0  0  0  0  0  0
   24.4307  -20.4374   -9.5706 N   0  0  0  0  0  0  0  0  0  0  0  0
   24.0206  -19.6441  -10.5458 C   0  0  0  0  0  0  0  0  0  0  0  0
   21.6320  -20.1432  -14.7954 O   0  0  0  0  0  0  0  0  0  0  0  0
   20.2544  -20.2261  -14.8869 O   0  0  0  0  0  0  0  0  0  0  0  0
  2  1  1  0
  3  2  2  0
  4  2  1  0
  5  4  1  0
  6  5  1  0
  7  6  1  0
  8  7  1  0
  8  9  1  1
 10  8  1  0
 10 15  1  0
 11 10  2  0
 12 13  1  0
 14 13  1  1
 14 15  1  0
 14 16  1  0
 16 18  1  0
 16 17  2  0
 18 19  1  0
 19 20  1  1
 19 26  1  0
 21 22  2  0
 21 20  1  0
 23 22  1  0
 24 25  2  0
 24 23  1  0
 25 21  1  0
 26 27  1  0
 28 26  2  0
M  END
$$$$
