WLT.pdb
     RDKit          3D

 30 31  0  0  1  0  0  0  0  0999 V2000
   16.7869  -10.4678  -16.4906 N   0  0  0  0  0  0  0  0  0  0  0  0
   18.0660  -10.0531  -16.9346 C   0  0  1  0  0  0  0  0  0  0  0  0
   18.1225   -9.2450  -18.1810 C   0  0  0  0  0  0  0  0  0  0  0  0
   17.9553  -10.1334  -19.3520 C   0  0  0  0  0  0  0  0  0  0  0  0
   17.5259  -11.4572  -19.3420 C   0  0  0  0  0  0  0  0  0  0  0  0
   17.4904  -11.8848  -20.5909 N   0  0  0  0  0  0  0  0  0  0  0  0
   17.8743  -10.9183  -21.4468 C   0  0  0  0  0  0  0  0  0  0  0  0
   17.9881  -10.9379  -22.8377 C   0  0  0  0  0  0  0  0  0  0  0  0
   18.4169   -9.8009  -23.4892 C   0  0  0  0  0  0  0  0  0  0  0  0
   18.7119   -8.6986  -22.7216 C   0  0  0  0  0  0  0  0  0  0  0  0
   18.5995   -8.6775  -21.3431 C   0  0  0  0  0  0  0  0  0  0  0  0
   18.1677   -9.8172  -20.6768 C   0  0  0  0  0  0  0  0  0  0  0  0
   18.7411   -9.2379  -15.8587 C   0  0  0  0  0  0  0  0  0  0  0  0
   18.0859   -8.8428  -14.8636 O   0  0  0  0  0  0  0  0  0  0  0  0
   21.5894   -9.9089  -12.6791 C   0  0  0  0  0  0  0  0  0  0  0  0
   22.2366  -10.0357  -14.0709 C   0  0  2  0  0  0  0  0  0  0  0  0
   23.6394  -10.5388  -13.9780 C   0  0  0  0  0  0  0  0  0  0  0  0
   22.1170   -8.7012  -14.7062 C   0  0  0  0  0  0  0  0  0  0  0  0
   20.7297   -8.1549  -14.8551 C   0  0  2  0  0  0  0  0  0  0  0  0
   20.1105   -8.9106  -15.9565 N   0  0  0  0  0  0  0  0  0  0  0  0
   20.8211   -6.7193  -15.2205 C   0  0  0  0  0  0  0  0  0  0  0  0
   21.3363   -5.8838  -14.4509 O   0  0  0  0  0  0  0  0  0  0  0  0
   22.3910   -5.4533  -18.4050 C   0  0  0  0  0  0  0  0  0  0  0  0
   20.9562   -4.9745  -18.3614 C   0  0  1  0  0  0  0  0  0  0  0  0
   20.1945   -5.8777  -19.0971 O   0  0  0  0  0  0  0  0  0  0  0  0
   20.4688   -4.8974  -16.9302 C   0  0  2  0  0  0  0  0  0  0  0  0
   20.3185   -6.2643  -16.4665 N   0  0  0  0  0  0  0  0  0  0  0  0
   19.1821   -4.2100  -16.8074 C   0  0  0  0  0  0  0  0  0  0  0  0
   19.0698   -2.9754  -17.0278 O   0  0  0  0  0  0  0  0  0  0  0  0
   18.0271   -4.8883  -16.4425 O   0  0  0  0  0  0  0  0  0  0  0  0
  2  1  1  1
  2 13  1  0
  2  3  1  0
  3  4  1  0
  4  5  2  0
  6  5  1  0
  7  6  1  0
  8  7  2  0
  9  8  1  0
 10  9  2  0
 10 11  1  0
 11 12  2  0
 12  7  1  0
 12  4  1  0
 13 14  2  0
 16 15  1  1
 17 16  1  0
 19 18  1  6
 18 16  1  0
 20 19  1  0
 20 13  1  0
 21 22  2  0
 21 19  1  0
 24 23  1  1
 24 26  1  0
 25 24  1  0
 26 28  1  0
 26 27  1  6
 27 21  1  0
 28 30  1  0
 29 28  2  0
M  END
$$$$
