WLT.pdb
     RDKit          3D

 30 31  0  0  1  0  0  0  0  0999 V2000
   25.0032  -18.4830  -17.7908 N   0  0  0  0  0  0  0  0  0  0  0  0
   25.0057  -18.0661  -16.4375 C   0  0  1  0  0  0  0  0  0  0  0  0
   23.6852  -17.8199  -15.8010 C   0  0  0  0  0  0  0  0  0  0  0  0
   23.0545  -16.6327  -16.4183 C   0  0  0  0  0  0  0  0  0  0  0  0
   23.6503  -15.3971  -16.6532 C   0  0  0  0  0  0  0  0  0  0  0  0
   22.7594  -14.6186  -17.2398 N   0  0  0  0  0  0  0  0  0  0  0  0
   21.5899  -15.2635  -17.4140 C   0  0  0  0  0  0  0  0  0  0  0  0
   20.3925  -14.8235  -17.9800 C   0  0  0  0  0  0  0  0  0  0  0  0
   19.3209  -15.6896  -18.0342 C   0  0  0  0  0  0  0  0  0  0  0  0
   19.4954  -16.9534  -17.5208 C   0  0  0  0  0  0  0  0  0  0  0  0
   20.6816  -17.3911  -16.9597 C   0  0  0  0  0  0  0  0  0  0  0  0
   21.7675  -16.5271  -16.9008 C   0  0  0  0  0  0  0  0  0  0  0  0
   25.7117  -19.0940  -15.5873 C   0  0  0  0  0  0  0  0  0  0  0  0
   25.3584  -20.2977  -15.6313 O   0  0  0  0  0  0  0  0  0  0  0  0
   30.4999  -19.2655  -11.8106 C   0  0  0  0  0  0  0  0  0  0  0  0
   29.1538  -19.9524  -12.1075 C   0  0  2  0  0  0  0  0  0  0  0  0
   29.3339  -21.4055  -12.4002 C   0  0  0  0  0  0  0  0  0  0  0  0
   28.5345  -19.1877  -13.2168 C   0  0  0  0  0  0  0  0  0  0  0  0
   27.1881  -19.6549  -13.6793 C   0  0  2  0  0  0  0  0  0  0  0  0
   26.7727  -18.7177  -14.7361 N   0  0  0  0  0  0  0  0  0  0  0  0
   26.2409  -19.5777  -12.5393 C   0  0  0  0  0  0  0  0  0  0  0  0
   25.9885  -18.4940  -11.9757 O   0  0  0  0  0  0  0  0  0  0  0  0
   22.8185  -20.2589  -12.6156 C   0  0  0  0  0  0  0  0  0  0  0  0
   23.3199  -21.2239  -11.5633 C   0  0  1  0  0  0  0  0  0  0  0  0
   23.4804  -22.4622  -12.1781 O   0  0  0  0  0  0  0  0  0  0  0  0
   24.6296  -20.7364  -10.9812 C   0  0  2  0  0  0  0  0  0  0  0  0
   25.5970  -20.7483  -12.0629 N   0  0  0  0  0  0  0  0  0  0  0  0
   25.1188  -21.5897   -9.8970 C   0  0  0  0  0  0  0  0  0  0  0  0
   26.1657  -22.2783  -10.0204 O   0  0  0  0  0  0  0  0  0  0  0  0
   24.4506  -21.6785   -8.6834 O   0  0  0  0  0  0  0  0  0  0  0  0
  2  1  1  6
  2 13  1  0
  2  3  1  0
  3  4  1  0
  4  5  2  0
  6  5  1  0
  7  6  1  0
  8  7  2  0
  9  8  1  0
 10  9  2  0
 10 11  1  0
 11 12  2  0
 12  7  1  0
 12  4  1  0
 13 14  2  0
 16 15  1  6
 17 16  1  0
 19 18  1  1
 18 16  1  0
 20 19  1  0
 20 13  1  0
 21 22  2  0
 21 19  1  0
 24 23  1  6
 24 26  1  0
 25 24  1  0
 26 28  1  0
 26 27  1  6
 27 21  1  0
 28 30  1  0
 29 28  2  0
M  END
$$$$
