WLT.pdb
     RDKit          3D

 30 31  0  0  1  0  0  0  0  0999 V2000
   27.3744  -22.0515  -10.3923 N   0  0  0  0  0  0  0  0  0  0  0  0
   26.3844  -21.0530  -10.2252 C   0  0  1  0  0  0  0  0  0  0  0  0
   26.7883  -19.8086   -9.5196 C   0  0  0  0  0  0  0  0  0  0  0  0
   27.8450  -20.1225   -8.5330 C   0  0  0  0  0  0  0  0  0  0  0  0
   29.0477  -20.7790   -8.7771 C   0  0  0  0  0  0  0  0  0  0  0  0
   29.7183  -20.8393   -7.6411 N   0  0  0  0  0  0  0  0  0  0  0  0
   29.0310  -20.2577   -6.6394 C   0  0  0  0  0  0  0  0  0  0  0  0
   29.3586  -20.1027   -5.2916 C   0  0  0  0  0  0  0  0  0  0  0  0
   28.4657  -19.4658   -4.4558 C   0  0  0  0  0  0  0  0  0  0  0  0
   27.2885  -19.0143   -5.0049 C   0  0  0  0  0  0  0  0  0  0  0  0
   26.9625  -19.1669   -6.3405 C   0  0  0  0  0  0  0  0  0  0  0  0
   27.8551  -19.8062   -7.1914 C   0  0  0  0  0  0  0  0  0  0  0  0
   25.8494  -20.6330  -11.5725 C   0  0  0  0  0  0  0  0  0  0  0  0
   26.2183  -19.5489  -12.0865 O   0  0  0  0  0  0  0  0  0  0  0  0
   27.0020  -21.3846  -15.1632 C   0  0  0  0  0  0  0  0  0  0  0  0
   26.2829  -22.6443  -14.6454 C   0  0  2  0  0  0  0  0  0  0  0  0
   26.5119  -23.8138  -15.5453 C   0  0  0  0  0  0  0  0  0  0  0  0
   24.8554  -22.2730  -14.4932 C   0  0  0  0  0  0  0  0  0  0  0  0
   24.5649  -21.0731  -13.6440 C   0  0  2  0  0  0  0  0  0  0  0  0
   24.9322  -21.4491  -12.2687 N   0  0  0  0  0  0  0  0  0  0  0  0
   23.1111  -20.7825  -13.7136 C   0  0  0  0  0  0  0  0  0  0  0  0
   22.6410  -20.0210  -14.5823 O   0  0  0  0  0  0  0  0  0  0  0  0
   20.5266  -23.5512  -13.3041 C   0  0  0  0  0  0  0  0  0  0  0  0
   20.1242  -22.4263  -12.3754 C   0  0  1  0  0  0  0  0  0  0  0  0
   20.5155  -22.7890  -11.0899 O   0  0  0  0  0  0  0  0  0  0  0  0
   20.7866  -21.1319  -12.7964 C   0  0  2  0  0  0  0  0  0  0  0  0
   22.2178  -21.3719  -12.7827 N   0  0  0  0  0  0  0  0  0  0  0  0
   20.4827  -20.0212  -11.8924 C   0  0  0  0  0  0  0  0  0  0  0  0
   19.3092  -19.5866  -11.7521 O   0  0  0  0  0  0  0  0  0  0  0  0
   21.4745  -19.3966  -11.1485 O   0  0  0  0  0  0  0  0  0  0  0  0
  2  1  1  6
  2 13  1  0
  2  3  1  0
  3  4  1  0
  4  5  2  0
  6  5  1  0
  7  6  1  0
  8  7  2  0
  9  8  1  0
 10  9  2  0
 10 11  1  0
 11 12  2  0
 12  7  1  0
 12  4  1  0
 13 14  2  0
 16 15  1  6
 17 16  1  0
 19 18  1  6
 18 16  1  0
 20 19  1  0
 20 13  1  0
 21 22  2  0
 21 19  1  0
 24 23  1  6
 24 26  1  0
 25 24  1  0
 26 28  1  0
 26 27  1  1
 27 21  1  0
 28 30  1  0
 29 28  2  0
M  END
$$$$
