WLT.pdb
     RDKit          3D

 30 31  0  0  1  0  0  0  0  0999 V2000
   15.4742  -16.8696    3.7524 N   0  0  0  0  0  0  0  0  0  0  0  0
   16.4766  -16.7049    4.7388 C   0  0  1  0  0  0  0  0  0  0  0  0
   16.1114  -15.9324    5.9550 C   0  0  0  0  0  0  0  0  0  0  0  0
   16.0719  -14.4900    5.6290 C   0  0  0  0  0  0  0  0  0  0  0  0
   14.9408  -13.6838    5.5413 C   0  0  0  0  0  0  0  0  0  0  0  0
   15.3347  -12.4570    5.2522 N   0  0  0  0  0  0  0  0  0  0  0  0
   16.6752  -12.3907    5.1391 C   0  0  0  0  0  0  0  0  0  0  0  0
   17.5032  -11.3069    4.8431 C   0  0  0  0  0  0  0  0  0  0  0  0
   18.8662  -11.5054    4.7780 C   0  0  0  0  0  0  0  0  0  0  0  0
   19.3378  -12.7759    5.0113 C   0  0  0  0  0  0  0  0  0  0  0  0
   18.5185  -13.8511    5.3050 C   0  0  0  0  0  0  0  0  0  0  0  0
   17.1441  -13.6622    5.3738 C   0  0  0  0  0  0  0  0  0  0  0  0
   16.9556  -18.0560    5.2112 C   0  0  0  0  0  0  0  0  0  0  0  0
   16.2339  -19.0707    5.0530 O   0  0  0  0  0  0  0  0  0  0  0  0
   18.4829  -21.2724    3.8431 C   0  0  0  0  0  0  0  0  0  0  0  0
   19.4626  -20.0881    3.9409 C   0  0  2  0  0  0  0  0  0  0  0  0
   20.6649  -20.3002    3.0811 C   0  0  0  0  0  0  0  0  0  0  0  0
   19.7744  -19.9266    5.3816 C   0  0  0  0  0  0  0  0  0  0  0  0
   18.6335  -19.5376    6.2717 C   0  0  2  0  0  0  0  0  0  0  0  0
   18.2145  -18.1958    5.8338 N   0  0  0  0  0  0  0  0  0  0  0  0
   19.1219  -19.4789    7.6719 C   0  0  0  0  0  0  0  0  0  0  0  0
   20.0388  -18.7034    8.0089 O   0  0  0  0  0  0  0  0  0  0  0  0
   17.1618  -18.6233   10.7019 C   0  0  0  0  0  0  0  0  0  0  0  0
   17.6508  -20.0474   10.8529 C   0  0  1  0  0  0  0  0  0  0  0  0
   16.6406  -20.8848   10.3886 O   0  0  0  0  0  0  0  0  0  0  0  0
   18.9272  -20.2534   10.0654 C   0  0  2  0  0  0  0  0  0  0  0  0
   18.5488  -20.3132    8.6657 N   0  0  0  0  0  0  0  0  0  0  0  0
   19.6188  -21.4929   10.4239 C   0  0  0  0  0  0  0  0  0  0  0  0
   20.1304  -21.6575   11.5625 O   0  0  0  0  0  0  0  0  0  0  0  0
   19.7420  -22.5432    9.5245 O   0  0  0  0  0  0  0  0  0  0  0  0
  2  1  1  6
  2 13  1  0
  2  3  1  0
  3  4  1  0
  4  5  2  0
  6  5  1  0
  7  6  1  0
  8  7  2  0
  9  8  1  0
 10  9  2  0
 10 11  1  0
 11 12  2  0
 12  7  1  0
 12  4  1  0
 13 14  2  0
 16 15  1  1
 17 16  1  0
 19 18  1  6
 18 16  1  0
 20 19  1  0
 20 13  1  0
 21 22  2  0
 21 19  1  0
 24 23  1  6
 24 26  1  0
 25 24  1  0
 26 28  1  0
 26 27  1  6
 27 21  1  0
 28 30  1  0
 29 28  2  0
M  END
$$$$
