WLT.pdb
     RDKit          3D

 30 31  0  0  1  0  0  0  0  0999 V2000
   24.0068  -19.5604   -8.9169 N   0  0  0  0  0  0  0  0  0  0  0  0
   25.3333  -19.8356   -9.3289 C   0  0  1  0  0  0  0  0  0  0  0  0
   25.9913  -21.0325   -8.7426 C   0  0  0  0  0  0  0  0  0  0  0  0
   26.2196  -20.8111   -7.2978 C   0  0  0  0  0  0  0  0  0  0  0  0
   25.3260  -21.0668   -6.2619 C   0  0  0  0  0  0  0  0  0  0  0  0
   25.9197  -20.7560   -5.1240 N   0  0  0  0  0  0  0  0  0  0  0  0
   27.1700  -20.3023   -5.3360 C   0  0  0  0  0  0  0  0  0  0  0  0
   28.1364  -19.8637   -4.4296 C   0  0  0  0  0  0  0  0  0  0  0  0
   29.3563  -19.4352   -4.9087 C   0  0  0  0  0  0  0  0  0  0  0  0
   29.5535  -19.4647   -6.2694 C   0  0  0  0  0  0  0  0  0  0  0  0
   28.5967  -19.8992   -7.1690 C   0  0  0  0  0  0  0  0  0  0  0  0
   27.3647  -20.3337   -6.6971 C   0  0  0  0  0  0  0  0  0  0  0  0
   25.3779  -20.0071  -10.8277 C   0  0  0  0  0  0  0  0  0  0  0  0
   24.3154  -20.1769  -11.4740 O   0  0  0  0  0  0  0  0  0  0  0  0
   29.7001  -18.7852  -14.9486 C   0  0  0  0  0  0  0  0  0  0  0  0
   28.2157  -19.1739  -14.8161 C   0  0  2  0  0  0  0  0  0  0  0  0
   27.3249  -18.1549  -15.4467 C   0  0  0  0  0  0  0  0  0  0  0  0
   27.9682  -19.3754  -13.3680 C   0  0  0  0  0  0  0  0  0  0  0  0
   26.5857  -19.8043  -12.9806 C   0  0  2  0  0  0  0  0  0  0  0  0
   26.6081  -19.9791  -11.5188 N   0  0  0  0  0  0  0  0  0  0  0  0
   26.2895  -21.1022  -13.6368 C   0  0  0  0  0  0  0  0  0  0  0  0
   26.9817  -22.1159  -13.4152 O   0  0  0  0  0  0  0  0  0  0  0  0
   23.4973  -23.4384  -13.4152 C   0  0  0  0  0  0  0  0  0  0  0  0
   23.4735  -22.8312  -14.8011 C   0  0  1  0  0  0  0  0  0  0  0  0
   22.6458  -21.7135  -14.7507 O   0  0  0  0  0  0  0  0  0  0  0  0
   24.8728  -22.4477  -15.2333 C   0  0  2  0  0  0  0  0  0  0  0  0
   25.2011  -21.2163  -14.5391 N   0  0  0  0  0  0  0  0  0  0  0  0
   24.9769  -22.2219  -16.6760 C   0  0  0  0  0  0  0  0  0  0  0  0
   25.0456  -21.0611  -17.1590 O   0  0  0  0  0  0  0  0  0  0  0  0
   25.0047  -23.2775  -17.5772 O   0  0  0  0  0  0  0  0  0  0  0  0
  2  1  1  1
  2 13  1  0
  2  3  1  0
  3  4  1  0
  4  5  2  0
  6  5  1  0
  7  6  1  0
  8  7  2  0
  9  8  1  0
 10  9  2  0
 10 11  1  0
 11 12  2  0
 12  7  1  0
 12  4  1  0
 13 14  2  0
 16 15  1  1
 17 16  1  0
 19 18  1  6
 18 16  1  0
 20 19  1  0
 20 13  1  0
 21 22  2  0
 21 19  1  0
 24 23  1  1
 24 26  1  0
 25 24  1  0
 26 28  1  0
 26 27  1  1
 27 21  1  0
 28 30  1  0
 29 28  2  0
M  END
$$$$
