WLT.pdb
     RDKit          3D

 30 31  0  0  1  0  0  0  0  0999 V2000
   28.2212  -20.9032  -15.4228 N   0  0  0  0  0  0  0  0  0  0  0  0
   27.2637  -20.0510  -14.8210 C   0  0  1  0  0  0  0  0  0  0  0  0
   26.4010  -19.2513  -15.7297 C   0  0  0  0  0  0  0  0  0  0  0  0
   27.2183  -18.2176  -16.4018 C   0  0  0  0  0  0  0  0  0  0  0  0
   27.8960  -18.3436  -17.6109 C   0  0  0  0  0  0  0  0  0  0  0  0
   28.4840  -17.1904  -17.8720 N   0  0  0  0  0  0  0  0  0  0  0  0
   28.2398  -16.2893  -16.9013 C   0  0  0  0  0  0  0  0  0  0  0  0
   28.6635  -14.9659  -16.7714 C   0  0  0  0  0  0  0  0  0  0  0  0
   28.2756  -14.2459  -15.6612 C   0  0  0  0  0  0  0  0  0  0  0  0
   27.4835  -14.8810  -14.7336 C   0  0  0  0  0  0  0  0  0  0  0  0
   27.0626  -16.1926  -14.8610 C   0  0  0  0  0  0  0  0  0  0  0  0
   27.4469  -16.9267  -15.9757 C   0  0  0  0  0  0  0  0  0  0  0  0
   26.3382  -20.8599  -13.9453 C   0  0  0  0  0  0  0  0  0  0  0  0
   26.0106  -22.0240  -14.2815 O   0  0  0  0  0  0  0  0  0  0  0  0
   26.6260  -22.2364  -10.0728 C   0  0  0  0  0  0  0  0  0  0  0  0
   26.2163  -20.7551   -9.9734 C   0  0  2  0  0  0  0  0  0  0  0  0
   26.2672  -20.2669   -8.5631 C   0  0  0  0  0  0  0  0  0  0  0  0
   24.8746  -20.6539  -10.5968 C   0  0  0  0  0  0  0  0  0  0  0  0
   24.7746  -21.0622  -12.0350 C   0  0  2  0  0  0  0  0  0  0  0  0
   25.8315  -20.3212  -12.7432 N   0  0  0  0  0  0  0  0  0  0  0  0
   23.4441  -20.6566  -12.5527 C   0  0  0  0  0  0  0  0  0  0  0  0
   23.0685  -19.4676  -12.5202 O   0  0  0  0  0  0  0  0  0  0  0  0
   22.1373  -21.5261  -15.9530 C   0  0  0  0  0  0  0  0  0  0  0  0
   21.1259  -22.0383  -14.9507 C   0  0  1  0  0  0  0  0  0  0  0  0
   21.3673  -23.3977  -14.7748 O   0  0  0  0  0  0  0  0  0  0  0  0
   21.2578  -21.2925  -13.6399 C   0  0  2  0  0  0  0  0  0  0  0  0
   22.5637  -21.6243  -13.1007 N   0  0  0  0  0  0  0  0  0  0  0  0
   20.2318  -21.6729  -12.6674 C   0  0  0  0  0  0  0  0  0  0  0  0
   20.5279  -22.2435  -11.5847 O   0  0  0  0  0  0  0  0  0  0  0  0
   18.8855  -21.4218  -12.8947 O   0  0  0  0  0  0  0  0  0  0  0  0
  2  1  1  6
  2 13  1  0
  2  3  1  0
  3  4  1  0
  4  5  2  0
  6  5  1  0
  7  6  1  0
  8  7  2  0
  9  8  1  0
 10  9  2  0
 10 11  1  0
 11 12  2  0
 12  7  1  0
 12  4  1  0
 13 14  2  0
 16 15  1  1
 17 16  1  0
 19 18  1  1
 18 16  1  0
 20 19  1  0
 20 13  1  0
 21 22  2  0
 21 19  1  0
 24 23  1  6
 24 26  1  0
 25 24  1  0
 26 28  1  0
 26 27  1  1
 27 21  1  0
 28 30  1  0
 29 28  2  0
M  END
$$$$
