WLT.pdb
     RDKit          3D

 30 31  0  0  1  0  0  0  0  0999 V2000
   27.7418  -18.8847  -17.0355 N   0  0  0  0  0  0  0  0  0  0  0  0
   27.4460  -18.5197  -15.6997 C   0  0  1  0  0  0  0  0  0  0  0  0
   26.1699  -17.7959  -15.4609 C   0  0  0  0  0  0  0  0  0  0  0  0
   26.2970  -16.4021  -15.9400 C   0  0  0  0  0  0  0  0  0  0  0  0
   26.9338  -15.3495  -15.2892 C   0  0  0  0  0  0  0  0  0  0  0  0
   26.8450  -14.2797  -16.0583 N   0  0  0  0  0  0  0  0  0  0  0  0
   26.1800  -14.5536  -17.1972 C   0  0  0  0  0  0  0  0  0  0  0  0
   25.8570  -13.7270  -18.2744 C   0  0  0  0  0  0  0  0  0  0  0  0
   25.1519  -14.2561  -19.3347 C   0  0  0  0  0  0  0  0  0  0  0  0
   24.8028  -15.5846  -19.2694 C   0  0  0  0  0  0  0  0  0  0  0  0
   25.1224  -16.4052  -18.2027 C   0  0  0  0  0  0  0  0  0  0  0  0
   25.8331  -15.8827  -17.1297 C   0  0  0  0  0  0  0  0  0  0  0  0
   27.4151  -19.7516  -14.8283 C   0  0  0  0  0  0  0  0  0  0  0  0
   26.8650  -20.8016  -15.2413 O   0  0  0  0  0  0  0  0  0  0  0  0
   27.3075  -22.3057  -10.1078 C   0  0  0  0  0  0  0  0  0  0  0  0
   28.6949  -21.8897  -10.6313 C   0  0  2  0  0  0  0  0  0  0  0  0
   29.6824  -21.7581   -9.5190 C   0  0  0  0  0  0  0  0  0  0  0  0
   28.4887  -20.6405  -11.4033 C   0  0  0  0  0  0  0  0  0  0  0  0
   27.5263  -20.7156  -12.5494 C   0  0  2  0  0  0  0  0  0  0  0  0
   28.0009  -19.7396  -13.5443 N   0  0  0  0  0  0  0  0  0  0  0  0
   26.1792  -20.3240  -12.0651 C   0  0  0  0  0  0  0  0  0  0  0  0
   25.9809  -19.2227  -11.5141 O   0  0  0  0  0  0  0  0  0  0  0  0
   23.3210  -19.8173  -14.0196 C   0  0  0  0  0  0  0  0  0  0  0  0
   22.8709  -20.8895  -13.0513 C   0  0  1  0  0  0  0  0  0  0  0  0
   22.9775  -22.1126  -13.7070 O   0  0  0  0  0  0  0  0  0  0  0  0
   23.7293  -20.8688  -11.8045 C   0  0  2  0  0  0  0  0  0  0  0  0
   25.0783  -21.2047  -12.2211 N   0  0  0  0  0  0  0  0  0  0  0  0
   23.2882  -21.8363  -10.7983 C   0  0  0  0  0  0  0  0  0  0  0  0
   24.0239  -22.7908  -10.4333 O   0  0  0  0  0  0  0  0  0  0  0  0
   22.0385  -21.7454  -10.2006 O   0  0  0  0  0  0  0  0  0  0  0  0
  2  1  1  6
  2 13  1  0
  2  3  1  0
  3  4  1  0
  4  5  2  0
  6  5  1  0
  7  6  1  0
  8  7  2  0
  9  8  1  0
 10  9  2  0
 10 11  1  0
 11 12  2  0
 12  7  1  0
 12  4  1  0
 13 14  2  0
 16 15  1  1
 17 16  1  0
 19 18  1  1
 18 16  1  0
 20 19  1  0
 20 13  1  0
 21 22  2  0
 21 19  1  0
 24 23  1  6
 24 26  1  0
 25 24  1  0
 26 28  1  0
 26 27  1  6
 27 21  1  0
 28 30  1  0
 29 28  2  0
M  END
$$$$
