WLT.pdb
     RDKit          3D

 30 31  0  0  1  0  0  0  0  0999 V2000
   25.4661  -19.1141  -11.3536 N   0  0  0  0  0  0  0  0  0  0  0  0
   25.9289  -20.4384  -11.5468 C   0  0  1  0  0  0  0  0  0  0  0  0
   25.7375  -21.3945  -10.4249 C   0  0  0  0  0  0  0  0  0  0  0  0
   26.3981  -20.8676   -9.2106 C   0  0  0  0  0  0  0  0  0  0  0  0
   25.7795  -20.2807   -8.1107 C   0  0  0  0  0  0  0  0  0  0  0  0
   26.7159  -19.9682   -7.2336 N   0  0  0  0  0  0  0  0  0  0  0  0
   27.9378  -20.3129   -7.6833 C   0  0  0  0  0  0  0  0  0  0  0  0
   29.1925  -20.1635   -7.0907 C   0  0  0  0  0  0  0  0  0  0  0  0
   30.3094  -20.5992   -7.7719 C   0  0  0  0  0  0  0  0  0  0  0  0
   30.1209  -21.1630   -9.0119 C   0  0  0  0  0  0  0  0  0  0  0  0
   28.8779  -21.3119   -9.6006 C   0  0  0  0  0  0  0  0  0  0  0  0
   27.7462  -20.8772   -8.9228 C   0  0  0  0  0  0  0  0  0  0  0  0
   25.2538  -21.0448  -12.7529 C   0  0  0  0  0  0  0  0  0  0  0  0
   24.2322  -20.5034  -13.2414 O   0  0  0  0  0  0  0  0  0  0  0  0
   27.1744  -24.8452  -17.0680 C   0  0  0  0  0  0  0  0  0  0  0  0
   25.9462  -24.0231  -16.6348 C   0  0  2  0  0  0  0  0  0  0  0  0
   25.5824  -23.0010  -17.6608 C   0  0  0  0  0  0  0  0  0  0  0  0
   26.2779  -23.4512  -15.3075 C   0  0  0  0  0  0  0  0  0  0  0  0
   25.2029  -22.6501  -14.6384 C   0  0  2  0  0  0  0  0  0  0  0  0
   25.7595  -22.2223  -13.3442 N   0  0  0  0  0  0  0  0  0  0  0  0
   24.0269  -23.5272  -14.4137 C   0  0  0  0  0  0  0  0  0  0  0  0
   24.1434  -24.6458  -13.8744 O   0  0  0  0  0  0  0  0  0  0  0  0
   20.6793  -22.5085  -12.7251 C   0  0  0  0  0  0  0  0  0  0  0  0
   20.4513  -22.9436  -14.1564 C   0  0  1  0  0  0  0  0  0  0  0  0
   20.4518  -21.7962  -14.9444 O   0  0  0  0  0  0  0  0  0  0  0  0
   21.5382  -23.9010  -14.5965 C   0  0  2  0  0  0  0  0  0  0  0  0
   22.7326  -23.1055  -14.8125 N   0  0  0  0  0  0  0  0  0  0  0  0
   21.2046  -24.6035  -15.8368 C   0  0  0  0  0  0  0  0  0  0  0  0
   21.7257  -24.2831  -16.9374 O   0  0  0  0  0  0  0  0  0  0  0  0
   20.2984  -25.6551  -15.8558 O   0  0  0  0  0  0  0  0  0  0  0  0
  2  1  1  1
  2 13  1  0
  2  3  1  0
  3  4  1  0
  4  5  2  0
  6  5  1  0
  7  6  1  0
  8  7  2  0
  9  8  1  0
 10  9  2  0
 10 11  1  0
 11 12  2  0
 12  7  1  0
 12  4  1  0
 13 14  2  0
 16 15  1  6
 17 16  1  0
 19 18  1  1
 18 16  1  0
 20 19  1  0
 20 13  1  0
 21 22  2  0
 21 19  1  0
 24 23  1  1
 24 26  1  0
 25 24  1  0
 26 28  1  0
 26 27  1  6
 27 21  1  0
 28 30  1  0
 29 28  2  0
M  END
$$$$
