WLT.pdb
     RDKit          3D

 30 31  0  0  1  0  0  0  0  0999 V2000
   27.6742  -23.8366  -13.5042 N   0  0  0  0  0  0  0  0  0  0  0  0
   27.7786  -22.6172  -12.7918 C   0  0  1  0  0  0  0  0  0  0  0  0
   28.5049  -21.5034  -13.4561 C   0  0  0  0  0  0  0  0  0  0  0  0
   29.9461  -21.8291  -13.5287 C   0  0  0  0  0  0  0  0  0  0  0  0
   30.6716  -22.1599  -14.6694 C   0  0  0  0  0  0  0  0  0  0  0  0
   31.9278  -22.3555  -14.3124 N   0  0  0  0  0  0  0  0  0  0  0  0
   32.0906  -22.1745  -12.9877 C   0  0  0  0  0  0  0  0  0  0  0  0
   33.2351  -22.2827  -12.1963 C   0  0  0  0  0  0  0  0  0  0  0  0
   33.1346  -22.0501  -10.8408 C   0  0  0  0  0  0  0  0  0  0  0  0
   31.8969  -21.7209  -10.3400 C   0  0  0  0  0  0  0  0  0  0  0  0
   30.7618  -21.6132  -11.1231 C   0  0  0  0  0  0  0  0  0  0  0  0
   30.8518  -21.8445  -12.4897 C   0  0  0  0  0  0  0  0  0  0  0  0
   26.4003  -22.0992  -12.4605 C   0  0  0  0  0  0  0  0  0  0  0  0
   25.4037  -22.5010  -13.1094 O   0  0  0  0  0  0  0  0  0  0  0  0
   25.5258  -19.6302   -7.4305 C   0  0  0  0  0  0  0  0  0  0  0  0
   25.3416  -20.7244   -8.4986 C   0  0  2  0  0  0  0  0  0  0  0  0
   26.5590  -21.5803   -8.6205 C   0  0  0  0  0  0  0  0  0  0  0  0
   24.9722  -20.0221   -9.7513 C   0  0  0  0  0  0  0  0  0  0  0  0
   24.8408  -20.8715  -10.9787 C   0  0  2  0  0  0  0  0  0  0  0  0
   26.2145  -21.1613  -11.4224 N   0  0  0  0  0  0  0  0  0  0  0  0
   24.1302  -20.0916  -12.0225 C   0  0  0  0  0  0  0  0  0  0  0  0
   24.6199  -19.0495  -12.5020 O   0  0  0  0  0  0  0  0  0  0  0  0
   23.2381  -21.0792  -15.3293 C   0  0  0  0  0  0  0  0  0  0  0  0
   21.9142  -20.7632  -14.6678 C   0  0  1  0  0  0  0  0  0  0  0  0
   21.3746  -21.9665  -14.2229 O   0  0  0  0  0  0  0  0  0  0  0  0
   22.1163  -19.8031  -13.5149 C   0  0  2  0  0  0  0  0  0  0  0  0
   22.8657  -20.5211  -12.5005 N   0  0  0  0  0  0  0  0  0  0  0  0
   20.8535  -19.3421  -12.9352 C   0  0  0  0  0  0  0  0  0  0  0  0
   20.5623  -19.5599  -11.7297 O   0  0  0  0  0  0  0  0  0  0  0  0
   19.9195  -18.6438  -13.6884 O   0  0  0  0  0  0  0  0  0  0  0  0
  2  1  1  6
  2 13  1  0
  2  3  1  0
  3  4  1  0
  4  5  2  0
  6  5  1  0
  7  6  1  0
  8  7  2  0
  9  8  1  0
 10  9  2  0
 10 11  1  0
 11 12  2  0
 12  7  1  0
 12  4  1  0
 13 14  2  0
 16 15  1  1
 17 16  1  0
 19 18  1  1
 18 16  1  0
 20 19  1  0
 20 13  1  0
 21 22  2  0
 21 19  1  0
 24 23  1  1
 24 26  1  0
 25 24  1  0
 26 28  1  0
 26 27  1  1
 27 21  1  0
 28 30  1  0
 29 28  2  0
M  END
$$$$
