KFR.pdb
     RDKit          3D

 32 32  0  0  1  0  0  0  0  0999 V2000
    7.9373  -16.3371   19.5552 N   0  0  0  0  0  0  0  0  0  0  0  0
    9.0128  -15.3632   19.4266 C   0  0  1  0  0  0  0  0  0  0  0  0
    8.6321  -14.2513   18.5064 C   0  0  0  0  0  0  0  0  0  0  0  0
    8.9183  -14.5959   17.0806 C   0  0  0  0  0  0  0  0  0  0  0  0
    7.7454  -14.2800   16.2104 C   0  0  0  0  0  0  0  0  0  0  0  0
    8.1696  -14.6361   14.7764 C   0  0  0  0  0  0  0  0  0  0  0  0
    7.0201  -14.4298   13.9189 N   0  0  0  0  0  0  0  0  0  0  0  0
    9.2719  -14.7944   20.8121 C   0  0  0  0  0  0  0  0  0  0  0  0
   10.3406  -14.2191   21.0563 O   0  0  0  0  0  0  0  0  0  0  0  0
    8.3095  -14.9168   21.8122 N   0  0  0  0  0  0  0  0  0  0  0  0
    8.3753  -14.4537   23.1594 C   0  0  1  0  0  0  0  0  0  0  0  0
    7.0178  -13.8713   23.4936 C   0  0  0  0  0  0  0  0  0  0  0  0
    6.9520  -13.2777   24.8412 C   0  0  0  0  0  0  0  0  0  0  0  0
    6.3427  -13.9254   25.8988 C   0  0  0  0  0  0  0  0  0  0  0  0
    6.2888  -13.3550   27.1806 C   0  0  0  0  0  0  0  0  0  0  0  0
    6.8636  -12.1222   27.3637 C   0  0  0  0  0  0  0  0  0  0  0  0
    7.4686  -11.4793   26.3112 C   0  0  0  0  0  0  0  0  0  0  0  0
    7.5288  -12.0280   25.0444 C   0  0  0  0  0  0  0  0  0  0  0  0
    8.7078  -15.4925   24.1469 C   0  0  0  0  0  0  0  0  0  0  0  0
    8.0131  -16.5171   24.2548 O   0  0  0  0  0  0  0  0  0  0  0  0
   13.4938  -18.6939   29.8814 N   0  0  0  0  0  0  0  0  0  0  0  0
   12.0880  -18.6563   30.2490 C   0  0  0  0  0  0  0  0  0  0  0  0
   11.4895  -19.6997   30.3666 N   0  0  0  0  0  0  0  0  0  0  0  0
   11.4702  -17.3645   30.4305 N   0  0  0  0  0  0  0  0  0  0  0  0
   11.1476  -16.4755   29.3563 C   0  0  0  0  0  0  0  0  0  0  0  0
   11.5717  -16.8714   27.9927 C   0  0  0  0  0  0  0  0  0  0  0  0
   11.2870  -15.8942   26.9027 C   0  0  0  0  0  0  0  0  0  0  0  0
   10.2013  -16.4235   25.9594 C   0  0  2  0  0  0  0  0  0  0  0  0
    9.8465  -15.3748   25.0297 N   0  0  0  0  0  0  0  0  0  0  0  0
    9.0634  -16.8556   26.8098 C   0  0  0  0  0  0  0  0  0  0  0  0
    8.7544  -18.1768   26.9530 O   0  0  0  0  0  0  0  0  0  0  0  0
    8.3933  -15.9874   27.3899 O   0  0  0  0  0  0  0  0  0  0  0  0
  2  3  1  0
  2  8  1  0
  2  1  1  1
  4  3  1  0
  5  4  1  0
  6  5  1  0
  7  6  1  0
  8  9  2  0
 10 11  1  0
 10  8  1  0
 11 19  1  0
 12 13  1  0
 11 12  1  1
 13 14  2  0
 14 15  1  0
 16 15  2  0
 17 16  1  0
 18 13  1  0
 18 17  2  0
 19 20  2  0
 21 22  1  0
 22 24  1  0
 22 23  2  0
 24 25  1  0
 26 25  1  0
 27 26  1  0
 28 27  1  1
 28 30  1  0
 29 19  1  0
 29 28  1  0
 30 32  2  0
 30 31  1  0
M  END
$$$$
