KFR.pdb
     RDKit          3D

 32 32  0  0  1  0  0  0  0  0999 V2000
    6.2225  -17.3188   20.2123 N   0  0  0  0  0  0  0  0  0  0  0  0
    7.1770  -17.9811   21.0909 C   0  0  1  0  0  0  0  0  0  0  0  0
    8.2550  -18.6575   20.3110 C   0  0  0  0  0  0  0  0  0  0  0  0
    7.7536  -19.8953   19.6401 C   0  0  0  0  0  0  0  0  0  0  0  0
    8.8546  -20.5837   18.9006 C   0  0  0  0  0  0  0  0  0  0  0  0
    8.2104  -21.7947   18.2066 C   0  0  0  0  0  0  0  0  0  0  0  0
    9.2403  -22.4447   17.4217 N   0  0  0  0  0  0  0  0  0  0  0  0
    7.7985  -16.9079   21.9696 C   0  0  0  0  0  0  0  0  0  0  0  0
    8.8208  -16.3171   21.5974 O   0  0  0  0  0  0  0  0  0  0  0  0
    7.2215  -16.5837   23.1957 N   0  0  0  0  0  0  0  0  0  0  0  0
    7.6465  -15.5999   24.1366 C   0  0  1  0  0  0  0  0  0  0  0  0
    6.4136  -15.1477   24.8909 C   0  0  0  0  0  0  0  0  0  0  0  0
    6.6816  -14.0630   25.8523 C   0  0  0  0  0  0  0  0  0  0  0  0
    7.3758  -14.2794   27.0273 C   0  0  0  0  0  0  0  0  0  0  0  0
    7.6310  -13.2395   27.9353 C   0  0  0  0  0  0  0  0  0  0  0  0
    7.1701  -11.9842   27.6260 C   0  0  0  0  0  0  0  0  0  0  0  0
    6.4797  -11.7707   26.4578 C   0  0  0  0  0  0  0  0  0  0  0  0
    6.2205  -12.7844   25.5551 C   0  0  0  0  0  0  0  0  0  0  0  0
    8.6527  -16.0715   25.1010 C   0  0  0  0  0  0  0  0  0  0  0  0
    8.4195  -17.0378   25.8465 O   0  0  0  0  0  0  0  0  0  0  0  0
   16.6273  -16.6814   22.3889 N   0  0  0  0  0  0  0  0  0  0  0  0
   16.3119  -16.6565   23.8075 C   0  0  0  0  0  0  0  0  0  0  0  0
   16.8993  -17.4105   24.5473 N   0  0  0  0  0  0  0  0  0  0  0  0
   15.2881  -15.7438   24.2573 N   0  0  0  0  0  0  0  0  0  0  0  0
   14.8657  -15.6259   25.6197 C   0  0  0  0  0  0  0  0  0  0  0  0
   13.5362  -16.1777   25.9716 C   0  0  0  0  0  0  0  0  0  0  0  0
   12.3532  -15.4103   25.4861 C   0  0  0  0  0  0  0  0  0  0  0  0
   11.0460  -16.0886   25.9100 C   0  0  2  0  0  0  0  0  0  0  0  0
    9.9480  -15.4421   25.2270 N   0  0  0  0  0  0  0  0  0  0  0  0
   10.9593  -15.9737   27.3878 C   0  0  0  0  0  0  0  0  0  0  0  0
   11.5077  -16.9228   28.2004 O   0  0  0  0  0  0  0  0  0  0  0  0
   10.3735  -14.9936   27.8733 O   0  0  0  0  0  0  0  0  0  0  0  0
  2  3  1  0
  2  8  1  0
  2  1  1  6
  4  3  1  0
  5  4  1  0
  6  5  1  0
  7  6  1  0
  8  9  2  0
 10 11  1  0
 10  8  1  0
 11 19  1  0
 12 13  1  0
 11 12  1  1
 13 14  2  0
 14 15  1  0
 16 15  2  0
 17 16  1  0
 18 13  1  0
 18 17  2  0
 19 20  2  0
 21 22  1  0
 22 24  1  0
 22 23  2  0
 24 25  1  0
 26 25  1  0
 27 26  1  0
 28 27  1  6
 28 30  1  0
 29 19  1  0
 29 28  1  0
 30 32  2  0
 30 31  1  0
M  END
$$$$
