KFR.pdb
     RDKit          3D

 32 32  0  0  1  0  0  0  0  0999 V2000
    8.0369  -12.7219   18.3020 N   0  0  0  0  0  0  0  0  0  0  0  0
    7.7482  -13.9252   19.0705 C   0  0  1  0  0  0  0  0  0  0  0  0
    8.4214  -15.1204   18.4822 C   0  0  0  0  0  0  0  0  0  0  0  0
    7.9052  -15.4231   17.1127 C   0  0  0  0  0  0  0  0  0  0  0  0
    8.4938  -16.6932   16.5901 C   0  0  0  0  0  0  0  0  0  0  0  0
    7.9997  -16.8280   15.1407 C   0  0  0  0  0  0  0  0  0  0  0  0
    8.5541  -18.0545   14.6045 N   0  0  0  0  0  0  0  0  0  0  0  0
    8.2788  -13.6983   20.4767 C   0  0  0  0  0  0  0  0  0  0  0  0
    9.4622  -13.3776   20.6485 O   0  0  0  0  0  0  0  0  0  0  0  0
    7.4376  -13.8490   21.5770 N   0  0  0  0  0  0  0  0  0  0  0  0
    7.7652  -13.7270   22.9596 C   0  0  1  0  0  0  0  0  0  0  0  0
    6.5590  -13.1235   23.6483 C   0  0  0  0  0  0  0  0  0  0  0  0
    6.7395  -12.9540   25.1013 C   0  0  0  0  0  0  0  0  0  0  0  0
    6.0261  -13.6990   26.0208 C   0  0  0  0  0  0  0  0  0  0  0  0
    6.2078  -13.5346   27.4033 C   0  0  0  0  0  0  0  0  0  0  0  0
    7.1234  -12.6047   27.8284 C   0  0  0  0  0  0  0  0  0  0  0  0
    7.8314  -11.8644   26.9132 C   0  0  0  0  0  0  0  0  0  0  0  0
    7.6628  -12.0148   25.5499 C   0  0  0  0  0  0  0  0  0  0  0  0
    8.1097  -14.9958   23.6201 C   0  0  0  0  0  0  0  0  0  0  0  0
    7.2658  -15.8987   23.7489 O   0  0  0  0  0  0  0  0  0  0  0  0
   14.0948  -18.6736   24.0665 N   0  0  0  0  0  0  0  0  0  0  0  0
   13.6502  -20.0232   23.7606 C   0  0  0  0  0  0  0  0  0  0  0  0
   14.4755  -20.9019   23.6742 N   0  0  0  0  0  0  0  0  0  0  0  0
   12.2388  -20.2393   23.5495 N   0  0  0  0  0  0  0  0  0  0  0  0
   11.2243  -19.2938   23.9037 C   0  0  0  0  0  0  0  0  0  0  0  0
   11.5964  -18.2175   24.8519 C   0  0  0  0  0  0  0  0  0  0  0  0
   11.2447  -16.8270   24.4434 C   0  0  0  0  0  0  0  0  0  0  0  0
    9.7768  -16.5167   24.7560 C   0  0  2  0  0  0  0  0  0  0  0  0
    9.4320  -15.2528   24.1449 N   0  0  0  0  0  0  0  0  0  0  0  0
    9.6438  -16.5025   26.2348 C   0  0  0  0  0  0  0  0  0  0  0  0
    9.4373  -15.3357   26.9112 O   0  0  0  0  0  0  0  0  0  0  0  0
    9.7264  -17.5779   26.8481 O   0  0  0  0  0  0  0  0  0  0  0  0
  2  3  1  0
  2  8  1  0
  2  1  1  6
  4  3  1  0
  5  4  1  0
  6  5  1  0
  7  6  1  0
  8  9  2  0
 10 11  1  0
 10  8  1  0
 11 19  1  0
 12 13  1  0
 11 12  1  1
 13 14  2  0
 14 15  1  0
 16 15  2  0
 17 16  1  0
 18 13  1  0
 18 17  2  0
 19 20  2  0
 21 22  1  0
 22 24  1  0
 22 23  2  0
 24 25  1  0
 26 25  1  0
 27 26  1  0
 28 27  1  1
 28 30  1  0
 29 19  1  0
 29 28  1  0
 30 32  2  0
 30 31  1  0
M  END
$$$$
