KFR.pdb
     RDKit          3D

 32 32  0  0  1  0  0  0  0  0999 V2000
    9.2358  -16.7125   19.2869 N   0  0  0  0  0  0  0  0  0  0  0  0
    8.5028  -17.0812   20.4904 C   0  0  1  0  0  0  0  0  0  0  0  0
    8.7633  -18.5004   20.8722 C   0  0  0  0  0  0  0  0  0  0  0  0
    7.8057  -19.4336   20.2045 C   0  0  0  0  0  0  0  0  0  0  0  0
    8.5300  -20.4028   19.3278 C   0  0  0  0  0  0  0  0  0  0  0  0
    7.4540  -21.3226   18.7284 C   0  0  0  0  0  0  0  0  0  0  0  0
    8.1273  -22.2818   17.8764 N   0  0  0  0  0  0  0  0  0  0  0  0
    8.9852  -16.1699   21.6071 C   0  0  0  0  0  0  0  0  0  0  0  0
   10.1975  -16.0437   21.8243 O   0  0  0  0  0  0  0  0  0  0  0  0
    8.0674  -15.4729   22.3900 N   0  0  0  0  0  0  0  0  0  0  0  0
    8.3088  -14.7438   23.5917 C   0  0  1  0  0  0  0  0  0  0  0  0
    7.1614  -13.7692   23.7558 C   0  0  0  0  0  0  0  0  0  0  0  0
    7.1988  -13.0316   25.0314 C   0  0  0  0  0  0  0  0  0  0  0  0
    8.1206  -12.0310   25.2731 C   0  0  0  0  0  0  0  0  0  0  0  0
    8.1462  -11.3298   26.4892 C   0  0  0  0  0  0  0  0  0  0  0  0
    7.2216  -11.6640   27.4470 C   0  0  0  0  0  0  0  0  0  0  0  0
    6.3061  -12.6592   27.2054 C   0  0  0  0  0  0  0  0  0  0  0  0
    6.2694  -13.3581   26.0139 C   0  0  0  0  0  0  0  0  0  0  0  0
    8.4083  -15.5756   24.8013 C   0  0  0  0  0  0  0  0  0  0  0  0
    7.4185  -16.1845   25.2410 O   0  0  0  0  0  0  0  0  0  0  0  0
   13.6818  -17.4232   22.1025 N   0  0  0  0  0  0  0  0  0  0  0  0
   12.7332  -18.5166   21.9712 C   0  0  0  0  0  0  0  0  0  0  0  0
   12.3548  -18.8289   20.8666 N   0  0  0  0  0  0  0  0  0  0  0  0
   12.2705  -19.1598   23.1777 N   0  0  0  0  0  0  0  0  0  0  0  0
   12.2976  -18.5463   24.4706 C   0  0  0  0  0  0  0  0  0  0  0  0
   10.9952  -18.2218   25.0987 C   0  0  0  0  0  0  0  0  0  0  0  0
   11.0524  -17.4930   26.3986 C   0  0  0  0  0  0  0  0  0  0  0  0
    9.7829  -16.6637   26.6204 C   0  0  2  0  0  0  0  0  0  0  0  0
    9.6483  -15.7250   25.5293 N   0  0  0  0  0  0  0  0  0  0  0  0
    9.9247  -16.0020   27.9420 C   0  0  0  0  0  0  0  0  0  0  0  0
    9.9101  -16.7279   29.0972 O   0  0  0  0  0  0  0  0  0  0  0  0
   10.0556  -14.7686   27.9768 O   0  0  0  0  0  0  0  0  0  0  0  0
  2  3  1  0
  2  8  1  0
  2  1  1  6
  4  3  1  0
  5  4  1  0
  6  5  1  0
  7  6  1  0
  8  9  2  0
 10 11  1  0
 10  8  1  0
 11 19  1  0
 12 13  1  0
 11 12  1  1
 13 14  2  0
 14 15  1  0
 16 15  2  0
 17 16  1  0
 18 13  1  0
 18 17  2  0
 19 20  2  0
 21 22  1  0
 22 24  1  0
 22 23  2  0
 24 25  1  0
 26 25  1  0
 27 26  1  0
 28 27  1  6
 28 30  1  0
 29 19  1  0
 29 28  1  0
 30 32  2  0
 30 31  1  0
M  END
$$$$
