KFR.pdb
     RDKit          3D

 32 32  0  0  1  0  0  0  0  0999 V2000
    7.6640  -13.1495   20.0510 N   0  0  0  0  0  0  0  0  0  0  0  0
    7.4482  -14.4616   20.6456 C   0  0  1  0  0  0  0  0  0  0  0  0
    8.0199  -15.5454   19.7933 C   0  0  0  0  0  0  0  0  0  0  0  0
    7.0711  -15.9527   18.7128 C   0  0  0  0  0  0  0  0  0  0  0  0
    7.6072  -17.1163   17.9438 C   0  0  0  0  0  0  0  0  0  0  0  0
    6.6297  -17.3454   16.7797 C   0  0  0  0  0  0  0  0  0  0  0  0
    7.0860  -18.5122   16.0519 N   0  0  0  0  0  0  0  0  0  0  0  0
    8.1521  -14.4657   21.9927 C   0  0  0  0  0  0  0  0  0  0  0  0
    9.2411  -13.8919   22.1249 O   0  0  0  0  0  0  0  0  0  0  0  0
    7.5762  -15.1135   23.0835 N   0  0  0  0  0  0  0  0  0  0  0  0
    8.1020  -15.2566   24.4014 C   0  0  1  0  0  0  0  0  0  0  0  0
    6.9583  -15.0104   25.3630 C   0  0  0  0  0  0  0  0  0  0  0  0
    6.8994  -13.6234   25.8585 C   0  0  0  0  0  0  0  0  0  0  0  0
    8.0061  -12.9850   26.3847 C   0  0  0  0  0  0  0  0  0  0  0  0
    7.9425  -11.6619   26.8499 C   0  0  0  0  0  0  0  0  0  0  0  0
    6.7396  -11.0059   26.7691 C   0  0  0  0  0  0  0  0  0  0  0  0
    5.6401  -11.6420   26.2463 C   0  0  0  0  0  0  0  0  0  0  0  0
    5.6875  -12.9438   25.7852 C   0  0  0  0  0  0  0  0  0  0  0  0
    8.6911  -16.5748   24.6843 C   0  0  0  0  0  0  0  0  0  0  0  0
    7.9704  -17.5669   24.8848 O   0  0  0  0  0  0  0  0  0  0  0  0
   13.9405  -20.7733   21.0872 N   0  0  0  0  0  0  0  0  0  0  0  0
   14.6452  -20.1362   22.1872 C   0  0  0  0  0  0  0  0  0  0  0  0
   15.5661  -20.7228   22.7055 N   0  0  0  0  0  0  0  0  0  0  0  0
   14.1884  -18.8380   22.6223 N   0  0  0  0  0  0  0  0  0  0  0  0
   13.0866  -18.1402   22.0327 C   0  0  0  0  0  0  0  0  0  0  0  0
   11.8777  -17.9452   22.8673 C   0  0  0  0  0  0  0  0  0  0  0  0
   12.0358  -18.1993   24.3283 C   0  0  0  0  0  0  0  0  0  0  0  0
   10.6944  -18.0682   25.0576 C   0  0  2  0  0  0  0  0  0  0  0  0
   10.1211  -16.7794   24.7412 N   0  0  0  0  0  0  0  0  0  0  0  0
   10.9716  -18.2411   26.5060 C   0  0  0  0  0  0  0  0  0  0  0  0
    9.9708  -18.5450   27.3822 O   0  0  0  0  0  0  0  0  0  0  0  0
   12.1371  -18.1012   26.9077 O   0  0  0  0  0  0  0  0  0  0  0  0
  2  3  1  0
  2  8  1  0
  2  1  1  6
  4  3  1  0
  5  4  1  0
  6  5  1  0
  7  6  1  0
  8  9  2  0
 10 11  1  0
 10  8  1  0
 11 19  1  0
 12 13  1  0
 11 12  1  1
 13 14  2  0
 14 15  1  0
 16 15  2  0
 17 16  1  0
 18 13  1  0
 18 17  2  0
 19 20  2  0
 21 22  1  0
 22 24  1  0
 22 23  2  0
 24 25  1  0
 26 25  1  0
 27 26  1  0
 28 27  1  6
 28 30  1  0
 29 19  1  0
 29 28  1  0
 30 32  2  0
 30 31  1  0
M  END
$$$$
