KFR.pdb
     RDKit          3D

 32 32  0  0  1  0  0  0  0  0999 V2000
    7.9539  -16.4384   19.9126 N   0  0  0  0  0  0  0  0  0  0  0  0
    9.3900  -16.2995   20.1127 C   0  0  1  0  0  0  0  0  0  0  0  0
   10.0069  -15.4492   19.0524 C   0  0  0  0  0  0  0  0  0  0  0  0
    9.4146  -15.7299   17.7093 C   0  0  0  0  0  0  0  0  0  0  0  0
    8.6742  -14.5387   17.1940 C   0  0  0  0  0  0  0  0  0  0  0  0
    8.2070  -14.9069   15.7765 C   0  0  0  0  0  0  0  0  0  0  0  0
    7.3662  -13.8267   15.3015 N   0  0  0  0  0  0  0  0  0  0  0  0
    9.5930  -15.6336   21.4639 C   0  0  0  0  0  0  0  0  0  0  0  0
   10.7304  -15.3118   21.8318 O   0  0  0  0  0  0  0  0  0  0  0  0
    8.5020  -15.3819   22.2932 N   0  0  0  0  0  0  0  0  0  0  0  0
    8.5019  -14.8090   23.5991 C   0  0  1  0  0  0  0  0  0  0  0  0
    7.1997  -14.0506   23.7493 C   0  0  0  0  0  0  0  0  0  0  0  0
    7.0869  -13.3305   25.0304 C   0  0  0  0  0  0  0  0  0  0  0  0
    6.2365  -13.7504   26.0353 C   0  0  0  0  0  0  0  0  0  0  0  0
    6.1388  -13.0615   27.2547 C   0  0  0  0  0  0  0  0  0  0  0  0
    6.9183  -11.9455   27.4303 C   0  0  0  0  0  0  0  0  0  0  0  0
    7.7629  -11.5290   26.4303 C   0  0  0  0  0  0  0  0  0  0  0  0
    7.8691  -12.1965   25.2250 C   0  0  0  0  0  0  0  0  0  0  0  0
    8.6176  -15.7849   24.6943 C   0  0  0  0  0  0  0  0  0  0  0  0
    7.6300  -16.4332   25.0792 O   0  0  0  0  0  0  0  0  0  0  0  0
   11.7824  -20.6954   29.9413 N   0  0  0  0  0  0  0  0  0  0  0  0
   10.3969  -21.1138   29.8067 C   0  0  0  0  0  0  0  0  0  0  0  0
   10.0350  -22.1182   30.3732 N   0  0  0  0  0  0  0  0  0  0  0  0
    9.5265  -20.3158   28.9767 N   0  0  0  0  0  0  0  0  0  0  0  0
    9.8016  -19.9930   27.6097 C   0  0  0  0  0  0  0  0  0  0  0  0
   10.9081  -19.0442   27.3424 C   0  0  0  0  0  0  0  0  0  0  0  0
   10.7404  -18.1501   26.1607 C   0  0  0  0  0  0  0  0  0  0  0  0
    9.9534  -16.8889   26.5326 C   0  0  2  0  0  0  0  0  0  0  0  0
    9.8716  -16.0358   25.3684 N   0  0  0  0  0  0  0  0  0  0  0  0
   10.6672  -16.2539   27.6692 C   0  0  0  0  0  0  0  0  0  0  0  0
   10.5242  -16.7257   28.9415 O   0  0  0  0  0  0  0  0  0  0  0  0
   11.3993  -15.2788   27.4395 O   0  0  0  0  0  0  0  0  0  0  0  0
  2  3  1  0
  2  8  1  0
  2  1  1  6
  4  3  1  0
  5  4  1  0
  6  5  1  0
  7  6  1  0
  8  9  2  0
 10 11  1  0
 10  8  1  0
 11 19  1  0
 12 13  1  0
 11 12  1  1
 13 14  2  0
 14 15  1  0
 16 15  2  0
 17 16  1  0
 18 13  1  0
 18 17  2  0
 19 20  2  0
 21 22  1  0
 22 24  1  0
 22 23  2  0
 24 25  1  0
 26 25  1  0
 27 26  1  0
 28 27  1  6
 28 30  1  0
 29 19  1  0
 29 28  1  0
 30 32  2  0
 30 31  1  0
M  END
$$$$
