SIT.pdb
     RDKit          3D

 22 21  0  0  1  0  0  0  0  0999 V2000
   18.8695  -10.7380  -20.2333 O   0  0  0  0  0  0  0  0  0  0  0  0
   19.5701  -10.2044  -19.1758 C   0  0  0  0  0  0  0  0  0  0  0  0
   20.2798  -11.2773  -18.3882 C   0  0  2  0  0  0  0  0  0  0  0  0
   19.2975  -12.1978  -17.8686 N   0  0  0  0  0  0  0  0  0  0  0  0
   20.9739  -10.6260  -17.2241 C   0  0  0  0  0  0  0  0  0  0  0  0
   20.3594  -10.4848  -16.1232 O   0  0  0  0  0  0  0  0  0  0  0  0
   25.5872  -12.3624  -15.8022 C   0  0  0  0  0  0  0  0  0  0  0  0
   24.2189  -11.6985  -15.8727 C   0  0  0  0  0  0  0  0  0  0  0  0
   24.3109  -10.2238  -16.0043 C   0  0  2  0  0  0  0  0  0  0  0  0
   25.0915   -9.5681  -14.8878 C   0  0  0  0  0  0  0  0  0  0  0  0
   22.9472   -9.5880  -16.1148 C   0  0  2  0  0  0  0  0  0  0  0  0
   22.2941  -10.1585  -17.3006 N   0  0  0  0  0  0  0  0  0  0  0  0
   22.9571   -8.1197  -16.2050 C   0  0  0  0  0  0  0  0  0  0  0  0
   23.6389   -7.5250  -17.0419 O   0  0  0  0  0  0  0  0  0  0  0  0
   20.3939   -5.7664  -17.0777 C   0  0  0  0  0  0  0  0  0  0  0  0
   20.7751   -5.4104  -15.6625 C   0  0  1  0  0  0  0  0  0  0  0  0
   19.8999   -6.0512  -14.7602 O   0  0  0  0  0  0  0  0  0  0  0  0
   22.1668   -5.9034  -15.3099 C   0  0  2  0  0  0  0  0  0  0  0  0
   22.1573   -7.3494  -15.3015 N   0  0  0  0  0  0  0  0  0  0  0  0
   22.4592   -5.4307  -13.9374 C   0  0  0  0  0  0  0  0  0  0  0  0
   22.4483   -6.2364  -12.9837 O   0  0  0  0  0  0  0  0  0  0  0  0
   22.7483   -4.0956  -13.6869 O   0  0  0  0  0  0  0  0  0  0  0  0
  1  2  1  0
  3  2  1  0
  3  4  1  1
  3  5  1  0
  5 12  1  0
  6  5  2  0
  8  7  1  0
  9  8  1  0
  9 11  1  0
  9 10  1  1
 11 13  1  0
 11 12  1  6
 13 19  1  0
 13 14  2  0
 16 15  1  6
 16 18  1  0
 17 16  1  0
 18 20  1  0
 18 19  1  1
 20 21  2  0
 20 22  1  0
M  END
$$$$
