SIT.pdb
     RDKit          3D

 22 21  0  0  1  0  0  0  0  0999 V2000
   44.5969  -14.3662   -8.5767 O   0  0  0  0  0  0  0  0  0  0  0  0
   44.0018  -13.1256   -8.5499 C   0  0  0  0  0  0  0  0  0  0  0  0
   42.5326  -13.2126   -8.8799 C   0  0  2  0  0  0  0  0  0  0  0  0
   42.3888  -13.6882  -10.2346 N   0  0  0  0  0  0  0  0  0  0  0  0
   41.9501  -11.8284   -8.8047 C   0  0  0  0  0  0  0  0  0  0  0  0
   41.8867  -11.1141   -9.8513 O   0  0  0  0  0  0  0  0  0  0  0  0
   37.4377  -11.4696   -6.7354 C   0  0  0  0  0  0  0  0  0  0  0  0
   38.7438  -11.2343   -7.4815 C   0  0  0  0  0  0  0  0  0  0  0  0
   39.4991  -10.0738   -6.9493 C   0  0  2  0  0  0  0  0  0  0  0  0
   38.7498   -8.7656   -7.0628 C   0  0  0  0  0  0  0  0  0  0  0  0
   40.8534   -9.9440   -7.6011 C   0  0  2  0  0  0  0  0  0  0  0  0
   41.4645  -11.2800   -7.6086 N   0  0  0  0  0  0  0  0  0  0  0  0
   41.7590   -8.9817   -6.9546 C   0  0  0  0  0  0  0  0  0  0  0  0
   42.0521   -9.0668   -5.7605 O   0  0  0  0  0  0  0  0  0  0  0  0
   45.3011   -7.6975   -8.3410 C   0  0  0  0  0  0  0  0  0  0  0  0
   44.2858   -6.5945   -8.1759 C   0  0  1  0  0  0  0  0  0  0  0  0
   43.5906   -6.4046   -9.3888 O   0  0  0  0  0  0  0  0  0  0  0  0
   43.2294   -6.9471   -7.1443 C   0  0  2  0  0  0  0  0  0  0  0  0
   42.3216   -7.9127   -7.7227 N   0  0  0  0  0  0  0  0  0  0  0  0
   42.4720   -5.7073   -6.8585 C   0  0  0  0  0  0  0  0  0  0  0  0
   41.3123   -5.5681   -7.2998 O   0  0  0  0  0  0  0  0  0  0  0  0
   43.0309   -4.6856   -6.1018 O   0  0  0  0  0  0  0  0  0  0  0  0
  1  2  1  0
  3  2  1  0
  3  4  1  6
  3  5  1  0
  5 12  1  0
  6  5  2  0
  8  7  1  0
  9  8  1  0
  9 11  1  0
  9 10  1  6
 11 13  1  0
 11 12  1  1
 13 19  1  0
 13 14  2  0
 16 15  1  6
 16 18  1  0
 17 16  1  0
 18 20  1  0
 18 19  1  6
 20 21  2  0
 20 22  1  0
M  END
$$$$
