SIT.pdb
     RDKit          3D

 22 21  0  0  1  0  0  0  0  0999 V2000
   18.8358  -12.9478  -18.6996 O   0  0  0  0  0  0  0  0  0  0  0  0
   18.8295  -12.0934  -17.6208 C   0  0  0  0  0  0  0  0  0  0  0  0
   19.6861  -10.8783  -17.8759 C   0  0  2  0  0  0  0  0  0  0  0  0
   20.9892  -11.3137  -18.3172 N   0  0  0  0  0  0  0  0  0  0  0  0
   19.8537  -10.1390  -16.5774 C   0  0  0  0  0  0  0  0  0  0  0  0
   18.8314   -9.7129  -15.9587 O   0  0  0  0  0  0  0  0  0  0  0  0
   22.8481  -10.5066  -11.4717 C   0  0  0  0  0  0  0  0  0  0  0  0
   22.1067   -9.5763  -12.4220 C   0  0  0  0  0  0  0  0  0  0  0  0
   21.9933  -10.1374  -13.7905 C   0  0  2  0  0  0  0  0  0  0  0  0
   23.3286  -10.4717  -14.4157 C   0  0  0  0  0  0  0  0  0  0  0  0
   21.2166   -9.2230  -14.7050 C   0  0  2  0  0  0  0  0  0  0  0  0
   21.1118   -9.8941  -16.0076 N   0  0  0  0  0  0  0  0  0  0  0  0
   21.7988   -7.8829  -14.8765 C   0  0  0  0  0  0  0  0  0  0  0  0
   22.8106   -7.6963  -15.5550 O   0  0  0  0  0  0  0  0  0  0  0  0
   19.2291   -4.6777  -14.2869 C   0  0  0  0  0  0  0  0  0  0  0  0
   20.4794   -4.6307  -15.1291 C   0  0  1  0  0  0  0  0  0  0  0  0
   20.9284   -3.2975  -15.2372 O   0  0  0  0  0  0  0  0  0  0  0  0
   21.6211   -5.4014  -14.4913 C   0  0  2  0  0  0  0  0  0  0  0  0
   21.1826   -6.7568  -14.2428 N   0  0  0  0  0  0  0  0  0  0  0  0
   21.9050   -4.7565  -13.1889 C   0  0  0  0  0  0  0  0  0  0  0  0
   22.4985   -3.6586  -13.1518 O   0  0  0  0  0  0  0  0  0  0  0  0
   21.5207   -5.3541  -11.9957 O   0  0  0  0  0  0  0  0  0  0  0  0
  1  2  1  0
  3  2  1  0
  3  4  1  1
  3  5  1  0
  5 12  1  0
  6  5  2  0
  8  7  1  0
  9  8  1  0
  9 11  1  0
  9 10  1  6
 11 13  1  0
 11 12  1  6
 13 19  1  0
 13 14  2  0
 16 15  1  1
 16 18  1  0
 17 16  1  0
 18 20  1  0
 18 19  1  1
 20 21  2  0
 20 22  1  0
M  END
$$$$
