SIT.pdb
     RDKit          3D

 22 21  0  0  1  0  0  0  0  0999 V2000
   19.0658  -10.0360  -21.0018 O   0  0  0  0  0  0  0  0  0  0  0  0
   18.9024   -9.5027  -19.7436 C   0  0  0  0  0  0  0  0  0  0  0  0
   19.6176  -10.3244  -18.7003 C   0  0  2  0  0  0  0  0  0  0  0  0
   18.7894  -11.4532  -18.3509 N   0  0  0  0  0  0  0  0  0  0  0  0
   19.7951   -9.4752  -17.4722 C   0  0  0  0  0  0  0  0  0  0  0  0
   18.8266   -9.3220  -16.6671 O   0  0  0  0  0  0  0  0  0  0  0  0
   23.2801  -10.6539  -14.0890 C   0  0  0  0  0  0  0  0  0  0  0  0
   22.0849  -10.0426  -14.8072 C   0  0  0  0  0  0  0  0  0  0  0  0
   22.3066   -8.6207  -15.1667 C   0  0  2  0  0  0  0  0  0  0  0  0
   22.6150   -7.7407  -13.9767 C   0  0  0  0  0  0  0  0  0  0  0  0
   21.1386   -8.0510  -15.9330 C   0  0  2  0  0  0  0  0  0  0  0  0
   21.0046   -8.8326  -17.1697 N   0  0  0  0  0  0  0  0  0  0  0  0
   21.2509   -6.6197  -16.2537 C   0  0  0  0  0  0  0  0  0  0  0  0
   22.1925   -6.1735  -16.9119 O   0  0  0  0  0  0  0  0  0  0  0  0
   18.8854   -2.2270  -16.1865 C   0  0  0  0  0  0  0  0  0  0  0  0
   18.9244   -3.6971  -15.8518 C   0  0  1  0  0  0  0  0  0  0  0  0
   18.0493   -4.4012  -16.7057 O   0  0  0  0  0  0  0  0  0  0  0  0
   20.3002   -4.2947  -16.0851 C   0  0  2  0  0  0  0  0  0  0  0  0
   20.2453   -5.7102  -15.7943 N   0  0  0  0  0  0  0  0  0  0  0  0
   21.2204   -3.6548  -15.1175 C   0  0  0  0  0  0  0  0  0  0  0  0
   21.1972   -3.9933  -13.9158 O   0  0  0  0  0  0  0  0  0  0  0  0
   22.1179   -2.6758  -15.5234 O   0  0  0  0  0  0  0  0  0  0  0  0
  1  2  1  0
  3  2  1  0
  3  4  1  1
  3  5  1  0
  5 12  1  0
  6  5  2  0
  8  7  1  0
  9  8  1  0
  9 11  1  0
  9 10  1  1
 11 13  1  0
 11 12  1  6
 13 19  1  0
 13 14  2  0
 16 15  1  6
 16 18  1  0
 17 16  1  0
 18 20  1  0
 18 19  1  1
 20 21  2  0
 20 22  1  0
M  END
$$$$
