LMS.pdb
     RDKit          3D

 23 22  0  0  1  0  0  0  0  0999 V2000
   27.7906  -13.1085  -17.0813 C   0  0  0  0  0  0  0  0  0  0  0  0
   26.8549  -13.0536  -15.8928 C   0  0  2  0  0  0  0  0  0  0  0  0
   27.6148  -12.5115  -14.7228 C   0  0  0  0  0  0  0  0  0  0  0  0
   26.3195  -14.4572  -15.6293 C   0  0  0  0  0  0  0  0  0  0  0  0
   25.7390  -14.9517  -16.9269 C   0  0  2  0  0  0  0  0  0  0  0  0
   24.6909  -14.0629  -17.3397 N   0  0  0  0  0  0  0  0  0  0  0  0
   25.2357  -16.3414  -16.8383 C   0  0  0  0  0  0  0  0  0  0  0  0
   26.0285  -17.2773  -16.5068 O   0  0  0  0  0  0  0  0  0  0  0  0
   19.9676  -17.6303  -13.8142 C   0  0  0  0  0  0  0  0  0  0  0  0
   20.3500  -19.2310  -14.5758 S   0  0  0  0  0  0  0  0  0  0  0  0
   22.0581  -19.2265  -15.2441 C   0  0  0  0  0  0  0  0  0  0  0  0
   22.1304  -18.0870  -16.2262 C   0  0  0  0  0  0  0  0  0  0  0  0
   23.4078  -18.0586  -17.0102 C   0  0  2  0  0  0  0  0  0  0  0  0
   23.9019  -16.7014  -17.1046 N   0  0  0  0  0  0  0  0  0  0  0  0
   23.2687  -18.6893  -18.3479 C   0  0  0  0  0  0  0  0  0  0  0  0
   23.1980  -18.0187  -19.4099 O   0  0  0  0  0  0  0  0  0  0  0  0
   23.3081  -22.7622  -20.9529 O   0  0  0  0  0  0  0  0  0  0  0  0
   23.4505  -22.2156  -19.6830 C   0  0  0  0  0  0  0  0  0  0  0  0
   22.9993  -20.7671  -19.7509 C   0  0  2  0  0  0  0  0  0  0  0  0
   23.2092  -20.1035  -18.4796 N   0  0  0  0  0  0  0  0  0  0  0  0
   21.6261  -20.6280  -20.2441 C   0  0  0  0  0  0  0  0  0  0  0  0
   21.3845  -20.6546  -21.6016 O   0  0  0  0  0  0  0  0  0  0  0  0
   20.6825  -20.4870  -19.4568 O   0  0  0  0  0  0  0  0  0  0  0  0
  2  1  1  6
  2  3  1  0
  4  5  1  0
  4  2  1  0
  5  6  1  1
  7  8  2  0
  7  5  1  0
 10  9  1  0
 10 11  1  0
 11 12  1  0
 13 12  1  6
 13 14  1  0
 14  7  1  0
 15 20  1  0
 15 13  1  0
 16 15  2  0
 17 18  1  0
 19 18  1  1
 19 20  1  0
 19 21  1  0
 21 22  1  0
 23 21  2  0
M  END
$$$$
