LMS.pdb
     RDKit          3D

 23 22  0  0  1  0  0  0  0  0999 V2000
   18.1193  -10.9115  -18.8940 C   0  0  0  0  0  0  0  0  0  0  0  0
   17.2053  -11.4687  -17.8238 C   0  0  2  0  0  0  0  0  0  0  0  0
   15.8404  -10.8884  -18.0246 C   0  0  0  0  0  0  0  0  0  0  0  0
   17.7839  -11.1159  -16.4574 C   0  0  0  0  0  0  0  0  0  0  0  0
   19.1913  -11.6488  -16.4305 C   0  0  2  0  0  0  0  0  0  0  0  0
   19.1553  -13.0506  -16.1265 N   0  0  0  0  0  0  0  0  0  0  0  0
   20.0587  -10.9315  -15.4686 C   0  0  0  0  0  0  0  0  0  0  0  0
   19.8835  -11.0949  -14.2208 O   0  0  0  0  0  0  0  0  0  0  0  0
   25.7477  -11.0392  -16.8864 C   0  0  0  0  0  0  0  0  0  0  0  0
   25.4870  -11.2324  -15.1022 S   0  0  0  0  0  0  0  0  0  0  0  0
   23.7129  -11.0147  -14.6906 C   0  0  0  0  0  0  0  0  0  0  0  0
   23.3445   -9.6163  -15.1115 C   0  0  0  0  0  0  0  0  0  0  0  0
   21.8916   -9.3012  -14.9186 C   0  0  2  0  0  0  0  0  0  0  0  0
   21.0910  -10.0581  -15.8574 N   0  0  0  0  0  0  0  0  0  0  0  0
   21.6091   -7.8453  -15.0011 C   0  0  0  0  0  0  0  0  0  0  0  0
   22.2435   -6.9921  -14.3287 O   0  0  0  0  0  0  0  0  0  0  0  0
   20.2502   -6.2014  -18.2225 O   0  0  0  0  0  0  0  0  0  0  0  0
   19.5076   -5.6205  -17.2013 C   0  0  0  0  0  0  0  0  0  0  0  0
   20.1869   -5.9605  -15.8862 C   0  0  2  0  0  0  0  0  0  0  0  0
   20.5901   -7.3524  -15.8612 N   0  0  0  0  0  0  0  0  0  0  0  0
   19.3810   -5.5818  -14.7221 C   0  0  0  0  0  0  0  0  0  0  0  0
   18.9506   -4.2785  -14.5871 O   0  0  0  0  0  0  0  0  0  0  0  0
   19.0829   -6.4176  -13.8602 O   0  0  0  0  0  0  0  0  0  0  0  0
  2  1  1  6
  2  3  1  0
  4  5  1  0
  4  2  1  0
  5  6  1  1
  7  8  2  0
  7  5  1  0
 10  9  1  0
 10 11  1  0
 11 12  1  0
 13 12  1  6
 13 14  1  0
 14  7  1  0
 15 20  1  0
 15 13  1  0
 16 15  2  0
 17 18  1  0
 19 18  1  6
 19 20  1  0
 19 21  1  0
 21 22  1  0
 23 21  2  0
M  END
$$$$
