LMS.pdb
     RDKit          3D

 23 22  0  0  1  0  0  0  0  0999 V2000
   21.0972  -19.6265  -19.1402 C   0  0  0  0  0  0  0  0  0  0  0  0
   19.8231  -19.3137  -18.3855 C   0  0  2  0  0  0  0  0  0  0  0  0
   18.6773  -19.3987  -19.3447 C   0  0  0  0  0  0  0  0  0  0  0  0
   19.9521  -17.9257  -17.7666 C   0  0  0  0  0  0  0  0  0  0  0  0
   21.1618  -17.9594  -16.8717 C   0  0  2  0  0  0  0  0  0  0  0  0
   20.9272  -18.8869  -15.8023 N   0  0  0  0  0  0  0  0  0  0  0  0
   21.5156  -16.6260  -16.3337 C   0  0  0  0  0  0  0  0  0  0  0  0
   20.7722  -16.0842  -15.4573 O   0  0  0  0  0  0  0  0  0  0  0  0
   27.4444  -15.3110  -16.3556 C   0  0  0  0  0  0  0  0  0  0  0  0
   26.7126  -14.5629  -14.8746 S   0  0  0  0  0  0  0  0  0  0  0  0
   24.8981  -14.8301  -14.8565 C   0  0  0  0  0  0  0  0  0  0  0  0
   24.3761  -14.3119  -16.1707 C   0  0  0  0  0  0  0  0  0  0  0  0
   22.9043  -14.5307  -16.3532 C   0  0  2  0  0  0  0  0  0  0  0  0
   22.6511  -15.9020  -16.7410 N   0  0  0  0  0  0  0  0  0  0  0  0
   22.2997  -13.5667  -17.3080 C   0  0  0  0  0  0  0  0  0  0  0  0
   22.0337  -13.8688  -18.4998 O   0  0  0  0  0  0  0  0  0  0  0  0
   19.9218  -12.2295  -19.4556 O   0  0  0  0  0  0  0  0  0  0  0  0
   19.8833  -11.9423  -18.0962 C   0  0  0  0  0  0  0  0  0  0  0  0
   21.2184  -11.3257  -17.7170 C   0  0  2  0  0  0  0  0  0  0  0  0
   21.9930  -12.2396  -16.9011 N   0  0  0  0  0  0  0  0  0  0  0  0
   21.0734  -10.0018  -17.1052 C   0  0  0  0  0  0  0  0  0  0  0  0
   20.3625   -9.0213  -17.7649 O   0  0  0  0  0  0  0  0  0  0  0  0
   21.5811   -9.7546  -16.0046 O   0  0  0  0  0  0  0  0  0  0  0  0
  2  1  1  6
  2  3  1  0
  4  5  1  0
  4  2  1  0
  5  6  1  1
  7  8  2  0
  7  5  1  0
 10  9  1  0
 10 11  1  0
 11 12  1  0
 13 12  1  6
 13 14  1  0
 14  7  1  0
 15 20  1  0
 15 13  1  0
 16 15  2  0
 17 18  1  0
 19 18  1  1
 19 20  1  0
 19 21  1  0
 21 22  1  0
 23 21  2  0
M  END
$$$$
