LMS.pdb
     RDKit          3D

 23 22  0  0  1  0  0  0  0  0999 V2000
   24.1380  -13.3808  -15.3879 C   0  0  0  0  0  0  0  0  0  0  0  0
   23.7270  -13.2469  -16.8384 C   0  0  2  0  0  0  0  0  0  0  0  0
   24.7358  -13.9644  -17.6795 C   0  0  0  0  0  0  0  0  0  0  0  0
   23.6406  -11.7641  -17.1851 C   0  0  0  0  0  0  0  0  0  0  0  0
   22.5873  -11.1689  -16.2897 C   0  0  2  0  0  0  0  0  0  0  0  0
   21.3578  -11.8855  -16.4729 N   0  0  0  0  0  0  0  0  0  0  0  0
   22.3842   -9.7213  -16.5255 C   0  0  0  0  0  0  0  0  0  0  0  0
   23.3567   -8.9174  -16.3764 O   0  0  0  0  0  0  0  0  0  0  0  0
   17.6515   -9.3167  -20.3988 C   0  0  0  0  0  0  0  0  0  0  0  0
   18.6104   -7.7806  -20.4951 S   0  0  0  0  0  0  0  0  0  0  0  0
   20.1605   -7.9355  -19.5269 C   0  0  0  0  0  0  0  0  0  0  0  0
   19.8224   -7.5441  -18.1125 C   0  0  0  0  0  0  0  0  0  0  0  0
   20.9549   -7.7505  -17.1521 C   0  0  2  0  0  0  0  0  0  0  0  0
   21.1519   -9.1646  -16.9141 N   0  0  0  0  0  0  0  0  0  0  0  0
   20.7708   -6.9981  -15.8847 C   0  0  0  0  0  0  0  0  0  0  0  0
   20.2133   -7.4982  -14.8739 O   0  0  0  0  0  0  0  0  0  0  0  0
   22.2414   -4.9166  -12.3573 O   0  0  0  0  0  0  0  0  0  0  0  0
   22.1449   -5.6995  -13.5016 C   0  0  0  0  0  0  0  0  0  0  0  0
   21.2769   -4.9528  -14.4994 C   0  0  2  0  0  0  0  0  0  0  0  0
   21.2273   -5.6572  -15.7652 N   0  0  0  0  0  0  0  0  0  0  0  0
   21.6691   -3.5483  -14.6461 C   0  0  0  0  0  0  0  0  0  0  0  0
   21.5282   -2.6872  -13.5781 O   0  0  0  0  0  0  0  0  0  0  0  0
   22.1246   -3.1272  -15.7164 O   0  0  0  0  0  0  0  0  0  0  0  0
  2  1  1  1
  2  3  1  0
  4  5  1  0
  4  2  1  0
  5  6  1  6
  7  8  2  0
  7  5  1  0
 10  9  1  0
 10 11  1  0
 11 12  1  0
 13 12  1  6
 13 14  1  0
 14  7  1  0
 15 20  1  0
 15 13  1  0
 16 15  2  0
 17 18  1  0
 19 18  1  1
 19 20  1  0
 19 21  1  0
 21 22  1  0
 23 21  2  0
M  END
$$$$
