LMS.pdb
     RDKit          3D

 23 22  0  0  1  0  0  0  0  0999 V2000
   21.1790  -12.4289  -20.6787 C   0  0  0  0  0  0  0  0  0  0  0  0
   20.0354  -12.7018  -19.7255 C   0  0  2  0  0  0  0  0  0  0  0  0
   18.7645  -12.2562  -20.3784 C   0  0  0  0  0  0  0  0  0  0  0  0
   20.3015  -11.9589  -18.4203 C   0  0  0  0  0  0  0  0  0  0  0  0
   21.6188  -12.4623  -17.8943 C   0  0  2  0  0  0  0  0  0  0  0  0
   21.4466  -13.7997  -17.4037 N   0  0  0  0  0  0  0  0  0  0  0  0
   22.1865  -11.5920  -16.8395 C   0  0  0  0  0  0  0  0  0  0  0  0
   21.6069  -11.5108  -15.7118 O   0  0  0  0  0  0  0  0  0  0  0  0
   28.3733  -12.7429  -14.7703 C   0  0  0  0  0  0  0  0  0  0  0  0
   27.6601  -11.2555  -15.5236 S   0  0  0  0  0  0  0  0  0  0  0  0
   25.8341  -11.2673  -15.3513 C   0  0  0  0  0  0  0  0  0  0  0  0
   25.3408   -9.9700  -15.9359 C   0  0  0  0  0  0  0  0  0  0  0  0
   23.8465   -9.8888  -16.0252 C   0  0  2  0  0  0  0  0  0  0  0  0
   23.3566  -10.8295  -17.0101 N   0  0  0  0  0  0  0  0  0  0  0  0
   23.3665   -8.5089  -16.2937 C   0  0  0  0  0  0  0  0  0  0  0  0
   23.3327   -8.0156  -17.4504 O   0  0  0  0  0  0  0  0  0  0  0  0
   20.2335   -7.0300  -15.8724 O   0  0  0  0  0  0  0  0  0  0  0  0
   21.2856   -6.3155  -16.4330 C   0  0  0  0  0  0  0  0  0  0  0  0
   22.4333   -6.3280  -15.4385 C   0  0  2  0  0  0  0  0  0  0  0  0
   22.9183   -7.6780  -15.2309 N   0  0  0  0  0  0  0  0  0  0  0  0
   22.0995   -5.6455  -14.1852 C   0  0  0  0  0  0  0  0  0  0  0  0
   21.8580   -4.2878  -14.1929 O   0  0  0  0  0  0  0  0  0  0  0  0
   22.0320   -6.2735  -13.1215 O   0  0  0  0  0  0  0  0  0  0  0  0
  2  1  1  6
  2  3  1  0
  4  5  1  0
  4  2  1  0
  5  6  1  1
  7  8  2  0
  7  5  1  0
 10  9  1  0
 10 11  1  0
 11 12  1  0
 13 12  1  6
 13 14  1  0
 14  7  1  0
 15 20  1  0
 15 13  1  0
 16 15  2  0
 17 18  1  0
 19 18  1  6
 19 20  1  0
 19 21  1  0
 21 22  1  0
 23 21  2  0
M  END
$$$$
