LMS.pdb
     RDKit          3D

 23 22  0  0  1  0  0  0  0  0999 V2000
   17.2676  -12.4406    4.7011 C   0  0  0  0  0  0  0  0  0  0  0  0
   18.5638  -12.7630    5.4131 C   0  0  2  0  0  0  0  0  0  0  0  0
   19.6137  -11.8130    4.9282 C   0  0  0  0  0  0  0  0  0  0  0  0
   18.9280  -14.2162    5.1269 C   0  0  0  0  0  0  0  0  0  0  0  0
   17.8467  -15.0644    5.7406 C   0  0  2  0  0  0  0  0  0  0  0  0
   17.6441  -14.6529    7.1002 N   0  0  0  0  0  0  0  0  0  0  0  0
   18.1470  -16.5129    5.6764 C   0  0  0  0  0  0  0  0  0  0  0  0
   18.2128  -17.0919    4.5473 O   0  0  0  0  0  0  0  0  0  0  0  0
   22.7128  -17.2518    8.9655 C   0  0  0  0  0  0  0  0  0  0  0  0
   22.6685  -18.7417    7.9327 S   0  0  0  0  0  0  0  0  0  0  0  0
   21.2734  -18.6524    6.7453 C   0  0  0  0  0  0  0  0  0  0  0  0
   20.0200  -18.9173    7.5371 C   0  0  0  0  0  0  0  0  0  0  0  0
   18.7629  -18.7012    6.7494 C   0  0  2  0  0  0  0  0  0  0  0  0
   18.3699  -17.3097    6.8143 N   0  0  0  0  0  0  0  0  0  0  0  0
   17.6632  -19.6054    7.1731 C   0  0  0  0  0  0  0  0  0  0  0  0
   16.9047  -19.3432    8.1418 O   0  0  0  0  0  0  0  0  0  0  0  0
   15.5321  -22.0495    4.7344 O   0  0  0  0  0  0  0  0  0  0  0  0
   15.1740  -21.6589    6.0194 C   0  0  0  0  0  0  0  0  0  0  0  0
   16.4078  -21.7748    6.8973 C   0  0  2  0  0  0  0  0  0  0  0  0
   17.4227  -20.8258    6.4848 N   0  0  0  0  0  0  0  0  0  0  0  0
   16.9139  -23.1479    6.9784 C   0  0  0  0  0  0  0  0  0  0  0  0
   16.1206  -24.1345    7.5255 O   0  0  0  0  0  0  0  0  0  0  0  0
   18.0437  -23.4313    6.5618 O   0  0  0  0  0  0  0  0  0  0  0  0
  2  1  1  6
  2  3  1  0
  4  5  1  0
  4  2  1  0
  5  6  1  1
  7  8  2  0
  7  5  1  0
 10  9  1  0
 10 11  1  0
 11 12  1  0
 13 12  1  1
 13 14  1  0
 14  7  1  0
 15 20  1  0
 15 13  1  0
 16 15  2  0
 17 18  1  0
 19 18  1  6
 19 20  1  0
 19 21  1  0
 21 22  1  0
 23 21  2  0
M  END
$$$$
