LMS.pdb
     RDKit          3D

 23 22  0  0  1  0  0  0  0  0999 V2000
   17.6864  -10.0551  -20.3319 C   0  0  0  0  0  0  0  0  0  0  0  0
   16.7469  -10.3163  -19.1743 C   0  0  2  0  0  0  0  0  0  0  0  0
   15.5185   -9.4840  -19.3707 C   0  0  0  0  0  0  0  0  0  0  0  0
   17.4692   -9.9761  -17.8748 C   0  0  0  0  0  0  0  0  0  0  0  0
   18.7139  -10.8214  -17.8351 C   0  0  2  0  0  0  0  0  0  0  0  0
   18.3478  -12.1812  -17.5600 N   0  0  0  0  0  0  0  0  0  0  0  0
   19.7037  -10.3401  -16.8446 C   0  0  0  0  0  0  0  0  0  0  0  0
   19.3619  -10.2061  -15.6282 O   0  0  0  0  0  0  0  0  0  0  0  0
   27.1797  -10.0850  -14.5718 C   0  0  0  0  0  0  0  0  0  0  0  0
   25.8880  -10.5385  -15.7611 S   0  0  0  0  0  0  0  0  0  0  0  0
   24.3449   -9.6114  -15.4098 C   0  0  0  0  0  0  0  0  0  0  0  0
   23.3020  -10.1413  -16.3584 C   0  0  0  0  0  0  0  0  0  0  0  0
   21.9744   -9.4581  -16.2237 C   0  0  2  0  0  0  0  0  0  0  0  0
   21.0324  -10.0133  -17.1721 N   0  0  0  0  0  0  0  0  0  0  0  0
   22.0787   -7.9817  -16.3496 C   0  0  0  0  0  0  0  0  0  0  0  0
   22.2966   -7.4083  -17.4479 O   0  0  0  0  0  0  0  0  0  0  0  0
   19.6237   -5.6094  -14.7250 O   0  0  0  0  0  0  0  0  0  0  0  0
   20.8684   -5.1259  -14.3394 C   0  0  0  0  0  0  0  0  0  0  0  0
   21.9016   -5.6986  -15.2940 C   0  0  2  0  0  0  0  0  0  0  0  0
   21.9329   -7.1452  -15.2095 N   0  0  0  0  0  0  0  0  0  0  0  0
   23.2243   -5.0910  -15.1222 C   0  0  0  0  0  0  0  0  0  0  0  0
   23.3664   -3.7245  -15.2420 O   0  0  0  0  0  0  0  0  0  0  0  0
   24.2136   -5.7899  -14.8711 O   0  0  0  0  0  0  0  0  0  0  0  0
  2  1  1  6
  2  3  1  0
  4  5  1  0
  4  2  1  0
  5  6  1  1
  7  8  2  0
  7  5  1  0
 10  9  1  0
 10 11  1  0
 11 12  1  0
 13 12  1  6
 13 14  1  0
 14  7  1  0
 15 20  1  0
 15 13  1  0
 16 15  2  0
 17 18  1  0
 19 18  1  1
 19 20  1  0
 19 21  1  0
 21 22  1  0
 23 21  2  0
M  END
$$$$
