LMS.pdb
     RDKit          3D

 23 22  0  0  1  0  0  0  0  0999 V2000
   20.3312  -10.6573  -16.6912 C   0  0  0  0  0  0  0  0  0  0  0  0
   19.1973  -11.3886  -16.0054 C   0  0  2  0  0  0  0  0  0  0  0  0
   19.1800  -12.7996  -16.5044 C   0  0  0  0  0  0  0  0  0  0  0  0
   17.8934  -10.6570  -16.3065 C   0  0  0  0  0  0  0  0  0  0  0  0
   18.0888   -9.2268  -15.8801 C   0  0  2  0  0  0  0  0  0  0  0  0
   18.1588   -9.1707  -14.4480 N   0  0  0  0  0  0  0  0  0  0  0  0
   17.0259   -8.3271  -16.3831 C   0  0  0  0  0  0  0  0  0  0  0  0
   16.8838   -8.1599  -17.6346 O   0  0  0  0  0  0  0  0  0  0  0  0
   11.0347   -9.8545  -14.1876 C   0  0  0  0  0  0  0  0  0  0  0  0
   11.7774   -8.2016  -14.2554 S   0  0  0  0  0  0  0  0  0  0  0  0
   13.2403   -8.2055  -15.3618 C   0  0  0  0  0  0  0  0  0  0  0  0
   13.8766   -6.8464  -15.2346 C   0  0  0  0  0  0  0  0  0  0  0  0
   15.1385   -6.7043  -16.0315 C   0  0  2  0  0  0  0  0  0  0  0  0
   16.1403   -7.6277  -15.5429 N   0  0  0  0  0  0  0  0  0  0  0  0
   15.6415   -5.3069  -16.0566 C   0  0  0  0  0  0  0  0  0  0  0  0
   14.9858   -4.3590  -16.5604 O   0  0  0  0  0  0  0  0  0  0  0  0
   17.7315   -1.7432  -14.0806 O   0  0  0  0  0  0  0  0  0  0  0  0
   17.1103   -2.9862  -14.1077 C   0  0  0  0  0  0  0  0  0  0  0  0
   17.4223   -3.6286  -15.4481 C   0  0  2  0  0  0  0  0  0  0  0  0
   16.9090   -4.9831  -15.5004 N   0  0  0  0  0  0  0  0  0  0  0  0
   18.8442   -3.5464  -15.7941 C   0  0  0  0  0  0  0  0  0  0  0  0
   19.4399   -2.3107  -15.9356 O   0  0  0  0  0  0  0  0  0  0  0  0
   19.5149   -4.5723  -15.9605 O   0  0  0  0  0  0  0  0  0  0  0  0
  2  1  1  6
  2  3  1  0
  4  5  1  0
  4  2  1  0
  5  6  1  1
  7  8  2  0
  7  5  1  0
 10  9  1  0
 10 11  1  0
 11 12  1  0
 13 12  1  1
 13 14  1  0
 14  7  1  0
 15 20  1  0
 15 13  1  0
 16 15  2  0
 17 18  1  0
 19 18  1  1
 19 20  1  0
 19 21  1  0
 21 22  1  0
 23 21  2  0
M  END
$$$$
