GHL.pdb
     RDKit          3D

 23 23  0  0  1  0  0  0  0  0999 V2000
   26.9478  -19.9171  -18.1942 N   0  0  0  0  0  0  0  0  0  0  0  0
   27.2666  -19.1590  -17.0148 C   0  0  0  0  0  0  0  0  0  0  0  0
   26.0531  -18.8057  -16.2312 C   0  0  0  0  0  0  0  0  0  0  0  0
   26.1938  -18.1408  -15.1736 O   0  0  0  0  0  0  0  0  0  0  0  0
   24.7508  -19.1749  -16.6078 N   0  0  0  0  0  0  0  0  0  0  0  0
   23.6033  -18.7154  -15.8378 C   0  0  1  0  0  0  0  0  0  0  0  0
   22.4887  -18.2896  -16.7346 C   0  0  0  0  0  0  0  0  0  0  0  0
   22.6868  -16.9547  -17.2979 C   0  0  0  0  0  0  0  0  0  0  0  0
   23.3031  -15.9418  -16.5455 C   0  0  0  0  0  0  0  0  0  0  0  0
   23.3763  -14.8154  -17.2587 N   0  0  0  0  0  0  0  0  0  0  0  0
   22.8153  -15.0989  -18.4531 C   0  0  0  0  0  0  0  0  0  0  0  0
   22.4081  -16.3801  -18.4621 N   0  0  0  0  0  0  0  0  0  0  0  0
   23.2673  -19.8333  -14.9229 C   0  0  0  0  0  0  0  0  0  0  0  0
   23.1146  -20.9982  -15.3376 O   0  0  0  0  0  0  0  0  0  0  0  0
   25.4063  -22.0081  -12.1832 C   0  0  0  0  0  0  0  0  0  0  0  0
   25.0881  -20.6143  -11.6253 C   0  0  2  0  0  0  0  0  0  0  0  0
   25.9203  -20.4102  -10.4054 C   0  0  0  0  0  0  0  0  0  0  0  0
   23.6206  -20.5748  -11.3848 C   0  0  0  0  0  0  0  0  0  0  0  0
   22.7809  -20.7498  -12.6210 C   0  0  2  0  0  0  0  0  0  0  0  0
   23.1004  -19.6412  -13.5256 N   0  0  0  0  0  0  0  0  0  0  0  0
   21.3437  -20.8082  -12.3251 C   0  0  0  0  0  0  0  0  0  0  0  0
   20.8109  -22.0514  -11.9383 O   0  0  0  0  0  0  0  0  0  0  0  0
   20.5600  -19.8496  -12.3883 O   0  0  0  0  0  0  0  0  0  0  0  0
  2  3  1  0
  2  1  1  0
  3  4  2  0
  5  6  1  0
  5  3  1  0
  6  7  1  6
  8  7  1  0
  8  9  2  0
 10  9  1  0
 11 10  1  0
 12 11  2  0
 12  8  1  0
 13  6  1  0
 13 20  1  0
 14 13  2  0
 16 15  1  1
 16 17  1  0
 18 16  1  0
 19 20  1  0
 19 18  1  1
 21 19  1  0
 22 21  1  0
 23 21  2  0
M  END
$$$$
