GHL.pdb
     RDKit          3D

 23 23  0  0  1  0  0  0  0  0999 V2000
   24.3160  -13.4037  -17.4144 N   0  0  0  0  0  0  0  0  0  0  0  0
   23.1604  -13.0002  -16.6601 C   0  0  0  0  0  0  0  0  0  0  0  0
   22.4926  -11.8107  -17.2519 C   0  0  0  0  0  0  0  0  0  0  0  0
   23.0280  -11.2525  -18.2430 O   0  0  0  0  0  0  0  0  0  0  0  0
   21.2904  -11.2719  -16.7637 N   0  0  0  0  0  0  0  0  0  0  0  0
   20.7195  -10.0766  -17.3688 C   0  0  1  0  0  0  0  0  0  0  0  0
   19.3611  -10.3503  -17.9235 C   0  0  0  0  0  0  0  0  0  0  0  0
   19.3938  -11.1549  -19.1442 C   0  0  0  0  0  0  0  0  0  0  0  0
   19.2125  -12.5464  -19.0923 C   0  0  0  0  0  0  0  0  0  0  0  0
   19.2817  -13.0679  -20.3195 N   0  0  0  0  0  0  0  0  0  0  0  0
   19.5044  -12.0272  -21.1496 C   0  0  0  0  0  0  0  0  0  0  0  0
   19.5690  -10.8911  -20.4338 N   0  0  0  0  0  0  0  0  0  0  0  0
   20.7565   -9.0401  -16.3087 C   0  0  0  0  0  0  0  0  0  0  0  0
   20.4954   -9.3067  -15.1200 O   0  0  0  0  0  0  0  0  0  0  0  0
   22.2758   -3.0763  -16.0233 C   0  0  0  0  0  0  0  0  0  0  0  0
   21.7185   -4.2504  -15.2071 C   0  0  2  0  0  0  0  0  0  0  0  0
   22.5340   -4.3702  -13.9648 C   0  0  0  0  0  0  0  0  0  0  0  0
   21.7630   -5.4454  -16.0920 C   0  0  0  0  0  0  0  0  0  0  0  0
   21.0272   -6.6445  -15.5583 C   0  0  2  0  0  0  0  0  0  0  0  0
   21.0903   -7.6878  -16.5864 N   0  0  0  0  0  0  0  0  0  0  0  0
   19.6406   -6.3373  -15.1851 C   0  0  0  0  0  0  0  0  0  0  0  0
   19.3769   -6.0731  -13.8288 O   0  0  0  0  0  0  0  0  0  0  0  0
   18.6812   -6.2917  -15.9692 O   0  0  0  0  0  0  0  0  0  0  0  0
  2  3  1  0
  2  1  1  0
  3  4  2  0
  5  6  1  0
  5  3  1  0
  6  7  1  1
  8  7  1  0
  8  9  2  0
 10  9  1  0
 11 10  1  0
 12 11  2  0
 12  8  1  0
 13  6  1  0
 13 20  1  0
 14 13  2  0
 16 15  1  6
 16 17  1  0
 18 16  1  0
 19 20  1  0
 19 18  1  6
 21 19  1  0
 22 21  1  0
 23 21  2  0
M  END
$$$$
