GHL.pdb
     RDKit          3D

 23 23  0  0  1  0  0  0  0  0999 V2000
   30.0098  -18.5865  -21.5159 N   0  0  0  0  0  0  0  0  0  0  0  0
   29.4644  -17.4521  -22.2109 C   0  0  0  0  0  0  0  0  0  0  0  0
   29.2333  -16.2973  -21.3031 C   0  0  0  0  0  0  0  0  0  0  0  0
   29.3887  -16.4647  -20.0669 O   0  0  0  0  0  0  0  0  0  0  0  0
   28.8488  -15.0223  -21.7510 N   0  0  0  0  0  0  0  0  0  0  0  0
   28.5650  -13.9606  -20.7954 C   0  0  1  0  0  0  0  0  0  0  0  0
   29.6361  -12.9212  -20.8116 C   0  0  0  0  0  0  0  0  0  0  0  0
   30.8933  -13.3871  -20.2278 C   0  0  0  0  0  0  0  0  0  0  0  0
   31.9096  -13.9162  -21.0396 C   0  0  0  0  0  0  0  0  0  0  0  0
   32.9579  -14.2741  -20.2939 N   0  0  0  0  0  0  0  0  0  0  0  0
   32.6214  -13.9796  -19.0204 C   0  0  0  0  0  0  0  0  0  0  0  0
   31.3857  -13.4506  -18.9962 N   0  0  0  0  0  0  0  0  0  0  0  0
   27.2140  -13.4609  -21.1486 C   0  0  0  0  0  0  0  0  0  0  0  0
   26.8680  -13.2837  -22.3323 O   0  0  0  0  0  0  0  0  0  0  0  0
   21.7423  -13.0232  -18.6324 C   0  0  0  0  0  0  0  0  0  0  0  0
   22.4938  -12.9365  -19.9677 C   0  0  2  0  0  0  0  0  0  0  0  0
   21.7833  -13.8060  -20.9484 C   0  0  0  0  0  0  0  0  0  0  0  0
   23.9001  -13.3368  -19.6937 C   0  0  0  0  0  0  0  0  0  0  0  0
   24.9285  -12.6000  -20.5081 C   0  0  2  0  0  0  0  0  0  0  0  0
   26.2397  -13.1563  -20.1611 N   0  0  0  0  0  0  0  0  0  0  0  0
   24.8844  -11.1478  -20.2949 C   0  0  0  0  0  0  0  0  0  0  0  0
   24.0857  -10.3876  -21.1686 O   0  0  0  0  0  0  0  0  0  0  0  0
   25.4948  -10.5355  -19.4061 O   0  0  0  0  0  0  0  0  0  0  0  0
  2  3  1  0
  2  1  1  0
  3  4  2  0
  5  6  1  0
  5  3  1  0
  6  7  1  6
  8  7  1  0
  8  9  2  0
 10  9  1  0
 11 10  1  0
 12 11  2  0
 12  8  1  0
 13  6  1  0
 13 20  1  0
 14 13  2  0
 16 15  1  1
 16 17  1  0
 18 16  1  0
 19 20  1  0
 19 18  1  1
 21 19  1  0
 22 21  1  0
 23 21  2  0
M  END
$$$$
