GHL.pdb
     RDKit          3D

 23 23  0  0  1  0  0  0  0  0999 V2000
   14.8963  -11.2706  -15.6050 N   0  0  0  0  0  0  0  0  0  0  0  0
   15.8048  -11.2307  -14.4913 C   0  0  0  0  0  0  0  0  0  0  0  0
   17.1750  -10.8233  -14.9007 C   0  0  0  0  0  0  0  0  0  0  0  0
   18.1396  -11.1240  -14.1526 O   0  0  0  0  0  0  0  0  0  0  0  0
   17.4547  -10.1173  -16.0828 N   0  0  0  0  0  0  0  0  0  0  0  0
   18.8296   -9.8017  -16.4445 C   0  0  1  0  0  0  0  0  0  0  0  0
   19.1586  -10.3127  -17.8077 C   0  0  0  0  0  0  0  0  0  0  0  0
   19.2376  -11.7717  -17.8673 C   0  0  0  0  0  0  0  0  0  0  0  0
   20.4708  -12.4302  -17.7350 C   0  0  0  0  0  0  0  0  0  0  0  0
   20.3010  -13.7518  -17.8210 N   0  0  0  0  0  0  0  0  0  0  0  0
   18.9776  -13.9416  -18.0060 C   0  0  0  0  0  0  0  0  0  0  0  0
   18.3552  -12.7502  -18.0315 N   0  0  0  0  0  0  0  0  0  0  0  0
   18.9521   -8.3318  -16.2896 C   0  0  0  0  0  0  0  0  0  0  0  0
   18.0063   -7.5630  -16.5481 O   0  0  0  0  0  0  0  0  0  0  0  0
   23.2782   -4.3028  -15.3145 C   0  0  0  0  0  0  0  0  0  0  0  0
   21.8755   -4.5622  -14.7486 C   0  0  2  0  0  0  0  0  0  0  0  0
   21.8795   -4.1549  -13.3145 C   0  0  0  0  0  0  0  0  0  0  0  0
   21.5805   -6.0018  -14.9802 C   0  0  0  0  0  0  0  0  0  0  0  0
   20.2543   -6.2688  -15.6388 C   0  0  2  0  0  0  0  0  0  0  0  0
   20.1509   -7.7174  -15.8394 N   0  0  0  0  0  0  0  0  0  0  0  0
   20.0917   -5.5359  -16.9009 C   0  0  0  0  0  0  0  0  0  0  0  0
   19.3190   -4.3606  -16.8740 O   0  0  0  0  0  0  0  0  0  0  0  0
   20.5808   -5.8689  -17.9905 O   0  0  0  0  0  0  0  0  0  0  0  0
  2  3  1  0
  2  1  1  0
  3  4  2  0
  5  6  1  0
  5  3  1  0
  6  7  1  6
  8  7  1  0
  8  9  2  0
 10  9  1  0
 11 10  1  0
 12 11  2  0
 12  8  1  0
 13  6  1  0
 13 20  1  0
 14 13  2  0
 16 15  1  1
 16 17  1  0
 18 16  1  0
 19 20  1  0
 19 18  1  6
 21 19  1  0
 22 21  1  0
 23 21  2  0
M  END
$$$$
