GHL.pdb
     RDKit          3D

 23 23  0  0  1  0  0  0  0  0999 V2000
   22.4938  -30.7533  -10.4284 N   0  0  0  0  0  0  0  0  0  0  0  0
   21.5480  -30.2923  -11.4083 C   0  0  0  0  0  0  0  0  0  0  0  0
   21.2077  -28.8563  -11.2261 C   0  0  0  0  0  0  0  0  0  0  0  0
   21.7632  -28.2211  -10.2943 O   0  0  0  0  0  0  0  0  0  0  0  0
   20.2952  -28.1651  -12.0407 N   0  0  0  0  0  0  0  0  0  0  0  0
   20.0207  -26.7542  -11.8063 C   0  0  1  0  0  0  0  0  0  0  0  0
   19.5889  -26.0738  -13.0627 C   0  0  0  0  0  0  0  0  0  0  0  0
   19.2529  -24.6647  -12.8628 C   0  0  0  0  0  0  0  0  0  0  0  0
   20.2364  -23.6688  -12.9756 C   0  0  0  0  0  0  0  0  0  0  0  0
   19.7032  -22.4649  -12.7536 N   0  0  0  0  0  0  0  0  0  0  0  0
   18.3952  -22.6825  -12.5016 C   0  0  0  0  0  0  0  0  0  0  0  0
   18.1407  -24.0008  -12.5702 N   0  0  0  0  0  0  0  0  0  0  0  0
   19.0209  -26.7221  -10.7114 C   0  0  0  0  0  0  0  0  0  0  0  0
   18.0241  -27.4695  -10.7100 O   0  0  0  0  0  0  0  0  0  0  0  0
   17.2900  -26.5779   -6.0329 C   0  0  0  0  0  0  0  0  0  0  0  0
   17.9223  -25.1820   -6.1162 C   0  0  2  0  0  0  0  0  0  0  0  0
   16.8180  -24.1804   -6.1201 C   0  0  0  0  0  0  0  0  0  0  0  0
   18.7710  -25.1693   -7.3379 C   0  0  0  0  0  0  0  0  0  0  0  0
   18.1188  -25.7632   -8.5569 C   0  0  2  0  0  0  0  0  0  0  0  0
   19.1413  -25.8401   -9.6046 N   0  0  0  0  0  0  0  0  0  0  0  0
   16.9470  -24.9978   -9.0010 C   0  0  0  0  0  0  0  0  0  0  0  0
   17.1770  -23.7358   -9.5786 O   0  0  0  0  0  0  0  0  0  0  0  0
   15.7690  -25.3735   -8.9085 O   0  0  0  0  0  0  0  0  0  0  0  0
  2  3  1  0
  2  1  1  0
  3  4  2  0
  5  6  1  0
  5  3  1  0
  6  7  1  6
  8  7  1  0
  8  9  2  0
 10  9  1  0
 11 10  1  0
 12 11  2  0
 12  8  1  0
 13  6  1  0
 13 20  1  0
 14 13  2  0
 16 15  1  6
 16 17  1  0
 18 16  1  0
 19 20  1  0
 19 18  1  1
 21 19  1  0
 22 21  1  0
 23 21  2  0
M  END
$$$$
