SHH.pdb
     RDKit          3D

 27 28  0  0  1  0  0  0  0  0999 V2000
    6.2773  -21.5899   19.2897 O   0  0  0  0  0  0  0  0  0  0  0  0
    5.1087  -21.0378   18.7833 C   0  0  0  0  0  0  0  0  0  0  0  0
    5.3536  -20.4433   17.3905 C   0  0  2  0  0  0  0  0  0  0  0  0
    5.9662  -21.5006   16.6087 N   0  0  0  0  0  0  0  0  0  0  0  0
    6.3634  -19.3643   17.5743 C   0  0  0  0  0  0  0  0  0  0  0  0
    7.6050  -19.5816   17.3877 O   0  0  0  0  0  0  0  0  0  0  0  0
    6.0215  -18.0418   17.9633 N   0  0  0  0  0  0  0  0  0  0  0  0
    6.9945  -17.0190   18.1910 C   0  0  1  0  0  0  0  0  0  0  0  0
    6.3964  -15.6318   18.2910 C   0  0  0  0  0  0  0  0  0  0  0  0
    7.3979  -14.5777   18.4758 C   0  0  0  0  0  0  0  0  0  0  0  0
    7.3521  -13.6091   19.4572 C   0  0  0  0  0  0  0  0  0  0  0  0
    8.4280  -12.8010   19.3403 N   0  0  0  0  0  0  0  0  0  0  0  0
    9.1613  -13.2457   18.2914 C   0  0  0  0  0  0  0  0  0  0  0  0
    8.5211  -14.3217   17.7817 N   0  0  0  0  0  0  0  0  0  0  0  0
    7.7473  -17.3340   19.4570 C   0  0  0  0  0  0  0  0  0  0  0  0
    7.1614  -17.8350   20.4544 O   0  0  0  0  0  0  0  0  0  0  0  0
    9.1409  -17.0805   19.5777 N   0  0  0  0  0  0  0  0  0  0  0  0
    9.8427  -17.4135   20.8410 C   0  0  1  0  0  0  0  0  0  0  0  0
   10.6194  -18.6477   20.5458 C   0  0  0  0  0  0  0  0  0  0  0  0
   11.4210  -19.1910   21.6448 C   0  0  0  0  0  0  0  0  0  0  0  0
   11.2202  -18.7787   22.9553 C   0  0  0  0  0  0  0  0  0  0  0  0
   12.0777  -19.4278   23.7392 N   0  0  0  0  0  0  0  0  0  0  0  0
   12.8069  -20.2290   22.9758 C   0  0  0  0  0  0  0  0  0  0  0  0
   12.4131  -20.0905   21.7001 N   0  0  0  0  0  0  0  0  0  0  0  0
   10.7957  -16.2810   21.1192 C   0  0  0  0  0  0  0  0  0  0  0  0
   11.5115  -16.2635   22.1563 O   0  0  0  0  0  0  0  0  0  0  0  0
   10.9125  -15.2247   20.2400 O   0  0  0  0  0  0  0  0  0  0  0  0
  2  1  1  0
  2  3  1  0
  3  4  1  6
  5  3  1  0
  5  6  2  0
  7  5  1  0
  8  7  1  0
  8  9  1  1
 10  9  1  0
 10 11  2  0
 12 11  1  0
 13 14  2  0
 13 12  1  0
 14 10  1  0
 15  8  1  0
 16 15  2  0
 17 15  1  0
 18 17  1  0
 18 19  1  6
 19 20  1  0
 20 24  1  0
 20 21  2  0
 21 22  1  0
 23 22  1  0
 24 23  2  0
 25 18  1  0
 26 25  2  0
 27 25  1  0
M  END
$$$$
