SHH.pdb
     RDKit          3D

 27 28  0  0  1  0  0  0  0  0999 V2000
    6.1355  -19.9455   24.4362 O   0  0  0  0  0  0  0  0  0  0  0  0
    5.0348  -19.4517   23.7495 C   0  0  0  0  0  0  0  0  0  0  0  0
    5.2304  -19.6070   22.2359 C   0  0  2  0  0  0  0  0  0  0  0  0
    5.7997  -20.9271   22.0418 N   0  0  0  0  0  0  0  0  0  0  0  0
    6.2585  -18.6021   21.8476 C   0  0  0  0  0  0  0  0  0  0  0  0
    7.4827  -18.9276   21.7099 O   0  0  0  0  0  0  0  0  0  0  0  0
    5.9540  -17.2358   21.6077 N   0  0  0  0  0  0  0  0  0  0  0  0
    6.9493  -16.2569   21.2981 C   0  0  1  0  0  0  0  0  0  0  0  0
    6.4063  -15.0683   20.5336 C   0  0  0  0  0  0  0  0  0  0  0  0
    7.4524  -14.2276   19.9443 C   0  0  0  0  0  0  0  0  0  0  0  0
    7.7719  -12.9536   20.3665 C   0  0  0  0  0  0  0  0  0  0  0  0
    8.7786  -12.4689   19.6076 N   0  0  0  0  0  0  0  0  0  0  0  0
    9.1051  -13.4236   18.7035 C   0  0  0  0  0  0  0  0  0  0  0  0
    8.2911  -14.4802   18.9237 N   0  0  0  0  0  0  0  0  0  0  0  0
    7.5837  -15.7830   22.5794 C   0  0  0  0  0  0  0  0  0  0  0  0
    6.9285  -15.7494   23.6558 O   0  0  0  0  0  0  0  0  0  0  0  0
    8.9391  -15.3568   22.6264 N   0  0  0  0  0  0  0  0  0  0  0  0
    9.5814  -15.0895   23.9361 C   0  0  1  0  0  0  0  0  0  0  0  0
    8.6447  -15.6394   24.9528 C   0  0  0  0  0  0  0  0  0  0  0  0
    7.6335  -14.7163   25.4734 C   0  0  0  0  0  0  0  0  0  0  0  0
    7.6062  -13.3837   25.0842 C   0  0  0  0  0  0  0  0  0  0  0  0
    6.5942  -12.7823   25.7050 N   0  0  0  0  0  0  0  0  0  0  0  0
    5.9866  -13.6811   26.4662 C   0  0  0  0  0  0  0  0  0  0  0  0
    6.6134  -14.8603   26.3306 N   0  0  0  0  0  0  0  0  0  0  0  0
   10.8623  -15.8811   23.9606 C   0  0  0  0  0  0  0  0  0  0  0  0
   11.1833  -16.6424   23.0088 O   0  0  0  0  0  0  0  0  0  0  0  0
   11.7258  -15.7937   25.0326 O   0  0  0  0  0  0  0  0  0  0  0  0
  2  1  1  0
  2  3  1  0
  3  4  1  1
  5  3  1  0
  5  6  2  0
  7  5  1  0
  8  7  1  0
  8  9  1  1
 10  9  1  0
 10 11  2  0
 12 11  1  0
 13 14  2  0
 13 12  1  0
 14 10  1  0
 15  8  1  0
 16 15  2  0
 17 15  1  0
 18 17  1  0
 18 19  1  1
 19 20  1  0
 20 24  1  0
 20 21  2  0
 21 22  1  0
 23 22  1  0
 24 23  2  0
 25 18  1  0
 26 25  2  0
 27 25  1  0
M  END
$$$$
