SHH.pdb
     RDKit          3D

 27 28  0  0  1  0  0  0  0  0999 V2000
   12.2095  -20.1034   19.9446 O   0  0  0  0  0  0  0  0  0  0  0  0
   11.7196  -19.0314   20.6779 C   0  0  0  0  0  0  0  0  0  0  0  0
   11.1055  -17.9780   19.7469 C   0  0  2  0  0  0  0  0  0  0  0  0
   12.1819  -17.5374   18.8799 N   0  0  0  0  0  0  0  0  0  0  0  0
   10.7194  -16.8331   20.6175 C   0  0  0  0  0  0  0  0  0  0  0  0
   11.5814  -15.9812   21.0108 O   0  0  0  0  0  0  0  0  0  0  0  0
    9.3889  -16.6132   21.0628 N   0  0  0  0  0  0  0  0  0  0  0  0
    9.0092  -15.4911   21.8637 C   0  0  1  0  0  0  0  0  0  0  0  0
    7.6219  -14.9715   21.5516 C   0  0  0  0  0  0  0  0  0  0  0  0
    7.4918  -14.4385   20.1925 C   0  0  0  0  0  0  0  0  0  0  0  0
    7.8625  -13.1674   19.8046 C   0  0  0  0  0  0  0  0  0  0  0  0
    7.6066  -13.0076   18.4881 N   0  0  0  0  0  0  0  0  0  0  0  0
    7.0751  -14.1672   18.0314 C   0  0  0  0  0  0  0  0  0  0  0  0
    7.0139  -15.0204   19.0782 N   0  0  0  0  0  0  0  0  0  0  0  0
    9.0848  -15.8802   23.3169 C   0  0  0  0  0  0  0  0  0  0  0  0
    8.7337  -17.0281   23.7018 O   0  0  0  0  0  0  0  0  0  0  0  0
    9.5523  -14.9740   24.3074 N   0  0  0  0  0  0  0  0  0  0  0  0
    9.6420  -15.4115   25.7216 C   0  0  1  0  0  0  0  0  0  0  0  0
    9.9825  -14.1849   26.4917 C   0  0  0  0  0  0  0  0  0  0  0  0
   10.1973  -14.3581   27.9303 C   0  0  0  0  0  0  0  0  0  0  0  0
   10.0709  -15.6025   28.5329 C   0  0  0  0  0  0  0  0  0  0  0  0
   10.3183  -15.4698   29.8339 N   0  0  0  0  0  0  0  0  0  0  0  0
   10.5942  -14.1955   30.0718 C   0  0  0  0  0  0  0  0  0  0  0  0
   10.5225  -13.5128   28.9183 N   0  0  0  0  0  0  0  0  0  0  0  0
    8.2674  -15.8819   26.1180 C   0  0  0  0  0  0  0  0  0  0  0  0
    7.2285  -15.3708   25.6204 O   0  0  0  0  0  0  0  0  0  0  0  0
    8.1067  -16.8926   27.0428 O   0  0  0  0  0  0  0  0  0  0  0  0
  2  1  1  0
  2  3  1  0
  3  4  1  6
  5  3  1  0
  5  6  2  0
  7  5  1  0
  8  7  1  0
  8  9  1  6
 10  9  1  0
 10 11  2  0
 12 11  1  0
 13 14  2  0
 13 12  1  0
 14 10  1  0
 15  8  1  0
 16 15  2  0
 17 15  1  0
 18 17  1  0
 18 19  1  1
 19 20  1  0
 20 24  1  0
 20 21  2  0
 21 22  1  0
 23 22  1  0
 24 23  2  0
 25 18  1  0
 26 25  2  0
 27 25  1  0
M  END
$$$$
