SHH.pdb
     RDKit          3D

 27 28  0  0  1  0  0  0  0  0999 V2000
   11.5272  -18.4845   14.7231 O   0  0  0  0  0  0  0  0  0  0  0  0
   11.9092  -17.6828   13.6562 C   0  0  0  0  0  0  0  0  0  0  0  0
   10.8766  -16.5731   13.4197 C   0  0  2  0  0  0  0  0  0  0  0  0
   11.4387  -15.7196   12.3901 N   0  0  0  0  0  0  0  0  0  0  0  0
   10.8172  -15.7888   14.6842 C   0  0  0  0  0  0  0  0  0  0  0  0
   11.7974  -15.0677   15.0620 O   0  0  0  0  0  0  0  0  0  0  0  0
    9.6858  -15.7885   15.5428 N   0  0  0  0  0  0  0  0  0  0  0  0
    9.6048  -14.9911   16.7270 C   0  0  1  0  0  0  0  0  0  0  0  0
    8.1889  -14.8011   17.2282 C   0  0  0  0  0  0  0  0  0  0  0  0
    8.1140  -14.0812   18.5027 C   0  0  0  0  0  0  0  0  0  0  0  0
    8.1738  -12.7095   18.6388 C   0  0  0  0  0  0  0  0  0  0  0  0
    8.0752  -12.3838   19.9459 N   0  0  0  0  0  0  0  0  0  0  0  0
    7.9528  -13.5370   20.6464 C   0  0  0  0  0  0  0  0  0  0  0  0
    7.9785  -14.5529   19.7549 N   0  0  0  0  0  0  0  0  0  0  0  0
   10.4378  -15.6325   17.8057 C   0  0  0  0  0  0  0  0  0  0  0  0
   10.5030  -16.8863   17.9179 O   0  0  0  0  0  0  0  0  0  0  0  0
   11.1799  -14.8543   18.7356 N   0  0  0  0  0  0  0  0  0  0  0  0
   11.9342  -15.5264   19.8212 C   0  0  1  0  0  0  0  0  0  0  0  0
   13.0441  -14.5964   20.1628 C   0  0  0  0  0  0  0  0  0  0  0  0
   13.9776  -15.0487   21.1971 C   0  0  0  0  0  0  0  0  0  0  0  0
   13.7416  -16.2085   21.9231 C   0  0  0  0  0  0  0  0  0  0  0  0
   14.7404  -16.3779   22.7862 N   0  0  0  0  0  0  0  0  0  0  0  0
   15.5917  -15.3739   22.6319 C   0  0  0  0  0  0  0  0  0  0  0  0
   15.1342  -14.5610   21.6667 N   0  0  0  0  0  0  0  0  0  0  0  0
   10.9982  -15.6363   20.9959 C   0  0  0  0  0  0  0  0  0  0  0  0
    9.9979  -14.8788   21.1129 O   0  0  0  0  0  0  0  0  0  0  0  0
   11.2114  -16.5762   21.9827 O   0  0  0  0  0  0  0  0  0  0  0  0
  2  1  1  0
  2  3  1  0
  3  4  1  6
  5  3  1  0
  5  6  2  0
  7  5  1  0
  8  7  1  0
  8  9  1  1
 10  9  1  0
 10 11  2  0
 12 11  1  0
 13 14  2  0
 13 12  1  0
 14 10  1  0
 15  8  1  0
 16 15  2  0
 17 15  1  0
 18 17  1  0
 18 19  1  1
 19 20  1  0
 20 24  1  0
 20 21  2  0
 21 22  1  0
 23 22  1  0
 24 23  2  0
 25 18  1  0
 26 25  2  0
 27 25  1  0
M  END
$$$$
