SHH.pdb
     RDKit          3D

 27 28  0  0  1  0  0  0  0  0999 V2000
    9.5925  -18.3162   20.2558 O   0  0  0  0  0  0  0  0  0  0  0  0
    8.3383  -17.7962   19.9666 C   0  0  0  0  0  0  0  0  0  0  0  0
    8.3956  -16.2653   19.8862 C   0  0  2  0  0  0  0  0  0  0  0  0
    9.5613  -15.9525   19.0814 N   0  0  0  0  0  0  0  0  0  0  0  0
    8.6541  -15.7889   21.2732 C   0  0  0  0  0  0  0  0  0  0  0  0
    9.8372  -15.5468   21.6797 O   0  0  0  0  0  0  0  0  0  0  0  0
    7.6207  -15.5744   22.2236 N   0  0  0  0  0  0  0  0  0  0  0  0
    7.8619  -15.0636   23.5372 C   0  0  1  0  0  0  0  0  0  0  0  0
    6.5985  -14.6574   24.2657 C   0  0  0  0  0  0  0  0  0  0  0  0
    6.8433  -13.7668   25.4039 C   0  0  0  0  0  0  0  0  0  0  0  0
    8.0906  -13.3804   25.8493 C   0  0  0  0  0  0  0  0  0  0  0  0
    7.9525  -12.5598   26.9132 N   0  0  0  0  0  0  0  0  0  0  0  0
    6.6261  -12.4189   27.1512 C   0  0  0  0  0  0  0  0  0  0  0  0
    5.9718  -13.1572   26.2270 N   0  0  0  0  0  0  0  0  0  0  0  0
    8.5917  -16.1077   24.3409 C   0  0  0  0  0  0  0  0  0  0  0  0
    8.2292  -17.3148   24.3206 O   0  0  0  0  0  0  0  0  0  0  0  0
    9.7125  -15.7760   25.1502 N   0  0  0  0  0  0  0  0  0  0  0  0
   10.3522  -16.8213   25.9852 C   0  0  1  0  0  0  0  0  0  0  0  0
   11.8152  -16.5761   25.8695 C   0  0  0  0  0  0  0  0  0  0  0  0
   12.4329  -16.9165   24.5857 C   0  0  0  0  0  0  0  0  0  0  0  0
   11.7688  -17.7009   23.6522 C   0  0  0  0  0  0  0  0  0  0  0  0
   12.5552  -17.8505   22.5890 N   0  0  0  0  0  0  0  0  0  0  0  0
   13.6834  -17.1933   22.8167 C   0  0  0  0  0  0  0  0  0  0  0  0
   13.6163  -16.6224   24.0296 N   0  0  0  0  0  0  0  0  0  0  0  0
    9.9167  -16.5693   27.4047 C   0  0  0  0  0  0  0  0  0  0  0  0
   10.3305  -17.2843   28.3564 O   0  0  0  0  0  0  0  0  0  0  0  0
    9.0471  -15.5414   27.7042 O   0  0  0  0  0  0  0  0  0  0  0  0
  2  1  1  0
  2  3  1  0
  3  4  1  6
  5  3  1  0
  5  6  2  0
  7  5  1  0
  8  7  1  0
  8  9  1  1
 10  9  1  0
 10 11  2  0
 12 11  1  0
 13 14  2  0
 13 12  1  0
 14 10  1  0
 15  8  1  0
 16 15  2  0
 17 15  1  0
 18 17  1  0
 18 19  1  1
 19 20  1  0
 20 24  1  0
 20 21  2  0
 21 22  1  0
 23 22  1  0
 24 23  2  0
 25 18  1  0
 26 25  2  0
 27 25  1  0
M  END
$$$$
