SHH.pdb
     RDKit          3D

 27 28  0  0  1  0  0  0  0  0999 V2000
    8.4013  -13.9051   20.0310 O   0  0  0  0  0  0  0  0  0  0  0  0
    8.8379  -12.7982   19.3162 C   0  0  0  0  0  0  0  0  0  0  0  0
    9.2512  -13.2034   17.8955 C   0  0  2  0  0  0  0  0  0  0  0  0
    8.0836  -13.8297   17.3049 N   0  0  0  0  0  0  0  0  0  0  0  0
   10.3015  -14.2472   18.0534 C   0  0  0  0  0  0  0  0  0  0  0  0
   10.0286  -15.4851   17.9235 O   0  0  0  0  0  0  0  0  0  0  0  0
   11.6559  -13.9437   18.3543 N   0  0  0  0  0  0  0  0  0  0  0  0
   12.6581  -14.9466   18.5397 C   0  0  1  0  0  0  0  0  0  0  0  0
   13.8749  -14.7505   17.6607 C   0  0  0  0  0  0  0  0  0  0  0  0
   13.7567  -15.3959   16.3500 C   0  0  0  0  0  0  0  0  0  0  0  0
   12.9251  -16.4596   16.0665 C   0  0  0  0  0  0  0  0  0  0  0  0
   13.0647  -16.8044   14.7681 N   0  0  0  0  0  0  0  0  0  0  0  0
   13.9795  -15.9689   14.2194 C   0  0  0  0  0  0  0  0  0  0  0  0
   14.3862  -15.1240   15.1931 N   0  0  0  0  0  0  0  0  0  0  0  0
   13.0791  -14.9550   19.9860 C   0  0  0  0  0  0  0  0  0  0  0  0
   13.5782  -13.9301   20.5239 O   0  0  0  0  0  0  0  0  0  0  0  0
   12.9314  -16.1124   20.7981 N   0  0  0  0  0  0  0  0  0  0  0  0
   13.2469  -16.0409   22.2454 C   0  0  1  0  0  0  0  0  0  0  0  0
   12.4393  -17.1188   22.8775 C   0  0  0  0  0  0  0  0  0  0  0  0
   10.9916  -16.9018   22.9306 C   0  0  0  0  0  0  0  0  0  0  0  0
   10.4358  -15.6697   22.6130 C   0  0  0  0  0  0  0  0  0  0  0  0
    9.1142  -15.7550   22.7451 N   0  0  0  0  0  0  0  0  0  0  0  0
    8.8186  -16.9877   23.1318 C   0  0  0  0  0  0  0  0  0  0  0  0
    9.9558  -17.6913   23.2469 N   0  0  0  0  0  0  0  0  0  0  0  0
   14.7101  -16.3681   22.3870 C   0  0  0  0  0  0  0  0  0  0  0  0
   15.4150  -16.6751   21.3884 O   0  0  0  0  0  0  0  0  0  0  0  0
   15.3234  -16.3398   23.6221 O   0  0  0  0  0  0  0  0  0  0  0  0
  2  1  1  0
  2  3  1  0
  3  4  1  6
  5  3  1  0
  5  6  2  0
  7  5  1  0
  8  7  1  0
  8  9  1  6
 10  9  1  0
 10 11  2  0
 12 11  1  0
 13 14  2  0
 13 12  1  0
 14 10  1  0
 15  8  1  0
 16 15  2  0
 17 15  1  0
 18 17  1  0
 18 19  1  1
 19 20  1  0
 20 24  1  0
 20 21  2  0
 21 22  1  0
 23 22  1  0
 24 23  2  0
 25 18  1  0
 26 25  2  0
 27 25  1  0
M  END
$$$$
