SHH.pdb
     RDKit          3D

 27 28  0  0  1  0  0  0  0  0999 V2000
    8.8147  -19.5857   22.6441 O   0  0  0  0  0  0  0  0  0  0  0  0
    7.6237  -19.3070   21.9878 C   0  0  0  0  0  0  0  0  0  0  0  0
    7.8909  -18.5207   20.6979 C   0  0  2  0  0  0  0  0  0  0  0  0
    8.7936  -19.3405   19.9121 N   0  0  0  0  0  0  0  0  0  0  0  0
    8.6259  -17.2924   21.1084 C   0  0  0  0  0  0  0  0  0  0  0  0
    9.8905  -17.2039   20.9788 O   0  0  0  0  0  0  0  0  0  0  0  0
    7.9828  -16.1539   21.6628 N   0  0  0  0  0  0  0  0  0  0  0  0
    8.6500  -14.9075   21.8770 C   0  0  1  0  0  0  0  0  0  0  0  0
    7.9069  -13.7210   21.3009 C   0  0  0  0  0  0  0  0  0  0  0  0
    7.8684  -13.7133   19.8357 C   0  0  0  0  0  0  0  0  0  0  0  0
    8.4743  -12.7668   19.0354 C   0  0  0  0  0  0  0  0  0  0  0  0
    8.2405  -13.0604   17.7380 N   0  0  0  0  0  0  0  0  0  0  0  0
    7.4896  -14.1877   17.7029 C   0  0  0  0  0  0  0  0  0  0  0  0
    7.2752  -14.5671   18.9825 N   0  0  0  0  0  0  0  0  0  0  0  0
    8.8468  -14.7068   23.3568 C   0  0  0  0  0  0  0  0  0  0  0  0
    8.4403  -13.6608   23.9309 O   0  0  0  0  0  0  0  0  0  0  0  0
    9.4954  -15.6832   24.1612 N   0  0  0  0  0  0  0  0  0  0  0  0
    9.5854  -15.4861   25.6283 C   0  0  1  0  0  0  0  0  0  0  0  0
    8.1896  -15.6107   26.1281 C   0  0  0  0  0  0  0  0  0  0  0  0
    7.4017  -14.3767   26.1737 C   0  0  0  0  0  0  0  0  0  0  0  0
    7.9692  -13.1740   26.5726 C   0  0  0  0  0  0  0  0  0  0  0  0
    7.0352  -12.2274   26.5203 N   0  0  0  0  0  0  0  0  0  0  0  0
    5.9070  -12.7858   26.1057 C   0  0  0  0  0  0  0  0  0  0  0  0
    6.1222  -14.0934   25.8927 N   0  0  0  0  0  0  0  0  0  0  0  0
   10.4105  -16.6241   26.1689 C   0  0  0  0  0  0  0  0  0  0  0  0
   10.7100  -16.6967   27.3910 O   0  0  0  0  0  0  0  0  0  0  0  0
   10.8638  -17.6254   25.3356 O   0  0  0  0  0  0  0  0  0  0  0  0
  2  1  1  0
  2  3  1  0
  3  4  1  6
  5  3  1  0
  5  6  2  0
  7  5  1  0
  8  7  1  0
  8  9  1  1
 10  9  1  0
 10 11  2  0
 12 11  1  0
 13 14  2  0
 13 12  1  0
 14 10  1  0
 15  8  1  0
 16 15  2  0
 17 15  1  0
 18 17  1  0
 18 19  1  1
 19 20  1  0
 20 24  1  0
 20 21  2  0
 21 22  1  0
 23 22  1  0
 24 23  2  0
 25 18  1  0
 26 25  2  0
 27 25  1  0
M  END
$$$$
