SHH.pdb
     RDKit          3D

 27 28  0  0  1  0  0  0  0  0999 V2000
   10.4830  -17.6889   17.4399 O   0  0  0  0  0  0  0  0  0  0  0  0
   11.6570  -17.7785   16.7047 C   0  0  0  0  0  0  0  0  0  0  0  0
   12.1485  -19.2307   16.6498 C   0  0  2  0  0  0  0  0  0  0  0  0
   10.9658  -20.0432   16.4364 N   0  0  0  0  0  0  0  0  0  0  0  0
   12.6781  -19.5385   18.0072 C   0  0  0  0  0  0  0  0  0  0  0  0
   11.9880  -20.1958   18.8530 O   0  0  0  0  0  0  0  0  0  0  0  0
   13.9648  -19.1293   18.4475 N   0  0  0  0  0  0  0  0  0  0  0  0
   14.4800  -19.4368   19.7455 C   0  0  1  0  0  0  0  0  0  0  0  0
   15.7910  -20.1930   19.7084 C   0  0  0  0  0  0  0  0  0  0  0  0
   15.6487  -21.5839   19.2687 C   0  0  0  0  0  0  0  0  0  0  0  0
   14.8172  -22.5157   19.8550 C   0  0  0  0  0  0  0  0  0  0  0  0
   14.9313  -23.6926   19.2022 N   0  0  0  0  0  0  0  0  0  0  0  0
   15.8298  -23.5200   18.2028 C   0  0  0  0  0  0  0  0  0  0  0  0
   16.2523  -22.2372   18.2599 N   0  0  0  0  0  0  0  0  0  0  0  0
   14.6610  -18.1549   20.5154 C   0  0  0  0  0  0  0  0  0  0  0  0
   15.1034  -17.1163   19.9544 O   0  0  0  0  0  0  0  0  0  0  0  0
   14.3422  -18.0648   21.8979 N   0  0  0  0  0  0  0  0  0  0  0  0
   14.4758  -16.7659   22.6008 C   0  0  1  0  0  0  0  0  0  0  0  0
   13.5174  -16.8332   23.7369 C   0  0  0  0  0  0  0  0  0  0  0  0
   12.1005  -16.6681   23.4041 C   0  0  0  0  0  0  0  0  0  0  0  0
   11.7042  -16.1398   22.1828 C   0  0  0  0  0  0  0  0  0  0  0  0
   10.3743  -16.1036   22.1489 N   0  0  0  0  0  0  0  0  0  0  0  0
    9.9207  -16.5867   23.2967 C   0  0  0  0  0  0  0  0  0  0  0  0
   10.9652  -16.9323   24.0656 N   0  0  0  0  0  0  0  0  0  0  0  0
   15.8812  -16.7065   23.1388 C   0  0  0  0  0  0  0  0  0  0  0  0
   16.2914  -15.7142   23.7986 O   0  0  0  0  0  0  0  0  0  0  0  0
   16.7639  -17.7441   22.9232 O   0  0  0  0  0  0  0  0  0  0  0  0
  2  1  1  0
  2  3  1  0
  3  4  1  1
  5  3  1  0
  5  6  2  0
  7  5  1  0
  8  7  1  0
  8  9  1  6
 10  9  1  0
 10 11  2  0
 12 11  1  0
 13 14  2  0
 13 12  1  0
 14 10  1  0
 15  8  1  0
 16 15  2  0
 17 15  1  0
 18 17  1  0
 18 19  1  1
 19 20  1  0
 20 24  1  0
 20 21  2  0
 21 22  1  0
 23 22  1  0
 24 23  2  0
 25 18  1  0
 26 25  2  0
 27 25  1  0
M  END
$$$$
