YMT.pdb
     RDKit          3D

 28 28  0  0  1  0  0  0  0  0999 V2000
   25.3938  -11.0464  -23.8772 O   0  0  0  0  0  0  0  0  0  0  0  0
   24.4275  -10.7644  -22.9211 C   0  0  0  0  0  0  0  0  0  0  0  0
   24.5868   -9.6884  -22.0569 C   0  0  0  0  0  0  0  0  0  0  0  0
   23.6412   -9.3878  -21.0991 C   0  0  0  0  0  0  0  0  0  0  0  0
   22.4921  -10.1356  -20.9483 C   0  0  0  0  0  0  0  0  0  0  0  0
   21.4933   -9.7824  -19.9047 C   0  0  0  0  0  0  0  0  0  0  0  0
   22.1198  -10.1322  -18.5690 C   0  0  2  0  0  0  0  0  0  0  0  0
   22.1903  -11.5753  -18.5283 N   0  0  0  0  0  0  0  0  0  0  0  0
   21.3295   -9.6570  -17.4277 C   0  0  0  0  0  0  0  0  0  0  0  0
   20.2492  -10.2417  -17.1836 O   0  0  0  0  0  0  0  0  0  0  0  0
   22.3376  -11.2112  -21.8154 C   0  0  0  0  0  0  0  0  0  0  0  0
   23.2823  -11.5131  -22.7738 C   0  0  0  0  0  0  0  0  0  0  0  0
   22.1586  -10.4962  -11.3650 C   0  0  0  0  0  0  0  0  0  0  0  0
   22.4019   -8.7235  -11.5841 S   0  0  0  0  0  0  0  0  0  0  0  0
   21.2561   -8.1007  -12.8928 C   0  0  0  0  0  0  0  0  0  0  0  0
   21.7712   -8.5284  -14.2041 C   0  0  0  0  0  0  0  0  0  0  0  0
   21.0165   -8.1220  -15.4289 C   0  0  2  0  0  0  0  0  0  0  0  0
   21.7652   -8.5818  -16.6314 N   0  0  0  0  0  0  0  0  0  0  0  0
   20.7781   -6.7062  -15.6321 C   0  0  0  0  0  0  0  0  0  0  0  0
   21.7002   -5.9147  -15.9537 O   0  0  0  0  0  0  0  0  0  0  0  0
   16.9186   -5.3068  -16.1281 C   0  0  0  0  0  0  0  0  0  0  0  0
   18.1286   -4.5983  -16.6591 C   0  0  1  0  0  0  0  0  0  0  0  0
   17.8366   -3.2649  -16.9256 O   0  0  0  0  0  0  0  0  0  0  0  0
   19.2982   -4.7236  -15.6921 C   0  0  2  0  0  0  0  0  0  0  0  0
   19.4901   -6.1452  -15.4828 N   0  0  0  0  0  0  0  0  0  0  0  0
   18.9936   -4.0949  -14.4006 C   0  0  0  0  0  0  0  0  0  0  0  0
   18.9716   -2.7321  -14.2702 O   0  0  0  0  0  0  0  0  0  0  0  0
   18.7524   -4.8174  -13.4107 O   0  0  0  0  0  0  0  0  0  0  0  0
  2  1  1  0
  3  2  2  0
  4  3  1  0
  5  4  2  0
  5 11  1  0
  6  7  1  0
  6  5  1  0
  7  9  1  0
  7  8  1  1
  9 18  1  0
 10  9  2  0
 11 12  2  0
 12  2  1  0
 14 15  1  0
 14 13  1  0
 16 15  1  0
 17 16  1  1
 17 19  1  0
 18 17  1  0
 19 20  2  0
 22 21  1  1
 22 24  1  0
 23 22  1  0
 24 26  1  0
 25 19  1  0
 24 25  1  1
 26 28  2  0
 26 27  1  0
M  END
$$$$
