YMT.pdb
     RDKit          3D

 28 28  0  0  1  0  0  0  0  0999 V2000
   19.0048  -23.9534   -7.3352 O   0  0  0  0  0  0  0  0  0  0  0  0
   19.9431  -23.1315   -7.9447 C   0  0  0  0  0  0  0  0  0  0  0  0
   20.5367  -22.0954   -7.2348 C   0  0  0  0  0  0  0  0  0  0  0  0
   21.4715  -21.2658   -7.8178 C   0  0  0  0  0  0  0  0  0  0  0  0
   21.8651  -21.4191   -9.1307 C   0  0  0  0  0  0  0  0  0  0  0  0
   22.8762  -20.5061   -9.7272 C   0  0  0  0  0  0  0  0  0  0  0  0
   24.1920  -21.2594   -9.7303 C   0  0  2  0  0  0  0  0  0  0  0  0
   24.6629  -21.2436   -8.3638 N   0  0  0  0  0  0  0  0  0  0  0  0
   25.2020  -20.6374  -10.5941 C   0  0  0  0  0  0  0  0  0  0  0  0
   25.7600  -19.5952  -10.1804 O   0  0  0  0  0  0  0  0  0  0  0  0
   21.2681  -22.4572   -9.8368 C   0  0  0  0  0  0  0  0  0  0  0  0
   20.3332  -23.2878   -9.2552 C   0  0  0  0  0  0  0  0  0  0  0  0
   30.6378  -21.0239   -9.8194 C   0  0  0  0  0  0  0  0  0  0  0  0
   29.6440  -20.6913  -11.2861 S   0  0  0  0  0  0  0  0  0  0  0  0
   28.5312  -22.1288  -11.6162 C   0  0  0  0  0  0  0  0  0  0  0  0
   27.6893  -21.8077  -12.7805 C   0  0  0  0  0  0  0  0  0  0  0  0
   26.6910  -20.7026  -12.6502 C   0  0  2  0  0  0  0  0  0  0  0  0
   25.5361  -21.1882  -11.8451 N   0  0  0  0  0  0  0  0  0  0  0  0
   26.1210  -20.1651  -13.8704 C   0  0  0  0  0  0  0  0  0  0  0  0
   25.1496  -20.7134  -14.4499 O   0  0  0  0  0  0  0  0  0  0  0  0
   25.3131  -16.3507  -14.5359 C   0  0  0  0  0  0  0  0  0  0  0  0
   26.1840  -16.9516  -15.5982 C   0  0  1  0  0  0  0  0  0  0  0  0
   27.5169  -16.6170  -15.3849 O   0  0  0  0  0  0  0  0  0  0  0  0
   25.9983  -18.4616  -15.6615 C   0  0  2  0  0  0  0  0  0  0  0  0
   26.6290  -18.9899  -14.4678 N   0  0  0  0  0  0  0  0  0  0  0  0
   26.6652  -19.0334  -16.8381 C   0  0  0  0  0  0  0  0  0  0  0  0
   26.1873  -18.7994  -18.0996 O   0  0  0  0  0  0  0  0  0  0  0  0
   27.6816  -19.7422  -16.6805 O   0  0  0  0  0  0  0  0  0  0  0  0
  2  1  1  0
  3  2  2  0
  4  3  1  0
  5  4  2  0
  5 11  1  0
  6  7  1  0
  6  5  1  0
  7  9  1  0
  7  8  1  1
  9 18  1  0
 10  9  2  0
 11 12  2  0
 12  2  1  0
 14 15  1  0
 14 13  1  0
 16 15  1  0
 17 16  1  6
 17 19  1  0
 18 17  1  0
 19 20  2  0
 22 21  1  1
 22 24  1  0
 23 22  1  0
 24 26  1  0
 25 19  1  0
 24 25  1  1
 26 28  2  0
 26 27  1  0
M  END
$$$$
