YMT.pdb
     RDKit          3D

 28 28  0  0  1  0  0  0  0  0999 V2000
   19.3449  -12.8502  -24.8032 O   0  0  0  0  0  0  0  0  0  0  0  0
   19.4828  -12.3710  -23.5075 C   0  0  0  0  0  0  0  0  0  0  0  0
   20.4913  -11.4678  -23.1957 C   0  0  0  0  0  0  0  0  0  0  0  0
   20.6485  -10.9772  -21.9165 C   0  0  0  0  0  0  0  0  0  0  0  0
   19.8173  -11.3551  -20.8828 C   0  0  0  0  0  0  0  0  0  0  0  0
   20.0157  -10.8057  -19.5152 C   0  0  0  0  0  0  0  0  0  0  0  0
   21.1584  -11.5867  -18.8961 C   0  0  2  0  0  0  0  0  0  0  0  0
   20.6458  -12.9160  -18.6522 N   0  0  0  0  0  0  0  0  0  0  0  0
   21.6212  -11.0098  -17.6287 C   0  0  0  0  0  0  0  0  0  0  0  0
   21.0197  -11.3445  -16.5824 O   0  0  0  0  0  0  0  0  0  0  0  0
   18.8099  -12.2591  -21.2000 C   0  0  0  0  0  0  0  0  0  0  0  0
   18.6512  -12.7506  -22.4788 C   0  0  0  0  0  0  0  0  0  0  0  0
   27.9478  -10.1097  -16.4094 C   0  0  0  0  0  0  0  0  0  0  0  0
   27.0295  -10.6617  -14.9597 S   0  0  0  0  0  0  0  0  0  0  0  0
   25.3901   -9.8114  -14.9074 C   0  0  0  0  0  0  0  0  0  0  0  0
   24.6285  -10.1950  -16.1076 C   0  0  0  0  0  0  0  0  0  0  0  0
   23.2695   -9.6038  -16.3038 C   0  0  2  0  0  0  0  0  0  0  0  0
   22.7031  -10.1112  -17.5843 N   0  0  0  0  0  0  0  0  0  0  0  0
   23.1696   -8.1590  -16.3751 C   0  0  0  0  0  0  0  0  0  0  0  0
   23.8383   -7.4847  -17.1988 O   0  0  0  0  0  0  0  0  0  0  0  0
   20.6335   -6.1485  -17.5043 C   0  0  0  0  0  0  0  0  0  0  0  0
   20.8436   -5.6603  -16.1023 C   0  0  1  0  0  0  0  0  0  0  0  0
   19.8808   -6.1909  -15.2505 O   0  0  0  0  0  0  0  0  0  0  0  0
   22.2492   -5.9899  -15.6183 C   0  0  2  0  0  0  0  0  0  0  0  0
   22.3074   -7.4352  -15.5214 N   0  0  0  0  0  0  0  0  0  0  0  0
   22.5048   -5.4187  -14.2899 C   0  0  0  0  0  0  0  0  0  0  0  0
   22.5956   -4.0641  -14.1131 O   0  0  0  0  0  0  0  0  0  0  0  0
   22.6408   -6.1833  -13.3116 O   0  0  0  0  0  0  0  0  0  0  0  0
  2  1  1  0
  3  2  2  0
  4  3  1  0
  5  4  2  0
  5 11  1  0
  6  7  1  0
  6  5  1  0
  7  9  1  0
  7  8  1  1
  9 18  1  0
 10  9  2  0
 11 12  2  0
 12  2  1  0
 14 15  1  0
 14 13  1  0
 16 15  1  0
 17 16  1  6
 17 19  1  0
 18 17  1  0
 19 20  2  0
 22 21  1  6
 22 24  1  0
 23 22  1  0
 24 26  1  0
 25 19  1  0
 24 25  1  1
 26 28  2  0
 26 27  1  0
M  END
$$$$
