YMT.pdb
     RDKit          3D

 28 28  0  0  1  0  0  0  0  0999 V2000
   20.4188  -13.9305  -23.3436 O   0  0  0  0  0  0  0  0  0  0  0  0
   20.1608  -12.9360  -22.4099 C   0  0  0  0  0  0  0  0  0  0  0  0
   18.8777  -12.7593  -21.9075 C   0  0  0  0  0  0  0  0  0  0  0  0
   18.5963  -11.7789  -20.9793 C   0  0  0  0  0  0  0  0  0  0  0  0
   19.5687  -10.9251  -20.5023 C   0  0  0  0  0  0  0  0  0  0  0  0
   19.2297   -9.8791  -19.5010 C   0  0  0  0  0  0  0  0  0  0  0  0
   19.5934  -10.4457  -18.1424 C   0  0  2  0  0  0  0  0  0  0  0  0
   18.5623  -11.4070  -17.8231 N   0  0  0  0  0  0  0  0  0  0  0  0
   19.6381   -9.4219  -17.0922 C   0  0  0  0  0  0  0  0  0  0  0  0
   18.5662   -9.1373  -16.5103 O   0  0  0  0  0  0  0  0  0  0  0  0
   20.8509  -11.1059  -21.0082 C   0  0  0  0  0  0  0  0  0  0  0  0
   21.1340  -12.0860  -21.9364 C   0  0  0  0  0  0  0  0  0  0  0  0
   20.4322   -9.1704  -11.7415 C   0  0  0  0  0  0  0  0  0  0  0  0
   20.6454   -7.4889  -12.3553 S   0  0  0  0  0  0  0  0  0  0  0  0
   22.1385   -7.4131  -13.4408 C   0  0  0  0  0  0  0  0  0  0  0  0
   21.8970   -8.2557  -14.6237 C   0  0  0  0  0  0  0  0  0  0  0  0
   20.9241   -7.7731  -15.6511 C   0  0  2  0  0  0  0  0  0  0  0  0
   20.8409   -8.7786  -16.7465 N   0  0  0  0  0  0  0  0  0  0  0  0
   21.2054   -6.5073  -16.3002 C   0  0  0  0  0  0  0  0  0  0  0  0
   22.2201   -6.3403  -17.0232 O   0  0  0  0  0  0  0  0  0  0  0  0
   18.6975   -4.2715  -18.3429 C   0  0  0  0  0  0  0  0  0  0  0  0
   19.3290   -3.5264  -17.2052 C   0  0  1  0  0  0  0  0  0  0  0  0
   18.4672   -3.4771  -16.1148 O   0  0  0  0  0  0  0  0  0  0  0  0
   20.6649   -4.1497  -16.8240 C   0  0  2  0  0  0  0  0  0  0  0  0
   20.3456   -5.3957  -16.1552 N   0  0  0  0  0  0  0  0  0  0  0  0
   21.4081   -3.2925  -15.8917 C   0  0  0  0  0  0  0  0  0  0  0  0
   21.9062   -2.0825  -16.2946 O   0  0  0  0  0  0  0  0  0  0  0  0
   21.5857   -3.6772  -14.7167 O   0  0  0  0  0  0  0  0  0  0  0  0
  2  1  1  0
  3  2  2  0
  4  3  1  0
  5  4  2  0
  5 11  1  0
  6  7  1  0
  6  5  1  0
  7  9  1  0
  7  8  1  1
  9 18  1  0
 10  9  2  0
 11 12  2  0
 12  2  1  0
 14 15  1  0
 14 13  1  0
 16 15  1  0
 17 16  1  1
 17 19  1  0
 18 17  1  0
 19 20  2  0
 22 21  1  6
 22 24  1  0
 23 22  1  0
 24 26  1  0
 25 19  1  0
 24 25  1  1
 26 28  2  0
 26 27  1  0
M  END
$$$$
