YMT.pdb
     RDKit          3D

 28 28  0  0  1  0  0  0  0  0999 V2000
   31.0552  -16.9608  -18.7402 O   0  0  0  0  0  0  0  0  0  0  0  0
   30.0560  -17.5668  -17.9907 C   0  0  0  0  0  0  0  0  0  0  0  0
   29.1482  -18.4274  -18.5949 C   0  0  0  0  0  0  0  0  0  0  0  0
   28.1471  -19.0417  -17.8720 C   0  0  0  0  0  0  0  0  0  0  0  0
   27.9941  -18.8355  -16.5168 C   0  0  0  0  0  0  0  0  0  0  0  0
   26.9032  -19.5147  -15.7684 C   0  0  0  0  0  0  0  0  0  0  0  0
   27.5680  -20.5324  -14.8621 C   0  0  2  0  0  0  0  0  0  0  0  0
   28.0154  -21.6019  -15.7253 N   0  0  0  0  0  0  0  0  0  0  0  0
   26.6535  -21.0793  -13.8533 C   0  0  0  0  0  0  0  0  0  0  0  0
   25.8379  -21.9560  -14.2208 O   0  0  0  0  0  0  0  0  0  0  0  0
   28.9049  -17.9733  -15.9170 C   0  0  0  0  0  0  0  0  0  0  0  0
   29.9066  -17.3583  -16.6386 C   0  0  0  0  0  0  0  0  0  0  0  0
   26.9944  -20.1940   -6.9133 C   0  0  0  0  0  0  0  0  0  0  0  0
   25.8876  -21.3607   -7.7277 S   0  0  0  0  0  0  0  0  0  0  0  0
   25.0024  -20.5103   -9.1085 C   0  0  0  0  0  0  0  0  0  0  0  0
   25.9444  -20.3336  -10.2261 C   0  0  0  0  0  0  0  0  0  0  0  0
   25.6109  -20.9628  -11.5406 C   0  0  2  0  0  0  0  0  0  0  0  0
   26.6870  -20.6381  -12.5176 N   0  0  0  0  0  0  0  0  0  0  0  0
   24.3695  -20.5688  -12.1780 C   0  0  0  0  0  0  0  0  0  0  0  0
   24.2352  -19.4539  -12.7431 O   0  0  0  0  0  0  0  0  0  0  0  0
   22.7983  -21.4958  -15.0539 C   0  0  0  0  0  0  0  0  0  0  0  0
   21.7594  -21.7885  -14.0131 C   0  0  1  0  0  0  0  0  0  0  0  0
   21.7351  -23.1467  -13.7151 O   0  0  0  0  0  0  0  0  0  0  0  0
   21.9955  -20.9539  -12.7616 C   0  0  2  0  0  0  0  0  0  0  0  0
   23.2461  -21.4252  -12.1998 N   0  0  0  0  0  0  0  0  0  0  0  0
   20.9290  -21.1591  -11.7733 C   0  0  0  0  0  0  0  0  0  0  0  0
   19.6518  -20.7313  -12.0188 O   0  0  0  0  0  0  0  0  0  0  0  0
   21.1959  -21.7316  -10.6958 O   0  0  0  0  0  0  0  0  0  0  0  0
  2  1  1  0
  3  2  2  0
  4  3  1  0
  5  4  2  0
  5 11  1  0
  6  7  1  0
  6  5  1  0
  7  9  1  0
  7  8  1  6
  9 18  1  0
 10  9  2  0
 11 12  2  0
 12  2  1  0
 14 15  1  0
 14 13  1  0
 16 15  1  0
 17 16  1  1
 17 19  1  0
 18 17  1  0
 19 20  2  0
 22 21  1  6
 22 24  1  0
 23 22  1  0
 24 26  1  0
 25 19  1  0
 24 25  1  1
 26 28  2  0
 26 27  1  0
M  END
$$$$
