YMT.pdb
     RDKit          3D

 28 28  0  0  1  0  0  0  0  0999 V2000
   16.3800  -12.5416  -23.6749 O   0  0  0  0  0  0  0  0  0  0  0  0
   16.7644  -12.0726  -22.4259 C   0  0  0  0  0  0  0  0  0  0  0  0
   17.9158  -11.3080  -22.2861 C   0  0  0  0  0  0  0  0  0  0  0  0
   18.3183  -10.8305  -21.0565 C   0  0  0  0  0  0  0  0  0  0  0  0
   17.6030  -11.0852  -19.9051 C   0  0  0  0  0  0  0  0  0  0  0  0
   18.0662  -10.5540  -18.5956 C   0  0  0  0  0  0  0  0  0  0  0  0
   19.2973  -11.3530  -18.2149 C   0  0  2  0  0  0  0  0  0  0  0  0
   18.8148  -12.6439  -17.7789 N   0  0  0  0  0  0  0  0  0  0  0  0
   20.0638  -10.7339  -17.1275 C   0  0  0  0  0  0  0  0  0  0  0  0
   19.6252  -10.8591  -15.9611 O   0  0  0  0  0  0  0  0  0  0  0  0
   16.4518  -11.8508  -20.0504 C   0  0  0  0  0  0  0  0  0  0  0  0
   16.0478  -12.3291  -21.2794 C   0  0  0  0  0  0  0  0  0  0  0  0
   27.1562  -10.4639  -14.2891 C   0  0  0  0  0  0  0  0  0  0  0  0
   25.9032  -10.9018  -15.5088 S   0  0  0  0  0  0  0  0  0  0  0  0
   24.4272   -9.8110  -15.2959 C   0  0  0  0  0  0  0  0  0  0  0  0
   23.4129  -10.2016  -16.2889 C   0  0  0  0  0  0  0  0  0  0  0  0
   22.1051   -9.4773  -16.2889 C   0  0  2  0  0  0  0  0  0  0  0  0
   21.2515  -10.0230  -17.3805 N   0  0  0  0  0  0  0  0  0  0  0  0
   22.1325   -8.0418  -16.4919 C   0  0  0  0  0  0  0  0  0  0  0  0
   22.5226   -7.5288  -17.5712 O   0  0  0  0  0  0  0  0  0  0  0  0
   19.2871   -5.7704  -16.4431 C   0  0  0  0  0  0  0  0  0  0  0  0
   20.2648   -5.2678  -15.4234 C   0  0  1  0  0  0  0  0  0  0  0  0
   19.8937   -5.6769  -14.1471 O   0  0  0  0  0  0  0  0  0  0  0  0
   21.6791   -5.7221  -15.7582 C   0  0  2  0  0  0  0  0  0  0  0  0
   21.7149   -7.1450  -15.4832 N   0  0  0  0  0  0  0  0  0  0  0  0
   22.6710   -5.0534  -14.9066 C   0  0  0  0  0  0  0  0  0  0  0  0
   22.8778   -3.7029  -14.9963 O   0  0  0  0  0  0  0  0  0  0  0  0
   23.3325   -5.7303  -14.0915 O   0  0  0  0  0  0  0  0  0  0  0  0
  2  1  1  0
  3  2  2  0
  4  3  1  0
  5  4  2  0
  5 11  1  0
  6  7  1  0
  6  5  1  0
  7  9  1  0
  7  8  1  1
  9 18  1  0
 10  9  2  0
 11 12  2  0
 12  2  1  0
 14 15  1  0
 14 13  1  0
 16 15  1  0
 17 16  1  6
 17 19  1  0
 18 17  1  0
 19 20  2  0
 22 21  1  6
 22 24  1  0
 23 22  1  0
 24 26  1  0
 25 19  1  0
 24 25  1  1
 26 28  2  0
 26 27  1  0
M  END
$$$$
