CTN.pdb
     RDKit          3D

 22 21  0  0  1  0  0  0  0  0999 V2000
   17.8751  -14.9731  -16.6699 N   0  0  0  0  0  0  0  0  0  0  0  0
   18.9544  -14.3627  -17.3889 C   0  0  1  0  0  0  0  0  0  0  0  0
   18.3727  -13.5767  -18.5496 C   0  0  0  0  0  0  0  0  0  0  0  0
   17.4055  -14.6448  -19.6479 S   0  0  0  0  0  0  0  0  0  0  0  0
   19.7555  -13.4358  -16.5607 C   0  0  0  0  0  0  0  0  0  0  0  0
   19.1155  -12.7370  -15.7186 O   0  0  0  0  0  0  0  0  0  0  0  0
   24.0897  -11.8331  -14.7238 C   0  0  0  0  0  0  0  0  0  0  0  0
   23.2953  -12.7849  -15.5864 C   0  0  1  0  0  0  0  0  0  0  0  0
   23.2734  -14.0730  -15.0330 O   0  0  0  0  0  0  0  0  0  0  0  0
   21.8969  -12.3273  -15.8301 C   0  0  2  0  0  0  0  0  0  0  0  0
   21.1439  -13.2649  -16.6256 N   0  0  0  0  0  0  0  0  0  0  0  0
   21.8132  -10.9475  -16.3670 C   0  0  0  0  0  0  0  0  0  0  0  0
   21.8314  -10.7462  -17.6073 O   0  0  0  0  0  0  0  0  0  0  0  0
   20.0875   -6.7527  -18.5314 N   0  0  0  0  0  0  0  0  0  0  0  0
   19.8632   -7.1025  -17.1538 C   0  0  0  0  0  0  0  0  0  0  0  0
   19.4046   -6.1975  -16.4407 O   0  0  0  0  0  0  0  0  0  0  0  0
   20.1578   -8.4400  -16.6306 C   0  0  0  0  0  0  0  0  0  0  0  0
   21.5021   -8.5268  -15.9969 C   0  0  2  0  0  0  0  0  0  0  0  0
   21.7138   -9.8829  -15.4443 N   0  0  0  0  0  0  0  0  0  0  0  0
   21.5422   -7.5953  -14.8136 C   0  0  0  0  0  0  0  0  0  0  0  0
   21.2302   -8.0336  -13.6471 O   0  0  0  0  0  0  0  0  0  0  0  0
   21.9127   -6.2903  -14.9973 O   0  0  0  0  0  0  0  0  0  0  0  0
  2  1  1  1
  2  5  1  0
  3  2  1  0
  4  3  1  0
  5  6  2  0
  8  7  1  1
  8  9  1  0
  8 10  1  0
 10 12  1  0
 11  5  1  0
 10 11  1  6
 12 19  1  0
 13 12  2  0
 15 14  1  0
 16 15  2  0
 17 15  1  0
 18 17  1  1
 19 18  1  0
 20 18  1  0
 20 22  1  0
 21 20  2  0
M  END
$$$$
