CTN.pdb
     RDKit          3D

 22 21  0  0  1  0  0  0  0  0999 V2000
   19.9788  -15.3097  -17.8823 N   0  0  0  0  0  0  0  0  0  0  0  0
   19.5664  -14.1279  -18.5805 C   0  0  1  0  0  0  0  0  0  0  0  0
   18.0726  -13.9498  -18.3798 C   0  0  0  0  0  0  0  0  0  0  0  0
   17.1423  -15.3192  -19.1161 S   0  0  0  0  0  0  0  0  0  0  0  0
   20.2443  -12.9032  -18.1039 C   0  0  0  0  0  0  0  0  0  0  0  0
   20.6667  -12.9225  -16.9088 O   0  0  0  0  0  0  0  0  0  0  0  0
   22.4007   -8.4922  -19.0360 C   0  0  0  0  0  0  0  0  0  0  0  0
   21.6950   -9.7427  -19.5044 C   0  0  1  0  0  0  0  0  0  0  0  0
   22.5281  -10.5192  -20.3221 O   0  0  0  0  0  0  0  0  0  0  0  0
   21.1816  -10.5812  -18.3829 C   0  0  2  0  0  0  0  0  0  0  0  0
   20.4572  -11.7372  -18.8497 N   0  0  0  0  0  0  0  0  0  0  0  0
   20.4130   -9.8114  -17.3750 C   0  0  0  0  0  0  0  0  0  0  0  0
   19.1810   -9.6171  -17.5282 O   0  0  0  0  0  0  0  0  0  0  0  0
   18.1117   -8.5446  -12.8427 N   0  0  0  0  0  0  0  0  0  0  0  0
   19.5482   -8.5521  -12.9256 C   0  0  0  0  0  0  0  0  0  0  0  0
   20.1371   -7.8962  -12.0534 O   0  0  0  0  0  0  0  0  0  0  0  0
   20.2653   -9.2871  -13.9721 C   0  0  0  0  0  0  0  0  0  0  0  0
   20.3262   -8.5422  -15.2596 C   0  0  2  0  0  0  0  0  0  0  0  0
   21.1087   -9.3115  -16.2521 N   0  0  0  0  0  0  0  0  0  0  0  0
   21.0906   -7.2620  -15.0442 C   0  0  0  0  0  0  0  0  0  0  0  0
   22.3295   -7.1960  -15.3771 O   0  0  0  0  0  0  0  0  0  0  0  0
   20.4525   -6.1820  -14.4959 O   0  0  0  0  0  0  0  0  0  0  0  0
  2  1  1  1
  2  5  1  0
  3  2  1  0
  4  3  1  0
  5  6  2  0
  8  7  1  1
  8  9  1  0
  8 10  1  0
 10 12  1  0
 11  5  1  0
 10 11  1  6
 12 19  1  0
 13 12  2  0
 15 14  1  0
 16 15  2  0
 17 15  1  0
 18 17  1  1
 19 18  1  0
 20 18  1  0
 20 22  1  0
 21 20  2  0
M  END
$$$$
