CTN.pdb
     RDKit          3D

 22 21  0  0  1  0  0  0  0  0999 V2000
   17.3048  -12.1562  -17.2377 N   0  0  0  0  0  0  0  0  0  0  0  0
   17.5081  -11.2918  -16.1126 C   0  0  1  0  0  0  0  0  0  0  0  0
   18.4103  -12.0017  -15.1200 C   0  0  0  0  0  0  0  0  0  0  0  0
   17.6025  -13.4697  -14.4304 S   0  0  0  0  0  0  0  0  0  0  0  0
   18.1424  -10.0056  -16.4732 C   0  0  0  0  0  0  0  0  0  0  0  0
   19.1837  -10.0738  -17.1929 O   0  0  0  0  0  0  0  0  0  0  0  0
   16.8808   -7.5263  -18.7326 C   0  0  0  0  0  0  0  0  0  0  0  0
   17.2207   -6.7774  -17.4658 C   0  0  1  0  0  0  0  0  0  0  0  0
   16.0696   -6.5053  -16.7130 O   0  0  0  0  0  0  0  0  0  0  0  0
   18.2133   -7.4909  -16.6113 C   0  0  2  0  0  0  0  0  0  0  0  0
   17.6976   -8.7334  -16.0927 N   0  0  0  0  0  0  0  0  0  0  0  0
   18.7929   -6.6393  -15.5444 C   0  0  0  0  0  0  0  0  0  0  0  0
   18.3380   -6.6898  -14.3741 O   0  0  0  0  0  0  0  0  0  0  0  0
   22.1492   -6.5575  -12.6978 N   0  0  0  0  0  0  0  0  0  0  0  0
   22.2422   -6.3115  -14.1125 C   0  0  0  0  0  0  0  0  0  0  0  0
   22.6761   -7.2542  -14.7913 O   0  0  0  0  0  0  0  0  0  0  0  0
   21.8494   -5.0311  -14.7091 C   0  0  0  0  0  0  0  0  0  0  0  0
   20.3732   -4.8822  -14.8316 C   0  0  2  0  0  0  0  0  0  0  0  0
   19.8604   -5.7812  -15.8889 N   0  0  0  0  0  0  0  0  0  0  0  0
   20.0635   -3.4847  -15.3016 C   0  0  0  0  0  0  0  0  0  0  0  0
   19.7494   -3.2809  -16.5303 O   0  0  0  0  0  0  0  0  0  0  0  0
   20.1200   -2.4474  -14.4100 O   0  0  0  0  0  0  0  0  0  0  0  0
  2  1  1  6
  2  5  1  0
  3  2  1  0
  4  3  1  0
  5  6  2  0
  8  7  1  6
  8  9  1  0
  8 10  1  0
 10 12  1  0
 11  5  1  0
 10 11  1  1
 12 19  1  0
 13 12  2  0
 15 14  1  0
 16 15  2  0
 17 15  1  0
 18 17  1  6
 19 18  1  0
 20 18  1  0
 20 22  1  0
 21 20  2  0
M  END
$$$$
