CTN.pdb
     RDKit          3D

 22 21  0  0  1  0  0  0  0  0999 V2000
   17.2148  -11.6407  -17.2503 N   0  0  0  0  0  0  0  0  0  0  0  0
   17.2164  -10.9686  -15.9843 C   0  0  1  0  0  0  0  0  0  0  0  0
   18.2539  -11.6273  -15.0937 C   0  0  0  0  0  0  0  0  0  0  0  0
   17.6635  -13.2203  -14.4638 S   0  0  0  0  0  0  0  0  0  0  0  0
   17.5455   -9.5306  -16.0886 C   0  0  0  0  0  0  0  0  0  0  0  0
   18.4097   -9.2127  -16.9599 O   0  0  0  0  0  0  0  0  0  0  0  0
   16.2501   -4.7896  -15.4359 C   0  0  0  0  0  0  0  0  0  0  0  0
   16.0431   -6.2617  -15.1688 C   0  0  1  0  0  0  0  0  0  0  0  0
   14.9121   -6.7452  -15.8417 O   0  0  0  0  0  0  0  0  0  0  0  0
   17.2266   -7.0949  -15.5286 C   0  0  2  0  0  0  0  0  0  0  0  0
   16.9915   -8.5017  -15.3170 N   0  0  0  0  0  0  0  0  0  0  0  0
   18.4851   -6.6381  -14.8909 C   0  0  0  0  0  0  0  0  0  0  0  0
   18.7834   -7.0172  -13.7306 O   0  0  0  0  0  0  0  0  0  0  0  0
   23.0717   -4.4195  -14.0485 N   0  0  0  0  0  0  0  0  0  0  0  0
   22.8241   -4.4327  -15.4659 C   0  0  0  0  0  0  0  0  0  0  0  0
   23.7394   -3.9846  -16.1724 O   0  0  0  0  0  0  0  0  0  0  0  0
   21.5725   -4.9424  -16.0344 C   0  0  0  0  0  0  0  0  0  0  0  0
   20.5960   -5.3624  -14.9921 C   0  0  2  0  0  0  0  0  0  0  0  0
   19.3240   -5.7725  -15.6270 N   0  0  0  0  0  0  0  0  0  0  0  0
   20.2565   -4.1699  -14.1362 C   0  0  0  0  0  0  0  0  0  0  0  0
   19.3874   -3.3178  -14.5468 O   0  0  0  0  0  0  0  0  0  0  0  0
   20.8799   -4.0102  -12.9279 O   0  0  0  0  0  0  0  0  0  0  0  0
  2  1  1  6
  2  5  1  0
  3  2  1  0
  4  3  1  0
  5  6  2  0
  8  7  1  6
  8  9  1  0
  8 10  1  0
 10 12  1  0
 11  5  1  0
 10 11  1  1
 12 19  1  0
 13 12  2  0
 15 14  1  0
 16 15  2  0
 17 15  1  0
 18 17  1  6
 19 18  1  0
 20 18  1  0
 20 22  1  0
 21 20  2  0
M  END
$$$$
