CTN.pdb
     RDKit          3D

 22 21  0  0  1  0  0  0  0  0999 V2000
   17.8636  -12.2448  -15.1268 N   0  0  0  0  0  0  0  0  0  0  0  0
   18.0354  -11.1571  -16.0443 C   0  0  1  0  0  0  0  0  0  0  0  0
   16.8099  -10.2654  -15.9647 C   0  0  0  0  0  0  0  0  0  0  0  0
   15.3024  -11.1810  -16.3792 S   0  0  0  0  0  0  0  0  0  0  0  0
   19.2261  -10.3305  -15.7515 C   0  0  0  0  0  0  0  0  0  0  0  0
   19.2449   -9.7498  -14.6248 O   0  0  0  0  0  0  0  0  0  0  0  0
   23.9594   -9.0822  -16.6703 C   0  0  0  0  0  0  0  0  0  0  0  0
   22.7064   -9.8515  -17.0161 C   0  0  1  0  0  0  0  0  0  0  0  0
   22.8831  -11.2272  -16.8111 O   0  0  0  0  0  0  0  0  0  0  0  0
   21.5069   -9.3887  -16.2602 C   0  0  2  0  0  0  0  0  0  0  0  0
   20.3219  -10.1358  -16.6015 N   0  0  0  0  0  0  0  0  0  0  0  0
   21.2861   -7.9246  -16.3437 C   0  0  0  0  0  0  0  0  0  0  0  0
   20.7910   -7.4150  -17.3802 O   0  0  0  0  0  0  0  0  0  0  0  0
   20.6424   -2.9724  -15.3760 N   0  0  0  0  0  0  0  0  0  0  0  0
   19.6244   -3.9770  -15.2186 C   0  0  0  0  0  0  0  0  0  0  0  0
   18.4668   -3.5497  -15.0944 O   0  0  0  0  0  0  0  0  0  0  0  0
   19.9370   -5.4093  -15.2065 C   0  0  0  0  0  0  0  0  0  0  0  0
   21.3963   -5.6807  -15.3210 C   0  0  2  0  0  0  0  0  0  0  0  0
   21.6486   -7.1358  -15.2297 N   0  0  0  0  0  0  0  0  0  0  0  0
   22.0980   -5.0719  -14.1350 C   0  0  0  0  0  0  0  0  0  0  0  0
   22.6445   -5.8345  -13.2577 O   0  0  0  0  0  0  0  0  0  0  0  0
   22.1451   -3.7096  -14.0081 O   0  0  0  0  0  0  0  0  0  0  0  0
  2  1  1  1
  2  5  1  0
  3  2  1  0
  4  3  1  0
  5  6  2  0
  8  7  1  1
  8  9  1  0
  8 10  1  0
 10 12  1  0
 11  5  1  0
 10 11  1  6
 12 19  1  0
 13 12  2  0
 15 14  1  0
 16 15  2  0
 17 15  1  0
 18 17  1  1
 19 18  1  0
 20 18  1  0
 20 22  1  0
 21 20  2  0
M  END
$$$$
