CTN.pdb
     RDKit          3D

 22 21  0  0  1  0  0  0  0  0999 V2000
   25.5936  -13.1611  -17.9660 N   0  0  0  0  0  0  0  0  0  0  0  0
   24.9765  -12.5913  -16.8047 C   0  0  1  0  0  0  0  0  0  0  0  0
   26.0521  -12.3458  -15.7625 C   0  0  0  0  0  0  0  0  0  0  0  0
   26.8677  -13.8910  -15.2830 S   0  0  0  0  0  0  0  0  0  0  0  0
   24.2975  -11.3061  -17.0771 C   0  0  0  0  0  0  0  0  0  0  0  0
   24.9310  -10.4762  -17.7961 O   0  0  0  0  0  0  0  0  0  0  0  0
   21.2060  -10.9697  -18.9637 C   0  0  0  0  0  0  0  0  0  0  0  0
   21.0173  -10.1240  -17.7266 C   0  0  1  0  0  0  0  0  0  0  0  0
   20.1727  -10.7567  -16.8036 O   0  0  0  0  0  0  0  0  0  0  0  0
   22.3021   -9.7679  -17.0582 C   0  0  2  0  0  0  0  0  0  0  0  0
   23.0301  -10.9308  -16.6146 N   0  0  0  0  0  0  0  0  0  0  0  0
   22.1466   -8.7626  -15.9791 C   0  0  0  0  0  0  0  0  0  0  0  0
   22.4429   -9.0529  -14.7929 O   0  0  0  0  0  0  0  0  0  0  0  0
   22.4090   -4.7584  -12.7741 N   0  0  0  0  0  0  0  0  0  0  0  0
   22.5381   -4.5351  -14.1897 C   0  0  0  0  0  0  0  0  0  0  0  0
   22.5009   -3.3488  -14.5491 O   0  0  0  0  0  0  0  0  0  0  0  0
   22.7027   -5.6380  -15.1416 C   0  0  0  0  0  0  0  0  0  0  0  0
   21.4932   -6.5006  -15.2377 C   0  0  2  0  0  0  0  0  0  0  0  0
   21.6593   -7.4844  -16.3303 N   0  0  0  0  0  0  0  0  0  0  0  0
   20.3179   -5.6463  -15.6358 C   0  0  0  0  0  0  0  0  0  0  0  0
   19.8392   -4.7934  -14.8030 O   0  0  0  0  0  0  0  0  0  0  0  0
   19.7746   -5.7897  -16.8841 O   0  0  0  0  0  0  0  0  0  0  0  0
  2  1  1  6
  2  5  1  0
  3  2  1  0
  4  3  1  0
  5  6  2  0
  8  7  1  6
  8  9  1  0
  8 10  1  0
 10 12  1  0
 11  5  1  0
 10 11  1  1
 12 19  1  0
 13 12  2  0
 15 14  1  0
 16 15  2  0
 17 15  1  0
 18 17  1  6
 19 18  1  0
 20 18  1  0
 20 22  1  0
 21 20  2  0
M  END
$$$$
