CTN.pdb
     RDKit          3D

 22 21  0  0  1  0  0  0  0  0999 V2000
   17.2547  -16.6835  -16.1175 N   0  0  0  0  0  0  0  0  0  0  0  0
   17.1204  -15.2892  -16.4214 C   0  0  1  0  0  0  0  0  0  0  0  0
   16.0611  -14.6998  -15.5083 C   0  0  0  0  0  0  0  0  0  0  0  0
   14.4071  -15.2910  -15.9527 S   0  0  0  0  0  0  0  0  0  0  0  0
   18.3726  -14.5271  -16.2259 C   0  0  0  0  0  0  0  0  0  0  0  0
   19.0330  -14.7895  -15.1761 O   0  0  0  0  0  0  0  0  0  0  0  0
   21.4301  -14.5252  -18.3334 C   0  0  0  0  0  0  0  0  0  0  0  0
   21.0521  -13.0813  -18.1021 C   0  0  1  0  0  0  0  0  0  0  0  0
   20.4489  -12.5264  -19.2396 O   0  0  0  0  0  0  0  0  0  0  0  0
   20.1566  -12.8910  -16.9247 C   0  0  2  0  0  0  0  0  0  0  0  0
   18.8858  -13.5519  -17.0899 N   0  0  0  0  0  0  0  0  0  0  0  0
   19.9988  -11.4710  -16.5273 C   0  0  0  0  0  0  0  0  0  0  0  0
   18.9415  -10.8489  -16.7993 O   0  0  0  0  0  0  0  0  0  0  0  0
   20.8406   -6.7743  -14.5481 N   0  0  0  0  0  0  0  0  0  0  0  0
   21.5366   -7.7619  -13.7667 C   0  0  0  0  0  0  0  0  0  0  0  0
   22.0567   -7.3462  -12.7206 O   0  0  0  0  0  0  0  0  0  0  0  0
   21.6234   -9.1655  -14.1816 C   0  0  0  0  0  0  0  0  0  0  0  0
   20.8897   -9.4376  -15.4481 C   0  0  2  0  0  0  0  0  0  0  0  0
   21.0674  -10.8529  -15.8412 N   0  0  0  0  0  0  0  0  0  0  0  0
   21.5139   -8.6276  -16.5545 C   0  0  0  0  0  0  0  0  0  0  0  0
   22.3651   -9.1772  -17.3441 O   0  0  0  0  0  0  0  0  0  0  0  0
   21.1639   -7.3127  -16.7049 O   0  0  0  0  0  0  0  0  0  0  0  0
  2  1  1  1
  2  5  1  0
  3  2  1  0
  4  3  1  0
  5  6  2  0
  8  7  1  6
  8  9  1  0
  8 10  1  0
 10 12  1  0
 11  5  1  0
 10 11  1  6
 12 19  1  0
 13 12  2  0
 15 14  1  0
 16 15  2  0
 17 15  1  0
 18 17  1  1
 19 18  1  0
 20 18  1  0
 20 22  1  0
 21 20  2  0
M  END
$$$$
