CTN.pdb
     RDKit          3D

 22 21  0  0  1  0  0  0  0  0999 V2000
   19.7813  -15.1791  -17.0963 N   0  0  0  0  0  0  0  0  0  0  0  0
   19.5925  -14.0109  -17.9050 C   0  0  1  0  0  0  0  0  0  0  0  0
   18.1227  -13.6342  -17.8665 C   0  0  0  0  0  0  0  0  0  0  0  0
   17.0928  -14.9283  -18.6064 S   0  0  0  0  0  0  0  0  0  0  0  0
   20.3782  -12.8475  -17.4404 C   0  0  0  0  0  0  0  0  0  0  0  0
   20.4678  -12.6938  -16.1852 O   0  0  0  0  0  0  0  0  0  0  0  0
   23.4205   -8.9792  -18.2979 C   0  0  0  0  0  0  0  0  0  0  0  0
   22.7339  -10.2462  -18.7501 C   0  0  1  0  0  0  0  0  0  0  0  0
   23.6638  -11.2649  -19.0019 O   0  0  0  0  0  0  0  0  0  0  0  0
   21.7122  -10.7374  -17.7809 C   0  0  2  0  0  0  0  0  0  0  0  0
   21.0242  -11.9115  -18.2575 N   0  0  0  0  0  0  0  0  0  0  0  0
   20.7705   -9.6834  -17.3320 C   0  0  0  0  0  0  0  0  0  0  0  0
   19.7876   -9.3634  -18.0466 O   0  0  0  0  0  0  0  0  0  0  0  0
   17.0508   -7.2254  -14.5879 N   0  0  0  0  0  0  0  0  0  0  0  0
   18.2847   -7.6215  -13.9625 C   0  0  0  0  0  0  0  0  0  0  0  0
   18.5405   -7.0640  -12.8848 O   0  0  0  0  0  0  0  0  0  0  0  0
   19.1780   -8.6180  -14.5613 C   0  0  0  0  0  0  0  0  0  0  0  0
   20.0393   -8.0482  -15.6336 C   0  0  2  0  0  0  0  0  0  0  0  0
   21.0171   -9.0612  -16.0883 N   0  0  0  0  0  0  0  0  0  0  0  0
   20.8586   -6.9252  -15.0528 C   0  0  0  0  0  0  0  0  0  0  0  0
   22.1000   -7.1156  -14.7833 O   0  0  0  0  0  0  0  0  0  0  0  0
   20.2677   -5.7124  -14.8202 O   0  0  0  0  0  0  0  0  0  0  0  0
  2  1  1  1
  2  5  1  0
  3  2  1  0
  4  3  1  0
  5  6  2  0
  8  7  1  1
  8  9  1  0
  8 10  1  0
 10 12  1  0
 11  5  1  0
 10 11  1  6
 12 19  1  0
 13 12  2  0
 15 14  1  0
 16 15  2  0
 17 15  1  0
 18 17  1  1
 19 18  1  0
 20 18  1  0
 20 22  1  0
 21 20  2  0
M  END
$$$$
