CTN.pdb
     RDKit          3D

 22 21  0  0  1  0  0  0  0  0999 V2000
   28.4880  -20.8405  -16.2842 N   0  0  0  0  0  0  0  0  0  0  0  0
   28.1238  -20.0285  -15.1606 C   0  0  1  0  0  0  0  0  0  0  0  0
   27.6091  -18.6979  -15.6781 C   0  0  0  0  0  0  0  0  0  0  0  0
   28.8782  -17.8298  -16.6366 S   0  0  0  0  0  0  0  0  0  0  0  0
   27.0686  -20.6354  -14.3211 C   0  0  0  0  0  0  0  0  0  0  0  0
   26.4271  -21.6011  -14.8339 O   0  0  0  0  0  0  0  0  0  0  0  0
   24.6120  -21.2746  -10.0534 C   0  0  0  0  0  0  0  0  0  0  0  0
   25.7758  -20.6981  -10.8243 C   0  0  1  0  0  0  0  0  0  0  0  0
   26.9686  -21.3689  -10.5189 O   0  0  0  0  0  0  0  0  0  0  0  0
   25.5651  -20.7110  -12.3007 C   0  0  2  0  0  0  0  0  0  0  0  0
   26.7203  -20.2400  -13.0236 N   0  0  0  0  0  0  0  0  0  0  0  0
   24.3228  -20.0212  -12.7250 C   0  0  0  0  0  0  0  0  0  0  0  0
   24.3825  -18.9659  -13.4046 O   0  0  0  0  0  0  0  0  0  0  0  0
   20.5306  -19.8930  -16.4657 N   0  0  0  0  0  0  0  0  0  0  0  0
   20.9948  -19.3719  -15.2074 C   0  0  0  0  0  0  0  0  0  0  0  0
   20.3761  -18.3877  -14.7757 O   0  0  0  0  0  0  0  0  0  0  0  0
   22.1240  -19.9666  -14.4856 C   0  0  0  0  0  0  0  0  0  0  0  0
   21.8732  -20.0862  -13.0230 C   0  0  2  0  0  0  0  0  0  0  0  0
   23.0871  -20.5874  -12.3414 N   0  0  0  0  0  0  0  0  0  0  0  0
   20.8171  -21.1362  -12.7957 C   0  0  0  0  0  0  0  0  0  0  0  0
   19.7335  -20.8268  -12.1794 O   0  0  0  0  0  0  0  0  0  0  0  0
   21.0264  -22.4100  -13.2515 O   0  0  0  0  0  0  0  0  0  0  0  0
  2  1  1  6
  2  5  1  0
  3  2  1  0
  4  3  1  0
  5  6  2  0
  8  7  1  1
  8  9  1  0
  8 10  1  0
 10 12  1  0
 11  5  1  0
 10 11  1  6
 12 19  1  0
 13 12  2  0
 15 14  1  0
 16 15  2  0
 17 15  1  0
 18 17  1  6
 19 18  1  0
 20 18  1  0
 20 22  1  0
 21 20  2  0
M  END
$$$$
