CTN.pdb
     RDKit          3D

 22 21  0  0  1  0  0  0  0  0999 V2000
   17.6680  -13.3256  -16.4164 N   0  0  0  0  0  0  0  0  0  0  0  0
   17.3245  -12.2482  -15.5358 C   0  0  1  0  0  0  0  0  0  0  0  0
   17.9107  -12.5428  -14.1672 C   0  0  0  0  0  0  0  0  0  0  0  0
   17.1641  -14.0234  -13.4370 S   0  0  0  0  0  0  0  0  0  0  0  0
   17.8436  -10.9391  -15.9869 C   0  0  0  0  0  0  0  0  0  0  0  0
   19.0239  -10.9306  -16.4492 O   0  0  0  0  0  0  0  0  0  0  0  0
   16.0292   -8.4472  -18.3732 C   0  0  0  0  0  0  0  0  0  0  0  0
   16.6055   -7.7002  -17.1937 C   0  0  1  0  0  0  0  0  0  0  0  0
   15.5997   -7.3183  -16.2947 O   0  0  0  0  0  0  0  0  0  0  0  0
   17.6528   -8.4728  -16.4653 C   0  0  2  0  0  0  0  0  0  0  0  0
   17.1522   -9.7219  -15.9477 N   0  0  0  0  0  0  0  0  0  0  0  0
   18.3546   -7.6803  -15.4266 C   0  0  0  0  0  0  0  0  0  0  0  0
   18.1052   -7.8663  -14.2092 O   0  0  0  0  0  0  0  0  0  0  0  0
   22.2113   -5.5697  -12.5873 N   0  0  0  0  0  0  0  0  0  0  0  0
   22.2963   -5.4132  -14.0152 C   0  0  0  0  0  0  0  0  0  0  0  0
   23.0889   -4.5457  -14.4113 O   0  0  0  0  0  0  0  0  0  0  0  0
   21.4984   -6.2264  -14.9380 C   0  0  0  0  0  0  0  0  0  0  0  0
   20.0358   -5.9849  -14.8004 C   0  0  2  0  0  0  0  0  0  0  0  0
   19.3007   -6.7218  -15.8519 N   0  0  0  0  0  0  0  0  0  0  0  0
   19.7583   -4.5266  -15.0571 C   0  0  0  0  0  0  0  0  0  0  0  0
   19.3958   -4.1437  -16.2284 O   0  0  0  0  0  0  0  0  0  0  0  0
   19.8954   -3.6260  -14.0352 O   0  0  0  0  0  0  0  0  0  0  0  0
  2  1  1  6
  2  5  1  0
  3  2  1  0
  4  3  1  0
  5  6  2  0
  8  7  1  6
  8  9  1  0
  8 10  1  0
 10 12  1  0
 11  5  1  0
 10 11  1  1
 12 19  1  0
 13 12  2  0
 15 14  1  0
 16 15  2  0
 17 15  1  0
 18 17  1  6
 19 18  1  0
 20 18  1  0
 20 22  1  0
 21 20  2  0
M  END
$$$$
