CTN.pdb
     RDKit          3D

 22 21  0  0  1  0  0  0  0  0999 V2000
   17.1013  -13.2907  -15.4531 N   0  0  0  0  0  0  0  0  0  0  0  0
   18.5256  -13.3583  -15.5990 C   0  0  1  0  0  0  0  0  0  0  0  0
   18.8597  -14.5354  -16.4968 C   0  0  0  0  0  0  0  0  0  0  0  0
   18.3991  -16.1062  -15.7201 S   0  0  0  0  0  0  0  0  0  0  0  0
   19.1079  -12.1398  -16.2015 C   0  0  0  0  0  0  0  0  0  0  0  0
   20.3597  -12.1536  -16.4010 O   0  0  0  0  0  0  0  0  0  0  0  0
   17.8278  -10.2296  -19.3329 C   0  0  0  0  0  0  0  0  0  0  0  0
   18.1531   -9.2352  -18.2436 C   0  0  1  0  0  0  0  0  0  0  0  0
   16.9863   -8.6920  -17.6876 O   0  0  0  0  0  0  0  0  0  0  0  0
   18.9970   -9.8111  -17.1571 C   0  0  2  0  0  0  0  0  0  0  0  0
   18.4043  -10.9853  -16.5663 N   0  0  0  0  0  0  0  0  0  0  0  0
   19.4013   -8.8162  -16.1343 C   0  0  0  0  0  0  0  0  0  0  0  0
   19.0448   -8.9550  -14.9373 O   0  0  0  0  0  0  0  0  0  0  0  0
   21.7922   -5.2178  -13.4614 N   0  0  0  0  0  0  0  0  0  0  0  0
   22.2074   -6.5887  -13.5980 C   0  0  0  0  0  0  0  0  0  0  0  0
   23.0915   -6.9601  -12.8118 O   0  0  0  0  0  0  0  0  0  0  0  0
   21.6227   -7.4847  -14.6005 C   0  0  0  0  0  0  0  0  0  0  0  0
   20.6628   -6.7907  -15.5024 C   0  0  2  0  0  0  0  0  0  0  0  0
   20.1909   -7.7219  -16.5509 N   0  0  0  0  0  0  0  0  0  0  0  0
   21.3902   -5.6919  -16.2326 C   0  0  0  0  0  0  0  0  0  0  0  0
   22.0256   -5.9595  -17.3164 O   0  0  0  0  0  0  0  0  0  0  0  0
   21.3633   -4.4186  -15.7305 O   0  0  0  0  0  0  0  0  0  0  0  0
  2  1  1  6
  2  5  1  0
  3  2  1  0
  4  3  1  0
  5  6  2  0
  8  7  1  6
  8  9  1  0
  8 10  1  0
 10 12  1  0
 11  5  1  0
 10 11  1  1
 12 19  1  0
 13 12  2  0
 15 14  1  0
 16 15  2  0
 17 15  1  0
 18 17  1  1
 19 18  1  0
 20 18  1  0
 20 22  1  0
 21 20  2  0
M  END
$$$$
