CTN.pdb
     RDKit          3D

 22 21  0  0  1  0  0  0  0  0999 V2000
   18.1843  -13.0600  -16.5214 N   0  0  0  0  0  0  0  0  0  0  0  0
   16.8651  -12.5273  -16.6959 C   0  0  1  0  0  0  0  0  0  0  0  0
   15.9005  -13.3560  -15.8677 C   0  0  0  0  0  0  0  0  0  0  0  0
   16.1948  -15.1293  -16.0946 S   0  0  0  0  0  0  0  0  0  0  0  0
   16.7452  -11.1168  -16.2680 C   0  0  0  0  0  0  0  0  0  0  0  0
   15.6150  -10.5699  -16.4425 O   0  0  0  0  0  0  0  0  0  0  0  0
   17.2544   -9.5589  -12.8113 C   0  0  0  0  0  0  0  0  0  0  0  0
   18.0834   -8.8089  -13.8270 C   0  0  1  0  0  0  0  0  0  0  0  0
   19.4338   -9.1781  -13.7518 O   0  0  0  0  0  0  0  0  0  0  0  0
   17.5989   -8.9876  -15.2262 C   0  0  2  0  0  0  0  0  0  0  0  0
   17.7604  -10.3420  -15.6936 N   0  0  0  0  0  0  0  0  0  0  0  0
   18.1636   -7.9989  -16.1764 C   0  0  0  0  0  0  0  0  0  0  0  0
   19.0002   -8.3569  -17.0431 O   0  0  0  0  0  0  0  0  0  0  0  0
   19.0130   -3.6876  -18.8815 N   0  0  0  0  0  0  0  0  0  0  0  0
   17.6831   -3.6649  -18.3328 C   0  0  0  0  0  0  0  0  0  0  0  0
   16.9670   -2.7238  -18.7062 O   0  0  0  0  0  0  0  0  0  0  0  0
   17.2085   -4.6872  -17.3951 C   0  0  0  0  0  0  0  0  0  0  0  0
   18.2503   -5.7008  -17.0732 C   0  0  2  0  0  0  0  0  0  0  0  0
   17.7316   -6.6584  -16.0717 N   0  0  0  0  0  0  0  0  0  0  0  0
   19.4123   -5.0088  -16.4095 C   0  0  0  0  0  0  0  0  0  0  0  0
   20.1356   -4.1893  -17.0842 O   0  0  0  0  0  0  0  0  0  0  0  0
   19.6822   -5.2623  -15.0915 O   0  0  0  0  0  0  0  0  0  0  0  0
  2  1  1  1
  2  5  1  0
  3  2  1  0
  4  3  1  0
  5  6  2  0
  8  7  1  1
  8  9  1  0
  8 10  1  0
 10 12  1  0
 11  5  1  0
 10 11  1  6
 12 19  1  0
 13 12  2  0
 15 14  1  0
 16 15  2  0
 17 15  1  0
 18 17  1  1
 19 18  1  0
 20 18  1  0
 20 22  1  0
 21 20  2  0
M  END
$$$$
