CTN.pdb
     RDKit          3D

 22 21  0  0  1  0  0  0  0  0999 V2000
   16.6876  -11.7153  -15.7613 N   0  0  0  0  0  0  0  0  0  0  0  0
   17.6910  -11.1450  -16.6111 C   0  0  1  0  0  0  0  0  0  0  0  0
   17.0075  -10.2346  -17.6148 C   0  0  0  0  0  0  0  0  0  0  0  0
   15.8461  -11.1575  -18.6552 S   0  0  0  0  0  0  0  0  0  0  0  0
   18.6939  -10.3466  -15.8738 C   0  0  0  0  0  0  0  0  0  0  0  0
   18.2580   -9.6440  -14.9129 O   0  0  0  0  0  0  0  0  0  0  0  0
   23.4009   -9.4721  -14.5463 C   0  0  0  0  0  0  0  0  0  0  0  0
   22.3608  -10.2475  -15.3197 C   0  0  1  0  0  0  0  0  0  0  0  0
   22.2025  -11.5404  -14.8011 O   0  0  0  0  0  0  0  0  0  0  0  0
   21.0347   -9.5665  -15.3642 C   0  0  2  0  0  0  0  0  0  0  0  0
   20.0675  -10.3000  -16.1423 N   0  0  0  0  0  0  0  0  0  0  0  0
   21.1161   -8.1435  -15.7740 C   0  0  0  0  0  0  0  0  0  0  0  0
   21.1354   -7.8332  -16.9915 O   0  0  0  0  0  0  0  0  0  0  0  0
   19.6523   -3.1079  -16.6948 N   0  0  0  0  0  0  0  0  0  0  0  0
   20.0613   -3.6434  -15.4233 C   0  0  0  0  0  0  0  0  0  0  0  0
   20.4859   -2.8134  -14.6057 O   0  0  0  0  0  0  0  0  0  0  0  0
   19.9802   -5.0750  -15.1173 C   0  0  0  0  0  0  0  0  0  0  0  0
   21.3034   -5.7537  -15.1851 C   0  0  2  0  0  0  0  0  0  0  0  0
   21.1706   -7.1641  -14.7580 N   0  0  0  0  0  0  0  0  0  0  0  0
   22.2299   -5.1122  -14.1851 C   0  0  0  0  0  0  0  0  0  0  0  0
   22.2764   -5.5592  -12.9818 O   0  0  0  0  0  0  0  0  0  0  0  0
   23.0133   -4.0590  -14.5736 O   0  0  0  0  0  0  0  0  0  0  0  0
  2  1  1  1
  2  5  1  0
  3  2  1  0
  4  3  1  0
  5  6  2  0
  8  7  1  1
  8  9  1  0
  8 10  1  0
 10 12  1  0
 11  5  1  0
 10 11  1  6
 12 19  1  0
 13 12  2  0
 15 14  1  0
 16 15  2  0
 17 15  1  0
 18 17  1  1
 19 18  1  0
 20 18  1  0
 20 22  1  0
 21 20  2  0
M  END
$$$$
