WIV.pdb
     RDKit          3D

 30 31  0  0  1  0  0  0  0  0999 V2000
   28.2719  -20.1211   -9.4216 N   0  0  0  0  0  0  0  0  0  0  0  0
   26.9269  -20.6923   -9.3994 C   0  0  1  0  0  0  0  0  0  0  0  0
   26.1400  -20.1645   -8.2036 C   0  0  0  0  0  0  0  0  0  0  0  0
   27.0625  -19.5678   -7.2037 C   0  0  0  0  0  0  0  0  0  0  0  0
   27.4830  -18.2344   -7.1696 C   0  0  0  0  0  0  0  0  0  0  0  0
   28.3079  -18.0786   -6.1250 N   0  0  0  0  0  0  0  0  0  0  0  0
   28.4721  -19.2273   -5.4480 C   0  0  0  0  0  0  0  0  0  0  0  0
   29.2092  -19.5603   -4.3271 C   0  0  0  0  0  0  0  0  0  0  0  0
   29.1686  -20.8574   -3.8663 C   0  0  0  0  0  0  0  0  0  0  0  0
   28.4007  -21.7840   -4.5281 C   0  0  0  0  0  0  0  0  0  0  0  0
   27.6708  -21.4414   -5.6431 C   0  0  0  0  0  0  0  0  0  0  0  0
   27.6900  -20.1583   -6.1271 C   0  0  0  0  0  0  0  0  0  0  0  0
   26.1920  -20.3714  -10.6478 C   0  0  0  0  0  0  0  0  0  0  0  0
   26.0298  -19.1922  -10.9692 O   0  0  0  0  0  0  0  0  0  0  0  0
   27.6871  -22.4429  -15.0897 C   0  0  0  0  0  0  0  0  0  0  0  0
   27.0458  -21.6263  -14.0137 C   0  0  0  0  0  0  0  0  0  0  0  0
   25.5696  -21.9229  -13.8636 C   0  0  2  0  0  0  0  0  0  0  0  0
   24.8167  -21.6705  -15.1495 C   0  0  0  0  0  0  0  0  0  0  0  0
   24.9657  -21.1967  -12.6890 C   0  0  2  0  0  0  0  0  0  0  0  0
   25.6799  -21.4105  -11.4652 N   0  0  0  0  0  0  0  0  0  0  0  0
   23.5239  -21.5093  -12.5934 C   0  0  0  0  0  0  0  0  0  0  0  0
   23.1857  -22.6871  -12.3442 O   0  0  0  0  0  0  0  0  0  0  0  0
   18.8643  -19.9330  -12.1282 C   0  0  0  0  0  0  0  0  0  0  0  0
   20.3352  -19.5930  -12.2719 C   0  0  1  0  0  0  0  0  0  0  0  0
   20.8237  -19.0885  -10.9221 C   0  0  0  0  0  0  0  0  0  0  0  0
   21.0897  -20.8591  -12.6015 C   0  0  2  0  0  0  0  0  0  0  0  0
   22.4987  -20.5538  -12.7672 N   0  0  0  0  0  0  0  0  0  0  0  0
   20.5695  -21.5123  -13.8145 C   0  0  0  0  0  0  0  0  0  0  0  0
   21.0553  -21.1805  -15.0583 O   0  0  0  0  0  0  0  0  0  0  0  0
   19.6790  -22.3765  -13.7194 O   0  0  0  0  0  0  0  0  0  0  0  0
  2 13  1  0
  2  1  1  6
  3  2  1  0
  4  5  2  0
  4  3  1  0
  6  5  1  0
  7 12  2  0
  7  6  1  0
  8  7  1  0
  9 10  1  0
  9  8  2  0
 10 11  2  0
 11 12  1  0
 12  4  1  0
 13 14  2  0
 16 15  1  0
 16 17  1  0
 17 18  1  6
 19 17  1  0
 19 20  1  1
 20 13  1  0
 21 19  1  0
 22 21  2  0
 24 23  1  1
 24 26  1  0
 24 25  1  0
 26 27  1  6
 27 21  1  0
 28 26  1  0
 28 29  1  0
 30 28  2  0
M  END
$$$$
