WIV.pdb
     RDKit          3D

 30 31  0  0  1  0  0  0  0  0999 V2000
   27.9066  -23.0209  -13.2811 N   0  0  0  0  0  0  0  0  0  0  0  0
   27.5134  -21.8728  -12.4669 C   0  0  1  0  0  0  0  0  0  0  0  0
   28.2026  -20.6042  -12.9605 C   0  0  0  0  0  0  0  0  0  0  0  0
   29.6701  -20.7017  -12.7515 C   0  0  0  0  0  0  0  0  0  0  0  0
   30.6535  -20.1202  -13.5583 C   0  0  0  0  0  0  0  0  0  0  0  0
   31.8540  -20.4300  -13.0499 N   0  0  0  0  0  0  0  0  0  0  0  0
   31.7438  -21.1874  -11.9457 C   0  0  0  0  0  0  0  0  0  0  0  0
   32.6768  -21.7427  -11.0903 C   0  0  0  0  0  0  0  0  0  0  0  0
   32.2357  -22.4879  -10.0194 C   0  0  0  0  0  0  0  0  0  0  0  0
   30.8867  -22.6604   -9.8284 C   0  0  0  0  0  0  0  0  0  0  0  0
   29.9667  -22.1029  -10.6863 C   0  0  0  0  0  0  0  0  0  0  0  0
   30.3736  -21.3555  -11.7619 C   0  0  0  0  0  0  0  0  0  0  0  0
   26.0433  -21.6747  -12.5011 C   0  0  0  0  0  0  0  0  0  0  0  0
   25.3809  -22.2077  -13.3941 O   0  0  0  0  0  0  0  0  0  0  0  0
   23.9246  -20.4869   -7.5289 C   0  0  0  0  0  0  0  0  0  0  0  0
   24.2387  -21.0480   -8.8788 C   0  0  0  0  0  0  0  0  0  0  0  0
   23.5736  -20.2746   -9.9965 C   0  0  2  0  0  0  0  0  0  0  0  0
   22.0728  -20.2268   -9.8251 C   0  0  0  0  0  0  0  0  0  0  0  0
   23.9835  -20.7831  -11.3550 C   0  0  2  0  0  0  0  0  0  0  0  0
   25.4041  -20.8798  -11.5165 N   0  0  0  0  0  0  0  0  0  0  0  0
   23.3225  -19.9854  -12.4096 C   0  0  0  0  0  0  0  0  0  0  0  0
   23.6838  -18.7995  -12.5731 O   0  0  0  0  0  0  0  0  0  0  0  0
   23.3712  -20.4836  -15.8781 C   0  0  0  0  0  0  0  0  0  0  0  0
   21.8803  -20.3637  -15.6275 C   0  0  1  0  0  0  0  0  0  0  0  0
   21.3142  -21.7735  -15.5436 C   0  0  0  0  0  0  0  0  0  0  0  0
   21.6716  -19.6932  -14.2903 C   0  0  2  0  0  0  0  0  0  0  0  0
   22.3018  -20.4833  -13.2489 N   0  0  0  0  0  0  0  0  0  0  0  0
   20.2436  -19.5033  -13.9845 C   0  0  0  0  0  0  0  0  0  0  0  0
   19.4935  -18.5732  -14.6666 O   0  0  0  0  0  0  0  0  0  0  0  0
   19.7031  -20.1903  -13.0986 O   0  0  0  0  0  0  0  0  0  0  0  0
  2 13  1  0
  2  1  1  6
  3  2  1  0
  4  5  2  0
  4  3  1  0
  6  5  1  0
  7 12  2  0
  7  6  1  0
  8  7  1  0
  9 10  1  0
  9  8  2  0
 10 11  2  0
 11 12  1  0
 12  4  1  0
 13 14  2  0
 16 15  1  0
 16 17  1  0
 17 18  1  1
 19 17  1  0
 19 20  1  6
 20 13  1  0
 21 19  1  0
 22 21  2  0
 24 23  1  1
 24 26  1  0
 24 25  1  0
 26 27  1  1
 27 21  1  0
 28 26  1  0
 28 29  1  0
 30 28  2  0
M  END
$$$$
