WIV.pdb
     RDKit          3D

 30 31  0  0  1  0  0  0  0  0999 V2000
   25.1346  -19.7973  -13.1273 N   0  0  0  0  0  0  0  0  0  0  0  0
   23.9287  -20.0180  -12.3318 C   0  0  1  0  0  0  0  0  0  0  0  0
   22.8888  -20.7908  -13.1375 C   0  0  0  0  0  0  0  0  0  0  0  0
   22.4296  -19.9810  -14.2952 C   0  0  0  0  0  0  0  0  0  0  0  0
   22.8633  -20.1217  -15.6174 C   0  0  0  0  0  0  0  0  0  0  0  0
   22.2235  -19.2161  -16.3700 N   0  0  0  0  0  0  0  0  0  0  0  0
   21.3811  -18.4692  -15.6370 C   0  0  0  0  0  0  0  0  0  0  0  0
   20.5235  -17.4332  -15.9561 C   0  0  0  0  0  0  0  0  0  0  0  0
   19.7739  -16.8585  -14.9539 C   0  0  0  0  0  0  0  0  0  0  0  0
   19.8960  -17.3261  -13.6684 C   0  0  0  0  0  0  0  0  0  0  0  0
   20.7529  -18.3581  -13.3620 C   0  0  0  0  0  0  0  0  0  0  0  0
   21.5131  -18.9515  -14.3372 C   0  0  0  0  0  0  0  0  0  0  0  0
   24.2405  -20.7681  -11.0901 C   0  0  0  0  0  0  0  0  0  0  0  0
   24.7339  -21.8952  -11.1709 O   0  0  0  0  0  0  0  0  0  0  0  0
   27.0324  -19.1903   -7.1171 C   0  0  0  0  0  0  0  0  0  0  0  0
   26.2395  -20.0544   -8.0447 C   0  0  0  0  0  0  0  0  0  0  0  0
   24.8438  -20.3296   -7.5289 C   0  0  2  0  0  0  0  0  0  0  0  0
   24.8699  -21.1541   -6.2626 C   0  0  0  0  0  0  0  0  0  0  0  0
   23.9591  -20.9308   -8.5909 C   0  0  2  0  0  0  0  0  0  0  0  0
   23.9739  -20.1955   -9.8208 N   0  0  0  0  0  0  0  0  0  0  0  0
   22.6008  -21.1471   -8.0489 C   0  0  0  0  0  0  0  0  0  0  0  0
   21.9215  -20.1470   -7.7294 O   0  0  0  0  0  0  0  0  0  0  0  0
   18.6836  -24.0187   -7.3013 C   0  0  0  0  0  0  0  0  0  0  0  0
   20.0375  -23.8049   -7.9503 C   0  0  1  0  0  0  0  0  0  0  0  0
   19.7961  -23.4572   -9.4118 C   0  0  0  0  0  0  0  0  0  0  0  0
   20.7040  -22.6215   -7.2896 C   0  0  2  0  0  0  0  0  0  0  0  0
   22.0196  -22.4214   -7.8686 N   0  0  0  0  0  0  0  0  0  0  0  0
   20.8160  -22.7935   -5.8314 C   0  0  0  0  0  0  0  0  0  0  0  0
   19.8136  -22.3660   -4.9914 O   0  0  0  0  0  0  0  0  0  0  0  0
   21.8280  -23.3319   -5.3469 O   0  0  0  0  0  0  0  0  0  0  0  0
  2 13  1  0
  2  1  1  6
  3  2  1  0
  4  5  2  0
  4  3  1  0
  6  5  1  0
  7 12  2  0
  7  6  1  0
  8  7  1  0
  9 10  1  0
  9  8  2  0
 10 11  2  0
 11 12  1  0
 12  4  1  0
 13 14  2  0
 16 15  1  0
 16 17  1  0
 17 18  1  1
 19 17  1  0
 19 20  1  6
 20 13  1  0
 21 19  1  0
 22 21  2  0
 24 23  1  1
 24 26  1  0
 24 25  1  0
 26 27  1  6
 27 21  1  0
 28 26  1  0
 28 29  1  0
 30 28  2  0
M  END
$$$$
