WIV.pdb
     RDKit          3D

 30 31  0  0  1  0  0  0  0  0999 V2000
   28.6396  -20.5066  -15.7773 N   0  0  0  0  0  0  0  0  0  0  0  0
   27.6138  -19.8124  -15.0017 C   0  0  1  0  0  0  0  0  0  0  0  0
   26.7061  -18.9992  -15.9197 C   0  0  0  0  0  0  0  0  0  0  0  0
   27.4539  -17.8538  -16.4991 C   0  0  0  0  0  0  0  0  0  0  0  0
   28.1658  -17.8643  -17.7029 C   0  0  0  0  0  0  0  0  0  0  0  0
   28.7022  -16.6501  -17.8866 N   0  0  0  0  0  0  0  0  0  0  0  0
   28.3965  -15.8160  -16.8788 C   0  0  0  0  0  0  0  0  0  0  0  0
   28.7110  -14.4941  -16.6250 C   0  0  0  0  0  0  0  0  0  0  0  0
   28.2337  -13.9067  -15.4744 C   0  0  0  0  0  0  0  0  0  0  0  0
   27.4611  -14.6448  -14.6115 C   0  0  0  0  0  0  0  0  0  0  0  0
   27.1543  -15.9601  -14.8742 C   0  0  0  0  0  0  0  0  0  0  0  0
   27.6141  -16.5740  -16.0112 C   0  0  0  0  0  0  0  0  0  0  0  0
   26.7904  -20.7738  -14.2276 C   0  0  0  0  0  0  0  0  0  0  0  0
   26.5253  -21.8746  -14.7157 O   0  0  0  0  0  0  0  0  0  0  0  0
   25.6939  -20.0898   -8.5632 C   0  0  0  0  0  0  0  0  0  0  0  0
   25.4221  -19.9767  -10.0292 C   0  0  0  0  0  0  0  0  0  0  0  0
   25.5953  -21.2938  -10.7537 C   0  0  2  0  0  0  0  0  0  0  0  0
   26.9485  -21.9079  -10.4782 C   0  0  0  0  0  0  0  0  0  0  0  0
   25.3080  -21.1678  -12.2280 C   0  0  2  0  0  0  0  0  0  0  0  0
   26.3116  -20.4314  -12.9379 N   0  0  0  0  0  0  0  0  0  0  0  0
   23.9396  -20.6459  -12.4295 C   0  0  0  0  0  0  0  0  0  0  0  0
   23.7449  -19.4183  -12.2927 O   0  0  0  0  0  0  0  0  0  0  0  0
   21.9980  -21.0025  -15.4361 C   0  0  0  0  0  0  0  0  0  0  0  0
   21.0136  -21.4278  -14.3638 C   0  0  1  0  0  0  0  0  0  0  0  0
   21.0121  -22.9488  -14.3193 C   0  0  0  0  0  0  0  0  0  0  0  0
   21.5081  -20.9192  -13.0304 C   0  0  2  0  0  0  0  0  0  0  0  0
   22.8319  -21.4532  -12.7692 N   0  0  0  0  0  0  0  0  0  0  0  0
   20.5953  -21.2745  -11.9307 C   0  0  0  0  0  0  0  0  0  0  0  0
   19.3787  -20.6469  -11.7928 O   0  0  0  0  0  0  0  0  0  0  0  0
   20.9234  -22.1529  -11.1125 O   0  0  0  0  0  0  0  0  0  0  0  0
  2 13  1  0
  2  1  1  6
  3  2  1  0
  4  5  2  0
  4  3  1  0
  6  5  1  0
  7 12  2  0
  7  6  1  0
  8  7  1  0
  9 10  1  0
  9  8  2  0
 10 11  2  0
 11 12  1  0
 12  4  1  0
 13 14  2  0
 16 15  1  0
 16 17  1  0
 17 18  1  6
 19 17  1  0
 19 20  1  1
 20 13  1  0
 21 19  1  0
 22 21  2  0
 24 23  1  6
 24 26  1  0
 24 25  1  0
 26 27  1  1
 27 21  1  0
 28 26  1  0
 28 29  1  0
 30 28  2  0
M  END
$$$$
