WIV.pdb
     RDKit          3D

 30 31  0  0  1  0  0  0  0  0999 V2000
   24.6385  -19.9189   -8.8765 N   0  0  0  0  0  0  0  0  0  0  0  0
   25.9451  -20.2558   -9.4375 C   0  0  1  0  0  0  0  0  0  0  0  0
   26.6267  -21.3334   -8.5997 C   0  0  0  0  0  0  0  0  0  0  0  0
   26.7828  -20.8718   -7.1964 C   0  0  0  0  0  0  0  0  0  0  0  0
   25.7705  -20.8216   -6.2326 C   0  0  0  0  0  0  0  0  0  0  0  0
   26.2960  -20.3519   -5.0928 N   0  0  0  0  0  0  0  0  0  0  0  0
   27.6050  -20.0803   -5.2259 C   0  0  0  0  0  0  0  0  0  0  0  0
   28.5563  -19.5892   -4.3516 C   0  0  0  0  0  0  0  0  0  0  0  0
   29.8466  -19.4176   -4.8015 C   0  0  0  0  0  0  0  0  0  0  0  0
   30.1552  -19.7369   -6.1011 C   0  0  0  0  0  0  0  0  0  0  0  0
   29.2001  -20.2251   -6.9628 C   0  0  0  0  0  0  0  0  0  0  0  0
   27.9064  -20.4074   -6.5456 C   0  0  0  0  0  0  0  0  0  0  0  0
   25.8163  -20.7335  -10.8364 C   0  0  0  0  0  0  0  0  0  0  0  0
   24.7803  -21.3009  -11.1898 O   0  0  0  0  0  0  0  0  0  0  0  0
   28.8758  -17.8331  -15.3901 C   0  0  0  0  0  0  0  0  0  0  0  0
   27.6875  -18.6041  -14.9111 C   0  0  0  0  0  0  0  0  0  0  0  0
   27.9383  -19.2907  -13.5862 C   0  0  2  0  0  0  0  0  0  0  0  0
   29.1428  -20.2014  -13.6495 C   0  0  0  0  0  0  0  0  0  0  0  0
   26.7079  -19.9956  -13.0752 C   0  0  2  0  0  0  0  0  0  0  0  0
   26.8744  -20.5399  -11.7601 N   0  0  0  0  0  0  0  0  0  0  0  0
   26.2480  -20.9872  -14.0706 C   0  0  0  0  0  0  0  0  0  0  0  0
   27.0804  -21.7999  -14.5292 O   0  0  0  0  0  0  0  0  0  0  0  0
   23.0425  -24.1735  -15.4722 C   0  0  0  0  0  0  0  0  0  0  0  0
   23.4848  -23.0208  -14.5917 C   0  0  1  0  0  0  0  0  0  0  0  0
   24.2437  -23.6096  -13.4116 C   0  0  0  0  0  0  0  0  0  0  0  0
   24.4393  -22.1549  -15.3793 C   0  0  2  0  0  0  0  0  0  0  0  0
   24.9185  -21.0736  -14.5384 N   0  0  0  0  0  0  0  0  0  0  0  0
   23.8141  -21.6084  -16.5955 C   0  0  0  0  0  0  0  0  0  0  0  0
   24.1208  -22.1175  -17.8364 O   0  0  0  0  0  0  0  0  0  0  0  0
   22.9969  -20.6741  -16.5058 O   0  0  0  0  0  0  0  0  0  0  0  0
  2 13  1  0
  2  1  1  1
  3  2  1  0
  4  5  2  0
  4  3  1  0
  6  5  1  0
  7 12  2  0
  7  6  1  0
  8  7  1  0
  9 10  1  0
  9  8  2  0
 10 11  2  0
 11 12  1  0
 12  4  1  0
 13 14  2  0
 16 15  1  0
 16 17  1  0
 17 18  1  6
 19 17  1  0
 19 20  1  1
 20 13  1  0
 21 19  1  0
 22 21  2  0
 24 23  1  6
 24 26  1  0
 24 25  1  0
 26 27  1  1
 27 21  1  0
 28 26  1  0
 28 29  1  0
 30 28  2  0
M  END
$$$$
