WIV.pdb
     RDKit          3D

 30 31  0  0  1  0  0  0  0  0999 V2000
   25.7613  -18.6134   -8.6025 N   0  0  0  0  0  0  0  0  0  0  0  0
   26.2993  -19.8292   -9.2093 C   0  0  1  0  0  0  0  0  0  0  0  0
   26.1475  -21.0144   -8.2605 C   0  0  0  0  0  0  0  0  0  0  0  0
   26.7343  -20.6904   -6.9349 C   0  0  0  0  0  0  0  0  0  0  0  0
   26.0198  -20.3261   -5.7891 C   0  0  0  0  0  0  0  0  0  0  0  0
   26.8944  -20.1138   -4.7961 N   0  0  0  0  0  0  0  0  0  0  0  0
   28.1602  -20.3125   -5.2001 C   0  0  0  0  0  0  0  0  0  0  0  0
   29.3784  -20.2190   -4.5537 C   0  0  0  0  0  0  0  0  0  0  0  0
   30.5283  -20.4927   -5.2604 C   0  0  0  0  0  0  0  0  0  0  0  0
   30.4373  -20.8500   -6.5834 C   0  0  0  0  0  0  0  0  0  0  0  0
   29.2192  -20.9399   -7.2168 C   0  0  0  0  0  0  0  0  0  0  0  0
   28.0558  -20.6738   -6.5410 C   0  0  0  0  0  0  0  0  0  0  0  0
   25.6108  -20.1355  -10.4874 C   0  0  0  0  0  0  0  0  0  0  0  0
   24.3965  -19.9439  -10.5825 O   0  0  0  0  0  0  0  0  0  0  0  0
   29.3673  -19.3803  -14.3912 C   0  0  0  0  0  0  0  0  0  0  0  0
   28.1530  -19.3615  -13.5188 C   0  0  0  0  0  0  0  0  0  0  0  0
   27.1502  -20.4290  -13.8989 C   0  0  2  0  0  0  0  0  0  0  0  0
   26.7364  -20.3145  -15.3480 C   0  0  0  0  0  0  0  0  0  0  0  0
   25.9699  -20.4525  -12.9617 C   0  0  2  0  0  0  0  0  0  0  0  0
   26.3412  -20.6442  -11.5910 N   0  0  0  0  0  0  0  0  0  0  0  0
   24.9665  -21.4256  -13.4430 C   0  0  0  0  0  0  0  0  0  0  0  0
   25.2974  -22.6284  -13.5286 O   0  0  0  0  0  0  0  0  0  0  0  0
   20.2687  -22.6077  -14.3021 C   0  0  0  0  0  0  0  0  0  0  0  0
   21.2826  -21.5769  -13.8448 C   0  0  1  0  0  0  0  0  0  0  0  0
   21.2231  -21.5171  -12.3256 C   0  0  0  0  0  0  0  0  0  0  0  0
   22.6604  -22.0505  -14.2429 C   0  0  2  0  0  0  0  0  0  0  0  0
   23.6491  -21.0784  -13.8145 N   0  0  0  0  0  0  0  0  0  0  0  0
   22.7697  -22.2745  -15.6942 C   0  0  0  0  0  0  0  0  0  0  0  0
   22.6150  -23.5333  -16.2276 O   0  0  0  0  0  0  0  0  0  0  0  0
   23.0048  -21.3165  -16.4530 O   0  0  0  0  0  0  0  0  0  0  0  0
  2 13  1  0
  2  1  1  1
  3  2  1  0
  4  5  2  0
  4  3  1  0
  6  5  1  0
  7 12  2  0
  7  6  1  0
  8  7  1  0
  9 10  1  0
  9  8  2  0
 10 11  2  0
 11 12  1  0
 12  4  1  0
 13 14  2  0
 16 15  1  0
 16 17  1  0
 17 18  1  6
 19 17  1  0
 19 20  1  1
 20 13  1  0
 21 19  1  0
 22 21  2  0
 24 23  1  1
 24 26  1  0
 24 25  1  0
 26 27  1  6
 27 21  1  0
 28 26  1  0
 28 29  1  0
 30 28  2  0
M  END
$$$$
