WIV.pdb
     RDKit          3D

 30 31  0  0  1  0  0  0  0  0999 V2000
   28.6727  -20.5863  -15.1661 N   0  0  0  0  0  0  0  0  0  0  0  0
   27.7944  -19.8853  -14.2319 C   0  0  1  0  0  0  0  0  0  0  0  0
   26.6548  -19.1993  -14.9793 C   0  0  0  0  0  0  0  0  0  0  0  0
   27.1906  -18.1459  -15.8792 C   0  0  0  0  0  0  0  0  0  0  0  0
   28.5203  -18.0210  -16.2944 C   0  0  0  0  0  0  0  0  0  0  0  0
   28.6130  -16.9525  -17.0978 N   0  0  0  0  0  0  0  0  0  0  0  0
   27.4249  -16.3447  -17.2527 C   0  0  0  0  0  0  0  0  0  0  0  0
   27.0249  -15.2318  -17.9683 C   0  0  0  0  0  0  0  0  0  0  0  0
   25.7017  -14.8528  -17.9228 C   0  0  0  0  0  0  0  0  0  0  0  0
   24.8162  -15.5859  -17.1713 C   0  0  0  0  0  0  0  0  0  0  0  0
   25.2254  -16.6921  -16.4628 C   0  0  0  0  0  0  0  0  0  0  0  0
   26.5360  -17.0956  -16.4874 C   0  0  0  0  0  0  0  0  0  0  0  0
   27.2276  -20.8216  -13.2300 C   0  0  0  0  0  0  0  0  0  0  0  0
   26.8816  -21.9508  -13.5840 O   0  0  0  0  0  0  0  0  0  0  0  0
   26.2018  -19.5279   -7.5222 C   0  0  0  0  0  0  0  0  0  0  0  0
   26.5710  -19.5522   -8.9709 C   0  0  0  0  0  0  0  0  0  0  0  0
   26.6986  -20.9593   -9.5126 C   0  0  2  0  0  0  0  0  0  0  0  0
   28.0998  -21.4984   -9.3394 C   0  0  0  0  0  0  0  0  0  0  0  0
   26.2126  -21.0614  -10.9357 C   0  0  2  0  0  0  0  0  0  0  0  0
   27.0842  -20.4229  -11.8771 N   0  0  0  0  0  0  0  0  0  0  0  0
   24.8110  -20.5994  -11.0216 C   0  0  0  0  0  0  0  0  0  0  0  0
   24.5932  -19.3704  -11.0968 O   0  0  0  0  0  0  0  0  0  0  0  0
   21.9804  -23.0373  -12.6684 C   0  0  0  0  0  0  0  0  0  0  0  0
   21.9289  -21.5217  -12.6743 C   0  0  1  0  0  0  0  0  0  0  0  0
   20.4821  -21.1125  -12.9078 C   0  0  0  0  0  0  0  0  0  0  0  0
   22.3441  -21.0227  -11.3105 C   0  0  2  0  0  0  0  0  0  0  0  0
   23.6959  -21.4659  -11.0238 N   0  0  0  0  0  0  0  0  0  0  0  0
   21.4283  -21.4809  -10.2523 C   0  0  0  0  0  0  0  0  0  0  0  0
   20.1296  -21.0296  -10.1987 O   0  0  0  0  0  0  0  0  0  0  0  0
   21.8287  -22.2868   -9.3926 O   0  0  0  0  0  0  0  0  0  0  0  0
  2 13  1  0
  2  1  1  6
  3  2  1  0
  4  5  2  0
  4  3  1  0
  6  5  1  0
  7 12  2  0
  7  6  1  0
  8  7  1  0
  9 10  1  0
  9  8  2  0
 10 11  2  0
 11 12  1  0
 12  4  1  0
 13 14  2  0
 16 15  1  0
 16 17  1  0
 17 18  1  6
 19 17  1  0
 19 20  1  6
 20 13  1  0
 21 19  1  0
 22 21  2  0
 24 23  1  1
 24 26  1  0
 24 25  1  0
 26 27  1  1
 27 21  1  0
 28 26  1  0
 28 29  1  0
 30 28  2  0
M  END
$$$$
