PQR.pdb
     RDKit          3D

 28 28  0  0  1  0  0  0  0  0999 V2000
   27.0271  -21.0887  -12.5090 N   0  0  0  0  0  0  0  0  0  0  0  0
   28.4396  -20.8211  -12.3774 C   0  0  0  0  0  0  0  0  0  0  0  0
   28.9364  -20.4095  -13.7421 C   0  0  0  0  0  0  0  0  0  0  0  0
   27.6739  -20.4080  -14.6109 C   0  0  0  0  0  0  0  0  0  0  0  0
   26.6149  -20.1861  -13.5462 C   0  0  1  0  0  0  0  0  0  0  0  0
   25.2488  -20.5034  -14.0414 C   0  0  0  0  0  0  0  0  0  0  0  0
   24.7131  -19.6879  -14.8327 O   0  0  0  0  0  0  0  0  0  0  0  0
   22.5033  -26.3022  -13.8918 N   0  0  0  0  0  0  0  0  0  0  0  0
   21.5272  -25.4285  -14.4897 C   0  0  0  0  0  0  0  0  0  0  0  0
   20.4713  -25.9525  -14.9087 O   0  0  0  0  0  0  0  0  0  0  0  0
   21.7727  -23.9867  -14.5961 C   0  0  0  0  0  0  0  0  0  0  0  0
   23.0829  -23.5103  -14.0823 C   0  0  0  0  0  0  0  0  0  0  0  0
   23.3308  -22.0410  -14.1875 C   0  0  2  0  0  0  0  0  0  0  0  0
   24.6160  -21.6971  -13.6062 N   0  0  0  0  0  0  0  0  0  0  0  0
   22.2808  -21.3615  -13.3438 C   0  0  0  0  0  0  0  0  0  0  0  0
   22.5128  -21.0796  -12.1426 O   0  0  0  0  0  0  0  0  0  0  0  0
   22.1259  -18.3476  -17.8872 N   0  0  0  0  0  0  0  0  0  0  0  0
   21.2718  -17.2277  -17.7045 C   0  0  0  0  0  0  0  0  0  0  0  0
   20.7670  -16.5674  -18.6967 N   0  0  0  0  0  0  0  0  0  0  0  0
   20.9027  -16.7432  -16.4207 N   0  0  0  0  0  0  0  0  0  0  0  0
   21.1028  -17.4589  -15.2295 C   0  0  0  0  0  0  0  0  0  0  0  0
   19.9737  -18.2319  -14.6764 C   0  0  0  0  0  0  0  0  0  0  0  0
   20.2508  -18.7482  -13.2859 C   0  0  0  0  0  0  0  0  0  0  0  0
   20.0204  -20.2312  -13.2140 C   0  0  2  0  0  0  0  0  0  0  0  0
   21.0098  -21.0258  -13.8836 N   0  0  0  0  0  0  0  0  0  0  0  0
   18.6758  -20.6022  -13.7269 C   0  0  0  0  0  0  0  0  0  0  0  0
   17.5091  -20.3075  -13.0266 O   0  0  0  0  0  0  0  0  0  0  0  0
   18.5995  -21.1966  -14.8211 O   0  0  0  0  0  0  0  0  0  0  0  0
  1  2  1  0
  3  2  1  0
  4  5  1  0
  4  3  1  0
  5  1  1  0
  6  7  2  0
  5  6  1  6
  9  8  1  0
 10  9  2  0
 11  9  1  0
 13 12  1  1
 12 11  1  0
 13 14  1  0
 14  6  1  0
 15 25  1  0
 15 13  1  0
 16 15  2  0
 18 19  2  0
 18 17  1  0
 20 18  1  0
 21 20  1  0
 22 21  1  0
 24 23  1  6
 23 22  1  0
 24 25  1  0
 26 24  1  0
 27 26  1  0
 28 26  2  0
M  END
$$$$
