PQR.pdb
     RDKit          3D

 28 28  0  0  1  0  0  0  0  0999 V2000
   27.5273  -22.0692  -19.6119 N   0  0  0  0  0  0  0  0  0  0  0  0
   28.5243  -22.6328  -20.4908 C   0  0  0  0  0  0  0  0  0  0  0  0
   29.6665  -21.6474  -20.5463 C   0  0  0  0  0  0  0  0  0  0  0  0
   29.2450  -20.5369  -19.5779 C   0  0  0  0  0  0  0  0  0  0  0  0
   28.3048  -21.3119  -18.6725 C   0  0  1  0  0  0  0  0  0  0  0  0
   27.4520  -20.4126  -17.8504 C   0  0  0  0  0  0  0  0  0  0  0  0
   28.0220  -19.6995  -16.9872 O   0  0  0  0  0  0  0  0  0  0  0  0
   22.0098  -17.7916  -19.7004 N   0  0  0  0  0  0  0  0  0  0  0  0
   22.0895  -17.4820  -18.2963 C   0  0  0  0  0  0  0  0  0  0  0  0
   21.2110  -16.7250  -17.8270 O   0  0  0  0  0  0  0  0  0  0  0  0
   23.1601  -18.0379  -17.4627 C   0  0  0  0  0  0  0  0  0  0  0  0
   24.1429  -18.9070  -18.1602 C   0  0  0  0  0  0  0  0  0  0  0  0
   25.2489  -19.4507  -17.3161 C   0  0  2  0  0  0  0  0  0  0  0  0
   26.0501  -20.3968  -18.0718 N   0  0  0  0  0  0  0  0  0  0  0  0
   24.6004  -20.2307  -16.1995 C   0  0  0  0  0  0  0  0  0  0  0  0
   24.0622  -21.3418  -16.4273 O   0  0  0  0  0  0  0  0  0  0  0  0
   25.8337  -20.6879   -7.3129 N   0  0  0  0  0  0  0  0  0  0  0  0
   24.5864  -21.3064   -7.5934 C   0  0  0  0  0  0  0  0  0  0  0  0
   23.8502  -21.8393   -6.6718 N   0  0  0  0  0  0  0  0  0  0  0  0
   24.0468  -21.3895   -8.9052 N   0  0  0  0  0  0  0  0  0  0  0  0
   24.6144  -20.7587  -10.0238 C   0  0  0  0  0  0  0  0  0  0  0  0
   23.9587  -20.9302  -11.3349 C   0  0  0  0  0  0  0  0  0  0  0  0
   24.6641  -20.1805  -12.4381 C   0  0  0  0  0  0  0  0  0  0  0  0
   23.9713  -20.3952  -13.7539 C   0  0  2  0  0  0  0  0  0  0  0  0
   24.5816  -19.7306  -14.8694 N   0  0  0  0  0  0  0  0  0  0  0  0
   22.5378  -20.0087  -13.6876 C   0  0  0  0  0  0  0  0  0  0  0  0
   21.5579  -20.8773  -13.2145 O   0  0  0  0  0  0  0  0  0  0  0  0
   22.2109  -18.8672  -14.0705 O   0  0  0  0  0  0  0  0  0  0  0  0
  1  2  1  0
  3  2  1  0
  4  5  1  0
  4  3  1  0
  5  1  1  0
  6  7  2  0
  5  6  1  6
  9  8  1  0
 10  9  2  0
 11  9  1  0
 13 12  1  6
 12 11  1  0
 13 14  1  0
 14  6  1  0
 15 25  1  0
 15 13  1  0
 16 15  2  0
 18 19  2  0
 18 17  1  0
 20 18  1  0
 21 20  1  0
 22 21  1  0
 24 23  1  1
 23 22  1  0
 24 25  1  0
 26 24  1  0
 27 26  1  0
 28 26  2  0
M  END
$$$$
