PQR.pdb
     RDKit          3D

 28 28  0  0  1  0  0  0  0  0999 V2000
   27.0115  -14.9736  -17.8171 N   0  0  0  0  0  0  0  0  0  0  0  0
   27.6828  -13.9371  -18.5648 C   0  0  0  0  0  0  0  0  0  0  0  0
   27.7698  -12.7314  -17.6608 C   0  0  0  0  0  0  0  0  0  0  0  0
   27.1558  -13.2125  -16.3416 C   0  0  0  0  0  0  0  0  0  0  0  0
   27.3983  -14.7062  -16.4609 C   0  0  1  0  0  0  0  0  0  0  0  0
   26.5817  -15.4847  -15.4918 C   0  0  0  0  0  0  0  0  0  0  0  0
   26.7540  -15.2540  -14.2689 O   0  0  0  0  0  0  0  0  0  0  0  0
   20.6472  -16.9793  -16.1285 N   0  0  0  0  0  0  0  0  0  0  0  0
   21.5165  -17.9174  -16.7904 C   0  0  0  0  0  0  0  0  0  0  0  0
   21.0014  -18.6649  -17.6513 O   0  0  0  0  0  0  0  0  0  0  0  0
   22.9436  -17.9831  -16.4604 C   0  0  0  0  0  0  0  0  0  0  0  0
   23.4012  -17.0840  -15.3696 C   0  0  0  0  0  0  0  0  0  0  0  0
   24.8501  -17.1699  -15.0166 C   0  0  2  0  0  0  0  0  0  0  0  0
   25.6546  -16.4416  -15.9811 N   0  0  0  0  0  0  0  0  0  0  0  0
   25.2416  -18.6217  -15.1377 C   0  0  0  0  0  0  0  0  0  0  0  0
   25.9886  -19.0045  -16.0712 O   0  0  0  0  0  0  0  0  0  0  0  0
   26.3136  -19.8475   -8.4441 N   0  0  0  0  0  0  0  0  0  0  0  0
   25.6651  -21.0220   -8.9103 C   0  0  0  0  0  0  0  0  0  0  0  0
   24.5849  -21.4836   -8.3669 N   0  0  0  0  0  0  0  0  0  0  0  0
   26.1482  -21.7828  -10.0088 N   0  0  0  0  0  0  0  0  0  0  0  0
   27.1047  -21.3129  -10.9229 C   0  0  0  0  0  0  0  0  0  0  0  0
   26.7138  -20.2420  -11.8603 C   0  0  0  0  0  0  0  0  0  0  0  0
   26.8108  -20.6713  -13.3036 C   0  0  0  0  0  0  0  0  0  0  0  0
   25.4427  -20.8232  -13.9059 C   0  0  2  0  0  0  0  0  0  0  0  0
   24.7773  -19.5875  -14.2042 N   0  0  0  0  0  0  0  0  0  0  0  0
   24.5563  -21.6538  -13.0498 C   0  0  0  0  0  0  0  0  0  0  0  0
   24.7011  -23.0353  -12.9551 O   0  0  0  0  0  0  0  0  0  0  0  0
   23.6562  -21.0865  -12.3983 O   0  0  0  0  0  0  0  0  0  0  0  0
  1  2  1  0
  3  2  1  0
  4  5  1  0
  4  3  1  0
  5  1  1  0
  6  7  2  0
  5  6  1  1
  9  8  1  0
 10  9  2  0
 11  9  1  0
 13 12  1  6
 12 11  1  0
 13 14  1  0
 14  6  1  0
 15 25  1  0
 15 13  1  0
 16 15  2  0
 18 19  2  0
 18 17  1  0
 20 18  1  0
 21 20  1  0
 22 21  1  0
 24 23  1  1
 23 22  1  0
 24 25  1  0
 26 24  1  0
 27 26  1  0
 28 26  2  0
M  END
$$$$
