ENE.pdb
     RDKit          3D

 27 26  0  0  1  0  0  0  0  0999 V2000
   11.1263  -20.0115   14.8275 N   0  0  0  0  0  0  0  0  0  0  0  0
   11.9603  -20.8388   15.6433 C   0  0  1  0  0  0  0  0  0  0  0  0
   13.2246  -21.2099   14.9161 C   0  0  0  0  0  0  0  0  0  0  0  0
   13.0479  -22.0131   13.6798 C   0  0  0  0  0  0  0  0  0  0  0  0
   14.3334  -22.5973   13.2467 C   0  0  0  0  0  0  0  0  0  0  0  0
   15.0994  -23.2026   14.0300 O   0  0  0  0  0  0  0  0  0  0  0  0
   12.3796  -20.0122   16.8617 C   0  0  0  0  0  0  0  0  0  0  0  0
   13.0045  -18.9599   16.7076 O   0  0  0  0  0  0  0  0  0  0  0  0
   14.6871  -22.4584   11.9087 O   0  0  0  0  0  0  0  0  0  0  0  0
    8.7876  -19.6039   19.3336 N   0  0  0  0  0  0  0  0  0  0  0  0
    9.9868  -18.9850   19.7894 C   0  0  0  0  0  0  0  0  0  0  0  0
   10.0635  -17.7266   19.6850 O   0  0  0  0  0  0  0  0  0  0  0  0
   11.0895  -19.7943   20.3560 C   0  0  0  0  0  0  0  0  0  0  0  0
   12.2928  -19.8954   19.4092 C   0  0  2  0  0  0  0  0  0  0  0  0
   12.0407  -20.4737   18.1437 N   0  0  0  0  0  0  0  0  0  0  0  0
   13.4403  -20.4374   20.1388 C   0  0  0  0  0  0  0  0  0  0  0  0
   13.4281  -21.5562   20.6991 O   0  0  0  0  0  0  0  0  0  0  0  0
   14.6788  -19.7152   20.2617 N   0  0  0  0  0  0  0  0  0  0  0  0
   15.5718  -19.8807   21.4249 C   0  0  1  0  0  0  0  0  0  0  0  0
   16.5351  -18.7599   21.4825 C   0  0  0  0  0  0  0  0  0  0  0  0
   17.4525  -18.7766   22.6508 C   0  0  0  0  0  0  0  0  0  0  0  0
   18.5009  -17.7235   22.6306 C   0  0  0  0  0  0  0  0  0  0  0  0
   18.1184  -16.5324   22.8543 O   0  0  0  0  0  0  0  0  0  0  0  0
   14.7802  -20.2063   22.5823 C   0  0  0  0  0  0  0  0  0  0  0  0
   13.7520  -19.5036   22.8758 O   0  0  0  0  0  0  0  0  0  0  0  0
   19.8337  -17.9374   22.3925 O   0  0  0  0  0  0  0  0  0  0  0  0
   15.0004  -21.2693   23.4814 O   0  0  0  0  0  0  0  0  0  0  0  0
  2  1  1  6
  2  3  1  0
  3  4  1  0
  5  4  1  0
  5  9  1  0
  6  5  2  0
  7  2  1  0
  7  8  2  0
 10 11  1  0
 11 13  1  0
 12 11  2  0
 14 13  1  1
 14 15  1  0
 15  7  1  0
 16 14  1  0
 17 16  2  0
 18 16  1  0
 19 18  1  0
 19 24  1  0
 19 20  1  1
 21 22  1  0
 21 20  1  0
 22 23  2  0
 24 27  1  0
 25 24  2  0
 26 22  1  0
M  END
$$$$
