ENE.pdb
     RDKit          3D

 27 26  0  0  1  0  0  0  0  0999 V2000
   11.2091  -15.6784   18.4212 N   0  0  0  0  0  0  0  0  0  0  0  0
   12.2683  -15.5544   19.3742 C   0  0  1  0  0  0  0  0  0  0  0  0
   13.2047  -14.4390   18.9946 C   0  0  0  0  0  0  0  0  0  0  0  0
   13.7805  -14.5145   17.6280 C   0  0  0  0  0  0  0  0  0  0  0  0
   14.6850  -15.6755   17.5043 C   0  0  0  0  0  0  0  0  0  0  0  0
   14.6241  -16.4815   16.5485 O   0  0  0  0  0  0  0  0  0  0  0  0
   11.6397  -15.1647   20.7145 C   0  0  0  0  0  0  0  0  0  0  0  0
   12.3516  -14.7480   21.6316 O   0  0  0  0  0  0  0  0  0  0  0  0
   15.6366  -15.8614   18.5015 O   0  0  0  0  0  0  0  0  0  0  0  0
    7.6483  -13.6758   19.5297 N   0  0  0  0  0  0  0  0  0  0  0  0
    7.6883  -13.6206   20.9524 C   0  0  0  0  0  0  0  0  0  0  0  0
    7.4938  -12.4934   21.4928 O   0  0  0  0  0  0  0  0  0  0  0  0
    7.9510  -14.8391   21.7513 C   0  0  0  0  0  0  0  0  0  0  0  0
    9.4465  -15.0601   22.0144 C   0  0  2  0  0  0  0  0  0  0  0  0
   10.2505  -15.2909   20.8743 N   0  0  0  0  0  0  0  0  0  0  0  0
    9.6103  -16.0149   23.1118 C   0  0  0  0  0  0  0  0  0  0  0  0
    8.9297  -17.0596   23.2169 O   0  0  0  0  0  0  0  0  0  0  0  0
   10.5792  -15.8191   24.1575 N   0  0  0  0  0  0  0  0  0  0  0  0
   10.3469  -16.2818   25.5395 C   0  0  1  0  0  0  0  0  0  0  0  0
    9.8533  -15.1610   26.3686 C   0  0  0  0  0  0  0  0  0  0  0  0
    9.4853  -15.5218   27.7618 C   0  0  0  0  0  0  0  0  0  0  0  0
    9.7014  -14.4417   28.7595 C   0  0  0  0  0  0  0  0  0  0  0  0
    9.3204  -13.2750   28.4296 O   0  0  0  0  0  0  0  0  0  0  0  0
    9.6176  -17.5225   25.5031 C   0  0  0  0  0  0  0  0  0  0  0  0
    9.2446  -18.0805   26.5924 O   0  0  0  0  0  0  0  0  0  0  0  0
   10.2731  -14.6069   29.9942 O   0  0  0  0  0  0  0  0  0  0  0  0
    9.2306  -18.2385   24.3524 O   0  0  0  0  0  0  0  0  0  0  0  0
  2  1  1  6
  2  3  1  0
  3  4  1  0
  5  4  1  0
  5  9  1  0
  6  5  2  0
  7  2  1  0
  7  8  2  0
 10 11  1  0
 11 13  1  0
 12 11  2  0
 14 13  1  6
 14 15  1  0
 15  7  1  0
 16 14  1  0
 17 16  2  0
 18 16  1  0
 19 18  1  0
 19 24  1  0
 19 20  1  1
 21 22  1  0
 21 20  1  0
 22 23  2  0
 24 27  1  0
 25 24  2  0
 26 22  1  0
M  END
$$$$
