ENE.pdb
     RDKit          3D

 27 26  0  0  1  0  0  0  0  0999 V2000
    7.5917  -16.7524   20.7477 N   0  0  0  0  0  0  0  0  0  0  0  0
    8.2368  -15.4785   20.6656 C   0  0  1  0  0  0  0  0  0  0  0  0
    7.2854  -14.4259   20.1640 C   0  0  0  0  0  0  0  0  0  0  0  0
    7.9007  -13.1347   19.7652 C   0  0  0  0  0  0  0  0  0  0  0  0
    8.2753  -13.1522   18.3366 C   0  0  0  0  0  0  0  0  0  0  0  0
    7.9404  -14.0757   17.5609 O   0  0  0  0  0  0  0  0  0  0  0  0
    8.6351  -15.0709   22.0864 C   0  0  0  0  0  0  0  0  0  0  0  0
    9.1999  -13.9921   22.2830 O   0  0  0  0  0  0  0  0  0  0  0  0
    9.0305  -12.0884   17.8544 O   0  0  0  0  0  0  0  0  0  0  0  0
    6.2214  -16.8029   23.7389 N   0  0  0  0  0  0  0  0  0  0  0  0
    6.3448  -16.2539   25.0474 C   0  0  0  0  0  0  0  0  0  0  0  0
    5.2958  -16.1997   25.7527 O   0  0  0  0  0  0  0  0  0  0  0  0
    7.6515  -15.7683   25.5458 C   0  0  0  0  0  0  0  0  0  0  0  0
    8.7655  -15.8945   24.4980 C   0  0  2  0  0  0  0  0  0  0  0  0
    8.3464  -15.9429   23.1484 N   0  0  0  0  0  0  0  0  0  0  0  0
    9.7035  -16.9399   24.9104 C   0  0  0  0  0  0  0  0  0  0  0  0
    9.4001  -18.1531   24.9531 O   0  0  0  0  0  0  0  0  0  0  0  0
   11.0575  -16.6433   25.2969 N   0  0  0  0  0  0  0  0  0  0  0  0
   11.9751  -17.6827   25.8024 C   0  0  1  0  0  0  0  0  0  0  0  0
   13.3508  -17.4104   25.3327 C   0  0  0  0  0  0  0  0  0  0  0  0
   13.4597  -16.9833   23.9141 C   0  0  0  0  0  0  0  0  0  0  0  0
   14.8031  -16.4863   23.5178 C   0  0  0  0  0  0  0  0  0  0  0  0
   15.6239  -17.3499   23.0758 O   0  0  0  0  0  0  0  0  0  0  0  0
   11.7238  -17.8896   27.2047 C   0  0  0  0  0  0  0  0  0  0  0  0
   12.3339  -18.8202   27.8362 O   0  0  0  0  0  0  0  0  0  0  0  0
   15.2184  -15.1822   23.5914 O   0  0  0  0  0  0  0  0  0  0  0  0
   10.8468  -17.1478   28.0216 O   0  0  0  0  0  0  0  0  0  0  0  0
  2  1  1  1
  2  3  1  0
  3  4  1  0
  5  4  1  0
  5  9  1  0
  6  5  2  0
  7  2  1  0
  7  8  2  0
 10 11  1  0
 11 13  1  0
 12 11  2  0
 14 13  1  1
 14 15  1  0
 15  7  1  0
 16 14  1  0
 17 16  2  0
 18 16  1  0
 19 18  1  0
 19 24  1  0
 19 20  1  1
 21 22  1  0
 21 20  1  0
 22 23  2  0
 24 27  1  0
 25 24  2  0
 26 22  1  0
M  END
$$$$
