ENE.pdb
     RDKit          3D

 27 26  0  0  1  0  0  0  0  0999 V2000
   10.5007  -15.7912   14.0473 N   0  0  0  0  0  0  0  0  0  0  0  0
    9.8267  -16.3021   15.2006 C   0  0  1  0  0  0  0  0  0  0  0  0
   10.3887  -17.6390   15.6030 C   0  0  0  0  0  0  0  0  0  0  0  0
   11.8301  -17.6541   15.9594 C   0  0  0  0  0  0  0  0  0  0  0  0
   12.2767  -19.0257   16.2769 C   0  0  0  0  0  0  0  0  0  0  0  0
   11.4788  -19.9501   16.5517 O   0  0  0  0  0  0  0  0  0  0  0  0
   10.1032  -15.3412   16.3598 C   0  0  0  0  0  0  0  0  0  0  0  0
   11.1240  -14.6487   16.3568 O   0  0  0  0  0  0  0  0  0  0  0  0
   13.6443  -19.2785   16.2632 O   0  0  0  0  0  0  0  0  0  0  0  0
    8.1793  -11.6573   19.7169 N   0  0  0  0  0  0  0  0  0  0  0  0
    7.6050  -12.9382   19.9582 C   0  0  0  0  0  0  0  0  0  0  0  0
    7.0737  -13.1293   21.0903 O   0  0  0  0  0  0  0  0  0  0  0  0
    7.6391  -13.9923   18.9192 C   0  0  0  0  0  0  0  0  0  0  0  0
    9.0651  -14.3127   18.4516 C   0  0  2  0  0  0  0  0  0  0  0  0
    9.1792  -15.2670   17.4144 N   0  0  0  0  0  0  0  0  0  0  0  0
    9.9198  -14.5369   19.6188 C   0  0  0  0  0  0  0  0  0  0  0  0
   10.0604  -13.6965   20.5351 O   0  0  0  0  0  0  0  0  0  0  0  0
   10.6644  -15.7550   19.7986 N   0  0  0  0  0  0  0  0  0  0  0  0
   11.4628  -16.0150   21.0122 C   0  0  1  0  0  0  0  0  0  0  0  0
   12.7647  -15.3198   20.9158 C   0  0  0  0  0  0  0  0  0  0  0  0
   13.3791  -15.3167   19.5633 C   0  0  0  0  0  0  0  0  0  0  0  0
   14.7055  -14.6507   19.4867 C   0  0  0  0  0  0  0  0  0  0  0  0
   15.7091  -15.3312   19.8672 O   0  0  0  0  0  0  0  0  0  0  0  0
   10.6314  -15.8230   22.1716 C   0  0  0  0  0  0  0  0  0  0  0  0
    9.4386  -15.3790   22.0404 O   0  0  0  0  0  0  0  0  0  0  0  0
   14.9256  -13.3734   19.0410 O   0  0  0  0  0  0  0  0  0  0  0  0
   10.9807  -16.0864   23.5115 O   0  0  0  0  0  0  0  0  0  0  0  0
  2  1  1  6
  2  3  1  0
  3  4  1  0
  5  4  1  0
  5  9  1  0
  6  5  2  0
  7  2  1  0
  7  8  2  0
 10 11  1  0
 11 13  1  0
 12 11  2  0
 14 13  1  1
 14 15  1  0
 15  7  1  0
 16 14  1  0
 17 16  2  0
 18 16  1  0
 19 18  1  0
 19 24  1  0
 19 20  1  1
 21 22  1  0
 21 20  1  0
 22 23  2  0
 24 27  1  0
 25 24  2  0
 26 22  1  0
M  END
$$$$
