ENE.pdb
     RDKit          3D

 27 26  0  0  1  0  0  0  0  0999 V2000
    9.6575  -14.8906   13.6429 N   0  0  0  0  0  0  0  0  0  0  0  0
    8.6855  -15.3048   14.6068 C   0  0  1  0  0  0  0  0  0  0  0  0
    8.5227  -16.8009   14.5968 C   0  0  0  0  0  0  0  0  0  0  0  0
    9.7771  -17.5889   14.6979 C   0  0  0  0  0  0  0  0  0  0  0  0
    9.5036  -19.0316   14.5388 C   0  0  0  0  0  0  0  0  0  0  0  0
   10.2004  -19.9163   15.0850 O   0  0  0  0  0  0  0  0  0  0  0  0
    9.2197  -14.9292   15.9913 C   0  0  0  0  0  0  0  0  0  0  0  0
   10.4330  -14.9548   16.2120 O   0  0  0  0  0  0  0  0  0  0  0  0
    8.4217  -19.3997   13.7460 O   0  0  0  0  0  0  0  0  0  0  0  0
    7.9031  -11.9054   20.8567 N   0  0  0  0  0  0  0  0  0  0  0  0
    7.6433  -13.2572   20.4905 C   0  0  0  0  0  0  0  0  0  0  0  0
    7.7021  -14.1261   21.4081 O   0  0  0  0  0  0  0  0  0  0  0  0
    7.3226  -13.6151   19.0902 C   0  0  0  0  0  0  0  0  0  0  0  0
    8.5456  -14.1281   18.3183 C   0  0  2  0  0  0  0  0  0  0  0  0
    8.3077  -14.5593   16.9928 N   0  0  0  0  0  0  0  0  0  0  0  0
    9.2985  -15.0564   19.1635 C   0  0  0  0  0  0  0  0  0  0  0  0
    9.0625  -16.2844   19.2097 O   0  0  0  0  0  0  0  0  0  0  0  0
   10.3779  -14.6179   20.0080 N   0  0  0  0  0  0  0  0  0  0  0  0
   11.1681  -15.5596   20.8244 C   0  0  1  0  0  0  0  0  0  0  0  0
   12.5296  -15.6923   20.2622 C   0  0  0  0  0  0  0  0  0  0  0  0
   13.4294  -14.5366   20.5102 C   0  0  0  0  0  0  0  0  0  0  0  0
   14.7901  -14.6746   19.9287 C   0  0  0  0  0  0  0  0  0  0  0  0
   14.9214  -14.3658   18.7030 O   0  0  0  0  0  0  0  0  0  0  0  0
   10.9953  -15.2343   22.2161 C   0  0  0  0  0  0  0  0  0  0  0  0
   11.5670  -15.9408   23.1167 O   0  0  0  0  0  0  0  0  0  0  0  0
   15.9013  -15.1040   20.6067 O   0  0  0  0  0  0  0  0  0  0  0  0
   10.2401  -14.1678   22.7442 O   0  0  0  0  0  0  0  0  0  0  0  0
  2  1  1  6
  2  3  1  0
  3  4  1  0
  5  4  1  0
  5  9  1  0
  6  5  2  0
  7  2  1  0
  7  8  2  0
 10 11  1  0
 11 13  1  0
 12 11  2  0
 14 13  1  1
 14 15  1  0
 15  7  1  0
 16 14  1  0
 17 16  2  0
 18 16  1  0
 19 18  1  0
 19 24  1  0
 19 20  1  6
 21 22  1  0
 21 20  1  0
 22 23  2  0
 24 27  1  0
 25 24  2  0
 26 22  1  0
M  END
$$$$
