ENE.pdb
     RDKit          3D

 27 26  0  0  1  0  0  0  0  0999 V2000
   14.2484  -13.3722   18.1241 N   0  0  0  0  0  0  0  0  0  0  0  0
   13.2243  -14.3512   17.9282 C   0  0  1  0  0  0  0  0  0  0  0  0
   13.8208  -15.7011   17.6335 C   0  0  0  0  0  0  0  0  0  0  0  0
   15.2675  -15.8487   17.9339 C   0  0  0  0  0  0  0  0  0  0  0  0
   15.7614  -17.1696   17.4948 C   0  0  0  0  0  0  0  0  0  0  0  0
   16.7389  -17.3043   16.7246 O   0  0  0  0  0  0  0  0  0  0  0  0
   12.4576  -14.4868   19.2463 C   0  0  0  0  0  0  0  0  0  0  0  0
   13.0659  -14.4610   20.3190 O   0  0  0  0  0  0  0  0  0  0  0  0
   15.0990  -18.2967   17.9695 O   0  0  0  0  0  0  0  0  0  0  0  0
    8.1122  -13.3041   17.9118 N   0  0  0  0  0  0  0  0  0  0  0  0
    8.2866  -13.4632   19.3165 C   0  0  0  0  0  0  0  0  0  0  0  0
    8.1126  -12.4401   20.0400 O   0  0  0  0  0  0  0  0  0  0  0  0
    8.6593  -14.7761   19.8903 C   0  0  0  0  0  0  0  0  0  0  0  0
   10.1460  -14.8561   20.2617 C   0  0  2  0  0  0  0  0  0  0  0  0
   11.0625  -14.6397   19.2068 N   0  0  0  0  0  0  0  0  0  0  0  0
   10.3802  -16.0527   21.0718 C   0  0  0  0  0  0  0  0  0  0  0  0
   10.6656  -17.1670   20.5795 O   0  0  0  0  0  0  0  0  0  0  0  0
   10.3011  -16.0309   22.5085 N   0  0  0  0  0  0  0  0  0  0  0  0
   11.1834  -16.8564   23.3557 C   0  0  1  0  0  0  0  0  0  0  0  0
   12.5642  -16.8220   22.8268 C   0  0  0  0  0  0  0  0  0  0  0  0
   13.5444  -17.6560   23.5687 C   0  0  0  0  0  0  0  0  0  0  0  0
   14.9367  -17.5812   23.0542 C   0  0  0  0  0  0  0  0  0  0  0  0
   15.5323  -16.4655   23.1783 O   0  0  0  0  0  0  0  0  0  0  0  0
   10.9369  -16.5406   24.7384 C   0  0  0  0  0  0  0  0  0  0  0  0
   10.3319  -15.4577   25.0521 O   0  0  0  0  0  0  0  0  0  0  0  0
   15.6191  -18.6128   22.4636 O   0  0  0  0  0  0  0  0  0  0  0  0
   11.2892  -17.3230   25.8567 O   0  0  0  0  0  0  0  0  0  0  0  0
  2  1  1  1
  2  3  1  0
  3  4  1  0
  5  4  1  0
  5  9  1  0
  6  5  2  0
  7  2  1  0
  7  8  2  0
 10 11  1  0
 11 13  1  0
 12 11  2  0
 14 13  1  6
 14 15  1  0
 15  7  1  0
 16 14  1  0
 17 16  2  0
 18 16  1  0
 19 18  1  0
 19 24  1  0
 19 20  1  6
 21 22  1  0
 21 20  1  0
 22 23  2  0
 24 27  1  0
 25 24  2  0
 26 22  1  0
M  END
$$$$
