ENE.pdb
     RDKit          3D

 27 26  0  0  1  0  0  0  0  0999 V2000
   13.9315  -13.9879   18.8609 N   0  0  0  0  0  0  0  0  0  0  0  0
   12.5749  -14.4359   18.9286 C   0  0  1  0  0  0  0  0  0  0  0  0
   12.3620  -15.6390   18.0499 C   0  0  0  0  0  0  0  0  0  0  0  0
   13.1635  -16.8409   18.3932 C   0  0  0  0  0  0  0  0  0  0  0  0
   12.8943  -17.9389   17.4427 C   0  0  0  0  0  0  0  0  0  0  0  0
   12.9062  -17.7772   16.2015 O   0  0  0  0  0  0  0  0  0  0  0  0
   12.3099  -14.8886   20.3668 C   0  0  0  0  0  0  0  0  0  0  0  0
   13.2515  -15.2119   21.0949 O   0  0  0  0  0  0  0  0  0  0  0  0
   12.6196  -19.1962   17.9701 O   0  0  0  0  0  0  0  0  0  0  0  0
    9.5377  -15.7823   24.7050 N   0  0  0  0  0  0  0  0  0  0  0  0
    8.7536  -14.9123   23.8945 C   0  0  0  0  0  0  0  0  0  0  0  0
    7.7264  -14.3981   24.4245 O   0  0  0  0  0  0  0  0  0  0  0  0
    9.1357  -14.6337   22.4915 C   0  0  0  0  0  0  0  0  0  0  0  0
   10.4872  -15.2549   22.1146 C   0  0  2  0  0  0  0  0  0  0  0  0
   10.9859  -14.9269   20.8327 N   0  0  0  0  0  0  0  0  0  0  0  0
   10.4756  -16.6806   22.4466 C   0  0  0  0  0  0  0  0  0  0  0  0
   10.1907  -17.5736   21.6177 O   0  0  0  0  0  0  0  0  0  0  0  0
   10.7980  -17.1615   23.7639 N   0  0  0  0  0  0  0  0  0  0  0  0
   11.7510  -18.2666   23.9846 C   0  0  1  0  0  0  0  0  0  0  0  0
   12.9553  -18.0660   23.1498 C   0  0  0  0  0  0  0  0  0  0  0  0
   13.9917  -19.1229   23.2741 C   0  0  0  0  0  0  0  0  0  0  0  0
   15.2127  -18.8926   22.4588 C   0  0  0  0  0  0  0  0  0  0  0  0
   16.3091  -18.7801   23.0915 O   0  0  0  0  0  0  0  0  0  0  0  0
   11.8887  -18.4926   25.3996 C   0  0  0  0  0  0  0  0  0  0  0  0
   11.7458  -19.6703   25.8789 O   0  0  0  0  0  0  0  0  0  0  0  0
   15.2454  -18.7942   21.0921 O   0  0  0  0  0  0  0  0  0  0  0  0
   12.1883  -17.5269   26.3816 O   0  0  0  0  0  0  0  0  0  0  0  0
  2  1  1  1
  2  3  1  0
  3  4  1  0
  5  4  1  0
  5  9  1  0
  6  5  2  0
  7  2  1  0
  7  8  2  0
 10 11  1  0
 11 13  1  0
 12 11  2  0
 14 13  1  6
 14 15  1  0
 15  7  1  0
 16 14  1  0
 17 16  2  0
 18 16  1  0
 19 18  1  0
 19 24  1  0
 19 20  1  1
 21 22  1  0
 21 20  1  0
 22 23  2  0
 24 27  1  0
 25 24  2  0
 26 22  1  0
M  END
$$$$
