ENE.pdb
     RDKit          3D

 27 26  0  0  1  0  0  0  0  0999 V2000
   10.8459  -16.8357   19.1026 N   0  0  0  0  0  0  0  0  0  0  0  0
   10.7341  -17.8646   20.0897 C   0  0  1  0  0  0  0  0  0  0  0  0
   11.7767  -18.9289   19.8768 C   0  0  0  0  0  0  0  0  0  0  0  0
   11.7145  -19.6448   18.5775 C   0  0  0  0  0  0  0  0  0  0  0  0
   12.7358  -20.7101   18.5171 C   0  0  0  0  0  0  0  0  0  0  0  0
   12.9555  -21.3785   17.4819 O   0  0  0  0  0  0  0  0  0  0  0  0
   11.0244  -17.2301   21.4523 C   0  0  0  0  0  0  0  0  0  0  0  0
   12.1047  -16.6700   21.6542 O   0  0  0  0  0  0  0  0  0  0  0  0
   13.4729  -20.9635   19.6691 O   0  0  0  0  0  0  0  0  0  0  0  0
    8.0129  -14.7586   26.2289 N   0  0  0  0  0  0  0  0  0  0  0  0
    9.1428  -15.2690   25.5277 C   0  0  0  0  0  0  0  0  0  0  0  0
   10.2481  -15.2802   26.1430 O   0  0  0  0  0  0  0  0  0  0  0  0
    9.0139  -15.7591   24.1366 C   0  0  0  0  0  0  0  0  0  0  0  0
   10.0724  -16.8121   23.7825 C   0  0  2  0  0  0  0  0  0  0  0  0
   10.0444  -17.2994   22.4554 N   0  0  0  0  0  0  0  0  0  0  0  0
   10.1142  -17.8306   24.8331 C   0  0  0  0  0  0  0  0  0  0  0  0
    9.1597  -18.6025   25.0758 O   0  0  0  0  0  0  0  0  0  0  0  0
   11.2704  -18.0207   25.6683 N   0  0  0  0  0  0  0  0  0  0  0  0
   11.3169  -19.0537   26.7212 C   0  0  1  0  0  0  0  0  0  0  0  0
   12.5835  -19.8115   26.6264 C   0  0  0  0  0  0  0  0  0  0  0  0
   12.8912  -20.3592   25.2803 C   0  0  0  0  0  0  0  0  0  0  0  0
   14.1255  -21.1843   25.2142 C   0  0  0  0  0  0  0  0  0  0  0  0
   13.9676  -22.4398   25.0971 O   0  0  0  0  0  0  0  0  0  0  0  0
   10.9257  -18.4645   27.9751 C   0  0  0  0  0  0  0  0  0  0  0  0
   10.7951  -17.1956   28.0756 O   0  0  0  0  0  0  0  0  0  0  0  0
   15.4063  -20.6991   25.2687 O   0  0  0  0  0  0  0  0  0  0  0  0
   10.6421  -19.1479   29.1747 O   0  0  0  0  0  0  0  0  0  0  0  0
  2  1  1  6
  2  3  1  0
  3  4  1  0
  5  4  1  0
  5  9  1  0
  6  5  2  0
  7  2  1  0
  7  8  2  0
 10 11  1  0
 11 13  1  0
 12 11  2  0
 14 13  1  1
 14 15  1  0
 15  7  1  0
 16 14  1  0
 17 16  2  0
 18 16  1  0
 19 18  1  0
 19 24  1  0
 19 20  1  1
 21 22  1  0
 21 20  1  0
 22 23  2  0
 24 27  1  0
 25 24  2  0
 26 22  1  0
M  END
$$$$
