RHV.pdb
     RDKit          3D

 29 29  0  0  1  0  0  0  0  0999 V2000
    7.8827  -13.2937   15.6920 N   0  0  0  0  0  0  0  0  0  0  0  0
    8.8272  -14.3273   15.9263 C   0  0  0  0  0  0  0  0  0  0  0  0
    9.1245  -15.1219   14.9653 N   0  0  0  0  0  0  0  0  0  0  0  0
    9.4160  -14.4579   17.2072 N   0  0  0  0  0  0  0  0  0  0  0  0
    8.9843  -13.6789   18.3148 C   0  0  0  0  0  0  0  0  0  0  0  0
    7.5677  -13.7709   18.7271 C   0  0  0  0  0  0  0  0  0  0  0  0
    7.2875  -14.2312   20.1093 C   0  0  0  0  0  0  0  0  0  0  0  0
    7.3224  -15.7194   20.3128 C   0  0  2  0  0  0  0  0  0  0  0  0
    6.1519  -16.3265   19.6774 N   0  0  0  0  0  0  0  0  0  0  0  0
    7.3139  -16.0458   21.7812 C   0  0  0  0  0  0  0  0  0  0  0  0
    6.2128  -16.1158   22.3709 O   0  0  0  0  0  0  0  0  0  0  0  0
    9.7526  -15.9291   15.0034 N   0  0  0  0  0  0  0  0  0  0  0  0
    8.5622  -16.2657   22.4565 C   0  0  1  0  0  0  0  0  0  0  0  0
    8.5998  -16.6011   23.8650 C   0  0  0  0  0  0  0  0  0  0  0  0
    9.5657  -17.6681   24.2167 C   0  0  0  0  0  0  0  0  0  0  0  0
    9.6897  -17.9643   25.6521 C   0  0  0  0  0  0  0  0  0  0  0  0
    9.0333  -17.4208   26.7231 N   0  0  0  0  0  0  0  0  0  0  0  0
    9.5147  -18.0299   27.8318 C   0  0  0  0  0  0  0  0  0  0  0  0
   10.4381  -18.9189   27.4457 N   0  0  0  0  0  0  0  0  0  0  0  0
   10.5610  -18.8943   26.1095 C   0  0  0  0  0  0  0  0  0  0  0  0
    8.8498  -15.3780   24.6869 O   0  0  0  0  0  0  0  0  0  0  0  0
    9.8850  -14.7095   24.4580 C   0  0  0  0  0  0  0  0  0  0  0  0
    5.7332  -13.6106   27.0797 C   0  0  2  0  0  0  0  0  0  0  0  0
    6.9058  -12.9661   26.3836 C   0  0  0  0  0  0  0  0  0  0  0  0
    7.2038  -11.6582   27.0959 C   0  0  1  0  0  0  0  0  0  0  0  0
    8.1494  -13.7945   26.4312 N   0  0  0  0  0  0  0  0  0  0  0  0
    7.9139  -15.0160   25.6916 C   0  0  0  0  0  0  0  0  0  0  0  0
    8.6308  -14.1280   27.7712 O   0  0  0  0  0  0  0  0  0  0  0  0
    8.5465  -15.2721   28.2928 O   0  0  0  0  0  0  0  0  0  0  0  0
  1  2  1  0
  2  3  2  0
  4  5  1  0
  4  2  1  0
  6  5  1  0
  7  6  1  0
  8 10  1  0
  8  7  1  0
  8  9  1  6
 10 11  2  0
 12 13  1  0
 12 10  1  0
 13 14  1  6
 14 15  1  0
 15 16  2  0
 16 17  1  0
 18 17  1  0
 19 15  1  0
 19 18  2  0
 20 13  1  0
 21 20  2  0
 23 22  1  6
 23 24  1  0
 23 25  1  0
 25 27  1  0
 25 26  1  6
 26 20  1  0
 27 29  1  0
 28 27  2  0
M  END
$$$$
