RHV.pdb
     RDKit          3D

 29 29  0  0  1  0  0  0  0  0999 V2000
    7.9380  -14.8246   15.6666 N   0  0  0  0  0  0  0  0  0  0  0  0
    8.0849  -13.8688   16.7060 C   0  0  0  0  0  0  0  0  0  0  0  0
    7.8984  -12.6294   16.4365 N   0  0  0  0  0  0  0  0  0  0  0  0
    8.4323  -14.3014   18.0085 N   0  0  0  0  0  0  0  0  0  0  0  0
    9.7626  -14.6703   18.3471 C   0  0  0  0  0  0  0  0  0  0  0  0
   10.0648  -16.1043   18.5404 C   0  0  0  0  0  0  0  0  0  0  0  0
   10.8630  -16.4790   19.7335 C   0  0  0  0  0  0  0  0  0  0  0  0
   10.1211  -17.2472   20.7902 C   0  0  2  0  0  0  0  0  0  0  0  0
    8.9562  -17.9007   20.1913 N   0  0  0  0  0  0  0  0  0  0  0  0
    9.6620  -16.3213   21.8832 C   0  0  0  0  0  0  0  0  0  0  0  0
    9.5266  -15.1061   21.6185 O   0  0  0  0  0  0  0  0  0  0  0  0
    7.9660  -11.8397   17.0841 N   0  0  0  0  0  0  0  0  0  0  0  0
    9.3948  -16.8575   23.1884 C   0  0  1  0  0  0  0  0  0  0  0  0
    9.0393  -15.9907   24.2930 C   0  0  0  0  0  0  0  0  0  0  0  0
    7.6210  -16.0799   24.7119 C   0  0  0  0  0  0  0  0  0  0  0  0
    7.0629  -14.8656   25.3264 C   0  0  0  0  0  0  0  0  0  0  0  0
    7.6529  -13.6573   25.5817 N   0  0  0  0  0  0  0  0  0  0  0  0
    6.7154  -12.8761   26.1671 C   0  0  0  0  0  0  0  0  0  0  0  0
    5.5869  -13.5896   26.2652 N   0  0  0  0  0  0  0  0  0  0  0  0
    5.7793  -14.8155   25.7541 C   0  0  0  0  0  0  0  0  0  0  0  0
    9.9445  -16.2307   25.4579 O   0  0  0  0  0  0  0  0  0  0  0  0
   10.6368  -17.2755   25.4672 C   0  0  0  0  0  0  0  0  0  0  0  0
   11.4574  -13.1655   27.6613 C   0  0  2  0  0  0  0  0  0  0  0  0
   10.9590  -14.3335   28.4751 C   0  0  0  0  0  0  0  0  0  0  0  0
    9.5944  -13.9618   29.0286 C   0  0  2  0  0  0  0  0  0  0  0  0
   10.7907  -15.5837   27.6728 N   0  0  0  0  0  0  0  0  0  0  0  0
    9.9907  -15.2749   26.5070 C   0  0  0  0  0  0  0  0  0  0  0  0
   10.1892  -16.7105   28.3850 O   0  0  0  0  0  0  0  0  0  0  0  0
    8.9967  -17.0903   28.2371 O   0  0  0  0  0  0  0  0  0  0  0  0
  1  2  1  0
  2  3  2  0
  4  5  1  0
  4  2  1  0
  6  5  1  0
  7  6  1  0
  8 10  1  0
  8  7  1  0
  8  9  1  6
 10 11  2  0
 12 13  1  0
 12 10  1  0
 13 14  1  1
 14 15  1  0
 15 16  2  0
 16 17  1  0
 18 17  1  0
 19 15  1  0
 19 18  2  0
 20 13  1  0
 21 20  2  0
 23 22  1  1
 23 24  1  0
 23 25  1  0
 25 27  1  0
 25 26  1  1
 26 20  1  0
 27 29  1  0
 28 27  2  0
M  END
$$$$
