RHV.pdb
     RDKit          3D

 29 29  0  0  1  0  0  0  0  0999 V2000
    7.6625  -12.3212   16.6193 N   0  0  0  0  0  0  0  0  0  0  0  0
    7.5787  -13.6340   16.0854 C   0  0  0  0  0  0  0  0  0  0  0  0
    7.9406  -13.8315   14.8716 N   0  0  0  0  0  0  0  0  0  0  0  0
    7.1003  -14.6894   16.8989 N   0  0  0  0  0  0  0  0  0  0  0  0
    7.0093  -14.5661   18.3119 C   0  0  0  0  0  0  0  0  0  0  0  0
    8.1106  -15.1084   19.1353 C   0  0  0  0  0  0  0  0  0  0  0  0
    7.9538  -15.0495   20.6094 C   0  0  0  0  0  0  0  0  0  0  0  0
    9.0965  -15.6174   21.4025 C   0  0  2  0  0  0  0  0  0  0  0  0
    9.4829  -16.9134   20.8426 N   0  0  0  0  0  0  0  0  0  0  0  0
    8.6944  -15.7992   22.8405 C   0  0  0  0  0  0  0  0  0  0  0  0
    8.1017  -14.8608   23.4180 O   0  0  0  0  0  0  0  0  0  0  0  0
    7.9846  -14.7272   14.3783 N   0  0  0  0  0  0  0  0  0  0  0  0
    9.0012  -17.0365   23.5020 C   0  0  1  0  0  0  0  0  0  0  0  0
    8.5428  -17.2952   24.8513 C   0  0  0  0  0  0  0  0  0  0  0  0
    8.2450  -18.7182   25.1367 C   0  0  0  0  0  0  0  0  0  0  0  0
    7.1383  -19.3026   24.3640 C   0  0  0  0  0  0  0  0  0  0  0  0
    6.1862  -18.6941   23.5916 N   0  0  0  0  0  0  0  0  0  0  0  0
    5.3903  -19.6731   23.1017 C   0  0  0  0  0  0  0  0  0  0  0  0
    5.8457  -20.8443   23.5634 N   0  0  0  0  0  0  0  0  0  0  0  0
    6.9197  -20.6386   24.3414 C   0  0  0  0  0  0  0  0  0  0  0  0
    9.5180  -16.7553   25.8471 O   0  0  0  0  0  0  0  0  0  0  0  0
   10.7420  -16.8894   25.6130 C   0  0  0  0  0  0  0  0  0  0  0  0
   10.4926  -13.5669   29.3569 C   0  0  2  0  0  0  0  0  0  0  0  0
    9.5669  -14.2130   28.3568 C   0  0  0  0  0  0  0  0  0  0  0  0
    9.5680  -13.3537   27.1044 C   0  0  1  0  0  0  0  0  0  0  0  0
    9.9966  -15.5877   27.9561 N   0  0  0  0  0  0  0  0  0  0  0  0
    9.0301  -16.1131   27.0157 C   0  0  0  0  0  0  0  0  0  0  0  0
   10.1655  -16.5380   29.0548 O   0  0  0  0  0  0  0  0  0  0  0  0
    9.3099  -17.4023   29.3852 O   0  0  0  0  0  0  0  0  0  0  0  0
  1  2  1  0
  2  3  2  0
  4  5  1  0
  4  2  1  0
  6  5  1  0
  7  6  1  0
  8 10  1  0
  8  7  1  0
  8  9  1  6
 10 11  2  0
 12 13  1  0
 12 10  1  0
 13 14  1  1
 14 15  1  0
 15 16  2  0
 16 17  1  0
 18 17  1  0
 19 15  1  0
 19 18  2  0
 20 13  1  0
 21 20  2  0
 23 22  1  1
 23 24  1  0
 23 25  1  0
 25 27  1  0
 25 26  1  1
 26 20  1  0
 27 29  1  0
 28 27  2  0
M  END
$$$$
