RHV.pdb
     RDKit          3D

 29 29  0  0  1  0  0  0  0  0999 V2000
   10.1415  -13.3479   19.6490 N   0  0  0  0  0  0  0  0  0  0  0  0
    8.9749  -13.3445   18.8402 C   0  0  0  0  0  0  0  0  0  0  0  0
    9.0875  -13.6159   17.5923 N   0  0  0  0  0  0  0  0  0  0  0  0
    7.7210  -13.0432   19.4244 N   0  0  0  0  0  0  0  0  0  0  0  0
    7.0495  -13.9617   20.2763 C   0  0  0  0  0  0  0  0  0  0  0  0
    6.8859  -15.3560   19.8138 C   0  0  0  0  0  0  0  0  0  0  0  0
    7.6585  -16.4056   20.5227 C   0  0  0  0  0  0  0  0  0  0  0  0
    6.8405  -17.5144   21.1215 C   0  0  2  0  0  0  0  0  0  0  0  0
    5.5475  -17.5903   20.4396 N   0  0  0  0  0  0  0  0  0  0  0  0
    6.6134  -17.2628   22.5871 C   0  0  0  0  0  0  0  0  0  0  0  0
    5.4852  -16.8686   22.9574 O   0  0  0  0  0  0  0  0  0  0  0  0
    8.3654  -13.5243   16.8729 N   0  0  0  0  0  0  0  0  0  0  0  0
    7.6917  -17.4816   23.5101 C   0  0  2  0  0  0  0  0  0  0  0  0
    7.5278  -17.2190   24.9250 C   0  0  0  0  0  0  0  0  0  0  0  0
    7.9625  -18.3255   25.8094 C   0  0  0  0  0  0  0  0  0  0  0  0
    7.1693  -19.5607   25.7176 C   0  0  0  0  0  0  0  0  0  0  0  0
    6.0456  -19.8329   24.9852 N   0  0  0  0  0  0  0  0  0  0  0  0
    5.6972  -21.1122   25.2575 C   0  0  0  0  0  0  0  0  0  0  0  0
    6.5843  -21.6040   26.1311 N   0  0  0  0  0  0  0  0  0  0  0  0
    7.4976  -20.6662   26.4270 C   0  0  0  0  0  0  0  0  0  0  0  0
    8.2148  -15.9467   25.3034 O   0  0  0  0  0  0  0  0  0  0  0  0
    9.3281  -15.6956   24.7854 C   0  0  0  0  0  0  0  0  0  0  0  0
    6.7115  -12.5172   25.2745 C   0  0  2  0  0  0  0  0  0  0  0  0
    7.3678  -12.7260   26.6163 C   0  0  0  0  0  0  0  0  0  0  0  0
    6.2710  -13.0130   27.6271 C   0  0  2  0  0  0  0  0  0  0  0  0
    8.3111  -13.8857   26.6388 N   0  0  0  0  0  0  0  0  0  0  0  0
    7.5887  -15.0709   26.2293 C   0  0  0  0  0  0  0  0  0  0  0  0
    8.9641  -14.1390   27.9225 O   0  0  0  0  0  0  0  0  0  0  0  0
    8.7186  -15.1295   28.6619 O   0  0  0  0  0  0  0  0  0  0  0  0
  1  2  1  0
  2  3  2  0
  4  5  1  0
  4  2  1  0
  6  5  1  0
  7  6  1  0
  8 10  1  0
  8  7  1  0
  8  9  1  6
 10 11  2  0
 12 13  1  0
 12 10  1  0
 13 14  1  6
 14 15  1  0
 15 16  2  0
 16 17  1  0
 18 17  1  0
 19 15  1  0
 19 18  2  0
 20 13  1  0
 21 20  2  0
 23 22  1  1
 23 24  1  0
 23 25  1  0
 25 27  1  0
 25 26  1  1
 26 20  1  0
 27 29  1  0
 28 27  2  0
M  END
$$$$
