RHV.pdb
     RDKit          3D

 29 29  0  0  1  0  0  0  0  0999 V2000
    8.5366  -13.3774   15.3681 N   0  0  0  0  0  0  0  0  0  0  0  0
    8.9490  -14.5638   16.0298 C   0  0  0  0  0  0  0  0  0  0  0  0
    9.2088  -15.6044   15.3275 N   0  0  0  0  0  0  0  0  0  0  0  0
    9.0633  -14.5726   17.4409 N   0  0  0  0  0  0  0  0  0  0  0  0
    8.4807  -13.5577   18.2476 C   0  0  0  0  0  0  0  0  0  0  0  0
    7.0501  -13.6772   18.6000 C   0  0  0  0  0  0  0  0  0  0  0  0
    6.7204  -14.2103   19.9446 C   0  0  0  0  0  0  0  0  0  0  0  0
    6.8851  -15.6947   20.1077 C   0  0  2  0  0  0  0  0  0  0  0  0
    5.8949  -16.3893   19.2834 N   0  0  0  0  0  0  0  0  0  0  0  0
    6.6932  -16.0861   21.5474 C   0  0  0  0  0  0  0  0  0  0  0  0
    5.5290  -16.1336   22.0031 O   0  0  0  0  0  0  0  0  0  0  0  0
    9.4860  -16.5278   15.6712 N   0  0  0  0  0  0  0  0  0  0  0  0
    7.8449  -16.3914   22.3493 C   0  0  1  0  0  0  0  0  0  0  0  0
    7.7094  -16.7363   23.7494 C   0  0  0  0  0  0  0  0  0  0  0  0
    8.2861  -18.0507   24.1168 C   0  0  0  0  0  0  0  0  0  0  0  0
    8.2480  -18.3827   25.5492 C   0  0  0  0  0  0  0  0  0  0  0  0
    7.2527  -18.1960   26.4700 N   0  0  0  0  0  0  0  0  0  0  0  0
    7.7161  -18.6638   27.6525 C   0  0  0  0  0  0  0  0  0  0  0  0
    8.9586  -19.1219   27.4563 N   0  0  0  0  0  0  0  0  0  0  0  0
    9.3047  -18.9583   26.1700 C   0  0  0  0  0  0  0  0  0  0  0  0
    8.2791  -15.6562   24.6112 O   0  0  0  0  0  0  0  0  0  0  0  0
    9.4068  -15.1946   24.3178 C   0  0  0  0  0  0  0  0  0  0  0  0
    7.6027  -12.1534   27.9309 C   0  0  2  0  0  0  0  0  0  0  0  0
    7.0844  -13.2339   27.0152 C   0  0  0  0  0  0  0  0  0  0  0  0
    6.5524  -12.5611   25.7618 C   0  0  1  0  0  0  0  0  0  0  0  0
    8.1395  -14.2035   26.5887 N   0  0  0  0  0  0  0  0  0  0  0  0
    7.5302  -15.1917   25.7246 C   0  0  0  0  0  0  0  0  0  0  0  0
    8.8442  -14.8827   27.6753 O   0  0  0  0  0  0  0  0  0  0  0  0
    8.4939  -15.9882   28.1685 O   0  0  0  0  0  0  0  0  0  0  0  0
  1  2  1  0
  2  3  2  0
  4  5  1  0
  4  2  1  0
  6  5  1  0
  7  6  1  0
  8 10  1  0
  8  7  1  0
  8  9  1  6
 10 11  2  0
 12 13  1  0
 12 10  1  0
 13 14  1  6
 14 15  1  0
 15 16  2  0
 16 17  1  0
 18 17  1  0
 19 15  1  0
 19 18  2  0
 20 13  1  0
 21 20  2  0
 23 22  1  1
 23 24  1  0
 23 25  1  0
 25 27  1  0
 25 26  1  1
 26 20  1  0
 27 29  1  0
 28 27  2  0
M  END
$$$$
