RHV.pdb
     RDKit          3D

 29 29  0  0  1  0  0  0  0  0999 V2000
    8.5692  -12.8183   17.0621 N   0  0  0  0  0  0  0  0  0  0  0  0
    8.9690  -12.6332   18.4116 C   0  0  0  0  0  0  0  0  0  0  0  0
    9.1291  -11.4393   18.8502 N   0  0  0  0  0  0  0  0  0  0  0  0
    9.1814  -13.7628   19.2382 N   0  0  0  0  0  0  0  0  0  0  0  0
    8.3487  -14.9124   19.1670 C   0  0  0  0  0  0  0  0  0  0  0  0
    6.9445  -14.7896   19.6124 C   0  0  0  0  0  0  0  0  0  0  0  0
    6.3991  -15.8790   20.4590 C   0  0  0  0  0  0  0  0  0  0  0  0
    7.3434  -17.0141   20.7363 C   0  0  2  0  0  0  0  0  0  0  0  0
    6.7878  -18.2550   20.1940 N   0  0  0  0  0  0  0  0  0  0  0  0
    7.5509  -17.1704   22.2180 C   0  0  0  0  0  0  0  0  0  0  0  0
    6.5755  -17.5078   22.9251 O   0  0  0  0  0  0  0  0  0  0  0  0
    9.4164  -11.1609   19.7923 N   0  0  0  0  0  0  0  0  0  0  0  0
    8.8540  -16.9292   22.7715 C   0  0  2  0  0  0  0  0  0  0  0  0
    9.0911  -17.0364   24.1963 C   0  0  0  0  0  0  0  0  0  0  0  0
   10.2251  -17.9154   24.5658 C   0  0  0  0  0  0  0  0  0  0  0  0
   10.0425  -19.3450   24.2715 C   0  0  0  0  0  0  0  0  0  0  0  0
    9.5518  -20.3504   25.0600 N   0  0  0  0  0  0  0  0  0  0  0  0
    9.5988  -21.4864   24.3257 C   0  0  0  0  0  0  0  0  0  0  0  0
   10.1040  -21.1804   23.1244 N   0  0  0  0  0  0  0  0  0  0  0  0
   10.3835  -19.8688   23.0705 C   0  0  0  0  0  0  0  0  0  0  0  0
    9.2623  -15.6804   24.8011 O   0  0  0  0  0  0  0  0  0  0  0  0
   10.2513  -14.9943   24.4518 C   0  0  0  0  0  0  0  0  0  0  0  0
    6.0494  -13.7979   26.8833 C   0  0  2  0  0  0  0  0  0  0  0  0
    7.2012  -13.1435   26.1625 C   0  0  0  0  0  0  0  0  0  0  0  0
    7.4090  -11.7695   26.7757 C   0  0  1  0  0  0  0  0  0  0  0  0
    8.4872  -13.8935   26.3000 N   0  0  0  0  0  0  0  0  0  0  0  0
    8.3065  -15.2171   25.7436 C   0  0  0  0  0  0  0  0  0  0  0  0
    9.0031  -14.0105   27.6634 O   0  0  0  0  0  0  0  0  0  0  0  0
    9.3645  -13.0339   28.3732 O   0  0  0  0  0  0  0  0  0  0  0  0
  1  2  1  0
  2  3  2  0
  4  5  1  0
  4  2  1  0
  6  5  1  0
  7  6  1  0
  8 10  1  0
  8  7  1  0
  8  9  1  1
 10 11  2  0
 12 13  1  0
 12 10  1  0
 13 14  1  6
 14 15  1  0
 15 16  2  0
 16 17  1  0
 18 17  1  0
 19 15  1  0
 19 18  2  0
 20 13  1  0
 21 20  2  0
 23 22  1  6
 23 24  1  0
 23 25  1  0
 25 27  1  0
 25 26  1  6
 26 20  1  0
 27 29  1  0
 28 27  2  0
M  END
$$$$
