RHV.pdb
     RDKit          3D

 29 29  0  0  1  0  0  0  0  0999 V2000
    9.5116  -13.4498   17.8707 N   0  0  0  0  0  0  0  0  0  0  0  0
    8.2488  -13.2107   18.4736 C   0  0  0  0  0  0  0  0  0  0  0  0
    7.7311  -12.0417   18.3802 N   0  0  0  0  0  0  0  0  0  0  0  0
    7.5930  -14.2607   19.1606 N   0  0  0  0  0  0  0  0  0  0  0  0
    6.7391  -14.0138   20.2697 C   0  0  0  0  0  0  0  0  0  0  0  0
    6.1794  -15.1736   20.9954 C   0  0  0  0  0  0  0  0  0  0  0  0
    6.5728  -16.5257   20.5285 C   0  0  0  0  0  0  0  0  0  0  0  0
    5.9132  -17.6715   21.2422 C   0  0  2  0  0  0  0  0  0  0  0  0
    4.4878  -17.6975   20.9105 N   0  0  0  0  0  0  0  0  0  0  0  0
    6.0727  -17.5208   22.7304 C   0  0  0  0  0  0  0  0  0  0  0  0
    5.1384  -17.0027   23.3815 O   0  0  0  0  0  0  0  0  0  0  0  0
    6.8865  -11.7013   18.8475 N   0  0  0  0  0  0  0  0  0  0  0  0
    7.2847  -17.9735   23.3538 C   0  0  2  0  0  0  0  0  0  0  0  0
    7.4706  -17.8705   24.7864 C   0  0  0  0  0  0  0  0  0  0  0  0
    8.2180  -18.9977   25.3915 C   0  0  0  0  0  0  0  0  0  0  0  0
    8.3823  -18.9394   26.8520 C   0  0  0  0  0  0  0  0  0  0  0  0
    7.8908  -18.0388   27.7579 N   0  0  0  0  0  0  0  0  0  0  0  0
    8.3359  -18.4224   28.9772 C   0  0  0  0  0  0  0  0  0  0  0  0
    9.0775  -19.5254   28.8171 N   0  0  0  0  0  0  0  0  0  0  0  0
    9.1187  -19.8599   27.5180 C   0  0  0  0  0  0  0  0  0  0  0  0
    8.1144  -16.5681   25.1376 O   0  0  0  0  0  0  0  0  0  0  0  0
    9.1581  -16.2375   24.5274 C   0  0  0  0  0  0  0  0  0  0  0  0
    7.6678  -12.1864   27.3050 C   0  0  2  0  0  0  0  0  0  0  0  0
    7.1131  -13.5300   26.9026 C   0  0  0  0  0  0  0  0  0  0  0  0
    6.1705  -13.3087   25.7324 C   0  0  1  0  0  0  0  0  0  0  0  0
    8.1649  -14.4930   26.4535 N   0  0  0  0  0  0  0  0  0  0  0  0
    7.5272  -15.7543   26.1421 C   0  0  0  0  0  0  0  0  0  0  0  0
    9.2515  -14.7244   27.4045 O   0  0  0  0  0  0  0  0  0  0  0  0
    9.2194  -15.5839   28.3255 O   0  0  0  0  0  0  0  0  0  0  0  0
  1  2  1  0
  2  3  2  0
  4  5  1  0
  4  2  1  0
  6  5  1  0
  7  6  1  0
  8 10  1  0
  8  7  1  0
  8  9  1  1
 10 11  2  0
 12 13  1  0
 12 10  1  0
 13 14  1  6
 14 15  1  0
 15 16  2  0
 16 17  1  0
 18 17  1  0
 19 15  1  0
 19 18  2  0
 20 13  1  0
 21 20  2  0
 23 22  1  1
 23 24  1  0
 23 25  1  0
 25 27  1  0
 25 26  1  1
 26 20  1  0
 27 29  1  0
 28 27  2  0
M  END
$$$$
