RHV.pdb
     RDKit          3D

 29 29  0  0  1  0  0  0  0  0999 V2000
    7.9248  -12.6232   17.7238 N   0  0  0  0  0  0  0  0  0  0  0  0
    8.9947  -12.9347   18.6034 C   0  0  0  0  0  0  0  0  0  0  0  0
   10.1147  -12.3295   18.4524 N   0  0  0  0  0  0  0  0  0  0  0  0
    8.8036  -13.9004   19.6208 N   0  0  0  0  0  0  0  0  0  0  0  0
    7.6092  -14.6651   19.7153 C   0  0  0  0  0  0  0  0  0  0  0  0
    7.4071  -15.5044   20.9152 C   0  0  0  0  0  0  0  0  0  0  0  0
    7.2046  -16.9589   20.7047 C   0  0  0  0  0  0  0  0  0  0  0  0
    8.2283  -17.8518   21.3466 C   0  0  2  0  0  0  0  0  0  0  0  0
    7.8852  -19.2513   21.0894 N   0  0  0  0  0  0  0  0  0  0  0  0
    8.2684  -17.6166   22.8318 C   0  0  0  0  0  0  0  0  0  0  0  0
    7.1998  -17.6946   23.4777 O   0  0  0  0  0  0  0  0  0  0  0  0
   10.9681  -12.4641   19.0012 N   0  0  0  0  0  0  0  0  0  0  0  0
    9.5242  -17.3118   23.4585 C   0  0  2  0  0  0  0  0  0  0  0  0
    9.6222  -17.1518   24.8946 C   0  0  0  0  0  0  0  0  0  0  0  0
   10.8836  -17.6580   25.4844 C   0  0  0  0  0  0  0  0  0  0  0  0
   11.0024  -17.5200   26.9440 C   0  0  0  0  0  0  0  0  0  0  0  0
   11.4835  -16.4809   27.6937 N   0  0  0  0  0  0  0  0  0  0  0  0
   11.3850  -16.8519   28.9916 C   0  0  0  0  0  0  0  0  0  0  0  0
   10.8588  -18.0822   29.0300 N   0  0  0  0  0  0  0  0  0  0  0  0
   10.6163  -18.5111   27.7817 C   0  0  0  0  0  0  0  0  0  0  0  0
    9.4021  -15.7239   25.2776 O   0  0  0  0  0  0  0  0  0  0  0  0
    9.9824  -14.8341   24.6126 C   0  0  0  0  0  0  0  0  0  0  0  0
    6.7751  -12.3426   27.5638 C   0  0  2  0  0  0  0  0  0  0  0  0
    7.0045  -13.6945   26.9358 C   0  0  0  0  0  0  0  0  0  0  0  0
    6.4128  -13.6604   25.5373 C   0  0  1  0  0  0  0  0  0  0  0  0
    8.4514  -14.0455   26.8006 N   0  0  0  0  0  0  0  0  0  0  0  0
    8.5496  -15.4246   26.3730 C   0  0  0  0  0  0  0  0  0  0  0  0
    9.2587  -13.8560   28.0052 O   0  0  0  0  0  0  0  0  0  0  0  0
    9.6297  -14.7892   28.7665 O   0  0  0  0  0  0  0  0  0  0  0  0
  1  2  1  0
  2  3  2  0
  4  5  1  0
  4  2  1  0
  6  5  1  0
  7  6  1  0
  8 10  1  0
  8  7  1  0
  8  9  1  1
 10 11  2  0
 12 13  1  0
 12 10  1  0
 13 14  1  6
 14 15  1  0
 15 16  2  0
 16 17  1  0
 18 17  1  0
 19 15  1  0
 19 18  2  0
 20 13  1  0
 21 20  2  0
 23 22  1  1
 23 24  1  0
 23 25  1  0
 25 27  1  0
 25 26  1  1
 26 20  1  0
 27 29  1  0
 28 27  2  0
M  END
$$$$
