RHV.pdb
     RDKit          3D

 29 29  0  0  1  0  0  0  0  0999 V2000
   14.4804  -18.5429   25.6071 N   0  0  0  0  0  0  0  0  0  0  0  0
   15.3176  -19.5133   24.9965 C   0  0  0  0  0  0  0  0  0  0  0  0
   16.3566  -19.9185   25.6287 N   0  0  0  0  0  0  0  0  0  0  0  0
   14.9900  -20.0089   23.7114 N   0  0  0  0  0  0  0  0  0  0  0  0
   13.9249  -19.4625   22.9451 C   0  0  0  0  0  0  0  0  0  0  0  0
   12.7522  -20.3176   22.6650 C   0  0  0  0  0  0  0  0  0  0  0  0
   11.4791  -19.9746   23.3451 C   0  0  0  0  0  0  0  0  0  0  0  0
   10.3976  -19.4331   22.4539 C   0  0  2  0  0  0  0  0  0  0  0  0
   10.6862  -19.7898   21.0640 N   0  0  0  0  0  0  0  0  0  0  0  0
   10.3221  -17.9356   22.5754 C   0  0  0  0  0  0  0  0  0  0  0  0
   11.1701  -17.2439   21.9692 O   0  0  0  0  0  0  0  0  0  0  0  0
   17.0619  -20.5818   25.2966 N   0  0  0  0  0  0  0  0  0  0  0  0
    9.2853  -17.3500   23.3784 C   0  0  1  0  0  0  0  0  0  0  0  0
    8.8041  -16.0097   23.1144 C   0  0  0  0  0  0  0  0  0  0  0  0
    8.1187  -15.8488   21.8108 C   0  0  0  0  0  0  0  0  0  0  0  0
    7.6789  -14.4826   21.4890 C   0  0  0  0  0  0  0  0  0  0  0  0
    6.4395  -13.9104   21.5882 N   0  0  0  0  0  0  0  0  0  0  0  0
    6.5594  -12.6322   21.1594 C   0  0  0  0  0  0  0  0  0  0  0  0
    7.8359  -12.4329   20.8090 N   0  0  0  0  0  0  0  0  0  0  0  0
    8.5410  -13.5581   21.0039 C   0  0  0  0  0  0  0  0  0  0  0  0
    7.9249  -15.5411   24.2286 O   0  0  0  0  0  0  0  0  0  0  0  0
    7.0193  -16.3073   24.6334 C   0  0  0  0  0  0  0  0  0  0  0  0
    9.4781  -12.9878   26.8994 C   0  0  2  0  0  0  0  0  0  0  0  0
    8.0198  -12.7260   26.6173 C   0  0  0  0  0  0  0  0  0  0  0  0
    7.9366  -11.5197   25.6982 C   0  0  2  0  0  0  0  0  0  0  0  0
    7.3384  -13.8628   25.9256 N   0  0  0  0  0  0  0  0  0  0  0  0
    8.1427  -14.2543   24.7879 C   0  0  0  0  0  0  0  0  0  0  0  0
    5.9708  -13.5979   25.4804 O   0  0  0  0  0  0  0  0  0  0  0  0
    5.6152  -13.5378   24.2729 O   0  0  0  0  0  0  0  0  0  0  0  0
  1  2  1  0
  2  3  2  0
  4  5  1  0
  4  2  1  0
  6  5  1  0
  7  6  1  0
  8 10  1  0
  8  7  1  0
  8  9  1  6
 10 11  2  0
 12 13  1  0
 12 10  1  0
 13 14  1  1
 14 15  1  0
 15 16  2  0
 16 17  1  0
 18 17  1  0
 19 15  1  0
 19 18  2  0
 20 13  1  0
 21 20  2  0
 23 22  1  1
 23 24  1  0
 23 25  1  0
 25 27  1  0
 25 26  1  1
 26 20  1  0
 27 29  1  0
 28 27  2  0
M  END
$$$$
