PLV.pdb
     RDKit          3D

 23 23  0  0  1  0  0  0  0  0999 V2000
   27.0992  -18.9114  -14.8471 N   0  0  0  0  0  0  0  0  0  0  0  0
   28.4583  -18.4860  -15.0654 C   0  0  0  0  0  0  0  0  0  0  0  0
   29.3264  -19.6999  -14.8851 C   0  0  0  0  0  0  0  0  0  0  0  0
   28.4093  -20.8913  -14.8375 C   0  0  0  0  0  0  0  0  0  0  0  0
   27.0568  -20.3041  -15.1428 C   0  0  1  0  0  0  0  0  0  0  0  0
   25.9865  -20.9395  -14.2875 C   0  0  0  0  0  0  0  0  0  0  0  0
   25.7366  -22.1396  -14.5109 O   0  0  0  0  0  0  0  0  0  0  0  0
   26.4369  -22.0728  -10.4196 C   0  0  0  0  0  0  0  0  0  0  0  0
   26.0118  -20.6439  -10.4647 C   0  0  2  0  0  0  0  0  0  0  0  0
   26.0841  -20.1282   -9.0123 C   0  0  0  0  0  0  0  0  0  0  0  0
   24.6709  -20.3954  -11.0413 C   0  0  0  0  0  0  0  0  0  0  0  0
   24.3260  -20.7327  -12.4251 C   0  0  2  0  0  0  0  0  0  0  0  0
   25.3415  -20.1819  -13.3133 N   0  0  0  0  0  0  0  0  0  0  0  0
   22.9821  -20.4454  -12.8889 C   0  0  0  0  0  0  0  0  0  0  0  0
   22.2964  -19.4285  -12.6267 O   0  0  0  0  0  0  0  0  0  0  0  0
   21.7676  -20.3539  -16.5651 C   0  0  0  0  0  0  0  0  0  0  0  0
   20.8665  -21.2337  -15.7659 C   0  0  1  0  0  0  0  0  0  0  0  0
   21.2158  -22.6756  -16.0515 C   0  0  0  0  0  0  0  0  0  0  0  0
   20.9639  -21.0329  -14.2719 C   0  0  2  0  0  0  0  0  0  0  0  0
   22.2644  -21.3745  -13.7557 N   0  0  0  0  0  0  0  0  0  0  0  0
   19.9650  -21.9108  -13.6301 C   0  0  0  0  0  0  0  0  0  0  0  0
   18.6203  -21.6417  -13.7329 O   0  0  0  0  0  0  0  0  0  0  0  0
   20.3484  -22.9078  -12.9876 O   0  0  0  0  0  0  0  0  0  0  0  0
  1  2  1  0
  3  2  1  0
  4  3  1  0
  5  4  1  0
  5  1  1  0
  5  6  1  1
  6  7  2  0
  9  8  1  1
  9 11  1  0
  9 10  1  0
 12 11  1  1
 12 14  1  0
 12 13  1  0
 13  6  1  0
 14 20  1  0
 15 14  2  0
 17 16  1  6
 17 19  1  0
 18 17  1  0
 19 21  1  0
 19 20  1  1
 21 23  2  0
 21 22  1  0
M  END
$$$$
