PLV.pdb
     RDKit          3D

 23 23  0  0  1  0  0  0  0  0999 V2000
   31.0121  -21.1492   -9.8113 N   0  0  0  0  0  0  0  0  0  0  0  0
   32.4210  -21.4326   -9.9120 C   0  0  0  0  0  0  0  0  0  0  0  0
   32.7004  -22.5777   -8.9790 C   0  0  0  0  0  0  0  0  0  0  0  0
   31.3679  -23.1306   -8.5527 C   0  0  0  0  0  0  0  0  0  0  0  0
   30.3840  -22.3558   -9.3887 C   0  0  1  0  0  0  0  0  0  0  0  0
   29.1569  -21.9969   -8.5848 C   0  0  0  0  0  0  0  0  0  0  0  0
   28.4319  -22.9442   -8.2251 O   0  0  0  0  0  0  0  0  0  0  0  0
   28.5302  -20.8839   -4.4969 C   0  0  0  0  0  0  0  0  0  0  0  0
   29.0342  -19.8097   -5.4005 C   0  0  2  0  0  0  0  0  0  0  0  0
   29.4188  -18.6264   -4.4882 C   0  0  0  0  0  0  0  0  0  0  0  0
   28.0934  -19.3713   -6.4564 C   0  0  0  0  0  0  0  0  0  0  0  0
   27.6969  -20.2315   -7.5747 C   0  0  2  0  0  0  0  0  0  0  0  0
   28.8930  -20.6625   -8.2869 N   0  0  0  0  0  0  0  0  0  0  0  0
   26.6667  -19.7551   -8.4776 C   0  0  0  0  0  0  0  0  0  0  0  0
   26.3082  -18.5657   -8.6505 O   0  0  0  0  0  0  0  0  0  0  0  0
   26.9699  -20.2827  -12.1059 C   0  0  0  0  0  0  0  0  0  0  0  0
   25.5811  -20.6915  -11.7471 C   0  0  1  0  0  0  0  0  0  0  0  0
   25.5134  -22.2002  -11.7054 C   0  0  0  0  0  0  0  0  0  0  0  0
   25.1080  -20.1810  -10.4064 C   0  0  2  0  0  0  0  0  0  0  0  0
   25.9081  -20.6774   -9.3165 N   0  0  0  0  0  0  0  0  0  0  0  0
   23.7192  -20.6424  -10.2097 C   0  0  0  0  0  0  0  0  0  0  0  0
   22.7078  -20.2051  -11.0324 O   0  0  0  0  0  0  0  0  0  0  0  0
   23.4632  -21.4386   -9.2853 O   0  0  0  0  0  0  0  0  0  0  0  0
  1  2  1  0
  3  2  1  0
  4  3  1  0
  5  4  1  0
  5  1  1  0
  5  6  1  1
  6  7  2  0
  9  8  1  1
  9 11  1  0
  9 10  1  0
 12 11  1  1
 12 14  1  0
 12 13  1  0
 13  6  1  0
 14 20  1  0
 15 14  2  0
 17 16  1  1
 17 19  1  0
 18 17  1  0
 19 21  1  0
 19 20  1  1
 21 23  2  0
 21 22  1  0
M  END
$$$$
