PLV.pdb
     RDKit          3D

 23 23  0  0  1  0  0  0  0  0999 V2000
   27.2627  -19.4166  -14.3466 N   0  0  0  0  0  0  0  0  0  0  0  0
   28.4491  -19.1756  -15.1277 C   0  0  0  0  0  0  0  0  0  0  0  0
   29.2805  -20.4255  -15.0497 C   0  0  0  0  0  0  0  0  0  0  0  0
   28.4125  -21.4917  -14.4391 C   0  0  0  0  0  0  0  0  0  0  0  0
   27.0656  -20.8272  -14.3316 C   0  0  1  0  0  0  0  0  0  0  0  0
   26.3821  -21.1981  -13.0370 C   0  0  0  0  0  0  0  0  0  0  0  0
   25.8988  -22.3448  -12.9727 O   0  0  0  0  0  0  0  0  0  0  0  0
   26.5952  -18.9350   -7.3617 C   0  0  0  0  0  0  0  0  0  0  0  0
   26.0009  -19.9914   -8.2308 C   0  0  2  0  0  0  0  0  0  0  0  0
   26.3358  -21.3392   -7.5587 C   0  0  0  0  0  0  0  0  0  0  0  0
   26.4512  -19.9846   -9.6413 C   0  0  0  0  0  0  0  0  0  0  0  0
   25.6501  -20.5433  -10.7339 C   0  0  2  0  0  0  0  0  0  0  0  0
   26.3212  -20.2722  -11.9988 N   0  0  0  0  0  0  0  0  0  0  0  0
   24.2372  -20.2201  -10.7862 C   0  0  0  0  0  0  0  0  0  0  0  0
   23.7299  -19.0825  -10.9333 O   0  0  0  0  0  0  0  0  0  0  0  0
   22.0090  -20.8816  -13.3892 C   0  0  0  0  0  0  0  0  0  0  0  0
   21.3152  -21.4527  -12.1988 C   0  0  1  0  0  0  0  0  0  0  0  0
   21.4955  -22.9526  -12.2037 C   0  0  0  0  0  0  0  0  0  0  0  0
   21.8280  -20.9406  -10.8734 C   0  0  2  0  0  0  0  0  0  0  0  0
   23.2173  -21.2566  -10.6631 N   0  0  0  0  0  0  0  0  0  0  0  0
   21.0392  -21.5829   -9.8031 C   0  0  0  0  0  0  0  0  0  0  0  0
   19.6941  -21.3298   -9.6698 O   0  0  0  0  0  0  0  0  0  0  0  0
   21.6023  -22.3642   -9.0116 O   0  0  0  0  0  0  0  0  0  0  0  0
  1  2  1  0
  3  2  1  0
  4  3  1  0
  5  4  1  0
  5  1  1  0
  5  6  1  1
  6  7  2  0
  9  8  1  1
  9 11  1  0
  9 10  1  0
 12 11  1  1
 12 14  1  0
 12 13  1  0
 13  6  1  0
 14 20  1  0
 15 14  2  0
 17 16  1  6
 17 19  1  0
 18 17  1  0
 19 21  1  0
 19 20  1  1
 21 23  2  0
 21 22  1  0
M  END
$$$$
