PLV.pdb
     RDKit          3D

 23 23  0  0  1  0  0  0  0  0999 V2000
   17.6695  -12.7571  -18.0766 N   0  0  0  0  0  0  0  0  0  0  0  0
   16.9545  -13.1610  -19.2604 C   0  0  0  0  0  0  0  0  0  0  0  0
   17.0080  -12.0015  -20.2156 C   0  0  0  0  0  0  0  0  0  0  0  0
   18.0126  -11.0264  -19.6653 C   0  0  0  0  0  0  0  0  0  0  0  0
   18.5962  -11.7549  -18.4837 C   0  0  1  0  0  0  0  0  0  0  0  0
   18.8179  -10.8130  -17.3242 C   0  0  0  0  0  0  0  0  0  0  0  0
   17.8756  -10.6933  -16.5177 O   0  0  0  0  0  0  0  0  0  0  0  0
   23.3373   -9.6245  -13.6698 C   0  0  0  0  0  0  0  0  0  0  0  0
   22.0616   -9.0543  -14.1913 C   0  0  2  0  0  0  0  0  0  0  0  0
   21.0654   -9.0824  -13.0135 C   0  0  0  0  0  0  0  0  0  0  0  0
   21.4927   -9.7406  -15.3735 C   0  0  0  0  0  0  0  0  0  0  0  0
   20.3277   -9.2324  -16.1032 C   0  0  2  0  0  0  0  0  0  0  0  0
   20.0294  -10.1367  -17.2063 N   0  0  0  0  0  0  0  0  0  0  0  0
   20.3301   -7.8438  -16.5219 C   0  0  0  0  0  0  0  0  0  0  0  0
   21.1026   -7.3092  -17.3529 O   0  0  0  0  0  0  0  0  0  0  0  0
   17.3081   -5.7957  -17.8952 C   0  0  0  0  0  0  0  0  0  0  0  0
   17.9625   -5.0487  -16.7825 C   0  0  1  0  0  0  0  0  0  0  0  0
   17.1223   -5.1981  -15.5359 C   0  0  0  0  0  0  0  0  0  0  0  0
   19.3564   -5.5249  -16.4473 C   0  0  2  0  0  0  0  0  0  0  0  0
   19.3733   -6.8861  -15.9769 N   0  0  0  0  0  0  0  0  0  0  0  0
   19.8868   -4.6576  -15.3764 C   0  0  0  0  0  0  0  0  0  0  0  0
   20.3115   -3.3787  -15.6504 O   0  0  0  0  0  0  0  0  0  0  0  0
   19.9492   -5.0928  -14.2100 O   0  0  0  0  0  0  0  0  0  0  0  0
  1  2  1  0
  3  2  1  0
  4  3  1  0
  5  4  1  0
  5  1  1  0
  5  6  1  1
  6  7  2  0
  9  8  1  1
  9 11  1  0
  9 10  1  0
 12 11  1  6
 12 14  1  0
 12 13  1  0
 13  6  1  0
 14 20  1  0
 15 14  2  0
 17 16  1  6
 17 19  1  0
 18 17  1  0
 19 21  1  0
 19 20  1  1
 21 23  2  0
 21 22  1  0
M  END
$$$$
