PLV.pdb
     RDKit          3D

 23 23  0  0  1  0  0  0  0  0999 V2000
   27.8447  -19.2622  -15.7542 N   0  0  0  0  0  0  0  0  0  0  0  0
   29.1790  -18.9732  -16.2143 C   0  0  0  0  0  0  0  0  0  0  0  0
   29.9546  -20.2581  -16.1285 C   0  0  0  0  0  0  0  0  0  0  0  0
   28.9575  -21.3559  -15.8767 C   0  0  0  0  0  0  0  0  0  0  0  0
   27.6300  -20.6525  -15.9776 C   0  0  1  0  0  0  0  0  0  0  0  0
   26.6688  -21.1598  -14.9289 C   0  0  0  0  0  0  0  0  0  0  0  0
   26.1365  -22.2642  -15.1511 O   0  0  0  0  0  0  0  0  0  0  0  0
   25.8117  -19.7970   -9.0285 C   0  0  0  0  0  0  0  0  0  0  0  0
   25.3299  -20.6302  -10.1678 C   0  0  2  0  0  0  0  0  0  0  0  0
   25.4003  -22.0951   -9.6887 C   0  0  0  0  0  0  0  0  0  0  0  0
   26.0691  -20.4602  -11.4394 C   0  0  0  0  0  0  0  0  0  0  0  0
   25.4987  -20.8103  -12.7432 C   0  0  2  0  0  0  0  0  0  0  0  0
   26.4236  -20.3963  -13.7905 N   0  0  0  0  0  0  0  0  0  0  0  0
   24.1354  -20.4062  -13.0287 C   0  0  0  0  0  0  0  0  0  0  0  0
   23.6929  -19.2338  -13.0817 O   0  0  0  0  0  0  0  0  0  0  0  0
   19.8916  -21.3719  -15.3298 C   0  0  0  0  0  0  0  0  0  0  0  0
   21.2821  -21.7192  -14.9170 C   0  0  1  0  0  0  0  0  0  0  0  0
   22.2214  -21.4032  -16.0573 C   0  0  0  0  0  0  0  0  0  0  0  0
   21.7775  -20.9691  -13.7029 C   0  0  2  0  0  0  0  0  0  0  0  0
   23.0926  -21.3918  -13.2952 N   0  0  0  0  0  0  0  0  0  0  0  0
   20.8405  -21.2337  -12.5928 C   0  0  0  0  0  0  0  0  0  0  0  0
   21.1411  -22.1602  -11.6221 O   0  0  0  0  0  0  0  0  0  0  0  0
   19.7639  -20.6077  -12.5372 O   0  0  0  0  0  0  0  0  0  0  0  0
  1  2  1  0
  3  2  1  0
  4  3  1  0
  5  4  1  0
  5  1  1  0
  5  6  1  1
  6  7  2  0
  9  8  1  1
  9 11  1  0
  9 10  1  0
 12 11  1  1
 12 14  1  0
 12 13  1  0
 13  6  1  0
 14 20  1  0
 15 14  2  0
 17 16  1  6
 17 19  1  0
 18 17  1  0
 19 21  1  0
 19 20  1  1
 21 23  2  0
 21 22  1  0
M  END
$$$$
