PLV.pdb
     RDKit          3D

 23 23  0  0  1  0  0  0  0  0999 V2000
   28.7196  -21.4071  -13.8691 N   0  0  0  0  0  0  0  0  0  0  0  0
   28.9850  -20.7826  -15.1401 C   0  0  0  0  0  0  0  0  0  0  0  0
   28.1438  -19.5380  -15.1952 C   0  0  0  0  0  0  0  0  0  0  0  0
   27.6036  -19.3124  -13.8095 C   0  0  0  0  0  0  0  0  0  0  0  0
   28.2905  -20.3722  -12.9895 C   0  0  1  0  0  0  0  0  0  0  0  0
   27.3428  -20.9708  -11.9775 C   0  0  0  0  0  0  0  0  0  0  0  0
   26.8449  -22.0754  -12.2681 O   0  0  0  0  0  0  0  0  0  0  0  0
   28.0564  -21.4008   -7.6096 C   0  0  0  0  0  0  0  0  0  0  0  0
   27.5173  -20.0604   -7.9800 C   0  0  2  0  0  0  0  0  0  0  0  0
   27.5125  -19.2258   -6.6823 C   0  0  0  0  0  0  0  0  0  0  0  0
   26.1748  -20.0634   -8.6044 C   0  0  0  0  0  0  0  0  0  0  0  0
   25.9251  -20.5890   -9.9494 C   0  0  2  0  0  0  0  0  0  0  0  0
   27.0716  -20.2853  -10.7962 N   0  0  0  0  0  0  0  0  0  0  0  0
   24.6685  -20.2598  -10.5945 C   0  0  0  0  0  0  0  0  0  0  0  0
   24.1912  -19.1137  -10.7729 O   0  0  0  0  0  0  0  0  0  0  0  0
   21.3552  -21.6560  -14.0094 C   0  0  0  0  0  0  0  0  0  0  0  0
   22.5129  -21.9457  -13.1148 C   0  0  1  0  0  0  0  0  0  0  0  0
   23.7799  -21.9276  -13.9374 C   0  0  0  0  0  0  0  0  0  0  0  0
   22.6922  -20.9562  -11.9875 C   0  0  2  0  0  0  0  0  0  0  0  0
   23.7933  -21.3001  -11.1251 N   0  0  0  0  0  0  0  0  0  0  0  0
   21.4547  -20.9571  -11.1821 C   0  0  0  0  0  0  0  0  0  0  0  0
   20.2750  -20.4777  -11.7016 O   0  0  0  0  0  0  0  0  0  0  0  0
   21.4823  -21.3984  -10.0166 O   0  0  0  0  0  0  0  0  0  0  0  0
  1  2  1  0
  3  2  1  0
  4  3  1  0
  5  4  1  0
  5  1  1  0
  5  6  1  1
  6  7  2  0
  9  8  1  1
  9 11  1  0
  9 10  1  0
 12 11  1  1
 12 14  1  0
 12 13  1  0
 13  6  1  0
 14 20  1  0
 15 14  2  0
 17 16  1  6
 17 19  1  0
 18 17  1  0
 19 21  1  0
 19 20  1  1
 21 23  2  0
 21 22  1  0
M  END
$$$$
