SYK.pdb
     RDKit          3D

 28 28  0  0  1  0  0  0  0  0999 V2000
    8.1964  -18.5557   20.1915 O   0  0  0  0  0  0  0  0  0  0  0  0
    7.8029  -17.5277   19.3430 C   0  0  0  0  0  0  0  0  0  0  0  0
    8.8403  -16.4023   19.3492 C   0  0  2  0  0  0  0  0  0  0  0  0
   10.0530  -16.9273   18.7748 N   0  0  0  0  0  0  0  0  0  0  0  0
    9.0365  -15.8916   20.7361 C   0  0  0  0  0  0  0  0  0  0  0  0
   10.0610  -16.2234   21.3394 O   0  0  0  0  0  0  0  0  0  0  0  0
    7.0350  -12.0953   28.6234 O   0  0  0  0  0  0  0  0  0  0  0  0
    7.1318  -12.4316   27.2770 C   0  0  0  0  0  0  0  0  0  0  0  0
    8.2996  -12.2932   26.5619 C   0  0  0  0  0  0  0  0  0  0  0  0
    8.4007  -12.6307   25.2068 C   0  0  0  0  0  0  0  0  0  0  0  0
    7.3220  -13.1157   24.5467 C   0  0  0  0  0  0  0  0  0  0  0  0
    7.2257  -13.5352   23.1455 C   0  0  0  0  0  0  0  0  0  0  0  0
    8.1751  -14.6148   22.7109 C   0  0  2  0  0  0  0  0  0  0  0  0
    8.0993  -15.0503   21.3744 N   0  0  0  0  0  0  0  0  0  0  0  0
    8.1363  -15.6983   23.7015 C   0  0  0  0  0  0  0  0  0  0  0  0
    7.1254  -16.4738   23.6808 O   0  0  0  0  0  0  0  0  0  0  0  0
    6.1360  -13.2508   25.2925 C   0  0  0  0  0  0  0  0  0  0  0  0
    6.0449  -12.9180   26.6193 C   0  0  0  0  0  0  0  0  0  0  0  0
    9.1208  -15.9268   24.6459 N   0  0  0  0  0  0  0  0  0  0  0  0
    9.0792  -17.1585   25.5530 C   0  0  1  0  0  0  0  0  0  0  0  0
    9.8529  -18.1873   24.8379 C   0  0  0  0  0  0  0  0  0  0  0  0
    9.8084  -19.5804   25.2429 C   0  0  0  0  0  0  0  0  0  0  0  0
   10.5201  -20.6444   24.4941 C   0  0  0  0  0  0  0  0  0  0  0  0
   10.3212  -22.0341   25.0346 C   0  0  0  0  0  0  0  0  0  0  0  0
   11.1847  -22.9215   24.2827 N   0  0  0  0  0  0  0  0  0  0  0  0
    9.7535  -16.6370   26.7575 C   0  0  0  0  0  0  0  0  0  0  0  0
    9.7754  -17.3514   27.8303 O   0  0  0  0  0  0  0  0  0  0  0  0
   10.3972  -15.4307   26.8856 O   0  0  0  0  0  0  0  0  0  0  0  0
  2  1  1  0
  3  2  1  0
  3  4  1  1
  5 14  1  0
  5  3  1  0
  6  5  2  0
  8  7  1  0
  8 18  2  0
  9  8  1  0
 10  9  2  0
 10 11  1  0
 11 17  2  0
 12 11  1  0
 13 12  1  1
 13 14  1  0
 15 16  2  0
 15 13  1  0
 17 18  1  0
 19 15  1  0
 20 26  1  0
 20 19  1  0
 20 21  1  6
 22 23  1  0
 22 21  1  0
 24 25  1  0
 24 23  1  0
 26 28  1  0
 27 26  2  0
M  END
$$$$
