SYK.pdb
     RDKit          3D

 28 28  0  0  1  0  0  0  0  0999 V2000
    7.5688  -16.3206   20.0102 O   0  0  0  0  0  0  0  0  0  0  0  0
    6.6726  -15.2610   20.0853 C   0  0  0  0  0  0  0  0  0  0  0  0
    7.3930  -13.9805   20.5144 C   0  0  2  0  0  0  0  0  0  0  0  0
    8.1827  -13.5316   19.3958 N   0  0  0  0  0  0  0  0  0  0  0  0
    8.2154  -14.2364   21.7313 C   0  0  0  0  0  0  0  0  0  0  0  0
    9.4144  -14.4886   21.5816 O   0  0  0  0  0  0  0  0  0  0  0  0
   10.7730  -14.9752   30.2217 O   0  0  0  0  0  0  0  0  0  0  0  0
   10.0048  -14.8449   29.0692 C   0  0  0  0  0  0  0  0  0  0  0  0
    9.2933  -15.8934   28.5318 C   0  0  0  0  0  0  0  0  0  0  0  0
    8.5192  -15.7659   27.3722 C   0  0  0  0  0  0  0  0  0  0  0  0
    8.4485  -14.5744   26.7318 C   0  0  0  0  0  0  0  0  0  0  0  0
    7.6917  -14.2345   25.5233 C   0  0  0  0  0  0  0  0  0  0  0  0
    8.3703  -14.5217   24.2146 C   0  0  2  0  0  0  0  0  0  0  0  0
    7.6734  -14.1998   23.0346 N   0  0  0  0  0  0  0  0  0  0  0  0
    8.8944  -15.8930   24.2506 C   0  0  0  0  0  0  0  0  0  0  0  0
    8.0532  -16.8439   24.1398 O   0  0  0  0  0  0  0  0  0  0  0  0
    9.1819  -13.5130   27.2944 C   0  0  0  0  0  0  0  0  0  0  0  0
    9.9379  -13.6458   28.4303 C   0  0  0  0  0  0  0  0  0  0  0  0
   10.2324  -16.2128   24.3953 N   0  0  0  0  0  0  0  0  0  0  0  0
   10.7075  -17.6672   24.3711 C   0  0  1  0  0  0  0  0  0  0  0  0
   11.4856  -17.7955   23.1274 C   0  0  0  0  0  0  0  0  0  0  0  0
   10.8354  -17.8055   21.8299 C   0  0  0  0  0  0  0  0  0  0  0  0
   11.5906  -18.0031   20.5688 C   0  0  0  0  0  0  0  0  0  0  0  0
   10.7795  -17.8201   19.3151 C   0  0  0  0  0  0  0  0  0  0  0  0
   11.6660  -18.0292   18.1887 N   0  0  0  0  0  0  0  0  0  0  0  0
   11.5308  -17.7089   25.5950 C   0  0  0  0  0  0  0  0  0  0  0  0
   11.8338  -16.6073   26.1922 O   0  0  0  0  0  0  0  0  0  0  0  0
   12.0353  -18.8271   26.2123 O   0  0  0  0  0  0  0  0  0  0  0  0
  2  1  1  0
  3  2  1  0
  3  4  1  6
  5 14  1  0
  5  3  1  0
  6  5  2  0
  8  7  1  0
  8 18  2  0
  9  8  1  0
 10  9  2  0
 10 11  1  0
 11 17  2  0
 12 11  1  0
 13 12  1  1
 13 14  1  0
 15 16  2  0
 15 13  1  0
 17 18  1  0
 19 15  1  0
 20 26  1  0
 20 19  1  0
 20 21  1  6
 22 23  1  0
 22 21  1  0
 24 25  1  0
 24 23  1  0
 26 28  1  0
 27 26  2  0
M  END
$$$$
