SYK.pdb
     RDKit          3D

 28 28  0  0  1  0  0  0  0  0999 V2000
    7.9476  -18.6457   20.3592 O   0  0  0  0  0  0  0  0  0  0  0  0
    7.5311  -17.7734   19.3607 C   0  0  0  0  0  0  0  0  0  0  0  0
    8.4132  -16.5228   19.3406 C   0  0  2  0  0  0  0  0  0  0  0  0
    9.6396  -16.8679   18.6675 N   0  0  0  0  0  0  0  0  0  0  0  0
    8.6400  -16.0312   20.7298 C   0  0  0  0  0  0  0  0  0  0  0  0
    9.7070  -16.3156   21.2813 O   0  0  0  0  0  0  0  0  0  0  0  0
    7.2718  -11.9351   28.5641 O   0  0  0  0  0  0  0  0  0  0  0  0
    7.1990  -12.3535   27.2393 C   0  0  0  0  0  0  0  0  0  0  0  0
    8.0732  -11.9085   26.2738 C   0  0  0  0  0  0  0  0  0  0  0  0
    8.0029  -12.3274   24.9397 C   0  0  0  0  0  0  0  0  0  0  0  0
    7.0466  -13.2057   24.5544 C   0  0  0  0  0  0  0  0  0  0  0  0
    6.8144  -13.7716   23.2222 C   0  0  0  0  0  0  0  0  0  0  0  0
    7.8499  -14.7388   22.7241 C   0  0  2  0  0  0  0  0  0  0  0  0
    7.6847  -15.2597   21.4268 N   0  0  0  0  0  0  0  0  0  0  0  0
    8.0753  -15.7565   23.7586 C   0  0  0  0  0  0  0  0  0  0  0  0
    7.2128  -16.6892   23.8593 O   0  0  0  0  0  0  0  0  0  0  0  0
    6.1610  -13.6506   25.5539 C   0  0  0  0  0  0  0  0  0  0  0  0
    6.2362  -13.2356   26.8583 C   0  0  0  0  0  0  0  0  0  0  0  0
    9.1563  -15.7650   24.6214 N   0  0  0  0  0  0  0  0  0  0  0  0
    9.3553  -16.8962   25.6326 C   0  0  1  0  0  0  0  0  0  0  0  0
   10.3507  -17.7898   25.0169 C   0  0  0  0  0  0  0  0  0  0  0  0
   10.2528  -19.2318   25.1500 C   0  0  0  0  0  0  0  0  0  0  0  0
   11.2373  -20.1515   24.5300 C   0  0  0  0  0  0  0  0  0  0  0  0
   10.9281  -21.6134   24.7036 C   0  0  0  0  0  0  0  0  0  0  0  0
   12.0366  -22.3620   24.1476 N   0  0  0  0  0  0  0  0  0  0  0  0
    9.8692  -16.1424   26.7924 C   0  0  0  0  0  0  0  0  0  0  0  0
   10.4711  -15.0186   26.6009 O   0  0  0  0  0  0  0  0  0  0  0  0
    9.7783  -16.5004   28.1150 O   0  0  0  0  0  0  0  0  0  0  0  0
  2  1  1  0
  3  2  1  0
  3  4  1  1
  5 14  1  0
  5  3  1  0
  6  5  2  0
  8  7  1  0
  8 18  2  0
  9  8  1  0
 10  9  2  0
 10 11  1  0
 11 17  2  0
 12 11  1  0
 13 12  1  1
 13 14  1  0
 15 16  2  0
 15 13  1  0
 17 18  1  0
 19 15  1  0
 20 26  1  0
 20 19  1  0
 20 21  1  6
 22 23  1  0
 22 21  1  0
 24 25  1  0
 24 23  1  0
 26 28  1  0
 27 26  2  0
M  END
$$$$
