SYK.pdb
     RDKit          3D

 28 28  0  0  1  0  0  0  0  0999 V2000
   -5.6733  -26.3081   29.7143 O   0  0  0  0  0  0  0  0  0  0  0  0
   -4.8541  -26.1359   30.8236 C   0  0  0  0  0  0  0  0  0  0  0  0
   -4.4362  -24.6696   30.9576 C   0  0  2  0  0  0  0  0  0  0  0  0
   -3.5893  -24.3558   29.8348 N   0  0  0  0  0  0  0  0  0  0  0  0
   -3.7594  -24.4454   32.2670 C   0  0  0  0  0  0  0  0  0  0  0  0
   -2.5295  -24.5396   32.3106 O   0  0  0  0  0  0  0  0  0  0  0  0
   -2.7672  -23.3737   41.0742 O   0  0  0  0  0  0  0  0  0  0  0  0
   -3.2224  -23.3032   39.7614 C   0  0  0  0  0  0  0  0  0  0  0  0
   -2.7708  -22.3551   38.8717 C   0  0  0  0  0  0  0  0  0  0  0  0
   -3.2266  -22.2812   37.5500 C   0  0  0  0  0  0  0  0  0  0  0  0
   -4.1490  -23.1653   37.1005 C   0  0  0  0  0  0  0  0  0  0  0  0
   -4.7391  -23.2632   35.7622 C   0  0  0  0  0  0  0  0  0  0  0  0
   -3.8967  -23.9328   34.7145 C   0  0  2  0  0  0  0  0  0  0  0  0
   -4.4718  -24.1323   33.4452 N   0  0  0  0  0  0  0  0  0  0  0  0
   -3.2928  -25.1369   35.2993 C   0  0  0  0  0  0  0  0  0  0  0  0
   -3.9834  -26.2076   35.2767 O   0  0  0  0  0  0  0  0  0  0  0  0
   -4.6002  -24.1279   38.0230 C   0  0  0  0  0  0  0  0  0  0  0  0
   -4.1491  -24.1937   39.3158 C   0  0  0  0  0  0  0  0  0  0  0  0
   -2.0321  -25.1799   35.8669 N   0  0  0  0  0  0  0  0  0  0  0  0
   -1.4245  -26.4984   36.3507 C   0  0  1  0  0  0  0  0  0  0  0  0
    0.0293  -26.3346   36.1831 C   0  0  0  0  0  0  0  0  0  0  0  0
    0.9550  -27.3833   36.5703 C   0  0  0  0  0  0  0  0  0  0  0  0
    2.4251  -27.2187   36.4643 C   0  0  0  0  0  0  0  0  0  0  0  0
    3.2260  -28.3992   36.9419 C   0  0  0  0  0  0  0  0  0  0  0  0
    4.6122  -27.9849   37.0130 N   0  0  0  0  0  0  0  0  0  0  0  0
   -1.8642  -26.5044   37.7592 C   0  0  0  0  0  0  0  0  0  0  0  0
   -1.7620  -25.4267   38.4591 O   0  0  0  0  0  0  0  0  0  0  0  0
   -2.4000  -27.5624   38.4517 O   0  0  0  0  0  0  0  0  0  0  0  0
  2  1  1  0
  3  2  1  0
  3  4  1  6
  5 14  1  0
  5  3  1  0
  6  5  2  0
  8  7  1  0
  8 18  2  0
  9  8  1  0
 10  9  2  0
 10 11  1  0
 11 17  2  0
 12 11  1  0
 13 12  1  1
 13 14  1  0
 15 16  2  0
 15 13  1  0
 17 18  1  0
 19 15  1  0
 20 26  1  0
 20 19  1  0
 20 21  1  1
 22 23  1  0
 22 21  1  0
 24 25  1  0
 24 23  1  0
 26 28  1  0
 27 26  2  0
M  END
$$$$
