SYK.pdb
     RDKit          3D

 28 28  0  0  1  0  0  0  0  0999 V2000
    8.3658  -17.6497   20.5378 O   0  0  0  0  0  0  0  0  0  0  0  0
    7.1882  -16.9123   20.5025 C   0  0  0  0  0  0  0  0  0  0  0  0
    7.4435  -15.4744   20.9607 C   0  0  2  0  0  0  0  0  0  0  0  0
    8.1087  -14.7874   19.8828 N   0  0  0  0  0  0  0  0  0  0  0  0
    8.2394  -15.4702   22.2215 C   0  0  0  0  0  0  0  0  0  0  0  0
    9.4432  -15.2075   22.1494 O   0  0  0  0  0  0  0  0  0  0  0  0
    6.4183   -9.9973   26.5880 O   0  0  0  0  0  0  0  0  0  0  0  0
    6.6561  -11.3596   26.4355 C   0  0  0  0  0  0  0  0  0  0  0  0
    5.6392  -12.2824   26.3436 C   0  0  0  0  0  0  0  0  0  0  0  0
    5.8748  -13.6540   26.1900 C   0  0  0  0  0  0  0  0  0  0  0  0
    7.1447  -14.1207   26.1260 C   0  0  0  0  0  0  0  0  0  0  0  0
    7.5981  -15.5043   25.9563 C   0  0  0  0  0  0  0  0  0  0  0  0
    8.3677  -15.7995   24.7008 C   0  0  2  0  0  0  0  0  0  0  0  0
    7.6670  -15.7536   23.4807 N   0  0  0  0  0  0  0  0  0  0  0  0
    9.1424  -17.0302   24.9056 C   0  0  0  0  0  0  0  0  0  0  0  0
    8.5503  -18.1373   24.6871 O   0  0  0  0  0  0  0  0  0  0  0  0
    8.1725  -13.1638   26.2217 C   0  0  0  0  0  0  0  0  0  0  0  0
    7.9337  -11.8223   26.3720 C   0  0  0  0  0  0  0  0  0  0  0  0
   10.4628  -17.0610   25.3164 N   0  0  0  0  0  0  0  0  0  0  0  0
   11.1753  -18.3856   25.5979 C   0  0  1  0  0  0  0  0  0  0  0  0
   12.4893  -18.2603   24.9449 C   0  0  0  0  0  0  0  0  0  0  0  0
   12.6130  -18.2418   23.4989 C   0  0  0  0  0  0  0  0  0  0  0  0
   13.9304  -18.2037   22.8187 C   0  0  0  0  0  0  0  0  0  0  0  0
   13.8650  -17.9681   21.3344 C   0  0  0  0  0  0  0  0  0  0  0  0
   15.2263  -17.8860   20.8461 N   0  0  0  0  0  0  0  0  0  0  0  0
   11.2383  -18.3573   27.0719 C   0  0  0  0  0  0  0  0  0  0  0  0
   10.9080  -17.2807   27.6992 O   0  0  0  0  0  0  0  0  0  0  0  0
   11.6172  -19.3842   27.9013 O   0  0  0  0  0  0  0  0  0  0  0  0
  2  1  1  0
  3  2  1  0
  3  4  1  6
  5 14  1  0
  5  3  1  0
  6  5  2  0
  8  7  1  0
  8 18  2  0
  9  8  1  0
 10  9  2  0
 10 11  1  0
 11 17  2  0
 12 11  1  0
 13 12  1  1
 13 14  1  0
 15 16  2  0
 15 13  1  0
 17 18  1  0
 19 15  1  0
 20 26  1  0
 20 19  1  0
 20 21  1  6
 22 23  1  0
 22 21  1  0
 24 25  1  0
 24 23  1  0
 26 28  1  0
 27 26  2  0
M  END
$$$$
