SYK.pdb
     RDKit          3D

 28 28  0  0  1  0  0  0  0  0999 V2000
    7.4207  -17.7321   18.7555 O   0  0  0  0  0  0  0  0  0  0  0  0
    7.9164  -17.4455   20.0219 C   0  0  0  0  0  0  0  0  0  0  0  0
    8.2889  -15.9648   20.1281 C   0  0  2  0  0  0  0  0  0  0  0  0
    9.2423  -15.6817   19.0854 N   0  0  0  0  0  0  0  0  0  0  0  0
    8.8202  -15.6645   21.4883 C   0  0  0  0  0  0  0  0  0  0  0  0
    9.9897  -15.9709   21.7375 O   0  0  0  0  0  0  0  0  0  0  0  0
    9.2264  -13.2817   30.0644 O   0  0  0  0  0  0  0  0  0  0  0  0
    8.7858  -13.5196   28.7664 C   0  0  0  0  0  0  0  0  0  0  0  0
    8.0141  -14.6100   28.4352 C   0  0  0  0  0  0  0  0  0  0  0  0
    7.5689  -14.8526   27.1301 C   0  0  0  0  0  0  0  0  0  0  0  0
    7.8951  -13.9964   26.1325 C   0  0  0  0  0  0  0  0  0  0  0  0
    7.5216  -14.0646   24.7167 C   0  0  0  0  0  0  0  0  0  0  0  0
    8.4222  -14.8792   23.8329 C   0  0  2  0  0  0  0  0  0  0  0  0
    8.0380  -15.0480   22.4892 N   0  0  0  0  0  0  0  0  0  0  0  0
    8.7523  -16.1302   24.5276 C   0  0  0  0  0  0  0  0  0  0  0  0
    7.8763  -17.0557   24.5137 O   0  0  0  0  0  0  0  0  0  0  0  0
    8.6846  -12.8868   26.4883 C   0  0  0  0  0  0  0  0  0  0  0  0
    9.1168  -12.6563   27.7686 C   0  0  0  0  0  0  0  0  0  0  0  0
    9.9444  -16.3636   25.1890 N   0  0  0  0  0  0  0  0  0  0  0  0
   10.2613  -17.7332   25.7936 C   0  0  1  0  0  0  0  0  0  0  0  0
   11.4322  -18.2207   25.0453 C   0  0  0  0  0  0  0  0  0  0  0  0
   12.1025  -19.4538   25.4152 C   0  0  0  0  0  0  0  0  0  0  0  0
   13.2641  -19.9799   24.6580 C   0  0  0  0  0  0  0  0  0  0  0  0
   13.7976  -21.2945   25.1583 C   0  0  0  0  0  0  0  0  0  0  0  0
   14.9679  -21.6184   24.3685 N   0  0  0  0  0  0  0  0  0  0  0  0
   10.5612  -17.3565   27.1884 C   0  0  0  0  0  0  0  0  0  0  0  0
   10.9440  -16.1539   27.4512 O   0  0  0  0  0  0  0  0  0  0  0  0
   10.4748  -18.1619   28.2973 O   0  0  0  0  0  0  0  0  0  0  0  0
  2  1  1  0
  3  2  1  0
  3  4  1  6
  5 14  1  0
  5  3  1  0
  6  5  2  0
  8  7  1  0
  8 18  2  0
  9  8  1  0
 10  9  2  0
 10 11  1  0
 11 17  2  0
 12 11  1  0
 13 12  1  1
 13 14  1  0
 15 16  2  0
 15 13  1  0
 17 18  1  0
 19 15  1  0
 20 26  1  0
 20 19  1  0
 20 21  1  6
 22 23  1  0
 22 21  1  0
 24 25  1  0
 24 23  1  0
 26 28  1  0
 27 26  2  0
M  END
$$$$
