SYK.pdb
     RDKit          3D

 28 28  0  0  1  0  0  0  0  0999 V2000
    7.6501  -17.9759   19.8549 O   0  0  0  0  0  0  0  0  0  0  0  0
    7.0066  -16.8366   19.3866 C   0  0  0  0  0  0  0  0  0  0  0  0
    7.9732  -15.6502   19.3571 C   0  0  2  0  0  0  0  0  0  0  0  0
    9.0357  -15.9791   18.4411 N   0  0  0  0  0  0  0  0  0  0  0  0
    8.4708  -15.3581   20.7319 C   0  0  0  0  0  0  0  0  0  0  0  0
    9.6394  -15.6491   21.0023 O   0  0  0  0  0  0  0  0  0  0  0  0
    8.4275  -13.1194   29.3965 O   0  0  0  0  0  0  0  0  0  0  0  0
    8.1502  -13.2278   28.0375 C   0  0  0  0  0  0  0  0  0  0  0  0
    8.9200  -12.6165   27.0743 C   0  0  0  0  0  0  0  0  0  0  0  0
    8.6440  -12.7235   25.7058 C   0  0  0  0  0  0  0  0  0  0  0  0
    7.5829  -13.4516   25.2832 C   0  0  0  0  0  0  0  0  0  0  0  0
    7.1362  -13.6951   23.9085 C   0  0  0  0  0  0  0  0  0  0  0  0
    8.0347  -14.5509   23.0621 C   0  0  2  0  0  0  0  0  0  0  0  0
    7.6578  -14.7661   21.7230 N   0  0  0  0  0  0  0  0  0  0  0  0
    8.3477  -15.7781   23.8054 C   0  0  0  0  0  0  0  0  0  0  0  0
    7.4738  -16.7055   23.7979 O   0  0  0  0  0  0  0  0  0  0  0  0
    6.8062  -14.0698   26.2810 C   0  0  0  0  0  0  0  0  0  0  0  0
    7.0830  -13.9603   27.6192 C   0  0  0  0  0  0  0  0  0  0  0  0
    9.5220  -15.9873   24.5057 N   0  0  0  0  0  0  0  0  0  0  0  0
    9.7985  -17.3165   25.2117 C   0  0  1  0  0  0  0  0  0  0  0  0
   11.0152  -17.8444   24.5717 C   0  0  0  0  0  0  0  0  0  0  0  0
   10.9936  -18.3433   23.2089 C   0  0  0  0  0  0  0  0  0  0  0  0
   12.2006  -18.9014   22.5523 C   0  0  0  0  0  0  0  0  0  0  0  0
   11.9947  -19.3423   21.1288 C   0  0  0  0  0  0  0  0  0  0  0  0
   13.2923  -19.6959   20.5905 N   0  0  0  0  0  0  0  0  0  0  0  0
   10.0077  -16.8547   26.5975 C   0  0  0  0  0  0  0  0  0  0  0  0
   10.2576  -15.6096   26.8191 O   0  0  0  0  0  0  0  0  0  0  0  0
    9.9620  -17.6190   27.7375 O   0  0  0  0  0  0  0  0  0  0  0  0
  2  1  1  0
  3  2  1  0
  3  4  1  6
  5 14  1  0
  5  3  1  0
  6  5  2  0
  8  7  1  0
  8 18  2  0
  9  8  1  0
 10  9  2  0
 10 11  1  0
 11 17  2  0
 12 11  1  0
 13 12  1  1
 13 14  1  0
 15 16  2  0
 15 13  1  0
 17 18  1  0
 19 15  1  0
 20 26  1  0
 20 19  1  0
 20 21  1  6
 22 23  1  0
 22 21  1  0
 24 25  1  0
 24 23  1  0
 26 28  1  0
 27 26  2  0
M  END
$$$$
