SYK.pdb
     RDKit          3D

 28 28  0  0  1  0  0  0  0  0999 V2000
    7.1338  -18.3241   21.1789 O   0  0  0  0  0  0  0  0  0  0  0  0
    7.3712  -17.3077   20.2613 C   0  0  0  0  0  0  0  0  0  0  0  0
    7.1069  -15.9406   20.8969 C   0  0  2  0  0  0  0  0  0  0  0  0
    7.4025  -14.9372   19.9058 N   0  0  0  0  0  0  0  0  0  0  0  0
    7.9231  -15.7826   22.1345 C   0  0  0  0  0  0  0  0  0  0  0  0
    9.0915  -15.4024   22.0170 O   0  0  0  0  0  0  0  0  0  0  0  0
    6.3864   -9.8818   26.2947 O   0  0  0  0  0  0  0  0  0  0  0  0
    6.6890  -11.2314   26.1441 C   0  0  0  0  0  0  0  0  0  0  0  0
    7.6940  -11.6764   25.3157 C   0  0  0  0  0  0  0  0  0  0  0  0
    8.0013  -13.0336   25.1617 C   0  0  0  0  0  0  0  0  0  0  0  0
    7.2981  -13.9694   25.8431 C   0  0  0  0  0  0  0  0  0  0  0  0
    7.4702  -15.4251   25.8301 C   0  0  0  0  0  0  0  0  0  0  0  0
    8.1469  -16.0010   24.6193 C   0  0  2  0  0  0  0  0  0  0  0  0
    7.4086  -16.0507   23.4218 N   0  0  0  0  0  0  0  0  0  0  0  0
    8.7732  -17.2749   24.9952 C   0  0  0  0  0  0  0  0  0  0  0  0
    8.0344  -18.3132   24.9925 O   0  0  0  0  0  0  0  0  0  0  0  0
    6.2740  -13.4975   26.6856 C   0  0  0  0  0  0  0  0  0  0  0  0
    5.9791  -12.1666   26.8309 C   0  0  0  0  0  0  0  0  0  0  0  0
   10.1033  -17.4158   25.3478 N   0  0  0  0  0  0  0  0  0  0  0  0
   10.7122  -18.7945   25.6120 C   0  0  1  0  0  0  0  0  0  0  0  0
   12.0080  -18.7816   24.9125 C   0  0  0  0  0  0  0  0  0  0  0  0
   12.0815  -18.7291   23.4639 C   0  0  0  0  0  0  0  0  0  0  0  0
   13.3707  -18.8051   22.7346 C   0  0  0  0  0  0  0  0  0  0  0  0
   13.2423  -18.8910   21.2382 C   0  0  0  0  0  0  0  0  0  0  0  0
   14.5783  -18.8256   20.6821 N   0  0  0  0  0  0  0  0  0  0  0  0
   10.8296  -18.7671   27.0827 C   0  0  0  0  0  0  0  0  0  0  0  0
   10.6438  -17.6576   27.7122 O   0  0  0  0  0  0  0  0  0  0  0  0
   11.1203  -19.8263   27.9070 O   0  0  0  0  0  0  0  0  0  0  0  0
  2  1  1  0
  3  2  1  0
  3  4  1  6
  5 14  1  0
  5  3  1  0
  6  5  2  0
  8  7  1  0
  8 18  2  0
  9  8  1  0
 10  9  2  0
 10 11  1  0
 11 17  2  0
 12 11  1  0
 13 12  1  1
 13 14  1  0
 15 16  2  0
 15 13  1  0
 17 18  1  0
 19 15  1  0
 20 26  1  0
 20 19  1  0
 20 21  1  6
 22 23  1  0
 22 21  1  0
 24 25  1  0
 24 23  1  0
 26 28  1  0
 27 26  2  0
M  END
$$$$
