SYK.pdb
     RDKit          3D

 28 28  0  0  1  0  0  0  0  0999 V2000
    9.0212  -19.0121   20.5583 O   0  0  0  0  0  0  0  0  0  0  0  0
    8.4349  -18.2617   19.5459 C   0  0  0  0  0  0  0  0  0  0  0  0
    9.1179  -16.8971   19.4275 C   0  0  2  0  0  0  0  0  0  0  0  0
   10.3886  -17.1029   18.7800 N   0  0  0  0  0  0  0  0  0  0  0  0
    9.2547  -16.2720   20.7741 C   0  0  0  0  0  0  0  0  0  0  0  0
   10.2826  -16.4977   21.4192 O   0  0  0  0  0  0  0  0  0  0  0  0
    7.0598  -11.9511   28.3041 O   0  0  0  0  0  0  0  0  0  0  0  0
    7.1400  -12.4021   26.9905 C   0  0  0  0  0  0  0  0  0  0  0  0
    8.1678  -12.0458   26.1473 C   0  0  0  0  0  0  0  0  0  0  0  0
    8.2517  -12.4978   24.8248 C   0  0  0  0  0  0  0  0  0  0  0  0
    7.2973  -13.3202   24.3276 C   0  0  0  0  0  0  0  0  0  0  0  0
    7.2105  -13.9078   22.9875 C   0  0  0  0  0  0  0  0  0  0  0  0
    8.2829  -14.8956   22.6269 C   0  0  2  0  0  0  0  0  0  0  0  0
    8.2581  -15.4398   21.3289 N   0  0  0  0  0  0  0  0  0  0  0  0
    8.3774  -15.8952   23.6985 C   0  0  0  0  0  0  0  0  0  0  0  0
    7.4873  -16.8067   23.7283 O   0  0  0  0  0  0  0  0  0  0  0  0
    6.2535  -13.6747   25.2029 C   0  0  0  0  0  0  0  0  0  0  0  0
    6.1783  -13.2278   26.4967 C   0  0  0  0  0  0  0  0  0  0  0  0
    9.3642  -15.9085   24.6676 N   0  0  0  0  0  0  0  0  0  0  0  0
    9.4668  -17.0515   25.6799 C   0  0  1  0  0  0  0  0  0  0  0  0
   10.6803  -17.7934   25.2984 C   0  0  0  0  0  0  0  0  0  0  0  0
   11.1576  -18.9138   26.0879 C   0  0  0  0  0  0  0  0  0  0  0  0
   12.3928  -19.6570   25.7396 C   0  0  0  0  0  0  0  0  0  0  0  0
   12.8172  -20.6823   26.7554 C   0  0  0  0  0  0  0  0  0  0  0  0
   14.0919  -21.2195   26.3255 N   0  0  0  0  0  0  0  0  0  0  0  0
    9.6036  -16.2939   26.9387 C   0  0  0  0  0  0  0  0  0  0  0  0
   10.0625  -15.0897   26.9064 O   0  0  0  0  0  0  0  0  0  0  0  0
    9.2832  -16.7277   28.2016 O   0  0  0  0  0  0  0  0  0  0  0  0
  2  1  1  0
  3  2  1  0
  3  4  1  1
  5 14  1  0
  5  3  1  0
  6  5  2  0
  8  7  1  0
  8 18  2  0
  9  8  1  0
 10  9  2  0
 10 11  1  0
 11 17  2  0
 12 11  1  0
 13 12  1  1
 13 14  1  0
 15 16  2  0
 15 13  1  0
 17 18  1  0
 19 15  1  0
 20 26  1  0
 20 19  1  0
 20 21  1  6
 22 23  1  0
 22 21  1  0
 24 25  1  0
 24 23  1  0
 26 28  1  0
 27 26  2  0
M  END
$$$$
