IHN.pdb
     RDKit          3D

 27 27  0  0  1  0  0  0  0  0999 V2000
   27.4716  -19.9947   -7.1463 C   0  0  0  0  0  0  0  0  0  0  0  0
   26.1567  -19.9901   -7.8750 C   0  0  0  0  0  0  0  0  0  0  0  0
   26.3538  -20.3188   -9.3386 C   0  0  2  0  0  0  0  0  0  0  0  0
   27.2993  -19.2664   -9.9188 C   0  0  0  0  0  0  0  0  0  0  0  0
   25.0176  -20.2346  -10.0175 C   0  0  2  0  0  0  0  0  0  0  0  0
   24.0924  -21.1627   -9.4232 N   0  0  0  0  0  0  0  0  0  0  0  0
   25.1564  -20.4271  -11.4775 C   0  0  0  0  0  0  0  0  0  0  0  0
   25.5651  -19.5000  -12.2309 O   0  0  0  0  0  0  0  0  0  0  0  0
   24.8347  -21.6506  -12.0675 N   0  0  0  0  0  0  0  0  0  0  0  0
   25.0444  -21.9039  -13.5467 C   0  0  1  0  0  0  0  0  0  0  0  0
   25.3371  -23.3586  -13.5769 C   0  0  0  0  0  0  0  0  0  0  0  0
   25.4567  -24.0415  -14.8551 C   0  0  0  0  0  0  0  0  0  0  0  0
   25.3265  -23.7125  -16.1603 C   0  0  0  0  0  0  0  0  0  0  0  0
   25.6236  -24.7770  -16.9506 N   0  0  0  0  0  0  0  0  0  0  0  0
   25.9412  -25.7718  -16.1272 C   0  0  0  0  0  0  0  0  0  0  0  0
   25.8505  -25.3614  -14.8745 N   0  0  0  0  0  0  0  0  0  0  0  0
   23.6457  -21.6842  -14.0606 C   0  0  0  0  0  0  0  0  0  0  0  0
   22.6782  -22.1810  -13.3730 O   0  0  0  0  0  0  0  0  0  0  0  0
   19.8778  -20.2244  -13.6955 N   0  0  0  0  0  0  0  0  0  0  0  0
   20.5190  -19.1626  -14.3954 C   0  0  0  0  0  0  0  0  0  0  0  0
   20.1973  -17.9881  -14.0885 O   0  0  0  0  0  0  0  0  0  0  0  0
   21.5204  -19.3914  -15.4374 C   0  0  0  0  0  0  0  0  0  0  0  0
   21.8815  -20.8509  -15.6237 C   0  0  2  0  0  0  0  0  0  0  0  0
   23.2896  -20.9863  -15.2158 N   0  0  0  0  0  0  0  0  0  0  0  0
   21.7291  -21.2795  -17.0205 C   0  0  0  0  0  0  0  0  0  0  0  0
   20.5906  -21.4666  -17.4897 O   0  0  0  0  0  0  0  0  0  0  0  0
   22.8315  -21.4779  -17.8178 O   0  0  0  0  0  0  0  0  0  0  0  0
  2  1  1  0
  3  2  1  0
  3  4  1  6
  5  6  1  1
  5  3  1  0
  7  5  1  0
  8  7  2  0
  9  7  1  0
 10  9  1  0
 11 12  1  0
 10 11  1  1
 12 16  1  0
 13 14  1  0
 13 12  2  0
 14 15  1  0
 15 16  2  0
 17 10  1  0
 17 18  2  0
 20 22  1  0
 20 19  1  0
 21 20  2  0
 23 22  1  6
 23 24  1  0
 24 17  1  0
 25 23  1  0
 26 25  2  0
 27 25  1  0
M  END
$$$$
