IHN.pdb
     RDKit          3D

 27 27  0  0  1  0  0  0  0  0999 V2000
   28.2359  -14.4966  -15.8233 C   0  0  0  0  0  0  0  0  0  0  0  0
   26.8269  -14.7615  -15.3711 C   0  0  0  0  0  0  0  0  0  0  0  0
   25.8932  -13.6774  -15.8629 C   0  0  2  0  0  0  0  0  0  0  0  0
   26.2799  -12.3833  -15.1461 C   0  0  0  0  0  0  0  0  0  0  0  0
   24.4921  -14.0677  -15.4916 C   0  0  2  0  0  0  0  0  0  0  0  0
   24.2784  -15.4691  -15.7385 N   0  0  0  0  0  0  0  0  0  0  0  0
   23.5061  -13.2116  -16.1864 C   0  0  0  0  0  0  0  0  0  0  0  0
   23.1905  -13.4114  -17.3925 O   0  0  0  0  0  0  0  0  0  0  0  0
   22.8932  -12.1484  -15.5211 N   0  0  0  0  0  0  0  0  0  0  0  0
   21.8662  -11.2660  -16.2013 C   0  0  1  0  0  0  0  0  0  0  0  0
   20.5874  -11.8795  -15.7641 C   0  0  0  0  0  0  0  0  0  0  0  0
   19.3321  -11.1998  -16.0411 C   0  0  0  0  0  0  0  0  0  0  0  0
   18.9456  -10.0749  -16.6843 C   0  0  0  0  0  0  0  0  0  0  0  0
   17.5914   -9.9652  -16.6776 N   0  0  0  0  0  0  0  0  0  0  0  0
   17.1371  -11.0316  -16.0259 C   0  0  0  0  0  0  0  0  0  0  0  0
   18.1517  -11.7832  -15.6364 N   0  0  0  0  0  0  0  0  0  0  0  0
   22.0671   -9.9809  -15.4420 C   0  0  0  0  0  0  0  0  0  0  0  0
   22.4567  -10.0713  -14.2191 O   0  0  0  0  0  0  0  0  0  0  0  0
   22.5903   -4.9303  -13.9730 N   0  0  0  0  0  0  0  0  0  0  0  0
   22.8357   -5.1323  -15.3614 C   0  0  0  0  0  0  0  0  0  0  0  0
   23.2531   -4.1514  -16.0252 O   0  0  0  0  0  0  0  0  0  0  0  0
   22.6231   -6.4190  -16.0246 C   0  0  0  0  0  0  0  0  0  0  0  0
   22.1184   -7.5052  -15.0969 C   0  0  2  0  0  0  0  0  0  0  0  0
   21.8754   -8.6897  -15.9367 N   0  0  0  0  0  0  0  0  0  0  0  0
   20.8733   -7.1152  -14.4219 C   0  0  0  0  0  0  0  0  0  0  0  0
   19.7952   -7.1480  -15.0447 O   0  0  0  0  0  0  0  0  0  0  0  0
   20.8843   -6.7126  -13.1072 O   0  0  0  0  0  0  0  0  0  0  0  0
  2  1  1  0
  3  2  1  0
  3  4  1  1
  5  6  1  6
  5  3  1  0
  7  5  1  0
  8  7  2  0
  9  7  1  0
 10  9  1  0
 11 12  1  0
 10 11  1  1
 12 16  1  0
 13 14  1  0
 13 12  2  0
 14 15  1  0
 15 16  2  0
 17 10  1  0
 17 18  2  0
 20 22  1  0
 20 19  1  0
 21 20  2  0
 23 22  1  6
 23 24  1  0
 24 17  1  0
 25 23  1  0
 26 25  2  0
 27 25  1  0
M  END
$$$$
