IHN.pdb
     RDKit          3D

 27 27  0  0  1  0  0  0  0  0999 V2000
   19.8066  -15.1050  -19.0217 C   0  0  0  0  0  0  0  0  0  0  0  0
   21.0276  -15.9803  -18.9679 C   0  0  0  0  0  0  0  0  0  0  0  0
   22.2329  -15.2538  -19.5232 C   0  0  2  0  0  0  0  0  0  0  0  0
   21.7570  -14.4306  -20.7207 C   0  0  0  0  0  0  0  0  0  0  0  0
   23.2283  -16.2829  -19.9743 C   0  0  2  0  0  0  0  0  0  0  0  0
   23.3525  -17.3268  -18.9916 N   0  0  0  0  0  0  0  0  0  0  0  0
   24.5259  -15.6522  -20.3002 C   0  0  0  0  0  0  0  0  0  0  0  0
   24.5947  -14.6084  -21.0071 O   0  0  0  0  0  0  0  0  0  0  0  0
   25.7210  -16.2005  -19.8316 N   0  0  0  0  0  0  0  0  0  0  0  0
   27.0591  -15.5375  -20.0886 C   0  0  1  0  0  0  0  0  0  0  0  0
   27.6277  -15.4391  -18.7211 C   0  0  0  0  0  0  0  0  0  0  0  0
   27.5868  -14.1685  -18.0151 C   0  0  0  0  0  0  0  0  0  0  0  0
   27.0905  -12.9321  -18.2464 C   0  0  0  0  0  0  0  0  0  0  0  0
   27.3024  -12.1266  -17.1730 N   0  0  0  0  0  0  0  0  0  0  0  0
   27.9338  -12.8716  -16.2704 C   0  0  0  0  0  0  0  0  0  0  0  0
   28.1156  -14.0911  -16.7455 N   0  0  0  0  0  0  0  0  0  0  0  0
   27.7711  -16.6402  -20.8271 C   0  0  0  0  0  0  0  0  0  0  0  0
   27.8036  -17.7998  -20.2703 O   0  0  0  0  0  0  0  0  0  0  0  0
   30.1628  -19.6957  -24.3895 N   0  0  0  0  0  0  0  0  0  0  0  0
   29.0026  -18.9855  -24.8117 C   0  0  0  0  0  0  0  0  0  0  0  0
   28.4830  -19.3210  -25.9046 O   0  0  0  0  0  0  0  0  0  0  0  0
   28.4084  -17.9017  -24.0286 C   0  0  0  0  0  0  0  0  0  0  0  0
   29.0763  -17.6846  -22.6862 C   0  0  2  0  0  0  0  0  0  0  0  0
   28.4016  -16.5315  -22.0677 N   0  0  0  0  0  0  0  0  0  0  0  0
   30.5105  -17.3998  -22.8269 C   0  0  0  0  0  0  0  0  0  0  0  0
   30.9115  -16.2207  -22.8151 O   0  0  0  0  0  0  0  0  0  0  0  0
   31.4179  -18.4226  -22.9724 O   0  0  0  0  0  0  0  0  0  0  0  0
  2  1  1  0
  3  2  1  0
  3  4  1  6
  5  6  1  1
  5  3  1  0
  7  5  1  0
  8  7  2  0
  9  7  1  0
 10  9  1  0
 11 12  1  0
 10 11  1  1
 12 16  1  0
 13 14  1  0
 13 12  2  0
 14 15  1  0
 15 16  2  0
 17 10  1  0
 17 18  2  0
 20 22  1  0
 20 19  1  0
 21 20  2  0
 23 22  1  6
 23 24  1  0
 24 17  1  0
 25 23  1  0
 26 25  2  0
 27 25  1  0
M  END
$$$$
