IHN.pdb
     RDKit          3D

 27 27  0  0  1  0  0  0  0  0999 V2000
   21.2798  -10.3080    7.5520 C   0  0  0  0  0  0  0  0  0  0  0  0
   20.6536  -11.0500    6.4043 C   0  0  0  0  0  0  0  0  0  0  0  0
   19.8117  -12.2024    6.9064 C   0  0  2  0  0  0  0  0  0  0  0  0
   20.6899  -13.0348    7.8414 C   0  0  0  0  0  0  0  0  0  0  0  0
   19.4010  -13.0282    5.7221 C   0  0  2  0  0  0  0  0  0  0  0  0
   18.6263  -12.2377    4.8025 N   0  0  0  0  0  0  0  0  0  0  0  0
   18.6931  -14.2527    6.1547 C   0  0  0  0  0  0  0  0  0  0  0  0
   18.0279  -14.2880    7.2272 O   0  0  0  0  0  0  0  0  0  0  0  0
   18.7435  -15.4141    5.3819 N   0  0  0  0  0  0  0  0  0  0  0  0
   17.9787  -16.6641    5.7676 C   0  0  1  0  0  0  0  0  0  0  0  0
   17.6555  -17.2542    4.4446 C   0  0  0  0  0  0  0  0  0  0  0  0
   16.4721  -16.8070    3.7276 C   0  0  0  0  0  0  0  0  0  0  0  0
   16.2111  -16.1779    2.5594 C   0  0  0  0  0  0  0  0  0  0  0  0
   14.8704  -16.0688    2.3678 N   0  0  0  0  0  0  0  0  0  0  0  0
   14.2981  -16.6363    3.4255 C   0  0  0  0  0  0  0  0  0  0  0  0
   15.2282  -17.0842    4.2503 N   0  0  0  0  0  0  0  0  0  0  0  0
   19.0813  -17.4732    6.3984 C   0  0  0  0  0  0  0  0  0  0  0  0
   20.2737  -17.3017    5.9462 O   0  0  0  0  0  0  0  0  0  0  0  0
   22.4210  -19.7220    9.5884 N   0  0  0  0  0  0  0  0  0  0  0  0
   22.0673  -18.3480    9.4631 C   0  0  0  0  0  0  0  0  0  0  0  0
   22.7727  -17.5094   10.0764 O   0  0  0  0  0  0  0  0  0  0  0  0
   20.9335  -17.8919    8.6586 C   0  0  0  0  0  0  0  0  0  0  0  0
   20.1130  -19.0208    8.0691 C   0  0  2  0  0  0  0  0  0  0  0  0
   18.9398  -18.3958    7.4364 N   0  0  0  0  0  0  0  0  0  0  0  0
   19.6707  -19.9723    9.0971 C   0  0  0  0  0  0  0  0  0  0  0  0
   18.6539  -19.7253    9.7727 O   0  0  0  0  0  0  0  0  0  0  0  0
   20.3685  -21.1353    9.3235 O   0  0  0  0  0  0  0  0  0  0  0  0
  2  1  1  0
  3  2  1  0
  3  4  1  1
  5  6  1  6
  5  3  1  0
  7  5  1  0
  8  7  2  0
  9  7  1  0
 10  9  1  0
 11 12  1  0
 10 11  1  6
 12 16  1  0
 13 14  1  0
 13 12  2  0
 14 15  1  0
 15 16  2  0
 17 10  1  0
 17 18  2  0
 20 22  1  0
 20 19  1  0
 21 20  2  0
 23 22  1  1
 23 24  1  0
 24 17  1  0
 25 23  1  0
 26 25  2  0
 27 25  1  0
M  END
$$$$
