IHN.pdb
     RDKit          3D

 27 27  0  0  1  0  0  0  0  0999 V2000
   28.5753  -20.6029   -7.1298 C   0  0  0  0  0  0  0  0  0  0  0  0
   28.6716  -21.1058   -8.5432 C   0  0  0  0  0  0  0  0  0  0  0  0
   27.5144  -20.5959   -9.3738 C   0  0  2  0  0  0  0  0  0  0  0  0
   26.2380  -21.2201   -8.8085 C   0  0  0  0  0  0  0  0  0  0  0  0
   27.7222  -21.0514  -10.7889 C   0  0  2  0  0  0  0  0  0  0  0  0
   29.1169  -20.9895  -11.1373 N   0  0  0  0  0  0  0  0  0  0  0  0
   26.8692  -20.2810  -11.7200 C   0  0  0  0  0  0  0  0  0  0  0  0
   26.9481  -19.0236  -11.8024 O   0  0  0  0  0  0  0  0  0  0  0  0
   25.9440  -20.9300  -12.5394 N   0  0  0  0  0  0  0  0  0  0  0  0
   25.0635  -20.1682  -13.5092 C   0  0  1  0  0  0  0  0  0  0  0  0
   25.6892  -20.4866  -14.8168 C   0  0  0  0  0  0  0  0  0  0  0  0
   25.0341  -20.0725  -16.0472 C   0  0  0  0  0  0  0  0  0  0  0  0
   24.4568  -18.9452  -16.5210 C   0  0  0  0  0  0  0  0  0  0  0  0
   24.0498  -19.1233  -17.8050 N   0  0  0  0  0  0  0  0  0  0  0  0
   24.3794  -20.3705  -18.1279 C   0  0  0  0  0  0  0  0  0  0  0  0
   24.9668  -20.9579  -17.1003 N   0  0  0  0  0  0  0  0  0  0  0  0
   23.7829  -20.9514  -13.3857 C   0  0  0  0  0  0  0  0  0  0  0  0
   23.8799  -22.2019  -13.0985 O   0  0  0  0  0  0  0  0  0  0  0  0
   18.8652  -22.6946  -12.9570 N   0  0  0  0  0  0  0  0  0  0  0  0
   19.2728  -21.6454  -12.0843 C   0  0  0  0  0  0  0  0  0  0  0  0
   18.5326  -21.3865  -11.1034 O   0  0  0  0  0  0  0  0  0  0  0  0
   20.5009  -20.8770  -12.2887 C   0  0  0  0  0  0  0  0  0  0  0  0
   21.3145  -21.3367  -13.4812 C   0  0  2  0  0  0  0  0  0  0  0  0
   22.4895  -20.4523  -13.5488 N   0  0  0  0  0  0  0  0  0  0  0  0
   20.5531  -21.2423  -14.7339 C   0  0  0  0  0  0  0  0  0  0  0  0
   20.3375  -20.1269  -15.2445 O   0  0  0  0  0  0  0  0  0  0  0  0
   20.0737  -22.3738  -15.3506 O   0  0  0  0  0  0  0  0  0  0  0  0
  2  1  1  0
  3  2  1  0
  3  4  1  1
  5  6  1  6
  5  3  1  0
  7  5  1  0
  8  7  2  0
  9  7  1  0
 10  9  1  0
 11 12  1  0
 10 11  1  6
 12 16  1  0
 13 14  1  0
 13 12  2  0
 14 15  1  0
 15 16  2  0
 17 10  1  0
 17 18  2  0
 20 22  1  0
 20 19  1  0
 21 20  2  0
 23 22  1  1
 23 24  1  0
 24 17  1  0
 25 23  1  0
 26 25  2  0
 27 25  1  0
M  END
$$$$
