IHN.pdb
     RDKit          3D

 27 27  0  0  1  0  0  0  0  0999 V2000
   23.3597  -16.1775  -20.9908 C   0  0  0  0  0  0  0  0  0  0  0  0
   24.5249  -16.9090  -20.3849 C   0  0  0  0  0  0  0  0  0  0  0  0
   24.0515  -17.9152  -19.3590 C   0  0  2  0  0  0  0  0  0  0  0  0
   23.3364  -17.1372  -18.2539 C   0  0  0  0  0  0  0  0  0  0  0  0
   25.2586  -18.6080  -18.7967 C   0  0  2  0  0  0  0  0  0  0  0  0
   26.0094  -19.2424  -19.8476 N   0  0  0  0  0  0  0  0  0  0  0  0
   24.8719  -19.5518  -17.7254 C   0  0  0  0  0  0  0  0  0  0  0  0
   24.3504  -20.6715  -17.9871 O   0  0  0  0  0  0  0  0  0  0  0  0
   25.0738  -19.2259  -16.3832 N   0  0  0  0  0  0  0  0  0  0  0  0
   24.6187  -20.1385  -15.2624 C   0  0  1  0  0  0  0  0  0  0  0  0
   25.7037  -19.9727  -14.2634 C   0  0  0  0  0  0  0  0  0  0  0  0
   25.5040  -20.4396  -12.9008 C   0  0  0  0  0  0  0  0  0  0  0  0
   24.5160  -21.0475  -12.2059 C   0  0  0  0  0  0  0  0  0  0  0  0
   24.9197  -21.3077  -10.9350 N   0  0  0  0  0  0  0  0  0  0  0  0
   26.1678  -20.8581  -10.8439 C   0  0  0  0  0  0  0  0  0  0  0  0
   26.5406  -20.3368  -11.9994 N   0  0  0  0  0  0  0  0  0  0  0  0
   23.4031  -19.3911  -14.7804 C   0  0  0  0  0  0  0  0  0  0  0  0
   23.1368  -18.2671  -15.3472 O   0  0  0  0  0  0  0  0  0  0  0  0
   20.2022  -17.7629  -15.9258 N   0  0  0  0  0  0  0  0  0  0  0  0
   20.1213  -19.1718  -16.1186 C   0  0  0  0  0  0  0  0  0  0  0  0
   19.6395  -19.5820  -17.2033 O   0  0  0  0  0  0  0  0  0  0  0  0
   20.5736  -20.1360  -15.1153 C   0  0  0  0  0  0  0  0  0  0  0  0
   21.0877  -19.4939  -13.8431 C   0  0  2  0  0  0  0  0  0  0  0  0
   22.5261  -19.8002  -13.7745 N   0  0  0  0  0  0  0  0  0  0  0  0
   20.4131  -20.0230  -12.6503 C   0  0  0  0  0  0  0  0  0  0  0  0
   20.8087  -21.0862  -12.1360 O   0  0  0  0  0  0  0  0  0  0  0  0
   19.3468  -19.3569  -12.0937 O   0  0  0  0  0  0  0  0  0  0  0  0
  2  1  1  0
  3  2  1  0
  3  4  1  1
  5  6  1  6
  5  3  1  0
  7  5  1  0
  8  7  2  0
  9  7  1  0
 10  9  1  0
 11 12  1  0
 10 11  1  1
 12 16  1  0
 13 14  1  0
 13 12  2  0
 14 15  1  0
 15 16  2  0
 17 10  1  0
 17 18  2  0
 20 22  1  0
 20 19  1  0
 21 20  2  0
 23 22  1  6
 23 24  1  0
 24 17  1  0
 25 23  1  0
 26 25  2  0
 27 25  1  0
M  END
$$$$
