IHN.pdb
     RDKit          3D

 27 27  0  0  1  0  0  0  0  0999 V2000
   15.8063  -13.3594  -17.2644 C   0  0  0  0  0  0  0  0  0  0  0  0
   17.2612  -13.3158  -17.6402 C   0  0  0  0  0  0  0  0  0  0  0  0
   18.0589  -12.5497  -16.6079 C   0  0  2  0  0  0  0  0  0  0  0  0
   17.5431  -11.1102  -16.6098 C   0  0  0  0  0  0  0  0  0  0  0  0
   19.5014  -12.5757  -17.0227 C   0  0  2  0  0  0  0  0  0  0  0  0
   19.9188  -13.9233  -17.3061 N   0  0  0  0  0  0  0  0  0  0  0  0
   20.3527  -11.9190  -16.0068 C   0  0  0  0  0  0  0  0  0  0  0  0
   20.3508  -12.2927  -14.8009 O   0  0  0  0  0  0  0  0  0  0  0  0
   21.1879  -10.8570  -16.3576 N   0  0  0  0  0  0  0  0  0  0  0  0
   22.0930  -10.1846  -15.3452 C   0  0  1  0  0  0  0  0  0  0  0  0
   23.4391  -10.4168  -15.9257 C   0  0  0  0  0  0  0  0  0  0  0  0
   24.1476  -11.6511  -15.6274 C   0  0  0  0  0  0  0  0  0  0  0  0
   23.8858  -12.7965  -14.9579 C   0  0  0  0  0  0  0  0  0  0  0  0
   24.9321  -13.6570  -15.0612 N   0  0  0  0  0  0  0  0  0  0  0  0
   25.8477  -13.0390  -15.8016 C   0  0  0  0  0  0  0  0  0  0  0  0
   25.4066  -11.8437  -16.1521 N   0  0  0  0  0  0  0  0  0  0  0  0
   21.7183   -8.7420  -15.5622 C   0  0  0  0  0  0  0  0  0  0  0  0
   21.4286   -8.3803  -16.7625 O   0  0  0  0  0  0  0  0  0  0  0  0
   20.0764   -3.8103  -15.2899 N   0  0  0  0  0  0  0  0  0  0  0  0
   19.2438   -4.9346  -15.0228 C   0  0  0  0  0  0  0  0  0  0  0  0
   18.0053   -4.7371  -14.9596 O   0  0  0  0  0  0  0  0  0  0  0  0
   19.7739   -6.2840  -14.8254 C   0  0  0  0  0  0  0  0  0  0  0  0
   21.2837   -6.3645  -14.9226 C   0  0  2  0  0  0  0  0  0  0  0  0
   21.6491   -7.7496  -14.5830 N   0  0  0  0  0  0  0  0  0  0  0  0
   21.9433   -5.4380  -13.9928 C   0  0  0  0  0  0  0  0  0  0  0  0
   22.4023   -5.8640  -12.9162 O   0  0  0  0  0  0  0  0  0  0  0  0
   22.0595   -4.1023  -14.2977 O   0  0  0  0  0  0  0  0  0  0  0  0
  2  1  1  0
  3  2  1  0
  3  4  1  6
  5  6  1  1
  5  3  1  0
  7  5  1  0
  8  7  2  0
  9  7  1  0
 10  9  1  0
 11 12  1  0
 10 11  1  6
 12 16  1  0
 13 14  1  0
 13 12  2  0
 14 15  1  0
 15 16  2  0
 17 10  1  0
 17 18  2  0
 20 22  1  0
 20 19  1  0
 21 20  2  0
 23 22  1  1
 23 24  1  0
 24 17  1  0
 25 23  1  0
 26 25  2  0
 27 25  1  0
M  END
$$$$
