IHN.pdb
     RDKit          3D

 27 27  0  0  1  0  0  0  0  0999 V2000
   28.5327  -12.8201  -15.3457 C   0  0  0  0  0  0  0  0  0  0  0  0
   27.0470  -13.0026  -15.4854 C   0  0  0  0  0  0  0  0  0  0  0  0
   26.4416  -11.8735  -16.2901 C   0  0  2  0  0  0  0  0  0  0  0  0
   26.6437  -10.5853  -15.4915 C   0  0  0  0  0  0  0  0  0  0  0  0
   24.9749  -12.1510  -16.4490 C   0  0  2  0  0  0  0  0  0  0  0  0
   24.7619  -13.5179  -16.8449 N   0  0  0  0  0  0  0  0  0  0  0  0
   24.3552  -11.1859  -17.3830 C   0  0  0  0  0  0  0  0  0  0  0  0
   24.7773  -11.0448  -18.5645 O   0  0  0  0  0  0  0  0  0  0  0  0
   23.2774  -10.3963  -16.9785 N   0  0  0  0  0  0  0  0  0  0  0  0
   22.5966   -9.4284  -17.9250 C   0  0  1  0  0  0  0  0  0  0  0  0
   21.4346  -10.2201  -18.4002 C   0  0  0  0  0  0  0  0  0  0  0  0
   21.6098  -11.1759  -19.4820 C   0  0  0  0  0  0  0  0  0  0  0  0
   21.6410  -12.5219  -19.6077 C   0  0  0  0  0  0  0  0  0  0  0  0
   21.7812  -12.8742  -20.9124 N   0  0  0  0  0  0  0  0  0  0  0  0
   21.8358  -11.7366  -21.5989 C   0  0  0  0  0  0  0  0  0  0  0  0
   21.7359  -10.7105  -20.7724 N   0  0  0  0  0  0  0  0  0  0  0  0
   22.1055   -8.3931  -16.9476 C   0  0  0  0  0  0  0  0  0  0  0  0
   21.8018   -8.7947  -15.7636 O   0  0  0  0  0  0  0  0  0  0  0  0
   21.2111   -4.2735  -13.9819 N   0  0  0  0  0  0  0  0  0  0  0  0
   22.3316   -5.1526  -13.9997 C   0  0  0  0  0  0  0  0  0  0  0  0
   23.1521   -5.0656  -13.0530 O   0  0  0  0  0  0  0  0  0  0  0  0
   22.5519   -6.1339  -15.0624 C   0  0  0  0  0  0  0  0  0  0  0  0
   21.4925   -6.1060  -16.1451 C   0  0  2  0  0  0  0  0  0  0  0  0
   21.9491   -7.0287  -17.1975 N   0  0  0  0  0  0  0  0  0  0  0  0
   21.3201   -4.7607  -16.7091 C   0  0  0  0  0  0  0  0  0  0  0  0
   20.8957   -3.8373  -15.9889 O   0  0  0  0  0  0  0  0  0  0  0  0
   21.6219   -4.5083  -18.0266 O   0  0  0  0  0  0  0  0  0  0  0  0
  2  1  1  0
  3  2  1  0
  3  4  1  1
  5  6  1  6
  5  3  1  0
  7  5  1  0
  8  7  2  0
  9  7  1  0
 10  9  1  0
 11 12  1  0
 10 11  1  1
 12 16  1  0
 13 14  1  0
 13 12  2  0
 14 15  1  0
 15 16  2  0
 17 10  1  0
 17 18  2  0
 20 22  1  0
 20 19  1  0
 21 20  2  0
 23 22  1  1
 23 24  1  0
 24 17  1  0
 25 23  1  0
 26 25  2  0
 27 25  1  0
M  END
$$$$
