IHN.pdb
     RDKit          3D

 27 27  0  0  1  0  0  0  0  0999 V2000
   23.6380  -16.0730  -16.3873 C   0  0  0  0  0  0  0  0  0  0  0  0
   22.8126  -15.1386  -15.5474 C   0  0  0  0  0  0  0  0  0  0  0  0
   23.0615  -13.6999  -15.9439 C   0  0  2  0  0  0  0  0  0  0  0  0
   24.3843  -13.2738  -15.3059 C   0  0  0  0  0  0  0  0  0  0  0  0
   21.9391  -12.8666  -15.3970 C   0  0  2  0  0  0  0  0  0  0  0  0
   20.7827  -13.6848  -15.1438 N   0  0  0  0  0  0  0  0  0  0  0  0
   21.6440  -11.7280  -16.2938 C   0  0  0  0  0  0  0  0  0  0  0  0
   22.2962  -11.5382  -17.3581 O   0  0  0  0  0  0  0  0  0  0  0  0
   20.6276  -10.8229  -15.9836 N   0  0  0  0  0  0  0  0  0  0  0  0
   20.2937   -9.6552  -16.8897 C   0  0  1  0  0  0  0  0  0  0  0  0
   18.8927   -9.9520  -17.2797 C   0  0  0  0  0  0  0  0  0  0  0  0
   18.6311  -10.8504  -18.3927 C   0  0  0  0  0  0  0  0  0  0  0  0
   19.0903  -11.0103  -19.6545 C   0  0  0  0  0  0  0  0  0  0  0  0
   18.5076  -12.0896  -20.2390 N   0  0  0  0  0  0  0  0  0  0  0  0
   17.6825  -12.6018  -19.3306 C   0  0  0  0  0  0  0  0  0  0  0  0
   17.7365  -11.8839  -18.2225 N   0  0  0  0  0  0  0  0  0  0  0  0
   20.2860   -8.5291  -15.8896 C   0  0  0  0  0  0  0  0  0  0  0  0
   20.3727   -8.8431  -14.6448 O   0  0  0  0  0  0  0  0  0  0  0  0
   21.7559   -5.2352  -12.3427 N   0  0  0  0  0  0  0  0  0  0  0  0
   22.2740   -5.3656  -13.6631 C   0  0  0  0  0  0  0  0  0  0  0  0
   23.1613   -4.5521  -14.0208 O   0  0  0  0  0  0  0  0  0  0  0  0
   21.8164   -6.3960  -14.5956 C   0  0  0  0  0  0  0  0  0  0  0  0
   20.4252   -6.1476  -15.1415 C   0  0  2  0  0  0  0  0  0  0  0  0
   20.1977   -7.1665  -16.1795 N   0  0  0  0  0  0  0  0  0  0  0  0
   20.2978   -4.8074  -15.7293 C   0  0  0  0  0  0  0  0  0  0  0  0
   19.9401   -3.8505  -15.0168 O   0  0  0  0  0  0  0  0  0  0  0  0
   20.5691   -4.5965  -17.0607 O   0  0  0  0  0  0  0  0  0  0  0  0
  2  1  1  0
  3  2  1  0
  3  4  1  1
  5  6  1  6
  5  3  1  0
  7  5  1  0
  8  7  2  0
  9  7  1  0
 10  9  1  0
 11 12  1  0
 10 11  1  1
 12 16  1  0
 13 14  1  0
 13 12  2  0
 14 15  1  0
 15 16  2  0
 17 10  1  0
 17 18  2  0
 20 22  1  0
 20 19  1  0
 21 20  2  0
 23 22  1  6
 23 24  1  0
 24 17  1  0
 25 23  1  0
 26 25  2  0
 27 25  1  0
M  END
$$$$
