IHN.pdb
     RDKit          3D

 27 27  0  0  1  0  0  0  0  0999 V2000
   25.3943  -25.6343  -20.1079 C   0  0  0  0  0  0  0  0  0  0  0  0
   25.9417  -24.9618  -18.8798 C   0  0  0  0  0  0  0  0  0  0  0  0
   24.8248  -24.5899  -17.9294 C   0  0  2  0  0  0  0  0  0  0  0  0
   23.8750  -23.6593  -18.6844 C   0  0  0  0  0  0  0  0  0  0  0  0
   25.4300  -23.8647  -16.7627 C   0  0  2  0  0  0  0  0  0  0  0  0
   26.4249  -24.6840  -16.1228 N   0  0  0  0  0  0  0  0  0  0  0  0
   24.3807  -23.4088  -15.8252 C   0  0  0  0  0  0  0  0  0  0  0  0
   23.7419  -24.2224  -15.1012 O   0  0  0  0  0  0  0  0  0  0  0  0
   24.0645  -22.0536  -15.7158 N   0  0  0  0  0  0  0  0  0  0  0  0
   23.0314  -21.5516  -14.7274 C   0  0  1  0  0  0  0  0  0  0  0  0
   23.8630  -20.7815  -13.7692 C   0  0  0  0  0  0  0  0  0  0  0  0
   24.6523  -21.4877  -12.7729 C   0  0  0  0  0  0  0  0  0  0  0  0
   24.8774  -22.7767  -12.4317 C   0  0  0  0  0  0  0  0  0  0  0  0
   25.7855  -22.8498  -11.4237 N   0  0  0  0  0  0  0  0  0  0  0  0
   26.1253  -21.5958  -11.1404 C   0  0  0  0  0  0  0  0  0  0  0  0
   25.4660  -20.7650  -11.9285 N   0  0  0  0  0  0  0  0  0  0  0  0
   22.2746  -20.5808  -15.5954 C   0  0  0  0  0  0  0  0  0  0  0  0
   22.8544  -20.1708  -16.6684 O   0  0  0  0  0  0  0  0  0  0  0  0
   19.2654  -21.4627  -19.6423 N   0  0  0  0  0  0  0  0  0  0  0  0
   18.9494  -20.9737  -18.3424 C   0  0  0  0  0  0  0  0  0  0  0  0
   17.8290  -20.4290  -18.1842 O   0  0  0  0  0  0  0  0  0  0  0  0
   19.8683  -21.0847  -17.2091 C   0  0  0  0  0  0  0  0  0  0  0  0
   20.0675  -19.7841  -16.4582 C   0  0  2  0  0  0  0  0  0  0  0  0
   20.9945  -20.0796  -15.3533 N   0  0  0  0  0  0  0  0  0  0  0  0
   18.8047  -19.2642  -15.9170 C   0  0  0  0  0  0  0  0  0  0  0  0
   18.3970  -19.6597  -14.8085 O   0  0  0  0  0  0  0  0  0  0  0  0
   18.0651  -18.3442  -16.6221 O   0  0  0  0  0  0  0  0  0  0  0  0
  2  1  1  0
  3  2  1  0
  3  4  1  6
  5  6  1  1
  5  3  1  0
  7  5  1  0
  8  7  2  0
  9  7  1  0
 10  9  1  0
 11 12  1  0
 10 11  1  1
 12 16  1  0
 13 14  1  0
 13 12  2  0
 14 15  1  0
 15 16  2  0
 17 10  1  0
 17 18  2  0
 20 22  1  0
 20 19  1  0
 21 20  2  0
 23 22  1  1
 23 24  1  0
 24 17  1  0
 25 23  1  0
 26 25  2  0
 27 25  1  0
M  END
$$$$
