FPM.pdb
     RDKit          3D

 27 28  0  0  1  0  0  0  0  0999 V2000
    6.1709  -18.3337   24.9077 N   0  0  0  0  0  0  0  0  0  0  0  0
    6.4364  -16.8959   24.7684 C   0  0  1  0  0  0  0  0  0  0  0  0
    6.3504  -16.2262   26.1240 C   0  0  0  0  0  0  0  0  0  0  0  0
    6.2663  -14.7574   26.0500 C   0  0  0  0  0  0  0  0  0  0  0  0
    5.0402  -14.1271   26.1241 C   0  0  0  0  0  0  0  0  0  0  0  0
    4.9258  -12.7443   26.0615 C   0  0  0  0  0  0  0  0  0  0  0  0
    6.0479  -11.9820   25.9232 C   0  0  0  0  0  0  0  0  0  0  0  0
    7.2745  -12.5880   25.8477 C   0  0  0  0  0  0  0  0  0  0  0  0
    7.3782  -13.9465   25.9100 C   0  0  0  0  0  0  0  0  0  0  0  0
    7.6869  -16.6652   24.0521 C   0  0  0  0  0  0  0  0  0  0  0  0
    8.7065  -17.3550   24.4066 O   0  0  0  0  0  0  0  0  0  0  0  0
    7.8960  -15.7406   22.9818 N   0  0  0  0  0  0  0  0  0  0  0  0
    6.8571  -14.8195   22.5447 C   0  0  0  0  0  0  0  0  0  0  0  0
    7.2874  -14.4072   21.1399 C   0  0  0  0  0  0  0  0  0  0  0  0
    8.8004  -14.3033   21.3884 C   0  0  0  0  0  0  0  0  0  0  0  0
    9.0585  -15.5521   22.1772 C   0  0  1  0  0  0  0  0  0  0  0  0
   10.2919  -15.3272   22.9754 C   0  0  0  0  0  0  0  0  0  0  0  0
   10.7543  -14.1960   23.2209 O   0  0  0  0  0  0  0  0  0  0  0  0
   11.6856  -13.3693   28.6359 C   0  0  0  0  0  0  0  0  0  0  0  0
   11.1869  -15.0879   28.3629 S   0  0  0  0  0  0  0  0  0  0  0  0
   12.1552  -15.8255   26.9923 C   0  0  0  0  0  0  0  0  0  0  0  0
   11.3232  -15.8647   25.7584 C   0  0  0  0  0  0  0  0  0  0  0  0
   11.9905  -16.3750   24.5289 C   0  0  2  0  0  0  0  0  0  0  0  0
   10.9590  -16.4686   23.4721 N   0  0  0  0  0  0  0  0  0  0  0  0
   12.5500  -17.7206   24.7082 C   0  0  0  0  0  0  0  0  0  0  0  0
   11.9996  -18.7081   24.1790 O   0  0  0  0  0  0  0  0  0  0  0  0
   13.6864  -17.9131   25.4593 O   0  0  0  0  0  0  0  0  0  0  0  0
  2  1  1  1
  3  4  1  0
  3  2  1  0
  4  9  2  0
  5  6  2  0
  5  4  1  0
  6  7  1  0
  7  8  2  0
  9  8  1  0
 10  2  1  0
 10 11  2  0
 12 10  1  0
 13 12  1  0
 14 15  1  0
 14 13  1  0
 15 16  1  0
 16 12  1  0
 16 17  1  1
 18 17  2  0
 20 19  1  0
 21 20  1  0
 22 21  1  0
 23 22  1  1
 23 24  1  0
 24 17  1  0
 25 23  1  0
 26 25  2  0
 27 25  1  0
M  END
$$$$
