FPM.pdb
     RDKit          3D

 27 28  0  0  1  0  0  0  0  0999 V2000
    5.9564  -18.1259   24.8669 N   0  0  0  0  0  0  0  0  0  0  0  0
    6.2948  -16.7001   24.7679 C   0  0  1  0  0  0  0  0  0  0  0  0
    6.2421  -16.0652   26.1418 C   0  0  0  0  0  0  0  0  0  0  0  0
    6.2448  -14.5924   26.1094 C   0  0  0  0  0  0  0  0  0  0  0  0
    5.0639  -13.8922   26.2541 C   0  0  0  0  0  0  0  0  0  0  0  0
    5.0316  -12.5038   26.2322 C   0  0  0  0  0  0  0  0  0  0  0  0
    6.1912  -11.8065   26.0641 C   0  0  0  0  0  0  0  0  0  0  0  0
    7.3742  -12.4825   25.9186 C   0  0  0  0  0  0  0  0  0  0  0  0
    7.3972  -13.8460   25.9412 C   0  0  0  0  0  0  0  0  0  0  0  0
    7.5560  -16.5134   24.0573 C   0  0  0  0  0  0  0  0  0  0  0  0
    8.5833  -17.1344   24.5045 O   0  0  0  0  0  0  0  0  0  0  0  0
    7.7679  -15.7021   22.8993 N   0  0  0  0  0  0  0  0  0  0  0  0
    6.7008  -14.9073   22.3091 C   0  0  0  0  0  0  0  0  0  0  0  0
    7.1831  -14.6265   20.8888 C   0  0  0  0  0  0  0  0  0  0  0  0
    8.6706  -14.3944   21.1970 C   0  0  0  0  0  0  0  0  0  0  0  0
    8.9598  -15.5272   22.1359 C   0  0  1  0  0  0  0  0  0  0  0  0
   10.1307  -15.1325   22.9620 C   0  0  0  0  0  0  0  0  0  0  0  0
   10.3538  -13.9599   23.3209 O   0  0  0  0  0  0  0  0  0  0  0  0
   12.1804  -14.0726   29.5548 C   0  0  0  0  0  0  0  0  0  0  0  0
   11.1083  -14.5923   28.1919 S   0  0  0  0  0  0  0  0  0  0  0  0
   12.0859  -15.4481   26.8989 C   0  0  0  0  0  0  0  0  0  0  0  0
   11.2876  -15.5345   25.6453 C   0  0  0  0  0  0  0  0  0  0  0  0
   12.0243  -15.9567   24.4220 C   0  0  2  0  0  0  0  0  0  0  0  0
   11.0241  -16.1552   23.3497 N   0  0  0  0  0  0  0  0  0  0  0  0
   12.7277  -17.2331   24.5997 C   0  0  0  0  0  0  0  0  0  0  0  0
   13.8823  -17.2563   25.0733 O   0  0  0  0  0  0  0  0  0  0  0  0
   12.1265  -18.4197   24.2487 O   0  0  0  0  0  0  0  0  0  0  0  0
  2  1  1  1
  3  4  1  0
  3  2  1  0
  4  9  2  0
  5  6  2  0
  5  4  1  0
  6  7  1  0
  7  8  2  0
  9  8  1  0
 10  2  1  0
 10 11  2  0
 12 10  1  0
 13 12  1  0
 14 15  1  0
 14 13  1  0
 15 16  1  0
 16 12  1  0
 16 17  1  1
 18 17  2  0
 20 19  1  0
 21 20  1  0
 22 21  1  0
 23 22  1  1
 23 24  1  0
 24 17  1  0
 25 23  1  0
 26 25  2  0
 27 25  1  0
M  END
$$$$
