FPM.pdb
     RDKit          3D

 27 28  0  0  1  0  0  0  0  0999 V2000
    6.0715  -18.1489   24.9800 N   0  0  0  0  0  0  0  0  0  0  0  0
    6.4427  -16.7284   24.9395 C   0  0  1  0  0  0  0  0  0  0  0  0
    6.4521  -16.1619   26.3440 C   0  0  0  0  0  0  0  0  0  0  0  0
    6.4622  -14.6893   26.3839 C   0  0  0  0  0  0  0  0  0  0  0  0
    5.2810  -13.9903   26.5325 C   0  0  0  0  0  0  0  0  0  0  0  0
    5.2555  -12.6023   26.5779 C   0  0  0  0  0  0  0  0  0  0  0  0
    6.4223  -11.9043   26.4739 C   0  0  0  0  0  0  0  0  0  0  0  0
    7.6055  -12.5791   26.3259 C   0  0  0  0  0  0  0  0  0  0  0  0
    7.6219  -13.9422   26.2822 C   0  0  0  0  0  0  0  0  0  0  0  0
    7.6838  -16.5365   24.1958 C   0  0  0  0  0  0  0  0  0  0  0  0
    8.6560  -17.3296   24.4545 O   0  0  0  0  0  0  0  0  0  0  0  0
    7.9314  -15.5456   23.1953 N   0  0  0  0  0  0  0  0  0  0  0  0
    6.9132  -14.5872   22.7909 C   0  0  0  0  0  0  0  0  0  0  0  0
    7.3872  -14.0878   21.4290 C   0  0  0  0  0  0  0  0  0  0  0  0
    8.8932  -14.0160   21.7263 C   0  0  0  0  0  0  0  0  0  0  0  0
    9.1180  -15.3166   22.4379 C   0  0  1  0  0  0  0  0  0  0  0  0
   10.3299  -15.1574   23.2835 C   0  0  0  0  0  0  0  0  0  0  0  0
   10.8485  -14.0532   23.5393 O   0  0  0  0  0  0  0  0  0  0  0  0
   11.8357  -12.5190   28.1530 C   0  0  0  0  0  0  0  0  0  0  0  0
   12.1795  -14.2760   27.8855 S   0  0  0  0  0  0  0  0  0  0  0  0
   11.4550  -14.8356   26.2974 C   0  0  0  0  0  0  0  0  0  0  0  0
   12.0839  -16.1213   25.8878 C   0  0  0  0  0  0  0  0  0  0  0  0
   12.2561  -16.3344   24.4241 C   0  0  2  0  0  0  0  0  0  0  0  0
   10.9075  -16.3314   23.8150 N   0  0  0  0  0  0  0  0  0  0  0  0
   12.8696  -17.6311   24.1113 C   0  0  0  0  0  0  0  0  0  0  0  0
   14.0817  -17.8260   24.3364 O   0  0  0  0  0  0  0  0  0  0  0  0
   12.1199  -18.6485   23.5676 O   0  0  0  0  0  0  0  0  0  0  0  0
  2  1  1  1
  3  4  1  0
  3  2  1  0
  4  9  2  0
  5  6  2  0
  5  4  1  0
  6  7  1  0
  7  8  2  0
  9  8  1  0
 10  2  1  0
 10 11  2  0
 12 10  1  0
 13 12  1  0
 14 15  1  0
 14 13  1  0
 15 16  1  0
 16 12  1  0
 16 17  1  1
 18 17  2  0
 20 19  1  0
 21 20  1  0
 22 21  1  0
 23 22  1  1
 23 24  1  0
 24 17  1  0
 25 23  1  0
 26 25  2  0
 27 25  1  0
M  END
$$$$
