FPM.pdb
     RDKit          3D

 27 28  0  0  1  0  0  0  0  0999 V2000
    5.4219  -17.9434   24.3656 N   0  0  0  0  0  0  0  0  0  0  0  0
    6.0611  -16.6244   24.4598 C   0  0  1  0  0  0  0  0  0  0  0  0
    6.0667  -16.1604   25.9014 C   0  0  0  0  0  0  0  0  0  0  0  0
    6.6185  -14.8064   26.0812 C   0  0  0  0  0  0  0  0  0  0  0  0
    7.0417  -14.0778   24.9876 C   0  0  0  0  0  0  0  0  0  0  0  0
    7.5630  -12.7973   25.1214 C   0  0  0  0  0  0  0  0  0  0  0  0
    7.6630  -12.2379   26.3609 C   0  0  0  0  0  0  0  0  0  0  0  0
    7.2485  -12.9443   27.4594 C   0  0  0  0  0  0  0  0  0  0  0  0
    6.7378  -14.2012   27.3193 C   0  0  0  0  0  0  0  0  0  0  0  0
    7.3714  -16.6346   23.8169 C   0  0  0  0  0  0  0  0  0  0  0  0
    8.2804  -17.3699   24.3405 O   0  0  0  0  0  0  0  0  0  0  0  0
    7.7515  -15.9030   22.6488 N   0  0  0  0  0  0  0  0  0  0  0  0
    6.7707  -15.2448   21.7983 C   0  0  0  0  0  0  0  0  0  0  0  0
    7.4998  -15.0395   20.4735 C   0  0  0  0  0  0  0  0  0  0  0  0
    8.8820  -14.6661   21.0318 C   0  0  0  0  0  0  0  0  0  0  0  0
    9.0551  -15.6946   22.1091 C   0  0  1  0  0  0  0  0  0  0  0  0
   10.0170  -15.1440   23.0994 C   0  0  0  0  0  0  0  0  0  0  0  0
    9.8881  -14.0249   23.6329 O   0  0  0  0  0  0  0  0  0  0  0  0
   10.1928  -13.2766   29.2108 C   0  0  0  0  0  0  0  0  0  0  0  0
   10.6435  -14.7911   28.3275 S   0  0  0  0  0  0  0  0  0  0  0  0
   10.9815  -14.4267   26.5631 C   0  0  0  0  0  0  0  0  0  0  0  0
   11.1765  -15.7013   25.8190 C   0  0  0  0  0  0  0  0  0  0  0  0
   12.0066  -15.6242   24.5851 C   0  0  2  0  0  0  0  0  0  0  0  0
   11.1274  -15.9475   23.4396 N   0  0  0  0  0  0  0  0  0  0  0  0
   13.1016  -16.6024   24.5801 C   0  0  0  0  0  0  0  0  0  0  0  0
   12.8776  -17.7982   24.3010 O   0  0  0  0  0  0  0  0  0  0  0  0
   14.3874  -16.2170   24.8813 O   0  0  0  0  0  0  0  0  0  0  0  0
  2  1  1  1
  3  4  1  0
  3  2  1  0
  4  9  2  0
  5  6  2  0
  5  4  1  0
  6  7  1  0
  7  8  2  0
  9  8  1  0
 10  2  1  0
 10 11  2  0
 12 10  1  0
 13 12  1  0
 14 15  1  0
 14 13  1  0
 15 16  1  0
 16 12  1  0
 16 17  1  1
 18 17  2  0
 20 19  1  0
 21 20  1  0
 22 21  1  0
 23 22  1  1
 23 24  1  0
 24 17  1  0
 25 23  1  0
 26 25  2  0
 27 25  1  0
M  END
$$$$
