FPM.pdb
     RDKit          3D

 27 28  0  0  1  0  0  0  0  0999 V2000
    9.2857  -18.1616   18.9382 N   0  0  0  0  0  0  0  0  0  0  0  0
    8.0427  -17.6640   19.5420 C   0  0  1  0  0  0  0  0  0  0  0  0
    7.1264  -18.8274   19.8586 C   0  0  0  0  0  0  0  0  0  0  0  0
    5.8150  -18.4157   20.3885 C   0  0  0  0  0  0  0  0  0  0  0  0
    4.8009  -18.0499   19.5260 C   0  0  0  0  0  0  0  0  0  0  0  0
    3.5518  -17.6604   19.9921 C   0  0  0  0  0  0  0  0  0  0  0  0
    3.3123  -17.6358   21.3343 C   0  0  0  0  0  0  0  0  0  0  0  0
    4.3054  -17.9951   22.2072 C   0  0  0  0  0  0  0  0  0  0  0  0
    5.5293  -18.3763   21.7414 C   0  0  0  0  0  0  0  0  0  0  0  0
    8.3290  -16.7872   20.6732 C   0  0  0  0  0  0  0  0  0  0  0  0
    8.9950  -17.2814   21.6496 O   0  0  0  0  0  0  0  0  0  0  0  0
    7.9414  -15.4176   20.8072 N   0  0  0  0  0  0  0  0  0  0  0  0
    7.1880  -14.7248   19.7723 C   0  0  0  0  0  0  0  0  0  0  0  0
    7.4221  -13.2453   20.0640 C   0  0  0  0  0  0  0  0  0  0  0  0
    7.3624  -13.3054   21.5985 C   0  0  0  0  0  0  0  0  0  0  0  0
    8.2010  -14.5158   21.8813 C   0  0  1  0  0  0  0  0  0  0  0  0
    7.7831  -15.0472   23.2050 C   0  0  0  0  0  0  0  0  0  0  0  0
    6.8146  -15.8160   23.3616 O   0  0  0  0  0  0  0  0  0  0  0  0
   10.6423  -12.7087   30.0280 C   0  0  0  0  0  0  0  0  0  0  0  0
   10.8340  -13.7944   28.5923 S   0  0  0  0  0  0  0  0  0  0  0  0
    9.2330  -13.9942   27.7223 C   0  0  0  0  0  0  0  0  0  0  0  0
    9.4135  -14.8859   26.5438 C   0  0  0  0  0  0  0  0  0  0  0  0
    8.2096  -15.1115   25.6971 C   0  0  2  0  0  0  0  0  0  0  0  0
    8.5367  -14.6477   24.3305 N   0  0  0  0  0  0  0  0  0  0  0  0
    7.0478  -14.3368   26.1507 C   0  0  0  0  0  0  0  0  0  0  0  0
    6.8257  -13.2010   25.6831 O   0  0  0  0  0  0  0  0  0  0  0  0
    6.1884  -14.8495   27.0947 O   0  0  0  0  0  0  0  0  0  0  0  0
  2  1  1  1
  3  4  1  0
  3  2  1  0
  4  9  2  0
  5  6  2  0
  5  4  1  0
  6  7  1  0
  7  8  2  0
  9  8  1  0
 10  2  1  0
 10 11  2  0
 12 10  1  0
 13 12  1  0
 14 15  1  0
 14 13  1  0
 15 16  1  0
 16 12  1  0
 16 17  1  1
 18 17  2  0
 20 19  1  0
 21 20  1  0
 22 21  1  0
 23 22  1  1
 23 24  1  0
 24 17  1  0
 25 23  1  0
 26 25  2  0
 27 25  1  0
M  END
$$$$
