FPM.pdb
     RDKit          3D

 27 28  0  0  1  0  0  0  0  0999 V2000
    5.9455  -16.5917   25.5954 N   0  0  0  0  0  0  0  0  0  0  0  0
    6.7038  -15.5581   24.8786 C   0  0  1  0  0  0  0  0  0  0  0  0
    7.2999  -14.5809   25.8702 C   0  0  0  0  0  0  0  0  0  0  0  0
    6.6150  -13.2769   25.8949 C   0  0  0  0  0  0  0  0  0  0  0  0
    5.4831  -13.1012   26.6655 C   0  0  0  0  0  0  0  0  0  0  0  0
    4.8156  -11.8841   26.7146 C   0  0  0  0  0  0  0  0  0  0  0  0
    5.2833  -10.8306   25.9861 C   0  0  0  0  0  0  0  0  0  0  0  0
    6.4052  -10.9841   25.2146 C   0  0  0  0  0  0  0  0  0  0  0  0
    7.0548  -12.1826   25.1720 C   0  0  0  0  0  0  0  0  0  0  0  0
    7.6665  -16.1612   23.9621 C   0  0  0  0  0  0  0  0  0  0  0  0
    8.3364  -17.1668   24.3873 O   0  0  0  0  0  0  0  0  0  0  0  0
    7.9425  -15.7440   22.6228 N   0  0  0  0  0  0  0  0  0  0  0  0
    6.9921  -14.9591   21.8485 C   0  0  0  0  0  0  0  0  0  0  0  0
    7.4281  -15.1631   20.4004 C   0  0  0  0  0  0  0  0  0  0  0  0
    8.9494  -15.1282   20.6154 C   0  0  0  0  0  0  0  0  0  0  0  0
    9.0983  -15.9988   21.8271 C   0  0  1  0  0  0  0  0  0  0  0  0
   10.3671  -15.6135   22.4985 C   0  0  0  0  0  0  0  0  0  0  0  0
   10.7164  -14.4308   22.6798 O   0  0  0  0  0  0  0  0  0  0  0  0
   11.4100  -15.3987   29.4716 C   0  0  0  0  0  0  0  0  0  0  0  0
   10.6044  -15.6019   27.8633 S   0  0  0  0  0  0  0  0  0  0  0  0
   11.7412  -16.4124   26.6756 C   0  0  0  0  0  0  0  0  0  0  0  0
   11.1075  -16.4564   25.3292 C   0  0  0  0  0  0  0  0  0  0  0  0
   12.0345  -16.5279   24.1660 C   0  0  2  0  0  0  0  0  0  0  0  0
   11.2055  -16.6576   22.9471 N   0  0  0  0  0  0  0  0  0  0  0  0
   12.9149  -17.7017   24.2178 C   0  0  0  0  0  0  0  0  0  0  0  0
   12.4571  -18.8432   24.0048 O   0  0  0  0  0  0  0  0  0  0  0  0
   14.2540  -17.5618   24.5003 O   0  0  0  0  0  0  0  0  0  0  0  0
  2  1  1  1
  3  4  1  0
  3  2  1  0
  4  9  2  0
  5  6  2  0
  5  4  1  0
  6  7  1  0
  7  8  2  0
  9  8  1  0
 10  2  1  0
 10 11  2  0
 12 10  1  0
 13 12  1  0
 14 15  1  0
 14 13  1  0
 15 16  1  0
 16 12  1  0
 16 17  1  1
 18 17  2  0
 20 19  1  0
 21 20  1  0
 22 21  1  0
 23 22  1  1
 23 24  1  0
 24 17  1  0
 25 23  1  0
 26 25  2  0
 27 25  1  0
M  END
$$$$
