FPM.pdb
     RDKit          3D

 27 28  0  0  1  0  0  0  0  0999 V2000
    6.2389  -18.2119   25.0442 N   0  0  0  0  0  0  0  0  0  0  0  0
    6.5029  -16.7729   24.9142 C   0  0  1  0  0  0  0  0  0  0  0  0
    6.3889  -16.1075   26.2698 C   0  0  0  0  0  0  0  0  0  0  0  0
    6.2574  -14.6421   26.1963 C   0  0  0  0  0  0  0  0  0  0  0  0
    5.0080  -14.0596   26.1212 C   0  0  0  0  0  0  0  0  0  0  0  0
    4.8484  -12.6814   26.0546 C   0  0  0  0  0  0  0  0  0  0  0  0
    5.9484  -11.8757   26.0631 C   0  0  0  0  0  0  0  0  0  0  0  0
    7.1975  -12.4338   26.1372 C   0  0  0  0  0  0  0  0  0  0  0  0
    7.3456  -13.7881   26.2022 C   0  0  0  0  0  0  0  0  0  0  0  0
    7.7663  -16.5366   24.2227 C   0  0  0  0  0  0  0  0  0  0  0  0
    8.7812  -17.2236   24.5957 O   0  0  0  0  0  0  0  0  0  0  0  0
    7.9929  -15.6093   23.1583 N   0  0  0  0  0  0  0  0  0  0  0  0
    6.9561  -14.6985   22.6955 C   0  0  0  0  0  0  0  0  0  0  0  0
    7.4175  -14.2810   21.3021 C   0  0  0  0  0  0  0  0  0  0  0  0
    8.9226  -14.1620   21.5887 C   0  0  0  0  0  0  0  0  0  0  0  0
    9.1733  -15.4085   22.3834 C   0  0  1  0  0  0  0  0  0  0  0  0
   10.3839  -15.1717   23.2124 C   0  0  0  0  0  0  0  0  0  0  0  0
   10.8105  -14.0353   23.4959 O   0  0  0  0  0  0  0  0  0  0  0  0
   10.5309  -14.6224   28.5964 C   0  0  0  0  0  0  0  0  0  0  0  0
   12.2651  -14.2795   28.2067 S   0  0  0  0  0  0  0  0  0  0  0  0
   12.8593  -15.4045   26.8872 C   0  0  0  0  0  0  0  0  0  0  0  0
   11.8626  -15.4477   25.7821 C   0  0  0  0  0  0  0  0  0  0  0  0
   12.2679  -16.1911   24.5572 C   0  0  2  0  0  0  0  0  0  0  0  0
   11.0714  -16.3073   23.6942 N   0  0  0  0  0  0  0  0  0  0  0  0
   12.7241  -17.5555   24.8506 C   0  0  0  0  0  0  0  0  0  0  0  0
   13.8782  -17.7553   25.2822 O   0  0  0  0  0  0  0  0  0  0  0  0
   11.8890  -18.6312   24.6558 O   0  0  0  0  0  0  0  0  0  0  0  0
  2  1  1  1
  3  4  1  0
  3  2  1  0
  4  9  2  0
  5  6  2  0
  5  4  1  0
  6  7  1  0
  7  8  2  0
  9  8  1  0
 10  2  1  0
 10 11  2  0
 12 10  1  0
 13 12  1  0
 14 15  1  0
 14 13  1  0
 15 16  1  0
 16 12  1  0
 16 17  1  1
 18 17  2  0
 20 19  1  0
 21 20  1  0
 22 21  1  0
 23 22  1  1
 23 24  1  0
 24 17  1  0
 25 23  1  0
 26 25  2  0
 27 25  1  0
M  END
$$$$
