ERP.pdb
     RDKit          3D

 28 28  0  0  1  0  0  0  0  0999 V2000
   29.0557  -22.7439  -16.9858 N   0  0  0  0  0  0  0  0  0  0  0  0
   28.5541  -21.5508  -16.4314 C   0  0  1  0  0  0  0  0  0  0  0  0
   28.4274  -20.3639  -17.3167 C   0  0  0  0  0  0  0  0  0  0  0  0
   27.8949  -20.5692  -18.6812 C   0  0  0  0  0  0  0  0  0  0  0  0
   28.1359  -19.5227  -19.6640 C   0  0  0  0  0  0  0  0  0  0  0  0
   28.7928  -18.5022  -19.4258 O   0  0  0  0  0  0  0  0  0  0  0  0
   27.2770  -21.6781  -15.6704 C   0  0  0  0  0  0  0  0  0  0  0  0
   26.4287  -22.4519  -16.1742 O   0  0  0  0  0  0  0  0  0  0  0  0
   27.6053  -19.6673  -20.9384 O   0  0  0  0  0  0  0  0  0  0  0  0
   24.3940  -21.4409   -7.3293 N   0  0  0  0  0  0  0  0  0  0  0  0
   23.2602  -21.2307   -8.1482 C   0  0  0  0  0  0  0  0  0  0  0  0
   22.0583  -21.3223   -7.6856 N   0  0  0  0  0  0  0  0  0  0  0  0
   23.4647  -20.9114   -9.5108 N   0  0  0  0  0  0  0  0  0  0  0  0
   24.7845  -20.8878  -10.1353 C   0  0  0  0  0  0  0  0  0  0  0  0
   24.6471  -20.5662  -11.6020 C   0  0  0  0  0  0  0  0  0  0  0  0
   25.9239  -20.5429  -12.3587 C   0  0  0  0  0  0  0  0  0  0  0  0
   25.7426  -21.1774  -13.7282 C   0  0  2  0  0  0  0  0  0  0  0  0
   26.9667  -21.0138  -14.4678 N   0  0  0  0  0  0  0  0  0  0  0  0
   24.5660  -20.6418  -14.4141 C   0  0  0  0  0  0  0  0  0  0  0  0
   24.6136  -19.3786  -14.6587 O   0  0  0  0  0  0  0  0  0  0  0  0
   21.2414  -21.1517   -8.3042 N   0  0  0  0  0  0  0  0  0  0  0  0
   23.4171  -21.3381  -14.8269 C   0  0  0  0  0  0  0  0  0  0  0  0
   23.1254  -22.7490  -14.7255 C   0  0  0  0  0  0  0  0  0  0  0  0
   21.6297  -22.9016  -15.0446 C   0  0  0  0  0  0  0  0  0  0  0  0
   21.4564  -21.7763  -16.0488 C   0  0  2  0  0  0  0  0  0  0  0  0
   22.2817  -20.6564  -15.4694 C   0  0  0  0  0  0  0  0  0  0  0  0
   21.5006  -19.9069  -14.4654 O   0  0  0  0  0  0  0  0  0  0  0  0
   21.7621  -20.0283  -13.2447 O   0  0  0  0  0  0  0  0  0  0  0  0
  2  3  1  0
  2  1  1  6
  4  3  1  0
  5  9  1  0
  5  4  1  0
  6  5  2  0
  7  8  2  0
  7  2  1  0
 11 10  1  0
 11 12  2  0
 13 14  1  0
 13 11  1  0
 15 16  1  0
 15 14  1  0
 17 16  1  1
 17 18  1  0
 18  7  1  0
 19 17  1  0
 20 19  2  0
 21 19  1  0
 22 21  1  0
 23 24  1  0
 23 22  1  0
 24 25  1  0
 25 21  1  0
 26 28  1  0
 25 26  1  6
 27 26  2  0
M  END
$$$$
