ERP.pdb
     RDKit          3D

 28 28  0  0  1  0  0  0  0  0999 V2000
   29.4668  -21.7035  -18.4097 N   0  0  0  0  0  0  0  0  0  0  0  0
   28.7790  -20.5953  -17.8793 C   0  0  1  0  0  0  0  0  0  0  0  0
   28.1855  -19.6172  -18.8279 C   0  0  0  0  0  0  0  0  0  0  0  0
   29.0814  -18.9751  -19.8141 C   0  0  0  0  0  0  0  0  0  0  0  0
   29.3145  -19.6743  -21.0694 C   0  0  0  0  0  0  0  0  0  0  0  0
   28.4141  -20.2021  -21.7330 O   0  0  0  0  0  0  0  0  0  0  0  0
   27.7414  -20.9084  -16.8539 C   0  0  0  0  0  0  0  0  0  0  0  0
   26.9681  -21.8513  -17.1455 O   0  0  0  0  0  0  0  0  0  0  0  0
   30.6115  -19.7592  -21.5566 O   0  0  0  0  0  0  0  0  0  0  0  0
   26.2467  -20.7019   -8.0201 N   0  0  0  0  0  0  0  0  0  0  0  0
   25.0807  -20.9277   -8.7879 C   0  0  0  0  0  0  0  0  0  0  0  0
   24.0615  -21.5603   -8.3104 N   0  0  0  0  0  0  0  0  0  0  0  0
   25.0447  -20.4404  -10.1153 N   0  0  0  0  0  0  0  0  0  0  0  0
   26.1422  -20.6210  -11.0615 C   0  0  0  0  0  0  0  0  0  0  0  0
   25.7858  -19.9839  -12.3808 C   0  0  0  0  0  0  0  0  0  0  0  0
   26.9076  -19.8800  -13.3475 C   0  0  0  0  0  0  0  0  0  0  0  0
   26.5277  -20.5181  -14.6740 C   0  0  2  0  0  0  0  0  0  0  0  0
   27.5738  -20.2429  -15.6239 N   0  0  0  0  0  0  0  0  0  0  0  0
   25.2028  -20.0823  -15.1169 C   0  0  0  0  0  0  0  0  0  0  0  0
   25.1268  -18.8403  -15.4476 O   0  0  0  0  0  0  0  0  0  0  0  0
   23.2095  -21.6988   -8.8882 N   0  0  0  0  0  0  0  0  0  0  0  0
   24.0316  -20.8523  -15.2201 C   0  0  0  0  0  0  0  0  0  0  0  0
   23.8505  -22.2655  -14.9832 C   0  0  0  0  0  0  0  0  0  0  0  0
   22.3325  -22.5026  -14.9436 C   0  0  0  0  0  0  0  0  0  0  0  0
   21.8736  -21.4507  -15.9374 C   0  0  2  0  0  0  0  0  0  0  0  0
   22.7437  -20.2621  -15.6197 C   0  0  0  0  0  0  0  0  0  0  0  0
   22.1684  -19.4862  -14.5031 O   0  0  0  0  0  0  0  0  0  0  0  0
   22.7086  -19.5150  -13.3715 O   0  0  0  0  0  0  0  0  0  0  0  0
  2  3  1  0
  2  1  1  6
  4  3  1  0
  5  9  1  0
  5  4  1  0
  6  5  2  0
  7  8  2  0
  7  2  1  0
 11 10  1  0
 11 12  2  0
 13 14  1  0
 13 11  1  0
 15 16  1  0
 15 14  1  0
 17 16  1  1
 17 18  1  0
 18  7  1  0
 19 17  1  0
 20 19  2  0
 21 19  1  0
 22 21  1  0
 23 24  1  0
 23 22  1  0
 24 25  1  0
 25 21  1  0
 26 28  1  0
 25 26  1  1
 27 26  2  0
M  END
$$$$
