ERP.pdb
     RDKit          3D

 28 28  0  0  1  0  0  0  0  0999 V2000
   29.7797  -19.8846  -18.5004 N   0  0  0  0  0  0  0  0  0  0  0  0
   28.9550  -19.1535  -17.6241 C   0  0  1  0  0  0  0  0  0  0  0  0
   28.1295  -18.0546  -18.1893 C   0  0  0  0  0  0  0  0  0  0  0  0
   27.2090  -18.3788  -19.3008 C   0  0  0  0  0  0  0  0  0  0  0  0
   26.5188  -17.2733  -19.9494 C   0  0  0  0  0  0  0  0  0  0  0  0
   25.3017  -17.0776  -19.8505 O   0  0  0  0  0  0  0  0  0  0  0  0
   28.0703  -19.9665  -16.7395 C   0  0  0  0  0  0  0  0  0  0  0  0
   27.5963  -21.0026  -17.2630 O   0  0  0  0  0  0  0  0  0  0  0  0
   27.2557  -16.3862  -20.7218 O   0  0  0  0  0  0  0  0  0  0  0  0
   26.2753  -20.5634   -7.8636 N   0  0  0  0  0  0  0  0  0  0  0  0
   25.1487  -21.0153   -8.5892 C   0  0  0  0  0  0  0  0  0  0  0  0
   24.0508  -21.3562   -8.0016 N   0  0  0  0  0  0  0  0  0  0  0  0
   25.2423  -21.0903   -9.9986 N   0  0  0  0  0  0  0  0  0  0  0  0
   26.1920  -20.3011  -10.7781 C   0  0  0  0  0  0  0  0  0  0  0  0
   26.1144  -20.7012  -12.2298 C   0  0  0  0  0  0  0  0  0  0  0  0
   27.0478  -19.9766  -13.1282 C   0  0  0  0  0  0  0  0  0  0  0  0
   26.9048  -20.4742  -14.5575 C   0  0  2  0  0  0  0  0  0  0  0  0
   27.7404  -19.6635  -15.4041 N   0  0  0  0  0  0  0  0  0  0  0  0
   25.5024  -20.5069  -14.9744 C   0  0  0  0  0  0  0  0  0  0  0  0
   24.9895  -19.3541  -15.2307 O   0  0  0  0  0  0  0  0  0  0  0  0
   23.2518  -21.7271   -8.5522 N   0  0  0  0  0  0  0  0  0  0  0  0
   24.6732  -21.6317  -15.1238 C   0  0  0  0  0  0  0  0  0  0  0  0
   24.9515  -23.0131  -14.8072 C   0  0  0  0  0  0  0  0  0  0  0  0
   23.6046  -23.7497  -14.8806 C   0  0  0  0  0  0  0  0  0  0  0  0
   22.9254  -22.9520  -15.9791 C   0  0  2  0  0  0  0  0  0  0  0  0
   23.3105  -21.5281  -15.6706 C   0  0  0  0  0  0  0  0  0  0  0  0
   22.3972  -20.9542  -14.6625 O   0  0  0  0  0  0  0  0  0  0  0  0
   22.8027  -20.7379  -13.4954 O   0  0  0  0  0  0  0  0  0  0  0  0
  2  3  1  0
  2  1  1  6
  4  3  1  0
  5  9  1  0
  5  4  1  0
  6  5  2  0
  7  8  2  0
  7  2  1  0
 11 10  1  0
 11 12  2  0
 13 14  1  0
 13 11  1  0
 15 16  1  0
 15 14  1  0
 17 16  1  1
 17 18  1  0
 18  7  1  0
 19 17  1  0
 20 19  2  0
 21 19  1  0
 22 21  1  0
 23 24  1  0
 23 22  1  0
 24 25  1  0
 25 21  1  0
 26 28  1  0
 25 26  1  1
 27 26  2  0
M  END
$$$$
