ERP.pdb
     RDKit          3D

 28 28  0  0  1  0  0  0  0  0999 V2000
   21.5867  -16.1873  -17.3318 N   0  0  0  0  0  0  0  0  0  0  0  0
   22.1674  -17.4232  -17.6749 C   0  0  1  0  0  0  0  0  0  0  0  0
   22.4446  -17.6948  -19.1095 C   0  0  0  0  0  0  0  0  0  0  0  0
   21.2964  -17.7482  -20.0404 C   0  0  0  0  0  0  0  0  0  0  0  0
   20.0502  -18.3125  -19.5429 C   0  0  0  0  0  0  0  0  0  0  0  0
   19.9757  -19.4129  -18.9832 O   0  0  0  0  0  0  0  0  0  0  0  0
   23.3891  -17.7995  -16.9055 C   0  0  0  0  0  0  0  0  0  0  0  0
   24.4165  -17.1322  -17.1726 O   0  0  0  0  0  0  0  0  0  0  0  0
   18.8778  -17.5860  -19.6993 O   0  0  0  0  0  0  0  0  0  0  0  0
   24.2753  -20.5796   -9.6862 N   0  0  0  0  0  0  0  0  0  0  0  0
   25.5401  -20.5659  -10.3189 C   0  0  0  0  0  0  0  0  0  0  0  0
   26.3990  -21.5144  -10.1471 N   0  0  0  0  0  0  0  0  0  0  0  0
   25.8587  -19.4755  -11.1616 N   0  0  0  0  0  0  0  0  0  0  0  0
   26.3295  -19.6390  -12.5342 C   0  0  0  0  0  0  0  0  0  0  0  0
   25.3906  -20.5459  -13.2889 C   0  0  0  0  0  0  0  0  0  0  0  0
   24.2301  -19.8630  -13.9138 C   0  0  0  0  0  0  0  0  0  0  0  0
   24.6536  -19.1553  -15.1908 C   0  0  2  0  0  0  0  0  0  0  0  0
   23.4683  -18.8162  -15.9340 N   0  0  0  0  0  0  0  0  0  0  0  0
   25.6150  -19.9545  -15.9514 C   0  0  0  0  0  0  0  0  0  0  0  0
   25.1452  -21.0560  -16.4243 O   0  0  0  0  0  0  0  0  0  0  0  0
   27.2995  -21.5098  -10.6649 N   0  0  0  0  0  0  0  0  0  0  0  0
   26.9629  -19.6586  -16.2176 C   0  0  0  0  0  0  0  0  0  0  0  0
   27.7590  -18.5495  -15.7464 C   0  0  0  0  0  0  0  0  0  0  0  0
   29.2171  -18.8909  -16.0918 C   0  0  0  0  0  0  0  0  0  0  0  0
   29.0094  -19.6740  -17.3756 C   0  0  2  0  0  0  0  0  0  0  0  0
   27.7916  -20.5125  -17.0841 C   0  0  0  0  0  0  0  0  0  0  0  0
   28.1747  -21.7468  -16.3702 O   0  0  0  0  0  0  0  0  0  0  0  0
   27.8857  -21.8891  -15.1580 O   0  0  0  0  0  0  0  0  0  0  0  0
  2  3  1  0
  2  1  1  6
  4  3  1  0
  5  9  1  0
  5  4  1  0
  6  5  2  0
  7  8  2  0
  7  2  1  0
 11 10  1  0
 11 12  2  0
 13 14  1  0
 13 11  1  0
 15 16  1  0
 15 14  1  0
 17 16  1  1
 17 18  1  0
 18  7  1  0
 19 17  1  0
 20 19  2  0
 21 19  1  0
 22 21  1  0
 23 24  1  0
 23 22  1  0
 24 25  1  0
 25 21  1  0
 26 28  1  0
 25 26  1  1
 27 26  2  0
M  END
$$$$
