ERP.pdb
     RDKit          3D

 28 28  0  0  1  0  0  0  0  0999 V2000
   22.8986  -27.3588  -14.6632 N   0  0  0  0  0  0  0  0  0  0  0  0
   22.6753  -25.9950  -14.9332 C   0  0  1  0  0  0  0  0  0  0  0  0
   21.2795  -25.4877  -14.8787 C   0  0  0  0  0  0  0  0  0  0  0  0
   20.3071  -26.0244  -15.8554 C   0  0  0  0  0  0  0  0  0  0  0  0
   20.4860  -25.6624  -17.2541 C   0  0  0  0  0  0  0  0  0  0  0  0
   21.3436  -26.1713  -17.9855 O   0  0  0  0  0  0  0  0  0  0  0  0
   23.5284  -25.0368  -14.1714 C   0  0  0  0  0  0  0  0  0  0  0  0
   23.4138  -25.0930  -12.9241 O   0  0  0  0  0  0  0  0  0  0  0  0
   19.6560  -24.6964  -17.8060 O   0  0  0  0  0  0  0  0  0  0  0  0
   29.4316  -22.4696  -16.5947 N   0  0  0  0  0  0  0  0  0  0  0  0
   28.4434  -21.6837  -17.2316 C   0  0  0  0  0  0  0  0  0  0  0  0
   28.2470  -21.7366  -18.5066 N   0  0  0  0  0  0  0  0  0  0  0  0
   27.6551  -20.8199  -16.4359 N   0  0  0  0  0  0  0  0  0  0  0  0
   27.8845  -20.6199  -15.0077 C   0  0  0  0  0  0  0  0  0  0  0  0
   26.7842  -21.2831  -14.2185 C   0  0  0  0  0  0  0  0  0  0  0  0
   26.1470  -22.4441  -14.8890 C   0  0  0  0  0  0  0  0  0  0  0  0
   25.0456  -23.0241  -14.0164 C   0  0  2  0  0  0  0  0  0  0  0  0
   24.4224  -24.1052  -14.7341 N   0  0  0  0  0  0  0  0  0  0  0  0
   24.1065  -21.9890  -13.5824 C   0  0  0  0  0  0  0  0  0  0  0  0
   23.2925  -21.5836  -14.4938 O   0  0  0  0  0  0  0  0  0  0  0  0
   27.5249  -21.1383  -18.9536 N   0  0  0  0  0  0  0  0  0  0  0  0
   23.9968  -21.4031  -12.3096 C   0  0  0  0  0  0  0  0  0  0  0  0
   24.9187  -21.4644  -11.1995 C   0  0  0  0  0  0  0  0  0  0  0  0
   24.4458  -20.4060  -10.1904 C   0  0  0  0  0  0  0  0  0  0  0  0
   22.9472  -20.4660  -10.4255 C   0  0  1  0  0  0  0  0  0  0  0  0
   22.8300  -20.5935  -11.9225 C   0  0  0  0  0  0  0  0  0  0  0  0
   22.8963  -19.2633  -12.5597 O   0  0  0  0  0  0  0  0  0  0  0  0
   23.9008  -18.9385  -13.2370 O   0  0  0  0  0  0  0  0  0  0  0  0
  2  3  1  0
  2  1  1  1
  4  3  1  0
  5  9  1  0
  5  4  1  0
  6  5  2  0
  7  8  2  0
  7  2  1  0
 11 10  1  0
 11 12  2  0
 13 14  1  0
 13 11  1  0
 15 16  1  0
 15 14  1  0
 17 16  1  6
 17 18  1  0
 18  7  1  0
 19 17  1  0
 20 19  2  0
 21 19  1  0
 22 21  1  0
 23 24  1  0
 23 22  1  0
 24 25  1  0
 25 21  1  0
 26 28  1  0
 25 26  1  6
 27 26  2  0
M  END
$$$$
