LFA.pdb
     RDKit          3D

 25 25  0  0  1  0  0  0  0  0999 V2000
   27.2421  -18.6293  -19.4101 C   0  0  0  0  0  0  0  0  0  0  0  0
   28.2604  -19.6147  -18.8208 C   0  0  2  0  0  0  0  0  0  0  0  0
   28.7492  -20.5045  -19.9074 C   0  0  0  0  0  0  0  0  0  0  0  0
   27.5627  -20.3275  -17.6983 C   0  0  0  0  0  0  0  0  0  0  0  0
   26.9760  -19.4107  -16.6717 C   0  0  2  0  0  0  0  0  0  0  0  0
   27.9727  -18.5613  -16.0458 N   0  0  0  0  0  0  0  0  0  0  0  0
   26.3945  -20.2516  -15.5907 C   0  0  0  0  0  0  0  0  0  0  0  0
   26.1934  -21.4741  -15.7073 O   0  0  0  0  0  0  0  0  0  0  0  0
   26.0430  -19.6529  -14.3547 N   0  0  0  0  0  0  0  0  0  0  0  0
   25.4546  -20.3234  -13.2504 C   0  0  1  0  0  0  0  0  0  0  0  0
   25.9794  -19.9590  -11.9045 C   0  0  0  0  0  0  0  0  0  0  0  0
   27.3605  -20.4039  -11.6639 C   0  0  0  0  0  0  0  0  0  0  0  0
   27.6339  -21.3385  -10.6938 C   0  0  0  0  0  0  0  0  0  0  0  0
   28.9160  -21.7835  -10.4357 C   0  0  0  0  0  0  0  0  0  0  0  0
   29.9618  -21.2890  -11.1597 C   0  0  0  0  0  0  0  0  0  0  0  0
   29.7238  -20.3533  -12.1373 C   0  0  0  0  0  0  0  0  0  0  0  0
   28.4348  -19.9244  -12.3767 C   0  0  0  0  0  0  0  0  0  0  0  0
   23.9873  -20.1270  -13.2910 C   0  0  0  0  0  0  0  0  0  0  0  0
   23.5032  -18.9872  -13.1210 O   0  0  0  0  0  0  0  0  0  0  0  0
   21.0074  -21.7258  -14.6938 C   0  0  0  0  0  0  0  0  0  0  0  0
   21.6363  -20.9891  -13.5328 C   0  0  2  0  0  0  0  0  0  0  0  0
   23.0720  -21.2036  -13.5209 N   0  0  0  0  0  0  0  0  0  0  0  0
   21.0556  -21.4033  -12.2274 C   0  0  0  0  0  0  0  0  0  0  0  0
   21.6935  -22.2805  -11.3708 O   0  0  0  0  0  0  0  0  0  0  0  0
   19.9493  -20.9509  -11.8748 O   0  0  0  0  0  0  0  0  0  0  0  0
  2  1  1  6
  2  3  1  0
  4  2  1  0
  5  7  1  0
  5  4  1  0
  5  6  1  1
  7  8  2  0
  9 10  1  0
  9  7  1  0
 10 11  1  1
 12 13  2  0
 12 11  1  0
 14 13  1  0
 15 14  2  0
 16 17  2  0
 16 15  1  0
 17 12  1  0
 18 10  1  0
 19 18  2  0
 21 20  1  6
 21 22  1  0
 22 18  1  0
 23 21  1  0
 23 24  1  0
 25 23  2  0
M  END
$$$$
