LFA.pdb
     RDKit          3D

 25 25  0  0  1  0  0  0  0  0999 V2000
   25.0848  -19.8964  -15.0748 C   0  0  0  0  0  0  0  0  0  0  0  0
   26.3545  -19.2926  -14.4597 C   0  0  2  0  0  0  0  0  0  0  0  0
   27.4148  -19.2452  -15.5014 C   0  0  0  0  0  0  0  0  0  0  0  0
   26.6921  -20.1372  -13.2650 C   0  0  0  0  0  0  0  0  0  0  0  0
   25.6279  -20.1505  -12.2134 C   0  0  2  0  0  0  0  0  0  0  0  0
   25.0236  -18.8461  -12.0131 N   0  0  0  0  0  0  0  0  0  0  0  0
   26.2681  -20.5251  -10.9236 C   0  0  0  0  0  0  0  0  0  0  0  0
   26.9441  -21.5585  -10.7693 O   0  0  0  0  0  0  0  0  0  0  0  0
   26.1148  -19.6779   -9.7974 N   0  0  0  0  0  0  0  0  0  0  0  0
   26.5814  -19.9557   -8.4858 C   0  0  1  0  0  0  0  0  0  0  0  0
   27.1688  -18.8074   -7.7401 C   0  0  0  0  0  0  0  0  0  0  0  0
   27.8713  -19.1952   -6.5075 C   0  0  0  0  0  0  0  0  0  0  0  0
   27.3989  -18.7967   -5.2798 C   0  0  0  0  0  0  0  0  0  0  0  0
   28.0280  -19.1387   -4.0984 C   0  0  0  0  0  0  0  0  0  0  0  0
   29.1607  -19.8993   -4.1313 C   0  0  0  0  0  0  0  0  0  0  0  0
   29.6602  -20.3147   -5.3420 C   0  0  0  0  0  0  0  0  0  0  0  0
   29.0144  -19.9605   -6.5082 C   0  0  0  0  0  0  0  0  0  0  0  0
   25.4820  -20.5600   -7.6989 C   0  0  0  0  0  0  0  0  0  0  0  0
   24.3370  -20.0601   -7.7362 O   0  0  0  0  0  0  0  0  0  0  0  0
   24.9086  -23.6994   -5.6917 C   0  0  0  0  0  0  0  0  0  0  0  0
   24.5776  -22.2830   -6.1043 C   0  0  2  0  0  0  0  0  0  0  0  0
   25.6687  -21.7173   -6.8769 N   0  0  0  0  0  0  0  0  0  0  0  0
   24.2874  -21.4128   -4.9331 C   0  0  0  0  0  0  0  0  0  0  0  0
   25.1987  -20.5000   -4.4367 O   0  0  0  0  0  0  0  0  0  0  0  0
   23.1824  -21.4964   -4.3633 O   0  0  0  0  0  0  0  0  0  0  0  0
  2  1  1  6
  2  3  1  0
  4  2  1  0
  5  7  1  0
  5  4  1  0
  5  6  1  1
  7  8  2  0
  9 10  1  0
  9  7  1  0
 10 11  1  1
 12 13  2  0
 12 11  1  0
 14 13  1  0
 15 14  2  0
 16 17  2  0
 16 15  1  0
 17 12  1  0
 18 10  1  0
 19 18  2  0
 21 20  1  1
 21 22  1  0
 22 18  1  0
 23 21  1  0
 23 24  1  0
 25 23  2  0
M  END
$$$$
