LFA.pdb
     RDKit          3D

 25 25  0  0  1  0  0  0  0  0999 V2000
   30.2218  -20.2525  -14.0467 C   0  0  0  0  0  0  0  0  0  0  0  0
   29.8363  -20.2350  -12.5614 C   0  0  2  0  0  0  0  0  0  0  0  0
   31.0337  -20.5860  -11.7523 C   0  0  0  0  0  0  0  0  0  0  0  0
   28.6821  -21.1834  -12.4098 C   0  0  0  0  0  0  0  0  0  0  0  0
   27.4581  -20.7722  -13.1656 C   0  0  2  0  0  0  0  0  0  0  0  0
   27.3200  -19.3307  -13.2643 N   0  0  0  0  0  0  0  0  0  0  0  0
   26.2725  -21.2623  -12.4119 C   0  0  0  0  0  0  0  0  0  0  0  0
   26.1922  -22.4071  -11.9308 O   0  0  0  0  0  0  0  0  0  0  0  0
   25.1642  -20.3998  -12.2184 N   0  0  0  0  0  0  0  0  0  0  0  0
   23.9501  -20.7483  -11.5705 C   0  0  1  0  0  0  0  0  0  0  0  0
   23.5348  -19.8737  -10.4382 C   0  0  0  0  0  0  0  0  0  0  0  0
   24.3463  -20.0470   -9.2238 C   0  0  0  0  0  0  0  0  0  0  0  0
   24.1828  -21.1549   -8.4269 C   0  0  0  0  0  0  0  0  0  0  0  0
   24.9240  -21.3562   -7.2787 C   0  0  0  0  0  0  0  0  0  0  0  0
   25.8571  -20.4327   -6.9057 C   0  0  0  0  0  0  0  0  0  0  0  0
   26.0462  -19.3133   -7.6798 C   0  0  0  0  0  0  0  0  0  0  0  0
   25.2940  -19.1344   -8.8221 C   0  0  0  0  0  0  0  0  0  0  0  0
   22.8671  -20.8193  -12.5780 C   0  0  0  0  0  0  0  0  0  0  0  0
   22.6489  -19.8468  -13.3324 O   0  0  0  0  0  0  0  0  0  0  0  0
   20.5979  -23.4210  -14.0588 C   0  0  0  0  0  0  0  0  0  0  0  0
   20.9395  -21.9958  -13.6867 C   0  0  2  0  0  0  0  0  0  0  0  0
   22.0363  -21.9746  -12.7360 N   0  0  0  0  0  0  0  0  0  0  0  0
   19.7704  -21.2700  -13.1215 C   0  0  0  0  0  0  0  0  0  0  0  0
   18.7524  -20.7661  -13.9087 O   0  0  0  0  0  0  0  0  0  0  0  0
   19.6886  -21.0998  -11.8898 O   0  0  0  0  0  0  0  0  0  0  0  0
  2  1  1  6
  2  3  1  0
  4  2  1  0
  5  7  1  0
  5  4  1  0
  5  6  1  1
  7  8  2  0
  9 10  1  0
  9  7  1  0
 10 11  1  1
 12 13  2  0
 12 11  1  0
 14 13  1  0
 15 14  2  0
 16 17  2  0
 16 15  1  0
 17 12  1  0
 18 10  1  0
 19 18  2  0
 21 20  1  1
 21 22  1  0
 22 18  1  0
 23 21  1  0
 23 24  1  0
 25 23  2  0
M  END
$$$$
