LFA.pdb
     RDKit          3D

 25 25  0  0  1  0  0  0  0  0999 V2000
   27.7017  -17.2130  -20.4328 C   0  0  0  0  0  0  0  0  0  0  0  0
   28.7876  -17.2012  -19.3485 C   0  0  2  0  0  0  0  0  0  0  0  0
   30.1060  -17.4527  -19.9890 C   0  0  0  0  0  0  0  0  0  0  0  0
   28.3836  -18.2280  -18.3301 C   0  0  0  0  0  0  0  0  0  0  0  0
   27.0120  -18.0180  -17.7706 C   0  0  2  0  0  0  0  0  0  0  0  0
   26.8344  -16.6915  -17.2088 N   0  0  0  0  0  0  0  0  0  0  0  0
   26.8246  -18.9818  -16.6527 C   0  0  0  0  0  0  0  0  0  0  0  0
   27.0993  -20.1925  -16.7391 O   0  0  0  0  0  0  0  0  0  0  0  0
   26.3080  -18.5221  -15.4152 N   0  0  0  0  0  0  0  0  0  0  0  0
   26.0405  -19.3319  -14.2803 C   0  0  1  0  0  0  0  0  0  0  0  0
   26.4436  -18.7687  -12.9613 C   0  0  0  0  0  0  0  0  0  0  0  0
   26.1766  -19.6640  -11.8254 C   0  0  0  0  0  0  0  0  0  0  0  0
   26.9755  -20.7589  -11.5965 C   0  0  0  0  0  0  0  0  0  0  0  0
   26.7597  -21.6247  -10.5419 C   0  0  0  0  0  0  0  0  0  0  0  0
   25.7208  -21.4013   -9.6855 C   0  0  0  0  0  0  0  0  0  0  0  0
   24.9024  -20.3157   -9.8853 C   0  0  0  0  0  0  0  0  0  0  0  0
   25.1380  -19.4654  -10.9455 C   0  0  0  0  0  0  0  0  0  0  0  0
   24.6012  -19.6801  -14.2628 C   0  0  0  0  0  0  0  0  0  0  0  0
   23.7388  -18.7849  -14.3938 O   0  0  0  0  0  0  0  0  0  0  0  0
   22.5363  -22.7904  -14.5823 C   0  0  0  0  0  0  0  0  0  0  0  0
   22.7224  -21.3501  -14.1614 C   0  0  2  0  0  0  0  0  0  0  0  0
   24.1357  -21.0241  -14.0993 N   0  0  0  0  0  0  0  0  0  0  0  0
   22.0827  -21.0640  -12.8492 C   0  0  0  0  0  0  0  0  0  0  0  0
   20.7363  -20.7795  -12.7209 O   0  0  0  0  0  0  0  0  0  0  0  0
   22.7734  -21.0768  -11.8121 O   0  0  0  0  0  0  0  0  0  0  0  0
  2  1  1  6
  2  3  1  0
  4  2  1  0
  5  7  1  0
  5  4  1  0
  5  6  1  1
  7  8  2  0
  9 10  1  0
  9  7  1  0
 10 11  1  1
 12 13  2  0
 12 11  1  0
 14 13  1  0
 15 14  2  0
 16 17  2  0
 16 15  1  0
 17 12  1  0
 18 10  1  0
 19 18  2  0
 21 20  1  1
 21 22  1  0
 22 18  1  0
 23 21  1  0
 23 24  1  0
 25 23  2  0
M  END
$$$$
