LFA.pdb
     RDKit          3D

 25 25  0  0  1  0  0  0  0  0999 V2000
   28.7904  -17.4849  -14.9190 C   0  0  0  0  0  0  0  0  0  0  0  0
   28.1285  -18.3870  -15.9695 C   0  0  2  0  0  0  0  0  0  0  0  0
   27.4665  -17.5290  -16.9879 C   0  0  0  0  0  0  0  0  0  0  0  0
   27.1979  -19.2984  -15.2224 C   0  0  0  0  0  0  0  0  0  0  0  0
   27.8600  -20.0732  -14.1271 C   0  0  2  0  0  0  0  0  0  0  0  0
   28.8246  -21.0355  -14.6273 N   0  0  0  0  0  0  0  0  0  0  0  0
   26.8074  -20.8535  -13.4219 C   0  0  0  0  0  0  0  0  0  0  0  0
   26.4755  -22.0073  -13.7492 O   0  0  0  0  0  0  0  0  0  0  0  0
   26.1333  -20.2748  -12.3173 N   0  0  0  0  0  0  0  0  0  0  0  0
   25.1440  -20.9154  -11.5260 C   0  0  1  0  0  0  0  0  0  0  0  0
   24.9913  -20.4138  -10.1315 C   0  0  0  0  0  0  0  0  0  0  0  0
   26.2095  -20.5398   -9.3171 C   0  0  0  0  0  0  0  0  0  0  0  0
   26.4308  -19.6942   -8.2563 C   0  0  0  0  0  0  0  0  0  0  0  0
   27.5609  -19.7784   -7.4664 C   0  0  0  0  0  0  0  0  0  0  0  0
   28.5031  -20.7290   -7.7333 C   0  0  0  0  0  0  0  0  0  0  0  0
   28.3133  -21.5908   -8.7866 C   0  0  0  0  0  0  0  0  0  0  0  0
   27.1767  -21.4871   -9.5611 C   0  0  0  0  0  0  0  0  0  0  0  0
   23.8436  -20.8509  -12.2316 C   0  0  0  0  0  0  0  0  0  0  0  0
   23.3785  -19.7468  -12.5878 O   0  0  0  0  0  0  0  0  0  0  0  0
   21.6000  -23.2925  -13.9905 C   0  0  0  0  0  0  0  0  0  0  0  0
   21.8800  -21.9475  -13.3590 C   0  0  2  0  0  0  0  0  0  0  0  0
   23.0726  -22.0187  -12.5345 N   0  0  0  0  0  0  0  0  0  0  0  0
   20.7337  -21.4630  -12.5439 C   0  0  0  0  0  0  0  0  0  0  0  0
   19.5258  -21.0890  -13.1017 O   0  0  0  0  0  0  0  0  0  0  0  0
   20.8489  -21.3845  -11.3056 O   0  0  0  0  0  0  0  0  0  0  0  0
  2  1  1  1
  2  3  1  0
  4  2  1  0
  5  7  1  0
  5  4  1  0
  5  6  1  6
  7  8  2  0
  9 10  1  0
  9  7  1  0
 10 11  1  1
 12 13  2  0
 12 11  1  0
 14 13  1  0
 15 14  2  0
 16 17  2  0
 16 15  1  0
 17 12  1  0
 18 10  1  0
 19 18  2  0
 21 20  1  1
 21 22  1  0
 22 18  1  0
 23 21  1  0
 23 24  1  0
 25 23  2  0
M  END
$$$$
