LFA.pdb
     RDKit          3D

 25 25  0  0  1  0  0  0  0  0999 V2000
   28.7439  -17.5310  -14.8394 C   0  0  0  0  0  0  0  0  0  0  0  0
   28.1403  -18.5264  -15.8394 C   0  0  2  0  0  0  0  0  0  0  0  0
   27.4702  -17.7650  -16.9269 C   0  0  0  0  0  0  0  0  0  0  0  0
   27.2275  -19.4210  -15.0513 C   0  0  0  0  0  0  0  0  0  0  0  0
   27.8963  -20.1056  -13.9013 C   0  0  2  0  0  0  0  0  0  0  0  0
   28.8783  -21.0854  -14.3284 N   0  0  0  0  0  0  0  0  0  0  0  0
   26.8527  -20.8507  -13.1465 C   0  0  0  0  0  0  0  0  0  0  0  0
   26.5001  -22.0103  -13.4287 O   0  0  0  0  0  0  0  0  0  0  0  0
   26.2122  -20.2295  -12.0450 N   0  0  0  0  0  0  0  0  0  0  0  0
   25.1863  -20.8083  -11.2527 C   0  0  1  0  0  0  0  0  0  0  0  0
   24.9947  -20.2237   -9.8958 C   0  0  0  0  0  0  0  0  0  0  0  0
   26.2054  -20.2481   -9.0611 C   0  0  0  0  0  0  0  0  0  0  0  0
   27.1333  -21.2518   -9.2059 C   0  0  0  0  0  0  0  0  0  0  0  0
   28.2832  -21.3120   -8.4427 C   0  0  0  0  0  0  0  0  0  0  0  0
   28.5240  -20.3492   -7.5059 C   0  0  0  0  0  0  0  0  0  0  0  0
   27.6170  -19.3313   -7.3350 C   0  0  0  0  0  0  0  0  0  0  0  0
   26.4760  -19.2926   -8.1091 C   0  0  0  0  0  0  0  0  0  0  0  0
   23.9118  -20.7666  -12.0056 C   0  0  0  0  0  0  0  0  0  0  0  0
   23.4382  -19.6704  -12.3748 O   0  0  0  0  0  0  0  0  0  0  0  0
   21.6551  -23.2749  -13.6965 C   0  0  0  0  0  0  0  0  0  0  0  0
   21.9970  -21.8933  -13.1861 C   0  0  2  0  0  0  0  0  0  0  0  0
   23.1759  -21.9482  -12.3407 N   0  0  0  0  0  0  0  0  0  0  0  0
   20.8687  -21.2794  -12.4357 C   0  0  0  0  0  0  0  0  0  0  0  0
   20.7757  -21.3252  -11.0576 O   0  0  0  0  0  0  0  0  0  0  0  0
   19.9609  -20.6957  -13.0585 O   0  0  0  0  0  0  0  0  0  0  0  0
  2  1  1  1
  2  3  1  0
  4  2  1  0
  5  7  1  0
  5  4  1  0
  5  6  1  6
  7  8  2  0
  9 10  1  0
  9  7  1  0
 10 11  1  1
 12 13  2  0
 12 11  1  0
 14 13  1  0
 15 14  2  0
 16 17  2  0
 16 15  1  0
 17 12  1  0
 18 10  1  0
 19 18  2  0
 21 20  1  1
 21 22  1  0
 22 18  1  0
 23 21  1  0
 23 24  1  0
 25 23  2  0
M  END
$$$$
