LFA.pdb
     RDKit          3D

 25 25  0  0  1  0  0  0  0  0999 V2000
   24.4694  -20.8440  -14.8691 C   0  0  0  0  0  0  0  0  0  0  0  0
   25.9477  -20.7515  -14.4678 C   0  0  2  0  0  0  0  0  0  0  0  0
   26.7703  -21.4101  -15.5171 C   0  0  0  0  0  0  0  0  0  0  0  0
   26.0591  -21.3749  -13.1063 C   0  0  0  0  0  0  0  0  0  0  0  0
   25.2272  -20.6997  -12.0620 C   0  0  2  0  0  0  0  0  0  0  0  0
   25.2727  -19.2523  -12.1605 N   0  0  0  0  0  0  0  0  0  0  0  0
   25.7924  -21.0534  -10.7318 C   0  0  0  0  0  0  0  0  0  0  0  0
   26.0331  -22.2222  -10.3789 O   0  0  0  0  0  0  0  0  0  0  0  0
   26.0802  -20.0239   -9.8007 N   0  0  0  0  0  0  0  0  0  0  0  0
   26.5868  -20.2155   -8.4885 C   0  0  1  0  0  0  0  0  0  0  0  0
   27.2874  -19.0511   -7.8779 C   0  0  0  0  0  0  0  0  0  0  0  0
   27.9541  -19.3593   -6.6036 C   0  0  0  0  0  0  0  0  0  0  0  0
   28.8697  -20.3814   -6.5238 C   0  0  0  0  0  0  0  0  0  0  0  0
   29.5181  -20.7037   -5.3474 C   0  0  0  0  0  0  0  0  0  0  0  0
   29.2533  -19.9928   -4.2128 C   0  0  0  0  0  0  0  0  0  0  0  0
   28.3432  -18.9644   -4.2574 C   0  0  0  0  0  0  0  0  0  0  0  0
   27.7084  -18.6614   -5.4439 C   0  0  0  0  0  0  0  0  0  0  0  0
   25.4855  -20.6628   -7.6052 C   0  0  0  0  0  0  0  0  0  0  0  0
   24.3750  -20.0910   -7.6503 O   0  0  0  0  0  0  0  0  0  0  0  0
   24.8094  -23.5227   -5.2391 C   0  0  0  0  0  0  0  0  0  0  0  0
   24.5466  -22.1440   -5.8014 C   0  0  2  0  0  0  0  0  0  0  0  0
   25.6319  -21.7446   -6.6788 N   0  0  0  0  0  0  0  0  0  0  0  0
   24.3672  -21.1280   -4.7297 C   0  0  0  0  0  0  0  0  0  0  0  0
   23.2042  -21.0188   -3.9911 O   0  0  0  0  0  0  0  0  0  0  0  0
   25.2929  -20.3341   -4.4732 O   0  0  0  0  0  0  0  0  0  0  0  0
  2  1  1  6
  2  3  1  0
  4  2  1  0
  5  7  1  0
  5  4  1  0
  5  6  1  6
  7  8  2  0
  9 10  1  0
  9  7  1  0
 10 11  1  1
 12 13  2  0
 12 11  1  0
 14 13  1  0
 15 14  2  0
 16 17  2  0
 16 15  1  0
 17 12  1  0
 18 10  1  0
 19 18  2  0
 21 20  1  1
 21 22  1  0
 22 18  1  0
 23 21  1  0
 23 24  1  0
 25 23  2  0
M  END
$$$$
