LFA.pdb
     RDKit          3D

 25 25  0  0  1  0  0  0  0  0999 V2000
   28.4641  -18.8431  -16.2600 C   0  0  0  0  0  0  0  0  0  0  0  0
   28.9579  -20.2815  -16.0542 C   0  0  2  0  0  0  0  0  0  0  0  0
   29.0786  -20.9403  -17.3819 C   0  0  0  0  0  0  0  0  0  0  0  0
   27.9823  -20.9370  -15.1197 C   0  0  0  0  0  0  0  0  0  0  0  0
   27.7235  -20.1559  -13.8702 C   0  0  2  0  0  0  0  0  0  0  0  0
   28.8647  -20.1415  -12.9734 N   0  0  0  0  0  0  0  0  0  0  0  0
   26.6151  -20.8253  -13.1371 C   0  0  0  0  0  0  0  0  0  0  0  0
   26.1784  -21.9516  -13.4360 O   0  0  0  0  0  0  0  0  0  0  0  0
   26.0088  -20.1669  -12.0378 N   0  0  0  0  0  0  0  0  0  0  0  0
   24.9630  -20.6930  -11.2349 C   0  0  1  0  0  0  0  0  0  0  0  0
   24.7975  -20.0805   -9.8869 C   0  0  0  0  0  0  0  0  0  0  0  0
   25.9875  -20.1966   -9.0304 C   0  0  0  0  0  0  0  0  0  0  0  0
   26.7179  -21.3608   -9.0040 C   0  0  0  0  0  0  0  0  0  0  0  0
   27.8413  -21.5115   -8.2143 C   0  0  0  0  0  0  0  0  0  0  0  0
   28.2565  -20.4784   -7.4251 C   0  0  0  0  0  0  0  0  0  0  0  0
   27.5493  -19.3003   -7.4274 C   0  0  0  0  0  0  0  0  0  0  0  0
   26.4307  -19.1737   -8.2245 C   0  0  0  0  0  0  0  0  0  0  0  0
   23.6893  -20.6134  -11.9861 C   0  0  0  0  0  0  0  0  0  0  0  0
   23.3519  -19.5422  -12.5348 O   0  0  0  0  0  0  0  0  0  0  0  0
   21.3191  -22.9772  -13.5870 C   0  0  0  0  0  0  0  0  0  0  0  0
   21.5958  -21.6476  -12.9224 C   0  0  2  0  0  0  0  0  0  0  0  0
   22.8023  -21.7293  -12.1194 N   0  0  0  0  0  0  0  0  0  0  0  0
   20.4581  -21.1983  -12.0757 C   0  0  0  0  0  0  0  0  0  0  0  0
   20.5343  -21.1297  -10.6975 O   0  0  0  0  0  0  0  0  0  0  0  0
   19.3843  -20.8662  -12.6137 O   0  0  0  0  0  0  0  0  0  0  0  0
  2  1  1  6
  2  3  1  0
  4  2  1  0
  5  7  1  0
  5  4  1  0
  5  6  1  1
  7  8  2  0
  9 10  1  0
  9  7  1  0
 10 11  1  1
 12 13  2  0
 12 11  1  0
 14 13  1  0
 15 14  2  0
 16 17  2  0
 16 15  1  0
 17 12  1  0
 18 10  1  0
 19 18  2  0
 21 20  1  1
 21 22  1  0
 22 18  1  0
 23 21  1  0
 23 24  1  0
 25 23  2  0
M  END
$$$$
