LFA.pdb
     RDKit          3D

 25 25  0  0  1  0  0  0  0  0999 V2000
   17.6839  -13.0207  -21.0589 C   0  0  0  0  0  0  0  0  0  0  0  0
   17.7821  -11.4932  -20.9476 C   0  0  2  0  0  0  0  0  0  0  0  0
   19.0519  -11.0481  -21.5809 C   0  0  0  0  0  0  0  0  0  0  0  0
   17.6656  -11.1644  -19.4871 C   0  0  0  0  0  0  0  0  0  0  0  0
   18.8561  -11.5732  -18.6783 C   0  0  2  0  0  0  0  0  0  0  0  0
   18.7200  -12.9046  -18.1166 N   0  0  0  0  0  0  0  0  0  0  0  0
   18.9678  -10.6358  -17.5281 C   0  0  0  0  0  0  0  0  0  0  0  0
   18.2437  -10.7018  -16.5182 O   0  0  0  0  0  0  0  0  0  0  0  0
   19.9413   -9.6059  -17.5603 N   0  0  0  0  0  0  0  0  0  0  0  0
   20.1601   -8.6444  -16.5390 C   0  0  1  0  0  0  0  0  0  0  0  0
   21.5724   -8.4584  -16.1030 C   0  0  0  0  0  0  0  0  0  0  0  0
   21.7492   -7.4050  -15.0918 C   0  0  0  0  0  0  0  0  0  0  0  0
   22.1880   -6.1543  -15.4558 C   0  0  0  0  0  0  0  0  0  0  0  0
   22.3673   -5.1372  -14.5384 C   0  0  0  0  0  0  0  0  0  0  0  0
   22.1044   -5.3632  -13.2184 C   0  0  0  0  0  0  0  0  0  0  0  0
   21.6640   -6.6024  -12.8202 C   0  0  0  0  0  0  0  0  0  0  0  0
   21.4926   -7.6022  -13.7548 C   0  0  0  0  0  0  0  0  0  0  0  0
   19.5876   -7.3469  -16.9653 C   0  0  0  0  0  0  0  0  0  0  0  0
   19.9141   -6.8493  -18.0645 O   0  0  0  0  0  0  0  0  0  0  0  0
   16.6930   -5.3667  -16.8707 C   0  0  0  0  0  0  0  0  0  0  0  0
   18.1722   -5.3062  -16.5634 C   0  0  2  0  0  0  0  0  0  0  0  0
   18.6553   -6.6150  -16.1621 N   0  0  0  0  0  0  0  0  0  0  0  0
   18.4828   -4.3094  -15.5038 C   0  0  0  0  0  0  0  0  0  0  0  0
   18.8679   -3.0128  -15.7879 O   0  0  0  0  0  0  0  0  0  0  0  0
   18.3979   -4.6389  -14.3050 O   0  0  0  0  0  0  0  0  0  0  0  0
  2  1  1  1
  2  3  1  0
  4  2  1  0
  5  7  1  0
  5  4  1  0
  5  6  1  1
  7  8  2  0
  9 10  1  0
  9  7  1  0
 10 11  1  6
 12 13  2  0
 12 11  1  0
 14 13  1  0
 15 14  2  0
 16 17  2  0
 16 15  1  0
 17 12  1  0
 18 10  1  0
 19 18  2  0
 21 20  1  1
 21 22  1  0
 22 18  1  0
 23 21  1  0
 23 24  1  0
 25 23  2  0
M  END
$$$$
