EAM.pdb
     RDKit          3D

 23 22  0  0  1  0  0  0  0  0999 V2000
    8.3834  -18.2765   18.6706 N   0  0  0  0  0  0  0  0  0  0  0  0
    7.6532  -17.5640   19.7012 C   0  0  1  0  0  0  0  0  0  0  0  0
    7.5054  -18.4797   20.8733 C   0  0  0  0  0  0  0  0  0  0  0  0
    7.7054  -19.9242   20.5686 C   0  0  0  0  0  0  0  0  0  0  0  0
    7.5799  -20.8345   21.7205 C   0  0  0  0  0  0  0  0  0  0  0  0
    7.2940  -20.4819   22.8882 O   0  0  0  0  0  0  0  0  0  0  0  0
    8.3280  -16.2908   20.0663 C   0  0  0  0  0  0  0  0  0  0  0  0
    9.5799  -16.2801   20.1152 O   0  0  0  0  0  0  0  0  0  0  0  0
    7.7952  -22.1852   21.4932 O   0  0  0  0  0  0  0  0  0  0  0  0
    7.3563  -12.7230   20.5008 C   0  0  0  0  0  0  0  0  0  0  0  0
    8.2730  -13.8753   20.7922 C   0  0  2  0  0  0  0  0  0  0  0  0
    7.6464  -15.0885   20.3625 N   0  0  0  0  0  0  0  0  0  0  0  0
    8.7318  -13.9227   22.1937 C   0  0  0  0  0  0  0  0  0  0  0  0
    9.3534  -12.9459   22.6560 O   0  0  0  0  0  0  0  0  0  0  0  0
    6.2022  -11.3405   26.9268 C   0  0  0  0  0  0  0  0  0  0  0  0
    6.1577  -12.8473   25.9203 S   0  0  0  0  0  0  0  0  0  0  0  0
    7.6935  -13.7581   26.2032 C   0  0  0  0  0  0  0  0  0  0  0  0
    7.7423  -15.0447   25.4126 C   0  0  0  0  0  0  0  0  0  0  0  0
    8.8909  -15.0775   24.4407 C   0  0  2  0  0  0  0  0  0  0  0  0
    8.5109  -15.0208   23.0666 N   0  0  0  0  0  0  0  0  0  0  0  0
    9.7964  -16.2302   24.6804 C   0  0  0  0  0  0  0  0  0  0  0  0
   10.0216  -17.1122   23.8113 O   0  0  0  0  0  0  0  0  0  0  0  0
   10.4510  -16.3948   25.8970 O   0  0  0  0  0  0  0  0  0  0  0  0
  2  7  1  0
  2  1  1  6
  3  2  1  0
  3  4  1  0
  4  5  1  0
  5  9  1  0
  5  6  2  0
  7  8  2  0
 11 10  1  1
 12 11  1  0
 12  7  1  0
 13 14  2  0
 13 11  1  0
 16 15  1  0
 17 16  1  0
 18 17  1  0
 19 20  1  0
 19 18  1  1
 20 13  1  0
 21 19  1  0
 22 21  2  0
 23 21  1  0
M  END
$$$$
