EAM.pdb
     RDKit          3D

 23 22  0  0  1  0  0  0  0  0999 V2000
    8.6105  -13.2081   18.3316 N   0  0  0  0  0  0  0  0  0  0  0  0
    9.1241  -14.2737   19.1706 C   0  0  1  0  0  0  0  0  0  0  0  0
   10.4530  -13.8396   19.6993 C   0  0  0  0  0  0  0  0  0  0  0  0
   11.6231  -14.5525   19.1140 C   0  0  0  0  0  0  0  0  0  0  0  0
   12.9329  -14.1838   19.6793 C   0  0  0  0  0  0  0  0  0  0  0  0
   13.1092  -13.3683   20.6139 O   0  0  0  0  0  0  0  0  0  0  0  0
    8.1725  -14.6169   20.2598 C   0  0  0  0  0  0  0  0  0  0  0  0
    7.5348  -13.6841   20.8010 O   0  0  0  0  0  0  0  0  0  0  0  0
   14.0562  -14.7865   19.1340 O   0  0  0  0  0  0  0  0  0  0  0  0
    6.5572  -17.7349   21.4550 C   0  0  0  0  0  0  0  0  0  0  0  0
    6.9342  -16.2988   21.6749 C   0  0  2  0  0  0  0  0  0  0  0  0
    7.9402  -15.9311   20.7251 N   0  0  0  0  0  0  0  0  0  0  0  0
    7.3122  -15.9962   23.0686 C   0  0  0  0  0  0  0  0  0  0  0  0
    6.4574  -16.1313   23.9660 O   0  0  0  0  0  0  0  0  0  0  0  0
    7.2229  -11.0326   25.7020 C   0  0  0  0  0  0  0  0  0  0  0  0
    7.5765  -12.0242   27.1776 S   0  0  0  0  0  0  0  0  0  0  0  0
    8.4718  -13.5063   26.6579 C   0  0  0  0  0  0  0  0  0  0  0  0
    8.1403  -13.8986   25.2370 C   0  0  0  0  0  0  0  0  0  0  0  0
    8.9518  -15.0738   24.7623 C   0  0  2  0  0  0  0  0  0  0  0  0
    8.6023  -15.5548   23.4654 N   0  0  0  0  0  0  0  0  0  0  0  0
    8.9542  -16.1880   25.7446 C   0  0  0  0  0  0  0  0  0  0  0  0
    8.4261  -17.3057   25.5085 O   0  0  0  0  0  0  0  0  0  0  0  0
    9.5496  -16.0491   26.9943 O   0  0  0  0  0  0  0  0  0  0  0  0
  2  7  1  0
  2  1  1  1
  3  2  1  0
  3  4  1  0
  4  5  1  0
  5  9  1  0
  5  6  2  0
  7  8  2  0
 11 10  1  1
 12 11  1  0
 12  7  1  0
 13 14  2  0
 13 11  1  0
 16 15  1  0
 17 16  1  0
 18 17  1  0
 19 20  1  0
 19 18  1  1
 20 13  1  0
 21 19  1  0
 22 21  2  0
 23 21  1  0
M  END
$$$$
