EAM.pdb
     RDKit          3D

 23 22  0  0  1  0  0  0  0  0999 V2000
    8.2908  -19.0431   19.7794 N   0  0  0  0  0  0  0  0  0  0  0  0
    9.5885  -18.4296   19.9862 C   0  0  1  0  0  0  0  0  0  0  0  0
   10.3392  -18.5011   18.6957 C   0  0  0  0  0  0  0  0  0  0  0  0
    9.5048  -18.3188   17.4749 C   0  0  0  0  0  0  0  0  0  0  0  0
   10.2445  -18.3175   16.2005 C   0  0  0  0  0  0  0  0  0  0  0  0
   11.0604  -19.1978   15.8414 O   0  0  0  0  0  0  0  0  0  0  0  0
    9.4592  -17.0346   20.4829 C   0  0  0  0  0  0  0  0  0  0  0  0
   10.5063  -16.4176   20.7867 O   0  0  0  0  0  0  0  0  0  0  0  0
   10.0193  -17.2599   15.3327 O   0  0  0  0  0  0  0  0  0  0  0  0
    6.6294  -14.6426   21.0849 C   0  0  0  0  0  0  0  0  0  0  0  0
    8.0829  -15.0162   21.1125 C   0  0  2  0  0  0  0  0  0  0  0  0
    8.2276  -16.3578   20.6347 N   0  0  0  0  0  0  0  0  0  0  0  0
    8.7231  -14.7934   22.4230 C   0  0  0  0  0  0  0  0  0  0  0  0
    9.5114  -13.8362   22.5518 O   0  0  0  0  0  0  0  0  0  0  0  0
    6.7785  -11.3520   28.1364 C   0  0  0  0  0  0  0  0  0  0  0  0
    6.9123  -11.8888   26.4103 S   0  0  0  0  0  0  0  0  0  0  0  0
    6.8056  -13.6931   26.3726 C   0  0  0  0  0  0  0  0  0  0  0  0
    7.0044  -14.2428   24.9795 C   0  0  0  0  0  0  0  0  0  0  0  0
    8.2166  -15.1293   24.8802 C   0  0  2  0  0  0  0  0  0  0  0  0
    8.5004  -15.6062   23.5659 N   0  0  0  0  0  0  0  0  0  0  0  0
    8.1651  -16.2604   25.8416 C   0  0  0  0  0  0  0  0  0  0  0  0
    7.7508  -17.4058   25.5248 O   0  0  0  0  0  0  0  0  0  0  0  0
    8.5788  -16.1074   27.1611 O   0  0  0  0  0  0  0  0  0  0  0  0
  2  7  1  0
  2  1  1  6
  3  2  1  0
  3  4  1  0
  4  5  1  0
  5  9  1  0
  5  6  2  0
  7  8  2  0
 11 10  1  1
 12 11  1  0
 12  7  1  0
 13 14  2  0
 13 11  1  0
 16 15  1  0
 17 16  1  0
 18 17  1  0
 19 20  1  0
 19 18  1  6
 20 13  1  0
 21 19  1  0
 22 21  2  0
 23 21  1  0
M  END
$$$$
