EAM.pdb
     RDKit          3D

 23 22  0  0  1  0  0  0  0  0999 V2000
   10.4097  -13.7591   18.9429 N   0  0  0  0  0  0  0  0  0  0  0  0
    9.0130  -13.9626   19.2759 C   0  0  1  0  0  0  0  0  0  0  0  0
    8.3109  -14.4263   18.0405 C   0  0  0  0  0  0  0  0  0  0  0  0
    8.5108  -13.5608   16.8444 C   0  0  0  0  0  0  0  0  0  0  0  0
    7.7854  -13.9826   15.6331 C   0  0  0  0  0  0  0  0  0  0  0  0
    7.8256  -13.3927   14.5286 O   0  0  0  0  0  0  0  0  0  0  0  0
    8.8549  -14.9190   20.4028 C   0  0  0  0  0  0  0  0  0  0  0  0
    7.7219  -15.0321   20.9255 O   0  0  0  0  0  0  0  0  0  0  0  0
    6.9981  -15.1202   15.7241 O   0  0  0  0  0  0  0  0  0  0  0  0
   10.8457  -17.5928   22.0506 C   0  0  0  0  0  0  0  0  0  0  0  0
    9.8214  -16.4976   22.1170 C   0  0  2  0  0  0  0  0  0  0  0  0
    9.9033  -15.7110   20.9238 N   0  0  0  0  0  0  0  0  0  0  0  0
    9.8999  -15.6923   23.3508 C   0  0  0  0  0  0  0  0  0  0  0  0
   10.1515  -14.4747   23.2588 O   0  0  0  0  0  0  0  0  0  0  0  0
    6.6407  -11.2915   26.8363 C   0  0  0  0  0  0  0  0  0  0  0  0
    6.1985  -13.0489   26.8717 S   0  0  0  0  0  0  0  0  0  0  0  0
    7.7230  -14.0096   27.0177 C   0  0  0  0  0  0  0  0  0  0  0  0
    8.1324  -14.6251   25.7001 C   0  0  0  0  0  0  0  0  0  0  0  0
    9.3850  -15.4511   25.8175 C   0  0  2  0  0  0  0  0  0  0  0  0
    9.7058  -16.2158   24.6565 N   0  0  0  0  0  0  0  0  0  0  0  0
    9.3740  -16.3193   27.0226 C   0  0  0  0  0  0  0  0  0  0  0  0
    9.2578  -15.8633   28.1899 O   0  0  0  0  0  0  0  0  0  0  0  0
    9.4937  -17.7016   26.9193 O   0  0  0  0  0  0  0  0  0  0  0  0
  2  7  1  0
  2  1  1  6
  3  2  1  0
  3  4  1  0
  4  5  1  0
  5  9  1  0
  5  6  2  0
  7  8  2  0
 11 10  1  1
 12 11  1  0
 12  7  1  0
 13 14  2  0
 13 11  1  0
 16 15  1  0
 17 16  1  0
 18 17  1  0
 19 20  1  0
 19 18  1  6
 20 13  1  0
 21 19  1  0
 22 21  2  0
 23 21  1  0
M  END
$$$$
