EAM.pdb
     RDKit          3D

 23 22  0  0  1  0  0  0  0  0999 V2000
   10.4045  -18.1740   19.0726 N   0  0  0  0  0  0  0  0  0  0  0  0
    9.2330  -17.9352   19.8935 C   0  0  1  0  0  0  0  0  0  0  0  0
    9.2555  -18.9177   21.0197 C   0  0  0  0  0  0  0  0  0  0  0  0
   10.5136  -18.9268   21.8177 C   0  0  0  0  0  0  0  0  0  0  0  0
   10.6071  -19.9892   22.8345 C   0  0  0  0  0  0  0  0  0  0  0  0
    9.6905  -20.7939   23.1204 O   0  0  0  0  0  0  0  0  0  0  0  0
    9.1828  -16.5302   20.3763 C   0  0  0  0  0  0  0  0  0  0  0  0
   10.2387  -16.0205   20.8175 O   0  0  0  0  0  0  0  0  0  0  0  0
   11.8023  -20.1061   23.5275 O   0  0  0  0  0  0  0  0  0  0  0  0
    6.4938  -14.0368   21.0828 C   0  0  0  0  0  0  0  0  0  0  0  0
    7.9370  -14.3944   20.8770 C   0  0  2  0  0  0  0  0  0  0  0  0
    8.0174  -15.7305   20.3694 N   0  0  0  0  0  0  0  0  0  0  0  0
    8.7740  -14.1751   22.0721 C   0  0  0  0  0  0  0  0  0  0  0  0
    9.5569  -13.2051   22.0878 O   0  0  0  0  0  0  0  0  0  0  0  0
    6.5025  -11.5232   27.9355 C   0  0  0  0  0  0  0  0  0  0  0  0
    7.0113  -11.9629   26.2523 S   0  0  0  0  0  0  0  0  0  0  0  0
    6.4418  -13.6450   25.9139 C   0  0  0  0  0  0  0  0  0  0  0  0
    6.8591  -14.1185   24.5413 C   0  0  0  0  0  0  0  0  0  0  0  0
    8.2779  -14.6198   24.5142 C   0  0  2  0  0  0  0  0  0  0  0  0
    8.7495  -15.0052   23.2240 N   0  0  0  0  0  0  0  0  0  0  0  0
    8.5068  -15.7104   25.4963 C   0  0  0  0  0  0  0  0  0  0  0  0
    8.4398  -15.5322   26.7404 O   0  0  0  0  0  0  0  0  0  0  0  0
    8.8115  -17.0035   25.0832 O   0  0  0  0  0  0  0  0  0  0  0  0
  2  7  1  0
  2  1  1  1
  3  2  1  0
  3  4  1  0
  4  5  1  0
  5  9  1  0
  5  6  2  0
  7  8  2  0
 11 10  1  1
 12 11  1  0
 12  7  1  0
 13 14  2  0
 13 11  1  0
 16 15  1  0
 17 16  1  0
 18 17  1  0
 19 20  1  0
 19 18  1  6
 20 13  1  0
 21 19  1  0
 22 21  2  0
 23 21  1  0
M  END
$$$$
