EAM.pdb
     RDKit          3D

 23 22  0  0  1  0  0  0  0  0999 V2000
    9.2720  -19.6301   20.9928 N   0  0  0  0  0  0  0  0  0  0  0  0
   10.5324  -18.9179   21.0771 C   0  0  1  0  0  0  0  0  0  0  0  0
   11.1933  -18.9975   19.7388 C   0  0  0  0  0  0  0  0  0  0  0  0
   12.5414  -18.3672   19.6677 C   0  0  0  0  0  0  0  0  0  0  0  0
   13.1822  -18.3978   18.3411 C   0  0  0  0  0  0  0  0  0  0  0  0
   13.2613  -19.4075   17.6037 O   0  0  0  0  0  0  0  0  0  0  0  0
   10.3363  -17.5134   21.5226 C   0  0  0  0  0  0  0  0  0  0  0  0
   11.3543  -16.8196   21.7504 O   0  0  0  0  0  0  0  0  0  0  0  0
   13.7402  -17.2175   17.8742 O   0  0  0  0  0  0  0  0  0  0  0  0
    7.4104  -15.2142   21.9637 C   0  0  0  0  0  0  0  0  0  0  0  0
    8.8631  -15.5560   22.1248 C   0  0  2  0  0  0  0  0  0  0  0  0
    9.0719  -16.9088   21.7061 N   0  0  0  0  0  0  0  0  0  0  0  0
    9.3869  -15.2780   23.4758 C   0  0  0  0  0  0  0  0  0  0  0  0
   10.5798  -14.9376   23.5997 O   0  0  0  0  0  0  0  0  0  0  0  0
    5.7278  -11.5304   26.0874 C   0  0  0  0  0  0  0  0  0  0  0  0
    7.3882  -11.4022   26.8030 S   0  0  0  0  0  0  0  0  0  0  0  0
    8.4348  -12.6529   26.0229 C   0  0  0  0  0  0  0  0  0  0  0  0
    8.3003  -14.0008   26.6922 C   0  0  0  0  0  0  0  0  0  0  0  0
    9.0777  -15.0749   25.9800 C   0  0  2  0  0  0  0  0  0  0  0  0
    8.6146  -15.3726   24.6638 N   0  0  0  0  0  0  0  0  0  0  0  0
    9.1840  -16.3184   26.7853 C   0  0  0  0  0  0  0  0  0  0  0  0
    8.5825  -17.3811   26.4806 O   0  0  0  0  0  0  0  0  0  0  0  0
    9.9663  -16.3711   27.9345 O   0  0  0  0  0  0  0  0  0  0  0  0
  2  7  1  0
  2  1  1  6
  3  2  1  0
  3  4  1  0
  4  5  1  0
  5  9  1  0
  5  6  2  0
  7  8  2  0
 11 10  1  1
 12 11  1  0
 12  7  1  0
 13 14  2  0
 13 11  1  0
 16 15  1  0
 17 16  1  0
 18 17  1  0
 19 20  1  0
 19 18  1  1
 20 13  1  0
 21 19  1  0
 22 21  2  0
 23 21  1  0
M  END
$$$$
