EAM.pdb
     RDKit          3D

 23 22  0  0  1  0  0  0  0  0999 V2000
    8.3533  -18.2724   18.4459 N   0  0  0  0  0  0  0  0  0  0  0  0
    9.1067  -18.5570   19.6519 C   0  0  1  0  0  0  0  0  0  0  0  0
   10.4843  -18.0060   19.4715 C   0  0  0  0  0  0  0  0  0  0  0  0
   11.2885  -18.6670   18.4056 C   0  0  0  0  0  0  0  0  0  0  0  0
   12.6271  -18.0939   18.1793 C   0  0  0  0  0  0  0  0  0  0  0  0
   13.1523  -17.1957   18.8770 O   0  0  0  0  0  0  0  0  0  0  0  0
    8.4354  -18.0041   20.8574 C   0  0  0  0  0  0  0  0  0  0  0  0
    8.1697  -16.7799   20.8749 O   0  0  0  0  0  0  0  0  0  0  0  0
   13.3608  -18.5878   17.1116 O   0  0  0  0  0  0  0  0  0  0  0  0
    6.7005  -19.4013   23.8347 C   0  0  0  0  0  0  0  0  0  0  0  0
    7.3962  -18.2663   23.1413 C   0  0  2  0  0  0  0  0  0  0  0  0
    8.0765  -18.7727   21.9880 N   0  0  0  0  0  0  0  0  0  0  0  0
    8.2694  -17.4787   24.0323 C   0  0  0  0  0  0  0  0  0  0  0  0
    9.4937  -17.7142   24.0359 O   0  0  0  0  0  0  0  0  0  0  0  0
    6.5679  -10.7791   24.9526 C   0  0  0  0  0  0  0  0  0  0  0  0
    6.7523  -12.0721   26.2094 S   0  0  0  0  0  0  0  0  0  0  0  0
    7.6790  -13.4405   25.4767 C   0  0  0  0  0  0  0  0  0  0  0  0
    7.9254  -14.5527   26.4691 C   0  0  0  0  0  0  0  0  0  0  0  0
    8.6038  -15.7409   25.8423 C   0  0  2  0  0  0  0  0  0  0  0  0
    7.8052  -16.4548   24.8999 N   0  0  0  0  0  0  0  0  0  0  0  0
    9.1605  -16.6702   26.8585 C   0  0  0  0  0  0  0  0  0  0  0  0
    8.5086  -17.6409   27.3241 O   0  0  0  0  0  0  0  0  0  0  0  0
   10.4508  -16.5112   27.3541 O   0  0  0  0  0  0  0  0  0  0  0  0
  2  7  1  0
  2  1  1  6
  3  2  1  0
  3  4  1  0
  4  5  1  0
  5  9  1  0
  5  6  2  0
  7  8  2  0
 11 10  1  1
 12 11  1  0
 12  7  1  0
 13 14  2  0
 13 11  1  0
 16 15  1  0
 17 16  1  0
 18 17  1  0
 19 20  1  0
 19 18  1  1
 20 13  1  0
 21 19  1  0
 22 21  2  0
 23 21  1  0
M  END
$$$$
