EAM.pdb
     RDKit          3D

 23 22  0  0  1  0  0  0  0  0999 V2000
   11.1070  -18.8856   18.9356 N   0  0  0  0  0  0  0  0  0  0  0  0
   11.6559  -18.3983   20.1864 C   0  0  1  0  0  0  0  0  0  0  0  0
   12.5778  -17.2648   19.8708 C   0  0  0  0  0  0  0  0  0  0  0  0
   13.2822  -16.6842   21.0481 C   0  0  0  0  0  0  0  0  0  0  0  0
   14.6185  -17.2421   21.3211 C   0  0  0  0  0  0  0  0  0  0  0  0
   14.8470  -18.2440   22.0377 O   0  0  0  0  0  0  0  0  0  0  0  0
   10.5825  -18.0003   21.1346 C   0  0  0  0  0  0  0  0  0  0  0  0
   10.0189  -16.8956   20.9570 O   0  0  0  0  0  0  0  0  0  0  0  0
   15.7059  -16.6084   20.7394 O   0  0  0  0  0  0  0  0  0  0  0  0
    8.7284  -19.6816   23.9194 C   0  0  0  0  0  0  0  0  0  0  0  0
    9.0498  -18.4793   23.0803 C   0  0  2  0  0  0  0  0  0  0  0  0
   10.1558  -18.7901   22.2263 N   0  0  0  0  0  0  0  0  0  0  0  0
    9.2517  -17.2484   23.8684 C   0  0  0  0  0  0  0  0  0  0  0  0
   10.4064  -16.9496   24.2312 O   0  0  0  0  0  0  0  0  0  0  0  0
    6.2553  -10.6594   27.1737 C   0  0  0  0  0  0  0  0  0  0  0  0
    5.8394  -12.1532   26.2351 S   0  0  0  0  0  0  0  0  0  0  0  0
    7.3412  -13.1446   26.0616 C   0  0  0  0  0  0  0  0  0  0  0  0
    7.1127  -14.3743   25.2141 C   0  0  0  0  0  0  0  0  0  0  0  0
    8.3495  -15.2229   25.0895 C   0  0  2  0  0  0  0  0  0  0  0  0
    8.2057  -16.3662   24.2483 N   0  0  0  0  0  0  0  0  0  0  0  0
    8.8941  -15.6192   26.4134 C   0  0  0  0  0  0  0  0  0  0  0  0
    8.5301  -16.6627   27.0154 O   0  0  0  0  0  0  0  0  0  0  0  0
    9.8489  -14.8441   27.0639 O   0  0  0  0  0  0  0  0  0  0  0  0
  2  7  1  0
  2  1  1  6
  3  2  1  0
  3  4  1  0
  4  5  1  0
  5  9  1  0
  5  6  2  0
  7  8  2  0
 11 10  1  1
 12 11  1  0
 12  7  1  0
 13 14  2  0
 13 11  1  0
 16 15  1  0
 17 16  1  0
 18 17  1  0
 19 20  1  0
 19 18  1  1
 20 13  1  0
 21 19  1  0
 22 21  2  0
 23 21  1  0
M  END
$$$$
