DVA.pdb
     RDKit          3D

 21 20  0  0  1  0  0  0  0  0999 V2000
   19.9085  -12.5926  -18.0911 N   0  0  0  0  0  0  0  0  0  0  0  0
   20.5230  -11.3187  -18.3165 C   0  0  1  0  0  0  0  0  0  0  0  0
   19.6935  -10.5337  -19.2740 C   0  0  0  0  0  0  0  0  0  0  0  0
   19.6557  -11.2737  -20.5619 C   0  0  0  0  0  0  0  0  0  0  0  0
   20.1985  -12.3958  -20.7235 O   0  0  0  0  0  0  0  0  0  0  0  0
   20.8492  -10.6015  -17.0703 C   0  0  0  0  0  0  0  0  0  0  0  0
   20.0352  -10.7110  -16.1175 O   0  0  0  0  0  0  0  0  0  0  0  0
   18.9962  -10.7242  -21.6584 O   0  0  0  0  0  0  0  0  0  0  0  0
   23.8803  -10.9780  -14.9831 C   0  0  0  0  0  0  0  0  0  0  0  0
   23.7289   -9.5028  -15.1962 C   0  0  1  0  0  0  0  0  0  0  0  0
   24.7586   -9.0996  -16.2334 C   0  0  0  0  0  0  0  0  0  0  0  0
   22.3363   -9.1593  -15.5936 C   0  0  2  0  0  0  0  0  0  0  0  0
   21.9958   -9.8097  -16.8713 N   0  0  0  0  0  0  0  0  0  0  0  0
   22.1493   -7.7117  -15.6957 C   0  0  0  0  0  0  0  0  0  0  0  0
   22.6234   -7.0925  -16.7249 O   0  0  0  0  0  0  0  0  0  0  0  0
   20.0746   -4.8972  -14.8282 C   0  0  0  0  0  0  0  0  0  0  0  0
   21.4883   -5.4239  -14.9349 C   0  0  2  0  0  0  0  0  0  0  0  0
   21.4861   -6.8747  -14.7766 N   0  0  0  0  0  0  0  0  0  0  0  0
   22.3833   -4.7712  -13.9496 C   0  0  0  0  0  0  0  0  0  0  0  0
   22.6578   -5.4505  -12.9179 O   0  0  0  0  0  0  0  0  0  0  0  0
   22.9172   -3.5184  -14.0780 O   0  0  0  0  0  0  0  0  0  0  0  0
  2  1  1  1
  2  6  1  0
  3  4  1  0
  3  2  1  0
  4  5  2  0
  6 13  1  0
  6  7  2  0
  8  4  1  0
 10  9  1  6
 10 12  1  0
 11 10  1  0
 12 14  1  0
 12 13  1  6
 14 18  1  0
 15 14  2  0
 17 16  1  1
 18 17  1  0
 19 17  1  0
 19 21  1  0
 20 19  2  0
M  END
$$$$
