DVA.pdb
     RDKit          3D

 21 20  0  0  1  0  0  0  0  0999 V2000
   18.3756  -11.5214  -17.9240 N   0  0  0  0  0  0  0  0  0  0  0  0
   19.2813  -11.2037  -16.8610 C   0  0  1  0  0  0  0  0  0  0  0  0
   20.6770  -11.4838  -17.3022 C   0  0  0  0  0  0  0  0  0  0  0  0
   20.7924  -12.9423  -17.5610 C   0  0  0  0  0  0  0  0  0  0  0  0
   20.2668  -13.8129  -16.8222 O   0  0  0  0  0  0  0  0  0  0  0  0
   19.0812   -9.8504  -16.3111 C   0  0  0  0  0  0  0  0  0  0  0  0
   18.9348   -8.9132  -17.1373 O   0  0  0  0  0  0  0  0  0  0  0  0
   21.5095  -13.3962  -18.6650 O   0  0  0  0  0  0  0  0  0  0  0  0
   18.7194   -9.1449  -12.1466 C   0  0  0  0  0  0  0  0  0  0  0  0
   18.0113   -8.2727  -13.1376 C   0  0  1  0  0  0  0  0  0  0  0  0
   17.8088   -6.9252  -12.4728 C   0  0  0  0  0  0  0  0  0  0  0  0
   18.7726   -8.1845  -14.4134 C   0  0  2  0  0  0  0  0  0  0  0  0
   19.0426   -9.5339  -14.9402 N   0  0  0  0  0  0  0  0  0  0  0  0
   20.0248   -7.4474  -14.2409 C   0  0  0  0  0  0  0  0  0  0  0  0
   20.9997   -8.0128  -13.6107 O   0  0  0  0  0  0  0  0  0  0  0  0
   21.8635   -4.4530  -15.4962 C   0  0  0  0  0  0  0  0  0  0  0  0
   21.6188   -5.5350  -14.4682 C   0  0  2  0  0  0  0  0  0  0  0  0
   20.3138   -6.1465  -14.6983 N   0  0  0  0  0  0  0  0  0  0  0  0
   21.7347   -5.0048  -13.0886 C   0  0  0  0  0  0  0  0  0  0  0  0
   22.8941   -4.6460  -12.7303 O   0  0  0  0  0  0  0  0  0  0  0  0
   20.7006   -4.8810  -12.2019 O   0  0  0  0  0  0  0  0  0  0  0  0
  2  1  1  6
  2  6  1  0
  3  4  1  0
  3  2  1  0
  4  5  2  0
  6 13  1  0
  6  7  2  0
  8  4  1  0
 10  9  1  1
 10 12  1  0
 11 10  1  0
 12 14  1  0
 12 13  1  1
 14 18  1  0
 15 14  2  0
 17 16  1  6
 18 17  1  0
 19 17  1  0
 19 21  1  0
 20 19  2  0
M  END
$$$$
