DVA.pdb
     RDKit          3D

 21 20  0  0  1  0  0  0  0  0999 V2000
   18.6082  -12.9102  -16.9495 N   0  0  0  0  0  0  0  0  0  0  0  0
   19.0196  -11.5834  -17.2981 C   0  0  1  0  0  0  0  0  0  0  0  0
   17.8783  -10.8636  -17.9310 C   0  0  0  0  0  0  0  0  0  0  0  0
   17.6227  -11.4844  -19.2565 C   0  0  0  0  0  0  0  0  0  0  0  0
   18.5070  -11.5956  -20.1429 O   0  0  0  0  0  0  0  0  0  0  0  0
   19.6474  -10.8561  -16.1797 C   0  0  0  0  0  0  0  0  0  0  0  0
   19.0152  -10.8226  -15.0927 O   0  0  0  0  0  0  0  0  0  0  0  0
   16.3552  -11.9748  -19.5599 O   0  0  0  0  0  0  0  0  0  0  0  0
   22.7913  -11.3316  -14.2783 C   0  0  0  0  0  0  0  0  0  0  0  0
   22.8391   -9.9324  -14.8114 C   0  0  1  0  0  0  0  0  0  0  0  0
   23.7565   -9.9519  -16.0183 C   0  0  0  0  0  0  0  0  0  0  0  0
   21.4732   -9.4321  -15.1258 C   0  0  2  0  0  0  0  0  0  0  0  0
   20.8923  -10.2022  -16.2399 N   0  0  0  0  0  0  0  0  0  0  0  0
   21.4857   -8.0049  -15.4480 C   0  0  0  0  0  0  0  0  0  0  0  0
   22.0177   -7.6210  -16.5602 O   0  0  0  0  0  0  0  0  0  0  0  0
   19.7695   -4.8873  -15.1206 C   0  0  0  0  0  0  0  0  0  0  0  0
   21.1229   -5.5603  -15.0706 C   0  0  2  0  0  0  0  0  0  0  0  0
   20.9650   -6.9540  -14.6672 N   0  0  0  0  0  0  0  0  0  0  0  0
   22.0528   -4.8364  -14.1711 C   0  0  0  0  0  0  0  0  0  0  0  0
   22.2136   -5.3403  -13.0215 O   0  0  0  0  0  0  0  0  0  0  0  0
   22.7297   -3.6919  -14.4922 O   0  0  0  0  0  0  0  0  0  0  0  0
  2  1  1  1
  2  6  1  0
  3  4  1  0
  3  2  1  0
  4  5  2  0
  6 13  1  0
  6  7  2  0
  8  4  1  0
 10  9  1  6
 10 12  1  0
 11 10  1  0
 12 14  1  0
 12 13  1  6
 14 18  1  0
 15 14  2  0
 17 16  1  1
 18 17  1  0
 19 17  1  0
 19 21  1  0
 20 19  2  0
M  END
$$$$
