DVA.pdb
     RDKit          3D

 21 20  0  0  1  0  0  0  0  0999 V2000
   19.2525  -12.5116  -16.6037 N   0  0  0  0  0  0  0  0  0  0  0  0
   19.6454  -11.1838  -16.9698 C   0  0  1  0  0  0  0  0  0  0  0  0
   18.4286  -10.3450  -17.1622 C   0  0  0  0  0  0  0  0  0  0  0  0
   17.6459  -10.9229  -18.2851 C   0  0  0  0  0  0  0  0  0  0  0  0
   16.3914  -11.0021  -18.2765 O   0  0  0  0  0  0  0  0  0  0  0  0
   20.6440  -10.5997  -16.0558 C   0  0  0  0  0  0  0  0  0  0  0  0
   20.3890  -10.6462  -14.8248 O   0  0  0  0  0  0  0  0  0  0  0  0
   18.3043  -11.4075  -19.4124 O   0  0  0  0  0  0  0  0  0  0  0  0
   24.5149   -9.3738  -17.2817 C   0  0  0  0  0  0  0  0  0  0  0  0
   24.1842   -9.6844  -15.8539 C   0  0  1  0  0  0  0  0  0  0  0  0
   25.1976   -8.9508  -14.9975 C   0  0  0  0  0  0  0  0  0  0  0  0
   22.7776   -9.3149  -15.5375 C   0  0  2  0  0  0  0  0  0  0  0  0
   21.8517   -9.9987  -16.4575 N   0  0  0  0  0  0  0  0  0  0  0  0
   22.5767   -7.8668  -15.5992 C   0  0  0  0  0  0  0  0  0  0  0  0
   22.5355   -7.2914  -16.7544 O   0  0  0  0  0  0  0  0  0  0  0  0
   21.6431   -4.9363  -13.4564 C   0  0  0  0  0  0  0  0  0  0  0  0
   22.1931   -5.5580  -14.7206 C   0  0  2  0  0  0  0  0  0  0  0  0
   22.4115   -6.9858  -14.5121 N   0  0  0  0  0  0  0  0  0  0  0  0
   23.4342   -4.8771  -15.1611 C   0  0  0  0  0  0  0  0  0  0  0  0
   23.3011   -3.6774  -15.5408 O   0  0  0  0  0  0  0  0  0  0  0  0
   24.6790   -5.4437  -15.1837 O   0  0  0  0  0  0  0  0  0  0  0  0
  2  1  1  1
  2  6  1  0
  3  4  1  0
  3  2  1  0
  4  5  2  0
  6 13  1  0
  6  7  2  0
  8  4  1  0
 10  9  1  6
 10 12  1  0
 11 10  1  0
 12 14  1  0
 12 13  1  6
 14 18  1  0
 15 14  2  0
 17 16  1  1
 18 17  1  0
 19 17  1  0
 19 21  1  0
 20 19  2  0
M  END
$$$$
