DVA.pdb
     RDKit          3D

 21 20  0  0  1  0  0  0  0  0999 V2000
   20.1299  -22.5433   -7.4481 N   0  0  0  0  0  0  0  0  0  0  0  0
   20.1327  -22.6841   -8.8734 C   0  0  1  0  0  0  0  0  0  0  0  0
   18.7294  -22.8122   -9.3589 C   0  0  0  0  0  0  0  0  0  0  0  0
   18.1707  -24.0784   -8.8184 C   0  0  0  0  0  0  0  0  0  0  0  0
   18.8425  -24.8823   -8.1238 O   0  0  0  0  0  0  0  0  0  0  0  0
   20.9169  -21.6410   -9.5596 C   0  0  0  0  0  0  0  0  0  0  0  0
   20.5304  -20.4518   -9.4225 O   0  0  0  0  0  0  0  0  0  0  0  0
   16.8451  -24.4175   -9.0766 O   0  0  0  0  0  0  0  0  0  0  0  0
   24.8428  -22.2643  -10.9358 C   0  0  0  0  0  0  0  0  0  0  0  0
   24.2800  -20.9231  -10.5765 C   0  0  1  0  0  0  0  0  0  0  0  0
   25.1675  -19.8831  -11.2317 C   0  0  0  0  0  0  0  0  0  0  0  0
   22.8535  -20.8136  -10.9867 C   0  0  2  0  0  0  0  0  0  0  0  0
   22.0570  -21.8776  -10.3502 N   0  0  0  0  0  0  0  0  0  0  0  0
   22.7078  -20.8723  -12.4415 C   0  0  0  0  0  0  0  0  0  0  0  0
   22.9055  -21.9975  -13.0434 O   0  0  0  0  0  0  0  0  0  0  0  0
   20.7572  -20.5699  -14.9650 C   0  0  0  0  0  0  0  0  0  0  0  0
   22.1521  -20.0346  -14.7304 C   0  0  2  0  0  0  0  0  0  0  0  0
   22.3606  -19.8130  -13.3031 N   0  0  0  0  0  0  0  0  0  0  0  0
   22.3948  -18.7992  -15.5132 C   0  0  0  0  0  0  0  0  0  0  0  0
   22.2531  -17.7102  -14.8845 O   0  0  0  0  0  0  0  0  0  0  0  0
   22.7518  -18.7594  -16.8331 O   0  0  0  0  0  0  0  0  0  0  0  0
  2  1  1  1
  2  6  1  0
  3  4  1  0
  3  2  1  0
  4  5  2  0
  6 13  1  0
  6  7  2  0
  8  4  1  0
 10  9  1  6
 10 12  1  0
 11 10  1  0
 12 14  1  0
 12 13  1  1
 14 18  1  0
 15 14  2  0
 17 16  1  1
 18 17  1  0
 19 17  1  0
 19 21  1  0
 20 19  2  0
M  END
$$$$
