DVA.pdb
     RDKit          3D

 21 20  0  0  1  0  0  0  0  0999 V2000
   22.5175  -13.1045  -18.8933 N   0  0  0  0  0  0  0  0  0  0  0  0
   22.9512  -11.7600  -19.1290 C   0  0  1  0  0  0  0  0  0  0  0  0
   22.0611  -11.1253  -20.1419 C   0  0  0  0  0  0  0  0  0  0  0  0
   22.1706  -11.9051  -21.4018 C   0  0  0  0  0  0  0  0  0  0  0  0
   21.1906  -12.1293  -22.1563 O   0  0  0  0  0  0  0  0  0  0  0  0
   23.1139  -10.9758  -17.8911 C   0  0  0  0  0  0  0  0  0  0  0  0
   22.1901  -11.0512  -17.0406 O   0  0  0  0  0  0  0  0  0  0  0  0
   23.4026  -12.4245  -21.7911 O   0  0  0  0  0  0  0  0  0  0  0  0
   26.0704  -11.0293  -15.5056 C   0  0  0  0  0  0  0  0  0  0  0  0
   25.7774   -9.5936  -15.8175 C   0  0  1  0  0  0  0  0  0  0  0  0
   26.8289   -9.1348  -16.8087 C   0  0  0  0  0  0  0  0  0  0  0  0
   24.3877   -9.4285  -16.3242 C   0  0  2  0  0  0  0  0  0  0  0  0
   24.2187  -10.1557  -17.5946 N   0  0  0  0  0  0  0  0  0  0  0  0
   24.0445   -8.0168  -16.4982 C   0  0  0  0  0  0  0  0  0  0  0  0
   24.2331   -7.4664  -17.6509 O   0  0  0  0  0  0  0  0  0  0  0  0
   22.0515   -5.8121  -16.9415 C   0  0  0  0  0  0  0  0  0  0  0  0
   23.1145   -5.7840  -15.8660 C   0  0  2  0  0  0  0  0  0  0  0  0
   23.5081   -7.1479  -15.5273 N   0  0  0  0  0  0  0  0  0  0  0  0
   22.6529   -5.0389  -14.6704 C   0  0  0  0  0  0  0  0  0  0  0  0
   22.3942   -5.7396  -13.6488 O   0  0  0  0  0  0  0  0  0  0  0  0
   22.4926   -3.6823  -14.5998 O   0  0  0  0  0  0  0  0  0  0  0  0
  2  1  1  1
  2  6  1  0
  3  4  1  0
  3  2  1  0
  4  5  2  0
  6 13  1  0
  6  7  2  0
  8  4  1  0
 10  9  1  6
 10 12  1  0
 11 10  1  0
 12 14  1  0
 12 13  1  6
 14 18  1  0
 15 14  2  0
 17 16  1  6
 18 17  1  0
 19 17  1  0
 19 21  1  0
 20 19  2  0
M  END
$$$$
