DVA.pdb
     RDKit          3D

 21 20  0  0  1  0  0  0  0  0999 V2000
   18.4232  -12.1059  -17.4724 N   0  0  0  0  0  0  0  0  0  0  0  0
   19.4430  -11.1278  -17.7063 C   0  0  1  0  0  0  0  0  0  0  0  0
   19.2935  -10.5793  -19.0839 C   0  0  0  0  0  0  0  0  0  0  0  0
   19.6777  -11.6443  -20.0460 C   0  0  0  0  0  0  0  0  0  0  0  0
   18.9028  -12.5746  -20.3839 O   0  0  0  0  0  0  0  0  0  0  0  0
   19.5168  -10.1005  -16.6513 C   0  0  0  0  0  0  0  0  0  0  0  0
   18.4351   -9.5629  -16.2998 O   0  0  0  0  0  0  0  0  0  0  0  0
   20.9482  -11.6385  -20.6162 O   0  0  0  0  0  0  0  0  0  0  0  0
   22.6976   -9.8720  -14.0454 C   0  0  0  0  0  0  0  0  0  0  0  0
   21.3779   -9.2402  -13.7233 C   0  0  1  0  0  0  0  0  0  0  0  0
   21.6370   -8.2024  -12.6488 C   0  0  0  0  0  0  0  0  0  0  0  0
   20.7453   -8.6698  -14.9437 C   0  0  2  0  0  0  0  0  0  0  0  0
   20.6999   -9.6812  -16.0145 N   0  0  0  0  0  0  0  0  0  0  0  0
   21.4515   -7.4742  -15.4050 C   0  0  0  0  0  0  0  0  0  0  0  0
   22.6206   -7.6065  -15.9370 O   0  0  0  0  0  0  0  0  0  0  0  0
   20.9179   -3.8433  -16.1266 C   0  0  0  0  0  0  0  0  0  0  0  0
   21.8019   -5.0409  -15.8594 C   0  0  2  0  0  0  0  0  0  0  0  0
   20.9957   -6.1424  -15.3431 N   0  0  0  0  0  0  0  0  0  0  0  0
   22.9096   -4.6988  -14.9354 C   0  0  0  0  0  0  0  0  0  0  0  0
   22.6269   -4.7208  -13.7022 O   0  0  0  0  0  0  0  0  0  0  0  0
   24.1815   -4.3700  -15.3166 O   0  0  0  0  0  0  0  0  0  0  0  0
  2  1  1  1
  2  6  1  0
  3  4  1  0
  3  2  1  0
  4  5  2  0
  6 13  1  0
  6  7  2  0
  8  4  1  0
 10  9  1  6
 10 12  1  0
 11 10  1  0
 12 14  1  0
 12 13  1  6
 14 18  1  0
 15 14  2  0
 17 16  1  1
 18 17  1  0
 19 17  1  0
 19 21  1  0
 20 19  2  0
M  END
$$$$
