DVA.pdb
     RDKit          3D

 21 20  0  0  1  0  0  0  0  0999 V2000
   23.0543  -12.1464  -18.8780 N   0  0  0  0  0  0  0  0  0  0  0  0
   23.3664  -10.8874  -19.4853 C   0  0  1  0  0  0  0  0  0  0  0  0
   23.2879  -11.0219  -20.9675 C   0  0  0  0  0  0  0  0  0  0  0  0
   24.1903  -12.1294  -21.3759 C   0  0  0  0  0  0  0  0  0  0  0  0
   25.3395  -12.2904  -20.8929 O   0  0  0  0  0  0  0  0  0  0  0  0
   22.5803   -9.7666  -18.9376 C   0  0  0  0  0  0  0  0  0  0  0  0
   22.8180   -8.6213  -19.4004 O   0  0  0  0  0  0  0  0  0  0  0  0
   23.7715  -13.0470  -22.3360 O   0  0  0  0  0  0  0  0  0  0  0  0
   19.2436  -10.4350  -16.4616 C   0  0  0  0  0  0  0  0  0  0  0  0
   19.3281   -9.2308  -17.3489 C   0  0  1  0  0  0  0  0  0  0  0  0
   18.4191   -8.1765  -16.7482 C   0  0  0  0  0  0  0  0  0  0  0  0
   20.7360   -8.7712  -17.4955 C   0  0  2  0  0  0  0  0  0  0  0  0
   21.5916   -9.8845  -17.9428 N   0  0  0  0  0  0  0  0  0  0  0  0
   21.2490   -8.2076  -16.2464 C   0  0  0  0  0  0  0  0  0  0  0  0
   21.6870   -9.0092  -15.3337 O   0  0  0  0  0  0  0  0  0  0  0  0
   22.1268   -4.9227  -14.6434 C   0  0  0  0  0  0  0  0  0  0  0  0
   21.9019   -6.4181  -14.6273 C   0  0  2  0  0  0  0  0  0  0  0  0
   21.3324   -6.8440  -15.9018 N   0  0  0  0  0  0  0  0  0  0  0  0
   21.0451   -6.8228  -13.4871 C   0  0  0  0  0  0  0  0  0  0  0  0
   19.8013   -6.8611  -13.7172 O   0  0  0  0  0  0  0  0  0  0  0  0
   21.4970   -7.1485  -12.2378 O   0  0  0  0  0  0  0  0  0  0  0  0
  2  1  1  1
  2  6  1  0
  3  4  1  0
  3  2  1  0
  4  5  2  0
  6 13  1  0
  6  7  2  0
  8  4  1  0
 10  9  1  1
 10 12  1  0
 11 10  1  0
 12 14  1  0
 12 13  1  1
 14 18  1  0
 15 14  2  0
 17 16  1  6
 18 17  1  0
 19 17  1  0
 19 21  1  0
 20 19  2  0
M  END
$$$$
