AYR.pdb
     RDKit          3D

 29 29  0  0  1  0  0  0  0  0999 V2000
   27.6156  -21.0746  -17.3595 C   0  0  0  0  0  0  0  0  0  0  0  0
   28.1590  -22.0796  -16.3665 C   0  0  2  0  0  0  0  0  0  0  0  0
   28.0148  -23.3898  -16.9338 N   0  0  0  0  0  0  0  0  0  0  0  0
   27.3874  -21.9408  -15.1006 C   0  0  0  0  0  0  0  0  0  0  0  0
   26.3408  -22.6224  -14.8850 O   0  0  0  0  0  0  0  0  0  0  0  0
   25.2667  -19.9896   -6.7328 O   0  0  0  0  0  0  0  0  0  0  0  0
   25.9328  -20.1434   -7.9460 C   0  0  0  0  0  0  0  0  0  0  0  0
   25.6440  -19.3411   -9.0327 C   0  0  0  0  0  0  0  0  0  0  0  0
   26.3217  -19.5056  -10.2478 C   0  0  0  0  0  0  0  0  0  0  0  0
   27.2916  -20.4693  -10.3921 C   0  0  0  0  0  0  0  0  0  0  0  0
   27.9920  -20.6306  -11.6704 C   0  0  0  0  0  0  0  0  0  0  0  0
   27.0696  -20.9895  -12.7782 C   0  0  2  0  0  0  0  0  0  0  0  0
   27.7607  -21.0513  -14.0622 N   0  0  0  0  0  0  0  0  0  0  0  0
   25.8922  -20.0847  -12.8622 C   0  0  0  0  0  0  0  0  0  0  0  0
   25.9093  -19.0276  -13.5373 O   0  0  0  0  0  0  0  0  0  0  0  0
   27.5510  -21.2483   -9.2882 C   0  0  0  0  0  0  0  0  0  0  0  0
   26.8997  -21.1031   -8.0914 C   0  0  0  0  0  0  0  0  0  0  0  0
   22.1128  -24.7875  -15.1082 N   0  0  0  0  0  0  0  0  0  0  0  0
   20.8057  -24.2660  -15.2471 C   0  0  0  0  0  0  0  0  0  0  0  0
   19.7997  -24.9754  -14.9472 N   0  0  0  0  0  0  0  0  0  0  0  0
   20.6430  -22.9405  -15.7265 N   0  0  0  0  0  0  0  0  0  0  0  0
   21.8128  -22.0600  -15.8893 C   0  0  0  0  0  0  0  0  0  0  0  0
   21.9238  -21.2252  -14.6630 C   0  0  0  0  0  0  0  0  0  0  0  0
   23.2694  -21.1326  -14.0467 C   0  0  0  0  0  0  0  0  0  0  0  0
   23.3814  -20.3109  -12.8155 C   0  0  2  0  0  0  0  0  0  0  0  0
   24.6767  -20.3742  -12.1758 N   0  0  0  0  0  0  0  0  0  0  0  0
   22.3505  -20.5779  -11.7872 C   0  0  0  0  0  0  0  0  0  0  0  0
   21.1793  -20.1631  -11.9578 O   0  0  0  0  0  0  0  0  0  0  0  0
   22.6349  -21.2770  -10.6254 O   0  0  0  0  0  0  0  0  0  0  0  0
  2  1  1  6
  2  3  1  0
  4  2  1  0
  4  5  2  0
  7  8  2  0
  7  6  1  0
  9  8  1  0
 10  9  2  0
 11 10  1  0
 12 11  1  1
 12 13  1  0
 13  4  1  0
 14 12  1  0
 15 14  2  0
 16 10  1  0
 16 17  2  0
 17  7  1  0
 19 18  1  0
 19 21  1  0
 20 19  2  0
 21 22  1  0
 22 23  1  0
 23 24  1  0
 25 24  1  6
 25 26  1  0
 25 27  1  0
 26 14  1  0
 27 28  2  0
 27 29  1  0
M  END
$$$$
