AYR.pdb
     RDKit          3D

 29 29  0  0  1  0  0  0  0  0999 V2000
   25.0124  -21.4582   -7.9437 C   0  0  0  0  0  0  0  0  0  0  0  0
   26.2565  -20.6504   -8.2458 C   0  0  2  0  0  0  0  0  0  0  0  0
   26.4202  -19.6772   -7.2042 N   0  0  0  0  0  0  0  0  0  0  0  0
   26.0765  -20.0066   -9.5764 C   0  0  0  0  0  0  0  0  0  0  0  0
   25.2688  -19.0442   -9.7424 O   0  0  0  0  0  0  0  0  0  0  0  0
   26.9637  -17.6209  -18.0356 O   0  0  0  0  0  0  0  0  0  0  0  0
   27.1750  -18.1323  -16.7577 C   0  0  0  0  0  0  0  0  0  0  0  0
   27.5552  -19.4457  -16.5616 C   0  0  0  0  0  0  0  0  0  0  0  0
   27.7649  -19.9481  -15.2707 C   0  0  0  0  0  0  0  0  0  0  0  0
   27.5980  -19.1487  -14.1646 C   0  0  0  0  0  0  0  0  0  0  0  0
   27.8202  -19.6886  -12.8193 C   0  0  0  0  0  0  0  0  0  0  0  0
   26.5553  -19.8371  -12.0546 C   0  0  2  0  0  0  0  0  0  0  0  0
   26.7834  -20.4164  -10.7345 N   0  0  0  0  0  0  0  0  0  0  0  0
   25.5240  -20.6129  -12.7939 C   0  0  0  0  0  0  0  0  0  0  0  0
   25.5487  -21.8655  -12.8571 O   0  0  0  0  0  0  0  0  0  0  0  0
   27.2190  -17.8473  -14.4002 C   0  0  0  0  0  0  0  0  0  0  0  0
   27.0092  -17.3370  -15.6544 C   0  0  0  0  0  0  0  0  0  0  0  0
   17.7756  -23.4574  -13.8864 N   0  0  0  0  0  0  0  0  0  0  0  0
   18.7106  -24.0495  -13.0061 C   0  0  0  0  0  0  0  0  0  0  0  0
   18.6008  -25.2700  -12.6844 N   0  0  0  0  0  0  0  0  0  0  0  0
   19.7679  -23.2550  -12.4922 N   0  0  0  0  0  0  0  0  0  0  0  0
   19.8655  -21.8284  -12.8461 C   0  0  0  0  0  0  0  0  0  0  0  0
   21.0466  -21.6633  -13.7353 C   0  0  0  0  0  0  0  0  0  0  0  0
   22.2047  -20.9323  -13.1662 C   0  0  0  0  0  0  0  0  0  0  0  0
   23.3542  -20.6974  -14.0755 C   0  0  2  0  0  0  0  0  0  0  0  0
   24.4483  -19.9690  -13.4725 N   0  0  0  0  0  0  0  0  0  0  0  0
   23.0163  -20.0365  -15.3562 C   0  0  0  0  0  0  0  0  0  0  0  0
   22.2190  -20.5898  -16.1506 O   0  0  0  0  0  0  0  0  0  0  0  0
   23.5566  -18.8128  -15.7170 O   0  0  0  0  0  0  0  0  0  0  0  0
  2  1  1  1
  2  3  1  0
  4  2  1  0
  4  5  2  0
  7  8  2  0
  7  6  1  0
  9  8  1  0
 10  9  2  0
 11 10  1  0
 12 11  1  6
 12 13  1  0
 13  4  1  0
 14 12  1  0
 15 14  2  0
 16 10  1  0
 16 17  2  0
 17  7  1  0
 19 18  1  0
 19 21  1  0
 20 19  2  0
 21 22  1  0
 22 23  1  0
 23 24  1  0
 25 24  1  1
 25 26  1  0
 25 27  1  0
 26 14  1  0
 27 28  2  0
 27 29  1  0
M  END
$$$$
