AYR.pdb
     RDKit          3D

 29 29  0  0  1  0  0  0  0  0999 V2000
   28.9854  -22.5546  -16.2972 C   0  0  0  0  0  0  0  0  0  0  0  0
   27.5653  -22.1959  -16.6795 C   0  0  2  0  0  0  0  0  0  0  0  0
   27.5921  -20.9328  -17.3600 N   0  0  0  0  0  0  0  0  0  0  0  0
   26.7543  -22.1312  -15.4324 C   0  0  0  0  0  0  0  0  0  0  0  0
   26.5689  -23.1554  -14.7092 O   0  0  0  0  0  0  0  0  0  0  0  0
   29.1369  -21.6797   -8.6335 O   0  0  0  0  0  0  0  0  0  0  0  0
   28.3341  -21.2114   -9.6707 C   0  0  0  0  0  0  0  0  0  0  0  0
   28.8616  -20.9169  -10.9128 C   0  0  0  0  0  0  0  0  0  0  0  0
   28.0431  -20.4468  -11.9481 C   0  0  0  0  0  0  0  0  0  0  0  0
   26.6938  -20.2654  -11.7564 C   0  0  0  0  0  0  0  0  0  0  0  0
   25.8496  -19.7716  -12.8492 C   0  0  0  0  0  0  0  0  0  0  0  0
   25.3721  -20.8665  -13.7325 C   0  0  2  0  0  0  0  0  0  0  0  0
   26.1409  -20.9397  -14.9710 N   0  0  0  0  0  0  0  0  0  0  0  0
   23.9169  -20.7752  -14.0260 C   0  0  0  0  0  0  0  0  0  0  0  0
   23.4378  -19.8725  -14.7534 O   0  0  0  0  0  0  0  0  0  0  0  0
   26.2058  -20.5692  -10.5065 C   0  0  0  0  0  0  0  0  0  0  0  0
   26.9893  -21.0302   -9.4813 C   0  0  0  0  0  0  0  0  0  0  0  0
   24.3463  -26.6897  -15.0180 N   0  0  0  0  0  0  0  0  0  0  0  0
   23.3444  -26.5731  -16.0090 C   0  0  0  0  0  0  0  0  0  0  0  0
   23.3779  -27.3076  -17.0408 N   0  0  0  0  0  0  0  0  0  0  0  0
   22.3066  -25.6227  -15.8273 N   0  0  0  0  0  0  0  0  0  0  0  0
   22.2362  -24.8263  -14.5900 C   0  0  0  0  0  0  0  0  0  0  0  0
   21.0374  -23.9505  -14.6841 C   0  0  0  0  0  0  0  0  0  0  0  0
   20.8623  -22.9520  -13.6017 C   0  0  0  0  0  0  0  0  0  0  0  0
   21.5687  -21.6575  -13.7710 C   0  0  2  0  0  0  0  0  0  0  0  0
   22.9867  -21.7148  -13.4929 N   0  0  0  0  0  0  0  0  0  0  0  0
   20.9983  -20.5266  -13.0050 C   0  0  0  0  0  0  0  0  0  0  0  0
   21.4849  -20.2220  -11.8900 O   0  0  0  0  0  0  0  0  0  0  0  0
   19.9303  -19.7820  -13.4788 O   0  0  0  0  0  0  0  0  0  0  0  0
  2  1  1  1
  2  3  1  0
  4  2  1  0
  4  5  2  0
  7  8  2  0
  7  6  1  0
  9  8  1  0
 10  9  2  0
 11 10  1  0
 12 11  1  6
 12 13  1  0
 13  4  1  0
 14 12  1  0
 15 14  2  0
 16 10  1  0
 16 17  2  0
 17  7  1  0
 19 18  1  0
 19 21  1  0
 20 19  2  0
 21 22  1  0
 22 23  1  0
 23 24  1  0
 25 24  1  1
 25 26  1  0
 25 27  1  0
 26 14  1  0
 27 28  2  0
 27 29  1  0
M  END
$$$$
