AYR.pdb
     RDKit          3D

 29 29  0  0  1  0  0  0  0  0999 V2000
   26.6386  -23.3410  -17.8652 C   0  0  0  0  0  0  0  0  0  0  0  0
   27.5198  -23.4761  -16.6418 C   0  0  2  0  0  0  0  0  0  0  0  0
   27.9399  -24.8447  -16.5437 N   0  0  0  0  0  0  0  0  0  0  0  0
   26.7262  -23.0582  -15.4532 C   0  0  0  0  0  0  0  0  0  0  0  0
   26.0725  -23.8980  -14.7649 O   0  0  0  0  0  0  0  0  0  0  0  0
   28.1423  -21.0925   -7.8279 O   0  0  0  0  0  0  0  0  0  0  0  0
   27.7485  -20.8528   -9.1420 C   0  0  0  0  0  0  0  0  0  0  0  0
   28.6242  -21.0176  -10.1975 C   0  0  0  0  0  0  0  0  0  0  0  0
   28.2155  -20.7735  -11.5151 C   0  0  0  0  0  0  0  0  0  0  0  0
   26.9331  -20.3632  -11.7937 C   0  0  0  0  0  0  0  0  0  0  0  0
   26.5198  -20.1106  -13.1778 C   0  0  0  0  0  0  0  0  0  0  0  0
   25.9162  -21.3095  -13.8145 C   0  0  2  0  0  0  0  0  0  0  0  0
   26.6453  -21.7136  -15.0126 N   0  0  0  0  0  0  0  0  0  0  0  0
   24.4709  -21.1334  -14.1176 C   0  0  0  0  0  0  0  0  0  0  0  0
   24.0706  -20.6463  -15.2021 O   0  0  0  0  0  0  0  0  0  0  0  0
   26.0907  -20.2103  -10.7168 C   0  0  0  0  0  0  0  0  0  0  0  0
   26.4710  -20.4440   -9.4213 C   0  0  0  0  0  0  0  0  0  0  0  0
   16.7483  -24.6718  -11.0005 N   0  0  0  0  0  0  0  0  0  0  0  0
   16.4441  -23.7998  -12.0715 C   0  0  0  0  0  0  0  0  0  0  0  0
   15.2502  -23.6796  -12.4779 N   0  0  0  0  0  0  0  0  0  0  0  0
   17.4958  -23.0664  -12.6794 N   0  0  0  0  0  0  0  0  0  0  0  0
   18.8893  -23.2667  -12.2455 C   0  0  0  0  0  0  0  0  0  0  0  0
   19.7416  -22.3183  -13.0115 C   0  0  0  0  0  0  0  0  0  0  0  0
   21.1970  -22.3630  -12.7300 C   0  0  0  0  0  0  0  0  0  0  0  0
   22.0476  -21.4005  -13.4740 C   0  0  2  0  0  0  0  0  0  0  0  0
   23.4604  -21.5114  -13.1858 N   0  0  0  0  0  0  0  0  0  0  0  0
   21.6618  -19.9789  -13.3278 C   0  0  0  0  0  0  0  0  0  0  0  0
   22.1163  -19.3059  -12.3721 O   0  0  0  0  0  0  0  0  0  0  0  0
   20.8036  -19.3547  -14.2185 O   0  0  0  0  0  0  0  0  0  0  0  0
  2  1  1  6
  2  3  1  0
  4  2  1  0
  4  5  2  0
  7  8  2  0
  7  6  1  0
  9  8  1  0
 10  9  2  0
 11 10  1  0
 12 11  1  6
 12 13  1  0
 13  4  1  0
 14 12  1  0
 15 14  2  0
 16 10  1  0
 16 17  2  0
 17  7  1  0
 19 18  1  0
 19 21  1  0
 20 19  2  0
 21 22  1  0
 22 23  1  0
 23 24  1  0
 25 24  1  1
 25 26  1  0
 25 27  1  0
 26 14  1  0
 27 28  2  0
 27 29  1  0
M  END
$$$$
