AYR.pdb
     RDKit          3D

 29 29  0  0  1  0  0  0  0  0999 V2000
   26.8059  -21.9286  -17.9901 C   0  0  0  0  0  0  0  0  0  0  0  0
   27.6753  -21.5967  -16.7961 C   0  0  2  0  0  0  0  0  0  0  0  0
   28.8031  -22.4840  -16.8052 N   0  0  0  0  0  0  0  0  0  0  0  0
   26.8533  -21.7650  -15.5660 C   0  0  0  0  0  0  0  0  0  0  0  0
   26.6009  -22.9123  -15.0901 O   0  0  0  0  0  0  0  0  0  0  0  0
   30.9360  -21.8512  -10.3216 O   0  0  0  0  0  0  0  0  0  0  0  0
   29.7394  -21.3860  -10.8612 C   0  0  0  0  0  0  0  0  0  0  0  0
   28.5177  -21.7948  -10.3627 C   0  0  0  0  0  0  0  0  0  0  0  0
   27.3209  -21.3190  -10.9141 C   0  0  0  0  0  0  0  0  0  0  0  0
   27.3293  -20.4333  -11.9657 C   0  0  0  0  0  0  0  0  0  0  0  0
   26.0686  -19.9446  -12.5334 C   0  0  0  0  0  0  0  0  0  0  0  0
   25.5522  -20.8309  -13.6079 C   0  0  2  0  0  0  0  0  0  0  0  0
   26.3025  -20.6730  -14.8499 N   0  0  0  0  0  0  0  0  0  0  0  0
   24.0960  -20.6510  -13.8515 C   0  0  0  0  0  0  0  0  0  0  0  0
   23.6516  -19.7582  -14.6124 O   0  0  0  0  0  0  0  0  0  0  0  0
   28.5646  -20.0498  -12.4345 C   0  0  0  0  0  0  0  0  0  0  0  0
   29.7460  -20.5033  -11.9090 C   0  0  0  0  0  0  0  0  0  0  0  0
   17.2721  -24.4271  -10.4057 N   0  0  0  0  0  0  0  0  0  0  0  0
   17.8717  -25.0980  -11.4967 C   0  0  0  0  0  0  0  0  0  0  0  0
   17.7920  -26.3587  -11.5932 N   0  0  0  0  0  0  0  0  0  0  0  0
   18.5610  -24.3366  -12.4757 N   0  0  0  0  0  0  0  0  0  0  0  0
   18.6142  -22.8680  -12.3735 C   0  0  0  0  0  0  0  0  0  0  0  0
   19.4287  -22.3652  -13.5122 C   0  0  0  0  0  0  0  0  0  0  0  0
   20.8985  -22.5238  -13.3937 C   0  0  0  0  0  0  0  0  0  0  0  0
   21.7016  -21.2757  -13.3677 C   0  0  2  0  0  0  0  0  0  0  0  0
   23.1251  -21.4891  -13.2292 N   0  0  0  0  0  0  0  0  0  0  0  0
   21.2872  -20.2840  -12.3499 C   0  0  0  0  0  0  0  0  0  0  0  0
   21.8981  -20.2223  -11.2563 O   0  0  0  0  0  0  0  0  0  0  0  0
   20.2334  -19.4098  -12.5615 O   0  0  0  0  0  0  0  0  0  0  0  0
  2  1  1  6
  2  3  1  0
  4  2  1  0
  4  5  2  0
  7  8  2  0
  7  6  1  0
  9  8  1  0
 10  9  2  0
 11 10  1  0
 12 11  1  1
 12 13  1  0
 13  4  1  0
 14 12  1  0
 15 14  2  0
 16 10  1  0
 16 17  2  0
 17  7  1  0
 19 18  1  0
 19 21  1  0
 20 19  2  0
 21 22  1  0
 22 23  1  0
 23 24  1  0
 25 24  1  1
 25 26  1  0
 25 27  1  0
 26 14  1  0
 27 28  2  0
 27 29  1  0
M  END
$$$$
