AYR.pdb
     RDKit          3D

 29 29  0  0  1  0  0  0  0  0999 V2000
   27.6882  -19.8483  -16.6117 C   0  0  0  0  0  0  0  0  0  0  0  0
   28.5764  -20.7311  -15.7613 C   0  0  2  0  0  0  0  0  0  0  0  0
   28.8686  -21.9211  -16.5080 N   0  0  0  0  0  0  0  0  0  0  0  0
   27.8483  -21.0389  -14.4994 C   0  0  0  0  0  0  0  0  0  0  0  0
   27.0523  -22.0217  -14.4170 O   0  0  0  0  0  0  0  0  0  0  0  0
   32.9736  -23.0708  -10.5418 O   0  0  0  0  0  0  0  0  0  0  0  0
   31.7778  -22.3624  -10.6279 C   0  0  0  0  0  0  0  0  0  0  0  0
   31.6915  -21.1786  -11.3345 C   0  0  0  0  0  0  0  0  0  0  0  0
   30.4823  -20.4755  -11.4139 C   0  0  0  0  0  0  0  0  0  0  0  0
   29.3495  -20.9437  -10.7910 C   0  0  0  0  0  0  0  0  0  0  0  0
   28.0909  -20.1964  -10.8820 C   0  0  0  0  0  0  0  0  0  0  0  0
   27.2922  -20.5791  -12.0747 C   0  0  2  0  0  0  0  0  0  0  0  0
   27.9900  -20.2682  -13.3184 N   0  0  0  0  0  0  0  0  0  0  0  0
   25.9328  -19.9759  -12.0741 C   0  0  0  0  0  0  0  0  0  0  0  0
   25.6359  -18.9979  -12.8014 O   0  0  0  0  0  0  0  0  0  0  0  0
   29.4749  -22.1251  -10.0974 C   0  0  0  0  0  0  0  0  0  0  0  0
   30.6480  -22.8276  -10.0080 C   0  0  0  0  0  0  0  0  0  0  0  0
   21.1060  -24.1541  -15.2981 N   0  0  0  0  0  0  0  0  0  0  0  0
   20.3689  -23.0038  -14.9330 C   0  0  0  0  0  0  0  0  0  0  0  0
   19.1073  -23.0591  -14.8318 N   0  0  0  0  0  0  0  0  0  0  0  0
   21.0654  -21.7929  -14.6839 N   0  0  0  0  0  0  0  0  0  0  0  0
   22.5378  -21.7612  -14.7200 C   0  0  0  0  0  0  0  0  0  0  0  0
   23.0207  -21.6090  -13.3212 C   0  0  0  0  0  0  0  0  0  0  0  0
   22.9577  -20.2437  -12.7457 C   0  0  0  0  0  0  0  0  0  0  0  0
   23.5110  -20.0724  -11.3789 C   0  0  2  0  0  0  0  0  0  0  0  0
   24.8913  -20.4814  -11.2421 N   0  0  0  0  0  0  0  0  0  0  0  0
   22.7327  -20.7233  -10.3010 C   0  0  0  0  0  0  0  0  0  0  0  0
   23.3035  -21.5128   -9.5111 O   0  0  0  0  0  0  0  0  0  0  0  0
   21.3775  -20.4918  -10.1300 O   0  0  0  0  0  0  0  0  0  0  0  0
  2  1  1  6
  2  3  1  0
  4  2  1  0
  4  5  2  0
  7  8  2  0
  7  6  1  0
  9  8  1  0
 10  9  2  0
 11 10  1  0
 12 11  1  1
 12 13  1  0
 13  4  1  0
 14 12  1  0
 15 14  2  0
 16 10  1  0
 16 17  2  0
 17  7  1  0
 19 18  1  0
 19 21  1  0
 20 19  2  0
 21 22  1  0
 22 23  1  0
 23 24  1  0
 25 24  1  6
 25 26  1  0
 25 27  1  0
 26 14  1  0
 27 28  2  0
 27 29  1  0
M  END
$$$$
