AYR.pdb
     RDKit          3D

 29 29  0  0  1  0  0  0  0  0999 V2000
   29.1294  -21.9369  -16.9654 C   0  0  0  0  0  0  0  0  0  0  0  0
   27.8121  -22.5765  -16.5819 C   0  0  2  0  0  0  0  0  0  0  0  0
   27.3645  -23.3734  -17.6881 N   0  0  0  0  0  0  0  0  0  0  0  0
   26.8470  -21.4887  -16.2620 C   0  0  0  0  0  0  0  0  0  0  0  0
   27.0329  -20.7053  -15.2832 O   0  0  0  0  0  0  0  0  0  0  0  0
   29.2533  -16.0408  -18.1921 O   0  0  0  0  0  0  0  0  0  0  0  0
   28.1032  -16.8177  -18.0776 C   0  0  0  0  0  0  0  0  0  0  0  0
   27.8750  -17.8937  -18.9131 C   0  0  0  0  0  0  0  0  0  0  0  0
   26.7140  -18.6677  -18.7874 C   0  0  0  0  0  0  0  0  0  0  0  0
   25.7705  -18.3776  -17.8302 C   0  0  0  0  0  0  0  0  0  0  0  0
   24.5596  -19.1961  -17.7110 C   0  0  0  0  0  0  0  0  0  0  0  0
   24.6840  -20.2386  -16.6599 C   0  0  2  0  0  0  0  0  0  0  0  0
   25.6700  -21.2541  -17.0160 N   0  0  0  0  0  0  0  0  0  0  0  0
   23.3816  -20.8717  -16.3209 C   0  0  0  0  0  0  0  0  0  0  0  0
   22.9157  -21.8335  -16.9778 O   0  0  0  0  0  0  0  0  0  0  0  0
   26.0331  -17.2991  -17.0175 C   0  0  0  0  0  0  0  0  0  0  0  0
   27.1621  -16.5301  -17.1242 C   0  0  0  0  0  0  0  0  0  0  0  0
   20.0690  -22.4546   -8.9447 N   0  0  0  0  0  0  0  0  0  0  0  0
   20.9095  -21.4770   -9.5259 C   0  0  0  0  0  0  0  0  0  0  0  0
   21.8948  -21.0146   -8.8776 N   0  0  0  0  0  0  0  0  0  0  0  0
   20.6294  -21.0258  -10.8417 N   0  0  0  0  0  0  0  0  0  0  0  0
   19.4091  -21.4712  -11.5364 C   0  0  0  0  0  0  0  0  0  0  0  0
   19.7096  -21.5170  -12.9926 C   0  0  0  0  0  0  0  0  0  0  0  0
   21.0283  -20.9836  -13.4120 C   0  0  0  0  0  0  0  0  0  0  0  0
   21.3282  -21.0199  -14.8653 C   0  0  2  0  0  0  0  0  0  0  0  0
   22.5915  -20.4154  -15.2256 N   0  0  0  0  0  0  0  0  0  0  0  0
   20.2803  -20.4420  -15.7367 C   0  0  0  0  0  0  0  0  0  0  0  0
   20.2876  -19.2133  -15.9878 O   0  0  0  0  0  0  0  0  0  0  0  0
   19.2758  -21.2179  -16.2922 O   0  0  0  0  0  0  0  0  0  0  0  0
  2  1  1  6
  2  3  1  0
  4  2  1  0
  4  5  2  0
  7  8  2  0
  7  6  1  0
  9  8  1  0
 10  9  2  0
 11 10  1  0
 12 11  1  6
 12 13  1  0
 13  4  1  0
 14 12  1  0
 15 14  2  0
 16 10  1  0
 16 17  2  0
 17  7  1  0
 19 18  1  0
 19 21  1  0
 20 19  2  0
 21 22  1  0
 22 23  1  0
 23 24  1  0
 25 24  1  1
 25 26  1  0
 25 27  1  0
 26 14  1  0
 27 28  2  0
 27 29  1  0
M  END
$$$$
