RPM.pdb
     RDKit          3D

 27 27  0  0  1  0  0  0  0  0999 V2000
   17.0501  -13.8696  -15.3711 N   0  0  0  0  0  0  0  0  0  0  0  0
   17.0431  -13.9027  -16.7867 C   0  0  0  0  0  0  0  0  0  0  0  0
   16.3286  -14.8062  -17.4033 N   0  0  0  0  0  0  0  0  0  0  0  0
   17.7848  -12.9903  -17.5909 N   0  0  0  0  0  0  0  0  0  0  0  0
   18.4069  -11.7952  -17.0097 C   0  0  0  0  0  0  0  0  0  0  0  0
   19.2102  -11.0567  -18.0374 C   0  0  0  0  0  0  0  0  0  0  0  0
   19.7915   -9.7863  -17.5449 C   0  0  0  0  0  0  0  0  0  0  0  0
   20.8286   -9.9109  -16.4638 C   0  0  2  0  0  0  0  0  0  0  0  0
   20.5717  -11.0562  -15.6548 N   0  0  0  0  0  0  0  0  0  0  0  0
   21.1817   -8.6765  -15.7853 C   0  0  0  0  0  0  0  0  0  0  0  0
   20.4160   -8.3088  -14.8399 O   0  0  0  0  0  0  0  0  0  0  0  0
   16.3895  -14.8907  -18.4578 N   0  0  0  0  0  0  0  0  0  0  0  0
   22.3005   -7.8124  -16.0592 C   0  0  0  0  0  0  0  0  0  0  0  0
   23.3082   -8.1370  -17.0252 C   0  0  0  0  0  0  0  0  0  0  0  0
   24.5083   -7.2828  -16.6366 C   0  0  0  0  0  0  0  0  0  0  0  0
   23.9157   -6.0989  -15.9341 C   0  0  2  0  0  0  0  0  0  0  0  0
   22.5943   -6.5679  -15.4442 C   0  0  0  0  0  0  0  0  0  0  0  0
   21.5441   -5.5342  -15.6948 O   0  0  0  0  0  0  0  0  0  0  0  0
   20.7784   -5.7102  -16.6642 C   0  0  0  0  0  0  0  0  0  0  0  0
   16.1258   -4.8950  -15.6121 S   0  0  0  0  0  0  0  0  0  0  0  0
   16.3892   -3.3853  -14.6461 C   0  0  0  0  0  0  0  0  0  0  0  0
   18.0661   -2.7350  -14.8647 C   0  0  0  0  0  0  0  0  0  0  0  0
   19.1008   -3.8435  -14.7021 C   0  0  1  0  0  0  0  0  0  0  0  0
   20.4617   -3.3380  -15.1027 N   0  0  0  0  0  0  0  0  0  0  0  0
   21.4165   -4.4077  -14.8763 C   0  0  0  0  0  0  0  0  0  0  0  0
   20.7673   -2.1584  -14.2368 O   0  0  0  0  0  0  0  0  0  0  0  0
   21.5494   -2.2689  -13.2606 O   0  0  0  0  0  0  0  0  0  0  0  0
  2  1  1  0
  3  2  2  0
  4  2  1  0
  5  6  1  0
  5  4  1  0
  6  7  1  0
  7  8  1  0
  8  9  1  1
 10  8  1  0
 11 10  2  0
 12 10  1  0
 12 16  1  0
 13 14  1  0
 13 12  1  0
 14 15  1  0
 15 16  1  0
 16 17  1  6
 17 18  2  0
 19 20  1  0
 20 21  1  0
 21 22  1  0
 23 22  1  6
 23 24  1  0
 23 25  1  0
 24 17  1  0
 25 27  1  0
 26 25  2  0
M  END
$$$$
