RPM.pdb
     RDKit          3D

 27 27  0  0  1  0  0  0  0  0999 V2000
   20.3384  -20.6229  -14.9360 N   0  0  0  0  0  0  0  0  0  0  0  0
   20.5014  -22.0163  -14.7434 C   0  0  0  0  0  0  0  0  0  0  0  0
   19.4836  -22.7316  -14.3443 N   0  0  0  0  0  0  0  0  0  0  0  0
   21.7348  -22.6941  -14.9642 N   0  0  0  0  0  0  0  0  0  0  0  0
   22.9715  -21.9541  -15.2397 C   0  0  0  0  0  0  0  0  0  0  0  0
   23.4767  -22.2512  -16.6193 C   0  0  0  0  0  0  0  0  0  0  0  0
   24.7330  -21.5455  -16.9629 C   0  0  0  0  0  0  0  0  0  0  0  0
   26.0081  -22.2596  -16.6105 C   0  0  2  0  0  0  0  0  0  0  0  0
   25.8902  -23.6546  -16.8797 N   0  0  0  0  0  0  0  0  0  0  0  0
   26.6210  -21.8691  -15.3531 C   0  0  0  0  0  0  0  0  0  0  0  0
   27.0180  -22.8111  -14.5979 O   0  0  0  0  0  0  0  0  0  0  0  0
   19.5906  -23.7808  -14.2408 N   0  0  0  0  0  0  0  0  0  0  0  0
   26.8311  -20.5343  -14.8554 C   0  0  0  0  0  0  0  0  0  0  0  0
   26.5400  -19.3659  -15.6327 C   0  0  0  0  0  0  0  0  0  0  0  0
   27.3612  -18.2563  -14.9882 C   0  0  0  0  0  0  0  0  0  0  0  0
   27.5235  -18.6880  -13.5621 C   0  0  2  0  0  0  0  0  0  0  0  0
   27.3493  -20.1629  -13.5878 C   0  0  0  0  0  0  0  0  0  0  0  0
   26.4844  -20.6095  -12.4535 O   0  0  0  0  0  0  0  0  0  0  0  0
   25.2936  -20.8832  -12.7065 C   0  0  0  0  0  0  0  0  0  0  0  0
   28.2859  -19.0925   -6.4579 S   0  0  0  0  0  0  0  0  0  0  0  0
   26.8926  -20.1752   -6.0477 C   0  0  0  0  0  0  0  0  0  0  0  0
   26.0321  -20.7509   -7.5346 C   0  0  0  0  0  0  0  0  0  0  0  0
   26.9155  -20.5883   -8.7671 C   0  0  1  0  0  0  0  0  0  0  0  0
   26.1765  -21.0551   -9.9934 N   0  0  0  0  0  0  0  0  0  0  0  0
   26.9841  -20.7204  -11.1522 C   0  0  0  0  0  0  0  0  0  0  0  0
   24.8707  -20.3281  -10.0257 O   0  0  0  0  0  0  0  0  0  0  0  0
   24.7851  -19.1931  -10.5559 O   0  0  0  0  0  0  0  0  0  0  0  0
  2  1  1  0
  3  2  2  0
  4  2  1  0
  5  6  1  0
  5  4  1  0
  6  7  1  0
  7  8  1  0
  8  9  1  1
 10  8  1  0
 11 10  2  0
 12 10  1  0
 12 16  1  0
 13 14  1  0
 13 12  1  0
 14 15  1  0
 15 16  1  0
 16 17  1  1
 17 18  2  0
 19 20  1  0
 20 21  1  0
 21 22  1  0
 23 22  1  1
 23 24  1  0
 23 25  1  0
 24 17  1  0
 25 27  1  0
 26 25  2  0
M  END
$$$$
