RPM.pdb
     RDKit          3D

 27 27  0  0  1  0  0  0  0  0999 V2000
   21.6205  -16.3981  -15.2544 N   0  0  0  0  0  0  0  0  0  0  0  0
   20.6603  -16.9180  -16.1560 C   0  0  0  0  0  0  0  0  0  0  0  0
   20.5560  -16.3995  -17.3507 N   0  0  0  0  0  0  0  0  0  0  0  0
   19.7858  -17.9937  -15.8279 N   0  0  0  0  0  0  0  0  0  0  0  0
   19.9035  -18.7082  -14.5518 C   0  0  0  0  0  0  0  0  0  0  0  0
   19.0215  -19.9200  -14.5338 C   0  0  0  0  0  0  0  0  0  0  0  0
   19.0963  -20.6978  -13.2753 C   0  0  0  0  0  0  0  0  0  0  0  0
   20.3735  -21.4561  -13.0437 C   0  0  2  0  0  0  0  0  0  0  0  0
   20.6937  -22.2542  -14.1807 N   0  0  0  0  0  0  0  0  0  0  0  0
   20.5131  -22.0683  -11.7342 C   0  0  0  0  0  0  0  0  0  0  0  0
   20.2441  -23.3079  -11.6550 O   0  0  0  0  0  0  0  0  0  0  0  0
   19.8355  -16.7836  -18.0261 N   0  0  0  0  0  0  0  0  0  0  0  0
   20.9193  -21.4343  -10.5068 C   0  0  0  0  0  0  0  0  0  0  0  0
   21.2973  -20.0535  -10.4395 C   0  0  0  0  0  0  0  0  0  0  0  0
   22.1209  -19.9381   -9.1631 C   0  0  0  0  0  0  0  0  0  0  0  0
   21.6153  -21.0446   -8.2877 C   0  0  2  0  0  0  0  0  0  0  0  0
   21.0269  -22.0347   -9.2256 C   0  0  0  0  0  0  0  0  0  0  0  0
   19.7175  -22.5355   -8.7073 O   0  0  0  0  0  0  0  0  0  0  0  0
   18.6990  -21.8595   -8.9579 C   0  0  0  0  0  0  0  0  0  0  0  0
   15.3544  -28.8156   -7.2063 S   0  0  0  0  0  0  0  0  0  0  0  0
   16.9294  -28.0849   -7.7232 C   0  0  0  0  0  0  0  0  0  0  0  0
   17.0084  -26.3180   -7.3303 C   0  0  0  0  0  0  0  0  0  0  0  0
   18.3264  -25.7169   -7.8074 C   0  0  2  0  0  0  0  0  0  0  0  0
   18.3889  -24.2584   -7.4377 N   0  0  0  0  0  0  0  0  0  0  0  0
   19.6278  -23.7190   -7.9681 C   0  0  0  0  0  0  0  0  0  0  0  0
   18.3690  -24.1798   -5.9450 O   0  0  0  0  0  0  0  0  0  0  0  0
   17.2793  -24.1585   -5.3215 O   0  0  0  0  0  0  0  0  0  0  0  0
  2  1  1  0
  3  2  2  0
  4  2  1  0
  5  6  1  0
  5  4  1  0
  6  7  1  0
  7  8  1  0
  8  9  1  6
 10  8  1  0
 11 10  2  0
 12 10  1  0
 12 16  1  0
 13 14  1  0
 13 12  1  0
 14 15  1  0
 15 16  1  0
 16 17  1  1
 17 18  2  0
 19 20  1  0
 20 21  1  0
 21 22  1  0
 23 22  1  6
 23 24  1  0
 23 25  1  0
 24 17  1  0
 25 27  1  0
 26 25  2  0
M  END
$$$$
