RPM.pdb
     RDKit          3D

 27 27  0  0  1  0  0  0  0  0999 V2000
   21.8631  -19.7113  -12.7917 N   0  0  0  0  0  0  0  0  0  0  0  0
   22.0574  -20.3706  -11.5537 C   0  0  0  0  0  0  0  0  0  0  0  0
   21.0676  -21.0349  -11.0189 N   0  0  0  0  0  0  0  0  0  0  0  0
   23.2934  -20.3500  -10.8457 N   0  0  0  0  0  0  0  0  0  0  0  0
   24.3515  -19.3932  -11.1891 C   0  0  0  0  0  0  0  0  0  0  0  0
   25.0246  -19.7775  -12.4721 C   0  0  0  0  0  0  0  0  0  0  0  0
   26.4937  -19.9286  -12.3569 C   0  0  0  0  0  0  0  0  0  0  0  0
   27.0011  -21.3337  -12.1899 C   0  0  2  0  0  0  0  0  0  0  0  0
   26.0615  -22.2695  -12.7131 N   0  0  0  0  0  0  0  0  0  0  0  0
   27.6034  -21.6365  -10.9036 C   0  0  0  0  0  0  0  0  0  0  0  0
   26.8256  -22.0825  -10.0029 O   0  0  0  0  0  0  0  0  0  0  0  0
   21.2100  -21.5297  -10.0928 N   0  0  0  0  0  0  0  0  0  0  0  0
   28.9844  -21.4880  -10.5235 C   0  0  0  0  0  0  0  0  0  0  0  0
   30.0150  -21.1702  -11.4674 C   0  0  0  0  0  0  0  0  0  0  0  0
   31.3076  -21.6156  -10.7955 C   0  0  0  0  0  0  0  0  0  0  0  0
   31.0162  -21.5344   -9.3276 C   0  0  2  0  0  0  0  0  0  0  0  0
   29.5380  -21.6384   -9.2257 C   0  0  0  0  0  0  0  0  0  0  0  0
   29.0072  -20.6395   -8.2487 O   0  0  0  0  0  0  0  0  0  0  0  0
   28.1597  -19.8214   -8.6602 C   0  0  0  0  0  0  0  0  0  0  0  0
   24.9820  -21.5972   -4.5337 S   0  0  0  0  0  0  0  0  0  0  0  0
   25.2621  -19.8808   -4.0263 C   0  0  0  0  0  0  0  0  0  0  0  0
   26.9263  -19.3159   -4.4665 C   0  0  0  0  0  0  0  0  0  0  0  0
   27.5736  -20.2689   -5.4658 C   0  0  2  0  0  0  0  0  0  0  0  0
   28.9078  -19.7249   -5.9037 N   0  0  0  0  0  0  0  0  0  0  0  0
   29.4388  -20.6163   -6.9189 C   0  0  0  0  0  0  0  0  0  0  0  0
   29.7924  -19.7019   -4.6989 O   0  0  0  0  0  0  0  0  0  0  0  0
   30.3649  -20.7487   -4.3074 O   0  0  0  0  0  0  0  0  0  0  0  0
  2  1  1  0
  3  2  2  0
  4  2  1  0
  5  6  1  0
  5  4  1  0
  6  7  1  0
  7  8  1  0
  8  9  1  1
 10  8  1  0
 11 10  2  0
 12 10  1  0
 12 16  1  0
 13 14  1  0
 13 12  1  0
 14 15  1  0
 15 16  1  0
 16 17  1  6
 17 18  2  0
 19 20  1  0
 20 21  1  0
 21 22  1  0
 23 22  1  6
 23 24  1  0
 23 25  1  0
 24 17  1  0
 25 27  1  0
 26 25  2  0
M  END
$$$$
