RPM.pdb
     RDKit          3D

 27 27  0  0  1  0  0  0  0  0999 V2000
   19.8248  -22.6143  -12.4197 N   0  0  0  0  0  0  0  0  0  0  0  0
   19.4860  -21.5311  -13.2665 C   0  0  0  0  0  0  0  0  0  0  0  0
   18.6075  -20.6522  -12.8628 N   0  0  0  0  0  0  0  0  0  0  0  0
   20.0591  -21.3422  -14.5569 N   0  0  0  0  0  0  0  0  0  0  0  0
   21.4016  -21.8423  -14.8742 C   0  0  0  0  0  0  0  0  0  0  0  0
   22.4534  -21.0240  -14.1881 C   0  0  0  0  0  0  0  0  0  0  0  0
   23.3408  -20.2869  -15.1174 C   0  0  0  0  0  0  0  0  0  0  0  0
   24.6147  -20.9844  -15.5054 C   0  0  2  0  0  0  0  0  0  0  0  0
   24.3404  -22.0725  -16.3847 N   0  0  0  0  0  0  0  0  0  0  0  0
   25.5589  -21.2160  -14.4266 C   0  0  0  0  0  0  0  0  0  0  0  0
   25.4622  -22.3262  -13.8154 O   0  0  0  0  0  0  0  0  0  0  0  0
   18.3403  -19.8493  -13.5005 N   0  0  0  0  0  0  0  0  0  0  0  0
   26.5960  -20.3317  -13.9618 C   0  0  0  0  0  0  0  0  0  0  0  0
   26.8701  -19.0696  -14.5832 C   0  0  0  0  0  0  0  0  0  0  0  0
   28.2928  -18.7286  -14.1586 C   0  0  0  0  0  0  0  0  0  0  0  0
   28.4769  -19.4411  -12.8530 C   0  0  2  0  0  0  0  0  0  0  0  0
   27.4884  -20.5494  -12.8804 C   0  0  0  0  0  0  0  0  0  0  0  0
   26.7890  -20.6621  -11.5642 O   0  0  0  0  0  0  0  0  0  0  0  0
   25.6393  -20.1851  -11.4770 C   0  0  0  0  0  0  0  0  0  0  0  0
   28.9978  -19.6692   -4.7358 S   0  0  0  0  0  0  0  0  0  0  0  0
   27.9181  -18.8773   -5.9560 C   0  0  0  0  0  0  0  0  0  0  0  0
   27.0057  -20.0987   -6.9349 C   0  0  0  0  0  0  0  0  0  0  0  0
   27.6290  -20.2573   -8.3177 C   0  0  1  0  0  0  0  0  0  0  0  0
   26.8495  -21.2660   -9.1194 N   0  0  0  0  0  0  0  0  0  0  0  0
   27.3938  -21.2796  -10.4650 C   0  0  0  0  0  0  0  0  0  0  0  0
   25.4232  -20.8182   -9.1258 O   0  0  0  0  0  0  0  0  0  0  0  0
   25.0502  -19.8867   -9.8808 O   0  0  0  0  0  0  0  0  0  0  0  0
  2  1  1  0
  3  2  2  0
  4  2  1  0
  5  6  1  0
  5  4  1  0
  6  7  1  0
  7  8  1  0
  8  9  1  1
 10  8  1  0
 11 10  2  0
 12 10  1  0
 12 16  1  0
 13 14  1  0
 13 12  1  0
 14 15  1  0
 15 16  1  0
 16 17  1  1
 17 18  2  0
 19 20  1  0
 20 21  1  0
 21 22  1  0
 23 22  1  1
 23 24  1  0
 23 25  1  0
 24 17  1  0
 25 27  1  0
 26 25  2  0
M  END
$$$$
