RPM.pdb
     RDKit          3D

 27 27  0  0  1  0  0  0  0  0999 V2000
   26.1820  -21.3280  -12.1848 N   0  0  0  0  0  0  0  0  0  0  0  0
   25.0214  -21.2161  -11.3813 C   0  0  0  0  0  0  0  0  0  0  0  0
   25.1353  -21.2628  -10.0806 N   0  0  0  0  0  0  0  0  0  0  0  0
   23.7131  -21.0527  -11.9209 N   0  0  0  0  0  0  0  0  0  0  0  0
   23.4984  -20.9035  -13.3647 C   0  0  0  0  0  0  0  0  0  0  0  0
   22.7007  -19.6699  -13.6623 C   0  0  0  0  0  0  0  0  0  0  0  0
   23.4988  -18.5653  -14.2433 C   0  0  0  0  0  0  0  0  0  0  0  0
   23.4946  -18.4668  -15.7433 C   0  0  2  0  0  0  0  0  0  0  0  0
   22.2762  -18.9824  -16.2744 N   0  0  0  0  0  0  0  0  0  0  0  0
   24.7296  -18.8530  -16.4026 C   0  0  0  0  0  0  0  0  0  0  0  0
   24.6952  -19.9186  -17.0944 O   0  0  0  0  0  0  0  0  0  0  0  0
   24.2767  -21.1237   -9.4754 N   0  0  0  0  0  0  0  0  0  0  0  0
   25.9970  -18.1705  -16.3634 C   0  0  0  0  0  0  0  0  0  0  0  0
   26.1662  -16.8918  -15.7386 C   0  0  0  0  0  0  0  0  0  0  0  0
   27.4364  -16.3222  -16.3574 C   0  0  0  0  0  0  0  0  0  0  0  0
   28.2300  -17.5270  -16.7635 C   0  0  2  0  0  0  0  0  0  0  0  0
   27.2261  -18.6106  -16.9193 C   0  0  0  0  0  0  0  0  0  0  0  0
   27.7216  -19.8784  -16.3020 O   0  0  0  0  0  0  0  0  0  0  0  0
   27.3453  -20.1431  -15.1421 C   0  0  0  0  0  0  0  0  0  0  0  0
   26.7952  -27.1230  -16.0234 S   0  0  0  0  0  0  0  0  0  0  0  0
   26.4606  -25.3929  -16.4436 C   0  0  0  0  0  0  0  0  0  0  0  0
   27.9524  -24.3726  -16.3157 C   0  0  0  0  0  0  0  0  0  0  0  0
   27.6458  -22.9209  -16.6686 C   0  0  1  0  0  0  0  0  0  0  0  0
   28.8977  -22.0910  -16.5600 N   0  0  0  0  0  0  0  0  0  0  0  0
   28.5756  -20.7435  -16.9931 C   0  0  0  0  0  0  0  0  0  0  0  0
   29.9180  -22.7106  -17.4600 O   0  0  0  0  0  0  0  0  0  0  0  0
   30.7479  -23.5383  -17.0094 O   0  0  0  0  0  0  0  0  0  0  0  0
  2  1  1  0
  3  2  2  0
  4  2  1  0
  5  6  1  0
  5  4  1  0
  6  7  1  0
  7  8  1  0
  8  9  1  6
 10  8  1  0
 11 10  2  0
 12 10  1  0
 12 16  1  0
 13 14  1  0
 13 12  1  0
 14 15  1  0
 15 16  1  0
 16 17  1  1
 17 18  2  0
 19 20  1  0
 20 21  1  0
 21 22  1  0
 23 22  1  1
 23 24  1  0
 23 25  1  0
 24 17  1  0
 25 27  1  0
 26 25  2  0
M  END
$$$$
