RPM.pdb
     RDKit          3D

 27 27  0  0  1  0  0  0  0  0999 V2000
   14.1087  -22.9170   -5.4234 N   0  0  0  0  0  0  0  0  0  0  0  0
   14.5408  -23.9594   -6.2789 C   0  0  0  0  0  0  0  0  0  0  0  0
   15.4818  -23.7222   -7.1537 N   0  0  0  0  0  0  0  0  0  0  0  0
   13.9974  -25.2757   -6.2389 N   0  0  0  0  0  0  0  0  0  0  0  0
   12.9837  -25.6509   -5.2466 C   0  0  0  0  0  0  0  0  0  0  0  0
   13.5971  -26.4328   -4.1245 C   0  0  0  0  0  0  0  0  0  0  0  0
   13.5494  -27.9004   -4.3198 C   0  0  0  0  0  0  0  0  0  0  0  0
   14.7238  -28.6748   -3.7897 C   0  0  2  0  0  0  0  0  0  0  0  0
   14.5195  -30.0747   -3.9655 N   0  0  0  0  0  0  0  0  0  0  0  0
   15.2452  -28.2290   -2.5097 C   0  0  0  0  0  0  0  0  0  0  0  0
   14.4777  -28.3634   -1.5056 O   0  0  0  0  0  0  0  0  0  0  0  0
   15.8415  -24.5121   -7.7615 N   0  0  0  0  0  0  0  0  0  0  0  0
   16.5345  -27.6467   -2.2410 C   0  0  0  0  0  0  0  0  0  0  0  0
   17.5202  -27.4488   -3.2624 C   0  0  0  0  0  0  0  0  0  0  0  0
   18.8394  -27.3261   -2.5105 C   0  0  0  0  0  0  0  0  0  0  0  0
   18.4544  -26.8106   -1.1568 C   0  0  2  0  0  0  0  0  0  0  0  0
   17.0333  -27.2078   -0.9872 C   0  0  0  0  0  0  0  0  0  0  0  0
   16.2388  -26.0820   -0.4082 O   0  0  0  0  0  0  0  0  0  0  0  0
   15.7594  -25.2448   -1.1997 C   0  0  0  0  0  0  0  0  0  0  0  0
   12.2358  -23.6380    5.9523 S   0  0  0  0  0  0  0  0  0  0  0  0
   13.3862  -24.8298    5.2188 C   0  0  0  0  0  0  0  0  0  0  0  0
   14.0114  -24.2580    3.6173 C   0  0  0  0  0  0  0  0  0  0  0  0
   14.8806  -25.3272    2.9638 C   0  0  2  0  0  0  0  0  0  0  0  0
   15.3193  -24.8679    1.5983 N   0  0  0  0  0  0  0  0  0  0  0  0
   16.0341  -25.9641    0.9700 C   0  0  0  0  0  0  0  0  0  0  0  0
   16.2177  -23.6895    1.7962 O   0  0  0  0  0  0  0  0  0  0  0  0
   15.7372  -22.5416    1.9636 O   0  0  0  0  0  0  0  0  0  0  0  0
  2  1  1  0
  3  2  2  0
  4  2  1  0
  5  6  1  0
  5  4  1  0
  6  7  1  0
  7  8  1  0
  8  9  1  1
 10  8  1  0
 11 10  2  0
 12 10  1  0
 12 16  1  0
 13 14  1  0
 13 12  1  0
 14 15  1  0
 15 16  1  0
 16 17  1  6
 17 18  2  0
 19 20  1  0
 20 21  1  0
 21 22  1  0
 23 22  1  6
 23 24  1  0
 23 25  1  0
 24 17  1  0
 25 27  1  0
 26 25  2  0
M  END
$$$$
