RPM.pdb
     RDKit          3D

 27 27  0  0  1  0  0  0  0  0999 V2000
   24.1776  -15.4896  -19.7900 N   0  0  0  0  0  0  0  0  0  0  0  0
   23.1013  -15.4971  -20.7102 C   0  0  0  0  0  0  0  0  0  0  0  0
   22.9946  -16.4804  -21.5639 N   0  0  0  0  0  0  0  0  0  0  0  0
   22.1106  -14.4746  -20.7585 N   0  0  0  0  0  0  0  0  0  0  0  0
   22.0259  -13.4469  -19.7146 C   0  0  0  0  0  0  0  0  0  0  0  0
   20.9699  -12.4354  -20.0441 C   0  0  0  0  0  0  0  0  0  0  0  0
   20.8452  -11.3506  -19.0431 C   0  0  0  0  0  0  0  0  0  0  0  0
   20.3061  -11.7526  -17.6987 C   0  0  2  0  0  0  0  0  0  0  0  0
   19.0013  -12.3115  -17.8305 N   0  0  0  0  0  0  0  0  0  0  0  0
   20.5219  -10.8002  -16.6238 C   0  0  0  0  0  0  0  0  0  0  0  0
   19.6297   -9.9088  -16.4669 O   0  0  0  0  0  0  0  0  0  0  0  0
   22.2537  -16.4378  -22.3203 N   0  0  0  0  0  0  0  0  0  0  0  0
   21.6342  -10.7427  -15.7111 C   0  0  0  0  0  0  0  0  0  0  0  0
   22.6667  -11.7365  -15.6888 C   0  0  0  0  0  0  0  0  0  0  0  0
   23.3051  -11.6024  -14.3121 C   0  0  0  0  0  0  0  0  0  0  0  0
   23.0618  -10.1760  -13.9218 C   0  0  2  0  0  0  0  0  0  0  0  0
   21.8802   -9.7584  -14.7192 C   0  0  0  0  0  0  0  0  0  0  0  0
   22.0898   -8.3946  -15.2939 O   0  0  0  0  0  0  0  0  0  0  0  0
   22.7276   -8.3088  -16.3630 C   0  0  0  0  0  0  0  0  0  0  0  0
   17.4485   -5.9481  -18.2862 S   0  0  0  0  0  0  0  0  0  0  0  0
   18.2494   -5.2051  -16.8411 C   0  0  0  0  0  0  0  0  0  0  0  0
   19.9279   -5.8447  -16.6036 C   0  0  0  0  0  0  0  0  0  0  0  0
   20.5808   -5.2074  -15.3815 C   0  0  2  0  0  0  0  0  0  0  0  0
   21.8880   -5.8927  -15.0821 N   0  0  0  0  0  0  0  0  0  0  0  0
   21.5912   -7.2505  -14.6633 C   0  0  0  0  0  0  0  0  0  0  0  0
   22.5461   -5.1266  -13.9800 O   0  0  0  0  0  0  0  0  0  0  0  0
   22.5393   -5.5671  -12.8041 O   0  0  0  0  0  0  0  0  0  0  0  0
  2  1  1  0
  3  2  2  0
  4  2  1  0
  5  6  1  0
  5  4  1  0
  6  7  1  0
  7  8  1  0
  8  9  1  6
 10  8  1  0
 11 10  2  0
 12 10  1  0
 12 16  1  0
 13 14  1  0
 13 12  1  0
 14 15  1  0
 15 16  1  0
 16 17  1  6
 17 18  2  0
 19 20  1  0
 20 21  1  0
 21 22  1  0
 23 22  1  6
 23 24  1  0
 23 25  1  0
 24 17  1  0
 25 27  1  0
 26 25  2  0
M  END
$$$$
