YFW.pdb
     RDKit          3D

 38 41  0  0  1  0  0  0  0  0999 V2000
   10.7863  -18.6460   12.6804 O   0  0  0  0  0  0  0  0  0  0  0  0
   10.7717  -18.4183   14.0566 C   0  0  0  0  0  0  0  0  0  0  0  0
   11.1172  -19.4029   14.9662 C   0  0  0  0  0  0  0  0  0  0  0  0
   11.1080  -19.1949   16.3293 C   0  0  0  0  0  0  0  0  0  0  0  0
   10.7451  -17.9679   16.8411 C   0  0  0  0  0  0  0  0  0  0  0  0
   10.7084  -17.6624   18.2954 C   0  0  0  0  0  0  0  0  0  0  0  0
   10.0720  -16.3027   18.4500 C   0  0  2  0  0  0  0  0  0  0  0  0
   10.9566  -15.3479   17.8237 N   0  0  0  0  0  0  0  0  0  0  0  0
    9.8764  -15.9153   19.8629 C   0  0  0  0  0  0  0  0  0  0  0  0
   10.8362  -15.3676   20.4636 O   0  0  0  0  0  0  0  0  0  0  0  0
   10.3987  -16.9783   15.9422 C   0  0  0  0  0  0  0  0  0  0  0  0
   10.4106  -17.1952   14.5808 C   0  0  0  0  0  0  0  0  0  0  0  0
    8.6464  -16.1442   20.5478 N   0  0  0  0  0  0  0  0  0  0  0  0
    8.4877  -15.6473   21.8896 C   0  0  1  0  0  0  0  0  0  0  0  0
    7.1953  -14.9165   22.0730 C   0  0  0  0  0  0  0  0  0  0  0  0
    7.0723  -14.5234   23.4955 C   0  0  0  0  0  0  0  0  0  0  0  0
    6.4120  -15.2718   24.4455 C   0  0  0  0  0  0  0  0  0  0  0  0
    6.3308  -14.8469   25.7710 C   0  0  0  0  0  0  0  0  0  0  0  0
    6.9224  -13.6542   26.1412 C   0  0  0  0  0  0  0  0  0  0  0  0
    7.5852  -12.8939   25.2086 C   0  0  0  0  0  0  0  0  0  0  0  0
    7.6487  -13.3416   23.9025 C   0  0  0  0  0  0  0  0  0  0  0  0
    8.7379  -16.7260   22.8592 C   0  0  0  0  0  0  0  0  0  0  0  0
    7.7647  -17.3930   23.2759 O   0  0  0  0  0  0  0  0  0  0  0  0
   10.0157  -17.0640   23.3577 N   0  0  0  0  0  0  0  0  0  0  0  0
   10.3714  -17.0459   24.7667 C   0  0  1  0  0  0  0  0  0  0  0  0
    9.6597  -15.9780   25.5233 C   0  0  0  0  0  0  0  0  0  0  0  0
    9.9439  -16.1240   26.9689 C   0  0  0  0  0  0  0  0  0  0  0  0
    9.8283  -17.2872   27.7275 C   0  0  0  0  0  0  0  0  0  0  0  0
   10.1722  -16.9731   28.9811 N   0  0  0  0  0  0  0  0  0  0  0  0
   10.5023  -15.6694   29.0653 C   0  0  0  0  0  0  0  0  0  0  0  0
   10.9195  -14.8731   30.1239 C   0  0  0  0  0  0  0  0  0  0  0  0
   11.1895  -13.5413   29.8987 C   0  0  0  0  0  0  0  0  0  0  0  0
   11.0622  -12.9609   28.6582 C   0  0  0  0  0  0  0  0  0  0  0  0
   10.6448  -13.7597   27.6015 C   0  0  0  0  0  0  0  0  0  0  0  0
   10.3707  -15.1005   27.8169 C   0  0  0  0  0  0  0  0  0  0  0  0
   10.0504  -18.3636   25.3521 C   0  0  0  0  0  0  0  0  0  0  0  0
    8.8626  -18.7697   25.3787 O   0  0  0  0  0  0  0  0  0  0  0  0
   11.0214  -19.1868   25.8824 O   0  0  0  0  0  0  0  0  0  0  0  0
  2  3  2  0
  2  1  1  0
  4  3  1  0
  5  4  2  0
  6  5  1  0
  6  7  1  0
  7  8  1  1
  9  7  1  0
  9 10  2  0
 11  5  1  0
 11 12  2  0
 12  2  1  0
 13  9  1  0
 14 13  1  0
 14 15  1  6
 16 15  1  0
 16 17  2  0
 18 17  1  0
 19 18  2  0
 20 21  2  0
 20 19  1  0
 21 16  1  0
 22 14  1  0
 23 22  2  0
 24 22  1  0
 25 24  1  0
 25 26  1  1
 26 27  1  0
 27 35  1  0
 28 27  2  0
 28 29  1  0
 29 30  1  0
 30 31  1  0
 31 32  2  0
 33 32  1  0
 34 33  2  0
 35 30  2  0
 35 34  1  0
 36 25  1  0
 37 36  2  0
 38 36  1  0
M  END
$$$$
