YFW.pdb
     RDKit          3D

 38 41  0  0  1  0  0  0  0  0999 V2000
    7.7705  -26.2136   20.1019 O   0  0  0  0  0  0  0  0  0  0  0  0
    8.1899  -24.8983   20.3020 C   0  0  0  0  0  0  0  0  0  0  0  0
    9.4696  -24.4799   19.9804 C   0  0  0  0  0  0  0  0  0  0  0  0
    9.9004  -23.1840   20.1716 C   0  0  0  0  0  0  0  0  0  0  0  0
    9.0474  -22.2410   20.7029 C   0  0  0  0  0  0  0  0  0  0  0  0
    9.4332  -20.8253   20.9412 C   0  0  0  0  0  0  0  0  0  0  0  0
    8.7022  -19.9857   19.9223 C   0  0  2  0  0  0  0  0  0  0  0  0
    9.2966  -20.2682   18.6364 N   0  0  0  0  0  0  0  0  0  0  0  0
    8.8081  -18.5356   20.1878 C   0  0  0  0  0  0  0  0  0  0  0  0
    9.9170  -17.9774   19.9857 O   0  0  0  0  0  0  0  0  0  0  0  0
    7.7680  -22.6477   21.0272 C   0  0  0  0  0  0  0  0  0  0  0  0
    7.3459  -23.9456   20.8325 C   0  0  0  0  0  0  0  0  0  0  0  0
    7.7014  -17.7690   20.6590 N   0  0  0  0  0  0  0  0  0  0  0  0
    7.8951  -16.3776   20.9735 C   0  0  1  0  0  0  0  0  0  0  0  0
    6.7459  -15.5310   20.5256 C   0  0  0  0  0  0  0  0  0  0  0  0
    7.0750  -14.1109   20.7862 C   0  0  0  0  0  0  0  0  0  0  0  0
    7.8574  -13.3383   19.9559 C   0  0  0  0  0  0  0  0  0  0  0  0
    8.1316  -12.0047   20.2570 C   0  0  0  0  0  0  0  0  0  0  0  0
    7.6105  -11.4456   21.4083 C   0  0  0  0  0  0  0  0  0  0  0  0
    6.8283  -12.1996   22.2488 C   0  0  0  0  0  0  0  0  0  0  0  0
    6.5742  -13.5187   21.9233 C   0  0  0  0  0  0  0  0  0  0  0  0
    8.2658  -16.2280   22.3900 C   0  0  0  0  0  0  0  0  0  0  0  0
    7.3907  -15.8497   23.2003 O   0  0  0  0  0  0  0  0  0  0  0  0
    9.5563  -16.4852   22.9037 N   0  0  0  0  0  0  0  0  0  0  0  0
   10.2359  -15.6316   23.8639 C   0  0  1  0  0  0  0  0  0  0  0  0
    9.8746  -15.9537   25.2728 C   0  0  0  0  0  0  0  0  0  0  0  0
    8.4502  -15.6232   25.5050 C   0  0  0  0  0  0  0  0  0  0  0  0
    7.3568  -16.4642   25.3078 C   0  0  0  0  0  0  0  0  0  0  0  0
    6.2625  -15.7656   25.6287 N   0  0  0  0  0  0  0  0  0  0  0  0
    6.5977  -14.5210   26.0213 C   0  0  0  0  0  0  0  0  0  0  0  0
    5.8428  -13.4352   26.4456 C   0  0  0  0  0  0  0  0  0  0  0  0
    6.4818  -12.2643   26.7892 C   0  0  0  0  0  0  0  0  0  0  0  0
    7.8487  -12.1233   26.7293 C   0  0  0  0  0  0  0  0  0  0  0  0
    8.6009  -13.2109   26.3046 C   0  0  0  0  0  0  0  0  0  0  0  0
    7.9685  -14.3933   25.9568 C   0  0  0  0  0  0  0  0  0  0  0  0
   11.6940  -15.7822   23.6811 C   0  0  0  0  0  0  0  0  0  0  0  0
   12.1429  -16.5768   22.8188 O   0  0  0  0  0  0  0  0  0  0  0  0
   12.6049  -15.0709   24.4334 O   0  0  0  0  0  0  0  0  0  0  0  0
  2  3  2  0
  2  1  1  0
  4  3  1  0
  5  4  2  0
  6  5  1  0
  6  7  1  0
  7  8  1  6
  9  7  1  0
  9 10  2  0
 11  5  1  0
 11 12  2  0
 12  2  1  0
 13  9  1  0
 14 13  1  0
 14 15  1  1
 16 15  1  0
 16 17  2  0
 18 17  1  0
 19 18  2  0
 20 21  2  0
 20 19  1  0
 21 16  1  0
 22 14  1  0
 23 22  2  0
 24 22  1  0
 25 24  1  0
 25 26  1  1
 26 27  1  0
 27 35  1  0
 28 27  2  0
 28 29  1  0
 29 30  1  0
 30 31  1  0
 31 32  2  0
 33 32  1  0
 34 33  2  0
 35 30  2  0
 35 34  1  0
 36 25  1  0
 37 36  2  0
 38 36  1  0
M  END
$$$$
