YFW.pdb
     RDKit          3D

 38 41  0  0  1  0  0  0  0  0999 V2000
    7.6678  -25.2537   17.0408 O   0  0  0  0  0  0  0  0  0  0  0  0
    8.0181  -24.1248   17.7816 C   0  0  0  0  0  0  0  0  0  0  0  0
    7.1528  -23.5512   18.6973 C   0  0  0  0  0  0  0  0  0  0  0  0
    7.4830  -22.4356   19.4376 C   0  0  0  0  0  0  0  0  0  0  0  0
    8.7171  -21.8420   19.2842 C   0  0  0  0  0  0  0  0  0  0  0  0
    9.1501  -20.6386   20.0419 C   0  0  0  0  0  0  0  0  0  0  0  0
    8.4092  -19.4572   19.4649 C   0  0  2  0  0  0  0  0  0  0  0  0
    8.9543  -19.2178   18.1488 N   0  0  0  0  0  0  0  0  0  0  0  0
    8.5620  -18.2300   20.2742 C   0  0  0  0  0  0  0  0  0  0  0  0
    9.6418  -17.5918   20.1815 O   0  0  0  0  0  0  0  0  0  0  0  0
    9.5884  -22.4064   18.3733 C   0  0  0  0  0  0  0  0  0  0  0  0
    9.2498  -23.5219   17.6374 C   0  0  0  0  0  0  0  0  0  0  0  0
    7.5313  -17.7615   21.1418 N   0  0  0  0  0  0  0  0  0  0  0  0
    7.7756  -16.6018   21.9589 C   0  0  1  0  0  0  0  0  0  0  0  0
    6.5079  -15.9208   22.3680 C   0  0  0  0  0  0  0  0  0  0  0  0
    6.8461  -14.7905   23.2631 C   0  0  0  0  0  0  0  0  0  0  0  0
    7.4605  -13.6321   22.8399 C   0  0  0  0  0  0  0  0  0  0  0  0
    7.7531  -12.6023   23.7333 C   0  0  0  0  0  0  0  0  0  0  0  0
    7.4221  -12.7435   25.0674 C   0  0  0  0  0  0  0  0  0  0  0  0
    6.8091  -13.8910   25.5086 C   0  0  0  0  0  0  0  0  0  0  0  0
    6.5319  -14.8942   24.5992 C   0  0  0  0  0  0  0  0  0  0  0  0
    8.6837  -16.9467   23.0646 C   0  0  0  0  0  0  0  0  0  0  0  0
    8.2299  -17.6027   24.0287 O   0  0  0  0  0  0  0  0  0  0  0  0
   10.0482  -16.5842   23.1131 N   0  0  0  0  0  0  0  0  0  0  0  0
   10.6861  -15.9645   24.2626 C   0  0  1  0  0  0  0  0  0  0  0  0
    9.7186  -15.2378   25.1318 C   0  0  0  0  0  0  0  0  0  0  0  0
    9.9016  -15.6639   26.5378 C   0  0  0  0  0  0  0  0  0  0  0  0
    9.9255  -16.9728   27.0155 C   0  0  0  0  0  0  0  0  0  0  0  0
   10.1036  -16.9035   28.3390 N   0  0  0  0  0  0  0  0  0  0  0  0
   10.1952  -15.6186   28.7343 C   0  0  0  0  0  0  0  0  0  0  0  0
   10.3783  -15.0300   29.9789 C   0  0  0  0  0  0  0  0  0  0  0  0
   10.4320  -13.6569   30.0728 C   0  0  0  0  0  0  0  0  0  0  0  0
   10.3109  -12.8359   28.9759 C   0  0  0  0  0  0  0  0  0  0  0  0
   10.1278  -13.4273   27.7327 C   0  0  0  0  0  0  0  0  0  0  0  0
   10.0724  -14.8075   27.6269 C   0  0  0  0  0  0  0  0  0  0  0  0
   11.3649  -17.0144   25.0493 C   0  0  0  0  0  0  0  0  0  0  0  0
   12.1382  -16.6993   25.9871 O   0  0  0  0  0  0  0  0  0  0  0  0
   11.1815  -18.3569   24.7932 O   0  0  0  0  0  0  0  0  0  0  0  0
  2  3  2  0
  2  1  1  0
  4  3  1  0
  5  4  2  0
  6  5  1  0
  6  7  1  0
  7  8  1  6
  9  7  1  0
  9 10  2  0
 11  5  1  0
 11 12  2  0
 12  2  1  0
 13  9  1  0
 14 13  1  0
 14 15  1  1
 16 15  1  0
 16 17  2  0
 18 17  1  0
 19 18  2  0
 20 21  2  0
 20 19  1  0
 21 16  1  0
 22 14  1  0
 23 22  2  0
 24 22  1  0
 25 24  1  0
 25 26  1  1
 26 27  1  0
 27 35  1  0
 28 27  2  0
 28 29  1  0
 29 30  1  0
 30 31  1  0
 31 32  2  0
 33 32  1  0
 34 33  2  0
 35 30  2  0
 35 34  1  0
 36 25  1  0
 37 36  2  0
 38 36  1  0
M  END
$$$$
