YFW.pdb
     RDKit          3D

 38 41  0  0  1  0  0  0  0  0999 V2000
    9.2176  -19.2730   14.0337 O   0  0  0  0  0  0  0  0  0  0  0  0
    9.5222  -18.9351   15.3524 C   0  0  0  0  0  0  0  0  0  0  0  0
   10.6256  -18.1642   15.6754 C   0  0  0  0  0  0  0  0  0  0  0  0
   10.9412  -17.8212   16.9732 C   0  0  0  0  0  0  0  0  0  0  0  0
   10.1467  -18.2467   18.0157 C   0  0  0  0  0  0  0  0  0  0  0  0
   10.4173  -17.9219   19.4408 C   0  0  0  0  0  0  0  0  0  0  0  0
    9.5959  -16.7034   19.7847 C   0  0  2  0  0  0  0  0  0  0  0  0
   10.1079  -15.6104   18.9912 N   0  0  0  0  0  0  0  0  0  0  0  0
    9.6813  -16.3355   21.2137 C   0  0  0  0  0  0  0  0  0  0  0  0
   10.7017  -15.7118   21.6032 O   0  0  0  0  0  0  0  0  0  0  0  0
    9.0430  -19.0164   17.7045 C   0  0  0  0  0  0  0  0  0  0  0  0
    8.7351  -19.3546   16.4040 C   0  0  0  0  0  0  0  0  0  0  0  0
    8.6514  -16.6655   22.1437 N   0  0  0  0  0  0  0  0  0  0  0  0
    8.8521  -16.3848   23.5413 C   0  0  1  0  0  0  0  0  0  0  0  0
    7.5749  -16.4392   24.3183 C   0  0  0  0  0  0  0  0  0  0  0  0
    7.2402  -15.0705   24.7742 C   0  0  0  0  0  0  0  0  0  0  0  0
    6.1044  -14.7540   25.4871 C   0  0  0  0  0  0  0  0  0  0  0  0
    5.8454  -13.4440   25.8881 C   0  0  0  0  0  0  0  0  0  0  0  0
    6.7423  -12.4433   25.5662 C   0  0  0  0  0  0  0  0  0  0  0  0
    7.8804  -12.7389   24.8560 C   0  0  0  0  0  0  0  0  0  0  0  0
    8.1096  -14.0469   24.4725 C   0  0  0  0  0  0  0  0  0  0  0  0
    9.9415  -17.2203   24.0717 C   0  0  0  0  0  0  0  0  0  0  0  0
   10.8241  -17.6241   23.2820 O   0  0  0  0  0  0  0  0  0  0  0  0
   10.0610  -17.6020   25.4265 N   0  0  0  0  0  0  0  0  0  0  0  0
   11.2152  -18.2902   25.9802 C   0  0  1  0  0  0  0  0  0  0  0  0
   12.2083  -17.3537   26.5770 C   0  0  0  0  0  0  0  0  0  0  0  0
   11.6508  -16.7672   27.8168 C   0  0  0  0  0  0  0  0  0  0  0  0
   11.4408  -17.4236   29.0279 C   0  0  0  0  0  0  0  0  0  0  0  0
   10.9160  -16.5292   29.8724 N   0  0  0  0  0  0  0  0  0  0  0  0
   10.7789  -15.3339   29.2655 C   0  0  0  0  0  0  0  0  0  0  0  0
   10.2933  -14.1087   29.7038 C   0  0  0  0  0  0  0  0  0  0  0  0
   10.2770  -13.0410   28.8337 C   0  0  0  0  0  0  0  0  0  0  0  0
   10.7253  -13.1374   27.5370 C   0  0  0  0  0  0  0  0  0  0  0  0
   11.2103  -14.3639   27.1016 C   0  0  0  0  0  0  0  0  0  0  0  0
   11.2314  -15.4443   27.9684 C   0  0  0  0  0  0  0  0  0  0  0  0
   10.7494  -19.2394   27.0118 C   0  0  0  0  0  0  0  0  0  0  0  0
    9.5597  -19.2029   27.4116 O   0  0  0  0  0  0  0  0  0  0  0  0
   11.5836  -20.1866   27.5672 O   0  0  0  0  0  0  0  0  0  0  0  0
  2  3  2  0
  2  1  1  0
  4  3  1  0
  5  4  2  0
  6  5  1  0
  6  7  1  0
  7  8  1  6
  9  7  1  0
  9 10  2  0
 11  5  1  0
 11 12  2  0
 12  2  1  0
 13  9  1  0
 14 13  1  0
 14 15  1  1
 16 15  1  0
 16 17  2  0
 18 17  1  0
 19 18  2  0
 20 21  2  0
 20 19  1  0
 21 16  1  0
 22 14  1  0
 23 22  2  0
 24 22  1  0
 25 24  1  0
 25 26  1  1
 26 27  1  0
 27 35  1  0
 28 27  2  0
 28 29  1  0
 29 30  1  0
 30 31  1  0
 31 32  2  0
 33 32  1  0
 34 33  2  0
 35 30  2  0
 35 34  1  0
 36 25  1  0
 37 36  2  0
 38 36  1  0
M  END
$$$$
