YFW.pdb
     RDKit          3D

 38 41  0  0  1  0  0  0  0  0999 V2000
   12.0476  -23.2635   15.7162 O   0  0  0  0  0  0  0  0  0  0  0  0
   12.0428  -22.1710   16.5836 C   0  0  0  0  0  0  0  0  0  0  0  0
   11.0377  -21.2196   16.5586 C   0  0  0  0  0  0  0  0  0  0  0  0
   11.0176  -20.1338   17.4084 C   0  0  0  0  0  0  0  0  0  0  0  0
   12.0243  -19.9582   18.3330 C   0  0  0  0  0  0  0  0  0  0  0  0
   12.0773  -18.8164   19.2833 C   0  0  0  0  0  0  0  0  0  0  0  0
   10.8472  -17.9763   19.0410 C   0  0  2  0  0  0  0  0  0  0  0  0
   11.0943  -17.1983   17.8492 N   0  0  0  0  0  0  0  0  0  0  0  0
   10.5492  -17.0552   20.1578 C   0  0  0  0  0  0  0  0  0  0  0  0
   11.2506  -16.0173   20.2708 O   0  0  0  0  0  0  0  0  0  0  0  0
   13.0322  -20.9019   18.3666 C   0  0  0  0  0  0  0  0  0  0  0  0
   13.0442  -21.9843   17.5130 C   0  0  0  0  0  0  0  0  0  0  0  0
    9.5033  -17.3121   21.0930 N   0  0  0  0  0  0  0  0  0  0  0  0
    9.1799  -16.3113   22.0759 C   0  0  1  0  0  0  0  0  0  0  0  0
    7.7474  -15.8865   22.0007 C   0  0  0  0  0  0  0  0  0  0  0  0
    7.6370  -14.7639   21.0413 C   0  0  0  0  0  0  0  0  0  0  0  0
    7.0712  -14.8750   19.7899 C   0  0  0  0  0  0  0  0  0  0  0  0
    6.9968  -13.7789   18.9312 C   0  0  0  0  0  0  0  0  0  0  0  0
    7.4989  -12.5582   19.3402 C   0  0  0  0  0  0  0  0  0  0  0  0
    8.0668  -12.4273   20.5842 C   0  0  0  0  0  0  0  0  0  0  0  0
    8.1260  -13.5320   21.4128 C   0  0  0  0  0  0  0  0  0  0  0  0
    9.6326  -16.7472   23.4068 C   0  0  0  0  0  0  0  0  0  0  0  0
    9.8587  -17.9638   23.5926 O   0  0  0  0  0  0  0  0  0  0  0  0
    9.8319  -15.8769   24.5015 N   0  0  0  0  0  0  0  0  0  0  0  0
   10.0262  -16.3222   25.8713 C   0  0  1  0  0  0  0  0  0  0  0  0
    9.5803  -15.3113   26.8707 C   0  0  0  0  0  0  0  0  0  0  0  0
    8.1865  -14.9078   26.5765 C   0  0  0  0  0  0  0  0  0  0  0  0
    7.1605  -15.7305   26.1157 C   0  0  0  0  0  0  0  0  0  0  0  0
    6.0751  -14.9619   25.9757 N   0  0  0  0  0  0  0  0  0  0  0  0
    6.3521  -13.6897   26.3229 C   0  0  0  0  0  0  0  0  0  0  0  0
    5.5805  -12.5353   26.3521 C   0  0  0  0  0  0  0  0  0  0  0  0
    6.1543  -11.3524   26.7628 C   0  0  0  0  0  0  0  0  0  0  0  0
    7.4716  -11.2649   27.1489 C   0  0  0  0  0  0  0  0  0  0  0  0
    8.2407  -12.4210   27.1186 C   0  0  0  0  0  0  0  0  0  0  0  0
    7.6736  -13.6161   26.7074 C   0  0  0  0  0  0  0  0  0  0  0  0
    9.2754  -17.5786   26.0708 C   0  0  0  0  0  0  0  0  0  0  0  0
    8.3597  -17.8996   25.2740 O   0  0  0  0  0  0  0  0  0  0  0  0
    9.5432  -18.4347   27.1181 O   0  0  0  0  0  0  0  0  0  0  0  0
  2  3  2  0
  2  1  1  0
  4  3  1  0
  5  4  2  0
  6  5  1  0
  6  7  1  0
  7  8  1  6
  9  7  1  0
  9 10  2  0
 11  5  1  0
 11 12  2  0
 12  2  1  0
 13  9  1  0
 14 13  1  0
 14 15  1  1
 16 15  1  0
 16 17  2  0
 18 17  1  0
 19 18  2  0
 20 21  2  0
 20 19  1  0
 21 16  1  0
 22 14  1  0
 23 22  2  0
 24 22  1  0
 25 24  1  0
 25 26  1  1
 26 27  1  0
 27 35  1  0
 28 27  2  0
 28 29  1  0
 29 30  1  0
 30 31  1  0
 31 32  2  0
 33 32  1  0
 34 33  2  0
 35 30  2  0
 35 34  1  0
 36 25  1  0
 37 36  2  0
 38 36  1  0
M  END
$$$$
