YFW.pdb
     RDKit          3D

 38 41  0  0  1  0  0  0  0  0999 V2000
    7.6302  -20.3656   14.1027 O   0  0  0  0  0  0  0  0  0  0  0  0
    8.1516  -19.9825   15.3385 C   0  0  0  0  0  0  0  0  0  0  0  0
    9.5137  -19.9600   15.5842 C   0  0  0  0  0  0  0  0  0  0  0  0
   10.0459  -19.5842   16.7996 C   0  0  0  0  0  0  0  0  0  0  0  0
    9.2159  -19.2097   17.8339 C   0  0  0  0  0  0  0  0  0  0  0  0
    9.7084  -18.7926   19.1730 C   0  0  0  0  0  0  0  0  0  0  0  0
    9.9688  -17.3074   19.1102 C   0  0  2  0  0  0  0  0  0  0  0  0
   11.3260  -17.1350   18.6467 N   0  0  0  0  0  0  0  0  0  0  0  0
    9.8251  -16.6412   20.4218 C   0  0  0  0  0  0  0  0  0  0  0  0
   10.8669  -16.4284   21.0936 O   0  0  0  0  0  0  0  0  0  0  0  0
    7.8550  -19.2285   17.5994 C   0  0  0  0  0  0  0  0  0  0  0  0
    7.3317  -19.6056   16.3811 C   0  0  0  0  0  0  0  0  0  0  0  0
    8.5550  -16.2413   20.9331 N   0  0  0  0  0  0  0  0  0  0  0  0
    8.4875  -15.5993   22.2199 C   0  0  1  0  0  0  0  0  0  0  0  0
    7.2178  -14.8297   22.4022 C   0  0  0  0  0  0  0  0  0  0  0  0
    7.1809  -14.2990   23.7843 C   0  0  0  0  0  0  0  0  0  0  0  0
    6.7366  -15.0183   24.8723 C   0  0  0  0  0  0  0  0  0  0  0  0
    6.7265  -14.4615   26.1506 C   0  0  0  0  0  0  0  0  0  0  0  0
    7.1695  -13.1653   26.3322 C   0  0  0  0  0  0  0  0  0  0  0  0
    7.6163  -12.4320   25.2600 C   0  0  0  0  0  0  0  0  0  0  0  0
    7.6142  -13.0114   24.0051 C   0  0  0  0  0  0  0  0  0  0  0  0
    8.7868  -16.5710   23.2841 C   0  0  0  0  0  0  0  0  0  0  0  0
    8.2337  -17.6926   23.2425 O   0  0  0  0  0  0  0  0  0  0  0  0
    9.6656  -16.3219   24.3616 N   0  0  0  0  0  0  0  0  0  0  0  0
   10.7033  -17.2422   24.7960 C   0  0  1  0  0  0  0  0  0  0  0  0
   11.6179  -16.6388   25.8053 C   0  0  0  0  0  0  0  0  0  0  0  0
   10.9083  -16.5062   27.0979 C   0  0  0  0  0  0  0  0  0  0  0  0
   10.5299  -17.5413   27.9507 C   0  0  0  0  0  0  0  0  0  0  0  0
    9.9096  -16.9816   28.9949 N   0  0  0  0  0  0  0  0  0  0  0  0
    9.8707  -15.6419   28.8556 C   0  0  0  0  0  0  0  0  0  0  0  0
    9.3478  -14.6302   29.6505 C   0  0  0  0  0  0  0  0  0  0  0  0
    9.4619  -13.3216   29.2361 C   0  0  0  0  0  0  0  0  0  0  0  0
   10.0777  -12.9708   28.0572 C   0  0  0  0  0  0  0  0  0  0  0  0
   10.5996  -13.9847   27.2644 C   0  0  0  0  0  0  0  0  0  0  0  0
   10.4904  -15.3042   27.6718 C   0  0  0  0  0  0  0  0  0  0  0  0
   10.0607  -18.4433   25.3674 C   0  0  0  0  0  0  0  0  0  0  0  0
   10.7611  -19.4158   25.7418 O   0  0  0  0  0  0  0  0  0  0  0  0
    8.6930  -18.5451   25.5115 O   0  0  0  0  0  0  0  0  0  0  0  0
  2  3  2  0
  2  1  1  0
  4  3  1  0
  5  4  2  0
  6  5  1  0
  6  7  1  0
  7  8  1  1
  9  7  1  0
  9 10  2  0
 11  5  1  0
 11 12  2  0
 12  2  1  0
 13  9  1  0
 14 13  1  0
 14 15  1  1
 16 15  1  0
 16 17  2  0
 18 17  1  0
 19 18  2  0
 20 21  2  0
 20 19  1  0
 21 16  1  0
 22 14  1  0
 23 22  2  0
 24 22  1  0
 25 24  1  0
 25 26  1  1
 26 27  1  0
 27 35  1  0
 28 27  2  0
 28 29  1  0
 29 30  1  0
 30 31  1  0
 31 32  2  0
 33 32  1  0
 34 33  2  0
 35 30  2  0
 35 34  1  0
 36 25  1  0
 37 36  2  0
 38 36  1  0
M  END
$$$$
