YFW.pdb
     RDKit          3D

 38 41  0  0  1  0  0  0  0  0999 V2000
   11.0874  -23.4832   17.2059 O   0  0  0  0  0  0  0  0  0  0  0  0
   11.0656  -22.3756   18.0537 C   0  0  0  0  0  0  0  0  0  0  0  0
   11.9815  -21.3445   17.9363 C   0  0  0  0  0  0  0  0  0  0  0  0
   11.9743  -20.2428   18.7657 C   0  0  0  0  0  0  0  0  0  0  0  0
   11.0299  -20.1320   19.7631 C   0  0  0  0  0  0  0  0  0  0  0  0
   10.9539  -18.9793   20.6986 C   0  0  0  0  0  0  0  0  0  0  0  0
    9.8716  -18.0601   20.1875 C   0  0  2  0  0  0  0  0  0  0  0  0
   10.2884  -17.5998   18.8833 N   0  0  0  0  0  0  0  0  0  0  0  0
    9.6528  -16.8867   21.0593 C   0  0  0  0  0  0  0  0  0  0  0  0
   10.4272  -15.9038   20.9321 O   0  0  0  0  0  0  0  0  0  0  0  0
   10.1109  -21.1553   19.8889 C   0  0  0  0  0  0  0  0  0  0  0  0
   10.1257  -22.2531   19.0552 C   0  0  0  0  0  0  0  0  0  0  0  0
    8.6026  -16.8447   22.0235 N   0  0  0  0  0  0  0  0  0  0  0  0
    8.4580  -15.6768   22.8526 C   0  0  1  0  0  0  0  0  0  0  0  0
    7.0328  -15.4245   23.2308 C   0  0  0  0  0  0  0  0  0  0  0  0
    6.9953  -14.3338   24.2318 C   0  0  0  0  0  0  0  0  0  0  0  0
    7.3978  -13.0412   23.9757 C   0  0  0  0  0  0  0  0  0  0  0  0
    7.3381  -12.0576   24.9622 C   0  0  0  0  0  0  0  0  0  0  0  0
    6.8674  -12.3824   26.2201 C   0  0  0  0  0  0  0  0  0  0  0  0
    6.4614  -13.6656   26.4949 C   0  0  0  0  0  0  0  0  0  0  0  0
    6.5324  -14.6187   25.4964 C   0  0  0  0  0  0  0  0  0  0  0  0
    9.4014  -15.7397   23.9806 C   0  0  0  0  0  0  0  0  0  0  0  0
    9.7205  -14.6740   24.5532 O   0  0  0  0  0  0  0  0  0  0  0  0
    9.9780  -16.9340   24.4670 N   0  0  0  0  0  0  0  0  0  0  0  0
   11.1467  -16.9820   25.3297 C   0  0  1  0  0  0  0  0  0  0  0  0
   10.8301  -17.4867   26.6952 C   0  0  0  0  0  0  0  0  0  0  0  0
    9.9681  -16.5078   27.3957 C   0  0  0  0  0  0  0  0  0  0  0  0
    8.6014  -16.6261   27.6404 C   0  0  0  0  0  0  0  0  0  0  0  0
    8.2222  -15.5193   28.2883 N   0  0  0  0  0  0  0  0  0  0  0  0
    9.2747  -14.6981   28.4716 C   0  0  0  0  0  0  0  0  0  0  0  0
    9.4007  -13.4543   29.0764 C   0  0  0  0  0  0  0  0  0  0  0  0
   10.6354  -12.8447   29.1109 C   0  0  0  0  0  0  0  0  0  0  0  0
   11.7596  -13.4209   28.5667 C   0  0  0  0  0  0  0  0  0  0  0  0
   11.6304  -14.6648   27.9626 C   0  0  0  0  0  0  0  0  0  0  0  0
   10.3933  -15.2869   27.9224 C   0  0  0  0  0  0  0  0  0  0  0  0
   12.1609  -17.8544   24.7034 C   0  0  0  0  0  0  0  0  0  0  0  0
   13.3833  -17.6182   24.8659 O   0  0  0  0  0  0  0  0  0  0  0  0
   11.8155  -18.9431   23.9306 O   0  0  0  0  0  0  0  0  0  0  0  0
  2  3  2  0
  2  1  1  0
  4  3  1  0
  5  4  2  0
  6  5  1  0
  6  7  1  0
  7  8  1  6
  9  7  1  0
  9 10  2  0
 11  5  1  0
 11 12  2  0
 12  2  1  0
 13  9  1  0
 14 13  1  0
 14 15  1  1
 16 15  1  0
 16 17  2  0
 18 17  1  0
 19 18  2  0
 20 21  2  0
 20 19  1  0
 21 16  1  0
 22 14  1  0
 23 22  2  0
 24 22  1  0
 25 24  1  0
 25 26  1  1
 26 27  1  0
 27 35  1  0
 28 27  2  0
 28 29  1  0
 29 30  1  0
 30 31  1  0
 31 32  2  0
 33 32  1  0
 34 33  2  0
 35 30  2  0
 35 34  1  0
 36 25  1  0
 37 36  2  0
 38 36  1  0
M  END
$$$$
