YFW.pdb
     RDKit          3D

 38 41  0  0  1  0  0  0  0  0999 V2000
    8.5283  -21.8199   14.4716 O   0  0  0  0  0  0  0  0  0  0  0  0
    8.9510  -21.1060   15.5930 C   0  0  0  0  0  0  0  0  0  0  0  0
   10.2518  -20.6517   15.7253 C   0  0  0  0  0  0  0  0  0  0  0  0
   10.6862  -19.9449   16.8269 C   0  0  0  0  0  0  0  0  0  0  0  0
    9.8154  -19.6619   17.8567 C   0  0  0  0  0  0  0  0  0  0  0  0
   10.2036  -18.9073   19.0772 C   0  0  0  0  0  0  0  0  0  0  0  0
    9.9146  -17.4500   18.8120 C   0  0  2  0  0  0  0  0  0  0  0  0
   10.9848  -16.9510   17.9801 N   0  0  0  0  0  0  0  0  0  0  0  0
    9.8542  -16.6404   20.0471 C   0  0  0  0  0  0  0  0  0  0  0  0
   10.9359  -16.2158   20.5285 O   0  0  0  0  0  0  0  0  0  0  0  0
    8.5149  -20.1105   17.7348 C   0  0  0  0  0  0  0  0  0  0  0  0
    8.0893  -20.8165   16.6299 C   0  0  0  0  0  0  0  0  0  0  0  0
    8.6198  -16.3352   20.6932 N   0  0  0  0  0  0  0  0  0  0  0  0
    8.6419  -15.6676   21.9685 C   0  0  1  0  0  0  0  0  0  0  0  0
    7.3366  -15.0089   22.2849 C   0  0  0  0  0  0  0  0  0  0  0  0
    7.4357  -14.3815   23.6226 C   0  0  0  0  0  0  0  0  0  0  0  0
    7.9581  -13.1263   23.8462 C   0  0  0  0  0  0  0  0  0  0  0  0
    8.0240  -12.5902   25.1317 C   0  0  0  0  0  0  0  0  0  0  0  0
    7.5578  -13.3289   26.2023 C   0  0  0  0  0  0  0  0  0  0  0  0
    7.0333  -14.5823   25.9998 C   0  0  0  0  0  0  0  0  0  0  0  0
    6.9814  -15.0867   24.7139 C   0  0  0  0  0  0  0  0  0  0  0  0
    9.1483  -16.5802   23.0062 C   0  0  0  0  0  0  0  0  0  0  0  0
    8.8144  -17.7851   22.9577 O   0  0  0  0  0  0  0  0  0  0  0  0
    9.9952  -16.1851   24.0656 N   0  0  0  0  0  0  0  0  0  0  0  0
   11.1023  -16.9837   24.5647 C   0  0  1  0  0  0  0  0  0  0  0  0
   11.7799  -16.3559   25.7336 C   0  0  0  0  0  0  0  0  0  0  0  0
   10.8563  -16.3417   26.8905 C   0  0  0  0  0  0  0  0  0  0  0  0
   10.0660  -17.3983   27.3389 C   0  0  0  0  0  0  0  0  0  0  0  0
    9.3826  -16.9539   28.3990 N   0  0  0  0  0  0  0  0  0  0  0  0
    9.6938  -15.6677   28.6534 C   0  0  0  0  0  0  0  0  0  0  0  0
    9.2643  -14.7723   29.6242 C   0  0  0  0  0  0  0  0  0  0  0  0
    9.7732  -13.4924   29.6317 C   0  0  0  0  0  0  0  0  0  0  0  0
   10.6975  -13.0592   28.7097 C   0  0  0  0  0  0  0  0  0  0  0  0
   11.1250  -13.9569   27.7401 C   0  0  0  0  0  0  0  0  0  0  0  0
   10.6198  -15.2467   27.7235 C   0  0  0  0  0  0  0  0  0  0  0  0
   10.5897  -18.3151   24.9474 C   0  0  0  0  0  0  0  0  0  0  0  0
   11.3870  -19.2265   25.2794 O   0  0  0  0  0  0  0  0  0  0  0  0
    9.2421  -18.6074   24.9568 O   0  0  0  0  0  0  0  0  0  0  0  0
  2  3  2  0
  2  1  1  0
  4  3  1  0
  5  4  2  0
  6  5  1  0
  6  7  1  0
  7  8  1  6
  9  7  1  0
  9 10  2  0
 11  5  1  0
 11 12  2  0
 12  2  1  0
 13  9  1  0
 14 13  1  0
 14 15  1  1
 16 15  1  0
 16 17  2  0
 18 17  1  0
 19 18  2  0
 20 21  2  0
 20 19  1  0
 21 16  1  0
 22 14  1  0
 23 22  2  0
 24 22  1  0
 25 24  1  0
 25 26  1  1
 26 27  1  0
 27 35  1  0
 28 27  2  0
 28 29  1  0
 29 30  1  0
 30 31  1  0
 31 32  2  0
 33 32  1  0
 34 33  2  0
 35 30  2  0
 35 34  1  0
 36 25  1  0
 37 36  2  0
 38 36  1  0
M  END
$$$$
