YFW.pdb
     RDKit          3D

 38 41  0  0  1  0  0  0  0  0999 V2000
    8.3177  -12.7164   14.5186 O   0  0  0  0  0  0  0  0  0  0  0  0
    8.0767  -13.5511   15.6100 C   0  0  0  0  0  0  0  0  0  0  0  0
    7.7045  -13.0522   16.8463 C   0  0  0  0  0  0  0  0  0  0  0  0
    7.4626  -13.8628   17.9353 C   0  0  0  0  0  0  0  0  0  0  0  0
    7.5875  -15.2306   17.8229 C   0  0  0  0  0  0  0  0  0  0  0  0
    7.3460  -16.1730   18.9468 C   0  0  0  0  0  0  0  0  0  0  0  0
    8.6952  -16.5732   19.4917 C   0  0  2  0  0  0  0  0  0  0  0  0
    8.6685  -18.0054   19.6777 N   0  0  0  0  0  0  0  0  0  0  0  0
    9.0079  -15.9307   20.7855 C   0  0  0  0  0  0  0  0  0  0  0  0
    9.4812  -14.7655   20.7673 O   0  0  0  0  0  0  0  0  0  0  0  0
    7.9583  -15.7391   16.5935 C   0  0  0  0  0  0  0  0  0  0  0  0
    8.1982  -14.9210   15.5101 C   0  0  0  0  0  0  0  0  0  0  0  0
    8.7886  -16.5899   22.0313 N   0  0  0  0  0  0  0  0  0  0  0  0
    8.5939  -15.7993   23.2184 C   0  0  1  0  0  0  0  0  0  0  0  0
    7.2546  -15.1331   23.2411 C   0  0  0  0  0  0  0  0  0  0  0  0
    7.1331  -14.3585   24.4973 C   0  0  0  0  0  0  0  0  0  0  0  0
    7.6307  -13.0847   24.6662 C   0  0  0  0  0  0  0  0  0  0  0  0
    7.4839  -12.4068   25.8758 C   0  0  0  0  0  0  0  0  0  0  0  0
    6.8281  -13.0211   26.9255 C   0  0  0  0  0  0  0  0  0  0  0  0
    6.3250  -14.2907   26.7767 C   0  0  0  0  0  0  0  0  0  0  0  0
    6.4861  -14.9371   25.5657 C   0  0  0  0  0  0  0  0  0  0  0  0
    8.9146  -16.5968   24.4131 C   0  0  0  0  0  0  0  0  0  0  0  0
    8.3839  -16.2828   25.5018 O   0  0  0  0  0  0  0  0  0  0  0  0
    9.7904  -17.7052   24.4155 N   0  0  0  0  0  0  0  0  0  0  0  0
   11.2355  -17.6013   24.5307 C   0  0  1  0  0  0  0  0  0  0  0  0
   11.6722  -16.2956   25.0997 C   0  0  0  0  0  0  0  0  0  0  0  0
   11.3482  -16.2532   26.5437 C   0  0  0  0  0  0  0  0  0  0  0  0
   11.3944  -17.3195   27.4396 C   0  0  0  0  0  0  0  0  0  0  0  0
   11.0176  -16.8458   28.6321 N   0  0  0  0  0  0  0  0  0  0  0  0
   10.7326  -15.5315   28.5470 C   0  0  0  0  0  0  0  0  0  0  0  0
   10.3068  -14.6006   29.4856 C   0  0  0  0  0  0  0  0  0  0  0  0
   10.0929  -13.2979   29.0924 C   0  0  0  0  0  0  0  0  0  0  0  0
   10.2851  -12.8757   27.7975 C   0  0  0  0  0  0  0  0  0  0  0  0
   10.7110  -13.8090   26.8613 C   0  0  0  0  0  0  0  0  0  0  0  0
   10.9292  -15.1218   27.2459 C   0  0  0  0  0  0  0  0  0  0  0  0
   11.7214  -18.7013   25.3887 C   0  0  0  0  0  0  0  0  0  0  0  0
   10.9059  -19.4084   26.0302 O   0  0  0  0  0  0  0  0  0  0  0  0
   13.0630  -18.9927   25.5182 O   0  0  0  0  0  0  0  0  0  0  0  0
  2  3  2  0
  2  1  1  0
  4  3  1  0
  5  4  2  0
  6  5  1  0
  6  7  1  0
  7  8  1  1
  9  7  1  0
  9 10  2  0
 11  5  1  0
 11 12  2  0
 12  2  1  0
 13  9  1  0
 14 13  1  0
 14 15  1  1
 16 15  1  0
 16 17  2  0
 18 17  1  0
 19 18  2  0
 20 21  2  0
 20 19  1  0
 21 16  1  0
 22 14  1  0
 23 22  2  0
 24 22  1  0
 25 24  1  0
 25 26  1  1
 26 27  1  0
 27 35  1  0
 28 27  2  0
 28 29  1  0
 29 30  1  0
 30 31  1  0
 31 32  2  0
 33 32  1  0
 34 33  2  0
 35 30  2  0
 35 34  1  0
 36 25  1  0
 37 36  2  0
 38 36  1  0
M  END
$$$$
