YFW.pdb
     RDKit          3D

 38 41  0  0  1  0  0  0  0  0999 V2000
    8.1535  -12.7901   16.4846 O   0  0  0  0  0  0  0  0  0  0  0  0
    8.2807  -13.4493   17.7074 C   0  0  0  0  0  0  0  0  0  0  0  0
    7.6950  -14.6816   17.9403 C   0  0  0  0  0  0  0  0  0  0  0  0
    7.8107  -15.3467   19.1428 C   0  0  0  0  0  0  0  0  0  0  0  0
    8.5321  -14.7900   20.1765 C   0  0  0  0  0  0  0  0  0  0  0  0
    8.7043  -15.4403   21.5021 C   0  0  0  0  0  0  0  0  0  0  0  0
   10.0687  -16.0852   21.5091 C   0  0  2  0  0  0  0  0  0  0  0  0
   10.0333  -17.1605   20.5452 N   0  0  0  0  0  0  0  0  0  0  0  0
   10.4369  -16.6402   22.8286 C   0  0  0  0  0  0  0  0  0  0  0  0
   10.4254  -17.8902   22.9678 O   0  0  0  0  0  0  0  0  0  0  0  0
    9.1209  -13.5605   19.9547 C   0  0  0  0  0  0  0  0  0  0  0  0
    8.9999  -12.9027   18.7492 C   0  0  0  0  0  0  0  0  0  0  0  0
   10.7987  -15.8056   23.9272 N   0  0  0  0  0  0  0  0  0  0  0  0
   11.2529  -16.4138   25.1504 C   0  0  1  0  0  0  0  0  0  0  0  0
   12.0829  -15.4795   25.9726 C   0  0  0  0  0  0  0  0  0  0  0  0
   11.3248  -15.1242   27.1941 C   0  0  0  0  0  0  0  0  0  0  0  0
   11.2882  -15.9033   28.3300 C   0  0  0  0  0  0  0  0  0  0  0  0
   10.5545  -15.5133   29.4497 C   0  0  0  0  0  0  0  0  0  0  0  0
    9.8505  -14.3245   29.4223 C   0  0  0  0  0  0  0  0  0  0  0  0
    9.8746  -13.5339   28.2992 C   0  0  0  0  0  0  0  0  0  0  0  0
   10.6110  -13.9473   27.2050 C   0  0  0  0  0  0  0  0  0  0  0  0
   10.1188  -17.0291   25.8586 C   0  0  0  0  0  0  0  0  0  0  0  0
   10.2845  -17.4042   27.0407 O   0  0  0  0  0  0  0  0  0  0  0  0
    8.8413  -17.2276   25.2892 N   0  0  0  0  0  0  0  0  0  0  0  0
    7.7273  -17.8503   25.9847 C   0  0  1  0  0  0  0  0  0  0  0  0
    6.4173  -17.5719   25.3322 C   0  0  0  0  0  0  0  0  0  0  0  0
    6.4898  -16.2815   24.6101 C   0  0  0  0  0  0  0  0  0  0  0  0
    6.6099  -16.1027   23.2333 C   0  0  0  0  0  0  0  0  0  0  0  0
    6.6490  -14.7845   23.0114 N   0  0  0  0  0  0  0  0  0  0  0  0
    6.5602  -14.1094   24.1742 C   0  0  0  0  0  0  0  0  0  0  0  0
    6.5557  -12.7534   24.4744 C   0  0  0  0  0  0  0  0  0  0  0  0
    6.4502  -12.3554   25.7888 C   0  0  0  0  0  0  0  0  0  0  0  0
    6.3481  -13.2523   26.8267 C   0  0  0  0  0  0  0  0  0  0  0  0
    6.3529  -14.6076   26.5233 C   0  0  0  0  0  0  0  0  0  0  0  0
    6.4585  -15.0189   25.2047 C   0  0  0  0  0  0  0  0  0  0  0  0
    7.9556  -19.3090   26.0318 C   0  0  0  0  0  0  0  0  0  0  0  0
    8.9297  -19.8151   25.4222 O   0  0  0  0  0  0  0  0  0  0  0  0
    7.1266  -20.1589   26.7332 O   0  0  0  0  0  0  0  0  0  0  0  0
  2  3  2  0
  2  1  1  0
  4  3  1  0
  5  4  2  0
  6  5  1  0
  6  7  1  0
  7  8  1  6
  9  7  1  0
  9 10  2  0
 11  5  1  0
 11 12  2  0
 12  2  1  0
 13  9  1  0
 14 13  1  0
 14 15  1  1
 16 15  1  0
 16 17  2  0
 18 17  1  0
 19 18  2  0
 20 21  2  0
 20 19  1  0
 21 16  1  0
 22 14  1  0
 23 22  2  0
 24 22  1  0
 25 24  1  0
 25 26  1  6
 26 27  1  0
 27 35  1  0
 28 27  2  0
 28 29  1  0
 29 30  1  0
 30 31  1  0
 31 32  2  0
 33 32  1  0
 34 33  2  0
 35 30  2  0
 35 34  1  0
 36 25  1  0
 37 36  2  0
 38 36  1  0
M  END
$$$$
