YFW.pdb
     RDKit          3D

 38 41  0  0  1  0  0  0  0  0999 V2000
    5.7400  -23.0866   28.4594 O   0  0  0  0  0  0  0  0  0  0  0  0
    6.4086  -22.2634   27.5532 C   0  0  0  0  0  0  0  0  0  0  0  0
    7.7214  -22.4967   27.1813 C   0  0  0  0  0  0  0  0  0  0  0  0
    8.3971  -21.6932   26.2873 C   0  0  0  0  0  0  0  0  0  0  0  0
    7.7693  -20.6045   25.7218 C   0  0  0  0  0  0  0  0  0  0  0  0
    8.4261  -19.6894   24.7519 C   0  0  0  0  0  0  0  0  0  0  0  0
    7.8128  -19.9576   23.3993 C   0  0  2  0  0  0  0  0  0  0  0  0
    8.3982  -21.1820   22.9047 N   0  0  0  0  0  0  0  0  0  0  0  0
    8.0727  -18.8775   22.4243 C   0  0  0  0  0  0  0  0  0  0  0  0
    9.1112  -18.9557   21.7190 O   0  0  0  0  0  0  0  0  0  0  0  0
    6.4592  -20.3626   26.0858 C   0  0  0  0  0  0  0  0  0  0  0  0
    5.7914  -21.1713   26.9806 C   0  0  0  0  0  0  0  0  0  0  0  0
    7.1886  -17.7693   22.2679 N   0  0  0  0  0  0  0  0  0  0  0  0
    7.6928  -16.5436   21.7060 C   0  0  1  0  0  0  0  0  0  0  0  0
    6.6299  -15.4979   21.5838 C   0  0  0  0  0  0  0  0  0  0  0  0
    7.2153  -14.3024   20.9349 C   0  0  0  0  0  0  0  0  0  0  0  0
    7.5889  -13.1639   21.6153 C   0  0  0  0  0  0  0  0  0  0  0  0
    8.1353  -12.0695   20.9460 C   0  0  0  0  0  0  0  0  0  0  0  0
    8.3063  -12.1252   19.5759 C   0  0  0  0  0  0  0  0  0  0  0  0
    7.9400  -13.2514   18.8799 C   0  0  0  0  0  0  0  0  0  0  0  0
    7.4011  -14.3201   19.5712 C   0  0  0  0  0  0  0  0  0  0  0  0
    8.9049  -16.1205   22.4257 C   0  0  0  0  0  0  0  0  0  0  0  0
    9.7878  -15.4974   21.7950 O   0  0  0  0  0  0  0  0  0  0  0  0
    9.1430  -16.3722   23.7952 N   0  0  0  0  0  0  0  0  0  0  0  0
   10.2081  -15.7509   24.5645 C   0  0  1  0  0  0  0  0  0  0  0  0
    9.8643  -15.6083   26.0070 C   0  0  0  0  0  0  0  0  0  0  0  0
    8.4379  -15.2350   26.1400 C   0  0  0  0  0  0  0  0  0  0  0  0
    7.3461  -16.1009   26.1366 C   0  0  0  0  0  0  0  0  0  0  0  0
    6.2489  -15.3485   26.2719 N   0  0  0  0  0  0  0  0  0  0  0  0
    6.5806  -14.0456   26.3618 C   0  0  0  0  0  0  0  0  0  0  0  0
    5.8219  -12.8917   26.5092 C   0  0  0  0  0  0  0  0  0  0  0  0
    6.4578  -11.6714   26.5719 C   0  0  0  0  0  0  0  0  0  0  0  0
    7.8253  -11.5459   26.4940 C   0  0  0  0  0  0  0  0  0  0  0  0
    8.5813  -12.7016   26.3467 C   0  0  0  0  0  0  0  0  0  0  0  0
    7.9520  -13.9340   26.2826 C   0  0  0  0  0  0  0  0  0  0  0  0
   11.4300  -16.5693   24.4264 C   0  0  0  0  0  0  0  0  0  0  0  0
   11.3880  -17.6686   23.8212 O   0  0  0  0  0  0  0  0  0  0  0  0
   12.6435  -16.1688   24.9447 O   0  0  0  0  0  0  0  0  0  0  0  0
  2  3  2  0
  2  1  1  0
  4  3  1  0
  5  4  2  0
  6  5  1  0
  6  7  1  0
  7  8  1  6
  9  7  1  0
  9 10  2  0
 11  5  1  0
 11 12  2  0
 12  2  1  0
 13  9  1  0
 14 13  1  0
 14 15  1  1
 16 15  1  0
 16 17  2  0
 18 17  1  0
 19 18  2  0
 20 21  2  0
 20 19  1  0
 21 16  1  0
 22 14  1  0
 23 22  2  0
 24 22  1  0
 25 24  1  0
 25 26  1  1
 26 27  1  0
 27 35  1  0
 28 27  2  0
 28 29  1  0
 29 30  1  0
 30 31  1  0
 31 32  2  0
 33 32  1  0
 34 33  2  0
 35 30  2  0
 35 34  1  0
 36 25  1  0
 37 36  2  0
 38 36  1  0
M  END
$$$$
