YFW.pdb
     RDKit          3D

 38 41  0  0  1  0  0  0  0  0999 V2000
    6.7409  -13.8397   14.5591 O   0  0  0  0  0  0  0  0  0  0  0  0
    7.7035  -13.9633   15.5610 C   0  0  0  0  0  0  0  0  0  0  0  0
    7.5918  -13.3000   16.7708 C   0  0  0  0  0  0  0  0  0  0  0  0
    8.5339  -13.4109   17.7716 C   0  0  0  0  0  0  0  0  0  0  0  0
    9.6449  -14.2064   17.5930 C   0  0  0  0  0  0  0  0  0  0  0  0
   10.7057  -14.3791   18.6200 C   0  0  0  0  0  0  0  0  0  0  0  0
   10.4530  -15.6998   19.3052 C   0  0  2  0  0  0  0  0  0  0  0  0
    9.2884  -16.2840   18.6816 N   0  0  0  0  0  0  0  0  0  0  0  0
   10.1967  -15.5575   20.7539 C   0  0  0  0  0  0  0  0  0  0  0  0
   11.1284  -15.1233   21.4788 O   0  0  0  0  0  0  0  0  0  0  0  0
    9.7662  -14.8730   16.3895 C   0  0  0  0  0  0  0  0  0  0  0  0
    8.8193  -14.7562   15.3944 C   0  0  0  0  0  0  0  0  0  0  0  0
    8.9398  -15.8951   21.3375 N   0  0  0  0  0  0  0  0  0  0  0  0
    8.7350  -15.6650   22.7437 C   0  0  1  0  0  0  0  0  0  0  0  0
    7.3207  -15.2903   23.0556 C   0  0  0  0  0  0  0  0  0  0  0  0
    7.2597  -14.7927   24.4491 C   0  0  0  0  0  0  0  0  0  0  0  0
    6.9159  -15.5747   25.5302 C   0  0  0  0  0  0  0  0  0  0  0  0
    6.8766  -15.0463   26.8200 C   0  0  0  0  0  0  0  0  0  0  0  0
    7.1876  -13.7149   27.0202 C   0  0  0  0  0  0  0  0  0  0  0  0
    7.5328  -12.9191   25.9551 C   0  0  0  0  0  0  0  0  0  0  0  0
    7.5629  -13.4715   24.6885 C   0  0  0  0  0  0  0  0  0  0  0  0
    9.2675  -16.7950   23.5220 C   0  0  0  0  0  0  0  0  0  0  0  0
    8.9930  -17.9582   23.1516 O   0  0  0  0  0  0  0  0  0  0  0  0
   10.0765  -16.6553   24.6716 N   0  0  0  0  0  0  0  0  0  0  0  0
   11.0075  -17.6681   25.1404 C   0  0  1  0  0  0  0  0  0  0  0  0
   11.9275  -17.1562   26.1945 C   0  0  0  0  0  0  0  0  0  0  0  0
   11.1644  -16.9116   27.4394 C   0  0  0  0  0  0  0  0  0  0  0  0
   10.8476  -17.8492   28.4204 C   0  0  0  0  0  0  0  0  0  0  0  0
   10.1451  -17.2094   29.3615 N   0  0  0  0  0  0  0  0  0  0  0  0
    9.9953  -15.9107   29.0347 C   0  0  0  0  0  0  0  0  0  0  0  0
    9.3594  -14.8507   29.6677 C   0  0  0  0  0  0  0  0  0  0  0  0
    9.3742  -13.6068   29.0763 C   0  0  0  0  0  0  0  0  0  0  0  0
    9.9979  -13.3675   27.8740 C   0  0  0  0  0  0  0  0  0  0  0  0
   10.6330  -14.4296   27.2433 C   0  0  0  0  0  0  0  0  0  0  0  0
   10.6243  -15.6848   27.8294 C   0  0  0  0  0  0  0  0  0  0  0  0
   10.2356  -18.8104   25.6708 C   0  0  0  0  0  0  0  0  0  0  0  0
   10.8199  -19.8782   25.9786 O   0  0  0  0  0  0  0  0  0  0  0  0
    8.8692  -18.7534   25.8475 O   0  0  0  0  0  0  0  0  0  0  0  0
  2  3  2  0
  2  1  1  0
  4  3  1  0
  5  4  2  0
  6  5  1  0
  6  7  1  0
  7  8  1  6
  9  7  1  0
  9 10  2  0
 11  5  1  0
 11 12  2  0
 12  2  1  0
 13  9  1  0
 14 13  1  0
 14 15  1  6
 16 15  1  0
 16 17  2  0
 18 17  1  0
 19 18  2  0
 20 21  2  0
 20 19  1  0
 21 16  1  0
 22 14  1  0
 23 22  2  0
 24 22  1  0
 25 24  1  0
 25 26  1  1
 26 27  1  0
 27 35  1  0
 28 27  2  0
 28 29  1  0
 29 30  1  0
 30 31  1  0
 31 32  2  0
 33 32  1  0
 34 33  2  0
 35 30  2  0
 35 34  1  0
 36 25  1  0
 37 36  2  0
 38 36  1  0
M  END
$$$$
