YFW.pdb
     RDKit          3D

 38 41  0  0  1  0  0  0  0  0999 V2000
   11.1761  -19.3856   13.4497 O   0  0  0  0  0  0  0  0  0  0  0  0
   10.6628  -18.5944   14.4775 C   0  0  0  0  0  0  0  0  0  0  0  0
    9.3624  -18.1204   14.4580 C   0  0  0  0  0  0  0  0  0  0  0  0
    8.8391  -17.3373   15.4653 C   0  0  0  0  0  0  0  0  0  0  0  0
    9.6155  -16.9938   16.5508 C   0  0  0  0  0  0  0  0  0  0  0  0
    9.1286  -16.1541   17.6766 C   0  0  0  0  0  0  0  0  0  0  0  0
    9.1922  -17.0001   18.9247 C   0  0  2  0  0  0  0  0  0  0  0  0
    8.1744  -18.0174   18.7986 N   0  0  0  0  0  0  0  0  0  0  0  0
    8.9419  -16.2263   20.1588 C   0  0  0  0  0  0  0  0  0  0  0  0
    8.2468  -15.1818   20.0704 O   0  0  0  0  0  0  0  0  0  0  0  0
   10.9146  -17.4616   16.5804 C   0  0  0  0  0  0  0  0  0  0  0  0
   11.4294  -18.2440   15.5688 C   0  0  0  0  0  0  0  0  0  0  0  0
    9.4611  -16.6300   21.4245 N   0  0  0  0  0  0  0  0  0  0  0  0
    9.1005  -15.8831   22.6011 C   0  0  1  0  0  0  0  0  0  0  0  0
    7.6231  -15.6733   22.7073 C   0  0  0  0  0  0  0  0  0  0  0  0
    7.3577  -14.7362   23.8229 C   0  0  0  0  0  0  0  0  0  0  0  0
    6.6195  -13.5797   23.6961 C   0  0  0  0  0  0  0  0  0  0  0  0
    6.4047  -12.7372   24.7862 C   0  0  0  0  0  0  0  0  0  0  0  0
    6.9408  -13.0657   26.0168 C   0  0  0  0  0  0  0  0  0  0  0  0
    7.6797  -14.2145   26.1632 C   0  0  0  0  0  0  0  0  0  0  0  0
    7.8752  -15.0295   25.0641 C   0  0  0  0  0  0  0  0  0  0  0  0
    9.7335  -16.4781   23.7892 C   0  0  0  0  0  0  0  0  0  0  0  0
    9.2247  -17.5079   24.2853 O   0  0  0  0  0  0  0  0  0  0  0  0
   10.8893  -15.9607   24.4153 N   0  0  0  0  0  0  0  0  0  0  0  0
   11.6864  -16.6919   25.3861 C   0  0  1  0  0  0  0  0  0  0  0  0
   10.8773  -17.1865   26.5352 C   0  0  0  0  0  0  0  0  0  0  0  0
    9.9902  -16.1034   27.0167 C   0  0  0  0  0  0  0  0  0  0  0  0
    8.7228  -15.7868   26.5317 C   0  0  0  0  0  0  0  0  0  0  0  0
    8.2822  -14.7416   27.2400 N   0  0  0  0  0  0  0  0  0  0  0  0
    9.2011  -14.3720   28.1537 C   0  0  0  0  0  0  0  0  0  0  0  0
    9.2217  -13.3653   29.1102 C   0  0  0  0  0  0  0  0  0  0  0  0
   10.3276  -13.2289   29.9200 C   0  0  0  0  0  0  0  0  0  0  0  0
   11.4228  -14.0551   29.8206 C   0  0  0  0  0  0  0  0  0  0  0  0
   11.3991  -15.0609   28.8632 C   0  0  0  0  0  0  0  0  0  0  0  0
   10.2919  -15.2071   28.0436 C   0  0  0  0  0  0  0  0  0  0  0  0
   12.3282  -17.8351   24.7055 C   0  0  0  0  0  0  0  0  0  0  0  0
   13.5322  -17.7662   24.3560 O   0  0  0  0  0  0  0  0  0  0  0  0
   11.6469  -19.0023   24.4316 O   0  0  0  0  0  0  0  0  0  0  0  0
  2  3  2  0
  2  1  1  0
  4  3  1  0
  5  4  2  0
  6  5  1  0
  6  7  1  0
  7  8  1  6
  9  7  1  0
  9 10  2  0
 11  5  1  0
 11 12  2  0
 12  2  1  0
 13  9  1  0
 14 13  1  0
 14 15  1  1
 16 15  1  0
 16 17  2  0
 18 17  1  0
 19 18  2  0
 20 21  2  0
 20 19  1  0
 21 16  1  0
 22 14  1  0
 23 22  2  0
 24 22  1  0
 25 24  1  0
 25 26  1  1
 26 27  1  0
 27 35  1  0
 28 27  2  0
 28 29  1  0
 29 30  1  0
 30 31  1  0
 31 32  2  0
 33 32  1  0
 34 33  2  0
 35 30  2  0
 35 34  1  0
 36 25  1  0
 37 36  2  0
 38 36  1  0
M  END
$$$$
