YFW.pdb
     RDKit          3D

 38 41  0  0  1  0  0  0  0  0999 V2000
   14.0491  -21.6111   14.9915 O   0  0  0  0  0  0  0  0  0  0  0  0
   13.7231  -20.6777   15.9756 C   0  0  0  0  0  0  0  0  0  0  0  0
   12.4817  -20.0672   16.0244 C   0  0  0  0  0  0  0  0  0  0  0  0
   12.1431  -19.1426   16.9898 C   0  0  0  0  0  0  0  0  0  0  0  0
   13.0543  -18.7889   17.9611 C   0  0  0  0  0  0  0  0  0  0  0  0
   12.7691  -17.8014   19.0351 C   0  0  0  0  0  0  0  0  0  0  0  0
   11.3085  -17.4367   18.9298 C   0  0  2  0  0  0  0  0  0  0  0  0
   11.1372  -16.7332   17.6799 N   0  0  0  0  0  0  0  0  0  0  0  0
   10.8511  -16.5660   20.0331 C   0  0  0  0  0  0  0  0  0  0  0  0
   11.3439  -15.4119   20.1181 O   0  0  0  0  0  0  0  0  0  0  0  0
   14.2961  -19.3922   17.9218 C   0  0  0  0  0  0  0  0  0  0  0  0
   14.6260  -20.3156   16.9528 C   0  0  0  0  0  0  0  0  0  0  0  0
    9.8810  -16.9969   20.9858 N   0  0  0  0  0  0  0  0  0  0  0  0
    9.4212  -16.0703   21.9869 C   0  0  1  0  0  0  0  0  0  0  0  0
    7.9549  -15.7962   21.8732 C   0  0  0  0  0  0  0  0  0  0  0  0
    7.7422  -14.7991   20.7991 C   0  0  0  0  0  0  0  0  0  0  0  0
    7.2797  -15.1127   19.5397 C   0  0  0  0  0  0  0  0  0  0  0  0
    7.1002  -14.1268   18.5702 C   0  0  0  0  0  0  0  0  0  0  0  0
    7.3906  -12.8108   18.8755 C   0  0  0  0  0  0  0  0  0  0  0  0
    7.8528  -12.4780   20.1256 C   0  0  0  0  0  0  0  0  0  0  0  0
    8.0205  -13.4776   21.0654 C   0  0  0  0  0  0  0  0  0  0  0  0
    9.8741  -16.5020   23.3191 C   0  0  0  0  0  0  0  0  0  0  0  0
   10.3195  -17.6637   23.4517 O   0  0  0  0  0  0  0  0  0  0  0  0
    9.8402  -15.6858   24.4716 N   0  0  0  0  0  0  0  0  0  0  0  0
   10.1878  -16.1455   25.8058 C   0  0  1  0  0  0  0  0  0  0  0  0
    9.8342  -15.1566   26.8624 C   0  0  0  0  0  0  0  0  0  0  0  0
    8.4410  -14.6973   26.6623 C   0  0  0  0  0  0  0  0  0  0  0  0
    7.3630  -15.4685   26.2324 C   0  0  0  0  0  0  0  0  0  0  0  0
    6.2988  -14.6603   26.1812 N   0  0  0  0  0  0  0  0  0  0  0  0
    6.6387  -13.4114   26.5560 C   0  0  0  0  0  0  0  0  0  0  0  0
    5.9104  -12.2342   26.6691 C   0  0  0  0  0  0  0  0  0  0  0  0
    6.5469  -11.0865   27.0871 C   0  0  0  0  0  0  0  0  0  0  0  0
    7.8859  -11.0563   27.4004 C   0  0  0  0  0  0  0  0  0  0  0  0
    8.6115  -12.2350   27.2863 C   0  0  0  0  0  0  0  0  0  0  0  0
    7.9813  -13.3951   26.8668 C   0  0  0  0  0  0  0  0  0  0  0  0
    9.4844  -17.4183   26.0653 C   0  0  0  0  0  0  0  0  0  0  0  0
    9.7716  -18.1027   27.0780 O   0  0  0  0  0  0  0  0  0  0  0  0
    8.5026  -17.8984   25.2244 O   0  0  0  0  0  0  0  0  0  0  0  0
  2  3  2  0
  2  1  1  0
  4  3  1  0
  5  4  2  0
  6  5  1  0
  6  7  1  0
  7  8  1  6
  9  7  1  0
  9 10  2  0
 11  5  1  0
 11 12  2  0
 12  2  1  0
 13  9  1  0
 14 13  1  0
 14 15  1  1
 16 15  1  0
 16 17  2  0
 18 17  1  0
 19 18  2  0
 20 21  2  0
 20 19  1  0
 21 16  1  0
 22 14  1  0
 23 22  2  0
 24 22  1  0
 25 24  1  0
 25 26  1  1
 26 27  1  0
 27 35  1  0
 28 27  2  0
 28 29  1  0
 29 30  1  0
 30 31  1  0
 31 32  2  0
 33 32  1  0
 34 33  2  0
 35 30  2  0
 35 34  1  0
 36 25  1  0
 37 36  2  0
 38 36  1  0
M  END
$$$$
