KMS.pdb
     RDKit          3D

 24 23  0  0  1  0  0  0  0  0999 V2000
   20.8880  -12.8226  -19.5501 N   0  0  0  0  0  0  0  0  0  0  0  0
   20.1620  -12.0941  -18.5465 C   0  0  1  0  0  0  0  0  0  0  0  0
   19.0294  -12.8038  -17.9151 C   0  0  0  0  0  0  0  0  0  0  0  0
   18.7429  -14.1890  -18.4114 C   0  0  0  0  0  0  0  0  0  0  0  0
   17.5771  -14.8672  -17.7696 C   0  0  0  0  0  0  0  0  0  0  0  0
   17.4896  -16.2925  -18.3509 C   0  0  0  0  0  0  0  0  0  0  0  0
   16.5002  -17.0643  -17.6263 N   0  0  0  0  0  0  0  0  0  0  0  0
   21.1357  -11.5349  -17.5639 C   0  0  0  0  0  0  0  0  0  0  0  0
   21.7776  -12.3510  -16.8832 O   0  0  0  0  0  0  0  0  0  0  0  0
   26.9749   -9.9393  -14.2566 C   0  0  0  0  0  0  0  0  0  0  0  0
   25.6187  -10.6309  -15.2178 S   0  0  0  0  0  0  0  0  0  0  0  0
   24.8987   -9.3779  -16.3519 C   0  0  0  0  0  0  0  0  0  0  0  0
   23.7924  -10.0611  -17.0947 C   0  0  0  0  0  0  0  0  0  0  0  0
   22.4198   -9.5176  -16.7333 C   0  0  2  0  0  0  0  0  0  0  0  0
   21.3370  -10.1557  -17.3959 N   0  0  0  0  0  0  0  0  0  0  0  0
   22.3494   -8.0487  -16.7297 C   0  0  0  0  0  0  0  0  0  0  0  0
   22.6510   -7.4025  -17.7849 O   0  0  0  0  0  0  0  0  0  0  0  0
   19.7641   -6.1300  -14.4868 O   0  0  0  0  0  0  0  0  0  0  0  0
   20.3880   -5.4283  -15.5175 C   0  0  0  0  0  0  0  0  0  0  0  0
   21.8354   -5.8686  -15.5758 C   0  0  2  0  0  0  0  0  0  0  0  0
   21.9615   -7.3061  -15.6089 N   0  0  0  0  0  0  0  0  0  0  0  0
   22.5242   -5.3689  -14.3636 C   0  0  0  0  0  0  0  0  0  0  0  0
   22.6156   -3.9839  -14.1290 O   0  0  0  0  0  0  0  0  0  0  0  0
   23.0536   -6.1063  -13.4949 O   0  0  0  0  0  0  0  0  0  0  0  0
  2  1  1  6
  2  3  1  0
  4  5  1  0
  4  3  1  0
  5  6  1  0
  6  7  1  0
  8  2  1  0
  8  9  2  0
 10 11  1  0
 11 12  1  0
 13 12  1  0
 14 13  1  6
 14 15  1  0
 15  8  1  0
 16 14  1  0
 17 16  2  0
 19 18  1  0
 20 19  1  1
 20 21  1  0
 20 22  1  0
 21 16  1  0
 22 23  1  0
 24 22  2  0
M  END
$$$$
