KMS.pdb
     RDKit          3D

 24 23  0  0  1  0  0  0  0  0999 V2000
   17.1050  -11.2931  -11.4246 N   0  0  0  0  0  0  0  0  0  0  0  0
   16.8643  -10.3922  -12.5180 C   0  0  1  0  0  0  0  0  0  0  0  0
   16.1892  -10.9663  -13.7011 C   0  0  0  0  0  0  0  0  0  0  0  0
   16.8018  -12.2001  -14.2922 C   0  0  0  0  0  0  0  0  0  0  0  0
   17.9335  -11.9596  -15.2370 C   0  0  0  0  0  0  0  0  0  0  0  0
   18.3320  -13.3204  -15.8424 C   0  0  0  0  0  0  0  0  0  0  0  0
   19.4601  -13.1547  -16.7367 N   0  0  0  0  0  0  0  0  0  0  0  0
   16.1979   -9.1664  -11.9893 C   0  0  0  0  0  0  0  0  0  0  0  0
   15.8311   -8.3229  -12.8232 O   0  0  0  0  0  0  0  0  0  0  0  0
   11.2870   -6.7534   -6.3479 C   0  0  0  0  0  0  0  0  0  0  0  0
   12.4025   -7.9797   -7.0504 S   0  0  0  0  0  0  0  0  0  0  0  0
   13.4407   -7.2522   -8.3799 C   0  0  0  0  0  0  0  0  0  0  0  0
   14.3235   -8.3528   -8.8817 C   0  0  0  0  0  0  0  0  0  0  0  0
   15.2279   -7.9072  -10.0190 C   0  0  2  0  0  0  0  0  0  0  0  0
   15.9829   -8.9507  -10.6187 N   0  0  0  0  0  0  0  0  0  0  0  0
   16.0017   -6.6938   -9.7164 C   0  0  0  0  0  0  0  0  0  0  0  0
   17.0011   -6.7656   -8.9301 O   0  0  0  0  0  0  0  0  0  0  0  0
   17.5246   -2.3745  -10.9892 O   0  0  0  0  0  0  0  0  0  0  0  0
   16.7795   -3.5090  -11.3082 C   0  0  0  0  0  0  0  0  0  0  0  0
   16.4531   -4.2335  -10.0195 C   0  0  2  0  0  0  0  0  0  0  0  0
   15.6953   -5.4392  -10.2550 N   0  0  0  0  0  0  0  0  0  0  0  0
   15.6411   -3.3320   -9.1702 C   0  0  0  0  0  0  0  0  0  0  0  0
   16.2566   -2.2618   -8.4938 O   0  0  0  0  0  0  0  0  0  0  0  0
   14.4019   -3.4475   -8.9969 O   0  0  0  0  0  0  0  0  0  0  0  0
  2  1  1  1
  2  3  1  0
  4  5  1  0
  4  3  1  0
  5  6  1  0
  6  7  1  0
  8  2  1  0
  8  9  2  0
 10 11  1  0
 11 12  1  0
 13 12  1  0
 14 13  1  1
 14 15  1  0
 15  8  1  0
 16 14  1  0
 17 16  2  0
 19 18  1  0
 20 19  1  6
 20 21  1  0
 20 22  1  0
 21 16  1  0
 22 23  1  0
 24 22  2  0
M  END
$$$$
