KMS.pdb
     RDKit          3D

 24 23  0  0  1  0  0  0  0  0999 V2000
   21.0626  -13.2199  -18.9001 N   0  0  0  0  0  0  0  0  0  0  0  0
   20.1252  -13.0636  -17.8222 C   0  0  1  0  0  0  0  0  0  0  0  0
   19.6898  -14.3058  -17.1496 C   0  0  0  0  0  0  0  0  0  0  0  0
   19.8241  -15.5771  -17.9326 C   0  0  0  0  0  0  0  0  0  0  0  0
   18.5456  -16.3061  -18.1877 C   0  0  0  0  0  0  0  0  0  0  0  0
   18.8724  -17.5218  -19.0779 C   0  0  0  0  0  0  0  0  0  0  0  0
   17.6625  -18.2652  -19.3667 N   0  0  0  0  0  0  0  0  0  0  0  0
   20.6468  -12.0294  -16.8817 C   0  0  0  0  0  0  0  0  0  0  0  0
   19.9193  -11.7245  -15.9229 O   0  0  0  0  0  0  0  0  0  0  0  0
   26.7467  -11.2404  -15.0692 C   0  0  0  0  0  0  0  0  0  0  0  0
   26.3067   -9.4994  -15.1994 S   0  0  0  0  0  0  0  0  0  0  0  0
   24.4851   -9.2767  -15.2824 C   0  0  0  0  0  0  0  0  0  0  0  0
   23.9539  -10.4121  -16.1016 C   0  0  0  0  0  0  0  0  0  0  0  0
   22.4453  -10.3535  -16.2772 C   0  0  2  0  0  0  0  0  0  0  0  0
   21.8973  -11.4134  -17.0486 N   0  0  0  0  0  0  0  0  0  0  0  0
   21.9449   -9.0182  -16.6371 C   0  0  0  0  0  0  0  0  0  0  0  0
   22.0737   -8.6002  -17.8332 O   0  0  0  0  0  0  0  0  0  0  0  0
   18.6161   -7.6849  -15.5172 O   0  0  0  0  0  0  0  0  0  0  0  0
   19.4751   -6.6098  -15.2928 C   0  0  0  0  0  0  0  0  0  0  0  0
   20.7629   -6.8735  -16.0442 C   0  0  2  0  0  0  0  0  0  0  0  0
   21.3225   -8.1640  -15.7201 N   0  0  0  0  0  0  0  0  0  0  0  0
   21.7455   -5.8320  -15.6657 C   0  0  0  0  0  0  0  0  0  0  0  0
   21.4392   -4.4725  -15.8654 O   0  0  0  0  0  0  0  0  0  0  0  0
   22.8719   -6.0701  -15.1625 O   0  0  0  0  0  0  0  0  0  0  0  0
  2  1  1  6
  2  3  1  0
  4  5  1  0
  4  3  1  0
  5  6  1  0
  6  7  1  0
  8  2  1  0
  8  9  2  0
 10 11  1  0
 11 12  1  0
 13 12  1  0
 14 13  1  6
 14 15  1  0
 15  8  1  0
 16 14  1  0
 17 16  2  0
 19 18  1  0
 20 19  1  1
 20 21  1  0
 20 22  1  0
 21 16  1  0
 22 23  1  0
 24 22  2  0
M  END
$$$$
