KMS.pdb
     RDKit          3D

 24 23  0  0  1  0  0  0  0  0999 V2000
   20.4540  -13.3404  -17.6251 N   0  0  0  0  0  0  0  0  0  0  0  0
   20.9433  -12.1234  -18.2120 C   0  0  1  0  0  0  0  0  0  0  0  0
   19.9624  -11.3280  -18.9802 C   0  0  0  0  0  0  0  0  0  0  0  0
   19.3297  -11.9995  -20.1617 C   0  0  0  0  0  0  0  0  0  0  0  0
   18.1765  -12.8940  -19.8439 C   0  0  0  0  0  0  0  0  0  0  0  0
   17.6857  -13.5098  -21.1694 C   0  0  0  0  0  0  0  0  0  0  0  0
   16.5318  -14.3525  -20.9282 N   0  0  0  0  0  0  0  0  0  0  0  0
   21.6535  -11.3379  -17.1609 C   0  0  0  0  0  0  0  0  0  0  0  0
   21.0514  -11.1607  -16.0896 O   0  0  0  0  0  0  0  0  0  0  0  0
   27.4586  -11.9995  -14.6344 C   0  0  0  0  0  0  0  0  0  0  0  0
   27.5620  -10.2762  -15.1453 S   0  0  0  0  0  0  0  0  0  0  0  0
   25.8914   -9.5356  -15.3341 C   0  0  0  0  0  0  0  0  0  0  0  0
   25.1511  -10.3973  -16.3097 C   0  0  0  0  0  0  0  0  0  0  0  0
   23.6861  -10.0134  -16.4376 C   0  0  2  0  0  0  0  0  0  0  0  0
   22.9419  -10.8121  -17.3471 N   0  0  0  0  0  0  0  0  0  0  0  0
   23.4658   -8.5663  -16.5788 C   0  0  0  0  0  0  0  0  0  0  0  0
   23.9065   -7.9611  -17.6091 O   0  0  0  0  0  0  0  0  0  0  0  0
   20.2173   -6.9802  -15.9130 O   0  0  0  0  0  0  0  0  0  0  0  0
   21.1854   -6.1509  -16.4780 C   0  0  0  0  0  0  0  0  0  0  0  0
   22.4923   -6.3939  -15.7532 C   0  0  2  0  0  0  0  0  0  0  0  0
   22.7850   -7.8015  -15.6250 N   0  0  0  0  0  0  0  0  0  0  0  0
   22.3866   -5.8149  -14.3941 C   0  0  0  0  0  0  0  0  0  0  0  0
   22.2157   -4.4268  -14.2339 O   0  0  0  0  0  0  0  0  0  0  0  0
   22.4389   -6.4851  -13.3326 O   0  0  0  0  0  0  0  0  0  0  0  0
  2  1  1  1
  2  3  1  0
  4  5  1  0
  4  3  1  0
  5  6  1  0
  6  7  1  0
  8  2  1  0
  8  9  2  0
 10 11  1  0
 11 12  1  0
 13 12  1  0
 14 13  1  6
 14 15  1  0
 15  8  1  0
 16 14  1  0
 17 16  2  0
 19 18  1  0
 20 19  1  1
 20 21  1  0
 20 22  1  0
 21 16  1  0
 22 23  1  0
 24 22  2  0
M  END
$$$$
