KMS.pdb
     RDKit          3D

 24 23  0  0  1  0  0  0  0  0999 V2000
   21.4218  -12.3819  -19.4806 N   0  0  0  0  0  0  0  0  0  0  0  0
   20.8549  -11.0738  -19.3002 C   0  0  1  0  0  0  0  0  0  0  0  0
   19.3802  -11.0056  -19.2239 C   0  0  0  0  0  0  0  0  0  0  0  0
   18.6185  -11.6432  -20.3465 C   0  0  0  0  0  0  0  0  0  0  0  0
   17.1384  -11.4464  -20.3046 C   0  0  0  0  0  0  0  0  0  0  0  0
   16.5348  -12.1942  -21.5102 C   0  0  0  0  0  0  0  0  0  0  0  0
   17.0699  -11.6578  -22.7455 N   0  0  0  0  0  0  0  0  0  0  0  0
   21.5413  -10.4096  -18.1540 C   0  0  0  0  0  0  0  0  0  0  0  0
   21.0845  -10.6318  -17.0210 O   0  0  0  0  0  0  0  0  0  0  0  0
   26.8709  -10.5166  -14.3291 C   0  0  0  0  0  0  0  0  0  0  0  0
   25.3574   -9.6027  -14.6695 S   0  0  0  0  0  0  0  0  0  0  0  0
   25.5567   -8.5026  -16.1271 C   0  0  0  0  0  0  0  0  0  0  0  0
   24.8600   -9.1768  -17.2684 C   0  0  0  0  0  0  0  0  0  0  0  0
   23.3701   -8.8789  -17.3047 C   0  0  2  0  0  0  0  0  0  0  0  0
   22.6530   -9.5683  -18.3193 N   0  0  0  0  0  0  0  0  0  0  0  0
   23.0523   -7.4467  -17.2023 C   0  0  0  0  0  0  0  0  0  0  0  0
   23.3329   -6.6698  -18.1717 O   0  0  0  0  0  0  0  0  0  0  0  0
   20.4329   -3.9473  -15.2833 O   0  0  0  0  0  0  0  0  0  0  0  0
   20.6695   -5.3119  -15.4439 C   0  0  0  0  0  0  0  0  0  0  0  0
   22.0864   -5.4863  -15.9484 C   0  0  2  0  0  0  0  0  0  0  0  0
   22.4466   -6.8782  -16.0763 N   0  0  0  0  0  0  0  0  0  0  0  0
   23.0086   -4.8544  -14.9768 C   0  0  0  0  0  0  0  0  0  0  0  0
   23.3656   -5.5397  -13.8001 O   0  0  0  0  0  0  0  0  0  0  0  0
   23.5177   -3.7148  -15.1213 O   0  0  0  0  0  0  0  0  0  0  0  0
  2  1  1  1
  2  3  1  0
  4  5  1  0
  4  3  1  0
  5  6  1  0
  6  7  1  0
  8  2  1  0
  8  9  2  0
 10 11  1  0
 11 12  1  0
 13 12  1  0
 14 13  1  6
 14 15  1  0
 15  8  1  0
 16 14  1  0
 17 16  2  0
 19 18  1  0
 20 19  1  1
 20 21  1  0
 20 22  1  0
 21 16  1  0
 22 23  1  0
 24 22  2  0
M  END
$$$$
