KMS.pdb
     RDKit          3D

 24 23  0  0  1  0  0  0  0  0999 V2000
   18.3910  -25.9665   -5.9135 N   0  0  0  0  0  0  0  0  0  0  0  0
   17.7453  -25.6196   -4.6775 C   0  0  1  0  0  0  0  0  0  0  0  0
   16.2719  -25.5084   -4.7188 C   0  0  0  0  0  0  0  0  0  0  0  0
   15.7026  -24.4391   -5.6017 C   0  0  0  0  0  0  0  0  0  0  0  0
   14.2143  -24.4430   -5.7283 C   0  0  0  0  0  0  0  0  0  0  0  0
   13.8358  -23.4069   -6.8054 C   0  0  0  0  0  0  0  0  0  0  0  0
   12.4036  -23.4203   -7.0257 N   0  0  0  0  0  0  0  0  0  0  0  0
   18.2434  -26.5308   -3.6061 C   0  0  0  0  0  0  0  0  0  0  0  0
   18.7088  -27.6229   -3.9696 O   0  0  0  0  0  0  0  0  0  0  0  0
   21.4546  -26.5427    3.6264 C   0  0  0  0  0  0  0  0  0  0  0  0
   20.7551  -25.6959    2.1999 S   0  0  0  0  0  0  0  0  0  0  0  0
   19.9400  -26.8796    1.0556 C   0  0  0  0  0  0  0  0  0  0  0  0
   19.3920  -26.0683   -0.0775 C   0  0  0  0  0  0  0  0  0  0  0  0
   18.7544  -26.9257   -1.1584 C   0  0  2  0  0  0  0  0  0  0  0  0
   18.2001  -26.1950   -2.2436 N   0  0  0  0  0  0  0  0  0  0  0  0
   17.8826  -27.9866   -0.6318 C   0  0  0  0  0  0  0  0  0  0  0  0
   16.6515  -27.7401   -0.4182 O   0  0  0  0  0  0  0  0  0  0  0  0
   18.6230  -32.0201   -1.0487 O   0  0  0  0  0  0  0  0  0  0  0  0
   18.2752  -31.6549    0.2512 C   0  0  0  0  0  0  0  0  0  0  0  0
   17.5224  -30.3430    0.1845 C   0  0  2  0  0  0  0  0  0  0  0  0
   18.3394  -29.2781   -0.3466 N   0  0  0  0  0  0  0  0  0  0  0  0
   17.1091  -29.9719    1.5574 C   0  0  0  0  0  0  0  0  0  0  0  0
   15.8408  -30.3521    2.0354 O   0  0  0  0  0  0  0  0  0  0  0  0
   17.8234  -29.3216    2.3609 O   0  0  0  0  0  0  0  0  0  0  0  0
  2  1  1  6
  2  3  1  0
  4  5  1  0
  4  3  1  0
  5  6  1  0
  6  7  1  0
  8  2  1  0
  8  9  2  0
 10 11  1  0
 11 12  1  0
 13 12  1  0
 14 13  1  1
 14 15  1  0
 15  8  1  0
 16 14  1  0
 17 16  2  0
 19 18  1  0
 20 19  1  1
 20 21  1  0
 20 22  1  0
 21 16  1  0
 22 23  1  0
 24 22  2  0
M  END
$$$$
