KMS.pdb
     RDKit          3D

 24 23  0  0  1  0  0  0  0  0999 V2000
   28.5772  -21.7631  -16.1856 N   0  0  0  0  0  0  0  0  0  0  0  0
   27.8921  -20.6722  -15.5488 C   0  0  1  0  0  0  0  0  0  0  0  0
   27.4101  -19.5947  -16.4386 C   0  0  0  0  0  0  0  0  0  0  0  0
   28.4433  -18.8975  -17.2713 C   0  0  0  0  0  0  0  0  0  0  0  0
   27.9367  -17.7564  -18.0913 C   0  0  0  0  0  0  0  0  0  0  0  0
   29.1451  -17.1320  -18.8172 C   0  0  0  0  0  0  0  0  0  0  0  0
   28.7166  -15.9950  -19.6069 N   0  0  0  0  0  0  0  0  0  0  0  0
   26.8311  -21.2284  -14.6594 C   0  0  0  0  0  0  0  0  0  0  0  0
   26.3270  -22.3118  -14.9966 O   0  0  0  0  0  0  0  0  0  0  0  0
   26.7825  -20.0650   -8.4880 C   0  0  0  0  0  0  0  0  0  0  0  0
   25.1353  -20.7916   -8.5031 S   0  0  0  0  0  0  0  0  0  0  0  0
   24.5615  -21.1065  -10.2196 C   0  0  0  0  0  0  0  0  0  0  0  0
   25.7003  -20.7456  -11.1226 C   0  0  0  0  0  0  0  0  0  0  0  0
   25.3928  -21.0070  -12.5879 C   0  0  2  0  0  0  0  0  0  0  0  0
   26.4032  -20.5790  -13.4905 N   0  0  0  0  0  0  0  0  0  0  0  0
   24.0271  -20.6282  -12.9806 C   0  0  0  0  0  0  0  0  0  0  0  0
   23.7228  -19.3961  -13.0875 O   0  0  0  0  0  0  0  0  0  0  0  0
   21.9221  -22.3566  -15.7176 O   0  0  0  0  0  0  0  0  0  0  0  0
   21.1015  -22.2811  -14.5929 C   0  0  0  0  0  0  0  0  0  0  0  0
   21.6786  -21.2373  -13.6603 C   0  0  2  0  0  0  0  0  0  0  0  0
   23.0228  -21.5649  -13.2490 N   0  0  0  0  0  0  0  0  0  0  0  0
   20.8257  -21.1692  -12.4514 C   0  0  0  0  0  0  0  0  0  0  0  0
   19.5238  -20.6411  -12.5399 O   0  0  0  0  0  0  0  0  0  0  0  0
   21.1812  -21.5582  -11.3107 O   0  0  0  0  0  0  0  0  0  0  0  0
  2  1  1  6
  2  3  1  0
  4  5  1  0
  4  3  1  0
  5  6  1  0
  6  7  1  0
  8  2  1  0
  8  9  2  0
 10 11  1  0
 11 12  1  0
 13 12  1  0
 14 13  1  1
 14 15  1  0
 15  8  1  0
 16 14  1  0
 17 16  2  0
 19 18  1  0
 20 19  1  6
 20 21  1  0
 20 22  1  0
 21 16  1  0
 22 23  1  0
 24 22  2  0
M  END
$$$$
