HVY.pdb
     RDKit          3D

 30 31  0  0  1  0  0  0  0  0999 V2000
   23.6871  -13.3539  -19.4557 N   0  0  0  0  0  0  0  0  0  0  0  0
   23.8269  -11.9288  -19.5253 C   0  0  1  0  0  0  0  0  0  0  0  0
   22.7874  -11.3809  -20.4893 C   0  0  0  0  0  0  0  0  0  0  0  0
   23.0077  -11.9071  -21.8633 C   0  0  0  0  0  0  0  0  0  0  0  0
   23.9310  -11.4602  -22.7869 C   0  0  0  0  0  0  0  0  0  0  0  0
   23.7994  -12.1980  -23.9000 N   0  0  0  0  0  0  0  0  0  0  0  0
   22.8056  -13.1027  -23.6862 C   0  0  0  0  0  0  0  0  0  0  0  0
   22.3387  -12.9117  -22.4505 N   0  0  0  0  0  0  0  0  0  0  0  0
   23.5547  -11.3431  -18.1522 C   0  0  0  0  0  0  0  0  0  0  0  0
   22.4019  -11.3443  -17.6945 O   0  0  0  0  0  0  0  0  0  0  0  0
   27.1248   -9.9415  -15.6218 C   0  0  0  0  0  0  0  0  0  0  0  0
   25.7876  -10.5351  -15.2460 C   0  0  2  0  0  0  0  0  0  0  0  0
   25.9724  -12.0025  -15.0529 C   0  0  0  0  0  0  0  0  0  0  0  0
   24.6653  -10.1594  -16.1595 C   0  0  2  0  0  0  0  0  0  0  0  0
   24.6276  -10.8102  -17.4276 N   0  0  0  0  0  0  0  0  0  0  0  0
   24.3497   -8.7218  -16.1957 C   0  0  0  0  0  0  0  0  0  0  0  0
   25.0485   -7.9576  -16.9057 O   0  0  0  0  0  0  0  0  0  0  0  0
   21.7279   -0.6983  -17.1756 O   0  0  0  0  0  0  0  0  0  0  0  0
   21.9530   -2.0727  -17.1442 C   0  0  0  0  0  0  0  0  0  0  0  0
   20.9489   -3.0027  -17.2588 C   0  0  0  0  0  0  0  0  0  0  0  0
   21.2238   -4.3438  -17.2223 C   0  0  0  0  0  0  0  0  0  0  0  0
   22.5251   -4.8336  -17.0678 C   0  0  0  0  0  0  0  0  0  0  0  0
   22.8149   -6.2817  -17.0107 C   0  0  0  0  0  0  0  0  0  0  0  0
   22.9889   -6.6913  -15.5759 C   0  0  2  0  0  0  0  0  0  0  0  0
   23.2957   -8.1253  -15.4751 N   0  0  0  0  0  0  0  0  0  0  0  0
   21.8532   -6.3290  -14.7300 C   0  0  0  0  0  0  0  0  0  0  0  0
   21.8569   -5.0399  -14.1481 O   0  0  0  0  0  0  0  0  0  0  0  0
   23.5149   -3.8867  -16.9547 C   0  0  0  0  0  0  0  0  0  0  0  0
   23.2449   -2.5211  -16.9910 C   0  0  0  0  0  0  0  0  0  0  0  0
   20.8627   -7.0346  -14.4536 O   0  0  0  0  0  0  0  0  0  0  0  0
  2  1  1  1
  2  3  1  0
  4  3  1  0
  4  5  2  0
  6  5  1  0
  7  6  1  0
  8  7  2  0
  8  4  1  0
  9  2  1  0
 10  9  2  0
 12 11  1  6
 12 13  1  0
 12 14  1  0
 14 15  1  6
 15  9  1  0
 16 17  2  0
 16 14  1  0
 18 19  1  0
 19 29  2  0
 20 21  2  0
 20 19  1  0
 21 22  1  0
 22 23  1  0
 22 28  2  0
 24 23  1  6
 24 25  1  0
 25 16  1  0
 26 24  1  0
 27 26  1  0
 29 28  1  0
 30 26  2  0
M  END
$$$$
