HVY.pdb
     RDKit          3D

 30 31  0  0  1  0  0  0  0  0999 V2000
   23.9290  -17.9773  -16.8369 N   0  0  0  0  0  0  0  0  0  0  0  0
   24.8589  -18.6838  -16.0055 C   0  0  1  0  0  0  0  0  0  0  0  0
   26.1860  -17.9431  -16.0151 C   0  0  0  0  0  0  0  0  0  0  0  0
   26.8332  -18.0304  -17.3517 C   0  0  0  0  0  0  0  0  0  0  0  0
   27.6651  -19.0325  -17.8091 C   0  0  0  0  0  0  0  0  0  0  0  0
   28.0364  -18.7280  -19.0622 N   0  0  0  0  0  0  0  0  0  0  0  0
   27.4475  -17.5478  -19.3970 C   0  0  0  0  0  0  0  0  0  0  0  0
   26.7247  -17.1411  -18.3512 N   0  0  0  0  0  0  0  0  0  0  0  0
   24.3326  -18.6941  -14.5822 C   0  0  0  0  0  0  0  0  0  0  0  0
   23.7871  -17.6828  -14.1152 O   0  0  0  0  0  0  0  0  0  0  0  0
   22.0412  -21.1143  -11.1562 C   0  0  0  0  0  0  0  0  0  0  0  0
   22.6065  -20.8721  -12.5359 C   0  0  2  0  0  0  0  0  0  0  0  0
   22.5280  -22.1521  -13.2974 C   0  0  0  0  0  0  0  0  0  0  0  0
   23.9503  -20.2170  -12.5476 C   0  0  2  0  0  0  0  0  0  0  0  0
   24.4777  -19.8619  -13.8237 N   0  0  0  0  0  0  0  0  0  0  0  0
   24.9314  -20.7974  -11.6158 C   0  0  0  0  0  0  0  0  0  0  0  0
   25.6204  -21.7806  -11.9837 O   0  0  0  0  0  0  0  0  0  0  0  0
   28.7244  -18.4715   -4.2151 O   0  0  0  0  0  0  0  0  0  0  0  0
   28.3862  -18.9103   -5.4932 C   0  0  0  0  0  0  0  0  0  0  0  0
   27.5244  -18.2307   -6.3189 C   0  0  0  0  0  0  0  0  0  0  0  0
   27.2250  -18.7052   -7.5682 C   0  0  0  0  0  0  0  0  0  0  0  0
   27.7730  -19.8925   -8.0651 C   0  0  0  0  0  0  0  0  0  0  0  0
   27.4330  -20.4102   -9.4070 C   0  0  0  0  0  0  0  0  0  0  0  0
   26.0552  -21.0075   -9.3681 C   0  0  2  0  0  0  0  0  0  0  0  0
   25.1604  -20.3196  -10.3099 N   0  0  0  0  0  0  0  0  0  0  0  0
   25.4820  -21.0507   -8.0242 C   0  0  0  0  0  0  0  0  0  0  0  0
   26.0633  -21.9440   -7.0944 O   0  0  0  0  0  0  0  0  0  0  0  0
   28.6325  -20.5571   -7.2232 C   0  0  0  0  0  0  0  0  0  0  0  0
   28.9429  -20.0822   -5.9516 C   0  0  0  0  0  0  0  0  0  0  0  0
   24.5225  -20.3820   -7.5911 O   0  0  0  0  0  0  0  0  0  0  0  0
  2  1  1  6
  2  3  1  0
  4  3  1  0
  4  5  2  0
  6  5  1  0
  7  6  1  0
  8  7  2  0
  8  4  1  0
  9  2  1  0
 10  9  2  0
 12 11  1  1
 12 13  1  0
 12 14  1  0
 14 15  1  6
 15  9  1  0
 16 17  2  0
 16 14  1  0
 18 19  1  0
 19 29  2  0
 20 21  2  0
 20 19  1  0
 21 22  1  0
 22 23  1  0
 22 28  2  0
 24 23  1  1
 24 25  1  0
 25 16  1  0
 26 24  1  0
 27 26  1  0
 29 28  1  0
 30 26  2  0
M  END
$$$$
