HVY.pdb
     RDKit          3D

 30 31  0  0  1  0  0  0  0  0999 V2000
   22.8114  -13.2043  -19.3593 N   0  0  0  0  0  0  0  0  0  0  0  0
   22.7089  -13.5799  -17.9796 C   0  0  1  0  0  0  0  0  0  0  0  0
   21.2642  -13.4220  -17.5346 C   0  0  0  0  0  0  0  0  0  0  0  0
   20.8693  -11.9879  -17.5118 C   0  0  0  0  0  0  0  0  0  0  0  0
   21.3172  -11.0157  -16.6403 C   0  0  0  0  0  0  0  0  0  0  0  0
   20.7121   -9.8603  -16.9562 N   0  0  0  0  0  0  0  0  0  0  0  0
   19.8906  -10.0953  -18.0153 C   0  0  0  0  0  0  0  0  0  0  0  0
   19.9984  -11.3862  -18.3370 N   0  0  0  0  0  0  0  0  0  0  0  0
   23.0899  -15.0422  -17.8412 C   0  0  0  0  0  0  0  0  0  0  0  0
   22.6832  -15.8704  -18.6701 O   0  0  0  0  0  0  0  0  0  0  0  0
   26.4629  -16.1387  -15.0437 C   0  0  0  0  0  0  0  0  0  0  0  0
   25.8719  -16.8464  -16.2403 C   0  0  2  0  0  0  0  0  0  0  0  0
   26.6501  -16.4410  -17.4464 C   0  0  0  0  0  0  0  0  0  0  0  0
   24.3897  -16.7040  -16.3734 C   0  0  2  0  0  0  0  0  0  0  0  0
   23.9030  -15.4229  -16.7669 N   0  0  0  0  0  0  0  0  0  0  0  0
   23.6058  -17.3618  -15.3150 C   0  0  0  0  0  0  0  0  0  0  0  0
   23.4711  -16.7899  -14.2053 O   0  0  0  0  0  0  0  0  0  0  0  0
   17.2673  -17.8418  -18.2524 O   0  0  0  0  0  0  0  0  0  0  0  0
   18.2097  -17.8960  -17.2280 C   0  0  0  0  0  0  0  0  0  0  0  0
   19.2420  -16.9982  -17.1064 C   0  0  0  0  0  0  0  0  0  0  0  0
   20.1424  -17.0954  -16.0792 C   0  0  0  0  0  0  0  0  0  0  0  0
   20.0616  -18.1014  -15.1105 C   0  0  0  0  0  0  0  0  0  0  0  0
   21.0462  -18.2132  -14.0139 C   0  0  0  0  0  0  0  0  0  0  0  0
   22.1177  -19.1873  -14.4138 C   0  0  2  0  0  0  0  0  0  0  0  0
   22.9799  -18.6164  -15.4583 N   0  0  0  0  0  0  0  0  0  0  0  0
   21.5928  -20.4924  -14.8111 C   0  0  0  0  0  0  0  0  0  0  0  0
   20.8033  -21.1932  -13.8699 O   0  0  0  0  0  0  0  0  0  0  0  0
   19.0219  -18.9894  -15.2504 C   0  0  0  0  0  0  0  0  0  0  0  0
   18.1015  -18.8982  -16.2914 C   0  0  0  0  0  0  0  0  0  0  0  0
   21.7621  -21.0737  -15.9014 O   0  0  0  0  0  0  0  0  0  0  0  0
  2  1  1  6
  2  3  1  0
  4  3  1  0
  4  5  2  0
  6  5  1  0
  7  6  1  0
  8  7  2  0
  8  4  1  0
  9  2  1  0
 10  9  2  0
 12 11  1  1
 12 13  1  0
 12 14  1  0
 14 15  1  1
 15  9  1  0
 16 17  2  0
 16 14  1  0
 18 19  1  0
 19 29  2  0
 20 21  2  0
 20 19  1  0
 21 22  1  0
 22 23  1  0
 22 28  2  0
 24 23  1  6
 24 25  1  0
 25 16  1  0
 26 24  1  0
 27 26  1  0
 29 28  1  0
 30 26  2  0
M  END
$$$$
