HVY.pdb
     RDKit          3D

 30 31  0  0  1  0  0  0  0  0999 V2000
   23.8665  -12.9576  -17.9459 N   0  0  0  0  0  0  0  0  0  0  0  0
   23.9698  -12.0115  -16.8738 C   0  0  1  0  0  0  0  0  0  0  0  0
   25.4232  -11.5910  -16.7295 C   0  0  0  0  0  0  0  0  0  0  0  0
   26.2860  -12.7614  -16.4151 C   0  0  0  0  0  0  0  0  0  0  0  0
   26.2445  -13.5439  -15.2787 C   0  0  0  0  0  0  0  0  0  0  0  0
   27.1912  -14.4887  -15.3870 N   0  0  0  0  0  0  0  0  0  0  0  0
   27.8259  -14.3093  -16.5773 C   0  0  0  0  0  0  0  0  0  0  0  0
   27.2658  -13.2609  -17.1846 N   0  0  0  0  0  0  0  0  0  0  0  0
   23.1537  -10.7817  -17.2264 C   0  0  0  0  0  0  0  0  0  0  0  0
   23.2502  -10.2757  -18.3547 O   0  0  0  0  0  0  0  0  0  0  0  0
   19.7149  -10.2969  -17.9135 C   0  0  0  0  0  0  0  0  0  0  0  0
   19.9289   -9.5829  -16.5996 C   0  0  2  0  0  0  0  0  0  0  0  0
   18.9422   -8.4675  -16.5150 C   0  0  0  0  0  0  0  0  0  0  0  0
   21.3460   -9.1878  -16.3338 C   0  0  2  0  0  0  0  0  0  0  0  0
   22.3005  -10.2440  -16.2553 N   0  0  0  0  0  0  0  0  0  0  0  0
   21.5160   -8.1283  -15.3258 C   0  0  0  0  0  0  0  0  0  0  0  0
   21.2486   -8.3756  -14.1241 O   0  0  0  0  0  0  0  0  0  0  0  0
   23.8276   -2.4513  -19.7032 O   0  0  0  0  0  0  0  0  0  0  0  0
   23.7025   -3.0611  -18.4570 C   0  0  0  0  0  0  0  0  0  0  0  0
   23.1721   -2.4286  -17.3592 C   0  0  0  0  0  0  0  0  0  0  0  0
   23.0708   -3.0737  -16.1555 C   0  0  0  0  0  0  0  0  0  0  0  0
   23.4966   -4.3946  -15.9801 C   0  0  0  0  0  0  0  0  0  0  0  0
   23.4020   -5.0808  -14.6746 C   0  0  0  0  0  0  0  0  0  0  0  0
   22.0777   -5.7843  -14.5846 C   0  0  2  0  0  0  0  0  0  0  0  0
   21.9675   -6.8253  -15.6165 N   0  0  0  0  0  0  0  0  0  0  0  0
   20.9357   -4.8729  -14.6235 C   0  0  0  0  0  0  0  0  0  0  0  0
   20.7531   -4.0066  -13.5205 O   0  0  0  0  0  0  0  0  0  0  0  0
   24.0243   -5.0092  -17.0905 C   0  0  0  0  0  0  0  0  0  0  0  0
   24.1311   -4.3613  -18.3185 C   0  0  0  0  0  0  0  0  0  0  0  0
   20.0858   -4.7663  -15.5301 O   0  0  0  0  0  0  0  0  0  0  0  0
  2  1  1  6
  2  3  1  0
  4  3  1  0
  4  5  2  0
  6  5  1  0
  7  6  1  0
  8  7  2  0
  8  4  1  0
  9  2  1  0
 10  9  2  0
 12 11  1  6
 12 13  1  0
 12 14  1  0
 14 15  1  1
 15  9  1  0
 16 17  2  0
 16 14  1  0
 18 19  1  0
 19 29  2  0
 20 21  2  0
 20 19  1  0
 21 22  1  0
 22 23  1  0
 22 28  2  0
 24 23  1  6
 24 25  1  0
 25 16  1  0
 26 24  1  0
 27 26  1  0
 29 28  1  0
 30 26  2  0
M  END
$$$$
