HVY.pdb
     RDKit          3D

 30 31  0  0  1  0  0  0  0  0999 V2000
   18.3515  -13.0543  -17.0287 N   0  0  0  0  0  0  0  0  0  0  0  0
   19.0691  -11.9388  -17.5727 C   0  0  1  0  0  0  0  0  0  0  0  0
   18.0751  -10.9760  -18.2014 C   0  0  0  0  0  0  0  0  0  0  0  0
   17.3700  -11.6131  -19.3460 C   0  0  0  0  0  0  0  0  0  0  0  0
   16.0522  -12.0215  -19.3878 C   0  0  0  0  0  0  0  0  0  0  0  0
   15.8165  -12.5497  -20.5987 N   0  0  0  0  0  0  0  0  0  0  0  0
   16.9698  -12.4774  -21.3173 C   0  0  0  0  0  0  0  0  0  0  0  0
   17.8976  -11.9090  -20.5442 N   0  0  0  0  0  0  0  0  0  0  0  0
   19.7789  -11.2160  -16.4430 C   0  0  0  0  0  0  0  0  0  0  0  0
   19.1972  -11.0293  -15.3636 O   0  0  0  0  0  0  0  0  0  0  0  0
   23.3425  -12.1501  -15.1778 C   0  0  0  0  0  0  0  0  0  0  0  0
   23.3533  -10.7068  -15.6236 C   0  0  2  0  0  0  0  0  0  0  0  0
   24.2754   -9.9537  -14.7251 C   0  0  0  0  0  0  0  0  0  0  0  0
   21.9970  -10.0983  -15.7825 C   0  0  2  0  0  0  0  0  0  0  0  0
   21.0908  -10.7736  -16.6517 N   0  0  0  0  0  0  0  0  0  0  0  0
   21.9855   -8.6308  -15.9009 C   0  0  0  0  0  0  0  0  0  0  0  0
   22.3834   -8.0978  -16.9659 O   0  0  0  0  0  0  0  0  0  0  0  0
   20.7720   -0.0738  -15.7990 O   0  0  0  0  0  0  0  0  0  0  0  0
   20.6374   -1.4420  -15.5746 C   0  0  0  0  0  0  0  0  0  0  0  0
   20.4753   -1.9875  -14.3245 C   0  0  0  0  0  0  0  0  0  0  0  0
   20.3467   -3.3406  -14.1580 C   0  0  0  0  0  0  0  0  0  0  0  0
   20.3735   -4.2299  -15.2376 C   0  0  0  0  0  0  0  0  0  0  0  0
   20.2526   -5.6911  -15.0515 C   0  0  0  0  0  0  0  0  0  0  0  0
   21.6268   -6.2968  -15.0161 C   0  0  2  0  0  0  0  0  0  0  0  0
   21.5505   -7.7587  -14.8829 N   0  0  0  0  0  0  0  0  0  0  0  0
   22.4892   -5.7130  -13.9905 C   0  0  0  0  0  0  0  0  0  0  0  0
   22.3939   -6.2377  -12.6805 O   0  0  0  0  0  0  0  0  0  0  0  0
   20.5368   -3.6639  -16.4794 C   0  0  0  0  0  0  0  0  0  0  0  0
   20.6681   -2.2892  -16.6584 C   0  0  0  0  0  0  0  0  0  0  0  0
   23.3143   -4.7890  -14.1348 O   0  0  0  0  0  0  0  0  0  0  0  0
  2  1  1  1
  2  3  1  0
  4  3  1  0
  4  5  2  0
  6  5  1  0
  7  6  1  0
  8  7  2  0
  8  4  1  0
  9  2  1  0
 10  9  2  0
 12 11  1  1
 12 13  1  0
 12 14  1  0
 14 15  1  6
 15  9  1  0
 16 17  2  0
 16 14  1  0
 18 19  1  0
 19 29  2  0
 20 21  2  0
 20 19  1  0
 21 22  1  0
 22 23  1  0
 22 28  2  0
 24 23  1  1
 24 25  1  0
 25 16  1  0
 26 24  1  0
 27 26  1  0
 29 28  1  0
 30 26  2  0
M  END
$$$$
