HVY.pdb
     RDKit          3D

 30 31  0  0  1  0  0  0  0  0999 V2000
   22.5085  -11.1105  -19.9034 N   0  0  0  0  0  0  0  0  0  0  0  0
   22.9733   -9.9596  -19.1861 C   0  0  1  0  0  0  0  0  0  0  0  0
   22.6927   -8.7180  -20.0166 C   0  0  0  0  0  0  0  0  0  0  0  0
   23.5356   -8.6973  -21.2423 C   0  0  0  0  0  0  0  0  0  0  0  0
   23.1694   -9.1010  -22.5104 C   0  0  0  0  0  0  0  0  0  0  0  0
   24.2210   -8.9248  -23.3251 N   0  0  0  0  0  0  0  0  0  0  0  0
   25.2423   -8.4151  -22.5843 C   0  0  0  0  0  0  0  0  0  0  0  0
   24.8100   -8.2848  -21.3282 N   0  0  0  0  0  0  0  0  0  0  0  0
   22.1966   -9.8461  -17.8874 C   0  0  0  0  0  0  0  0  0  0  0  0
   20.9615   -9.9595  -17.8913 O   0  0  0  0  0  0  0  0  0  0  0  0
   22.6076  -10.0033  -12.9090 C   0  0  0  0  0  0  0  0  0  0  0  0
   23.1834  -10.1711  -14.2955 C   0  0  2  0  0  0  0  0  0  0  0  0
   24.6454   -9.8846  -14.2252 C   0  0  0  0  0  0  0  0  0  0  0  0
   22.4493   -9.4270  -15.3644 C   0  0  2  0  0  0  0  0  0  0  0  0
   22.9051   -9.6143  -16.7023 N   0  0  0  0  0  0  0  0  0  0  0  0
   22.0957   -8.0392  -15.0230 C   0  0  0  0  0  0  0  0  0  0  0  0
   23.0100   -7.2199  -14.7595 O   0  0  0  0  0  0  0  0  0  0  0  0
   19.8896    0.1986  -14.8107 O   0  0  0  0  0  0  0  0  0  0  0  0
   20.2346   -1.1404  -14.9788 C   0  0  0  0  0  0  0  0  0  0  0  0
   20.7515   -1.9169  -13.9707 C   0  0  0  0  0  0  0  0  0  0  0  0
   21.0741   -3.2299  -14.1882 C   0  0  0  0  0  0  0  0  0  0  0  0
   20.8977   -3.8441  -15.4326 C   0  0  0  0  0  0  0  0  0  0  0  0
   21.2643   -5.2565  -15.6676 C   0  0  0  0  0  0  0  0  0  0  0  0
   20.4728   -6.1305  -14.7368 C   0  0  2  0  0  0  0  0  0  0  0  0
   20.7751   -7.5501  -14.9688 N   0  0  0  0  0  0  0  0  0  0  0  0
   19.0343   -5.8769  -14.7896 C   0  0  0  0  0  0  0  0  0  0  0  0
   18.4979   -4.9591  -13.8567 O   0  0  0  0  0  0  0  0  0  0  0  0
   20.3797   -3.0499  -16.4276 C   0  0  0  0  0  0  0  0  0  0  0  0
   20.0485   -1.7140  -16.2157 C   0  0  0  0  0  0  0  0  0  0  0  0
   18.2070   -6.3835  -15.5734 O   0  0  0  0  0  0  0  0  0  0  0  0
  2  1  1  6
  2  3  1  0
  4  3  1  0
  4  5  2  0
  6  5  1  0
  7  6  1  0
  8  7  2  0
  8  4  1  0
  9  2  1  0
 10  9  2  0
 12 11  1  1
 12 13  1  0
 12 14  1  0
 14 15  1  6
 15  9  1  0
 16 17  2  0
 16 14  1  0
 18 19  1  0
 19 29  2  0
 20 21  2  0
 20 19  1  0
 21 22  1  0
 22 23  1  0
 22 28  2  0
 24 23  1  6
 24 25  1  0
 25 16  1  0
 26 24  1  0
 27 26  1  0
 29 28  1  0
 30 26  2  0
M  END
$$$$
