LGF.pdb
     RDKit          3D

 24 24  0  0  1  0  0  0  0  0999 V2000
   19.5880  -14.8715  -20.9820 C   0  0  0  0  0  0  0  0  0  0  0  0
   20.7982  -14.8523  -20.0730 C   0  0  2  0  0  0  0  0  0  0  0  0
   21.2427  -16.2734  -19.7542 C   0  0  0  0  0  0  0  0  0  0  0  0
   20.4591  -14.1083  -18.7754 C   0  0  0  0  0  0  0  0  0  0  0  0
   20.3171  -12.6516  -19.1357 C   0  0  2  0  0  0  0  0  0  0  0  0
   21.5596  -12.1925  -19.7181 N   0  0  0  0  0  0  0  0  0  0  0  0
   19.9619  -11.8130  -17.9770 C   0  0  0  0  0  0  0  0  0  0  0  0
   19.0577  -12.1794  -17.1901 O   0  0  0  0  0  0  0  0  0  0  0  0
   20.6719  -10.5746  -17.7729 N   0  0  0  0  0  0  0  0  0  0  0  0
   20.2684   -9.6884  -16.7201 C   0  0  0  0  0  0  0  0  0  0  0  0
   21.0902   -8.4847  -16.5833 C   0  0  0  0  0  0  0  0  0  0  0  0
   21.7960   -8.0859  -17.5832 O   0  0  0  0  0  0  0  0  0  0  0  0
   21.2141   -7.6646  -15.4387 N   0  0  0  0  0  0  0  0  0  0  0  0
   21.9808   -6.4188  -15.4395 C   0  0  1  0  0  0  0  0  0  0  0  0
   21.4454   -5.5871  -16.5508 C   0  0  0  0  0  0  0  0  0  0  0  0
   22.0466   -4.2700  -16.7262 C   0  0  0  0  0  0  0  0  0  0  0  0
   21.4818   -3.0851  -16.3131 C   0  0  0  0  0  0  0  0  0  0  0  0
   22.1426   -1.8954  -16.5284 C   0  0  0  0  0  0  0  0  0  0  0  0
   23.3767   -1.8561  -17.1576 C   0  0  0  0  0  0  0  0  0  0  0  0
   23.9563   -3.0334  -17.5775 C   0  0  0  0  0  0  0  0  0  0  0  0
   23.2850   -4.1985  -17.3542 C   0  0  0  0  0  0  0  0  0  0  0  0
   21.9047   -5.7290  -14.1489 C   0  0  0  0  0  0  0  0  0  0  0  0
   22.9141   -4.8978  -13.6915 O   0  0  0  0  0  0  0  0  0  0  0  0
   20.8727   -5.9100  -13.4379 O   0  0  0  0  0  0  0  0  0  0  0  0
  2  3  1  1
  2  1  1  0
  4  2  1  0
  5  4  1  0
  5  6  1  1
  7  5  1  0
  7  8  2  0
  9  7  1  0
 10  9  1  0
 11 10  1  0
 12 11  2  0
 13 11  1  0
 14 13  1  0
 14 22  1  0
 14 15  1  6
 16 15  1  0
 16 21  2  0
 17 16  1  0
 18 17  2  0
 18 19  1  0
 19 20  2  0
 20 21  1  0
 22 23  1  0
 24 22  2  0
M  END
$$$$
