LGF.pdb
     RDKit          3D

 24 24  0  0  1  0  0  0  0  0999 V2000
   22.0923  -22.0806  -13.0251 C   0  0  0  0  0  0  0  0  0  0  0  0
   22.5988  -20.6815  -13.3027 C   0  0  2  0  0  0  0  0  0  0  0  0
   21.5056  -19.6585  -13.0247 C   0  0  0  0  0  0  0  0  0  0  0  0
   23.0527  -20.5758  -14.7639 C   0  0  0  0  0  0  0  0  0  0  0  0
   24.3244  -21.3764  -14.8814 C   0  0  2  0  0  0  0  0  0  0  0  0
   24.0535  -22.7417  -14.4863 N   0  0  0  0  0  0  0  0  0  0  0  0
   25.4203  -20.8225  -14.0664 C   0  0  0  0  0  0  0  0  0  0  0  0
   25.8073  -19.6447  -14.2515 O   0  0  0  0  0  0  0  0  0  0  0  0
   26.0298  -21.6589  -13.0623 N   0  0  0  0  0  0  0  0  0  0  0  0
   27.1184  -21.1515  -12.2787 C   0  0  0  0  0  0  0  0  0  0  0  0
   26.9108  -21.2095  -10.8309 C   0  0  0  0  0  0  0  0  0  0  0  0
   25.8644  -21.7984  -10.3668 O   0  0  0  0  0  0  0  0  0  0  0  0
   27.7525  -20.6759   -9.8285 N   0  0  0  0  0  0  0  0  0  0  0  0
   27.5573  -20.9508   -8.4051 C   0  0  1  0  0  0  0  0  0  0  0  0
   28.8606  -20.6909   -7.7360 C   0  0  0  0  0  0  0  0  0  0  0  0
   28.8120  -20.3951   -6.3088 C   0  0  0  0  0  0  0  0  0  0  0  0
   29.1625  -21.2743   -5.3099 C   0  0  0  0  0  0  0  0  0  0  0  0
   29.0805  -20.8857   -3.9906 C   0  0  0  0  0  0  0  0  0  0  0  0
   28.6496  -19.6176   -3.6346 C   0  0  0  0  0  0  0  0  0  0  0  0
   28.2950  -18.7250   -4.6223 C   0  0  0  0  0  0  0  0  0  0  0  0
   28.3838  -19.1306   -5.9206 C   0  0  0  0  0  0  0  0  0  0  0  0
   26.4750  -20.1435   -7.8356 C   0  0  0  0  0  0  0  0  0  0  0  0
   25.6551  -20.6115   -6.8218 O   0  0  0  0  0  0  0  0  0  0  0  0
   26.2955  -18.9786   -8.2981 O   0  0  0  0  0  0  0  0  0  0  0  0
  2  3  1  6
  2  1  1  0
  4  2  1  0
  5  4  1  0
  5  6  1  1
  7  5  1  0
  7  8  2  0
  9  7  1  0
 10  9  1  0
 11 10  1  0
 12 11  2  0
 13 11  1  0
 14 13  1  0
 14 22  1  0
 14 15  1  1
 16 15  1  0
 16 21  2  0
 17 16  1  0
 18 17  2  0
 18 19  1  0
 19 20  2  0
 20 21  1  0
 22 23  1  0
 24 22  2  0
M  END
$$$$
