LGF.pdb
     RDKit          3D

 24 24  0  0  1  0  0  0  0  0999 V2000
   27.3499  -17.6994  -16.6083 C   0  0  0  0  0  0  0  0  0  0  0  0
   27.4408  -17.0911  -15.2252 C   0  0  2  0  0  0  0  0  0  0  0  0
   28.6914  -16.2304  -15.1072 C   0  0  0  0  0  0  0  0  0  0  0  0
   27.4727  -18.2047  -14.1711 C   0  0  0  0  0  0  0  0  0  0  0  0
   26.1807  -18.9686  -14.3088 C   0  0  2  0  0  0  0  0  0  0  0  0
   25.0822  -18.0269  -14.3253 N   0  0  0  0  0  0  0  0  0  0  0  0
   25.9862  -19.9529  -13.2293 C   0  0  0  0  0  0  0  0  0  0  0  0
   26.7594  -20.9341  -13.1271 O   0  0  0  0  0  0  0  0  0  0  0  0
   24.8969  -19.7619  -12.3039 N   0  0  0  0  0  0  0  0  0  0  0  0
   24.6714  -20.7219  -11.2626 C   0  0  0  0  0  0  0  0  0  0  0  0
   25.7095  -20.7630  -10.2314 C   0  0  0  0  0  0  0  0  0  0  0  0
   26.8469  -21.3016  -10.5025 O   0  0  0  0  0  0  0  0  0  0  0  0
   25.6189  -20.2631   -8.9124 N   0  0  0  0  0  0  0  0  0  0  0  0
   26.5301  -20.6789   -7.8463 C   0  0  1  0  0  0  0  0  0  0  0  0
   27.3792  -19.5003   -7.5247 C   0  0  0  0  0  0  0  0  0  0  0  0
   28.2305  -19.6134   -6.3459 C   0  0  0  0  0  0  0  0  0  0  0  0
   29.3792  -20.3673   -6.2735 C   0  0  0  0  0  0  0  0  0  0  0  0
   30.1100  -20.3984   -5.1058 C   0  0  0  0  0  0  0  0  0  0  0  0
   29.7167  -19.6826   -3.9862 C   0  0  0  0  0  0  0  0  0  0  0  0
   28.5689  -18.9225   -4.0419 C   0  0  0  0  0  0  0  0  0  0  0  0
   27.8617  -18.9064   -5.2070 C   0  0  0  0  0  0  0  0  0  0  0  0
   25.8076  -21.1743   -6.6715 C   0  0  0  0  0  0  0  0  0  0  0  0
   26.4252  -21.9200   -5.6809 O   0  0  0  0  0  0  0  0  0  0  0  0
   24.5747  -20.9027   -6.5736 O   0  0  0  0  0  0  0  0  0  0  0  0
  2  3  1  6
  2  1  1  0
  4  2  1  0
  5  4  1  0
  5  6  1  1
  7  5  1  0
  7  8  2  0
  9  7  1  0
 10  9  1  0
 11 10  1  0
 12 11  2  0
 13 11  1  0
 14 13  1  0
 14 22  1  0
 14 15  1  1
 16 15  1  0
 16 21  2  0
 17 16  1  0
 18 17  2  0
 18 19  1  0
 19 20  2  0
 20 21  1  0
 22 23  1  0
 24 22  2  0
M  END
$$$$
