LGF.pdb
     RDKit          3D

 24 24  0  0  1  0  0  0  0  0999 V2000
   24.1268  -21.4901  -15.4222 C   0  0  0  0  0  0  0  0  0  0  0  0
   24.2616  -20.1086  -14.8186 C   0  0  2  0  0  0  0  0  0  0  0  0
   22.9196  -19.3892  -14.8395 C   0  0  0  0  0  0  0  0  0  0  0  0
   25.2997  -19.2990  -15.6054 C   0  0  0  0  0  0  0  0  0  0  0  0
   26.6366  -19.9482  -15.3537 C   0  0  2  0  0  0  0  0  0  0  0  0
   26.5218  -21.3669  -15.6136 N   0  0  0  0  0  0  0  0  0  0  0  0
   27.1265  -19.7238  -13.9820 C   0  0  0  0  0  0  0  0  0  0  0  0
   27.1015  -18.5727  -13.4865 O   0  0  0  0  0  0  0  0  0  0  0  0
   27.6297  -20.8480  -13.2321 N   0  0  0  0  0  0  0  0  0  0  0  0
   28.1782  -20.6419  -11.9231 C   0  0  0  0  0  0  0  0  0  0  0  0
   27.2772  -20.9816  -10.8205 C   0  0  0  0  0  0  0  0  0  0  0  0
   26.0994  -21.4295  -11.0836 O   0  0  0  0  0  0  0  0  0  0  0  0
   27.5477  -20.8757   -9.4372 N   0  0  0  0  0  0  0  0  0  0  0  0
   26.5713  -21.2427   -8.4116 C   0  0  1  0  0  0  0  0  0  0  0  0
   27.3462  -21.6981   -7.2260 C   0  0  0  0  0  0  0  0  0  0  0  0
   28.0655  -20.6690   -6.4839 C   0  0  0  0  0  0  0  0  0  0  0  0
   29.2451  -20.0866   -6.8872 C   0  0  0  0  0  0  0  0  0  0  0  0
   29.8373  -19.1184   -6.1061 C   0  0  0  0  0  0  0  0  0  0  0  0
   29.2721  -18.7078   -4.9092 C   0  0  0  0  0  0  0  0  0  0  0  0
   28.0910  -19.2807   -4.4908 C   0  0  0  0  0  0  0  0  0  0  0  0
   27.5227  -20.2364   -5.2792 C   0  0  0  0  0  0  0  0  0  0  0  0
   25.6730  -20.1307   -8.0888 C   0  0  0  0  0  0  0  0  0  0  0  0
   25.9564  -18.8217   -8.4426 O   0  0  0  0  0  0  0  0  0  0  0  0
   24.6037  -20.3926   -7.4634 O   0  0  0  0  0  0  0  0  0  0  0  0
  2  3  1  6
  2  1  1  0
  4  2  1  0
  5  4  1  0
  5  6  1  1
  7  5  1  0
  7  8  2  0
  9  7  1  0
 10  9  1  0
 11 10  1  0
 12 11  2  0
 13 11  1  0
 14 13  1  0
 14 22  1  0
 14 15  1  1
 16 15  1  0
 16 21  2  0
 17 16  1  0
 18 17  2  0
 18 19  1  0
 19 20  2  0
 20 21  1  0
 22 23  1  0
 24 22  2  0
M  END
$$$$
