LGF.pdb
     RDKit          3D

 24 24  0  0  1  0  0  0  0  0999 V2000
   21.2478  -21.0715  -16.7397 C   0  0  0  0  0  0  0  0  0  0  0  0
   21.7751  -21.5892  -15.4187 C   0  0  2  0  0  0  0  0  0  0  0  0
   20.9779  -22.8073  -14.9720 C   0  0  0  0  0  0  0  0  0  0  0  0
   21.6821  -20.4867  -14.3566 C   0  0  0  0  0  0  0  0  0  0  0  0
   23.0458  -19.8499  -14.2728 C   0  0  2  0  0  0  0  0  0  0  0  0
   24.0097  -20.7291  -14.8985 N   0  0  0  0  0  0  0  0  0  0  0  0
   23.4519  -19.5600  -12.8861 C   0  0  0  0  0  0  0  0  0  0  0  0
   22.7365  -18.8285  -12.1620 O   0  0  0  0  0  0  0  0  0  0  0  0
   24.6784  -20.1318  -12.3881 N   0  0  0  0  0  0  0  0  0  0  0  0
   25.1040  -19.8465  -11.0486 C   0  0  0  0  0  0  0  0  0  0  0  0
   26.3454  -20.5092  -10.6456 C   0  0  0  0  0  0  0  0  0  0  0  0
   26.7711  -21.5173  -11.3236 O   0  0  0  0  0  0  0  0  0  0  0  0
   27.1769  -20.1677   -9.5547 N   0  0  0  0  0  0  0  0  0  0  0  0
   28.4483  -20.8411   -9.2901 C   0  0  1  0  0  0  0  0  0  0  0  0
   29.2287  -19.9459   -8.3939 C   0  0  0  0  0  0  0  0  0  0  0  0
   28.7116  -19.7664   -7.0422 C   0  0  0  0  0  0  0  0  0  0  0  0
   27.8178  -18.7909   -6.6639 C   0  0  0  0  0  0  0  0  0  0  0  0
   27.3929  -18.7163   -5.3554 C   0  0  0  0  0  0  0  0  0  0  0  0
   27.8454  -19.6072   -4.3952 C   0  0  0  0  0  0  0  0  0  0  0  0
   28.7405  -20.5900   -4.7571 C   0  0  0  0  0  0  0  0  0  0  0  0
   29.1473  -20.6454   -6.0569 C   0  0  0  0  0  0  0  0  0  0  0  0
   28.2519  -22.1705   -8.7058 C   0  0  0  0  0  0  0  0  0  0  0  0
   29.2547  -23.1259   -8.6823 O   0  0  0  0  0  0  0  0  0  0  0  0
   27.1188  -22.4401   -8.2090 O   0  0  0  0  0  0  0  0  0  0  0  0
  2  3  1  1
  2  1  1  0
  4  2  1  0
  5  4  1  0
  5  6  1  1
  7  5  1  0
  7  8  2  0
  9  7  1  0
 10  9  1  0
 11 10  1  0
 12 11  2  0
 13 11  1  0
 14 13  1  0
 14 22  1  0
 14 15  1  1
 16 15  1  0
 16 21  2  0
 17 16  1  0
 18 17  2  0
 18 19  1  0
 19 20  2  0
 20 21  1  0
 22 23  1  0
 24 22  2  0
M  END
$$$$
