LGF.pdb
     RDKit          3D

 24 24  0  0  1  0  0  0  0  0999 V2000
   25.8048  -17.1126  -16.4262 C   0  0  0  0  0  0  0  0  0  0  0  0
   26.5728  -16.6983  -15.1894 C   0  0  2  0  0  0  0  0  0  0  0  0
   27.2527  -15.3545  -15.4146 C   0  0  0  0  0  0  0  0  0  0  0  0
   27.6228  -17.7638  -14.8510 C   0  0  0  0  0  0  0  0  0  0  0  0
   26.8675  -18.9911  -14.4091 C   0  0  2  0  0  0  0  0  0  0  0  0
   25.7249  -18.5774  -13.6237 N   0  0  0  0  0  0  0  0  0  0  0  0
   27.7043  -19.9226  -13.6319 C   0  0  0  0  0  0  0  0  0  0  0  0
   28.7739  -20.3604  -14.1171 O   0  0  0  0  0  0  0  0  0  0  0  0
   27.2676  -20.3137  -12.3144 N   0  0  0  0  0  0  0  0  0  0  0  0
   28.1250  -21.1141  -11.4892 C   0  0  0  0  0  0  0  0  0  0  0  0
   27.8253  -21.0573  -10.0575 C   0  0  0  0  0  0  0  0  0  0  0  0
   28.4693  -21.8230   -9.2474 O   0  0  0  0  0  0  0  0  0  0  0  0
   26.8737  -20.2295   -9.4196 N   0  0  0  0  0  0  0  0  0  0  0  0
   26.1057  -20.6637   -8.2526 C   0  0  1  0  0  0  0  0  0  0  0  0
   26.2029  -19.5726   -7.2459 C   0  0  0  0  0  0  0  0  0  0  0  0
   27.3595  -19.6069   -6.3582 C   0  0  0  0  0  0  0  0  0  0  0  0
   28.4836  -18.8259   -6.4989 C   0  0  0  0  0  0  0  0  0  0  0  0
   29.5185  -18.9396   -5.5963 C   0  0  0  0  0  0  0  0  0  0  0  0
   29.4599  -19.8300   -4.5359 C   0  0  0  0  0  0  0  0  0  0  0  0
   28.3415  -20.6194   -4.3805 C   0  0  0  0  0  0  0  0  0  0  0  0
   27.3299  -20.4903   -5.2849 C   0  0  0  0  0  0  0  0  0  0  0  0
   24.7155  -20.9733   -8.5971 C   0  0  0  0  0  0  0  0  0  0  0  0
   23.8397  -21.5550   -7.6951 O   0  0  0  0  0  0  0  0  0  0  0  0
   24.3159  -20.6934   -9.7656 O   0  0  0  0  0  0  0  0  0  0  0  0
  2  3  1  6
  2  1  1  0
  4  2  1  0
  5  4  1  0
  5  6  1  1
  7  5  1  0
  7  8  2  0
  9  7  1  0
 10  9  1  0
 11 10  1  0
 12 11  2  0
 13 11  1  0
 14 13  1  0
 14 22  1  0
 14 15  1  1
 16 15  1  0
 16 21  2  0
 17 16  1  0
 18 17  2  0
 18 19  1  0
 19 20  2  0
 20 21  1  0
 22 23  1  0
 24 22  2  0
M  END
$$$$
