LGF.pdb
     RDKit          3D

 24 24  0  0  1  0  0  0  0  0999 V2000
   23.9529  -12.3213  -20.4190 C   0  0  0  0  0  0  0  0  0  0  0  0
   22.4574  -12.3180  -20.1856 C   0  0  2  0  0  0  0  0  0  0  0  0
   21.7580  -13.1825  -21.2259 C   0  0  0  0  0  0  0  0  0  0  0  0
   21.9254  -10.8813  -20.2583 C   0  0  0  0  0  0  0  0  0  0  0  0
   22.6007  -10.1129  -19.1513 C   0  0  2  0  0  0  0  0  0  0  0  0
   22.2312  -10.7022  -17.8825 N   0  0  0  0  0  0  0  0  0  0  0  0
   22.2549   -8.6803  -19.1628 C   0  0  0  0  0  0  0  0  0  0  0  0
   22.7657   -7.9177  -20.0163 O   0  0  0  0  0  0  0  0  0  0  0  0
   21.3250   -8.1829  -18.1793 N   0  0  0  0  0  0  0  0  0  0  0  0
   20.9500   -6.7987  -18.1909 C   0  0  0  0  0  0  0  0  0  0  0  0
   19.9674   -6.4213  -17.1736 C   0  0  0  0  0  0  0  0  0  0  0  0
   19.5891   -5.1939  -17.0868 O   0  0  0  0  0  0  0  0  0  0  0  0
   19.3511   -7.2728  -16.2286 N   0  0  0  0  0  0  0  0  0  0  0  0
   18.2942   -6.8166  -15.3260 C   0  0  1  0  0  0  0  0  0  0  0  0
   17.0269   -7.4314  -15.8051 C   0  0  0  0  0  0  0  0  0  0  0  0
   17.0103   -8.8854  -15.9170 C   0  0  0  0  0  0  0  0  0  0  0  0
   17.4133   -9.5946  -17.0251 C   0  0  0  0  0  0  0  0  0  0  0  0
   17.3577  -10.9713  -17.0193 C   0  0  0  0  0  0  0  0  0  0  0  0
   16.9015  -11.6729  -15.9147 C   0  0  0  0  0  0  0  0  0  0  0  0
   16.4942  -10.9781  -14.7968 C   0  0  0  0  0  0  0  0  0  0  0  0
   16.5578   -9.6168  -14.8246 C   0  0  0  0  0  0  0  0  0  0  0  0
   18.5804   -7.1605  -13.9306 C   0  0  0  0  0  0  0  0  0  0  0  0
   19.7009   -7.8861  -13.5604 O   0  0  0  0  0  0  0  0  0  0  0  0
   17.7640   -6.7736  -13.0434 O   0  0  0  0  0  0  0  0  0  0  0  0
  2  3  1  6
  2  1  1  0
  4  2  1  0
  5  4  1  0
  5  6  1  1
  7  5  1  0
  7  8  2  0
  9  7  1  0
 10  9  1  0
 11 10  1  0
 12 11  2  0
 13 11  1  0
 14 13  1  0
 14 22  1  0
 14 15  1  6
 16 15  1  0
 16 21  2  0
 17 16  1  0
 18 17  2  0
 18 19  1  0
 19 20  2  0
 20 21  1  0
 22 23  1  0
 24 22  2  0
M  END
$$$$
