LGF.pdb
     RDKit          3D

 24 24  0  0  1  0  0  0  0  0999 V2000
   22.6658  -19.5854  -17.7411 C   0  0  0  0  0  0  0  0  0  0  0  0
   23.4848  -20.4582  -16.8146 C   0  0  2  0  0  0  0  0  0  0  0  0
   23.0270  -21.9073  -16.9110 C   0  0  0  0  0  0  0  0  0  0  0  0
   23.3393  -19.9602  -15.3713 C   0  0  0  0  0  0  0  0  0  0  0  0
   24.3795  -18.8869  -15.1764 C   0  0  2  0  0  0  0  0  0  0  0  0
   25.5717  -19.2551  -15.9091 N   0  0  0  0  0  0  0  0  0  0  0  0
   24.7071  -18.6659  -13.7566 C   0  0  0  0  0  0  0  0  0  0  0  0
   23.7953  -18.4193  -12.9327 O   0  0  0  0  0  0  0  0  0  0  0  0
   26.0866  -18.7395  -13.3430 N   0  0  0  0  0  0  0  0  0  0  0  0
   26.4280  -18.5353  -11.9652 C   0  0  0  0  0  0  0  0  0  0  0  0
   26.2322  -19.7038  -11.1055 C   0  0  0  0  0  0  0  0  0  0  0  0
   25.6886  -20.7630  -11.5950 O   0  0  0  0  0  0  0  0  0  0  0  0
   26.5803  -19.8240   -9.7408 N   0  0  0  0  0  0  0  0  0  0  0  0
   26.3992  -21.0640   -8.9862 C   0  0  1  0  0  0  0  0  0  0  0  0
   27.6691  -21.3068   -8.2501 C   0  0  0  0  0  0  0  0  0  0  0  0
   27.9052  -20.4832   -7.0699 C   0  0  0  0  0  0  0  0  0  0  0  0
   27.5853  -19.1491   -6.9637 C   0  0  0  0  0  0  0  0  0  0  0  0
   27.8513  -18.4680   -5.7960 C   0  0  0  0  0  0  0  0  0  0  0  0
   28.4399  -19.0956   -4.7096 C   0  0  0  0  0  0  0  0  0  0  0  0
   28.7665  -20.4311   -4.7992 C   0  0  0  0  0  0  0  0  0  0  0  0
   28.4943  -21.0852   -5.9637 C   0  0  0  0  0  0  0  0  0  0  0  0
   25.2454  -20.9926   -8.0856 C   0  0  0  0  0  0  0  0  0  0  0  0
   24.5506  -19.8152   -7.8622 O   0  0  0  0  0  0  0  0  0  0  0  0
   24.8833  -22.0541   -7.4978 O   0  0  0  0  0  0  0  0  0  0  0  0
  2  3  1  1
  2  1  1  0
  4  2  1  0
  5  4  1  0
  5  6  1  6
  7  5  1  0
  7  8  2  0
  9  7  1  0
 10  9  1  0
 11 10  1  0
 12 11  2  0
 13 11  1  0
 14 13  1  0
 14 22  1  0
 14 15  1  1
 16 15  1  0
 16 21  2  0
 17 16  1  0
 18 17  2  0
 18 19  1  0
 19 20  2  0
 20 21  1  0
 22 23  1  0
 24 22  2  0
M  END
$$$$
