VYN.pdb
     RDKit          3D

 28 28  0  0  1  0  0  0  0  0999 V2000
   19.8985   -8.9807  -20.9813 C   0  0  0  0  0  0  0  0  0  0  0  0
   21.0828   -9.8847  -20.8947 C   0  0  2  0  0  0  0  0  0  0  0  0
   21.5790  -10.2789  -22.2664 C   0  0  0  0  0  0  0  0  0  0  0  0
   20.7839  -11.0830  -20.0298 C   0  0  2  0  0  0  0  0  0  0  0  0
   19.7444  -11.8441  -20.6973 N   0  0  0  0  0  0  0  0  0  0  0  0
   20.2704  -10.6984  -18.6936 C   0  0  0  0  0  0  0  0  0  0  0  0
   19.0163  -10.5612  -18.4991 O   0  0  0  0  0  0  0  0  0  0  0  0
   16.6668  -15.2318  -15.8286 O   0  0  0  0  0  0  0  0  0  0  0  0
   17.6457  -14.2375  -15.7199 C   0  0  0  0  0  0  0  0  0  0  0  0
   17.5228  -13.1860  -14.8419 C   0  0  0  0  0  0  0  0  0  0  0  0
   18.5145  -12.2123  -14.7572 C   0  0  0  0  0  0  0  0  0  0  0  0
   19.6472  -12.2530  -15.5336 C   0  0  0  0  0  0  0  0  0  0  0  0
   20.6728  -11.2382  -15.4239 C   0  0  0  0  0  0  0  0  0  0  0  0
   20.6120  -10.0316  -16.2636 C   0  0  2  0  0  0  0  0  0  0  0  0
   21.1104  -10.4708  -17.6012 N   0  0  0  0  0  0  0  0  0  0  0  0
   21.4487   -8.8925  -15.8762 C   0  0  0  0  0  0  0  0  0  0  0  0
   22.5558   -8.6282  -16.4666 O   0  0  0  0  0  0  0  0  0  0  0  0
   19.7557  -13.3265  -16.4191 C   0  0  0  0  0  0  0  0  0  0  0  0
   18.7734  -14.2902  -16.5027 C   0  0  0  0  0  0  0  0  0  0  0  0
   24.0886   -4.6704  -15.4736 N   0  0  0  0  0  0  0  0  0  0  0  0
   22.6717   -4.6584  -15.5406 C   0  0  0  0  0  0  0  0  0  0  0  0
   22.0850   -3.5638  -15.3822 O   0  0  0  0  0  0  0  0  0  0  0  0
   21.9697   -5.9347  -15.7931 C   0  0  0  0  0  0  0  0  0  0  0  0
   21.9069   -6.8305  -14.5611 C   0  0  2  0  0  0  0  0  0  0  0  0
   21.0882   -8.0054  -14.8312 N   0  0  0  0  0  0  0  0  0  0  0  0
   21.3673   -6.0450  -13.4465 C   0  0  0  0  0  0  0  0  0  0  0  0
   20.1539   -6.2549  -13.1126 O   0  0  0  0  0  0  0  0  0  0  0  0
   22.1428   -5.1210  -12.7907 O   0  0  0  0  0  0  0  0  0  0  0  0
  2  1  1  6
  2  3  1  0
  4  2  1  0
  4  5  1  6
  6  4  1  0
  6  7  2  0
  8  9  1  0
  9 10  2  0
 10 11  1  0
 12 13  1  0
 12 11  2  0
 14 13  1  1
 14 15  1  0
 15  6  1  0
 16 14  1  0
 17 16  2  0
 18 12  1  0
 19 18  2  0
 19  9  1  0
 20 21  1  0
 21 22  2  0
 21 23  1  0
 24 23  1  6
 24 25  1  0
 24 26  1  0
 25 16  1  0
 26 28  1  0
 27 26  2  0
M  END
$$$$
