VYN.pdb
     RDKit          3D

 28 28  0  0  1  0  0  0  0  0999 V2000
   25.9917  -20.9067  -18.1723 C   0  0  0  0  0  0  0  0  0  0  0  0
   27.3103  -20.3810  -17.7117 C   0  0  2  0  0  0  0  0  0  0  0  0
   28.1954  -20.0091  -18.8785 C   0  0  0  0  0  0  0  0  0  0  0  0
   27.9804  -21.3533  -16.7742 C   0  0  2  0  0  0  0  0  0  0  0  0
   28.2340  -22.5678  -17.5268 N   0  0  0  0  0  0  0  0  0  0  0  0
   27.1175  -21.7108  -15.6233 C   0  0  0  0  0  0  0  0  0  0  0  0
   26.4037  -22.7685  -15.6557 O   0  0  0  0  0  0  0  0  0  0  0  0
   23.9790  -20.4441   -7.2145 O   0  0  0  0  0  0  0  0  0  0  0  0
   24.6798  -20.4982   -8.4246 C   0  0  0  0  0  0  0  0  0  0  0  0
   26.0530  -20.5613   -8.4700 C   0  0  0  0  0  0  0  0  0  0  0  0
   26.7213  -20.6141   -9.6904 C   0  0  0  0  0  0  0  0  0  0  0  0
   26.0530  -20.6065  -10.8908 C   0  0  0  0  0  0  0  0  0  0  0  0
   26.7639  -20.6734  -12.1493 C   0  0  0  0  0  0  0  0  0  0  0  0
   26.1022  -21.2206  -13.3440 C   0  0  2  0  0  0  0  0  0  0  0  0
   27.0405  -20.9287  -14.4686 N   0  0  0  0  0  0  0  0  0  0  0  0
   24.8144  -20.6391  -13.7328 C   0  0  0  0  0  0  0  0  0  0  0  0
   24.7291  -19.6651  -14.5623 O   0  0  0  0  0  0  0  0  0  0  0  0
   24.6601  -20.5419  -10.8265 C   0  0  0  0  0  0  0  0  0  0  0  0
   23.9990  -20.4894   -9.6178 C   0  0  0  0  0  0  0  0  0  0  0  0
   20.2620  -21.0392  -16.7071 N   0  0  0  0  0  0  0  0  0  0  0  0
   21.0474  -20.2078  -15.8680 C   0  0  0  0  0  0  0  0  0  0  0  0
   20.6626  -19.0313  -15.6798 O   0  0  0  0  0  0  0  0  0  0  0  0
   22.2721  -20.7751  -15.2649 C   0  0  0  0  0  0  0  0  0  0  0  0
   22.3267  -20.5939  -13.7522 C   0  0  2  0  0  0  0  0  0  0  0  0
   23.5805  -21.1172  -13.2251 N   0  0  0  0  0  0  0  0  0  0  0  0
   21.1703  -21.2772  -13.1637 C   0  0  0  0  0  0  0  0  0  0  0  0
   21.4030  -22.2372  -12.3561 O   0  0  0  0  0  0  0  0  0  0  0  0
   19.8886  -20.8938  -13.4727 O   0  0  0  0  0  0  0  0  0  0  0  0
  2  1  1  6
  2  3  1  0
  4  2  1  0
  4  5  1  6
  6  4  1  0
  6  7  2  0
  8  9  1  0
  9 10  2  0
 10 11  1  0
 12 13  1  0
 12 11  2  0
 14 13  1  1
 14 15  1  0
 15  6  1  0
 16 14  1  0
 17 16  2  0
 18 12  1  0
 19 18  2  0
 19  9  1  0
 20 21  1  0
 21 22  2  0
 21 23  1  0
 24 23  1  6
 24 25  1  0
 24 26  1  0
 25 16  1  0
 26 28  1  0
 27 26  2  0
M  END
$$$$
