VYN.pdb
     RDKit          3D

 28 28  0  0  1  0  0  0  0  0999 V2000
   23.5170  -18.4399  -21.1058 C   0  0  0  0  0  0  0  0  0  0  0  0
   23.0799  -19.8658  -21.1617 C   0  0  2  0  0  0  0  0  0  0  0  0
   22.3882  -20.1813  -22.4674 C   0  0  0  0  0  0  0  0  0  0  0  0
   22.2303  -20.2162  -19.9664 C   0  0  2  0  0  0  0  0  0  0  0  0
   20.9902  -19.4730  -20.0901 N   0  0  0  0  0  0  0  0  0  0  0  0
   22.8661  -19.8182  -18.6880 C   0  0  0  0  0  0  0  0  0  0  0  0
   23.9668  -20.3506  -18.3213 O   0  0  0  0  0  0  0  0  0  0  0  0
   28.3753  -15.9327  -18.9656 O   0  0  0  0  0  0  0  0  0  0  0  0
   27.1393  -16.2361  -18.3836 C   0  0  0  0  0  0  0  0  0  0  0  0
   27.0349  -17.0302  -17.2655 C   0  0  0  0  0  0  0  0  0  0  0  0
   25.7900  -17.3138  -16.7100 C   0  0  0  0  0  0  0  0  0  0  0  0
   24.6228  -16.8221  -17.2422 C   0  0  0  0  0  0  0  0  0  0  0  0
   23.3388  -17.1182  -16.6445 C   0  0  0  0  0  0  0  0  0  0  0  0
   22.8917  -18.5130  -16.5058 C   0  0  2  0  0  0  0  0  0  0  0  0
   22.3089  -18.8622  -17.8358 N   0  0  0  0  0  0  0  0  0  0  0  0
   21.8441  -18.7951  -15.5205 C   0  0  0  0  0  0  0  0  0  0  0  0
   20.6334  -18.4054  -15.6827 O   0  0  0  0  0  0  0  0  0  0  0  0
   24.7469  -16.0183  -18.3766 C   0  0  0  0  0  0  0  0  0  0  0  0
   25.9797  -15.7380  -18.9264 C   0  0  0  0  0  0  0  0  0  0  0  0
   18.8668  -20.2213  -11.7345 N   0  0  0  0  0  0  0  0  0  0  0  0
   18.7273  -20.6640  -13.0750 C   0  0  0  0  0  0  0  0  0  0  0  0
   17.6575  -21.2278  -13.3995 O   0  0  0  0  0  0  0  0  0  0  0  0
   19.8489  -20.4355  -14.0105 C   0  0  0  0  0  0  0  0  0  0  0  0
   21.0271  -19.7197  -13.3598 C   0  0  2  0  0  0  0  0  0  0  0  0
   22.0965  -19.5209  -14.3296 N   0  0  0  0  0  0  0  0  0  0  0  0
   21.4801  -20.5206  -12.2179 C   0  0  0  0  0  0  0  0  0  0  0  0
   20.6702  -20.6644  -11.2425 O   0  0  0  0  0  0  0  0  0  0  0  0
   22.7284  -21.0922  -12.2047 O   0  0  0  0  0  0  0  0  0  0  0  0
  2  1  1  6
  2  3  1  0
  4  2  1  0
  4  5  1  6
  6  4  1  0
  6  7  2  0
  8  9  1  0
  9 10  2  0
 10 11  1  0
 12 13  1  0
 12 11  2  0
 14 13  1  6
 14 15  1  0
 15  6  1  0
 16 14  1  0
 17 16  2  0
 18 12  1  0
 19 18  2  0
 19  9  1  0
 20 21  1  0
 21 22  2  0
 21 23  1  0
 24 23  1  6
 24 25  1  0
 24 26  1  0
 25 16  1  0
 26 28  1  0
 27 26  2  0
M  END
$$$$
