VYN.pdb
     RDKit          3D

 28 28  0  0  1  0  0  0  0  0999 V2000
   21.9901  -12.5981  -19.2179 C   0  0  0  0  0  0  0  0  0  0  0  0
   20.7907  -12.0789  -19.9383 C   0  0  2  0  0  0  0  0  0  0  0  0
   20.9011  -12.3024  -21.4286 C   0  0  0  0  0  0  0  0  0  0  0  0
   20.5403  -10.6323  -19.5951 C   0  0  2  0  0  0  0  0  0  0  0  0
   21.5972   -9.8559  -20.2162 N   0  0  0  0  0  0  0  0  0  0  0  0
   20.5986  -10.3821  -18.1353 C   0  0  0  0  0  0  0  0  0  0  0  0
   19.8022  -10.9895  -17.3440 O   0  0  0  0  0  0  0  0  0  0  0  0
   24.8913  -14.7990  -15.4135 O   0  0  0  0  0  0  0  0  0  0  0  0
   24.4038  -13.4886  -15.4753 C   0  0  0  0  0  0  0  0  0  0  0  0
   23.5761  -12.9719  -14.5059 C   0  0  0  0  0  0  0  0  0  0  0  0
   23.1077  -11.6638  -14.5959 C   0  0  0  0  0  0  0  0  0  0  0  0
   23.4437  -10.8372  -15.6404 C   0  0  0  0  0  0  0  0  0  0  0  0
   22.9564   -9.4766  -15.7115 C   0  0  0  0  0  0  0  0  0  0  0  0
   21.5611   -9.2100  -16.0942 C   0  0  2  0  0  0  0  0  0  0  0  0
   21.5062   -9.4897  -17.5602 N   0  0  0  0  0  0  0  0  0  0  0  0
   21.0607   -7.8429  -15.9261 C   0  0  0  0  0  0  0  0  0  0  0  0
   21.5251   -6.8590  -16.6046 O   0  0  0  0  0  0  0  0  0  0  0  0
   24.2841  -11.3774  -16.6153 C   0  0  0  0  0  0  0  0  0  0  0  0
   24.7475  -12.6728  -16.5257 C   0  0  0  0  0  0  0  0  0  0  0  0
   18.4993   -3.6053  -15.0048 N   0  0  0  0  0  0  0  0  0  0  0  0
   18.6248   -4.2487  -16.2628 C   0  0  0  0  0  0  0  0  0  0  0  0
   18.2782   -3.6140  -17.2849 O   0  0  0  0  0  0  0  0  0  0  0  0
   19.1561   -5.6279  -16.2964 C   0  0  0  0  0  0  0  0  0  0  0  0
   19.5452   -6.1470  -14.9169 C   0  0  2  0  0  0  0  0  0  0  0  0
   20.0286   -7.5186  -15.0104 N   0  0  0  0  0  0  0  0  0  0  0  0
   18.3739   -6.0494  -14.0399 C   0  0  0  0  0  0  0  0  0  0  0  0
   17.8836   -7.1382  -13.5905 O   0  0  0  0  0  0  0  0  0  0  0  0
   17.8304   -4.8304  -13.7176 O   0  0  0  0  0  0  0  0  0  0  0  0
  2  1  1  1
  2  3  1  0
  4  2  1  0
  4  5  1  6
  6  4  1  0
  6  7  2  0
  8  9  1  0
  9 10  2  0
 10 11  1  0
 12 13  1  0
 12 11  2  0
 14 13  1  6
 14 15  1  0
 15  6  1  0
 16 14  1  0
 17 16  2  0
 18 12  1  0
 19 18  2  0
 19  9  1  0
 20 21  1  0
 21 22  2  0
 21 23  1  0
 24 23  1  6
 24 25  1  0
 24 26  1  0
 25 16  1  0
 26 28  1  0
 27 26  2  0
M  END
$$$$
