VYN.pdb
     RDKit          3D

 28 28  0  0  1  0  0  0  0  0999 V2000
   24.6528  -24.0601  -13.4809 C   0  0  0  0  0  0  0  0  0  0  0  0
   23.9591  -24.6221  -14.6768 C   0  0  2  0  0  0  0  0  0  0  0  0
   24.6393  -25.8772  -15.1716 C   0  0  0  0  0  0  0  0  0  0  0  0
   23.8237  -23.5816  -15.7596 C   0  0  2  0  0  0  0  0  0  0  0  0
   25.1446  -23.3772  -16.3243 N   0  0  0  0  0  0  0  0  0  0  0  0
   23.3548  -22.2782  -15.2320 C   0  0  0  0  0  0  0  0  0  0  0  0
   22.1813  -22.1642  -14.7429 O   0  0  0  0  0  0  0  0  0  0  0  0
   24.7979  -21.7646   -8.5660 O   0  0  0  0  0  0  0  0  0  0  0  0
   24.7982  -21.1888   -9.8415 C   0  0  0  0  0  0  0  0  0  0  0  0
   25.9250  -21.1630  -10.6298 C   0  0  0  0  0  0  0  0  0  0  0  0
   25.8932  -20.5824  -11.8950 C   0  0  0  0  0  0  0  0  0  0  0  0
   24.7529  -20.0159  -12.4109 C   0  0  0  0  0  0  0  0  0  0  0  0
   24.7355  -19.4272  -13.7325 C   0  0  0  0  0  0  0  0  0  0  0  0
   23.6985  -19.8152  -14.7013 C   0  0  2  0  0  0  0  0  0  0  0  0
   24.1524  -21.1316  -15.2411 N   0  0  0  0  0  0  0  0  0  0  0  0
   23.5003  -18.9489  -15.8666 C   0  0  0  0  0  0  0  0  0  0  0  0
   24.3617  -18.8724  -16.8133 O   0  0  0  0  0  0  0  0  0  0  0  0
   23.6188  -20.0505  -11.5978 C   0  0  0  0  0  0  0  0  0  0  0  0
   23.6510  -20.6253  -10.3451 C   0  0  0  0  0  0  0  0  0  0  0  0
   20.8545  -17.4329  -19.8908 N   0  0  0  0  0  0  0  0  0  0  0  0
   21.0571  -18.7859  -19.5156 C   0  0  0  0  0  0  0  0  0  0  0  0
   20.7669  -19.6762  -20.3467 O   0  0  0  0  0  0  0  0  0  0  0  0
   21.5978  -19.0678  -18.1689 C   0  0  0  0  0  0  0  0  0  0  0  0
   21.8790  -17.8026  -17.3662 C   0  0  2  0  0  0  0  0  0  0  0  0
   22.3440  -18.1454  -16.0283 N   0  0  0  0  0  0  0  0  0  0  0  0
   20.6504  -17.0034  -17.3191 C   0  0  0  0  0  0  0  0  0  0  0  0
   19.7845  -17.3080  -16.4328 O   0  0  0  0  0  0  0  0  0  0  0  0
   20.4453  -15.9678  -18.1970 O   0  0  0  0  0  0  0  0  0  0  0  0
  2  1  1  1
  2  3  1  0
  4  2  1  0
  4  5  1  1
  6  4  1  0
  6  7  2  0
  8  9  1  0
  9 10  2  0
 10 11  1  0
 12 13  1  0
 12 11  2  0
 14 13  1  1
 14 15  1  0
 15  6  1  0
 16 14  1  0
 17 16  2  0
 18 12  1  0
 19 18  2  0
 19  9  1  0
 20 21  1  0
 21 22  2  0
 21 23  1  0
 24 23  1  6
 24 25  1  0
 24 26  1  0
 25 16  1  0
 26 28  1  0
 27 26  2  0
M  END
$$$$
