VYN.pdb
     RDKit          3D

 28 28  0  0  1  0  0  0  0  0999 V2000
   31.1209  -29.4862  -19.4552 C   0  0  0  0  0  0  0  0  0  0  0  0
   31.5588  -29.6209  -18.0348 C   0  0  2  0  0  0  0  0  0  0  0  0
   33.0500  -29.8421  -17.9345 C   0  0  0  0  0  0  0  0  0  0  0  0
   30.7734  -30.6968  -17.3285 C   0  0  2  0  0  0  0  0  0  0  0  0
   30.9537  -31.9233  -18.0828 N   0  0  0  0  0  0  0  0  0  0  0  0
   29.3212  -30.4018  -17.2926 C   0  0  0  0  0  0  0  0  0  0  0  0
   28.5297  -30.9534  -18.1284 O   0  0  0  0  0  0  0  0  0  0  0  0
   26.4178  -35.6176  -15.8027 O   0  0  0  0  0  0  0  0  0  0  0  0
   26.4777  -34.2243  -15.6862 C   0  0  0  0  0  0  0  0  0  0  0  0
   25.4544  -33.4119  -16.1159 C   0  0  0  0  0  0  0  0  0  0  0  0
   25.5441  -32.0285  -15.9859 C   0  0  0  0  0  0  0  0  0  0  0  0
   26.6412  -31.4159  -15.4306 C   0  0  0  0  0  0  0  0  0  0  0  0
   26.7120  -29.9773  -15.2933 C   0  0  0  0  0  0  0  0  0  0  0  0
   27.3057  -29.1607  -16.3635 C   0  0  2  0  0  0  0  0  0  0  0  0
   28.7539  -29.5255  -16.3647 N   0  0  0  0  0  0  0  0  0  0  0  0
   27.2575  -27.7039  -16.2115 C   0  0  0  0  0  0  0  0  0  0  0  0
   28.3188  -26.9978  -16.0729 O   0  0  0  0  0  0  0  0  0  0  0  0
   27.6703  -32.2550  -15.0001 C   0  0  0  0  0  0  0  0  0  0  0  0
   27.5811  -33.6248  -15.1292 C   0  0  0  0  0  0  0  0  0  0  0  0
   26.7112  -23.0826  -15.7901 N   0  0  0  0  0  0  0  0  0  0  0  0
   27.7224  -23.7679  -16.5114 C   0  0  0  0  0  0  0  0  0  0  0  0
   28.8151  -23.1838  -16.6906 O   0  0  0  0  0  0  0  0  0  0  0  0
   27.4300  -25.1288  -17.0093 C   0  0  0  0  0  0  0  0  0  0  0  0
   26.0191  -25.5946  -16.6681 C   0  0  2  0  0  0  0  0  0  0  0  0
   26.0394  -26.9794  -16.2145 N   0  0  0  0  0  0  0  0  0  0  0  0
   25.1790  -25.4321  -17.8590 C   0  0  0  0  0  0  0  0  0  0  0  0
   24.8205  -24.2473  -18.1684 O   0  0  0  0  0  0  0  0  0  0  0  0
   24.7965  -26.5168  -18.6090 O   0  0  0  0  0  0  0  0  0  0  0  0
  2  1  1  6
  2  3  1  0
  4  2  1  0
  4  5  1  6
  6  4  1  0
  6  7  2  0
  8  9  1  0
  9 10  2  0
 10 11  1  0
 12 13  1  0
 12 11  2  0
 14 13  1  1
 14 15  1  0
 15  6  1  0
 16 14  1  0
 17 16  2  0
 18 12  1  0
 19 18  2  0
 19  9  1  0
 20 21  1  0
 21 22  2  0
 21 23  1  0
 24 23  1  6
 24 25  1  0
 24 26  1  0
 25 16  1  0
 26 28  1  0
 27 26  2  0
M  END
$$$$
