VYN.pdb
     RDKit          3D

 28 28  0  0  1  0  0  0  0  0999 V2000
   27.9357  -18.3189  -14.9198 C   0  0  0  0  0  0  0  0  0  0  0  0
   27.6445  -19.0335  -16.1973 C   0  0  2  0  0  0  0  0  0  0  0  0
   28.1388  -18.2527  -17.3926 C   0  0  0  0  0  0  0  0  0  0  0  0
   26.1792  -19.3725  -16.3031 C   0  0  2  0  0  0  0  0  0  0  0  0
   25.4518  -18.1176  -16.3488 N   0  0  0  0  0  0  0  0  0  0  0  0
   25.6908  -20.1313  -15.1272 C   0  0  0  0  0  0  0  0  0  0  0  0
   25.9945  -21.3626  -14.9821 O   0  0  0  0  0  0  0  0  0  0  0  0
   30.4691  -21.4401  -10.7767 O   0  0  0  0  0  0  0  0  0  0  0  0
   29.1659  -21.0034  -11.0402 C   0  0  0  0  0  0  0  0  0  0  0  0
   28.8986  -20.0231  -11.9672 C   0  0  0  0  0  0  0  0  0  0  0  0
   27.5906  -19.6103  -12.2067 C   0  0  0  0  0  0  0  0  0  0  0  0
   26.5189  -20.1531  -11.5401 C   0  0  0  0  0  0  0  0  0  0  0  0
   25.1653  -19.7194  -11.8103 C   0  0  0  0  0  0  0  0  0  0  0  0
   24.4138  -20.2988  -12.9347 C   0  0  2  0  0  0  0  0  0  0  0  0
   24.8911  -19.5542  -14.1381 N   0  0  0  0  0  0  0  0  0  0  0  0
   22.9556  -20.1530  -12.9231 C   0  0  0  0  0  0  0  0  0  0  0  0
   22.3850  -19.0059  -12.9751 O   0  0  0  0  0  0  0  0  0  0  0  0
   26.8080  -21.1463  -10.6028 C   0  0  0  0  0  0  0  0  0  0  0  0
   28.1034  -21.5546  -10.3660 C   0  0  0  0  0  0  0  0  0  0  0  0
   17.9950  -20.7173  -13.6698 N   0  0  0  0  0  0  0  0  0  0  0  0
   18.9116  -20.3366  -14.6833 C   0  0  0  0  0  0  0  0  0  0  0  0
   18.4493  -19.8659  -15.7474 O   0  0  0  0  0  0  0  0  0  0  0  0
   20.3564  -20.5163  -14.4271 C   0  0  0  0  0  0  0  0  0  0  0  0
   20.6473  -21.0748  -13.0388 C   0  0  2  0  0  0  0  0  0  0  0  0
   22.0810  -21.2665  -12.8609 N   0  0  0  0  0  0  0  0  0  0  0  0
   19.9141  -22.3356  -12.8857 C   0  0  0  0  0  0  0  0  0  0  0  0
   20.4852  -23.4010  -13.2940 O   0  0  0  0  0  0  0  0  0  0  0  0
   18.6619  -22.3626  -12.3232 O   0  0  0  0  0  0  0  0  0  0  0  0
  2  1  1  1
  2  3  1  0
  4  2  1  0
  4  5  1  1
  6  4  1  0
  6  7  2  0
  8  9  1  0
  9 10  2  0
 10 11  1  0
 12 13  1  0
 12 11  2  0
 14 13  1  1
 14 15  1  0
 15  6  1  0
 16 14  1  0
 17 16  2  0
 18 12  1  0
 19 18  2  0
 19  9  1  0
 20 21  1  0
 21 22  2  0
 21 23  1  0
 24 23  1  6
 24 25  1  0
 24 26  1  0
 25 16  1  0
 26 28  1  0
 27 26  2  0
M  END
$$$$
