VYN.pdb
     RDKit          3D

 28 28  0  0  1  0  0  0  0  0999 V2000
   19.6127  -27.8336   -9.0249 C   0  0  0  0  0  0  0  0  0  0  0  0
   19.3104  -28.4799  -10.3357 C   0  0  2  0  0  0  0  0  0  0  0  0
   20.3972  -29.4496  -10.7376 C   0  0  0  0  0  0  0  0  0  0  0  0
   19.0477  -27.4442  -11.3994 C   0  0  2  0  0  0  0  0  0  0  0  0
   20.3140  -26.7975  -11.6891 N   0  0  0  0  0  0  0  0  0  0  0  0
   18.1031  -26.3967  -10.9437 C   0  0  0  0  0  0  0  0  0  0  0  0
   16.8787  -26.6830  -10.7240 O   0  0  0  0  0  0  0  0  0  0  0  0
   17.3713  -26.1583   -4.0918 O   0  0  0  0  0  0  0  0  0  0  0  0
   17.5508  -25.4951   -5.3110 C   0  0  0  0  0  0  0  0  0  0  0  0
   16.5833  -24.6764   -5.8453 C   0  0  0  0  0  0  0  0  0  0  0  0
   16.7921  -24.0303   -7.0609 C   0  0  0  0  0  0  0  0  0  0  0  0
   17.9564  -24.1757   -7.7755 C   0  0  0  0  0  0  0  0  0  0  0  0
   18.1603  -23.4873   -9.0317 C   0  0  0  0  0  0  0  0  0  0  0  0
   17.5541  -24.0078  -10.2671 C   0  0  2  0  0  0  0  0  0  0  0  0
   18.4921  -25.0715  -10.7350 N   0  0  0  0  0  0  0  0  0  0  0  0
   17.4033  -23.0806  -11.3919 C   0  0  0  0  0  0  0  0  0  0  0  0
   16.7707  -21.9709  -11.2802 O   0  0  0  0  0  0  0  0  0  0  0  0
   18.9274  -25.0100   -7.2191 C   0  0  0  0  0  0  0  0  0  0  0  0
   18.7199  -25.6497   -6.0156 C   0  0  0  0  0  0  0  0  0  0  0  0
   19.4779  -21.4609  -16.7659 N   0  0  0  0  0  0  0  0  0  0  0  0
   18.2906  -21.9389  -16.1542 C   0  0  0  0  0  0  0  0  0  0  0  0
   17.1944  -21.5257  -16.5959 O   0  0  0  0  0  0  0  0  0  0  0  0
   18.4139  -22.8949  -15.0333 C   0  0  0  0  0  0  0  0  0  0  0  0
   17.6773  -22.4367  -13.7797 C   0  0  2  0  0  0  0  0  0  0  0  0
   17.9506  -23.3440  -12.6725 N   0  0  0  0  0  0  0  0  0  0  0  0
   16.2438  -22.3764  -14.0829 C   0  0  0  0  0  0  0  0  0  0  0  0
   15.6321  -23.4830  -14.2540 O   0  0  0  0  0  0  0  0  0  0  0  0
   15.5901  -21.1727  -14.1771 O   0  0  0  0  0  0  0  0  0  0  0  0
  2  1  1  1
  2  3  1  0
  4  2  1  0
  4  5  1  1
  6  4  1  0
  6  7  2  0
  8  9  1  0
  9 10  2  0
 10 11  1  0
 12 13  1  0
 12 11  2  0
 14 13  1  1
 14 15  1  0
 15  6  1  0
 16 14  1  0
 17 16  2  0
 18 12  1  0
 19 18  2  0
 19  9  1  0
 20 21  1  0
 21 22  2  0
 21 23  1  0
 24 23  1  6
 24 25  1  0
 24 26  1  0
 25 16  1  0
 26 28  1  0
 27 26  2  0
M  END
$$$$
