NMK.pdb
     RDKit          3D

 26 25  0  0  1  0  0  0  0  0999 V2000
   22.2091   -6.0386  -12.9863 N   0  0  0  0  0  0  0  0  0  0  0  0
   21.3765   -6.4217  -14.0549 C   0  0  0  0  0  0  0  0  0  0  0  0
   21.8218   -6.4188  -15.2170 O   0  0  0  0  0  0  0  0  0  0  0  0
   19.9866   -6.8227  -13.7887 C   0  0  0  0  0  0  0  0  0  0  0  0
   19.6336   -6.7197  -12.3320 C   0  0  2  0  0  0  0  0  0  0  0  0
   20.4916   -7.6238  -11.5927 N   0  0  0  0  0  0  0  0  0  0  0  0
   18.2253   -6.9244  -12.0221 C   0  0  0  0  0  0  0  0  0  0  0  0
   17.3749   -6.1921  -12.6203 O   0  0  0  0  0  0  0  0  0  0  0  0
   13.1176  -12.0955   -8.7689 C   0  0  0  0  0  0  0  0  0  0  0  0
   14.6844  -11.5880   -9.4135 S   0  0  0  0  0  0  0  0  0  0  0  0
   14.7809   -9.8685   -9.8967 C   0  0  0  0  0  0  0  0  0  0  0  0
   16.1035   -9.4250  -10.3888 C   0  0  0  0  0  0  0  0  0  0  0  0
   16.2433   -8.0010  -10.8443 C   0  0  2  0  0  0  0  0  0  0  0  0
   17.7153   -7.8641  -11.1161 N   0  0  0  0  0  0  0  0  0  0  0  0
   16.0742   -7.0738   -9.6580 C   0  0  0  0  0  0  0  0  0  0  0  0
   17.1237   -6.7034   -9.0131 O   0  0  0  0  0  0  0  0  0  0  0  0
   14.8246   -6.6048   -9.2394 N   0  0  0  0  0  0  0  0  0  0  0  0
   14.7622   -5.5349   -8.2163 C   0  0  1  0  0  0  0  0  0  0  0  0
   15.6429   -4.4015   -8.5994 C   0  0  0  0  0  0  0  0  0  0  0  0
   15.5404   -3.1682   -7.7756 C   0  0  0  0  0  0  0  0  0  0  0  0
   16.5440   -2.1174   -8.1066 C   0  0  0  0  0  0  0  0  0  0  0  0
   16.4141   -0.9476   -7.1595 C   0  0  0  0  0  0  0  0  0  0  0  0
   17.5586   -0.0841   -7.4323 N   0  0  0  0  0  0  0  0  0  0  0  0
   13.3528   -5.2862   -7.9547 C   0  0  0  0  0  0  0  0  0  0  0  0
   12.8839   -4.6804   -6.8105 O   0  0  0  0  0  0  0  0  0  0  0  0
   12.4521   -5.6295   -8.7947 O   0  0  0  0  0  0  0  0  0  0  0  0
  2  1  1  0
  2  3  2  0
  4  2  1  0
  5  4  1  0
  5  7  1  0
  5  6  1  1
  7  8  2  0
  9 10  1  0
 10 11  1  0
 11 12  1  0
 13 12  1  1
 14  7  1  0
 14 13  1  0
 15 13  1  0
 15 16  2  0
 17 15  1  0
 18 17  1  0
 18 24  1  0
 18 19  1  6
 20 21  1  0
 20 19  1  0
 22 21  1  0
 23 22  1  0
 24 25  1  0
 26 24  2  0
M  END
$$$$
