NMK.pdb
     RDKit          3D

 26 25  0  0  1  0  0  0  0  0999 V2000
   14.2125   -9.2917  -17.3942 N   0  0  0  0  0  0  0  0  0  0  0  0
   13.4169   -9.1648  -16.2397 C   0  0  0  0  0  0  0  0  0  0  0  0
   12.1796   -9.0854  -16.3476 O   0  0  0  0  0  0  0  0  0  0  0  0
   14.0549   -9.1275  -14.9150 C   0  0  0  0  0  0  0  0  0  0  0  0
   15.5506   -9.2405  -15.0003 C   0  0  2  0  0  0  0  0  0  0  0  0
   15.8851  -10.6208  -15.2887 N   0  0  0  0  0  0  0  0  0  0  0  0
   16.2751   -8.7312  -13.8441 C   0  0  0  0  0  0  0  0  0  0  0  0
   16.3201   -9.4623  -12.8044 O   0  0  0  0  0  0  0  0  0  0  0  0
   22.4627   -7.6215  -10.8428 C   0  0  0  0  0  0  0  0  0  0  0  0
   21.0980   -7.8244  -11.9493 S   0  0  0  0  0  0  0  0  0  0  0  0
   20.1556   -6.3374  -12.2665 C   0  0  0  0  0  0  0  0  0  0  0  0
   18.9866   -6.5094  -13.1562 C   0  0  0  0  0  0  0  0  0  0  0  0
   17.7307   -7.0820  -12.5650 C   0  0  2  0  0  0  0  0  0  0  0  0
   16.9345   -7.4968  -13.7706 N   0  0  0  0  0  0  0  0  0  0  0  0
   16.8742   -5.9586  -12.0172 C   0  0  0  0  0  0  0  0  0  0  0  0
   16.2471   -5.2029  -12.8481 O   0  0  0  0  0  0  0  0  0  0  0  0
   16.7379   -5.7135  -10.6469 N   0  0  0  0  0  0  0  0  0  0  0  0
   15.8069   -4.6538  -10.1934 C   0  0  1  0  0  0  0  0  0  0  0  0
   14.9977   -5.1340   -9.0438 C   0  0  0  0  0  0  0  0  0  0  0  0
   14.1571   -4.1228   -8.3502 C   0  0  0  0  0  0  0  0  0  0  0  0
   13.3428   -4.6618   -7.2244 C   0  0  0  0  0  0  0  0  0  0  0  0
   12.3948   -3.6055   -6.7069 C   0  0  0  0  0  0  0  0  0  0  0  0
   11.7207   -4.2023   -5.5583 N   0  0  0  0  0  0  0  0  0  0  0  0
   16.5920   -3.4369  -10.0542 C   0  0  0  0  0  0  0  0  0  0  0  0
   16.0578   -2.1702  -10.1334 O   0  0  0  0  0  0  0  0  0  0  0  0
   17.8532   -3.4817   -9.8490 O   0  0  0  0  0  0  0  0  0  0  0  0
  2  1  1  0
  2  3  2  0
  4  2  1  0
  5  4  1  0
  5  7  1  0
  5  6  1  1
  7  8  2  0
  9 10  1  0
 10 11  1  0
 11 12  1  0
 13 12  1  6
 14  7  1  0
 14 13  1  0
 15 13  1  0
 15 16  2  0
 17 15  1  0
 18 17  1  0
 18 24  1  0
 18 19  1  1
 20 21  1  0
 20 19  1  0
 22 21  1  0
 23 22  1  0
 24 25  1  0
 26 24  2  0
M  END
$$$$
