NMK.pdb
     RDKit          3D

 26 25  0  0  1  0  0  0  0  0999 V2000
   28.1714  -20.4475  -17.1349 N   0  0  0  0  0  0  0  0  0  0  0  0
   28.6118  -21.6050  -16.4655 C   0  0  0  0  0  0  0  0  0  0  0  0
   29.3579  -22.4111  -17.0507 O   0  0  0  0  0  0  0  0  0  0  0  0
   28.1864  -21.8521  -15.0793 C   0  0  0  0  0  0  0  0  0  0  0  0
   27.2171  -20.8145  -14.5880 C   0  0  2  0  0  0  0  0  0  0  0  0
   27.9503  -19.5882  -14.3455 N   0  0  0  0  0  0  0  0  0  0  0  0
   26.4182  -21.2120  -13.4369 C   0  0  0  0  0  0  0  0  0  0  0  0
   25.7383  -22.2828  -13.5295 O   0  0  0  0  0  0  0  0  0  0  0  0
   27.0490  -19.0129   -7.1040 C   0  0  0  0  0  0  0  0  0  0  0  0
   28.0361  -20.1978   -7.9697 S   0  0  0  0  0  0  0  0  0  0  0  0
   27.1863  -21.0810   -9.2725 C   0  0  0  0  0  0  0  0  0  0  0  0
   26.0506  -20.3594   -9.8868 C   0  0  0  0  0  0  0  0  0  0  0  0
   25.4181  -20.9553  -11.1113 C   0  0  2  0  0  0  0  0  0  0  0  0
   26.3286  -20.5162  -12.2238 N   0  0  0  0  0  0  0  0  0  0  0  0
   24.1526  -20.1924  -11.4465 C   0  0  0  0  0  0  0  0  0  0  0  0
   24.2596  -19.0507  -12.0294 O   0  0  0  0  0  0  0  0  0  0  0  0
   22.8762  -20.6811  -11.1492 N   0  0  0  0  0  0  0  0  0  0  0  0
   21.7615  -20.4014  -12.0844 C   0  0  1  0  0  0  0  0  0  0  0  0
   22.1335  -20.8009  -13.4660 C   0  0  0  0  0  0  0  0  0  0  0  0
   21.0899  -20.6376  -14.5122 C   0  0  0  0  0  0  0  0  0  0  0  0
   21.5297  -21.0048  -15.8880 C   0  0  0  0  0  0  0  0  0  0  0  0
   20.3978  -20.8170  -16.8708 C   0  0  0  0  0  0  0  0  0  0  0  0
   20.9575  -21.1131  -18.1857 N   0  0  0  0  0  0  0  0  0  0  0  0
   20.5588  -20.9550  -11.4813 C   0  0  0  0  0  0  0  0  0  0  0  0
   20.5192  -22.1687  -10.8322 O   0  0  0  0  0  0  0  0  0  0  0  0
   19.4455  -20.3278  -11.5268 O   0  0  0  0  0  0  0  0  0  0  0  0
  2  1  1  0
  2  3  2  0
  4  2  1  0
  5  4  1  0
  5  7  1  0
  5  6  1  1
  7  8  2  0
  9 10  1  0
 10 11  1  0
 11 12  1  0
 13 12  1  1
 14  7  1  0
 14 13  1  0
 15 13  1  0
 15 16  2  0
 17 15  1  0
 18 17  1  0
 18 24  1  0
 18 19  1  6
 20 21  1  0
 20 19  1  0
 22 21  1  0
 23 22  1  0
 24 25  1  0
 26 24  2  0
M  END
$$$$
