NMK.pdb
     RDKit          3D

 26 25  0  0  1  0  0  0  0  0999 V2000
   28.2417  -17.1165  -15.8285 N   0  0  0  0  0  0  0  0  0  0  0  0
   27.8228  -18.2519  -16.5478 C   0  0  0  0  0  0  0  0  0  0  0  0
   28.2740  -18.4620  -17.6884 O   0  0  0  0  0  0  0  0  0  0  0  0
   26.8549  -19.1809  -15.9448 C   0  0  0  0  0  0  0  0  0  0  0  0
   27.4955  -20.0987  -14.9424 C   0  0  2  0  0  0  0  0  0  0  0  0
   28.3754  -21.0039  -15.6542 N   0  0  0  0  0  0  0  0  0  0  0  0
   26.5668  -20.8078  -14.0729 C   0  0  0  0  0  0  0  0  0  0  0  0
   26.0668  -21.8954  -14.5023 O   0  0  0  0  0  0  0  0  0  0  0  0
   25.2576  -20.1923   -7.2948 C   0  0  0  0  0  0  0  0  0  0  0  0
   26.7634  -20.5282   -8.1595 S   0  0  0  0  0  0  0  0  0  0  0  0
   26.5561  -21.2133   -9.7987 C   0  0  0  0  0  0  0  0  0  0  0  0
   25.4208  -20.6652  -10.5724 C   0  0  0  0  0  0  0  0  0  0  0  0
   25.1983  -21.1890  -11.9619 C   0  0  2  0  0  0  0  0  0  0  0  0
   26.1693  -20.3979  -12.7932 N   0  0  0  0  0  0  0  0  0  0  0  0
   23.8730  -20.6760  -12.4873 C   0  0  0  0  0  0  0  0  0  0  0  0
   23.7791  -19.4345  -12.8105 O   0  0  0  0  0  0  0  0  0  0  0  0
   22.7513  -21.4984  -12.6359 N   0  0  0  0  0  0  0  0  0  0  0  0
   21.5493  -20.9619  -13.3160 C   0  0  1  0  0  0  0  0  0  0  0  0
   21.5802  -21.2992  -14.7625 C   0  0  0  0  0  0  0  0  0  0  0  0
   20.4369  -20.8216  -15.5841 C   0  0  0  0  0  0  0  0  0  0  0  0
   20.5017  -21.2113  -17.0211 C   0  0  0  0  0  0  0  0  0  0  0  0
   19.3115  -20.6603  -17.7708 C   0  0  0  0  0  0  0  0  0  0  0  0
   19.4612  -21.1172  -19.1487 N   0  0  0  0  0  0  0  0  0  0  0  0
   20.4015  -21.3593  -12.5153 C   0  0  0  0  0  0  0  0  0  0  0  0
   19.1815  -20.7225  -12.5606 O   0  0  0  0  0  0  0  0  0  0  0  0
   20.4689  -22.3450  -11.7037 O   0  0  0  0  0  0  0  0  0  0  0  0
  2  1  1  0
  2  3  2  0
  4  2  1  0
  5  4  1  0
  5  7  1  0
  5  6  1  6
  7  8  2  0
  9 10  1  0
 10 11  1  0
 11 12  1  0
 13 12  1  1
 14  7  1  0
 14 13  1  0
 15 13  1  0
 15 16  2  0
 17 15  1  0
 18 17  1  0
 18 24  1  0
 18 19  1  6
 20 21  1  0
 20 19  1  0
 22 21  1  0
 23 22  1  0
 24 25  1  0
 26 24  2  0
M  END
$$$$
