NMK.pdb
     RDKit          3D

 26 25  0  0  1  0  0  0  0  0999 V2000
   18.9753  -23.2849   -6.8214 N   0  0  0  0  0  0  0  0  0  0  0  0
   18.9336  -22.6745   -8.0893 C   0  0  0  0  0  0  0  0  0  0  0  0
   18.0453  -22.9943   -8.9001 O   0  0  0  0  0  0  0  0  0  0  0  0
   19.9405  -21.6631   -8.4451 C   0  0  0  0  0  0  0  0  0  0  0  0
   20.9750  -22.1992   -9.3937 C   0  0  2  0  0  0  0  0  0  0  0  0
   21.2723  -23.5661   -9.0149 N   0  0  0  0  0  0  0  0  0  0  0  0
   22.1798  -21.3898   -9.5151 C   0  0  0  0  0  0  0  0  0  0  0  0
   22.0397  -20.1592   -9.8035 O   0  0  0  0  0  0  0  0  0  0  0  0
   27.7399  -18.1711   -7.1162 C   0  0  0  0  0  0  0  0  0  0  0  0
   27.3061  -19.8740   -6.9166 S   0  0  0  0  0  0  0  0  0  0  0  0
   26.9754  -20.7524   -8.4392 C   0  0  0  0  0  0  0  0  0  0  0  0
   25.6583  -21.4222   -8.5077 C   0  0  0  0  0  0  0  0  0  0  0  0
   24.6873  -20.9592   -9.5552 C   0  0  2  0  0  0  0  0  0  0  0  0
   23.4931  -21.8468   -9.3413 N   0  0  0  0  0  0  0  0  0  0  0  0
   25.1588  -21.4217  -10.9188 C   0  0  0  0  0  0  0  0  0  0  0  0
   24.9810  -22.6531  -11.2454 O   0  0  0  0  0  0  0  0  0  0  0  0
   25.7766  -20.5633  -11.8343 N   0  0  0  0  0  0  0  0  0  0  0  0
   25.7718  -20.9195  -13.2725 C   0  0  1  0  0  0  0  0  0  0  0  0
   24.5229  -20.4410  -13.9192 C   0  0  0  0  0  0  0  0  0  0  0  0
   24.3797  -20.7085  -15.3747 C   0  0  0  0  0  0  0  0  0  0  0  0
   23.1458  -20.1427  -15.9897 C   0  0  0  0  0  0  0  0  0  0  0  0
   23.0972  -20.4643  -17.4650 C   0  0  0  0  0  0  0  0  0  0  0  0
   21.9128  -19.7867  -17.9825 N   0  0  0  0  0  0  0  0  0  0  0  0
   27.0580  -20.5053  -13.8117 C   0  0  0  0  0  0  0  0  0  0  0  0
   27.7514  -21.2172  -14.7649 O   0  0  0  0  0  0  0  0  0  0  0  0
   27.6282  -19.4317  -13.4153 O   0  0  0  0  0  0  0  0  0  0  0  0
  2  1  1  0
  2  3  2  0
  4  2  1  0
  5  4  1  0
  5  7  1  0
  5  6  1  1
  7  8  2  0
  9 10  1  0
 10 11  1  0
 11 12  1  0
 13 12  1  1
 14  7  1  0
 14 13  1  0
 15 13  1  0
 15 16  2  0
 17 15  1  0
 18 17  1  0
 18 24  1  0
 18 19  1  6
 20 21  1  0
 20 19  1  0
 22 21  1  0
 23 22  1  0
 24 25  1  0
 26 24  2  0
M  END
$$$$
