NMK.pdb
     RDKit          3D

 26 25  0  0  1  0  0  0  0  0999 V2000
   28.6976  -18.4305  -17.2836 N   0  0  0  0  0  0  0  0  0  0  0  0
   29.3114  -19.6753  -17.0477 C   0  0  0  0  0  0  0  0  0  0  0  0
   30.2560  -20.0450  -17.7687 O   0  0  0  0  0  0  0  0  0  0  0  0
   28.8312  -20.5287  -15.9502 C   0  0  0  0  0  0  0  0  0  0  0  0
   27.6330  -19.9443  -15.2573 C   0  0  2  0  0  0  0  0  0  0  0  0
   27.9806  -18.6158  -14.7941 N   0  0  0  0  0  0  0  0  0  0  0  0
   27.0732  -20.7664  -14.1934 C   0  0  0  0  0  0  0  0  0  0  0  0
   26.7829  -21.9736  -14.4685 O   0  0  0  0  0  0  0  0  0  0  0  0
   28.1117  -20.4871   -7.6878 C   0  0  0  0  0  0  0  0  0  0  0  0
   26.3474  -20.4933   -7.8108 S   0  0  0  0  0  0  0  0  0  0  0  0
   25.7016  -21.0694   -9.3762 C   0  0  0  0  0  0  0  0  0  0  0  0
   26.4714  -20.6517  -10.5682 C   0  0  0  0  0  0  0  0  0  0  0  0
   26.0387  -21.1794  -11.9056 C   0  0  2  0  0  0  0  0  0  0  0  0
   26.8224  -20.3457  -12.8804 N   0  0  0  0  0  0  0  0  0  0  0  0
   24.6239  -20.7203  -12.1945 C   0  0  0  0  0  0  0  0  0  0  0  0
   24.4177  -19.4713  -12.4225 O   0  0  0  0  0  0  0  0  0  0  0  0
   23.5369  -21.6001  -12.2248 N   0  0  0  0  0  0  0  0  0  0  0  0
   22.2996  -21.1929  -12.9310 C   0  0  1  0  0  0  0  0  0  0  0  0
   21.9507  -22.1879  -13.9775 C   0  0  0  0  0  0  0  0  0  0  0  0
   20.6552  -21.9916  -14.6800 C   0  0  0  0  0  0  0  0  0  0  0  0
   20.3890  -22.9697  -15.7725 C   0  0  0  0  0  0  0  0  0  0  0  0
   19.0428  -22.7014  -16.4035 C   0  0  0  0  0  0  0  0  0  0  0  0
   18.9040  -23.6786  -17.4785 N   0  0  0  0  0  0  0  0  0  0  0  0
   21.3210  -20.8625  -11.9064 C   0  0  0  0  0  0  0  0  0  0  0  0
   20.3469  -19.9018  -12.0623 O   0  0  0  0  0  0  0  0  0  0  0  0
   21.3167  -21.4608  -10.7764 O   0  0  0  0  0  0  0  0  0  0  0  0
  2  1  1  0
  2  3  2  0
  4  2  1  0
  5  4  1  0
  5  7  1  0
  5  6  1  1
  7  8  2  0
  9 10  1  0
 10 11  1  0
 11 12  1  0
 13 12  1  1
 14  7  1  0
 14 13  1  0
 15 13  1  0
 15 16  2  0
 17 15  1  0
 18 17  1  0
 18 24  1  0
 18 19  1  1
 20 21  1  0
 20 19  1  0
 22 21  1  0
 23 22  1  0
 24 25  1  0
 26 24  2  0
M  END
$$$$
