PDI.pdb
     RDKit          3D

 24 24  0  0  1  0  0  0  0  0999 V2000
   19.0918  -13.6579  -17.9289 N   0  0  0  0  0  0  0  0  0  0  0  0
   17.8904  -14.4552  -18.1012 C   0  0  0  0  0  0  0  0  0  0  0  0
   16.7185  -13.5679  -17.7583 C   0  0  0  0  0  0  0  0  0  0  0  0
   17.3922  -12.3338  -17.1985 C   0  0  0  0  0  0  0  0  0  0  0  0
   18.6474  -12.2735  -18.0464 C   0  0  1  0  0  0  0  0  0  0  0  0
   19.6558  -11.3414  -17.4687 C   0  0  0  0  0  0  0  0  0  0  0  0
   20.2209  -11.5917  -16.3727 O   0  0  0  0  0  0  0  0  0  0  0  0
   19.9632  -10.1656  -18.1834 N   0  0  0  0  0  0  0  0  0  0  0  0
   20.7681   -9.0585  -17.7994 C   0  0  1  0  0  0  0  0  0  0  0  0
   21.0950   -8.0586  -18.8971 C   0  0  0  0  0  0  0  0  0  0  0  0
   21.6721   -8.7415  -20.0909 C   0  0  0  0  0  0  0  0  0  0  0  0
   21.2968   -8.3255  -21.2380 O   0  0  0  0  0  0  0  0  0  0  0  0
   20.4859   -8.4569  -16.4992 C   0  0  0  0  0  0  0  0  0  0  0  0
   19.3195   -8.2876  -16.0807 O   0  0  0  0  0  0  0  0  0  0  0  0
   22.5659   -9.7714  -20.0460 O   0  0  0  0  0  0  0  0  0  0  0  0
   19.8946   -8.8311  -11.5546 C   0  0  0  0  0  0  0  0  0  0  0  0
   21.2856   -8.3920  -11.9140 C   0  0  0  0  0  0  0  0  0  0  0  0
   21.5592   -8.8222  -13.3477 C   0  0  2  0  0  0  0  0  0  0  0  0
   23.0350   -9.1358  -13.4521 C   0  0  0  0  0  0  0  0  0  0  0  0
   21.2671   -7.6734  -14.2986 C   0  0  2  0  0  0  0  0  0  0  0  0
   21.5565   -8.0432  -15.6651 N   0  0  0  0  0  0  0  0  0  0  0  0
   21.9523   -6.4262  -13.9014 C   0  0  0  0  0  0  0  0  0  0  0  0
   21.2118   -5.4432  -13.2567 O   0  0  0  0  0  0  0  0  0  0  0  0
   23.1675   -6.2242  -14.1226 O   0  0  0  0  0  0  0  0  0  0  0  0
  1  5  1  0
  1  2  1  0
  2  3  1  0
  4  5  1  0
  4  3  1  0
  6  7  2  0
  5  6  1  1
  8  6  1  0
  9 13  1  0
  9  8  1  0
  9 10  1  6
 11 10  1  0
 12 11  2  0
 13 21  1  0
 14 13  2  0
 15 11  1  0
 16 17  1  0
 18 17  1  0
 18 20  1  0
 18 19  1  1
 20 22  1  0
 20 21  1  6
 22 24  2  0
 22 23  1  0
M  END
$$$$
