PDI.pdb
     RDKit          3D

 24 24  0  0  1  0  0  0  0  0999 V2000
   27.8356  -22.5141  -17.9281 N   0  0  0  0  0  0  0  0  0  0  0  0
   28.8029  -22.8715  -18.9506 C   0  0  0  0  0  0  0  0  0  0  0  0
   29.8576  -21.7918  -18.9574 C   0  0  0  0  0  0  0  0  0  0  0  0
   29.2705  -20.7516  -18.0281 C   0  0  0  0  0  0  0  0  0  0  0  0
   28.5549  -21.6285  -17.0194 C   0  0  1  0  0  0  0  0  0  0  0  0
   27.6061  -20.8413  -16.1831 C   0  0  0  0  0  0  0  0  0  0  0  0
   28.0181  -19.9554  -15.3902 O   0  0  0  0  0  0  0  0  0  0  0  0
   26.2280  -21.1144  -16.3020 N   0  0  0  0  0  0  0  0  0  0  0  0
   25.1240  -20.4910  -15.6589 C   0  0  1  0  0  0  0  0  0  0  0  0
   23.9870  -20.0476  -16.5657 C   0  0  0  0  0  0  0  0  0  0  0  0
   22.9544  -19.2904  -15.8009 C   0  0  0  0  0  0  0  0  0  0  0  0
   21.9395  -19.9450  -15.3873 O   0  0  0  0  0  0  0  0  0  0  0  0
   24.6935  -21.0617  -14.3858 C   0  0  0  0  0  0  0  0  0  0  0  0
   24.0732  -22.1455  -14.3155 O   0  0  0  0  0  0  0  0  0  0  0  0
   23.0156  -17.9580  -15.5134 O   0  0  0  0  0  0  0  0  0  0  0  0
   27.6067  -20.6507   -9.8066 C   0  0  0  0  0  0  0  0  0  0  0  0
   26.7388  -21.1553  -10.9241 C   0  0  0  0  0  0  0  0  0  0  0  0
   25.3580  -20.5361  -10.7640 C   0  0  2  0  0  0  0  0  0  0  0  0
   24.7421  -21.1214   -9.5128 C   0  0  0  0  0  0  0  0  0  0  0  0
   24.4742  -20.9292  -11.9360 C   0  0  2  0  0  0  0  0  0  0  0  0
   24.9783  -20.3807  -13.1741 N   0  0  0  0  0  0  0  0  0  0  0  0
   23.0551  -20.5853  -11.7107 C   0  0  0  0  0  0  0  0  0  0  0  0
   22.2248  -21.5466  -11.1478 O   0  0  0  0  0  0  0  0  0  0  0  0
   22.5767  -19.4671  -12.0061 O   0  0  0  0  0  0  0  0  0  0  0  0
  1  5  1  0
  1  2  1  0
  2  3  1  0
  4  5  1  0
  4  3  1  0
  6  7  2  0
  5  6  1  6
  8  6  1  0
  9 13  1  0
  9  8  1  0
  9 10  1  6
 11 10  1  0
 12 11  2  0
 13 21  1  0
 14 13  2  0
 15 11  1  0
 16 17  1  0
 18 17  1  0
 18 20  1  0
 18 19  1  1
 20 22  1  0
 20 21  1  6
 22 24  2  0
 22 23  1  0
M  END
$$$$
