PDI.pdb
     RDKit          3D

 24 24  0  0  1  0  0  0  0  0999 V2000
   27.9457  -20.6094  -15.4493 N   0  0  0  0  0  0  0  0  0  0  0  0
   28.5707  -20.3889  -16.7414 C   0  0  0  0  0  0  0  0  0  0  0  0
   28.7244  -18.8967  -16.9087 C   0  0  0  0  0  0  0  0  0  0  0  0
   27.9547  -18.3514  -15.7253 C   0  0  0  0  0  0  0  0  0  0  0  0
   28.2400  -19.4080  -14.6764 C   0  0  1  0  0  0  0  0  0  0  0  0
   27.3196  -19.2875  -13.5112 C   0  0  0  0  0  0  0  0  0  0  0  0
   27.3299  -18.2659  -12.7766 O   0  0  0  0  0  0  0  0  0  0  0  0
   26.4321  -20.3513  -13.2498 N   0  0  0  0  0  0  0  0  0  0  0  0
   25.3155  -20.4022  -12.3714 C   0  0  1  0  0  0  0  0  0  0  0  0
   23.9763  -20.7293  -13.0126 C   0  0  0  0  0  0  0  0  0  0  0  0
   22.8658  -20.6175  -12.0234 C   0  0  0  0  0  0  0  0  0  0  0  0
   22.7202  -19.4937  -11.4357 O   0  0  0  0  0  0  0  0  0  0  0  0
   25.5290  -21.0248  -11.0680 C   0  0  0  0  0  0  0  0  0  0  0  0
   25.8413  -22.2299  -10.9468 O   0  0  0  0  0  0  0  0  0  0  0  0
   22.0002  -21.6226  -11.7033 O   0  0  0  0  0  0  0  0  0  0  0  0
   28.1345  -18.5939   -7.1719 C   0  0  0  0  0  0  0  0  0  0  0  0
   27.5918  -19.6672   -8.0721 C   0  0  0  0  0  0  0  0  0  0  0  0
   26.1929  -20.0227   -7.5901 C   0  0  2  0  0  0  0  0  0  0  0  0
   26.3430  -20.8168   -6.3118 C   0  0  0  0  0  0  0  0  0  0  0  0
   25.5059  -20.9185   -8.6073 C   0  0  2  0  0  0  0  0  0  0  0  0
   25.3829  -20.2552   -9.8851 N   0  0  0  0  0  0  0  0  0  0  0  0
   24.2099  -21.4332   -8.1192 C   0  0  0  0  0  0  0  0  0  0  0  0
   24.2181  -22.4587   -7.1819 O   0  0  0  0  0  0  0  0  0  0  0  0
   23.1121  -20.9821   -8.5163 O   0  0  0  0  0  0  0  0  0  0  0  0
  1  5  1  0
  1  2  1  0
  2  3  1  0
  4  5  1  0
  4  3  1  0
  6  7  2  0
  5  6  1  1
  8  6  1  0
  9 13  1  0
  9  8  1  0
  9 10  1  6
 11 10  1  0
 12 11  2  0
 13 21  1  0
 14 13  2  0
 15 11  1  0
 16 17  1  0
 18 17  1  0
 18 20  1  0
 18 19  1  1
 20 22  1  0
 20 21  1  6
 22 24  2  0
 22 23  1  0
M  END
$$$$
