PDI.pdb
     RDKit          3D

 24 24  0  0  1  0  0  0  0  0999 V2000
   27.1872  -19.3590  -16.4628 N   0  0  0  0  0  0  0  0  0  0  0  0
   27.6406  -18.7221  -17.6865 C   0  0  0  0  0  0  0  0  0  0  0  0
   28.0305  -17.3082  -17.3302 C   0  0  0  0  0  0  0  0  0  0  0  0
   27.5562  -17.1864  -15.8982 C   0  0  0  0  0  0  0  0  0  0  0  0
   27.8030  -18.5918  -15.3860 C   0  0  1  0  0  0  0  0  0  0  0  0
   27.1039  -18.8355  -14.0932 C   0  0  0  0  0  0  0  0  0  0  0  0
   27.3316  -18.1180  -13.0849 O   0  0  0  0  0  0  0  0  0  0  0  0
   26.1762  -19.8950  -14.0264 N   0  0  0  0  0  0  0  0  0  0  0  0
   25.2187  -20.1962  -13.0197 C   0  0  1  0  0  0  0  0  0  0  0  0
   23.8937  -20.7609  -13.5066 C   0  0  0  0  0  0  0  0  0  0  0  0
   23.1853  -19.7863  -14.3858 C   0  0  0  0  0  0  0  0  0  0  0  0
   22.7391  -20.2236  -15.4990 O   0  0  0  0  0  0  0  0  0  0  0  0
   25.7211  -20.8076  -11.7926 C   0  0  0  0  0  0  0  0  0  0  0  0
   26.2180  -21.9553  -11.7733 O   0  0  0  0  0  0  0  0  0  0  0  0
   22.9812  -18.4705  -14.0884 O   0  0  0  0  0  0  0  0  0  0  0  0
   28.6564  -19.6371   -6.7365 C   0  0  0  0  0  0  0  0  0  0  0  0
   27.6625  -20.5457   -7.4026 C   0  0  0  0  0  0  0  0  0  0  0  0
   27.1091  -19.8239   -8.6226 C   0  0  2  0  0  0  0  0  0  0  0  0
   26.3236  -18.6312   -8.1249 C   0  0  0  0  0  0  0  0  0  0  0  0
   26.1426  -20.7300   -9.3671 C   0  0  2  0  0  0  0  0  0  0  0  0
   25.6539  -20.0933  -10.5686 N   0  0  0  0  0  0  0  0  0  0  0  0
   25.0438  -21.2106   -8.5042 C   0  0  0  0  0  0  0  0  0  0  0  0
   23.7598  -20.7388   -8.7470 O   0  0  0  0  0  0  0  0  0  0  0  0
   25.2261  -22.0222   -7.5691 O   0  0  0  0  0  0  0  0  0  0  0  0
  1  5  1  0
  1  2  1  0
  2  3  1  0
  4  5  1  0
  4  3  1  0
  6  7  2  0
  5  6  1  1
  8  6  1  0
  9 13  1  0
  9  8  1  0
  9 10  1  6
 11 10  1  0
 12 11  2  0
 13 21  1  0
 14 13  2  0
 15 11  1  0
 16 17  1  0
 18 17  1  0
 18 20  1  0
 18 19  1  1
 20 22  1  0
 20 21  1  6
 22 24  2  0
 22 23  1  0
M  END
$$$$
