PDI.pdb
     RDKit          3D

 24 24  0  0  1  0  0  0  0  0999 V2000
   26.5667  -21.9261  -16.5255 N   0  0  0  0  0  0  0  0  0  0  0  0
   27.1657  -22.0468  -17.8428 C   0  0  0  0  0  0  0  0  0  0  0  0
   28.5171  -21.3778  -17.7765 C   0  0  0  0  0  0  0  0  0  0  0  0
   28.4939  -20.7226  -16.4125 C   0  0  0  0  0  0  0  0  0  0  0  0
   27.6897  -21.7307  -15.6154 C   0  0  1  0  0  0  0  0  0  0  0  0
   27.2289  -21.1624  -14.3177 C   0  0  0  0  0  0  0  0  0  0  0  0
   28.0499  -20.7230  -13.4714 O   0  0  0  0  0  0  0  0  0  0  0  0
   25.8433  -21.1287  -14.0591 N   0  0  0  0  0  0  0  0  0  0  0  0
   25.1416  -20.5534  -12.9648 C   0  0  1  0  0  0  0  0  0  0  0  0
   23.6706  -20.2500  -13.2008 C   0  0  0  0  0  0  0  0  0  0  0  0
   23.4653  -19.5773  -14.5161 C   0  0  0  0  0  0  0  0  0  0  0  0
   23.9367  -18.3982  -14.6470 O   0  0  0  0  0  0  0  0  0  0  0  0
   25.4440  -21.0795  -11.6368 C   0  0  0  0  0  0  0  0  0  0  0  0
   25.4633  -22.3062  -11.3930 O   0  0  0  0  0  0  0  0  0  0  0  0
   22.8147  -20.1271  -15.5819 O   0  0  0  0  0  0  0  0  0  0  0  0
   28.5907  -19.6846   -6.6408 C   0  0  0  0  0  0  0  0  0  0  0  0
   27.5505  -20.5552   -7.2865 C   0  0  0  0  0  0  0  0  0  0  0  0
   27.0966  -19.8736   -8.5691 C   0  0  2  0  0  0  0  0  0  0  0  0
   26.4160  -18.5809   -8.1780 C   0  0  0  0  0  0  0  0  0  0  0  0
   26.0665  -20.7367   -9.2785 C   0  0  2  0  0  0  0  0  0  0  0  0
   25.7294  -20.1870  -10.5715 N   0  0  0  0  0  0  0  0  0  0  0  0
   24.8696  -20.9817   -8.4476 C   0  0  0  0  0  0  0  0  0  0  0  0
   23.6672  -20.4041   -8.8361 O   0  0  0  0  0  0  0  0  0  0  0  0
   24.8989  -21.6863   -7.4136 O   0  0  0  0  0  0  0  0  0  0  0  0
  1  5  1  0
  1  2  1  0
  2  3  1  0
  4  5  1  0
  4  3  1  0
  6  7  2  0
  5  6  1  1
  8  6  1  0
  9 13  1  0
  9  8  1  0
  9 10  1  6
 11 10  1  0
 12 11  2  0
 13 21  1  0
 14 13  2  0
 15 11  1  0
 16 17  1  0
 18 17  1  0
 18 20  1  0
 18 19  1  1
 20 22  1  0
 20 21  1  6
 22 24  2  0
 22 23  1  0
M  END
$$$$
