PDI.pdb
     RDKit          3D

 24 24  0  0  1  0  0  0  0  0999 V2000
   27.4488  -18.3197  -16.7084 N   0  0  0  0  0  0  0  0  0  0  0  0
   28.4282  -17.7582  -17.6218 C   0  0  0  0  0  0  0  0  0  0  0  0
   27.6990  -17.4236  -18.9002 C   0  0  0  0  0  0  0  0  0  0  0  0
   26.3343  -18.0362  -18.6712 C   0  0  0  0  0  0  0  0  0  0  0  0
   26.1617  -17.8216  -17.1805 C   0  0  1  0  0  0  0  0  0  0  0  0
   25.0429  -18.6395  -16.6340 C   0  0  0  0  0  0  0  0  0  0  0  0
   23.8541  -18.4401  -16.9950 O   0  0  0  0  0  0  0  0  0  0  0  0
   25.3498  -19.6478  -15.6975 N   0  0  0  0  0  0  0  0  0  0  0  0
   24.4924  -20.5974  -15.0779 C   0  0  1  0  0  0  0  0  0  0  0  0
   25.1558  -21.8735  -14.5847 C   0  0  0  0  0  0  0  0  0  0  0  0
   24.1381  -22.8939  -14.2006 C   0  0  0  0  0  0  0  0  0  0  0  0
   23.1420  -23.0468  -14.9842 O   0  0  0  0  0  0  0  0  0  0  0  0
   23.4583  -20.0728  -14.1905 C   0  0  0  0  0  0  0  0  0  0  0  0
   23.7319  -19.4471  -13.1427 O   0  0  0  0  0  0  0  0  0  0  0  0
   24.1943  -23.6702  -13.0799 O   0  0  0  0  0  0  0  0  0  0  0  0
   20.5044  -16.4439  -15.4976 C   0  0  0  0  0  0  0  0  0  0  0  0
   21.2789  -17.4647  -14.7135 C   0  0  0  0  0  0  0  0  0  0  0  0
   20.3243  -18.5854  -14.3282 C   0  0  2  0  0  0  0  0  0  0  0  0
   19.3400  -18.0181  -13.3300 C   0  0  0  0  0  0  0  0  0  0  0  0
   21.0877  -19.7014  -13.6345 C   0  0  2  0  0  0  0  0  0  0  0  0
   22.0893  -20.2674  -14.5085 N   0  0  0  0  0  0  0  0  0  0  0  0
   20.1905  -20.7323  -13.0732 C   0  0  0  0  0  0  0  0  0  0  0  0
   19.6090  -20.4968  -11.8336 O   0  0  0  0  0  0  0  0  0  0  0  0
   19.9364  -21.8029  -13.6697 O   0  0  0  0  0  0  0  0  0  0  0  0
  1  5  1  0
  1  2  1  0
  2  3  1  0
  4  5  1  0
  4  3  1  0
  6  7  2  0
  5  6  1  1
  8  6  1  0
  9 13  1  0
  9  8  1  0
  9 10  1  1
 11 10  1  0
 12 11  2  0
 13 21  1  0
 14 13  2  0
 15 11  1  0
 16 17  1  0
 18 17  1  0
 18 20  1  0
 18 19  1  1
 20 22  1  0
 20 21  1  6
 22 24  2  0
 22 23  1  0
M  END
$$$$
