PDI.pdb
     RDKit          3D

 24 24  0  0  1  0  0  0  0  0999 V2000
   26.8077  -20.7823  -14.6907 N   0  0  0  0  0  0  0  0  0  0  0  0
   27.0736  -20.4911  -16.0882 C   0  0  0  0  0  0  0  0  0  0  0  0
   27.6718  -19.1064  -16.1447 C   0  0  0  0  0  0  0  0  0  0  0  0
   27.5060  -18.6175  -14.7222 C   0  0  0  0  0  0  0  0  0  0  0  0
   27.7013  -19.9039  -13.9442 C   0  0  1  0  0  0  0  0  0  0  0  0
   27.2507  -19.7646  -12.5311 C   0  0  0  0  0  0  0  0  0  0  0  0
   27.7543  -18.8986  -11.7697 O   0  0  0  0  0  0  0  0  0  0  0  0
   26.2410  -20.6311  -12.0648 N   0  0  0  0  0  0  0  0  0  0  0  0
   25.4575  -20.5524  -10.8812 C   0  0  1  0  0  0  0  0  0  0  0  0
   23.9913  -20.9282  -11.0253 C   0  0  0  0  0  0  0  0  0  0  0  0
   23.3396  -20.1415  -12.1120 C   0  0  0  0  0  0  0  0  0  0  0  0
   22.5911  -20.7804  -12.9250 O   0  0  0  0  0  0  0  0  0  0  0  0
   26.0809  -21.0160   -9.6450 C   0  0  0  0  0  0  0  0  0  0  0  0
   26.4049  -22.2110   -9.4677 O   0  0  0  0  0  0  0  0  0  0  0  0
   23.4847  -18.7977  -12.2986 O   0  0  0  0  0  0  0  0  0  0  0  0
   29.5977  -19.1650   -5.0699 C   0  0  0  0  0  0  0  0  0  0  0  0
   28.5996  -20.1696   -5.5715 C   0  0  0  0  0  0  0  0  0  0  0  0
   27.9525  -19.6036   -6.8270 C   0  0  2  0  0  0  0  0  0  0  0  0
   27.2069  -18.3504   -6.4261 C   0  0  0  0  0  0  0  0  0  0  0  0
   26.9321  -20.5881   -7.3735 C   0  0  2  0  0  0  0  0  0  0  0  0
   26.3380  -20.0965   -8.5954 N   0  0  0  0  0  0  0  0  0  0  0  0
   25.9145  -20.9595   -6.3688 C   0  0  0  0  0  0  0  0  0  0  0  0
   26.2854  -21.8159   -5.3396 O   0  0  0  0  0  0  0  0  0  0  0  0
   24.7384  -20.5334   -6.4104 O   0  0  0  0  0  0  0  0  0  0  0  0
  1  5  1  0
  1  2  1  0
  2  3  1  0
  4  5  1  0
  4  3  1  0
  6  7  2  0
  5  6  1  1
  8  6  1  0
  9 13  1  0
  9  8  1  0
  9 10  1  6
 11 10  1  0
 12 11  2  0
 13 21  1  0
 14 13  2  0
 15 11  1  0
 16 17  1  0
 18 17  1  0
 18 20  1  0
 18 19  1  1
 20 22  1  0
 20 21  1  6
 22 24  2  0
 22 23  1  0
M  END
$$$$
