AVI.pdb
     RDKit          3D

 21 20  0  0  1  0  0  0  0  0999 V2000
    6.4785  -18.4116   23.6499 C   0  0  0  0  0  0  0  0  0  0  0  0
    6.6146  -18.2232   22.1494 C   0  0  2  0  0  0  0  0  0  0  0  0
    7.1372  -19.3963   21.5036 N   0  0  0  0  0  0  0  0  0  0  0  0
    7.5685  -17.0922   21.9151 C   0  0  0  0  0  0  0  0  0  0  0  0
    8.8027  -17.2766   21.8548 O   0  0  0  0  0  0  0  0  0  0  0  0
    7.9663  -12.2840   20.7750 C   0  0  0  0  0  0  0  0  0  0  0  0
    7.1539  -13.5487   20.8088 C   0  0  1  0  0  0  0  0  0  0  0  0
    6.7851  -13.9157   19.3949 C   0  0  0  0  0  0  0  0  0  0  0  0
    7.8930  -14.6887   21.4660 C   0  0  2  0  0  0  0  0  0  0  0  0
    7.0005  -15.7965   21.7643 N   0  0  0  0  0  0  0  0  0  0  0  0
    8.4075  -14.1673   22.7761 C   0  0  0  0  0  0  0  0  0  0  0  0
    8.9100  -13.0133   22.8796 O   0  0  0  0  0  0  0  0  0  0  0  0
    6.8866  -11.7107   27.2754 C   0  0  0  0  0  0  0  0  0  0  0  0
    7.9608  -12.6807   26.8462 C   0  0  0  0  0  0  0  0  0  0  0  0
    7.6161  -13.3578   25.5534 C   0  0  2  0  0  0  0  0  0  0  0  0
    6.2289  -13.9625   25.6500 C   0  0  0  0  0  0  0  0  0  0  0  0
    8.6448  -14.4044   25.2320 C   0  0  2  0  0  0  0  0  0  0  0  0
    8.3234  -14.9986   23.9230 N   0  0  0  0  0  0  0  0  0  0  0  0
    8.7120  -15.5043   26.2286 C   0  0  0  0  0  0  0  0  0  0  0  0
    8.1609  -16.6145   26.0671 O   0  0  0  0  0  0  0  0  0  0  0  0
    9.4205  -15.3107   27.4121 O   0  0  0  0  0  0  0  0  0  0  0  0
  2  1  1  1
  2  3  1  0
  4 10  1  0
  4  2  1  0
  5  4  2  0
  7  9  1  0
  7  6  1  6
  8  7  1  0
  9 11  1  0
  9 10  1  1
 11 18  1  0
 12 11  2  0
 14 13  1  0
 15 14  1  0
 15 16  1  1
 17 15  1  0
 17 18  1  6
 19 17  1  0
 19 21  1  0
 20 19  2  0
M  END
$$$$
