AVI.pdb
     RDKit          3D

 21 20  0  0  1  0  0  0  0  0999 V2000
    6.8401  -18.6331   24.4356 C   0  0  0  0  0  0  0  0  0  0  0  0
    6.8836  -18.5653   22.9193 C   0  0  2  0  0  0  0  0  0  0  0  0
    7.4511  -19.7533   22.3422 N   0  0  0  0  0  0  0  0  0  0  0  0
    7.7435  -17.3995   22.5380 C   0  0  0  0  0  0  0  0  0  0  0  0
    8.9831  -17.5073   22.4261 O   0  0  0  0  0  0  0  0  0  0  0  0
    7.7349  -12.7074   20.9359 C   0  0  0  0  0  0  0  0  0  0  0  0
    7.0115  -14.0080   21.1498 C   0  0  1  0  0  0  0  0  0  0  0  0
    6.5587  -14.5270   19.8099 C   0  0  0  0  0  0  0  0  0  0  0  0
    7.8719  -15.0367   21.8421 C   0  0  2  0  0  0  0  0  0  0  0  0
    7.0796  -16.1621   22.3091 N   0  0  0  0  0  0  0  0  0  0  0  0
    8.4496  -14.3663   23.0545 C   0  0  0  0  0  0  0  0  0  0  0  0
    8.9352  -13.2018   23.0006 O   0  0  0  0  0  0  0  0  0  0  0  0
    7.1817  -11.2076   27.0489 C   0  0  0  0  0  0  0  0  0  0  0  0
    8.1486  -12.3505   26.8547 C   0  0  0  0  0  0  0  0  0  0  0  0
    7.7807  -13.1970   25.6730 C   0  0  2  0  0  0  0  0  0  0  0  0
    6.3747  -13.7360   25.8514 C   0  0  0  0  0  0  0  0  0  0  0  0
    8.7745  -14.3120   25.5112 C   0  0  2  0  0  0  0  0  0  0  0  0
    8.4462  -15.0659   24.2890 N   0  0  0  0  0  0  0  0  0  0  0  0
    8.7911  -15.2692   26.6474 C   0  0  0  0  0  0  0  0  0  0  0  0
    9.1415  -14.9570   27.8059 O   0  0  0  0  0  0  0  0  0  0  0  0
    8.3999  -16.5889   26.4340 O   0  0  0  0  0  0  0  0  0  0  0  0
  2  1  1  1
  2  3  1  0
  4 10  1  0
  4  2  1  0
  5  4  2  0
  7  9  1  0
  7  6  1  6
  8  7  1  0
  9 11  1  0
  9 10  1  1
 11 18  1  0
 12 11  2  0
 14 13  1  0
 15 14  1  0
 15 16  1  1
 17 15  1  0
 17 18  1  6
 19 17  1  0
 19 21  1  0
 20 19  2  0
M  END
$$$$
