AVI.pdb
     RDKit          3D

 21 20  0  0  1  0  0  0  0  0999 V2000
    7.9953  -18.9069   22.0531 C   0  0  0  0  0  0  0  0  0  0  0  0
    8.0658  -18.2154   20.7031 C   0  0  2  0  0  0  0  0  0  0  0  0
    8.8723  -18.9462   19.7641 N   0  0  0  0  0  0  0  0  0  0  0  0
    8.6884  -16.8689   20.9109 C   0  0  0  0  0  0  0  0  0  0  0  0
    9.9272  -16.7225   20.9798 O   0  0  0  0  0  0  0  0  0  0  0  0
    7.8904  -11.9802   21.0953 C   0  0  0  0  0  0  0  0  0  0  0  0
    7.3654  -13.3635   20.8276 C   0  0  1  0  0  0  0  0  0  0  0  0
    6.9747  -13.4517   19.3753 C   0  0  0  0  0  0  0  0  0  0  0  0
    8.3744  -14.4352   21.1607 C   0  0  2  0  0  0  0  0  0  0  0  0
    7.8000  -15.7636   21.0260 N   0  0  0  0  0  0  0  0  0  0  0  0
    8.7339  -14.2510   22.6064 C   0  0  0  0  0  0  0  0  0  0  0  0
    9.3143  -13.2076   23.0179 O   0  0  0  0  0  0  0  0  0  0  0  0
    6.5962  -11.7329   25.8832 C   0  0  0  0  0  0  0  0  0  0  0  0
    7.6936  -12.6328   25.3687 C   0  0  0  0  0  0  0  0  0  0  0  0
    7.2387  -14.0571   25.2547 C   0  0  2  0  0  0  0  0  0  0  0  0
    6.5388  -14.4715   26.5344 C   0  0  0  0  0  0  0  0  0  0  0  0
    8.4121  -14.9488   24.9629 C   0  0  2  0  0  0  0  0  0  0  0  0
    8.4099  -15.2804   23.5277 N   0  0  0  0  0  0  0  0  0  0  0  0
    8.4001  -16.2235   25.7260 C   0  0  0  0  0  0  0  0  0  0  0  0
    7.6900  -17.2046   25.4170 O   0  0  0  0  0  0  0  0  0  0  0  0
    9.2149  -16.3550   26.8482 O   0  0  0  0  0  0  0  0  0  0  0  0
  2  1  1  1
  2  3  1  0
  4 10  1  0
  4  2  1  0
  5  4  2  0
  7  9  1  0
  7  6  1  6
  8  7  1  0
  9 11  1  0
  9 10  1  1
 11 18  1  0
 12 11  2  0
 14 13  1  0
 15 14  1  0
 15 16  1  1
 17 15  1  0
 17 18  1  6
 19 17  1  0
 19 21  1  0
 20 19  2  0
M  END
$$$$
