AVI.pdb
     RDKit          3D

 21 20  0  0  1  0  0  0  0  0999 V2000
    7.5747  -18.8569   22.5171 C   0  0  0  0  0  0  0  0  0  0  0  0
    7.7267  -18.2938   21.1152 C   0  0  2  0  0  0  0  0  0  0  0  0
    8.4918  -19.1638   20.2643 N   0  0  0  0  0  0  0  0  0  0  0  0
    8.4492  -16.9860   21.2233 C   0  0  0  0  0  0  0  0  0  0  0  0
    9.6970  -16.9244   21.2293 O   0  0  0  0  0  0  0  0  0  0  0  0
    7.9999  -12.0568   21.0698 C   0  0  0  0  0  0  0  0  0  0  0  0
    7.3825  -13.4182   20.9076 C   0  0  1  0  0  0  0  0  0  0  0  0
    6.9950  -13.5961   19.4627 C   0  0  0  0  0  0  0  0  0  0  0  0
    8.3137  -14.5258   21.3363 C   0  0  2  0  0  0  0  0  0  0  0  0
    7.6450  -15.8163   21.3189 N   0  0  0  0  0  0  0  0  0  0  0  0
    8.6919  -14.2405   22.7606 C   0  0  0  0  0  0  0  0  0  0  0  0
    9.2103  -13.1407   23.1018 O   0  0  0  0  0  0  0  0  0  0  0  0
    6.6835  -11.5492   26.0233 C   0  0  0  0  0  0  0  0  0  0  0  0
    7.7653  -12.4770   25.5255 C   0  0  0  0  0  0  0  0  0  0  0  0
    7.2589  -13.8765   25.3432 C   0  0  2  0  0  0  0  0  0  0  0  0
    6.4161  -14.2724   26.5400 C   0  0  0  0  0  0  0  0  0  0  0  0
    8.4131  -14.8195   25.1545 C   0  0  2  0  0  0  0  0  0  0  0  0
    8.4577  -15.2375   23.7428 N   0  0  0  0  0  0  0  0  0  0  0  0
    8.3286  -16.0445   25.9910 C   0  0  0  0  0  0  0  0  0  0  0  0
    7.7182  -17.0772   25.6402 O   0  0  0  0  0  0  0  0  0  0  0  0
    8.9550  -16.0661   27.2350 O   0  0  0  0  0  0  0  0  0  0  0  0
  2  1  1  1
  2  3  1  0
  4 10  1  0
  4  2  1  0
  5  4  2  0
  7  9  1  0
  7  6  1  6
  8  7  1  0
  9 11  1  0
  9 10  1  1
 11 18  1  0
 12 11  2  0
 14 13  1  0
 15 14  1  0
 15 16  1  1
 17 15  1  0
 17 18  1  6
 19 17  1  0
 19 21  1  0
 20 19  2  0
M  END
$$$$
