WEV.pdb
     RDKit          3D

 31 32  0  0  1  0  0  0  0  0999 V2000
   27.3977  -20.6721  -15.3854 N   0  0  0  0  0  0  0  0  0  0  0  0
   26.5669  -20.8125  -14.2127 C   0  0  1  0  0  0  0  0  0  0  0  0
   26.9565  -19.7048  -13.2462 C   0  0  0  0  0  0  0  0  0  0  0  0
   28.3733  -19.8540  -12.8623 C   0  0  0  0  0  0  0  0  0  0  0  0
   29.4300  -19.1469  -13.3834 C   0  0  0  0  0  0  0  0  0  0  0  0
   30.5626  -19.5863  -12.7609 N   0  0  0  0  0  0  0  0  0  0  0  0
   30.2283  -20.5326  -11.8831 C   0  0  0  0  0  0  0  0  0  0  0  0
   30.9682  -21.2891  -11.0132 C   0  0  0  0  0  0  0  0  0  0  0  0
   30.3890  -22.2373  -10.1741 C   0  0  0  0  0  0  0  0  0  0  0  0
   29.0349  -22.4155  -10.2244 C   0  0  0  0  0  0  0  0  0  0  0  0
   28.2672  -21.6727  -11.0856 C   0  0  0  0  0  0  0  0  0  0  0  0
   28.8611  -20.7234  -11.9232 C   0  0  0  0  0  0  0  0  0  0  0  0
   25.1190  -20.6474  -14.5485 C   0  0  0  0  0  0  0  0  0  0  0  0
   24.7031  -19.5757  -15.0483 O   0  0  0  0  0  0  0  0  0  0  0  0
   24.2322  -21.7087  -14.2966 N   0  0  0  0  0  0  0  0  0  0  0  0
   22.8001  -21.6233  -14.5060 C   0  0  1  0  0  0  0  0  0  0  0  0
   22.4121  -22.6548  -15.5177 C   0  0  0  0  0  0  0  0  0  0  0  0
   20.9363  -22.6133  -15.8392 C   0  0  0  0  0  0  0  0  0  0  0  0
   20.6154  -23.6652  -16.8291 C   0  0  0  0  0  0  0  0  0  0  0  0
   19.4288  -23.8688  -17.1641 O   0  0  0  0  0  0  0  0  0  0  0  0
   22.0728  -21.7922  -13.2081 C   0  0  0  0  0  0  0  0  0  0  0  0
   22.3954  -22.7588  -12.4661 O   0  0  0  0  0  0  0  0  0  0  0  0
   21.5909  -24.4590  -17.4209 O   0  0  0  0  0  0  0  0  0  0  0  0
   19.8755  -18.6118  -11.3205 C   0  0  0  0  0  0  0  0  0  0  0  0
   20.5264  -19.8141  -10.6729 C   0  0  2  0  0  0  0  0  0  0  0  0
   21.9337  -19.4394  -10.3262 C   0  0  0  0  0  0  0  0  0  0  0  0
   20.4322  -21.0445  -11.5301 C   0  0  2  0  0  0  0  0  0  0  0  0
   21.0459  -20.8929  -12.8149 N   0  0  0  0  0  0  0  0  0  0  0  0
   18.9738  -21.3264  -11.7514 C   0  0  0  0  0  0  0  0  0  0  0  0
   18.5042  -21.1207  -12.9010 O   0  0  0  0  0  0  0  0  0  0  0  0
   18.1636  -21.7981  -10.7282 O   0  0  0  0  0  0  0  0  0  0  0  0
  2 13  1  0
  2  1  1  6
  3  2  1  0
  4  3  1  0
  4  5  2  0
  6  5  1  0
  7  6  1  0
  8  7  2  0
  9  8  1  0
 10  9  2  0
 10 11  1  0
 11 12  2  0
 12  7  1  0
 12  4  1  0
 13 14  2  0
 15 16  1  0
 15 13  1  0
 16 21  1  0
 16 17  1  6
 18 17  1  0
 19 18  1  0
 20 19  2  0
 21 22  2  0
 23 19  1  0
 25 24  1  6
 25 27  1  0
 26 25  1  0
 27 29  1  0
 27 28  1  6
 28 21  1  0
 29 30  2  0
 29 31  1  0
M  END
$$$$
