WEV.pdb
     RDKit          3D

 31 32  0  0  1  0  0  0  0  0999 V2000
   28.1555  -21.8060  -10.3302 N   0  0  0  0  0  0  0  0  0  0  0  0
   27.0143  -21.0792   -9.8256 C   0  0  1  0  0  0  0  0  0  0  0  0
   27.5429  -19.8452   -9.1109 C   0  0  0  0  0  0  0  0  0  0  0  0
   28.4446  -20.2515   -8.0160 C   0  0  0  0  0  0  0  0  0  0  0  0
   29.5277  -21.0894   -8.1307 C   0  0  0  0  0  0  0  0  0  0  0  0
   30.0879  -21.2051   -6.8913 N   0  0  0  0  0  0  0  0  0  0  0  0
   29.3827  -20.4679   -6.0327 C   0  0  0  0  0  0  0  0  0  0  0  0
   29.5132  -20.2366   -4.6889 C   0  0  0  0  0  0  0  0  0  0  0  0
   28.6383  -19.4107   -3.9880 C   0  0  0  0  0  0  0  0  0  0  0  0
   27.6157  -18.8127   -4.6694 C   0  0  0  0  0  0  0  0  0  0  0  0
   27.4591  -19.0252   -6.0159 C   0  0  0  0  0  0  0  0  0  0  0  0
   28.3446  -19.8570   -6.7083 C   0  0  0  0  0  0  0  0  0  0  0  0
   26.1230  -20.6255  -10.9374 C   0  0  0  0  0  0  0  0  0  0  0  0
   26.4324  -19.6275  -11.6299 O   0  0  0  0  0  0  0  0  0  0  0  0
   24.9355  -21.3323  -11.1950 N   0  0  0  0  0  0  0  0  0  0  0  0
   24.1650  -21.1873  -12.4147 C   0  0  1  0  0  0  0  0  0  0  0  0
   24.2392  -22.4754  -13.1718 C   0  0  0  0  0  0  0  0  0  0  0  0
   25.6173  -22.7272  -13.7379 C   0  0  0  0  0  0  0  0  0  0  0  0
   25.4981  -23.2585  -15.1136 C   0  0  0  0  0  0  0  0  0  0  0  0
   25.0944  -24.4261  -15.3012 O   0  0  0  0  0  0  0  0  0  0  0  0
   22.7567  -20.7900  -12.0972 C   0  0  0  0  0  0  0  0  0  0  0  0
   22.2759  -21.1385  -10.9853 O   0  0  0  0  0  0  0  0  0  0  0  0
   25.8202  -22.5062  -16.2372 O   0  0  0  0  0  0  0  0  0  0  0  0
   20.9394  -17.3005  -13.4204 C   0  0  0  0  0  0  0  0  0  0  0  0
   20.0887  -18.5489  -13.5022 C   0  0  2  0  0  0  0  0  0  0  0  0
   18.6867  -18.1701  -13.1389 C   0  0  0  0  0  0  0  0  0  0  0  0
   20.6383  -19.6693  -12.6656 C   0  0  2  0  0  0  0  0  0  0  0  0
   21.9757  -20.0409  -13.0174 N   0  0  0  0  0  0  0  0  0  0  0  0
   19.7591  -20.8668  -12.8860 C   0  0  0  0  0  0  0  0  0  0  0  0
   19.9959  -21.5923  -13.8871 O   0  0  0  0  0  0  0  0  0  0  0  0
   18.7182  -21.1706  -12.0200 O   0  0  0  0  0  0  0  0  0  0  0  0
  2 13  1  0
  2  1  1  6
  3  2  1  0
  4  3  1  0
  4  5  2  0
  6  5  1  0
  7  6  1  0
  8  7  2  0
  9  8  1  0
 10  9  2  0
 10 11  1  0
 11 12  2  0
 12  7  1  0
 12  4  1  0
 13 14  2  0
 15 16  1  0
 15 13  1  0
 16 21  1  0
 16 17  1  1
 18 17  1  0
 19 18  1  0
 20 19  2  0
 21 22  2  0
 23 19  1  0
 25 24  1  1
 25 27  1  0
 26 25  1  0
 27 29  1  0
 27 28  1  6
 28 21  1  0
 29 30  2  0
 29 31  1  0
M  END
$$$$
