WEV.pdb
     RDKit          3D

 31 32  0  0  1  0  0  0  0  0999 V2000
   26.5322  -18.2656   -8.7406 N   0  0  0  0  0  0  0  0  0  0  0  0
   26.9982  -19.5537   -9.1975 C   0  0  1  0  0  0  0  0  0  0  0  0
   26.6246  -20.5742   -8.1336 C   0  0  0  0  0  0  0  0  0  0  0  0
   27.2138  -20.1825   -6.8388 C   0  0  0  0  0  0  0  0  0  0  0  0
   26.6593  -19.3151   -5.9287 C   0  0  0  0  0  0  0  0  0  0  0  0
   27.5190  -19.2268   -4.8720 N   0  0  0  0  0  0  0  0  0  0  0  0
   28.5720  -20.0090   -5.1109 C   0  0  0  0  0  0  0  0  0  0  0  0
   29.7037  -20.2815   -4.3888 C   0  0  0  0  0  0  0  0  0  0  0  0
   30.6886  -21.1512   -4.8496 C   0  0  0  0  0  0  0  0  0  0  0  0
   30.5151  -21.7511   -6.0653 C   0  0  0  0  0  0  0  0  0  0  0  0
   29.3919  -21.4980   -6.8118 C   0  0  0  0  0  0  0  0  0  0  0  0
   28.4101  -20.6224   -6.3377 C   0  0  0  0  0  0  0  0  0  0  0  0
   26.3321  -19.9512  -10.4761 C   0  0  0  0  0  0  0  0  0  0  0  0
   25.1236  -19.6812  -10.6711 O   0  0  0  0  0  0  0  0  0  0  0  0
   27.0783  -20.6306  -11.4547 N   0  0  0  0  0  0  0  0  0  0  0  0
   26.6169  -20.8389  -12.8133 C   0  0  1  0  0  0  0  0  0  0  0  0
   27.7170  -21.4943  -13.5867 C   0  0  0  0  0  0  0  0  0  0  0  0
   27.2952  -21.8463  -14.9942 C   0  0  0  0  0  0  0  0  0  0  0  0
   27.2863  -20.6245  -15.8287 C   0  0  0  0  0  0  0  0  0  0  0  0
   28.3047  -19.9031  -15.8935 O   0  0  0  0  0  0  0  0  0  0  0  0
   25.3552  -21.6452  -12.8171 C   0  0  0  0  0  0  0  0  0  0  0  0
   25.3418  -22.7333  -12.1808 O   0  0  0  0  0  0  0  0  0  0  0  0
   26.1750  -20.2275  -16.5632 O   0  0  0  0  0  0  0  0  0  0  0  0
   21.5840  -20.2624  -14.5849 C   0  0  0  0  0  0  0  0  0  0  0  0
   21.7485  -21.1852  -13.3973 C   0  0  2  0  0  0  0  0  0  0  0  0
   21.6586  -20.3523  -12.1566 C   0  0  0  0  0  0  0  0  0  0  0  0
   23.0089  -21.9990  -13.4777 C   0  0  2  0  0  0  0  0  0  0  0  0
   24.1995  -21.2044  -13.5157 N   0  0  0  0  0  0  0  0  0  0  0  0
   22.9496  -22.7933  -14.7509 C   0  0  0  0  0  0  0  0  0  0  0  0
   23.6640  -22.4116  -15.7144 O   0  0  0  0  0  0  0  0  0  0  0  0
   22.1371  -23.9121  -14.8697 O   0  0  0  0  0  0  0  0  0  0  0  0
  2 13  1  0
  2  1  1  1
  3  2  1  0
  4  3  1  0
  4  5  2  0
  6  5  1  0
  7  6  1  0
  8  7  2  0
  9  8  1  0
 10  9  2  0
 10 11  1  0
 11 12  2  0
 12  7  1  0
 12  4  1  0
 13 14  2  0
 15 16  1  0
 15 13  1  0
 16 21  1  0
 16 17  1  6
 18 17  1  0
 19 18  1  0
 20 19  2  0
 21 22  2  0
 23 19  1  0
 25 24  1  6
 25 27  1  0
 26 25  1  0
 27 29  1  0
 27 28  1  6
 28 21  1  0
 29 30  2  0
 29 31  1  0
M  END
$$$$
