WEV.pdb
     RDKit          3D

 31 32  0  0  1  0  0  0  0  0999 V2000
   27.8290  -20.9286  -10.7998 N   0  0  0  0  0  0  0  0  0  0  0  0
   26.4905  -21.1354  -10.2991 C   0  0  1  0  0  0  0  0  0  0  0  0
   26.4639  -20.6436   -8.8602 C   0  0  0  0  0  0  0  0  0  0  0  0
   27.8335  -20.6347   -8.3113 C   0  0  0  0  0  0  0  0  0  0  0  0
   28.9341  -21.2319   -8.8772 C   0  0  0  0  0  0  0  0  0  0  0  0
   29.9979  -20.9889   -8.0570 N   0  0  0  0  0  0  0  0  0  0  0  0
   29.5798  -20.2669   -7.0169 C   0  0  0  0  0  0  0  0  0  0  0  0
   30.2292  -19.7617   -5.9218 C   0  0  0  0  0  0  0  0  0  0  0  0
   29.5717  -19.0205   -4.9435 C   0  0  0  0  0  0  0  0  0  0  0  0
   28.2317  -18.7922   -5.0858 C   0  0  0  0  0  0  0  0  0  0  0  0
   27.5537  -19.2854   -6.1720 C   0  0  0  0  0  0  0  0  0  0  0  0
   28.2257  -20.0284   -7.1476 C   0  0  0  0  0  0  0  0  0  0  0  0
   25.4894  -20.3440  -11.0787 C   0  0  0  0  0  0  0  0  0  0  0  0
   25.5295  -19.0911  -11.0728 O   0  0  0  0  0  0  0  0  0  0  0  0
   24.5046  -21.0229  -11.8171 N   0  0  0  0  0  0  0  0  0  0  0  0
   23.4983  -20.3526  -12.6171 C   0  0  1  0  0  0  0  0  0  0  0  0
   23.9551  -20.3531  -14.0417 C   0  0  0  0  0  0  0  0  0  0  0  0
   24.7835  -21.5718  -14.3759 C   0  0  0  0  0  0  0  0  0  0  0  0
   25.2360  -21.4925  -15.7823 C   0  0  0  0  0  0  0  0  0  0  0  0
   24.8287  -20.5698  -16.5201 O   0  0  0  0  0  0  0  0  0  0  0  0
   22.1671  -21.0154  -12.4424 C   0  0  0  0  0  0  0  0  0  0  0  0
   22.1455  -22.2486  -12.1823 O   0  0  0  0  0  0  0  0  0  0  0  0
   26.1134  -22.4153  -16.3397 O   0  0  0  0  0  0  0  0  0  0  0  0
   17.4440  -20.7026  -11.2017 C   0  0  0  0  0  0  0  0  0  0  0  0
   18.7529  -20.0131  -11.5181 C   0  0  2  0  0  0  0  0  0  0  0  0
   18.4373  -18.7611  -12.2759 C   0  0  0  0  0  0  0  0  0  0  0  0
   19.7147  -20.9168  -12.2360 C   0  0  2  0  0  0  0  0  0  0  0  0
   20.9560  -20.2831  -12.5645 N   0  0  0  0  0  0  0  0  0  0  0  0
   19.0619  -21.3357  -13.5221 C   0  0  0  0  0  0  0  0  0  0  0  0
   19.3456  -20.6867  -14.5627 O   0  0  0  0  0  0  0  0  0  0  0  0
   18.1744  -22.4015  -13.5705 O   0  0  0  0  0  0  0  0  0  0  0  0
  2 13  1  0
  2  1  1  6
  3  2  1  0
  4  3  1  0
  4  5  2  0
  6  5  1  0
  7  6  1  0
  8  7  2  0
  9  8  1  0
 10  9  2  0
 10 11  1  0
 11 12  2  0
 12  7  1  0
 12  4  1  0
 13 14  2  0
 15 16  1  0
 15 13  1  0
 16 21  1  0
 16 17  1  6
 18 17  1  0
 19 18  1  0
 20 19  2  0
 21 22  2  0
 23 19  1  0
 25 24  1  6
 25 27  1  0
 26 25  1  0
 27 29  1  0
 27 28  1  6
 28 21  1  0
 29 30  2  0
 29 31  1  0
M  END
$$$$
