WEV.pdb
     RDKit          3D

 31 32  0  0  1  0  0  0  0  0999 V2000
   26.9333  -22.6233  -12.1361 N   0  0  0  0  0  0  0  0  0  0  0  0
   26.0223  -21.6846  -11.5245 C   0  0  1  0  0  0  0  0  0  0  0  0
   26.7853  -20.3865  -11.3104 C   0  0  0  0  0  0  0  0  0  0  0  0
   27.8233  -20.5828  -10.2803 C   0  0  0  0  0  0  0  0  0  0  0  0
   29.0848  -21.0854  -10.4904 C   0  0  0  0  0  0  0  0  0  0  0  0
   29.7238  -21.1031   -9.2843 N   0  0  0  0  0  0  0  0  0  0  0  0
   28.8944  -20.6297   -8.3539 C   0  0  0  0  0  0  0  0  0  0  0  0
   29.0322  -20.4369   -7.0047 C   0  0  0  0  0  0  0  0  0  0  0  0
   28.0068  -19.9172   -6.2191 C   0  0  0  0  0  0  0  0  0  0  0  0
   26.8238  -19.5899   -6.8202 C   0  0  0  0  0  0  0  0  0  0  0  0
   26.6556  -19.7717   -8.1698 C   0  0  0  0  0  0  0  0  0  0  0  0
   27.6934  -20.2945   -8.9477 C   0  0  0  0  0  0  0  0  0  0  0  0
   24.8575  -21.3964  -12.4170 C   0  0  0  0  0  0  0  0  0  0  0  0
   24.9311  -21.6236  -13.6475 O   0  0  0  0  0  0  0  0  0  0  0  0
   23.6807  -20.8682  -11.8581 N   0  0  0  0  0  0  0  0  0  0  0  0
   22.3925  -20.9022  -12.5225 C   0  0  1  0  0  0  0  0  0  0  0  0
   21.3385  -21.1469  -11.4894 C   0  0  0  0  0  0  0  0  0  0  0  0
   19.9525  -21.2010  -12.0884 C   0  0  0  0  0  0  0  0  0  0  0  0
   19.7495  -22.5090  -12.7496 C   0  0  0  0  0  0  0  0  0  0  0  0
   19.5594  -22.5641  -13.9835 O   0  0  0  0  0  0  0  0  0  0  0  0
   22.1649  -19.6327  -13.2832 C   0  0  0  0  0  0  0  0  0  0  0  0
   22.0870  -18.5552  -12.6339 O   0  0  0  0  0  0  0  0  0  0  0  0
   19.7597  -23.7107  -12.0511 O   0  0  0  0  0  0  0  0  0  0  0  0
   21.3802  -19.5118  -17.5786 C   0  0  0  0  0  0  0  0  0  0  0  0
   22.1840  -18.4586  -16.8482 C   0  0  2  0  0  0  0  0  0  0  0  0
   23.6333  -18.7300  -17.1068 C   0  0  0  0  0  0  0  0  0  0  0  0
   21.8425  -18.3923  -15.3866 C   0  0  2  0  0  0  0  0  0  0  0  0
   22.0389  -19.6325  -14.6982 N   0  0  0  0  0  0  0  0  0  0  0  0
   20.3870  -18.0377  -15.2816 C   0  0  0  0  0  0  0  0  0  0  0  0
   19.5788  -18.9569  -14.9874 O   0  0  0  0  0  0  0  0  0  0  0  0
   19.9392  -16.7425  -15.5000 O   0  0  0  0  0  0  0  0  0  0  0  0
  2 13  1  0
  2  1  1  6
  3  2  1  0
  4  3  1  0
  4  5  2  0
  6  5  1  0
  7  6  1  0
  8  7  2  0
  9  8  1  0
 10  9  2  0
 10 11  1  0
 11 12  2  0
 12  7  1  0
 12  4  1  0
 13 14  2  0
 15 16  1  0
 15 13  1  0
 16 21  1  0
 16 17  1  1
 18 17  1  0
 19 18  1  0
 20 19  2  0
 21 22  2  0
 23 19  1  0
 25 24  1  1
 25 27  1  0
 26 25  1  0
 27 29  1  0
 27 28  1  6
 28 21  1  0
 29 30  2  0
 29 31  1  0
M  END
$$$$
