WEV.pdb
     RDKit          3D

 31 32  0  0  1  0  0  0  0  0999 V2000
   23.8176  -14.9915  -19.5095 N   0  0  0  0  0  0  0  0  0  0  0  0
   23.8528  -15.4779  -18.1503 C   0  0  1  0  0  0  0  0  0  0  0  0
   23.5445  -14.2998  -17.2393 C   0  0  0  0  0  0  0  0  0  0  0  0
   24.5934  -13.2719  -17.3820 C   0  0  0  0  0  0  0  0  0  0  0  0
   24.4081  -11.9859  -17.8292 C   0  0  0  0  0  0  0  0  0  0  0  0
   25.6248  -11.3673  -17.8102 N   0  0  0  0  0  0  0  0  0  0  0  0
   26.5376  -12.2327  -17.3679 C   0  0  0  0  0  0  0  0  0  0  0  0
   27.8874  -12.1266  -17.1598 C   0  0  0  0  0  0  0  0  0  0  0  0
   28.6518  -13.1873  -16.6810 C   0  0  0  0  0  0  0  0  0  0  0  0
   28.0287  -14.3733  -16.4109 C   0  0  0  0  0  0  0  0  0  0  0  0
   26.6778  -14.5102  -16.6094 C   0  0  0  0  0  0  0  0  0  0  0  0
   25.9213  -13.4372  -17.0907 C   0  0  0  0  0  0  0  0  0  0  0  0
   22.8120  -16.5269  -17.9207 C   0  0  0  0  0  0  0  0  0  0  0  0
   21.7229  -16.4847  -18.5399 O   0  0  0  0  0  0  0  0  0  0  0  0
   23.0711  -17.5594  -17.0026 N   0  0  0  0  0  0  0  0  0  0  0  0
   22.2158  -18.7184  -16.8372 C   0  0  1  0  0  0  0  0  0  0  0  0
   23.0119  -19.7978  -16.1747 C   0  0  0  0  0  0  0  0  0  0  0  0
   22.1733  -21.0141  -15.8578 C   0  0  0  0  0  0  0  0  0  0  0  0
   22.3676  -22.0371  -16.9090 C   0  0  0  0  0  0  0  0  0  0  0  0
   23.2023  -21.8484  -17.8197 O   0  0  0  0  0  0  0  0  0  0  0  0
   20.9884  -18.3536  -16.0611 C   0  0  0  0  0  0  0  0  0  0  0  0
   21.1164  -17.5819  -15.0726 O   0  0  0  0  0  0  0  0  0  0  0  0
   21.6512  -23.2279  -16.9364 O   0  0  0  0  0  0  0  0  0  0  0  0
   16.9577  -19.1117  -17.4611 C   0  0  0  0  0  0  0  0  0  0  0  0
   17.3934  -18.0512  -16.4741 C   0  0  2  0  0  0  0  0  0  0  0  0
   17.6513  -16.7920  -17.2416 C   0  0  0  0  0  0  0  0  0  0  0  0
   18.5650  -18.4921  -15.6432 C   0  0  2  0  0  0  0  0  0  0  0  0
   19.7102  -18.8582  -16.4210 N   0  0  0  0  0  0  0  0  0  0  0  0
   18.1341  -19.7036  -14.8674 C   0  0  0  0  0  0  0  0  0  0  0  0
   17.2543  -19.5501  -13.9803 O   0  0  0  0  0  0  0  0  0  0  0  0
   18.6824  -20.9545  -15.1136 O   0  0  0  0  0  0  0  0  0  0  0  0
  2 13  1  0
  2  1  1  6
  3  2  1  0
  4  3  1  0
  4  5  2  0
  6  5  1  0
  7  6  1  0
  8  7  2  0
  9  8  1  0
 10  9  2  0
 10 11  1  0
 11 12  2  0
 12  7  1  0
 12  4  1  0
 13 14  2  0
 15 16  1  0
 15 13  1  0
 16 21  1  0
 16 17  1  1
 18 17  1  0
 19 18  1  0
 20 19  2  0
 21 22  2  0
 23 19  1  0
 25 24  1  6
 25 27  1  0
 26 25  1  0
 27 29  1  0
 27 28  1  6
 28 21  1  0
 29 30  2  0
 29 31  1  0
M  END
$$$$
