WEV.pdb
     RDKit          3D

 31 32  0  0  1  0  0  0  0  0999 V2000
   27.7235  -22.2784  -10.5664 N   0  0  0  0  0  0  0  0  0  0  0  0
   26.7859  -21.2496  -10.1823 C   0  0  1  0  0  0  0  0  0  0  0  0
   27.5900  -20.0999   -9.5954 C   0  0  0  0  0  0  0  0  0  0  0  0
   28.3777  -20.5797   -8.4437 C   0  0  0  0  0  0  0  0  0  0  0  0
   29.3914  -21.5064   -8.4885 C   0  0  0  0  0  0  0  0  0  0  0  0
   29.8543  -21.6676   -7.2145 N   0  0  0  0  0  0  0  0  0  0  0  0
   29.1574  -20.8721   -6.4024 C   0  0  0  0  0  0  0  0  0  0  0  0
   29.2154  -20.6510   -5.0518 C   0  0  0  0  0  0  0  0  0  0  0  0
   28.3680  -19.7531   -4.4081 C   0  0  0  0  0  0  0  0  0  0  0  0
   27.4481  -19.0715   -5.1546 C   0  0  0  0  0  0  0  0  0  0  0  0
   27.3659  -19.2718   -6.5096 C   0  0  0  0  0  0  0  0  0  0  0  0
   28.2229  -20.1764   -7.1441 C   0  0  0  0  0  0  0  0  0  0  0  0
   26.0312  -20.7320  -11.3650 C   0  0  0  0  0  0  0  0  0  0  0  0
   26.6374  -20.1648  -12.3042 O   0  0  0  0  0  0  0  0  0  0  0  0
   24.6350  -20.8899  -11.4092 N   0  0  0  0  0  0  0  0  0  0  0  0
   23.8329  -20.6042  -12.5827 C   0  0  1  0  0  0  0  0  0  0  0  0
   24.3089  -21.4779  -13.6999 C   0  0  0  0  0  0  0  0  0  0  0  0
   24.3488  -22.9365  -13.3076 C   0  0  0  0  0  0  0  0  0  0  0  0
   24.8139  -23.7455  -14.4558 C   0  0  0  0  0  0  0  0  0  0  0  0
   24.0042  -24.4539  -15.0916 O   0  0  0  0  0  0  0  0  0  0  0  0
   22.3795  -20.8013  -12.2809 C   0  0  0  0  0  0  0  0  0  0  0  0
   22.0646  -21.6270  -11.3821 O   0  0  0  0  0  0  0  0  0  0  0  0
   26.1392  -23.7585  -14.8747 O   0  0  0  0  0  0  0  0  0  0  0  0
   20.2409  -17.4213  -12.5036 C   0  0  0  0  0  0  0  0  0  0  0  0
   19.3970  -18.6433  -12.7920 C   0  0  2  0  0  0  0  0  0  0  0  0
   18.0700  -18.4485  -12.1270 C   0  0  0  0  0  0  0  0  0  0  0  0
   20.0829  -19.9181  -12.3895 C   0  0  2  0  0  0  0  0  0  0  0  0
   21.3757  -20.0821  -12.9830 N   0  0  0  0  0  0  0  0  0  0  0  0
   19.2204  -21.0570  -12.8524 C   0  0  0  0  0  0  0  0  0  0  0  0
   19.4094  -21.5014  -14.0149 O   0  0  0  0  0  0  0  0  0  0  0  0
   18.2453  -21.6072  -12.0324 O   0  0  0  0  0  0  0  0  0  0  0  0
  2 13  1  0
  2  1  1  6
  3  2  1  0
  4  3  1  0
  4  5  2  0
  6  5  1  0
  7  6  1  0
  8  7  2  0
  9  8  1  0
 10  9  2  0
 10 11  1  0
 11 12  2  0
 12  7  1  0
 12  4  1  0
 13 14  2  0
 15 16  1  0
 15 13  1  0
 16 21  1  0
 16 17  1  6
 18 17  1  0
 19 18  1  0
 20 19  2  0
 21 22  2  0
 23 19  1  0
 25 24  1  1
 25 27  1  0
 26 25  1  0
 27 29  1  0
 27 28  1  6
 28 21  1  0
 29 30  2  0
 29 31  1  0
M  END
$$$$
