WEV.pdb
     RDKit          3D

 31 32  0  0  1  0  0  0  0  0999 V2000
   28.6146  -22.0181  -11.4753 N   0  0  0  0  0  0  0  0  0  0  0  0
   27.3769  -21.4321  -11.0171 C   0  0  1  0  0  0  0  0  0  0  0  0
   27.7101  -20.0673  -10.4346 C   0  0  0  0  0  0  0  0  0  0  0  0
   28.5034  -20.2321   -9.2014 C   0  0  0  0  0  0  0  0  0  0  0  0
   29.8225  -20.6111   -9.1344 C   0  0  0  0  0  0  0  0  0  0  0  0
   30.1721  -20.6428   -7.8152 N   0  0  0  0  0  0  0  0  0  0  0  0
   29.1124  -20.2970   -7.0836 C   0  0  0  0  0  0  0  0  0  0  0  0
   28.9235  -20.1707   -5.7327 C   0  0  0  0  0  0  0  0  0  0  0  0
   27.7020  -19.7874   -5.1852 C   0  0  0  0  0  0  0  0  0  0  0  0
   26.6587  -19.5294   -6.0296 C   0  0  0  0  0  0  0  0  0  0  0  0
   26.8173  -19.6473   -7.3874 C   0  0  0  0  0  0  0  0  0  0  0  0
   28.0493  -20.0331   -7.9247 C   0  0  0  0  0  0  0  0  0  0  0  0
   26.4179  -21.2328  -12.1471 C   0  0  0  0  0  0  0  0  0  0  0  0
   26.7836  -20.6439  -13.1916 O   0  0  0  0  0  0  0  0  0  0  0  0
   25.1030  -21.7140  -12.0225 N   0  0  0  0  0  0  0  0  0  0  0  0
   24.1558  -21.7511  -13.1195 C   0  0  1  0  0  0  0  0  0  0  0  0
   23.8849  -23.1832  -13.4568 C   0  0  0  0  0  0  0  0  0  0  0  0
   22.9201  -23.3261  -14.6108 C   0  0  0  0  0  0  0  0  0  0  0  0
   22.7303  -24.7599  -14.9229 C   0  0  0  0  0  0  0  0  0  0  0  0
   22.1885  -25.5160  -14.0884 O   0  0  0  0  0  0  0  0  0  0  0  0
   22.9104  -21.0025  -12.7579 C   0  0  0  0  0  0  0  0  0  0  0  0
   22.5385  -21.0118  -11.5535 O   0  0  0  0  0  0  0  0  0  0  0  0
   23.1339  -25.3237  -16.1275 O   0  0  0  0  0  0  0  0  0  0  0  0
   19.8044  -17.3323  -13.7293 C   0  0  0  0  0  0  0  0  0  0  0  0
   20.8538  -18.2871  -14.2548 C   0  0  2  0  0  0  0  0  0  0  0  0
   20.4396  -18.7080  -15.6304 C   0  0  0  0  0  0  0  0  0  0  0  0
   21.0901  -19.4430  -13.3246 C   0  0  2  0  0  0  0  0  0  0  0  0
   22.1615  -20.2982  -13.7383 N   0  0  0  0  0  0  0  0  0  0  0  0
   19.8332  -20.2647  -13.3018 C   0  0  0  0  0  0  0  0  0  0  0  0
   19.7489  -21.2306  -14.1046 O   0  0  0  0  0  0  0  0  0  0  0  0
   18.7945  -19.9758  -12.4280 O   0  0  0  0  0  0  0  0  0  0  0  0
  2 13  1  0
  2  1  1  6
  3  2  1  0
  4  3  1  0
  4  5  2  0
  6  5  1  0
  7  6  1  0
  8  7  2  0
  9  8  1  0
 10  9  2  0
 10 11  1  0
 11 12  2  0
 12  7  1  0
 12  4  1  0
 13 14  2  0
 15 16  1  0
 15 13  1  0
 16 21  1  0
 16 17  1  1
 18 17  1  0
 19 18  1  0
 20 19  2  0
 21 22  2  0
 23 19  1  0
 25 24  1  1
 25 27  1  0
 26 25  1  0
 27 29  1  0
 27 28  1  6
 28 21  1  0
 29 30  2  0
 29 31  1  0
M  END
$$$$
