WEV.pdb
     RDKit          3D

 31 32  0  0  1  0  0  0  0  0999 V2000
   27.0518  -22.8109  -12.2871 N   0  0  0  0  0  0  0  0  0  0  0  0
   26.1435  -21.7637  -11.8828 C   0  0  1  0  0  0  0  0  0  0  0  0
   26.9657  -20.4980  -11.6957 C   0  0  0  0  0  0  0  0  0  0  0  0
   27.9385  -20.6926  -10.6035 C   0  0  0  0  0  0  0  0  0  0  0  0
   29.2744  -20.9774  -10.7533 C   0  0  0  0  0  0  0  0  0  0  0  0
   29.8133  -21.0785   -9.5032 N   0  0  0  0  0  0  0  0  0  0  0  0
   28.8518  -20.8652   -8.6045 C   0  0  0  0  0  0  0  0  0  0  0  0
   28.8537  -20.8510   -7.2347 C   0  0  0  0  0  0  0  0  0  0  0  0
   27.7032  -20.5991   -6.4919 C   0  0  0  0  0  0  0  0  0  0  0  0
   26.5342  -20.3583   -7.1578 C   0  0  0  0  0  0  0  0  0  0  0  0
   26.5008  -20.3659   -8.5295 C   0  0  0  0  0  0  0  0  0  0  0  0
   27.6633  -20.6202   -9.2639 C   0  0  0  0  0  0  0  0  0  0  0  0
   25.1157  -21.4981  -12.9360 C   0  0  0  0  0  0  0  0  0  0  0  0
   25.4663  -21.2027  -14.1027 O   0  0  0  0  0  0  0  0  0  0  0  0
   23.7532  -21.5840  -12.6006 N   0  0  0  0  0  0  0  0  0  0  0  0
   22.6808  -21.4773  -13.5703 C   0  0  1  0  0  0  0  0  0  0  0  0
   21.7667  -22.6476  -13.3890 C   0  0  0  0  0  0  0  0  0  0  0  0
   22.4389  -23.9565  -13.7325 C   0  0  0  0  0  0  0  0  0  0  0  0
   22.3705  -24.1799  -15.1935 C   0  0  0  0  0  0  0  0  0  0  0  0
   22.8841  -25.2027  -15.6953 O   0  0  0  0  0  0  0  0  0  0  0  0
   21.9709  -20.1675  -13.4200 C   0  0  0  0  0  0  0  0  0  0  0  0
   21.8168  -19.7035  -12.2582 O   0  0  0  0  0  0  0  0  0  0  0  0
   21.7484  -23.2878  -16.0590 O   0  0  0  0  0  0  0  0  0  0  0  0
   20.3689  -17.8904  -16.8025 C   0  0  0  0  0  0  0  0  0  0  0  0
   21.0024  -17.2803  -15.5715 C   0  0  2  0  0  0  0  0  0  0  0  0
   22.4176  -16.9308  -15.9124 C   0  0  0  0  0  0  0  0  0  0  0  0
   20.8830  -18.1712  -14.3676 C   0  0  2  0  0  0  0  0  0  0  0  0
   21.4807  -19.4596  -14.5499 N   0  0  0  0  0  0  0  0  0  0  0  0
   19.4187  -18.3801  -14.1076 C   0  0  0  0  0  0  0  0  0  0  0  0
   18.9096  -19.4746  -14.4648 O   0  0  0  0  0  0  0  0  0  0  0  0
   18.6452  -17.4046  -13.4946 O   0  0  0  0  0  0  0  0  0  0  0  0
  2 13  1  0
  2  1  1  6
  3  2  1  0
  4  3  1  0
  4  5  2  0
  6  5  1  0
  7  6  1  0
  8  7  2  0
  9  8  1  0
 10  9  2  0
 10 11  1  0
 11 12  2  0
 12  7  1  0
 12  4  1  0
 13 14  2  0
 15 16  1  0
 15 13  1  0
 16 21  1  0
 16 17  1  1
 18 17  1  0
 19 18  1  0
 20 19  2  0
 21 22  2  0
 23 19  1  0
 25 24  1  6
 25 27  1  0
 26 25  1  0
 27 29  1  0
 27 28  1  6
 28 21  1  0
 29 30  2  0
 29 31  1  0
M  END
$$$$
