WEV.pdb
     RDKit          3D

 31 32  0  0  1  0  0  0  0  0999 V2000
   28.0552  -20.9631  -15.0755 N   0  0  0  0  0  0  0  0  0  0  0  0
   27.1217  -20.9851  -13.9741 C   0  0  1  0  0  0  0  0  0  0  0  0
   27.5377  -19.8890  -13.0054 C   0  0  0  0  0  0  0  0  0  0  0  0
   28.1825  -20.4887  -11.8215 C   0  0  0  0  0  0  0  0  0  0  0  0
   29.4851  -20.9187  -11.7423 C   0  0  0  0  0  0  0  0  0  0  0  0
   29.6791  -21.4050  -10.4816 N   0  0  0  0  0  0  0  0  0  0  0  0
   28.5414  -21.2842   -9.7970 C   0  0  0  0  0  0  0  0  0  0  0  0
   28.1966  -21.6117   -8.5123 C   0  0  0  0  0  0  0  0  0  0  0  0
   26.9195  -21.3877   -8.0049 C   0  0  0  0  0  0  0  0  0  0  0  0
   25.9812  -20.8212   -8.8213 C   0  0  0  0  0  0  0  0  0  0  0  0
   26.2966  -20.4823  -10.1130 C   0  0  0  0  0  0  0  0  0  0  0  0
   27.5830  -20.7125  -10.6106 C   0  0  0  0  0  0  0  0  0  0  0  0
   25.7293  -20.6932  -14.4350 C   0  0  0  0  0  0  0  0  0  0  0  0
   25.4657  -19.6093  -15.0070 O   0  0  0  0  0  0  0  0  0  0  0  0
   24.7216  -21.6491  -14.2186 N   0  0  0  0  0  0  0  0  0  0  0  0
   23.3461  -21.4737  -14.6419 C   0  0  1  0  0  0  0  0  0  0  0  0
   23.0996  -22.3669  -15.8165 C   0  0  0  0  0  0  0  0  0  0  0  0
   21.6693  -22.2962  -16.2982 C   0  0  0  0  0  0  0  0  0  0  0  0
   21.4857  -23.2172  -17.4416 C   0  0  0  0  0  0  0  0  0  0  0  0
   22.4092  -23.9887  -17.7787 O   0  0  0  0  0  0  0  0  0  0  0  0
   22.4117  -21.7513  -13.5054 C   0  0  0  0  0  0  0  0  0  0  0  0
   22.5893  -22.8015  -12.8313 O   0  0  0  0  0  0  0  0  0  0  0  0
   20.3087  -23.2699  -18.1790 O   0  0  0  0  0  0  0  0  0  0  0  0
   19.1536  -19.0458  -12.2760 C   0  0  0  0  0  0  0  0  0  0  0  0
   20.0312  -19.8784  -11.3673 C   0  0  2  0  0  0  0  0  0  0  0  0
   21.1291  -18.9962  -10.8600 C   0  0  0  0  0  0  0  0  0  0  0  0
   20.5322  -21.1236  -12.0424 C   0  0  2  0  0  0  0  0  0  0  0  0
   21.3509  -20.8615  -13.1876 N   0  0  0  0  0  0  0  0  0  0  0  0
   19.3312  -21.8961  -12.5073 C   0  0  0  0  0  0  0  0  0  0  0  0
   19.1075  -21.9443  -13.7451 O   0  0  0  0  0  0  0  0  0  0  0  0
   18.4906  -22.5383  -11.6090 O   0  0  0  0  0  0  0  0  0  0  0  0
  2 13  1  0
  2  1  1  6
  3  2  1  0
  4  3  1  0
  4  5  2  0
  6  5  1  0
  7  6  1  0
  8  7  2  0
  9  8  1  0
 10  9  2  0
 10 11  1  0
 11 12  2  0
 12  7  1  0
 12  4  1  0
 13 14  2  0
 15 16  1  0
 15 13  1  0
 16 21  1  0
 16 17  1  6
 18 17  1  0
 19 18  1  0
 20 19  2  0
 21 22  2  0
 23 19  1  0
 25 24  1  6
 25 27  1  0
 26 25  1  0
 27 29  1  0
 27 28  1  6
 28 21  1  0
 29 30  2  0
 29 31  1  0
M  END
$$$$
