CQH.pdb
     RDKit          3D

 26 26  0  0  1  0  0  0  0  0999 V2000
    7.9257  -20.2012   18.5002 N   0  0  0  0  0  0  0  0  0  0  0  0
    7.3593  -19.1126   19.2712 C   0  0  1  0  0  0  0  0  0  0  0  0
    6.6215  -19.6270   20.4878 C   0  0  0  0  0  0  0  0  0  0  0  0
    7.7658  -20.6335   21.4810 S   0  0  0  0  0  0  0  0  0  0  0  0
    8.4481  -18.2157   19.7058 C   0  0  0  0  0  0  0  0  0  0  0  0
    9.6227  -18.4915   19.3543 O   0  0  0  0  0  0  0  0  0  0  0  0
    7.8621  -12.2048   20.1337 N   0  0  0  0  0  0  0  0  0  0  0  0
    7.7701  -13.0952   19.0421 C   0  0  0  0  0  0  0  0  0  0  0  0
    7.2721  -12.7103   17.9672 O   0  0  0  0  0  0  0  0  0  0  0  0
    8.2746  -14.4813   19.2059 C   0  0  0  0  0  0  0  0  0  0  0  0
    8.7421  -14.7312   20.6060 C   0  0  0  0  0  0  0  0  0  0  0  0
    9.2923  -16.0936   20.7969 C   0  0  2  0  0  0  0  0  0  0  0  0
    8.2421  -17.0610   20.4975 N   0  0  0  0  0  0  0  0  0  0  0  0
    9.9409  -16.3756   22.0794 C   0  0  0  0  0  0  0  0  0  0  0  0
    9.3530  -16.3254   23.1926 O   0  0  0  0  0  0  0  0  0  0  0  0
   11.3297  -16.7313   22.0764 N   0  0  0  0  0  0  0  0  0  0  0  0
   12.1004  -16.9543   23.2833 C   0  0  1  0  0  0  0  0  0  0  0  0
   12.7177  -18.3048   23.3411 C   0  0  0  0  0  0  0  0  0  0  0  0
   11.6687  -19.3489   23.3464 C   0  0  0  0  0  0  0  0  0  0  0  0
   10.2905  -19.2370   23.3444 C   0  0  0  0  0  0  0  0  0  0  0  0
    9.7815  -20.4784   23.3688 N   0  0  0  0  0  0  0  0  0  0  0  0
   10.7728  -21.3823   23.3862 C   0  0  0  0  0  0  0  0  0  0  0  0
   11.9068  -20.6855   23.3724 N   0  0  0  0  0  0  0  0  0  0  0  0
   13.0291  -15.8244   23.5368 C   0  0  0  0  0  0  0  0  0  0  0  0
   13.7609  -15.7512   24.7446 O   0  0  0  0  0  0  0  0  0  0  0  0
   13.2374  -14.8788   22.7398 O   0  0  0  0  0  0  0  0  0  0  0  0
  2  1  1  1
  2  5  1  0
  3  2  1  0
  4  3  1  0
  5  6  2  0
  7  8  1  0
  8  9  2  0
  8 10  1  0
 10 11  1  0
 12 11  1  1
 12 14  1  0
 13  5  1  0
 13 12  1  0
 14 15  2  0
 16 17  1  0
 16 14  1  0
 17 24  1  0
 18 19  1  0
 17 18  1  6
 19 20  2  0
 19 23  1  0
 20 21  1  0
 21 22  1  0
 23 22  2  0
 24 26  2  0
 24 25  1  0
M  END
$$$$
