CQH.pdb
     RDKit          3D

 26 26  0  0  1  0  0  0  0  0999 V2000
    7.4883  -17.8524   20.2101 N   0  0  0  0  0  0  0  0  0  0  0  0
    7.9257  -16.8963   21.2074 C   0  0  1  0  0  0  0  0  0  0  0  0
    7.1981  -15.5779   21.0606 C   0  0  0  0  0  0  0  0  0  0  0  0
    7.6844  -14.8164   19.4818 S   0  0  0  0  0  0  0  0  0  0  0  0
    7.6629  -17.4500   22.5502 C   0  0  0  0  0  0  0  0  0  0  0  0
    7.9601  -16.7507   23.5512 O   0  0  0  0  0  0  0  0  0  0  0  0
    3.7299  -19.6124   22.0447 N   0  0  0  0  0  0  0  0  0  0  0  0
    4.5164  -20.7845   22.0332 C   0  0  0  0  0  0  0  0  0  0  0  0
    4.4701  -21.5537   21.0545 O   0  0  0  0  0  0  0  0  0  0  0  0
    5.3872  -21.0724   23.2000 C   0  0  0  0  0  0  0  0  0  0  0  0
    5.4941  -19.8872   24.1083 C   0  0  0  0  0  0  0  0  0  0  0  0
    6.8429  -19.2740   24.1017 C   0  0  2  0  0  0  0  0  0  0  0  0
    7.0939  -18.7264   22.7730 N   0  0  0  0  0  0  0  0  0  0  0  0
    7.9549  -20.1072   24.5647 C   0  0  0  0  0  0  0  0  0  0  0  0
    8.3723  -21.1278   23.9550 O   0  0  0  0  0  0  0  0  0  0  0  0
    8.6139  -19.7463   25.7855 N   0  0  0  0  0  0  0  0  0  0  0  0
   10.0379  -19.4946   25.8811 C   0  0  1  0  0  0  0  0  0  0  0  0
   10.5340  -18.5456   24.8508 C   0  0  0  0  0  0  0  0  0  0  0  0
   12.0004  -18.3815   24.9677 C   0  0  0  0  0  0  0  0  0  0  0  0
   12.9012  -18.9577   25.8442 C   0  0  0  0  0  0  0  0  0  0  0  0
   14.1183  -18.4727   25.5540 N   0  0  0  0  0  0  0  0  0  0  0  0
   14.0380  -17.6102   24.5293 C   0  0  0  0  0  0  0  0  0  0  0  0
   12.7528  -17.5653   24.1857 N   0  0  0  0  0  0  0  0  0  0  0  0
   10.4278  -19.1718   27.2764 C   0  0  0  0  0  0  0  0  0  0  0  0
    9.5935  -18.3707   28.0901 O   0  0  0  0  0  0  0  0  0  0  0  0
   11.4823  -19.5624   27.8317 O   0  0  0  0  0  0  0  0  0  0  0  0
  2  1  1  6
  2  5  1  0
  3  2  1  0
  4  3  1  0
  5  6  2  0
  7  8  1  0
  8  9  2  0
  8 10  1  0
 10 11  1  0
 12 11  1  6
 12 14  1  0
 13  5  1  0
 13 12  1  0
 14 15  2  0
 16 17  1  0
 16 14  1  0
 17 24  1  0
 18 19  1  0
 17 18  1  6
 19 20  2  0
 19 23  1  0
 20 21  1  0
 21 22  1  0
 23 22  2  0
 24 26  2  0
 24 25  1  0
M  END
$$$$
