CQH.pdb
     RDKit          3D

 26 26  0  0  1  0  0  0  0  0999 V2000
    4.8721  -14.6703   25.5892 N   0  0  0  0  0  0  0  0  0  0  0  0
    5.9774  -13.8239   25.1866 C   0  0  1  0  0  0  0  0  0  0  0  0
    6.6740  -13.2221   26.3873 C   0  0  0  0  0  0  0  0  0  0  0  0
    5.7737  -11.7247   26.8936 S   0  0  0  0  0  0  0  0  0  0  0  0
    6.9444  -14.6316   24.4176 C   0  0  0  0  0  0  0  0  0  0  0  0
    7.0990  -15.8375   24.7358 O   0  0  0  0  0  0  0  0  0  0  0  0
    8.9615  -12.9622   18.8755 N   0  0  0  0  0  0  0  0  0  0  0  0
    7.7480  -13.6440   19.1109 C   0  0  0  0  0  0  0  0  0  0  0  0
    6.8386  -13.6044   18.2606 O   0  0  0  0  0  0  0  0  0  0  0  0
    7.5862  -14.3980   20.3789 C   0  0  0  0  0  0  0  0  0  0  0  0
    8.8117  -14.3005   21.2333 C   0  0  0  0  0  0  0  0  0  0  0  0
    8.6407  -14.9313   22.5630 C   0  0  2  0  0  0  0  0  0  0  0  0
    7.7080  -14.1225   23.3405 N   0  0  0  0  0  0  0  0  0  0  0  0
    9.8588  -15.2324   23.3183 C   0  0  0  0  0  0  0  0  0  0  0  0
   10.9258  -14.5684   23.2287 O   0  0  0  0  0  0  0  0  0  0  0  0
    9.8443  -16.3494   24.2167 N   0  0  0  0  0  0  0  0  0  0  0  0
   11.0140  -16.8113   24.9369 C   0  0  1  0  0  0  0  0  0  0  0  0
   11.7893  -15.7079   25.5612 C   0  0  0  0  0  0  0  0  0  0  0  0
   11.1995  -15.3418   26.8684 C   0  0  0  0  0  0  0  0  0  0  0  0
    9.8981  -15.4397   27.3253 C   0  0  0  0  0  0  0  0  0  0  0  0
    9.8694  -14.9593   28.5779 N   0  0  0  0  0  0  0  0  0  0  0  0
   11.0958  -14.5572   28.9451 C   0  0  0  0  0  0  0  0  0  0  0  0
   11.8885  -14.7944   27.9025 N   0  0  0  0  0  0  0  0  0  0  0  0
   10.6695  -17.9333   25.8456 C   0  0  0  0  0  0  0  0  0  0  0  0
    9.3324  -18.3776   25.9663 O   0  0  0  0  0  0  0  0  0  0  0  0
   11.4949  -18.5577   26.5539 O   0  0  0  0  0  0  0  0  0  0  0  0
  2  1  1  1
  2  5  1  0
  3  2  1  0
  4  3  1  0
  5  6  2  0
  7  8  1  0
  8  9  2  0
  8 10  1  0
 10 11  1  0
 12 11  1  6
 12 14  1  0
 13  5  1  0
 13 12  1  0
 14 15  2  0
 16 17  1  0
 16 14  1  0
 17 24  1  0
 18 19  1  0
 17 18  1  1
 19 20  2  0
 19 23  1  0
 20 21  1  0
 21 22  1  0
 23 22  2  0
 24 26  2  0
 24 25  1  0
M  END
$$$$
