CQH.pdb
     RDKit          3D

 26 26  0  0  1  0  0  0  0  0999 V2000
    7.4726  -17.5798   16.2913 N   0  0  0  0  0  0  0  0  0  0  0  0
    8.6711  -16.8436   16.6404 C   0  0  1  0  0  0  0  0  0  0  0  0
    8.4985  -15.3618   16.3880 C   0  0  0  0  0  0  0  0  0  0  0  0
    8.2958  -15.0948   14.6001 S   0  0  0  0  0  0  0  0  0  0  0  0
    8.9689  -17.0621   18.0695 C   0  0  0  0  0  0  0  0  0  0  0  0
    8.0080  -17.2644   18.8537 O   0  0  0  0  0  0  0  0  0  0  0  0
   14.0394  -19.6571   20.3129 N   0  0  0  0  0  0  0  0  0  0  0  0
   13.3761  -19.3703   21.5255 C   0  0  0  0  0  0  0  0  0  0  0  0
   13.8339  -19.8015   22.6007 O   0  0  0  0  0  0  0  0  0  0  0  0
   12.1374  -18.5537   21.4869 C   0  0  0  0  0  0  0  0  0  0  0  0
   11.8136  -18.1170   20.0920 C   0  0  0  0  0  0  0  0  0  0  0  0
   10.5722  -17.3121   20.0120 C   0  0  2  0  0  0  0  0  0  0  0  0
   10.2783  -17.0563   18.6061 N   0  0  0  0  0  0  0  0  0  0  0  0
   10.5227  -16.0845   20.8092 C   0  0  0  0  0  0  0  0  0  0  0  0
   10.5710  -14.9242   20.3203 O   0  0  0  0  0  0  0  0  0  0  0  0
   10.4126  -16.2016   22.2337 N   0  0  0  0  0  0  0  0  0  0  0  0
    9.4641  -15.4459   23.0271 C   0  0  1  0  0  0  0  0  0  0  0  0
    8.0847  -15.4772   22.4750 C   0  0  0  0  0  0  0  0  0  0  0  0
    7.9001  -14.3853   21.4929 C   0  0  0  0  0  0  0  0  0  0  0  0
    8.7948  -13.4444   21.0176 C   0  0  0  0  0  0  0  0  0  0  0  0
    8.1373  -12.6594   20.1503 N   0  0  0  0  0  0  0  0  0  0  0  0
    6.8594  -13.0554   20.0481 C   0  0  0  0  0  0  0  0  0  0  0  0
    6.7309  -14.0987   20.8647 N   0  0  0  0  0  0  0  0  0  0  0  0
    9.5764  -15.7960   24.4652 C   0  0  0  0  0  0  0  0  0  0  0  0
    9.5245  -14.7896   25.4573 O   0  0  0  0  0  0  0  0  0  0  0  0
    9.7205  -16.9607   24.9073 O   0  0  0  0  0  0  0  0  0  0  0  0
  2  1  1  1
  2  5  1  0
  3  2  1  0
  4  3  1  0
  5  6  2  0
  7  8  1  0
  8  9  2  0
  8 10  1  0
 10 11  1  0
 12 11  1  6
 12 14  1  0
 13  5  1  0
 13 12  1  0
 14 15  2  0
 16 17  1  0
 16 14  1  0
 17 24  1  0
 18 19  1  0
 17 18  1  6
 19 20  2  0
 19 23  1  0
 20 21  1  0
 21 22  1  0
 23 22  2  0
 24 26  2  0
 24 25  1  0
M  END
$$$$
