CQH.pdb
     RDKit          3D

 26 26  0  0  1  0  0  0  0  0999 V2000
    8.3867  -12.3535   17.8762 N   0  0  0  0  0  0  0  0  0  0  0  0
    7.6234  -13.2065   18.7650 C   0  0  1  0  0  0  0  0  0  0  0  0
    7.1820  -14.4734   18.0654 C   0  0  0  0  0  0  0  0  0  0  0  0
    8.6559  -15.3406   17.4452 S   0  0  0  0  0  0  0  0  0  0  0  0
    8.4616  -13.5597   19.9276 C   0  0  0  0  0  0  0  0  0  0  0  0
    9.7105  -13.5021   19.8006 O   0  0  0  0  0  0  0  0  0  0  0  0
    6.3396  -15.1782   25.6250 N   0  0  0  0  0  0  0  0  0  0  0  0
    7.7044  -15.5116   25.7620 C   0  0  0  0  0  0  0  0  0  0  0  0
    8.1241  -15.9808   26.8370 O   0  0  0  0  0  0  0  0  0  0  0  0
    8.6131  -15.2919   24.6094 C   0  0  0  0  0  0  0  0  0  0  0  0
    7.8945  -14.6568   23.4598 C   0  0  0  0  0  0  0  0  0  0  0  0
    8.7582  -14.4703   22.2705 C   0  0  2  0  0  0  0  0  0  0  0  0
    7.9358  -13.9600   21.1789 N   0  0  0  0  0  0  0  0  0  0  0  0
    9.5684  -15.6158   21.8504 C   0  0  0  0  0  0  0  0  0  0  0  0
    9.1614  -16.5196   21.0727 O   0  0  0  0  0  0  0  0  0  0  0  0
   10.9078  -15.7224   22.3502 N   0  0  0  0  0  0  0  0  0  0  0  0
   11.7844  -16.8382   22.0560 C   0  0  1  0  0  0  0  0  0  0  0  0
   11.8194  -17.1889   20.6124 C   0  0  0  0  0  0  0  0  0  0  0  0
   12.7559  -16.2987   19.8904 C   0  0  0  0  0  0  0  0  0  0  0  0
   12.6053  -14.9914   19.4663 C   0  0  0  0  0  0  0  0  0  0  0  0
   13.7374  -14.6334   18.8411 N   0  0  0  0  0  0  0  0  0  0  0  0
   14.6083  -15.6541   18.8454 C   0  0  0  0  0  0  0  0  0  0  0  0
   14.0017  -16.6530   19.4825 N   0  0  0  0  0  0  0  0  0  0  0  0
   13.1124  -16.6526   22.6927 C   0  0  0  0  0  0  0  0  0  0  0  0
   14.1340  -17.6152   22.5208 O   0  0  0  0  0  0  0  0  0  0  0  0
   13.4313  -15.6718   23.4062 O   0  0  0  0  0  0  0  0  0  0  0  0
  2  1  1  6
  2  5  1  0
  3  2  1  0
  4  3  1  0
  5  6  2  0
  7  8  1  0
  8  9  2  0
  8 10  1  0
 10 11  1  0
 12 11  1  1
 12 14  1  0
 13  5  1  0
 13 12  1  0
 14 15  2  0
 16 17  1  0
 16 14  1  0
 17 24  1  0
 18 19  1  0
 17 18  1  6
 19 20  2  0
 19 23  1  0
 20 21  1  0
 21 22  1  0
 23 22  2  0
 24 26  2  0
 24 25  1  0
M  END
$$$$
