CQH.pdb
     RDKit          3D

 26 26  0  0  1  0  0  0  0  0999 V2000
    8.5409  -15.2089   16.6261 N   0  0  0  0  0  0  0  0  0  0  0  0
    9.4164  -14.4843   17.5254 C   0  0  1  0  0  0  0  0  0  0  0  0
    8.6358  -13.5263   18.3984 C   0  0  0  0  0  0  0  0  0  0  0  0
    7.7751  -12.3327   17.3290 S   0  0  0  0  0  0  0  0  0  0  0  0
   10.1303  -15.4514   18.3822 C   0  0  0  0  0  0  0  0  0  0  0  0
    9.6184  -16.5862   18.5535 O   0  0  0  0  0  0  0  0  0  0  0  0
   14.8450  -14.4862   17.7807 N   0  0  0  0  0  0  0  0  0  0  0  0
   15.1357  -14.4346   19.1610 C   0  0  0  0  0  0  0  0  0  0  0  0
   15.9726  -13.6172   19.5891 O   0  0  0  0  0  0  0  0  0  0  0  0
   14.4291  -15.3655   20.0756 C   0  0  0  0  0  0  0  0  0  0  0  0
   13.4701  -16.2412   19.3307 C   0  0  0  0  0  0  0  0  0  0  0  0
   12.0820  -16.1411   19.8388 C   0  0  2  0  0  0  0  0  0  0  0  0
   11.3609  -15.1708   19.0220 N   0  0  0  0  0  0  0  0  0  0  0  0
   11.9145  -15.8775   21.2697 C   0  0  0  0  0  0  0  0  0  0  0  0
   12.4350  -14.9009   21.8721 O   0  0  0  0  0  0  0  0  0  0  0  0
   11.1107  -16.7814   22.0392 N   0  0  0  0  0  0  0  0  0  0  0  0
   10.7781  -16.5668   23.4333 C   0  0  1  0  0  0  0  0  0  0  0  0
    9.3142  -16.5183   23.6839 C   0  0  0  0  0  0  0  0  0  0  0  0
    8.7008  -15.4030   22.9285 C   0  0  0  0  0  0  0  0  0  0  0  0
    9.2852  -14.3468   22.2542 C   0  0  0  0  0  0  0  0  0  0  0  0
    8.2985  -13.5935   21.7447 N   0  0  0  0  0  0  0  0  0  0  0  0
    7.1060  -14.1201   22.0626 C   0  0  0  0  0  0  0  0  0  0  0  0
    7.3648  -15.2125   22.7777 N   0  0  0  0  0  0  0  0  0  0  0  0
   11.5380  -17.4933   24.3093 C   0  0  0  0  0  0  0  0  0  0  0  0
   12.2261  -18.6005   23.7613 O   0  0  0  0  0  0  0  0  0  0  0  0
   11.6329  -17.3817   25.5548 O   0  0  0  0  0  0  0  0  0  0  0  0
  2  1  1  6
  2  5  1  0
  3  2  1  0
  4  3  1  0
  5  6  2  0
  7  8  1  0
  8  9  2  0
  8 10  1  0
 10 11  1  0
 12 11  1  6
 12 14  1  0
 13  5  1  0
 13 12  1  0
 14 15  2  0
 16 17  1  0
 16 14  1  0
 17 24  1  0
 18 19  1  0
 17 18  1  6
 19 20  2  0
 19 23  1  0
 20 21  1  0
 21 22  1  0
 23 22  2  0
 24 26  2  0
 24 25  1  0
M  END
$$$$
