CQH.pdb
     RDKit          3D

 26 26  0  0  1  0  0  0  0  0999 V2000
    8.4850  -17.2866   13.9836 N   0  0  0  0  0  0  0  0  0  0  0  0
    9.7787  -16.9275   14.5291 C   0  0  1  0  0  0  0  0  0  0  0  0
   10.0836  -15.4632   14.3010 C   0  0  0  0  0  0  0  0  0  0  0  0
   10.1353  -15.1508   12.5098 S   0  0  0  0  0  0  0  0  0  0  0  0
    9.7814  -17.2048   15.9789 C   0  0  0  0  0  0  0  0  0  0  0  0
    8.7199  -17.0132   16.6237 O   0  0  0  0  0  0  0  0  0  0  0  0
   13.2213  -21.3895   18.8686 N   0  0  0  0  0  0  0  0  0  0  0  0
   12.4481  -20.9127   19.9491 C   0  0  0  0  0  0  0  0  0  0  0  0
   12.4948  -21.4937   21.0500 O   0  0  0  0  0  0  0  0  0  0  0  0
   11.5908  -19.7191   19.7426 C   0  0  0  0  0  0  0  0  0  0  0  0
   11.6662  -19.2293   18.3299 C   0  0  0  0  0  0  0  0  0  0  0  0
   10.9057  -17.9767   18.1112 C   0  0  2  0  0  0  0  0  0  0  0  0
   10.9147  -17.6751   16.6838 N   0  0  0  0  0  0  0  0  0  0  0  0
   11.2925  -16.8146   18.9143 C   0  0  0  0  0  0  0  0  0  0  0  0
   12.0489  -15.8944   18.5038 O   0  0  0  0  0  0  0  0  0  0  0  0
   10.7835  -16.7104   20.2504 N   0  0  0  0  0  0  0  0  0  0  0  0
   11.1557  -15.6517   21.1674 C   0  0  1  0  0  0  0  0  0  0  0  0
    9.9906  -14.8801   21.6729 C   0  0  0  0  0  0  0  0  0  0  0  0
    9.3400  -14.1472   20.5637 C   0  0  0  0  0  0  0  0  0  0  0  0
    9.6977  -14.0301   19.2333 C   0  0  0  0  0  0  0  0  0  0  0  0
    8.7910  -13.2414   18.6361 N   0  0  0  0  0  0  0  0  0  0  0  0
    7.8668  -12.8471   19.5254 C   0  0  0  0  0  0  0  0  0  0  0  0
    8.2114  -13.4019   20.6851 N   0  0  0  0  0  0  0  0  0  0  0  0
   12.0808  -16.1555   22.2131 C   0  0  0  0  0  0  0  0  0  0  0  0
   12.7187  -15.2598   23.1022 O   0  0  0  0  0  0  0  0  0  0  0  0
   12.3655  -17.3636   22.3927 O   0  0  0  0  0  0  0  0  0  0  0  0
  2  1  1  1
  2  5  1  0
  3  2  1  0
  4  3  1  0
  5  6  2  0
  7  8  1  0
  8  9  2  0
  8 10  1  0
 10 11  1  0
 12 11  1  6
 12 14  1  0
 13  5  1  0
 13 12  1  0
 14 15  2  0
 16 17  1  0
 16 14  1  0
 17 24  1  0
 18 19  1  0
 17 18  1  1
 19 20  2  0
 19 23  1  0
 20 21  1  0
 21 22  1  0
 23 22  2  0
 24 26  2  0
 24 25  1  0
M  END
$$$$
