QSV.pdb
     RDKit          3D

 23 22  0  0  1  0  0  0  0  0999 V2000
   -1.0581  -29.4479   27.8290 N   0  0  0  0  0  0  0  0  0  0  0  0
   -0.7247  -29.8723   29.1300 C   0  0  0  0  0  0  0  0  0  0  0  0
   -0.5876  -31.0898   29.3668 O   0  0  0  0  0  0  0  0  0  0  0  0
   -0.5379  -28.8845   30.2087 C   0  0  0  0  0  0  0  0  0  0  0  0
   -0.8793  -27.4955   29.7139 C   0  0  0  0  0  0  0  0  0  0  0  0
   -1.4394  -26.6345   30.8255 C   0  0  2  0  0  0  0  0  0  0  0  0
   -1.5766  -27.4461   31.9992 N   0  0  0  0  0  0  0  0  0  0  0  0
   -2.7252  -26.0723   30.3522 C   0  0  0  0  0  0  0  0  0  0  0  0
   -2.7100  -25.4478   29.2590 O   0  0  0  0  0  0  0  0  0  0  0  0
   -6.0116  -26.5668   32.5514 O   0  0  0  0  0  0  0  0  0  0  0  0
   -6.2846  -26.4495   31.2008 C   0  0  0  0  0  0  0  0  0  0  0  0
   -5.1374  -25.6900   30.5183 C   0  0  2  0  0  0  0  0  0  0  0  0
   -3.9359  -26.2186   31.0826 N   0  0  0  0  0  0  0  0  0  0  0  0
   -5.3324  -24.2527   30.8227 C   0  0  0  0  0  0  0  0  0  0  0  0
   -4.9564  -23.8440   31.9607 O   0  0  0  0  0  0  0  0  0  0  0  0
   -3.9461  -21.0912   29.2442 C   0  0  0  0  0  0  0  0  0  0  0  0
   -5.4693  -21.0005   29.2106 C   0  0  1  0  0  0  0  0  0  0  0  0
   -6.0051  -21.3718   27.8503 C   0  0  0  0  0  0  0  0  0  0  0  0
   -6.0590  -21.9013   30.2737 C   0  0  2  0  0  0  0  0  0  0  0  0
   -5.9001  -23.2967   29.9562 N   0  0  0  0  0  0  0  0  0  0  0  0
   -7.5203  -21.6267   30.3327 C   0  0  0  0  0  0  0  0  0  0  0  0
   -8.0732  -20.4822   30.8482 O   0  0  0  0  0  0  0  0  0  0  0  0
   -8.2930  -22.5086   29.8770 O   0  0  0  0  0  0  0  0  0  0  0  0
  1  2  1  0
  2  3  2  0
  4  5  1  0
  4  2  1  0
  6  8  1  0
  6  5  1  0
  6  7  1  1
  8  9  2  0
 10 11  1  0
 12 11  1  1
 12 13  1  0
 13  8  1  0
 14 12  1  0
 15 14  2  0
 17 16  1  6
 17 19  1  0
 18 17  1  0
 19 21  1  0
 19 20  1  6
 20 14  1  0
 21 22  1  0
 23 21  2  0
M  END
$$$$
