QSV.pdb
     RDKit          3D

 23 22  0  0  1  0  0  0  0  0999 V2000
   10.7979  -12.5621   19.8078 N   0  0  0  0  0  0  0  0  0  0  0  0
    9.8116  -12.9958   18.9005 C   0  0  0  0  0  0  0  0  0  0  0  0
   10.1527  -13.5191   17.8203 O   0  0  0  0  0  0  0  0  0  0  0  0
    8.3821  -12.8332   19.2235 C   0  0  0  0  0  0  0  0  0  0  0  0
    8.0597  -13.5132   20.5366 C   0  0  0  0  0  0  0  0  0  0  0  0
    8.2892  -15.0071   20.4569 C   0  0  2  0  0  0  0  0  0  0  0  0
    7.3454  -15.5596   19.5300 N   0  0  0  0  0  0  0  0  0  0  0  0
    8.1509  -15.5554   21.8257 C   0  0  0  0  0  0  0  0  0  0  0  0
    6.9814  -15.7084   22.2664 O   0  0  0  0  0  0  0  0  0  0  0  0
   10.7254  -18.0139   23.3199 O   0  0  0  0  0  0  0  0  0  0  0  0
    9.4447  -17.9242   23.8342 C   0  0  0  0  0  0  0  0  0  0  0  0
    9.0402  -16.4455   23.9256 C   0  0  2  0  0  0  0  0  0  0  0  0
    9.2741  -15.9010   22.6254 N   0  0  0  0  0  0  0  0  0  0  0  0
    9.8937  -15.8300   24.9693 C   0  0  0  0  0  0  0  0  0  0  0  0
   11.0709  -15.5021   24.6377 O   0  0  0  0  0  0  0  0  0  0  0  0
    9.1060  -12.8132   27.1431 C   0  0  0  0  0  0  0  0  0  0  0  0
    9.6288  -13.8952   28.0841 C   0  0  1  0  0  0  0  0  0  0  0  0
    8.5051  -14.5121   28.8790 C   0  0  0  0  0  0  0  0  0  0  0  0
   10.3571  -14.9565   27.2888 C   0  0  2  0  0  0  0  0  0  0  0  0
    9.5111  -15.5756   26.3018 N   0  0  0  0  0  0  0  0  0  0  0  0
   10.7749  -16.0211   28.2409 C   0  0  0  0  0  0  0  0  0  0  0  0
   11.7781  -15.8827   29.1660 O   0  0  0  0  0  0  0  0  0  0  0  0
   10.1617  -17.1181   28.1868 O   0  0  0  0  0  0  0  0  0  0  0  0
  1  2  1  0
  2  3  2  0
  4  5  1  0
  4  2  1  0
  6  8  1  0
  6  5  1  0
  6  7  1  6
  8  9  2  0
 10 11  1  0
 12 11  1  6
 12 13  1  0
 13  8  1  0
 14 12  1  0
 15 14  2  0
 17 16  1  6
 17 19  1  0
 18 17  1  0
 19 21  1  0
 19 20  1  6
 20 14  1  0
 21 22  1  0
 23 21  2  0
M  END
$$$$
