QSV.pdb
     RDKit          3D

 23 22  0  0  1  0  0  0  0  0999 V2000
   10.4212  -13.4364   20.0081 N   0  0  0  0  0  0  0  0  0  0  0  0
    9.9196  -13.1737   18.7184 C   0  0  0  0  0  0  0  0  0  0  0  0
   10.7096  -12.9017   17.7916 O   0  0  0  0  0  0  0  0  0  0  0  0
    8.4682  -13.2194   18.4623 C   0  0  0  0  0  0  0  0  0  0  0  0
    7.7277  -13.6482   19.7106 C   0  0  0  0  0  0  0  0  0  0  0  0
    7.8064  -15.1461   19.9133 C   0  0  2  0  0  0  0  0  0  0  0  0
    7.0490  -15.7820   18.8756 N   0  0  0  0  0  0  0  0  0  0  0  0
    7.2963  -15.4418   21.2718 C   0  0  0  0  0  0  0  0  0  0  0  0
    6.0585  -15.3092   21.4608 O   0  0  0  0  0  0  0  0  0  0  0  0
    9.3878  -17.4708   24.0799 O   0  0  0  0  0  0  0  0  0  0  0  0
    8.0117  -17.3556   24.1548 C   0  0  0  0  0  0  0  0  0  0  0  0
    7.5931  -15.9691   23.6439 C   0  0  2  0  0  0  0  0  0  0  0  0
    8.1472  -15.8585   22.3315 N   0  0  0  0  0  0  0  0  0  0  0  0
    8.1525  -14.9752   24.5904 C   0  0  0  0  0  0  0  0  0  0  0  0
    9.3256  -14.5550   24.3650 O   0  0  0  0  0  0  0  0  0  0  0  0
    6.4214  -11.6569   26.0349 C   0  0  0  0  0  0  0  0  0  0  0  0
    6.9845  -12.5289   27.1539 C   0  0  1  0  0  0  0  0  0  0  0  0
    5.8921  -13.3253   27.8230 C   0  0  0  0  0  0  0  0  0  0  0  0
    8.0458  -13.4528   26.5976 C   0  0  2  0  0  0  0  0  0  0  0  0
    7.4937  -14.4537   25.7221 N   0  0  0  0  0  0  0  0  0  0  0  0
    8.6650  -14.1664   27.7472 C   0  0  0  0  0  0  0  0  0  0  0  0
    9.4739  -13.5729   28.6826 O   0  0  0  0  0  0  0  0  0  0  0  0
    8.4253  -15.3961   27.8612 O   0  0  0  0  0  0  0  0  0  0  0  0
  1  2  1  0
  2  3  2  0
  4  5  1  0
  4  2  1  0
  6  8  1  0
  6  5  1  0
  6  7  1  6
  8  9  2  0
 10 11  1  0
 12 11  1  1
 12 13  1  0
 13  8  1  0
 14 12  1  0
 15 14  2  0
 17 16  1  6
 17 19  1  0
 18 17  1  0
 19 21  1  0
 19 20  1  6
 20 14  1  0
 21 22  1  0
 23 21  2  0
M  END
$$$$
