QSV.pdb
     RDKit          3D

 23 22  0  0  1  0  0  0  0  0999 V2000
   10.9381  -13.5760   20.5406 N   0  0  0  0  0  0  0  0  0  0  0  0
   10.7852  -13.4182   19.1493 C   0  0  0  0  0  0  0  0  0  0  0  0
   11.7604  -13.6097   18.3946 O   0  0  0  0  0  0  0  0  0  0  0  0
    9.4799  -13.0285   18.5848 C   0  0  0  0  0  0  0  0  0  0  0  0
    8.3627  -13.4142   19.5301 C   0  0  0  0  0  0  0  0  0  0  0  0
    8.1847  -14.9159   19.5928 C   0  0  2  0  0  0  0  0  0  0  0  0
    7.4282  -15.3286   18.4472 N   0  0  0  0  0  0  0  0  0  0  0  0
    7.5190  -15.2351   20.8766 C   0  0  0  0  0  0  0  0  0  0  0  0
    6.2742  -15.0554   20.9370 O   0  0  0  0  0  0  0  0  0  0  0  0
    9.0415  -17.6487   23.6650 O   0  0  0  0  0  0  0  0  0  0  0  0
    7.6974  -17.3232   23.6597 C   0  0  0  0  0  0  0  0  0  0  0  0
    7.5359  -15.8532   23.2452 C   0  0  2  0  0  0  0  0  0  0  0  0
    8.2327  -15.7239   22.0044 N   0  0  0  0  0  0  0  0  0  0  0  0
    8.1307  -15.0336   24.3273 C   0  0  0  0  0  0  0  0  0  0  0  0
    9.3665  -14.7704   24.2440 O   0  0  0  0  0  0  0  0  0  0  0  0
    6.5380  -11.7179   25.9007 C   0  0  0  0  0  0  0  0  0  0  0  0
    7.0129  -12.6689   26.9960 C   0  0  1  0  0  0  0  0  0  0  0  0
    5.8529  -13.4138   27.6083 C   0  0  0  0  0  0  0  0  0  0  0  0
    8.0229  -13.6412   26.4267 C   0  0  2  0  0  0  0  0  0  0  0  0
    7.4419  -14.5187   25.4441 N   0  0  0  0  0  0  0  0  0  0  0  0
    8.5050  -14.4929   27.5476 C   0  0  0  0  0  0  0  0  0  0  0  0
    9.3041  -14.0484   28.5700 O   0  0  0  0  0  0  0  0  0  0  0  0
    8.1512  -15.7001   27.5499 O   0  0  0  0  0  0  0  0  0  0  0  0
  1  2  1  0
  2  3  2  0
  4  5  1  0
  4  2  1  0
  6  8  1  0
  6  5  1  0
  6  7  1  6
  8  9  2  0
 10 11  1  0
 12 11  1  1
 12 13  1  0
 13  8  1  0
 14 12  1  0
 15 14  2  0
 17 16  1  6
 17 19  1  0
 18 17  1  0
 19 21  1  0
 19 20  1  6
 20 14  1  0
 21 22  1  0
 23 21  2  0
M  END
$$$$
