QSV.pdb
     RDKit          3D

 23 22  0  0  1  0  0  0  0  0999 V2000
   13.4217  -15.0461   20.5402 N   0  0  0  0  0  0  0  0  0  0  0  0
   12.9809  -15.2273   19.2148 C   0  0  0  0  0  0  0  0  0  0  0  0
   13.3633  -16.2228   18.5669 O   0  0  0  0  0  0  0  0  0  0  0  0
   12.0716  -14.2466   18.5936 C   0  0  0  0  0  0  0  0  0  0  0  0
   10.7918  -14.1365   19.3939 C   0  0  0  0  0  0  0  0  0  0  0  0
   10.0061  -15.4298   19.3613 C   0  0  2  0  0  0  0  0  0  0  0  0
    9.4440  -15.5832   18.0516 N   0  0  0  0  0  0  0  0  0  0  0  0
    8.9832  -15.3596   20.4300 C   0  0  0  0  0  0  0  0  0  0  0  0
    7.9496  -14.6817   20.1904 O   0  0  0  0  0  0  0  0  0  0  0  0
    9.0259  -17.8187   23.7027 O   0  0  0  0  0  0  0  0  0  0  0  0
    7.8498  -17.3228   23.1704 C   0  0  0  0  0  0  0  0  0  0  0  0
    8.0939  -15.9002   22.6457 C   0  0  2  0  0  0  0  0  0  0  0  0
    9.1392  -16.0200   21.6790 N   0  0  0  0  0  0  0  0  0  0  0  0
    8.4813  -15.0723   23.8124 C   0  0  0  0  0  0  0  0  0  0  0  0
    9.7140  -15.0073   24.0947 O   0  0  0  0  0  0  0  0  0  0  0  0
    5.6514  -13.1544   26.4642 C   0  0  0  0  0  0  0  0  0  0  0  0
    6.9850  -12.4950   26.1231 C   0  0  1  0  0  0  0  0  0  0  0  0
    7.4812  -11.6498   27.2697 C   0  0  0  0  0  0  0  0  0  0  0  0
    8.0045  -13.5558   25.7697 C   0  0  2  0  0  0  0  0  0  0  0  0
    7.5979  -14.3480   24.6382 N   0  0  0  0  0  0  0  0  0  0  0  0
    8.1153  -14.4754   26.9342 C   0  0  0  0  0  0  0  0  0  0  0  0
    8.8526  -14.2133   28.0609 O   0  0  0  0  0  0  0  0  0  0  0  0
    7.4877  -15.5639   26.8730 O   0  0  0  0  0  0  0  0  0  0  0  0
  1  2  1  0
  2  3  2  0
  4  5  1  0
  4  2  1  0
  6  8  1  0
  6  5  1  0
  6  7  1  6
  8  9  2  0
 10 11  1  0
 12 11  1  1
 12 13  1  0
 13  8  1  0
 14 12  1  0
 15 14  2  0
 17 16  1  1
 17 19  1  0
 18 17  1  0
 19 21  1  0
 19 20  1  6
 20 14  1  0
 21 22  1  0
 23 21  2  0
M  END
$$$$
