EVK.pdb
     RDKit          3D

 26 25  0  0  1  0  0  0  0  0999 V2000
   10.9351  -17.0035   17.7530 N   0  0  0  0  0  0  0  0  0  0  0  0
    9.8695  -17.2358   18.6595 C   0  0  1  0  0  0  0  0  0  0  0  0
    9.7829  -18.5994   19.2030 C   0  0  0  0  0  0  0  0  0  0  0  0
   10.2163  -19.6326   18.2138 C   0  0  0  0  0  0  0  0  0  0  0  0
   10.2316  -21.0235   18.6398 C   0  0  0  0  0  0  0  0  0  0  0  0
    9.2960  -21.8229   18.5113 O   0  0  0  0  0  0  0  0  0  0  0  0
    9.9149  -16.1754   19.7240 C   0  0  0  0  0  0  0  0  0  0  0  0
   11.0465  -15.7774   20.0438 O   0  0  0  0  0  0  0  0  0  0  0  0
   11.3982  -21.4930   19.2429 O   0  0  0  0  0  0  0  0  0  0  0  0
    6.2126  -14.5431   21.0998 C   0  0  0  0  0  0  0  0  0  0  0  0
    7.5194  -13.7352   21.1338 C   0  0  2  0  0  0  0  0  0  0  0  0
    7.5728  -13.0358   19.7898 C   0  0  0  0  0  0  0  0  0  0  0  0
    8.6319  -14.7056   21.3827 C   0  0  2  0  0  0  0  0  0  0  0  0
    8.7670  -15.6690   20.3153 N   0  0  0  0  0  0  0  0  0  0  0  0
    8.7019  -15.3475   22.6819 C   0  0  0  0  0  0  0  0  0  0  0  0
    8.4735  -16.6066   22.7118 O   0  0  0  0  0  0  0  0  0  0  0  0
    8.9988  -14.7118   23.8882 N   0  0  0  0  0  0  0  0  0  0  0  0
    9.0456  -15.5590   25.1315 C   0  0  1  0  0  0  0  0  0  0  0  0
    9.6995  -14.7400   26.1804 C   0  0  0  0  0  0  0  0  0  0  0  0
    9.9754  -15.2070   27.5219 C   0  0  0  0  0  0  0  0  0  0  0  0
   10.1922  -14.3080   28.6659 C   0  0  0  0  0  0  0  0  0  0  0  0
   10.4387  -14.9830   29.9764 C   0  0  0  0  0  0  0  0  0  0  0  0
   11.7590  -15.5605   30.0780 N   0  0  0  0  0  0  0  0  0  0  0  0
    7.6402  -15.9331   25.4270 C   0  0  0  0  0  0  0  0  0  0  0  0
    6.6157  -15.2992   25.1415 O   0  0  0  0  0  0  0  0  0  0  0  0
    7.3898  -17.1486   26.1140 O   0  0  0  0  0  0  0  0  0  0  0  0
  2  1  1  1
  2  7  1  0
  3  4  1  0
  3  2  1  0
  5  4  1  0
  6  5  2  0
  7  8  2  0
  9  5  1  0
 11 10  1  6
 11 12  1  0
 13 11  1  0
 14  7  1  0
 13 14  1  6
 15 13  1  0
 15 16  2  0
 17 15  1  0
 18 17  1  0
 18 19  1  1
 20 21  1  0
 20 19  1  0
 22 23  1  0
 22 21  1  0
 24 26  1  0
 24 18  1  0
 25 24  2  0
M  END
$$$$
