EVK.pdb
     RDKit          3D

 26 25  0  0  1  0  0  0  0  0999 V2000
    7.3770  -17.6850   17.5801 N   0  0  0  0  0  0  0  0  0  0  0  0
    8.7946  -17.6729   17.6186 C   0  0  1  0  0  0  0  0  0  0  0  0
    9.4631  -17.3895   16.3399 C   0  0  0  0  0  0  0  0  0  0  0  0
    9.7120  -18.6295   15.5433 C   0  0  0  0  0  0  0  0  0  0  0  0
   10.3848  -18.4948   14.2606 C   0  0  0  0  0  0  0  0  0  0  0  0
    9.8587  -18.6652   13.1538 O   0  0  0  0  0  0  0  0  0  0  0  0
    9.2294  -16.7588   18.7299 C   0  0  0  0  0  0  0  0  0  0  0  0
   10.4431  -16.7632   18.9910 O   0  0  0  0  0  0  0  0  0  0  0  0
   11.7348  -18.1450   14.2821 O   0  0  0  0  0  0  0  0  0  0  0  0
    7.7021  -13.1646   19.2473 C   0  0  0  0  0  0  0  0  0  0  0  0
    7.5762  -13.9381   20.5692 C   0  0  2  0  0  0  0  0  0  0  0  0
    7.8284  -12.9010   21.6458 C   0  0  0  0  0  0  0  0  0  0  0  0
    8.5735  -15.0537   20.5245 C   0  0  2  0  0  0  0  0  0  0  0  0
    8.3346  -15.9577   19.4238 N   0  0  0  0  0  0  0  0  0  0  0  0
    8.8437  -15.7794   21.7514 C   0  0  0  0  0  0  0  0  0  0  0  0
    7.8662  -16.4327   22.2576 O   0  0  0  0  0  0  0  0  0  0  0  0
   10.0702  -15.8262   22.4154 N   0  0  0  0  0  0  0  0  0  0  0  0
   10.1389  -16.6039   23.7023 C   0  0  1  0  0  0  0  0  0  0  0  0
   10.8247  -17.8813   23.3918 C   0  0  0  0  0  0  0  0  0  0  0  0
   10.9508  -18.9829   24.3214 C   0  0  0  0  0  0  0  0  0  0  0  0
   11.7092  -20.2090   24.0292 C   0  0  0  0  0  0  0  0  0  0  0  0
   11.7863  -21.1990   25.1462 C   0  0  0  0  0  0  0  0  0  0  0  0
   12.5356  -22.3855   24.8027 N   0  0  0  0  0  0  0  0  0  0  0  0
   10.8572  -15.7365   24.6688 C   0  0  0  0  0  0  0  0  0  0  0  0
   11.0263  -15.9357   25.8790 O   0  0  0  0  0  0  0  0  0  0  0  0
   11.4347  -14.5287   24.2002 O   0  0  0  0  0  0  0  0  0  0  0  0
  2  1  1  6
  2  7  1  0
  3  4  1  0
  3  2  1  0
  5  4  1  0
  6  5  2  0
  7  8  2  0
  9  5  1  0
 11 10  1  6
 11 12  1  0
 13 11  1  0
 14  7  1  0
 13 14  1  6
 15 13  1  0
 15 16  2  0
 17 15  1  0
 18 17  1  0
 18 19  1  6
 20 21  1  0
 20 19  1  0
 22 23  1  0
 22 21  1  0
 24 26  1  0
 24 18  1  0
 25 24  2  0
M  END
$$$$
