EVK.pdb
     RDKit          3D

 26 25  0  0  1  0  0  0  0  0999 V2000
    9.5404  -17.7609   17.9127 N   0  0  0  0  0  0  0  0  0  0  0  0
    8.6117  -17.4728   18.9450 C   0  0  1  0  0  0  0  0  0  0  0  0
    8.2043  -18.6184   19.7720 C   0  0  0  0  0  0  0  0  0  0  0  0
    9.1132  -19.7925   19.6012 C   0  0  0  0  0  0  0  0  0  0  0  0
    8.6248  -20.9303   18.8377 C   0  0  0  0  0  0  0  0  0  0  0  0
    7.6683  -21.6485   19.1541 O   0  0  0  0  0  0  0  0  0  0  0  0
    9.1428  -16.3198   19.7502 C   0  0  0  0  0  0  0  0  0  0  0  0
   10.3792  -16.2302   19.8171 O   0  0  0  0  0  0  0  0  0  0  0  0
    9.2912  -21.2355   17.6511 O   0  0  0  0  0  0  0  0  0  0  0  0
    6.3357  -13.5764   21.5722 C   0  0  0  0  0  0  0  0  0  0  0  0
    7.7340  -13.1469   21.1009 C   0  0  2  0  0  0  0  0  0  0  0  0
    7.5354  -12.7041   19.6647 C   0  0  0  0  0  0  0  0  0  0  0  0
    8.6401  -14.3257   21.2762 C   0  0  2  0  0  0  0  0  0  0  0  0
    8.3080  -15.4093   20.3811 N   0  0  0  0  0  0  0  0  0  0  0  0
    8.8790  -14.8107   22.6225 C   0  0  0  0  0  0  0  0  0  0  0  0
    9.3295  -13.9601   23.4663 O   0  0  0  0  0  0  0  0  0  0  0  0
    8.6564  -16.1140   23.0691 N   0  0  0  0  0  0  0  0  0  0  0  0
    8.9343  -16.4134   24.5178 C   0  0  1  0  0  0  0  0  0  0  0  0
    8.1358  -17.6135   24.8653 C   0  0  0  0  0  0  0  0  0  0  0  0
    6.9267  -18.0122   24.1777 C   0  0  0  0  0  0  0  0  0  0  0  0
    6.2285  -19.2815   24.4332 C   0  0  0  0  0  0  0  0  0  0  0  0
    5.0346  -19.5431   23.5729 C   0  0  0  0  0  0  0  0  0  0  0  0
    4.4233  -20.8276   23.8254 N   0  0  0  0  0  0  0  0  0  0  0  0
   10.4030  -16.5966   24.6252 C   0  0  0  0  0  0  0  0  0  0  0  0
   11.2141  -16.7404   23.7008 O   0  0  0  0  0  0  0  0  0  0  0  0
   10.9937  -16.6158   25.9146 O   0  0  0  0  0  0  0  0  0  0  0  0
  2  1  1  6
  2  7  1  0
  3  4  1  0
  3  2  1  0
  5  4  1  0
  6  5  2  0
  7  8  2  0
  9  5  1  0
 11 10  1  6
 11 12  1  0
 13 11  1  0
 14  7  1  0
 13 14  1  6
 15 13  1  0
 15 16  2  0
 17 15  1  0
 18 17  1  0
 18 19  1  6
 20 21  1  0
 20 19  1  0
 22 23  1  0
 22 21  1  0
 24 26  1  0
 24 18  1  0
 25 24  2  0
M  END
$$$$
