EVK.pdb
     RDKit          3D

 26 25  0  0  1  0  0  0  0  0999 V2000
    8.7595  -16.0405   15.7971 N   0  0  0  0  0  0  0  0  0  0  0  0
    8.4752  -16.7376   16.9989 C   0  0  1  0  0  0  0  0  0  0  0  0
    8.7994  -18.1719   16.9941 C   0  0  0  0  0  0  0  0  0  0  0  0
    8.5236  -18.8199   18.3124 C   0  0  0  0  0  0  0  0  0  0  0  0
    8.8472  -20.2301   18.4624 C   0  0  0  0  0  0  0  0  0  0  0  0
    8.0241  -21.1443   18.5951 O   0  0  0  0  0  0  0  0  0  0  0  0
    9.1083  -15.9907   18.1395 C   0  0  0  0  0  0  0  0  0  0  0  0
   10.3203  -15.7491   18.0220 O   0  0  0  0  0  0  0  0  0  0  0  0
   10.1976  -20.5789   18.4561 O   0  0  0  0  0  0  0  0  0  0  0  0
    6.5583  -14.4407   21.2450 C   0  0  0  0  0  0  0  0  0  0  0  0
    7.8381  -13.7451   20.7554 C   0  0  2  0  0  0  0  0  0  0  0  0
    7.3859  -12.8842   19.5925 C   0  0  0  0  0  0  0  0  0  0  0  0
    8.8163  -14.8209   20.3987 C   0  0  2  0  0  0  0  0  0  0  0  0
    8.3878  -15.5934   19.2562 N   0  0  0  0  0  0  0  0  0  0  0  0
    9.3055  -15.6802   21.4605 C   0  0  0  0  0  0  0  0  0  0  0  0
    8.7462  -16.8260   21.5736 O   0  0  0  0  0  0  0  0  0  0  0  0
   10.3278  -15.3645   22.3563 N   0  0  0  0  0  0  0  0  0  0  0  0
   10.7106  -16.4048   23.3746 C   0  0  1  0  0  0  0  0  0  0  0  0
   12.1924  -16.4550   23.3957 C   0  0  0  0  0  0  0  0  0  0  0  0
   12.9934  -17.2105   22.4569 C   0  0  0  0  0  0  0  0  0  0  0  0
   14.4644  -17.2160   22.4652 C   0  0  0  0  0  0  0  0  0  0  0  0
   15.1103  -18.0403   21.3989 C   0  0  0  0  0  0  0  0  0  0  0  0
   16.5533  -18.0291   21.4685 N   0  0  0  0  0  0  0  0  0  0  0  0
   10.0891  -15.9772   24.6526 C   0  0  0  0  0  0  0  0  0  0  0  0
   10.0547  -16.6031   25.7203 O   0  0  0  0  0  0  0  0  0  0  0  0
    9.4481  -14.7131   24.7079 O   0  0  0  0  0  0  0  0  0  0  0  0
  2  1  1  6
  2  7  1  0
  3  4  1  0
  3  2  1  0
  5  4  1  0
  6  5  2  0
  7  8  2  0
  9  5  1  0
 11 10  1  6
 11 12  1  0
 13 11  1  0
 14  7  1  0
 13 14  1  6
 15 13  1  0
 15 16  2  0
 17 15  1  0
 18 17  1  0
 18 19  1  1
 20 21  1  0
 20 19  1  0
 22 23  1  0
 22 21  1  0
 24 26  1  0
 24 18  1  0
 25 24  2  0
M  END
$$$$
