LIF.pdb
     RDKit          3D

 28 28  0  0  1  0  0  0  0  0999 V2000
    2.6612  -19.5276   22.7985 C   0  0  0  0  0  0  0  0  0  0  0  0
    3.4703  -19.0695   21.6143 C   0  0  1  0  0  0  0  0  0  0  0  0
    2.6203  -18.1341   20.7794 C   0  0  0  0  0  0  0  0  0  0  0  0
    4.7261  -18.3462   21.9745 C   0  0  0  0  0  0  0  0  0  0  0  0
    5.3626  -17.7734   20.7428 C   0  0  2  0  0  0  0  0  0  0  0  0
    5.5434  -18.8235   19.7696 N   0  0  0  0  0  0  0  0  0  0  0  0
    6.6412  -17.1258   21.1403 C   0  0  0  0  0  0  0  0  0  0  0  0
    7.7225  -17.7716   21.1274 O   0  0  0  0  0  0  0  0  0  0  0  0
    7.3584  -12.1480   19.4975 C   0  0  0  0  0  0  0  0  0  0  0  0
    7.5115  -13.6328   19.8545 C   0  0  0  0  0  0  0  0  0  0  0  0
    7.7641  -13.7066   21.3358 C   0  0  2  0  0  0  0  0  0  0  0  0
    8.9588  -12.9146   21.7656 C   0  0  0  0  0  0  0  0  0  0  0  0
    7.8439  -15.0815   21.8933 C   0  0  2  0  0  0  0  0  0  0  0  0
    6.6260  -15.7751   21.5335 N   0  0  0  0  0  0  0  0  0  0  0  0
    7.9914  -15.1355   23.3656 C   0  0  0  0  0  0  0  0  0  0  0  0
    7.6613  -14.1646   24.1122 O   0  0  0  0  0  0  0  0  0  0  0  0
    8.5139  -16.2922   23.9887 N   0  0  0  0  0  0  0  0  0  0  0  0
    8.7883  -16.2874   25.4097 C   0  0  1  0  0  0  0  0  0  0  0  0
    7.5800  -15.9783   26.2291 C   0  0  0  0  0  0  0  0  0  0  0  0
    7.4344  -14.5474   26.5446 C   0  0  0  0  0  0  0  0  0  0  0  0
    8.5000  -13.7602   26.9395 C   0  0  0  0  0  0  0  0  0  0  0  0
    8.3582  -12.4204   27.2341 C   0  0  0  0  0  0  0  0  0  0  0  0
    7.1266  -11.8062   27.1439 C   0  0  0  0  0  0  0  0  0  0  0  0
    6.0562  -12.5817   26.7508 C   0  0  0  0  0  0  0  0  0  0  0  0
    6.2015  -13.9227   26.4566 C   0  0  0  0  0  0  0  0  0  0  0  0
    9.3710  -17.6100   25.8345 C   0  0  0  0  0  0  0  0  0  0  0  0
    9.3768  -18.5664   25.0203 O   0  0  0  0  0  0  0  0  0  0  0  0
    9.9022  -17.8204   27.0907 O   0  0  0  0  0  0  0  0  0  0  0  0
  2  1  1  1
  2  3  1  0
  4  2  1  0
  5  4  1  0
  5  6  1  6
  7  5  1  0
  8  7  2  0
 10 11  1  0
 10  9  1  0
 11 13  1  0
 11 12  1  6
 13 15  1  0
 13 14  1  1
 14  7  1  0
 15 16  2  0
 17 18  1  0
 17 15  1  0
 18 19  1  1
 19 20  1  0
 20 25  2  0
 21 22  2  0
 21 20  1  0
 22 23  1  0
 23 24  2  0
 25 24  1  0
 26 18  1  0
 27 26  2  0
 28 26  1  0
M  END
$$$$
