LIF.pdb
     RDKit          3D

 28 28  0  0  1  0  0  0  0  0999 V2000
   13.2222  -15.6920   18.7437 C   0  0  0  0  0  0  0  0  0  0  0  0
   12.0070  -16.5710   18.8750 C   0  0  1  0  0  0  0  0  0  0  0  0
   12.4620  -17.9872   19.1611 C   0  0  0  0  0  0  0  0  0  0  0  0
   11.0718  -16.1629   19.9653 C   0  0  0  0  0  0  0  0  0  0  0  0
    9.8697  -17.0602   19.9764 C   0  0  2  0  0  0  0  0  0  0  0  0
    9.1503  -16.9056   18.7350 N   0  0  0  0  0  0  0  0  0  0  0  0
    9.0479  -16.7192   21.1682 C   0  0  0  0  0  0  0  0  0  0  0  0
    8.3552  -15.6677   21.1946 O   0  0  0  0  0  0  0  0  0  0  0  0
    5.7896  -20.2083   22.9654 C   0  0  0  0  0  0  0  0  0  0  0  0
    6.4401  -18.8687   22.5944 C   0  0  0  0  0  0  0  0  0  0  0  0
    7.4089  -18.5291   23.6943 C   0  0  2  0  0  0  0  0  0  0  0  0
    6.7557  -18.4207   25.0363 C   0  0  0  0  0  0  0  0  0  0  0  0
    8.2497  -17.3298   23.4448 C   0  0  2  0  0  0  0  0  0  0  0  0
    9.0554  -17.5919   22.2718 N   0  0  0  0  0  0  0  0  0  0  0  0
    9.1560  -16.9769   24.5613 C   0  0  0  0  0  0  0  0  0  0  0  0
   10.1746  -17.6759   24.8495 O   0  0  0  0  0  0  0  0  0  0  0  0
    8.9046  -15.8304   25.3497 N   0  0  0  0  0  0  0  0  0  0  0  0
    9.8799  -15.3958   26.3267 C   0  0  1  0  0  0  0  0  0  0  0  0
    9.9112  -13.9128   26.4896 C   0  0  0  0  0  0  0  0  0  0  0  0
    8.5739  -13.3043   26.5883 C   0  0  0  0  0  0  0  0  0  0  0  0
    8.1089  -12.7134   27.7483 C   0  0  0  0  0  0  0  0  0  0  0  0
    6.8555  -12.1449   27.8356 C   0  0  0  0  0  0  0  0  0  0  0  0
    6.0052  -12.1452   26.7497 C   0  0  0  0  0  0  0  0  0  0  0  0
    6.4584  -12.7320   25.5869 C   0  0  0  0  0  0  0  0  0  0  0  0
    7.7137  -13.3001   25.5028 C   0  0  0  0  0  0  0  0  0  0  0  0
    9.6162  -16.0520   27.6567 C   0  0  0  0  0  0  0  0  0  0  0  0
   10.3890  -15.8183   28.6189 O   0  0  0  0  0  0  0  0  0  0  0  0
    8.5543  -16.9081   27.8670 O   0  0  0  0  0  0  0  0  0  0  0  0
  2  1  1  1
  2  3  1  0
  4  2  1  0
  5  4  1  0
  5  6  1  6
  7  5  1  0
  8  7  2  0
 10 11  1  0
 10  9  1  0
 11 13  1  0
 11 12  1  1
 13 15  1  0
 13 14  1  6
 14  7  1  0
 15 16  2  0
 17 18  1  0
 17 15  1  0
 18 19  1  1
 19 20  1  0
 20 25  2  0
 21 22  2  0
 21 20  1  0
 22 23  1  0
 23 24  2  0
 25 24  1  0
 26 18  1  0
 27 26  2  0
 28 26  1  0
M  END
$$$$
