LIF.pdb
     RDKit          3D

 28 28  0  0  1  0  0  0  0  0999 V2000
    6.3944  -20.8030   24.9999 C   0  0  0  0  0  0  0  0  0  0  0  0
    6.0858  -20.4104   23.5796 C   0  0  1  0  0  0  0  0  0  0  0  0
    4.7761  -21.0538   23.1728 C   0  0  0  0  0  0  0  0  0  0  0  0
    5.9569  -18.9381   23.3662 C   0  0  0  0  0  0  0  0  0  0  0  0
    6.1755  -18.6056   21.9198 C   0  0  2  0  0  0  0  0  0  0  0  0
    6.3883  -19.8257   21.1791 N   0  0  0  0  0  0  0  0  0  0  0  0
    7.3243  -17.6653   21.8290 C   0  0  0  0  0  0  0  0  0  0  0  0
    8.4903  -18.0903   21.6142 O   0  0  0  0  0  0  0  0  0  0  0  0
    6.5538  -13.0783   19.3573 C   0  0  0  0  0  0  0  0  0  0  0  0
    7.1901  -14.3848   19.8509 C   0  0  0  0  0  0  0  0  0  0  0  0
    7.7079  -14.1261   21.2397 C   0  0  2  0  0  0  0  0  0  0  0  0
    8.7625  -13.0652   21.2826 C   0  0  0  0  0  0  0  0  0  0  0  0
    8.1755  -15.3312   21.9721 C   0  0  2  0  0  0  0  0  0  0  0  0
    7.0894  -16.2872   21.9878 N   0  0  0  0  0  0  0  0  0  0  0  0
    8.5876  -15.0736   23.3708 C   0  0  0  0  0  0  0  0  0  0  0  0
    8.5264  -13.9178   23.8897 O   0  0  0  0  0  0  0  0  0  0  0  0
    9.0691  -16.1292   24.1790 N   0  0  0  0  0  0  0  0  0  0  0  0
    9.3804  -15.8901   25.5720 C   0  0  1  0  0  0  0  0  0  0  0  0
    8.1623  -15.6676   26.4048 C   0  0  0  0  0  0  0  0  0  0  0  0
    7.7064  -14.2675   26.4164 C   0  0  0  0  0  0  0  0  0  0  0  0
    6.3930  -13.9104   26.1746 C   0  0  0  0  0  0  0  0  0  0  0  0
    5.9711  -12.5975   26.1865 C   0  0  0  0  0  0  0  0  0  0  0  0
    6.8597  -11.5749   26.4446 C   0  0  0  0  0  0  0  0  0  0  0  0
    8.1729  -11.9191   26.6873 C   0  0  0  0  0  0  0  0  0  0  0  0
    8.5920  -13.2344   26.6747 C   0  0  0  0  0  0  0  0  0  0  0  0
   10.1825  -17.0352   26.1328 C   0  0  0  0  0  0  0  0  0  0  0  0
   10.3601  -18.0607   25.4297 O   0  0  0  0  0  0  0  0  0  0  0  0
   10.7346  -17.0085   27.3973 O   0  0  0  0  0  0  0  0  0  0  0  0
  2  1  1  1
  2  3  1  0
  4  2  1  0
  5  4  1  0
  5  6  1  6
  7  5  1  0
  8  7  2  0
 10 11  1  0
 10  9  1  0
 11 13  1  0
 11 12  1  6
 13 15  1  0
 13 14  1  1
 14  7  1  0
 15 16  2  0
 17 18  1  0
 17 15  1  0
 18 19  1  1
 19 20  1  0
 20 25  2  0
 21 22  2  0
 21 20  1  0
 22 23  1  0
 23 24  2  0
 25 24  1  0
 26 18  1  0
 27 26  2  0
 28 26  1  0
M  END
$$$$
