LIF.pdb
     RDKit          3D

 28 28  0  0  1  0  0  0  0  0999 V2000
    6.1547  -21.5639   24.8304 C   0  0  0  0  0  0  0  0  0  0  0  0
    5.9663  -20.8845   23.5001 C   0  0  1  0  0  0  0  0  0  0  0  0
    4.5073  -20.9870   23.1060 C   0  0  0  0  0  0  0  0  0  0  0  0
    6.3407  -19.4389   23.4932 C   0  0  0  0  0  0  0  0  0  0  0  0
    6.2791  -18.8970   22.0957 C   0  0  2  0  0  0  0  0  0  0  0  0
    6.2273  -19.9962   21.1621 N   0  0  0  0  0  0  0  0  0  0  0  0
    7.4593  -18.0160   21.8879 C   0  0  0  0  0  0  0  0  0  0  0  0
    8.5722  -18.4980   21.5482 O   0  0  0  0  0  0  0  0  0  0  0  0
    6.5095  -13.1050   19.7625 C   0  0  0  0  0  0  0  0  0  0  0  0
    7.2680  -14.4256   19.9520 C   0  0  0  0  0  0  0  0  0  0  0  0
    7.8072  -14.4270   21.3566 C   0  0  2  0  0  0  0  0  0  0  0  0
    8.7672  -13.3087   21.6158 C   0  0  0  0  0  0  0  0  0  0  0  0
    8.4009  -15.7141   21.8020 C   0  0  2  0  0  0  0  0  0  0  0  0
    7.3146  -16.6294   22.0774 N   0  0  0  0  0  0  0  0  0  0  0  0
    9.2405  -15.6107   23.0173 C   0  0  0  0  0  0  0  0  0  0  0  0
   10.4240  -15.1557   22.9823 O   0  0  0  0  0  0  0  0  0  0  0  0
    8.7351  -16.0244   24.2714 N   0  0  0  0  0  0  0  0  0  0  0  0
    9.5767  -15.9621   25.4471 C   0  0  1  0  0  0  0  0  0  0  0  0
    9.7825  -14.5671   25.9353 C   0  0  0  0  0  0  0  0  0  0  0  0
    8.5267  -13.8297   26.1535 C   0  0  0  0  0  0  0  0  0  0  0  0
    8.4873  -12.5928   26.7694 C   0  0  0  0  0  0  0  0  0  0  0  0
    7.3084  -11.9064   26.9715 C   0  0  0  0  0  0  0  0  0  0  0  0
    6.1046  -12.4383   26.5592 C   0  0  0  0  0  0  0  0  0  0  0  0
    6.1315  -13.6719   25.9435 C   0  0  0  0  0  0  0  0  0  0  0  0
    7.3135  -14.3564   25.7427 C   0  0  0  0  0  0  0  0  0  0  0  0
    8.9993  -16.8110   26.5494 C   0  0  0  0  0  0  0  0  0  0  0  0
    7.9160  -17.4155   26.3532 O   0  0  0  0  0  0  0  0  0  0  0  0
    9.6123  -16.9541   27.7775 O   0  0  0  0  0  0  0  0  0  0  0  0
  2  1  1  1
  2  3  1  0
  4  2  1  0
  5  4  1  0
  5  6  1  6
  7  5  1  0
  8  7  2  0
 10 11  1  0
 10  9  1  0
 11 13  1  0
 11 12  1  6
 13 15  1  0
 13 14  1  1
 14  7  1  0
 15 16  2  0
 17 18  1  0
 17 15  1  0
 18 19  1  1
 19 20  1  0
 20 25  2  0
 21 22  2  0
 21 20  1  0
 22 23  1  0
 23 24  2  0
 25 24  1  0
 26 18  1  0
 27 26  2  0
 28 26  1  0
M  END
$$$$
