LIF.pdb
     RDKit          3D

 28 28  0  0  1  0  0  0  0  0999 V2000
    7.0830  -12.0740   20.0177 C   0  0  0  0  0  0  0  0  0  0  0  0
    7.7946  -13.3892   19.8432 C   0  0  1  0  0  0  0  0  0  0  0  0
    9.2192  -13.1153   19.4071 C   0  0  0  0  0  0  0  0  0  0  0  0
    7.8484  -14.2243   21.0800 C   0  0  0  0  0  0  0  0  0  0  0  0
    8.5162  -15.5355   20.7882 C   0  0  2  0  0  0  0  0  0  0  0  0
    7.7127  -16.2787   19.8477 N   0  0  0  0  0  0  0  0  0  0  0  0
    8.7117  -16.2528   22.0764 C   0  0  0  0  0  0  0  0  0  0  0  0
    7.7754  -16.9186   22.5924 O   0  0  0  0  0  0  0  0  0  0  0  0
   12.5867  -19.5444   22.2827 C   0  0  0  0  0  0  0  0  0  0  0  0
   11.2729  -18.7639   22.4249 C   0  0  0  0  0  0  0  0  0  0  0  0
   11.4493  -17.8091   23.5742 C   0  0  2  0  0  0  0  0  0  0  0  0
   11.9396  -18.4775   24.8200 C   0  0  0  0  0  0  0  0  0  0  0  0
   10.2619  -16.9720   23.8854 C   0  0  2  0  0  0  0  0  0  0  0  0
    9.9635  -16.1765   22.7142 N   0  0  0  0  0  0  0  0  0  0  0  0
   10.4449  -16.0563   25.0345 C   0  0  0  0  0  0  0  0  0  0  0  0
   11.3346  -15.1522   25.0410 O   0  0  0  0  0  0  0  0  0  0  0  0
    9.6172  -16.1683   26.1754 N   0  0  0  0  0  0  0  0  0  0  0  0
    9.8657  -15.3376   27.3341 C   0  0  1  0  0  0  0  0  0  0  0  0
    8.6215  -14.7164   27.8755 C   0  0  0  0  0  0  0  0  0  0  0  0
    7.9554  -13.8106   26.9247 C   0  0  0  0  0  0  0  0  0  0  0  0
    6.8686  -14.1988   26.1637 C   0  0  0  0  0  0  0  0  0  0  0  0
    6.2483  -13.3465   25.2744 C   0  0  0  0  0  0  0  0  0  0  0  0
    6.6976  -12.0531   25.1090 C   0  0  0  0  0  0  0  0  0  0  0  0
    7.7813  -11.6546   25.8630 C   0  0  0  0  0  0  0  0  0  0  0  0
    8.4000  -12.5103   26.7523 C   0  0  0  0  0  0  0  0  0  0  0  0
   10.5513  -16.1353   28.4124 C   0  0  0  0  0  0  0  0  0  0  0  0
   10.9974  -15.5402   29.4245 O   0  0  0  0  0  0  0  0  0  0  0  0
   10.7143  -17.5036   28.3365 O   0  0  0  0  0  0  0  0  0  0  0  0
  2  1  1  1
  2  3  1  0
  4  2  1  0
  5  4  1  0
  5  6  1  6
  7  5  1  0
  8  7  2  0
 10 11  1  0
 10  9  1  0
 11 13  1  0
 11 12  1  1
 13 15  1  0
 13 14  1  6
 14  7  1  0
 15 16  2  0
 17 18  1  0
 17 15  1  0
 18 19  1  1
 19 20  1  0
 20 25  2  0
 21 22  2  0
 21 20  1  0
 22 23  1  0
 23 24  2  0
 25 24  1  0
 26 18  1  0
 27 26  2  0
 28 26  1  0
M  END
$$$$
