LIF.pdb
     RDKit          3D

 28 28  0  0  1  0  0  0  0  0999 V2000
    7.4621  -12.6338   17.3751 C   0  0  0  0  0  0  0  0  0  0  0  0
    7.7727  -13.8945   18.1373 C   0  0  1  0  0  0  0  0  0  0  0  0
    8.5814  -14.8133   17.2449 C   0  0  0  0  0  0  0  0  0  0  0  0
    8.5520  -13.6745   19.3919 C   0  0  0  0  0  0  0  0  0  0  0  0
    8.6990  -14.9660   20.1408 C   0  0  2  0  0  0  0  0  0  0  0  0
    7.4443  -15.6782   20.1099 N   0  0  0  0  0  0  0  0  0  0  0  0
    9.1525  -14.6517   21.5221 C   0  0  0  0  0  0  0  0  0  0  0  0
   10.2089  -13.9952   21.7204 O   0  0  0  0  0  0  0  0  0  0  0  0
    6.2630  -13.0244   26.3543 C   0  0  0  0  0  0  0  0  0  0  0  0
    7.6517  -13.4899   25.8959 C   0  0  0  0  0  0  0  0  0  0  0  0
    7.4566  -14.2811   24.6311 C   0  0  2  0  0  0  0  0  0  0  0  0
    6.5300  -15.4432   24.8053 C   0  0  0  0  0  0  0  0  0  0  0  0
    8.7089  -14.7299   23.9695 C   0  0  2  0  0  0  0  0  0  0  0  0
    8.3813  -15.1007   22.6098 N   0  0  0  0  0  0  0  0  0  0  0  0
    9.3628  -15.8872   24.6218 C   0  0  0  0  0  0  0  0  0  0  0  0
    9.1205  -17.0827   24.2739 O   0  0  0  0  0  0  0  0  0  0  0  0
   10.2914  -15.6857   25.6688 N   0  0  0  0  0  0  0  0  0  0  0  0
   11.0250  -16.8089   26.2118 C   0  0  1  0  0  0  0  0  0  0  0  0
   12.0601  -16.3958   27.2041 C   0  0  0  0  0  0  0  0  0  0  0  0
   11.5280  -15.5636   28.2962 C   0  0  0  0  0  0  0  0  0  0  0  0
   11.3170  -16.0546   29.5711 C   0  0  0  0  0  0  0  0  0  0  0  0
   10.8182  -15.2709   30.5904 C   0  0  0  0  0  0  0  0  0  0  0  0
   10.5063  -13.9455   30.3712 C   0  0  0  0  0  0  0  0  0  0  0  0
   10.7126  -13.4446   29.1030 C   0  0  0  0  0  0  0  0  0  0  0  0
   11.2121  -14.2318   28.0848 C   0  0  0  0  0  0  0  0  0  0  0  0
   10.0781  -17.7975   26.8403 C   0  0  0  0  0  0  0  0  0  0  0  0
    8.8813  -17.4654   27.0273 O   0  0  0  0  0  0  0  0  0  0  0  0
   10.4708  -19.0633   27.2250 O   0  0  0  0  0  0  0  0  0  0  0  0
  2  1  1  6
  2  3  1  0
  4  2  1  0
  5  4  1  0
  5  6  1  1
  7  5  1  0
  8  7  2  0
 10 11  1  0
 10  9  1  0
 11 13  1  0
 11 12  1  1
 13 15  1  0
 13 14  1  6
 14  7  1  0
 15 16  2  0
 17 18  1  0
 17 15  1  0
 18 19  1  1
 19 20  1  0
 20 25  2  0
 21 22  2  0
 21 20  1  0
 22 23  1  0
 23 24  2  0
 25 24  1  0
 26 18  1  0
 27 26  2  0
 28 26  1  0
M  END
$$$$
