LIF.pdb
     RDKit          3D

 28 28  0  0  1  0  0  0  0  0999 V2000
    7.4827  -12.0640   19.8667 C   0  0  0  0  0  0  0  0  0  0  0  0
    7.9362  -13.3650   19.2596 C   0  0  1  0  0  0  0  0  0  0  0  0
    9.1798  -13.1070   18.4341 C   0  0  0  0  0  0  0  0  0  0  0  0
    8.2634  -14.4252   20.2590 C   0  0  0  0  0  0  0  0  0  0  0  0
    8.6081  -15.7059   19.5579 C   0  0  2  0  0  0  0  0  0  0  0  0
    7.4769  -16.1363   18.7720 N   0  0  0  0  0  0  0  0  0  0  0  0
    9.0121  -16.7024   20.5855 C   0  0  0  0  0  0  0  0  0  0  0  0
    8.1462  -17.3277   21.2530 O   0  0  0  0  0  0  0  0  0  0  0  0
   13.3097  -19.7952   19.6500 C   0  0  0  0  0  0  0  0  0  0  0  0
   11.9070  -19.3564   20.0920 C   0  0  0  0  0  0  0  0  0  0  0  0
   12.0775  -18.5086   21.3232 C   0  0  2  0  0  0  0  0  0  0  0  0
   12.7550  -19.2336   22.4434 C   0  0  0  0  0  0  0  0  0  0  0  0
   10.8353  -17.8622   21.8198 C   0  0  2  0  0  0  0  0  0  0  0  0
   10.3820  -16.9378   20.8031 N   0  0  0  0  0  0  0  0  0  0  0  0
   11.0011  -17.1142   23.0869 C   0  0  0  0  0  0  0  0  0  0  0  0
   11.6643  -16.0349   23.1508 O   0  0  0  0  0  0  0  0  0  0  0  0
   10.4134  -17.5929   24.2805 N   0  0  0  0  0  0  0  0  0  0  0  0
   10.5705  -16.8506   25.5129 C   0  0  1  0  0  0  0  0  0  0  0  0
    9.6026  -15.7211   25.6328 C   0  0  0  0  0  0  0  0  0  0  0  0
    9.7112  -14.9869   26.9045 C   0  0  0  0  0  0  0  0  0  0  0  0
   10.9278  -14.6736   27.4815 C   0  0  0  0  0  0  0  0  0  0  0  0
   11.0240  -13.9858   28.6730 C   0  0  0  0  0  0  0  0  0  0  0  0
    9.8902  -13.5783   29.3442 C   0  0  0  0  0  0  0  0  0  0  0  0
    8.6708  -13.8853   28.7780 C   0  0  0  0  0  0  0  0  0  0  0  0
    8.5779  -14.5739   27.5851 C   0  0  0  0  0  0  0  0  0  0  0  0
   10.4346  -17.7700   26.6983 C   0  0  0  0  0  0  0  0  0  0  0  0
   11.2686  -17.6900   27.6341 O   0  0  0  0  0  0  0  0  0  0  0  0
    9.4262  -18.7064   26.8025 O   0  0  0  0  0  0  0  0  0  0  0  0
  2  1  1  1
  2  3  1  0
  4  2  1  0
  5  4  1  0
  5  6  1  1
  7  5  1  0
  8  7  2  0
 10 11  1  0
 10  9  1  0
 11 13  1  0
 11 12  1  1
 13 15  1  0
 13 14  1  6
 14  7  1  0
 15 16  2  0
 17 18  1  0
 17 15  1  0
 18 19  1  1
 19 20  1  0
 20 25  2  0
 21 22  2  0
 21 20  1  0
 22 23  1  0
 23 24  2  0
 25 24  1  0
 26 18  1  0
 27 26  2  0
 28 26  1  0
M  END
$$$$
