TPS.pdb
     RDKit          3D

 21 21  0  0  1  0  0  0  0  0999 V2000
   20.4251  -10.0716  -19.2227 C   0  0  0  0  0  0  0  0  0  0  0  0
   19.6763  -11.2646  -18.7385 C   0  0  1  0  0  0  0  0  0  0  0  0
   19.6413  -12.1814  -19.8200 O   0  0  0  0  0  0  0  0  0  0  0  0
   20.2810  -12.0069  -17.5961 C   0  0  2  0  0  0  0  0  0  0  0  0
   19.3389  -13.0921  -17.2970 N   0  0  0  0  0  0  0  0  0  0  0  0
   20.5194  -11.1920  -16.3781 C   0  0  0  0  0  0  0  0  0  0  0  0
   19.4890  -10.6376  -15.8277 O   0  0  0  0  0  0  0  0  0  0  0  0
   21.7453  -10.9569  -15.7500 N   0  0  0  0  0  0  0  0  0  0  0  0
   23.0004  -11.5994  -16.0533 C   0  0  0  0  0  0  0  0  0  0  0  0
   23.7513  -11.5861  -14.7186 C   0  0  0  0  0  0  0  0  0  0  0  0
   23.3586  -10.2600  -14.1501 C   0  0  0  0  0  0  0  0  0  0  0  0
   21.9634  -10.0479  -14.6587 C   0  0  1  0  0  0  0  0  0  0  0  0
   21.8776   -8.6164  -15.1239 C   0  0  0  0  0  0  0  0  0  0  0  0
   22.2121   -8.3717  -16.3056 O   0  0  0  0  0  0  0  0  0  0  0  0
   19.8581   -4.3821  -15.0796 O   0  0  0  0  0  0  0  0  0  0  0  0
   19.8948   -5.6726  -14.5519 C   0  0  0  0  0  0  0  0  0  0  0  0
   21.2991   -6.1915  -14.7498 C   0  0  2  0  0  0  0  0  0  0  0  0
   21.4453   -7.5568  -14.3034 N   0  0  0  0  0  0  0  0  0  0  0  0
   22.2050   -5.3371  -13.9541 C   0  0  0  0  0  0  0  0  0  0  0  0
   22.4452   -5.6412  -12.7635 O   0  0  0  0  0  0  0  0  0  0  0  0
   22.8112   -4.2007  -14.4644 O   0  0  0  0  0  0  0  0  0  0  0  0
  2  1  1  6
  2  4  1  0
  2  3  1  0
  4  5  1  1
  4  6  1  0
  6  7  2  0
  8  6  1  0
  8 12  1  0
  9  8  1  0
 10  9  1  0
 10 11  1  0
 11 12  1  0
 12 13  1  6
 13 14  2  0
 15 16  1  0
 17 16  1  1
 17 19  1  0
 18 13  1  0
 18 17  1  0
 19 20  2  0
 19 21  1  0
M  END
$$$$
