TPS.pdb
     RDKit          3D

 21 21  0  0  1  0  0  0  0  0999 V2000
   22.4398  -14.9063  -18.7948 C   0  0  0  0  0  0  0  0  0  0  0  0
   22.1236  -15.9639  -17.7949 C   0  0  1  0  0  0  0  0  0  0  0  0
   22.3213  -17.2061  -18.4499 O   0  0  0  0  0  0  0  0  0  0  0  0
   22.9847  -16.0041  -16.5790 C   0  0  2  0  0  0  0  0  0  0  0  0
   22.5294  -17.1753  -15.8202 N   0  0  0  0  0  0  0  0  0  0  0  0
   22.9185  -14.7904  -15.7264 C   0  0  0  0  0  0  0  0  0  0  0  0
   21.8154  -14.5783  -15.0859 O   0  0  0  0  0  0  0  0  0  0  0  0
   23.9267  -13.8423  -15.5329 N   0  0  0  0  0  0  0  0  0  0  0  0
   25.2749  -13.9097  -16.0407 C   0  0  0  0  0  0  0  0  0  0  0  0
   26.0960  -13.1357  -15.0052 C   0  0  0  0  0  0  0  0  0  0  0  0
   25.1662  -12.0253  -14.6330 C   0  0  0  0  0  0  0  0  0  0  0  0
   23.8029  -12.6385  -14.7582 C   0  0  1  0  0  0  0  0  0  0  0  0
   22.9306  -11.6309  -15.4630 C   0  0  0  0  0  0  0  0  0  0  0  0
   22.9882  -11.5909  -16.7133 O   0  0  0  0  0  0  0  0  0  0  0  0
   19.3288  -10.9685  -15.0193 O   0  0  0  0  0  0  0  0  0  0  0  0
   19.8585   -9.6833  -14.9054 C   0  0  0  0  0  0  0  0  0  0  0  0
   21.2677   -9.7363  -15.4453 C   0  0  2  0  0  0  0  0  0  0  0  0
   22.0664  -10.7455  -14.7907 N   0  0  0  0  0  0  0  0  0  0  0  0
   21.8866   -8.4164  -15.2029 C   0  0  0  0  0  0  0  0  0  0  0  0
   22.8804   -8.3358  -14.4455 O   0  0  0  0  0  0  0  0  0  0  0  0
   21.4177   -7.2468  -15.7783 O   0  0  0  0  0  0  0  0  0  0  0  0
  2  1  1  6
  2  4  1  0
  2  3  1  0
  4  5  1  1
  4  6  1  0
  6  7  2  0
  8  6  1  0
  8 12  1  0
  9  8  1  0
 10  9  1  0
 10 11  1  0
 11 12  1  0
 12 13  1  6
 13 14  2  0
 15 16  1  0
 17 16  1  1
 17 19  1  0
 18 13  1  0
 18 17  1  0
 19 20  2  0
 19 21  1  0
M  END
$$$$
