TPS.pdb
     RDKit          3D

 21 21  0  0  1  0  0  0  0  0999 V2000
   18.6109  -11.4319  -19.5281 C   0  0  0  0  0  0  0  0  0  0  0  0
   19.0561  -10.5807  -18.3898 C   0  0  1  0  0  0  0  0  0  0  0  0
   18.1072   -9.5326  -18.2786 O   0  0  0  0  0  0  0  0  0  0  0  0
   19.0980  -11.2345  -17.0510 C   0  0  2  0  0  0  0  0  0  0  0  0
   17.7201  -11.6664  -16.7873 N   0  0  0  0  0  0  0  0  0  0  0  0
   19.5774  -10.3657  -15.9465 C   0  0  0  0  0  0  0  0  0  0  0  0
   18.6821   -9.7237  -15.2694 O   0  0  0  0  0  0  0  0  0  0  0  0
   20.9018  -10.1641  -15.5492 N   0  0  0  0  0  0  0  0  0  0  0  0
   22.0691  -10.8055  -16.1020 C   0  0  0  0  0  0  0  0  0  0  0  0
   23.0544  -10.8474  -14.9302 C   0  0  0  0  0  0  0  0  0  0  0  0
   22.7937   -9.5397  -14.2535 C   0  0  0  0  0  0  0  0  0  0  0  0
   21.3318   -9.2974  -14.4867 C   0  0  1  0  0  0  0  0  0  0  0  0
   21.1830   -7.8492  -14.8784 C   0  0  0  0  0  0  0  0  0  0  0  0
   21.3399   -7.5581  -16.0863 O   0  0  0  0  0  0  0  0  0  0  0  0
   19.6959   -3.3900  -13.8373 O   0  0  0  0  0  0  0  0  0  0  0  0
   19.7557   -4.7154  -13.4072 C   0  0  0  0  0  0  0  0  0  0  0  0
   20.7165   -5.4348  -14.3236 C   0  0  2  0  0  0  0  0  0  0  0  0
   20.8802   -6.8232  -13.9627 N   0  0  0  0  0  0  0  0  0  0  0  0
   22.0273   -4.7618  -14.2103 C   0  0  0  0  0  0  0  0  0  0  0  0
   22.8173   -5.1084  -13.3029 O   0  0  0  0  0  0  0  0  0  0  0  0
   22.4333   -3.7527  -15.0682 O   0  0  0  0  0  0  0  0  0  0  0  0
  2  1  1  6
  2  4  1  0
  2  3  1  0
  4  5  1  1
  4  6  1  0
  6  7  2  0
  8  6  1  0
  8 12  1  0
  9  8  1  0
 10  9  1  0
 10 11  1  0
 11 12  1  0
 12 13  1  6
 13 14  2  0
 15 16  1  0
 17 16  1  1
 17 19  1  0
 18 13  1  0
 18 17  1  0
 19 20  2  0
 19 21  1  0
M  END
$$$$
