TPS.pdb
     RDKit          3D

 21 21  0  0  1  0  0  0  0  0999 V2000
   20.2215  -11.7335  -20.4583 C   0  0  0  0  0  0  0  0  0  0  0  0
   20.4580  -10.9534  -19.2117 C   0  0  1  0  0  0  0  0  0  0  0  0
   19.3832  -10.0343  -19.1046 O   0  0  0  0  0  0  0  0  0  0  0  0
   20.4599  -11.7265  -17.9373 C   0  0  2  0  0  0  0  0  0  0  0  0
   19.1293  -12.3409  -17.8547 N   0  0  0  0  0  0  0  0  0  0  0  0
   20.7229  -10.9205  -16.7185 C   0  0  0  0  0  0  0  0  0  0  0  0
   19.6995  -10.4055  -16.1190 O   0  0  0  0  0  0  0  0  0  0  0  0
   21.9658  -10.6558  -16.1371 N   0  0  0  0  0  0  0  0  0  0  0  0
   23.2371  -11.1977  -16.5492 C   0  0  0  0  0  0  0  0  0  0  0  0
   24.0576  -11.2323  -15.2564 C   0  0  0  0  0  0  0  0  0  0  0  0
   23.6212   -9.9756  -14.5735 C   0  0  0  0  0  0  0  0  0  0  0  0
   22.1905   -9.8138  -14.9946 C   0  0  1  0  0  0  0  0  0  0  0  0
   21.9980   -8.3612  -15.3489 C   0  0  0  0  0  0  0  0  0  0  0  0
   22.2887   -8.0071  -16.5144 O   0  0  0  0  0  0  0  0  0  0  0  0
   19.6685   -4.3054  -14.9255 O   0  0  0  0  0  0  0  0  0  0  0  0
   19.8296   -5.6143  -14.4717 C   0  0  0  0  0  0  0  0  0  0  0  0
   21.2494   -6.0204  -14.7875 C   0  0  2  0  0  0  0  0  0  0  0  0
   21.5134   -7.3976  -14.4436 N   0  0  0  0  0  0  0  0  0  0  0  0
   22.1463   -5.1567  -13.9915 C   0  0  0  0  0  0  0  0  0  0  0  0
   22.5012   -5.5294  -12.8500 O   0  0  0  0  0  0  0  0  0  0  0  0
   22.6216   -3.9386  -14.4490 O   0  0  0  0  0  0  0  0  0  0  0  0
  2  1  1  6
  2  4  1  0
  2  3  1  0
  4  5  1  1
  4  6  1  0
  6  7  2  0
  8  6  1  0
  8 12  1  0
  9  8  1  0
 10  9  1  0
 10 11  1  0
 11 12  1  0
 12 13  1  6
 13 14  2  0
 15 16  1  0
 17 16  1  1
 17 19  1  0
 18 13  1  0
 18 17  1  0
 19 20  2  0
 19 21  1  0
M  END
$$$$
