TPS.pdb
     RDKit          3D

 21 21  0  0  1  0  0  0  0  0999 V2000
   26.6753  -17.5979  -14.7743 C   0  0  0  0  0  0  0  0  0  0  0  0
   27.3450  -18.6820  -15.5455 C   0  0  1  0  0  0  0  0  0  0  0  0
   28.5938  -18.1596  -15.9686 O   0  0  0  0  0  0  0  0  0  0  0  0
   27.6603  -19.9306  -14.7950 C   0  0  2  0  0  0  0  0  0  0  0  0
   28.4476  -20.7519  -15.7225 N   0  0  0  0  0  0  0  0  0  0  0  0
   26.4759  -20.6918  -14.3236 C   0  0  0  0  0  0  0  0  0  0  0  0
   25.8491  -21.4094  -15.1978 O   0  0  0  0  0  0  0  0  0  0  0  0
   25.9582  -20.7235  -13.0260 N   0  0  0  0  0  0  0  0  0  0  0  0
   26.4953  -20.0445  -11.8726 C   0  0  0  0  0  0  0  0  0  0  0  0
   26.0905  -20.9401  -10.6981 C   0  0  0  0  0  0  0  0  0  0  0  0
   24.7280  -21.3999  -11.1085 C   0  0  0  0  0  0  0  0  0  0  0  0
   24.8070  -21.4732  -12.6047 C   0  0  1  0  0  0  0  0  0  0  0  0
   23.5385  -20.8613  -13.1426 C   0  0  0  0  0  0  0  0  0  0  0  0
   23.4466  -19.6125  -13.1250 O   0  0  0  0  0  0  0  0  0  0  0  0
   21.3864  -22.5087  -16.0399 O   0  0  0  0  0  0  0  0  0  0  0  0
   20.5052  -22.0392  -15.0662 C   0  0  0  0  0  0  0  0  0  0  0  0
   21.2677  -21.0466  -14.2213 C   0  0  2  0  0  0  0  0  0  0  0  0
   22.4676  -21.6175  -13.6564 N   0  0  0  0  0  0  0  0  0  0  0  0
   20.3800  -20.6292  -13.1160 C   0  0  0  0  0  0  0  0  0  0  0  0
   20.3866  -21.2799  -12.0462 O   0  0  0  0  0  0  0  0  0  0  0  0
   19.5286  -19.5399  -13.2030 O   0  0  0  0  0  0  0  0  0  0  0  0
  2  1  1  1
  2  4  1  0
  2  3  1  0
  4  5  1  6
  4  6  1  0
  6  7  2  0
  8  6  1  0
  8 12  1  0
  9  8  1  0
 10  9  1  0
 10 11  1  0
 11 12  1  0
 12 13  1  6
 13 14  2  0
 15 16  1  0
 17 16  1  6
 17 19  1  0
 18 13  1  0
 18 17  1  0
 19 20  2  0
 19 21  1  0
M  END
$$$$
