TPS.pdb
     RDKit          3D

 21 21  0  0  1  0  0  0  0  0999 V2000
   16.8570   -8.9419  -17.2468 C   0  0  0  0  0  0  0  0  0  0  0  0
   16.9036  -10.1863  -16.4297 C   0  0  1  0  0  0  0  0  0  0  0  0
   15.8808  -11.0321  -16.9298 O   0  0  0  0  0  0  0  0  0  0  0  0
   18.1618  -10.9817  -16.5059 C   0  0  2  0  0  0  0  0  0  0  0  0
   17.9294  -12.1571  -15.6579 N   0  0  0  0  0  0  0  0  0  0  0  0
   19.3818  -10.2649  -16.0560 C   0  0  0  0  0  0  0  0  0  0  0  0
   19.4749   -9.9916  -14.7956 O   0  0  0  0  0  0  0  0  0  0  0  0
   20.4550   -9.8510  -16.8496 N   0  0  0  0  0  0  0  0  0  0  0  0
   20.5907  -10.0395  -18.2729 C   0  0  0  0  0  0  0  0  0  0  0  0
   22.1046  -10.1223  -18.4893 C   0  0  0  0  0  0  0  0  0  0  0  0
   22.6178   -9.1181  -17.5074 C   0  0  0  0  0  0  0  0  0  0  0  0
   21.6374   -9.1873  -16.3741 C   0  0  1  0  0  0  0  0  0  0  0  0
   21.3329   -7.7675  -15.9687 C   0  0  0  0  0  0  0  0  0  0  0  0
   20.3502   -7.2103  -16.5091 O   0  0  0  0  0  0  0  0  0  0  0  0
   21.6498   -4.2621  -12.7371 O   0  0  0  0  0  0  0  0  0  0  0  0
   22.1130   -5.5260  -13.1017 C   0  0  0  0  0  0  0  0  0  0  0  0
   21.7609   -5.7234  -14.5569 C   0  0  2  0  0  0  0  0  0  0  0  0
   22.0911   -7.0490  -15.0243 N   0  0  0  0  0  0  0  0  0  0  0  0
   22.5395   -4.7412  -15.3398 C   0  0  0  0  0  0  0  0  0  0  0  0
   23.6789   -5.0535  -15.7545 O   0  0  0  0  0  0  0  0  0  0  0  0
   22.0675   -3.4746  -15.6433 O   0  0  0  0  0  0  0  0  0  0  0  0
  2  1  1  6
  2  4  1  0
  2  3  1  0
  4  5  1  1
  4  6  1  0
  6  7  2  0
  8  6  1  0
  8 12  1  0
  9  8  1  0
 10  9  1  0
 10 11  1  0
 11 12  1  0
 12 13  1  6
 13 14  2  0
 15 16  1  0
 17 16  1  1
 17 19  1  0
 18 13  1  0
 18 17  1  0
 19 20  2  0
 19 21  1  0
M  END
$$$$
