SRA.pdb
     RDKit          3D

 23 22  0  0  1  0  0  0  0  0999 V2000
    9.2022  -13.2415   18.9236 O   0  0  0  0  0  0  0  0  0  0  0  0
    8.3358  -13.4133   20.0051 C   0  0  0  0  0  0  0  0  0  0  0  0
    8.0267  -14.8977   20.2119 C   0  0  2  0  0  0  0  0  0  0  0  0
    7.1674  -15.3144   19.1390 N   0  0  0  0  0  0  0  0  0  0  0  0
    7.3711  -15.0100   21.5400 C   0  0  0  0  0  0  0  0  0  0  0  0
    6.1582  -14.7025   21.6678 O   0  0  0  0  0  0  0  0  0  0  0  0
    7.3362  -22.1376   25.3279 N   0  0  0  0  0  0  0  0  0  0  0  0
    6.3576  -21.7578   24.3679 C   0  0  0  0  0  0  0  0  0  0  0  0
    5.5614  -22.6215   23.8401 N   0  0  0  0  0  0  0  0  0  0  0  0
    6.2027  -20.4067   23.9371 N   0  0  0  0  0  0  0  0  0  0  0  0
    7.0878  -19.4009   24.4610 C   0  0  0  0  0  0  0  0  0  0  0  0
    6.7326  -18.0194   23.9184 C   0  0  0  0  0  0  0  0  0  0  0  0
    7.6110  -16.9614   24.4823 C   0  0  0  0  0  0  0  0  0  0  0  0
    7.3627  -15.5758   24.0029 C   0  0  2  0  0  0  0  0  0  0  0  0
    8.0474  -15.4544   22.7026 N   0  0  0  0  0  0  0  0  0  0  0  0
    7.8246  -14.5148   24.9282 C   0  0  0  0  0  0  0  0  0  0  0  0
    9.0569  -14.3620   25.0916 O   0  0  0  0  0  0  0  0  0  0  0  0
    4.8159  -22.2661   23.2056 C   0  0  0  0  0  0  0  0  0  0  0  0
    6.3388  -11.7237   27.0320 C   0  0  1  0  0  0  0  0  0  0  0  0
    7.3726  -12.7490   26.6843 N   0  0  0  0  0  0  0  0  0  0  0  0
    6.9519  -13.6557   25.6452 C   0  0  0  0  0  0  0  0  0  0  0  0
    7.8456  -13.4398   27.8951 O   0  0  0  0  0  0  0  0  0  0  0  0
    7.7273  -14.8041   27.9969 O   0  0  0  0  0  0  0  0  0  0  0  0
  2  1  1  0
  3  5  1  0
  3  2  1  0
  3  4  1  6
  5  6  2  0
  7  8  1  0
  8 10  1  0
  8  9  2  0
 10 11  1  0
 11 12  1  0
 12 13  1  0
 14 13  1  1
 14 15  1  0
 14 16  1  0
 15  5  1  0
 16 20  1  0
 17 16  2  0
 19 18  1  6
 19 21  1  0
 20 19  1  0
 21 23  2  0
 21 22  1  0
M  END
$$$$
