SRA.pdb
     RDKit          3D

 23 22  0  0  1  0  0  0  0  0999 V2000
    9.2499  -14.4146   18.9003 O   0  0  0  0  0  0  0  0  0  0  0  0
    8.3914  -14.3165   19.9973 C   0  0  0  0  0  0  0  0  0  0  0  0
    7.7546  -15.6744   20.3010 C   0  0  2  0  0  0  0  0  0  0  0  0
    6.7793  -15.9333   19.2788 N   0  0  0  0  0  0  0  0  0  0  0  0
    7.1451  -15.5609   21.6508 C   0  0  0  0  0  0  0  0  0  0  0  0
    6.0237  -15.0079   21.7872 O   0  0  0  0  0  0  0  0  0  0  0  0
    6.4313  -20.8771   26.8391 N   0  0  0  0  0  0  0  0  0  0  0  0
    7.8393  -20.8583   27.0407 C   0  0  0  0  0  0  0  0  0  0  0  0
    8.4928  -21.9303   27.3275 N   0  0  0  0  0  0  0  0  0  0  0  0
    8.6038  -19.6583   26.9376 N   0  0  0  0  0  0  0  0  0  0  0  0
    7.9163  -18.3975   26.8535 C   0  0  0  0  0  0  0  0  0  0  0  0
    8.3257  -17.6307   25.5991 C   0  0  0  0  0  0  0  0  0  0  0  0
    7.1565  -17.3165   24.7370 C   0  0  0  0  0  0  0  0  0  0  0  0
    7.1218  -15.9518   24.1474 C   0  0  2  0  0  0  0  0  0  0  0  0
    7.7672  -16.0511   22.8252 N   0  0  0  0  0  0  0  0  0  0  0  0
    7.7872  -14.9125   24.9675 C   0  0  0  0  0  0  0  0  0  0  0  0
    9.0390  -14.8888   24.9979 O   0  0  0  0  0  0  0  0  0  0  0  0
    9.5230  -21.8475   27.4561 C   0  0  0  0  0  0  0  0  0  0  0  0
    6.8260  -11.7987   26.9055 C   0  0  1  0  0  0  0  0  0  0  0  0
    7.7235  -12.9457   26.5592 N   0  0  0  0  0  0  0  0  0  0  0  0
    7.0895  -13.9362   25.7251 C   0  0  0  0  0  0  0  0  0  0  0  0
    8.3274  -13.5167   27.7743 O   0  0  0  0  0  0  0  0  0  0  0  0
    9.1479  -12.7456   28.5600 O   0  0  0  0  0  0  0  0  0  0  0  0
  2  1  1  0
  3  5  1  0
  3  2  1  0
  3  4  1  6
  5  6  2  0
  7  8  1  0
  8 10  1  0
  8  9  2  0
 10 11  1  0
 11 12  1  0
 12 13  1  0
 14 13  1  1
 14 15  1  0
 14 16  1  0
 15  5  1  0
 16 20  1  0
 17 16  2  0
 19 18  1  6
 19 21  1  0
 20 19  1  0
 21 23  2  0
 21 22  1  0
M  END
$$$$
