SRA.pdb
     RDKit          3D

 23 22  0  0  1  0  0  0  0  0999 V2000
   12.2762  -21.2220   19.5366 O   0  0  0  0  0  0  0  0  0  0  0  0
   13.0913  -20.8722   18.4581 C   0  0  0  0  0  0  0  0  0  0  0  0
   12.6306  -19.5469   17.8475 C   0  0  2  0  0  0  0  0  0  0  0  0
   13.5574  -19.2056   16.8046 N   0  0  0  0  0  0  0  0  0  0  0  0
   12.6279  -18.5532   18.9514 C   0  0  0  0  0  0  0  0  0  0  0  0
   13.7042  -18.0073   19.3055 O   0  0  0  0  0  0  0  0  0  0  0  0
    6.5187  -13.0027   20.2283 N   0  0  0  0  0  0  0  0  0  0  0  0
    7.7099  -13.1491   19.4647 C   0  0  0  0  0  0  0  0  0  0  0  0
    7.8567  -12.5634   18.3272 N   0  0  0  0  0  0  0  0  0  0  0  0
    8.8036  -13.9483   19.9120 N   0  0  0  0  0  0  0  0  0  0  0  0
    8.8035  -14.4376   21.2647 C   0  0  0  0  0  0  0  0  0  0  0  0
   10.0614  -15.2516   21.5550 C   0  0  0  0  0  0  0  0  0  0  0  0
   10.2734  -16.3209   20.5447 C   0  0  0  0  0  0  0  0  0  0  0  0
   11.4816  -17.1684   20.7276 C   0  0  2  0  0  0  0  0  0  0  0  0
   11.4547  -18.1729   19.6484 N   0  0  0  0  0  0  0  0  0  0  0  0
   11.5690  -17.8347   22.0481 C   0  0  0  0  0  0  0  0  0  0  0  0
   10.7379  -18.7316   22.3189 O   0  0  0  0  0  0  0  0  0  0  0  0
    8.7297  -12.7577   17.7935 C   0  0  0  0  0  0  0  0  0  0  0  0
   13.9738  -17.9386   24.9817 C   0  0  1  0  0  0  0  0  0  0  0  0
   12.6611  -18.1825   24.3048 N   0  0  0  0  0  0  0  0  0  0  0  0
   12.5423  -17.5175   23.0310 C   0  0  0  0  0  0  0  0  0  0  0  0
   11.5443  -17.8848   25.2165 O   0  0  0  0  0  0  0  0  0  0  0  0
   11.4441  -18.5442   26.4168 O   0  0  0  0  0  0  0  0  0  0  0  0
  2  1  1  0
  3  5  1  0
  3  2  1  0
  3  4  1  6
  5  6  2  0
  7  8  1  0
  8 10  1  0
  8  9  2  0
 10 11  1  0
 11 12  1  0
 12 13  1  0
 14 13  1  1
 14 15  1  0
 14 16  1  0
 15  5  1  0
 16 20  1  0
 17 16  2  0
 19 18  1  6
 19 21  1  0
 20 19  1  0
 21 23  2  0
 21 22  1  0
M  END
$$$$
