SRA.pdb
     RDKit          3D

 23 22  0  0  1  0  0  0  0  0999 V2000
   11.6143  -21.0554   21.2552 O   0  0  0  0  0  0  0  0  0  0  0  0
   10.3685  -20.4284   21.1869 C   0  0  0  0  0  0  0  0  0  0  0  0
   10.2153  -19.6869   19.8571 C   0  0  2  0  0  0  0  0  0  0  0  0
   10.5105  -20.6193   18.8052 N   0  0  0  0  0  0  0  0  0  0  0  0
   11.1733  -18.5524   19.8949 C   0  0  0  0  0  0  0  0  0  0  0  0
   12.1915  -18.5676   19.1566 O   0  0  0  0  0  0  0  0  0  0  0  0
    7.7448  -14.6607   18.6283 N   0  0  0  0  0  0  0  0  0  0  0  0
    8.0464  -13.2709   18.6576 C   0  0  0  0  0  0  0  0  0  0  0  0
    7.1166  -12.3799   18.6491 N   0  0  0  0  0  0  0  0  0  0  0  0
    9.3878  -12.7870   18.6977 N   0  0  0  0  0  0  0  0  0  0  0  0
   10.2303  -13.1557   19.8038 C   0  0  0  0  0  0  0  0  0  0  0  0
   10.2228  -14.6663   20.0209 C   0  0  0  0  0  0  0  0  0  0  0  0
   11.2113  -15.0818   21.0502 C   0  0  0  0  0  0  0  0  0  0  0  0
   11.9821  -16.3199   20.7599 C   0  0  2  0  0  0  0  0  0  0  0  0
   11.0051  -17.4242   20.7348 N   0  0  0  0  0  0  0  0  0  0  0  0
   13.0627  -16.6114   21.7309 C   0  0  0  0  0  0  0  0  0  0  0  0
   12.7468  -16.8554   22.9180 O   0  0  0  0  0  0  0  0  0  0  0  0
    7.4068  -11.3796   18.6538 C   0  0  0  0  0  0  0  0  0  0  0  0
   16.8123  -17.2107   21.6733 C   0  0  1  0  0  0  0  0  0  0  0  0
   15.5031  -16.9076   22.3329 N   0  0  0  0  0  0  0  0  0  0  0  0
   14.4417  -16.6313   21.3970 C   0  0  0  0  0  0  0  0  0  0  0  0
   15.6655  -15.8536   23.3476 O   0  0  0  0  0  0  0  0  0  0  0  0
   14.9094  -14.7096   23.2755 O   0  0  0  0  0  0  0  0  0  0  0  0
  2  1  1  0
  3  5  1  0
  3  2  1  0
  3  4  1  6
  5  6  2  0
  7  8  1  0
  8 10  1  0
  8  9  2  0
 10 11  1  0
 11 12  1  0
 12 13  1  0
 14 13  1  1
 14 15  1  0
 14 16  1  0
 15  5  1  0
 16 20  1  0
 17 16  2  0
 19 18  1  6
 19 21  1  0
 20 19  1  0
 21 23  2  0
 21 22  1  0
M  END
$$$$
