SRA.pdb
     RDKit          3D

 23 22  0  0  1  0  0  0  0  0999 V2000
    9.7830  -14.7663   19.1623 O   0  0  0  0  0  0  0  0  0  0  0  0
    9.0871  -14.6288   20.3651 C   0  0  0  0  0  0  0  0  0  0  0  0
    8.1955  -15.8483   20.6094 C   0  0  2  0  0  0  0  0  0  0  0  0
    7.0945  -15.7706   19.6902 N   0  0  0  0  0  0  0  0  0  0  0  0
    7.7576  -15.7724   22.0267 C   0  0  0  0  0  0  0  0  0  0  0  0
    6.8184  -15.0015   22.3517 O   0  0  0  0  0  0  0  0  0  0  0  0
    6.5336  -21.7947   26.2617 N   0  0  0  0  0  0  0  0  0  0  0  0
    5.8773  -21.6951   25.0036 C   0  0  0  0  0  0  0  0  0  0  0  0
    4.7571  -22.2897   24.7796 N   0  0  0  0  0  0  0  0  0  0  0  0
    6.4189  -20.9358   23.9242 N   0  0  0  0  0  0  0  0  0  0  0  0
    7.5225  -20.0490   24.1790 C   0  0  0  0  0  0  0  0  0  0  0  0
    7.0694  -18.8171   24.9576 C   0  0  0  0  0  0  0  0  0  0  0  0
    8.1484  -17.8001   25.0601 C   0  0  0  0  0  0  0  0  0  0  0  0
    7.8617  -16.4735   24.4524 C   0  0  2  0  0  0  0  0  0  0  0  0
    8.3497  -16.5364   23.0622 N   0  0  0  0  0  0  0  0  0  0  0  0
    8.4776  -15.3279   25.1621 C   0  0  0  0  0  0  0  0  0  0  0  0
    9.7167  -15.1690   25.0737 O   0  0  0  0  0  0  0  0  0  0  0  0
    4.3324  -22.1787   23.8352 C   0  0  0  0  0  0  0  0  0  0  0  0
    7.4193  -12.2975   27.1775 C   0  0  1  0  0  0  0  0  0  0  0  0
    8.3434  -13.4192   26.8189 N   0  0  0  0  0  0  0  0  0  0  0  0
    7.7458  -14.3939   25.9405 C   0  0  0  0  0  0  0  0  0  0  0  0
    8.9276  -14.0172   28.0306 O   0  0  0  0  0  0  0  0  0  0  0  0
    9.7178  -13.2578   28.8579 O   0  0  0  0  0  0  0  0  0  0  0  0
  2  1  1  0
  3  5  1  0
  3  2  1  0
  3  4  1  6
  5  6  2  0
  7  8  1  0
  8 10  1  0
  8  9  2  0
 10 11  1  0
 11 12  1  0
 12 13  1  0
 14 13  1  1
 14 15  1  0
 14 16  1  0
 15  5  1  0
 16 20  1  0
 17 16  2  0
 19 18  1  6
 19 21  1  0
 20 19  1  0
 21 23  2  0
 21 22  1  0
M  END
$$$$
