SRA.pdb
     RDKit          3D

 23 22  0  0  1  0  0  0  0  0999 V2000
   10.5098  -12.9577   19.2388 O   0  0  0  0  0  0  0  0  0  0  0  0
    9.6460  -13.0015   20.3351 C   0  0  0  0  0  0  0  0  0  0  0  0
    8.4281  -13.8733   20.0217 C   0  0  2  0  0  0  0  0  0  0  0  0
    7.5453  -13.1013   19.1922 N   0  0  0  0  0  0  0  0  0  0  0  0
    7.8154  -14.2258   21.3280 C   0  0  0  0  0  0  0  0  0  0  0  0
    6.9599  -13.4623   21.8450 O   0  0  0  0  0  0  0  0  0  0  0  0
    9.0141  -19.1290   27.0649 N   0  0  0  0  0  0  0  0  0  0  0  0
    7.7246  -19.7131   27.2041 C   0  0  0  0  0  0  0  0  0  0  0  0
    7.3396  -20.2381   28.3152 N   0  0  0  0  0  0  0  0  0  0  0  0
    6.7894  -19.7509   26.1275 N   0  0  0  0  0  0  0  0  0  0  0  0
    7.1843  -19.2420   24.8413 C   0  0  0  0  0  0  0  0  0  0  0  0
    7.1955  -17.7159   24.8338 C   0  0  0  0  0  0  0  0  0  0  0  0
    7.4861  -17.1718   23.4815 C   0  0  0  0  0  0  0  0  0  0  0  0
    7.5686  -15.6911   23.3721 C   0  0  2  0  0  0  0  0  0  0  0  0
    8.1451  -15.4015   22.0461 N   0  0  0  0  0  0  0  0  0  0  0  0
    8.3713  -15.0415   24.4347 C   0  0  0  0  0  0  0  0  0  0  0  0
    9.6030  -15.2652   24.4714 O   0  0  0  0  0  0  0  0  0  0  0  0
    6.4065  -20.7004   28.3328 C   0  0  0  0  0  0  0  0  0  0  0  0
    7.9523  -12.3114   27.0125 C   0  0  1  0  0  0  0  0  0  0  0  0
    8.5949  -13.5479   26.4657 N   0  0  0  0  0  0  0  0  0  0  0  0
    7.8275  -14.1763   25.4193 C   0  0  0  0  0  0  0  0  0  0  0  0
    8.9497  -14.4727   27.5547 O   0  0  0  0  0  0  0  0  0  0  0  0
    9.7994  -14.0635   28.5528 O   0  0  0  0  0  0  0  0  0  0  0  0
  2  1  1  0
  3  5  1  0
  3  2  1  0
  3  4  1  6
  5  6  2  0
  7  8  1  0
  8 10  1  0
  8  9  2  0
 10 11  1  0
 11 12  1  0
 12 13  1  0
 14 13  1  1
 14 15  1  0
 14 16  1  0
 15  5  1  0
 16 20  1  0
 17 16  2  0
 19 18  1  6
 19 21  1  0
 20 19  1  0
 21 23  2  0
 21 22  1  0
M  END
$$$$
