SRA.pdb
     RDKit          3D

 23 22  0  0  1  0  0  0  0  0999 V2000
   13.0444  -18.6980   23.1506 O   0  0  0  0  0  0  0  0  0  0  0  0
   11.9055  -18.8742   22.3620 C   0  0  0  0  0  0  0  0  0  0  0  0
   11.5918  -17.5954   21.5824 C   0  0  2  0  0  0  0  0  0  0  0  0
   12.7739  -17.2335   20.8510 N   0  0  0  0  0  0  0  0  0  0  0  0
   11.2119  -16.5713   22.5889 C   0  0  0  0  0  0  0  0  0  0  0  0
   12.0411  -15.6884   22.9280 O   0  0  0  0  0  0  0  0  0  0  0  0
    6.4692  -11.5431   24.8162 N   0  0  0  0  0  0  0  0  0  0  0  0
    5.7817  -12.0385   25.9587 C   0  0  0  0  0  0  0  0  0  0  0  0
    5.3327  -11.2470   26.8700 N   0  0  0  0  0  0  0  0  0  0  0  0
    5.5514  -13.4319   26.1596 N   0  0  0  0  0  0  0  0  0  0  0  0
    6.0707  -14.3707   25.2014 C   0  0  0  0  0  0  0  0  0  0  0  0
    7.5917  -14.4609   25.2886 C   0  0  0  0  0  0  0  0  0  0  0  0
    8.1518  -15.3696   24.2544 C   0  0  0  0  0  0  0  0  0  0  0  0
    9.6257  -15.5657   24.2798 C   0  0  2  0  0  0  0  0  0  0  0  0
    9.9379  -16.5277   23.2067 N   0  0  0  0  0  0  0  0  0  0  0  0
   10.1576  -16.0499   25.5752 C   0  0  0  0  0  0  0  0  0  0  0  0
   10.3239  -17.2818   25.7277 O   0  0  0  0  0  0  0  0  0  0  0  0
    4.8697  -11.6775   27.6976 C   0  0  0  0  0  0  0  0  0  0  0  0
   11.1278  -14.5531   28.9431 C   0  0  1  0  0  0  0  0  0  0  0  0
   10.9000  -15.6619   27.9636 N   0  0  0  0  0  0  0  0  0  0  0  0
   10.4925  -15.1990   26.6603 C   0  0  0  0  0  0  0  0  0  0  0  0
    9.9895  -16.6723   28.5268 O   0  0  0  0  0  0  0  0  0  0  0  0
   10.4602  -17.5916   29.4317 O   0  0  0  0  0  0  0  0  0  0  0  0
  2  1  1  0
  3  5  1  0
  3  2  1  0
  3  4  1  1
  5  6  2  0
  7  8  1  0
  8 10  1  0
  8  9  2  0
 10 11  1  0
 11 12  1  0
 12 13  1  0
 14 13  1  1
 14 15  1  0
 14 16  1  0
 15  5  1  0
 16 20  1  0
 17 16  2  0
 19 18  1  6
 19 21  1  0
 20 19  1  0
 21 23  2  0
 21 22  1  0
M  END
$$$$
