SRA.pdb
     RDKit          3D

 23 22  0  0  1  0  0  0  0  0999 V2000
    9.9662  -12.1947   20.1306 O   0  0  0  0  0  0  0  0  0  0  0  0
    9.8415  -13.5813   20.0222 C   0  0  0  0  0  0  0  0  0  0  0  0
    8.4022  -13.9627   19.6690 C   0  0  2  0  0  0  0  0  0  0  0  0
    7.8257  -12.8596   18.9521 N   0  0  0  0  0  0  0  0  0  0  0  0
    7.7091  -14.2274   20.9557 C   0  0  0  0  0  0  0  0  0  0  0  0
    6.8048  -13.4481   21.3520 O   0  0  0  0  0  0  0  0  0  0  0  0
    9.2330  -19.2806   27.1804 N   0  0  0  0  0  0  0  0  0  0  0  0
    7.8454  -19.5428   27.3514 C   0  0  0  0  0  0  0  0  0  0  0  0
    7.3819  -20.0254   28.4517 N   0  0  0  0  0  0  0  0  0  0  0  0
    6.8931  -19.2878   26.3202 N   0  0  0  0  0  0  0  0  0  0  0  0
    7.3617  -18.8873   25.0205 C   0  0  0  0  0  0  0  0  0  0  0  0
    7.1003  -17.4038   24.7750 C   0  0  0  0  0  0  0  0  0  0  0  0
    7.4992  -16.9917   23.4038 C   0  0  0  0  0  0  0  0  0  0  0  0
    7.3300  -15.5515   23.0746 C   0  0  2  0  0  0  0  0  0  0  0  0
    8.0131  -15.3343   21.7859 N   0  0  0  0  0  0  0  0  0  0  0  0
    7.8588  -14.6218   24.0999 C   0  0  0  0  0  0  0  0  0  0  0  0
    9.0999  -14.4837   24.1952 O   0  0  0  0  0  0  0  0  0  0  0  0
    6.3624  -20.2337   28.4957 C   0  0  0  0  0  0  0  0  0  0  0  0
    6.5179  -12.0946   26.5965 C   0  0  1  0  0  0  0  0  0  0  0  0
    7.5425  -13.0390   26.0495 N   0  0  0  0  0  0  0  0  0  0  0  0
    7.0411  -13.8735   24.9860 C   0  0  0  0  0  0  0  0  0  0  0  0
    8.1724  -13.8068   27.1361 O   0  0  0  0  0  0  0  0  0  0  0  0
    8.8379  -13.1516   28.1427 O   0  0  0  0  0  0  0  0  0  0  0  0
  2  1  1  0
  3  5  1  0
  3  2  1  0
  3  4  1  1
  5  6  2  0
  7  8  1  0
  8 10  1  0
  8  9  2  0
 10 11  1  0
 11 12  1  0
 12 13  1  0
 14 13  1  1
 14 15  1  0
 14 16  1  0
 15  5  1  0
 16 20  1  0
 17 16  2  0
 19 18  1  6
 19 21  1  0
 20 19  1  0
 21 23  2  0
 21 22  1  0
M  END
$$$$
