SRA.pdb
     RDKit          3D

 23 22  0  0  1  0  0  0  0  0999 V2000
   10.7816  -13.5589   20.0949 O   0  0  0  0  0  0  0  0  0  0  0  0
   10.2623  -14.0124   18.8806 C   0  0  0  0  0  0  0  0  0  0  0  0
    8.7978  -13.5931   18.7354 C   0  0  2  0  0  0  0  0  0  0  0  0
    8.7628  -12.1586   18.6702 N   0  0  0  0  0  0  0  0  0  0  0  0
    8.0878  -14.1242   19.9271 C   0  0  0  0  0  0  0  0  0  0  0  0
    7.7374  -13.3420   20.8477 O   0  0  0  0  0  0  0  0  0  0  0  0
    2.1866  -19.4175   21.0117 N   0  0  0  0  0  0  0  0  0  0  0  0
    2.8300  -20.0172   22.1297 C   0  0  0  0  0  0  0  0  0  0  0  0
    2.1582  -20.6080   23.0560 N   0  0  0  0  0  0  0  0  0  0  0  0
    4.2476  -19.9989   22.2882 N   0  0  0  0  0  0  0  0  0  0  0  0
    5.0520  -19.3304   21.3006 C   0  0  0  0  0  0  0  0  0  0  0  0
    5.5862  -18.0036   21.8329 C   0  0  0  0  0  0  0  0  0  0  0  0
    6.3604  -17.2655   20.8011 C   0  0  0  0  0  0  0  0  0  0  0  0
    6.9636  -15.9754   21.2292 C   0  0  2  0  0  0  0  0  0  0  0  0
    7.7729  -15.4952   20.0939 N   0  0  0  0  0  0  0  0  0  0  0  0
    7.7951  -16.0633   22.4525 C   0  0  0  0  0  0  0  0  0  0  0  0
    8.9429  -16.5555   22.3583 O   0  0  0  0  0  0  0  0  0  0  0  0
    2.6939  -21.0866   23.8102 C   0  0  0  0  0  0  0  0  0  0  0  0
    7.8786  -14.5693   25.8916 C   0  0  1  0  0  0  0  0  0  0  0  0
    8.1799  -15.6700   24.9230 N   0  0  0  0  0  0  0  0  0  0  0  0
    7.3688  -15.6215   23.7319 C   0  0  0  0  0  0  0  0  0  0  0  0
    8.1378  -16.9787   25.5958 O   0  0  0  0  0  0  0  0  0  0  0  0
    9.0040  -17.2484   26.6265 O   0  0  0  0  0  0  0  0  0  0  0  0
  2  1  1  0
  3  5  1  0
  3  2  1  0
  3  4  1  1
  5  6  2  0
  7  8  1  0
  8 10  1  0
  8  9  2  0
 10 11  1  0
 11 12  1  0
 12 13  1  0
 14 13  1  6
 14 15  1  0
 14 16  1  0
 15  5  1  0
 16 20  1  0
 17 16  2  0
 19 18  1  6
 19 21  1  0
 20 19  1  0
 21 23  2  0
 21 22  1  0
M  END
$$$$
