SRA.pdb
     RDKit          3D

 23 22  0  0  1  0  0  0  0  0999 V2000
    9.6620  -12.4759   20.4008 O   0  0  0  0  0  0  0  0  0  0  0  0
    9.6316  -13.7257   19.7788 C   0  0  0  0  0  0  0  0  0  0  0  0
    8.1873  -14.1982   19.5986 C   0  0  2  0  0  0  0  0  0  0  0  0
    7.4983  -13.2003   18.8288 N   0  0  0  0  0  0  0  0  0  0  0  0
    7.6216  -14.3525   20.9633 C   0  0  0  0  0  0  0  0  0  0  0  0
    6.7364  -13.5560   21.3682 O   0  0  0  0  0  0  0  0  0  0  0  0
    8.1708  -21.3755   26.3859 N   0  0  0  0  0  0  0  0  0  0  0  0
    7.3686  -20.4435   27.1009 C   0  0  0  0  0  0  0  0  0  0  0  0
    6.8278  -20.7473   28.2295 N   0  0  0  0  0  0  0  0  0  0  0  0
    7.1183  -19.1270   26.6121 N   0  0  0  0  0  0  0  0  0  0  0  0
    7.6312  -18.7521   25.3214 C   0  0  0  0  0  0  0  0  0  0  0  0
    7.2671  -17.3092   24.9831 C   0  0  0  0  0  0  0  0  0  0  0  0
    7.6970  -16.9380   23.6096 C   0  0  0  0  0  0  0  0  0  0  0  0
    7.3913  -15.5483   23.1777 C   0  0  2  0  0  0  0  0  0  0  0  0
    8.0298  -15.3699   21.8605 N   0  0  0  0  0  0  0  0  0  0  0  0
    7.8501  -14.4990   24.1178 C   0  0  0  0  0  0  0  0  0  0  0  0
    9.0742  -14.2389   24.1687 O   0  0  0  0  0  0  0  0  0  0  0  0
    6.2556  -20.0169   28.7026 C   0  0  0  0  0  0  0  0  0  0  0  0
    6.3505  -11.8626   26.3864 C   0  0  1  0  0  0  0  0  0  0  0  0
    7.4247  -12.8123   25.9563 N   0  0  0  0  0  0  0  0  0  0  0  0
    6.9832  -13.7661   24.9693 C   0  0  0  0  0  0  0  0  0  0  0  0
    8.0569  -13.4443   27.1260 O   0  0  0  0  0  0  0  0  0  0  0  0
    8.6697  -12.6674   28.0780 O   0  0  0  0  0  0  0  0  0  0  0  0
  2  1  1  0
  3  5  1  0
  3  2  1  0
  3  4  1  6
  5  6  2  0
  7  8  1  0
  8 10  1  0
  8  9  2  0
 10 11  1  0
 11 12  1  0
 12 13  1  0
 14 13  1  1
 14 15  1  0
 14 16  1  0
 15  5  1  0
 16 20  1  0
 17 16  2  0
 19 18  1  6
 19 21  1  0
 20 19  1  0
 21 23  2  0
 21 22  1  0
M  END
$$$$
