SRA.pdb
     RDKit          3D

 23 22  0  0  1  0  0  0  0  0999 V2000
   10.9171  -18.4541   21.2501 O   0  0  0  0  0  0  0  0  0  0  0  0
   11.4907  -19.1877   22.2906 C   0  0  0  0  0  0  0  0  0  0  0  0
   10.6105  -19.1207   23.5406 C   0  0  2  0  0  0  0  0  0  0  0  0
    9.3158  -19.6315   23.1860 N   0  0  0  0  0  0  0  0  0  0  0  0
   10.5651  -17.6929   23.9474 C   0  0  0  0  0  0  0  0  0  0  0  0
   11.6196  -17.1112   24.3103 O   0  0  0  0  0  0  0  0  0  0  0  0
    8.2625  -11.9034   19.9262 N   0  0  0  0  0  0  0  0  0  0  0  0
    8.0513  -13.1531   19.2804 C   0  0  0  0  0  0  0  0  0  0  0  0
    8.4991  -13.3825   18.0949 N   0  0  0  0  0  0  0  0  0  0  0  0
    7.3357  -14.2176   19.9047 N   0  0  0  0  0  0  0  0  0  0  0  0
    7.1878  -14.2147   21.3356 C   0  0  0  0  0  0  0  0  0  0  0  0
    8.4117  -14.8217   22.0159 C   0  0  0  0  0  0  0  0  0  0  0  0
    8.2472  -14.8897   23.4915 C   0  0  0  0  0  0  0  0  0  0  0  0
    9.3786  -15.4827   24.2529 C   0  0  2  0  0  0  0  0  0  0  0  0
    9.3740  -16.9262   23.9515 N   0  0  0  0  0  0  0  0  0  0  0  0
    9.3147  -15.2629   25.7167 C   0  0  0  0  0  0  0  0  0  0  0  0
    8.4093  -15.8350   26.3660 O   0  0  0  0  0  0  0  0  0  0  0  0
    8.4109  -14.3521   17.7251 C   0  0  0  0  0  0  0  0  0  0  0  0
    9.0091  -13.4523   28.3273 C   0  0  2  0  0  0  0  0  0  0  0  0
   10.1913  -14.2436   27.8612 N   0  0  0  0  0  0  0  0  0  0  0  0
   10.2214  -14.4391   26.4330 C   0  0  0  0  0  0  0  0  0  0  0  0
   10.3040  -15.5016   28.6175 O   0  0  0  0  0  0  0  0  0  0  0  0
   10.5356  -15.4702   29.9706 O   0  0  0  0  0  0  0  0  0  0  0  0
  2  1  1  0
  3  5  1  0
  3  2  1  0
  3  4  1  6
  5  6  2  0
  7  8  1  0
  8 10  1  0
  8  9  2  0
 10 11  1  0
 11 12  1  0
 12 13  1  0
 14 13  1  6
 14 15  1  0
 14 16  1  0
 15  5  1  0
 16 20  1  0
 17 16  2  0
 19 18  1  6
 19 21  1  0
 20 19  1  0
 21 23  2  0
 21 22  1  0
M  END
$$$$
