SRA.pdb
     RDKit          3D

 23 22  0  0  1  0  0  0  0  0999 V2000
   11.7673  -20.1184   19.6304 O   0  0  0  0  0  0  0  0  0  0  0  0
   10.8422  -19.5120   18.7782 C   0  0  0  0  0  0  0  0  0  0  0  0
   11.2595  -18.0715   18.4742 C   0  0  2  0  0  0  0  0  0  0  0  0
   12.5670  -18.1157   17.8813 N   0  0  0  0  0  0  0  0  0  0  0  0
   11.2489  -17.3476   19.7711 C   0  0  0  0  0  0  0  0  0  0  0  0
   12.3253  -17.1667   20.3963 O   0  0  0  0  0  0  0  0  0  0  0  0
    7.9220  -14.7987   17.4376 N   0  0  0  0  0  0  0  0  0  0  0  0
    7.4559  -13.5165   17.8401 C   0  0  0  0  0  0  0  0  0  0  0  0
    7.4183  -12.5254   17.0186 N   0  0  0  0  0  0  0  0  0  0  0  0
    7.0063  -13.2560   19.1686 N   0  0  0  0  0  0  0  0  0  0  0  0
    7.1776  -14.2695   20.1750 C   0  0  0  0  0  0  0  0  0  0  0  0
    8.6103  -14.2859   20.7004 C   0  0  0  0  0  0  0  0  0  0  0  0
    8.8131  -15.3481   21.7201 C   0  0  0  0  0  0  0  0  0  0  0  0
   10.0936  -16.1001   21.6407 C   0  0  2  0  0  0  0  0  0  0  0  0
   10.0682  -16.8349   20.3624 N   0  0  0  0  0  0  0  0  0  0  0  0
   10.3265  -17.0348   22.7665 C   0  0  0  0  0  0  0  0  0  0  0  0
    9.5683  -18.0246   22.8855 O   0  0  0  0  0  0  0  0  0  0  0  0
    7.2117  -11.5823   17.4093 C   0  0  0  0  0  0  0  0  0  0  0  0
   12.9968  -17.8474   25.2788 C   0  0  1  0  0  0  0  0  0  0  0  0
   11.5642  -17.7465   24.8564 N   0  0  0  0  0  0  0  0  0  0  0  0
   11.3618  -16.8771   23.7241 C   0  0  0  0  0  0  0  0  0  0  0  0
   10.7079  -17.4061   26.0044 O   0  0  0  0  0  0  0  0  0  0  0  0
    9.8531  -16.3341   25.9286 O   0  0  0  0  0  0  0  0  0  0  0  0
  2  1  1  0
  3  5  1  0
  3  2  1  0
  3  4  1  1
  5  6  2  0
  7  8  1  0
  8 10  1  0
  8  9  2  0
 10 11  1  0
 11 12  1  0
 12 13  1  0
 14 13  1  1
 14 15  1  0
 14 16  1  0
 15  5  1  0
 16 20  1  0
 17 16  2  0
 19 18  1  6
 19 21  1  0
 20 19  1  0
 21 23  2  0
 21 22  1  0
M  END
$$$$
