DKI.pdb
     RDKit          3D

 26 25  0  0  1  0  0  0  0  0999 V2000
   19.8563  -20.2844  -15.3473 N   0  0  0  0  0  0  0  0  0  0  0  0
   20.3183  -19.3285  -14.3828 C   0  0  1  0  0  0  0  0  0  0  0  0
   19.9271  -19.7984  -12.9970 C   0  0  0  0  0  0  0  0  0  0  0  0
   18.4598  -19.9667  -12.8542 C   0  0  0  0  0  0  0  0  0  0  0  0
   17.9122  -21.1017  -12.8861 O   0  0  0  0  0  0  0  0  0  0  0  0
   21.7635  -19.0944  -14.5305 C   0  0  0  0  0  0  0  0  0  0  0  0
   22.3625  -18.3486  -13.6939 O   0  0  0  0  0  0  0  0  0  0  0  0
   17.6299  -18.8738  -12.6792 O   0  0  0  0  0  0  0  0  0  0  0  0
   22.5462  -19.6594  -15.5664 N   0  0  0  0  0  0  0  0  0  0  0  0
   23.9649  -19.4246  -15.7449 C   0  0  1  0  0  0  0  0  0  0  0  0
   24.5475  -20.5525  -16.5386 C   0  0  0  0  0  0  0  0  0  0  0  0
   25.9812  -20.4070  -16.9114 C   0  0  0  0  0  0  0  0  0  0  0  0
   26.7608  -21.6141  -16.4886 C   0  0  0  0  0  0  0  0  0  0  0  0
   28.2199  -21.4382  -16.8538 C   0  0  0  0  0  0  0  0  0  0  0  0
   28.9883  -22.5509  -16.3382 N   0  0  0  0  0  0  0  0  0  0  0  0
   24.1785  -18.1676  -16.5320 C   0  0  0  0  0  0  0  0  0  0  0  0
   23.4425  -17.8900  -17.4926 O   0  0  0  0  0  0  0  0  0  0  0  0
   25.1684  -12.4975  -15.3079 C   0  0  0  0  0  0  0  0  0  0  0  0
   25.4641  -13.5318  -16.4031 C   0  0  0  0  0  0  0  0  0  0  0  0
   25.3314  -14.9305  -15.8543 C   0  0  2  0  0  0  0  0  0  0  0  0
   26.2511  -15.1592  -14.6731 C   0  0  0  0  0  0  0  0  0  0  0  0
   25.4811  -16.0146  -16.8619 C   0  0  2  0  0  0  0  0  0  0  0  0
   25.2249  -17.2734  -16.1932 N   0  0  0  0  0  0  0  0  0  0  0  0
   26.7254  -16.0163  -17.6273 C   0  0  0  0  0  0  0  0  0  0  0  0
   26.9469  -15.2676  -18.7815 O   0  0  0  0  0  0  0  0  0  0  0  0
   27.6897  -16.7306  -17.2512 O   0  0  0  0  0  0  0  0  0  0  0  0
  2  1  1  6
  2  3  1  0
  3  4  1  0
  4  8  1  0
  5  4  2  0
  6  7  2  0
  6  2  1  0
  9  6  1  0
 10  9  1  0
 10 11  1  6
 11 12  1  0
 13 12  1  0
 13 14  1  0
 14 15  1  0
 16 10  1  0
 17 16  2  0
 19 18  1  0
 19 20  1  0
 20 22  1  0
 20 21  1  1
 22 24  1  0
 22 23  1  1
 23 16  1  0
 24 25  1  0
 26 24  2  0
M  END
$$$$
