DKI.pdb
     RDKit          3D

 26 25  0  0  1  0  0  0  0  0999 V2000
   26.2928  -19.8161  -18.4122 N   0  0  0  0  0  0  0  0  0  0  0  0
   26.7839  -20.5235  -17.2652 C   0  0  1  0  0  0  0  0  0  0  0  0
   28.2907  -20.3812  -17.2065 C   0  0  0  0  0  0  0  0  0  0  0  0
   28.9687  -21.1321  -18.2919 C   0  0  0  0  0  0  0  0  0  0  0  0
   28.4570  -22.1597  -18.8127 O   0  0  0  0  0  0  0  0  0  0  0  0
   26.1088  -20.0654  -16.0406 C   0  0  0  0  0  0  0  0  0  0  0  0
   26.1598  -18.8357  -15.7239 O   0  0  0  0  0  0  0  0  0  0  0  0
   30.1997  -20.7288  -18.7774 O   0  0  0  0  0  0  0  0  0  0  0  0
   25.3902  -20.9248  -15.1747 N   0  0  0  0  0  0  0  0  0  0  0  0
   24.7148  -20.4956  -13.9666 C   0  0  1  0  0  0  0  0  0  0  0  0
   23.2719  -20.8857  -14.0525 C   0  0  0  0  0  0  0  0  0  0  0  0
   22.4325  -20.0596  -14.9628 C   0  0  0  0  0  0  0  0  0  0  0  0
   21.0001  -20.4923  -14.8965 C   0  0  0  0  0  0  0  0  0  0  0  0
   20.1891  -19.7484  -15.9368 C   0  0  0  0  0  0  0  0  0  0  0  0
   18.7842  -20.0512  -15.7667 N   0  0  0  0  0  0  0  0  0  0  0  0
   25.2978  -21.1996  -12.7792 C   0  0  0  0  0  0  0  0  0  0  0  0
   25.4321  -22.4339  -12.7786 O   0  0  0  0  0  0  0  0  0  0  0  0
   29.9036  -20.6178  -11.0056 C   0  0  0  0  0  0  0  0  0  0  0  0
   28.4978  -21.1900  -11.2353 C   0  0  0  0  0  0  0  0  0  0  0  0
   27.5511  -20.7022  -10.1671 C   0  0  2  0  0  0  0  0  0  0  0  0
   28.0086  -21.1114   -8.7827 C   0  0  0  0  0  0  0  0  0  0  0  0
   26.1242  -21.0632  -10.3835 C   0  0  2  0  0  0  0  0  0  0  0  0
   25.7062  -20.4680  -11.6358 N   0  0  0  0  0  0  0  0  0  0  0  0
   25.2115  -20.7746   -9.2800 C   0  0  0  0  0  0  0  0  0  0  0  0
   24.4999  -19.5860   -9.1303 O   0  0  0  0  0  0  0  0  0  0  0  0
   25.0270  -21.6339   -8.3805 O   0  0  0  0  0  0  0  0  0  0  0  0
  2  1  1  6
  2  3  1  0
  3  4  1  0
  4  8  1  0
  5  4  2  0
  6  7  2  0
  6  2  1  0
  9  6  1  0
 10  9  1  0
 10 11  1  6
 11 12  1  0
 13 12  1  0
 13 14  1  0
 14 15  1  0
 16 10  1  0
 17 16  2  0
 19 18  1  0
 19 20  1  0
 20 22  1  0
 20 21  1  1
 22 24  1  0
 22 23  1  6
 23 16  1  0
 24 25  1  0
 26 24  2  0
M  END
$$$$
