DKI.pdb
     RDKit          3D

 26 25  0  0  1  0  0  0  0  0999 V2000
   14.5469  -13.5614  -17.9395 N   0  0  0  0  0  0  0  0  0  0  0  0
   14.7937  -12.4383  -18.7968 C   0  0  1  0  0  0  0  0  0  0  0  0
   13.5170  -11.6356  -18.9371 C   0  0  0  0  0  0  0  0  0  0  0  0
   12.5040  -12.3318  -19.7683 C   0  0  0  0  0  0  0  0  0  0  0  0
   11.9071  -13.3664  -19.3653 O   0  0  0  0  0  0  0  0  0  0  0  0
   15.9286  -11.6431  -18.3020 C   0  0  0  0  0  0  0  0  0  0  0  0
   15.8739  -11.1364  -17.1379 O   0  0  0  0  0  0  0  0  0  0  0  0
   12.1737  -11.8670  -21.0288 O   0  0  0  0  0  0  0  0  0  0  0  0
   17.1030  -11.4019  -19.0554 N   0  0  0  0  0  0  0  0  0  0  0  0
   18.2726  -10.7089  -18.5536 C   0  0  1  0  0  0  0  0  0  0  0  0
   19.5004  -11.3851  -19.0799 C   0  0  0  0  0  0  0  0  0  0  0  0
   19.8005  -12.7223  -18.4991 C   0  0  0  0  0  0  0  0  0  0  0  0
   21.0281  -13.3065  -19.1278 C   0  0  0  0  0  0  0  0  0  0  0  0
   21.2122  -14.7368  -18.6654 C   0  0  0  0  0  0  0  0  0  0  0  0
   22.3313  -15.3335  -19.3625 N   0  0  0  0  0  0  0  0  0  0  0  0
   18.2868   -9.2992  -19.0614 C   0  0  0  0  0  0  0  0  0  0  0  0
   18.0890   -9.0576  -20.2631 O   0  0  0  0  0  0  0  0  0  0  0  0
   15.4732   -4.6030  -19.2985 C   0  0  0  0  0  0  0  0  0  0  0  0
   16.9623   -4.9383  -19.1353 C   0  0  0  0  0  0  0  0  0  0  0  0
   17.1331   -6.3717  -18.6975 C   0  0  2  0  0  0  0  0  0  0  0  0
   16.3542   -6.6686  -17.4332 C   0  0  0  0  0  0  0  0  0  0  0  0
   18.5449   -6.8228  -18.5700 C   0  0  2  0  0  0  0  0  0  0  0  0
   18.5263   -8.2168  -18.1780 N   0  0  0  0  0  0  0  0  0  0  0  0
   19.4103   -6.0026  -17.7259 C   0  0  0  0  0  0  0  0  0  0  0  0
   20.1339   -4.8975  -18.1698 O   0  0  0  0  0  0  0  0  0  0  0  0
   19.5386   -6.2801  -16.5061 O   0  0  0  0  0  0  0  0  0  0  0  0
  2  1  1  1
  2  3  1  0
  3  4  1  0
  4  8  1  0
  5  4  2  0
  6  7  2  0
  6  2  1  0
  9  6  1  0
 10  9  1  0
 10 11  1  6
 11 12  1  0
 13 12  1  0
 13 14  1  0
 14 15  1  0
 16 10  1  0
 17 16  2  0
 19 18  1  0
 19 20  1  0
 20 22  1  0
 20 21  1  1
 22 24  1  0
 22 23  1  1
 23 16  1  0
 24 25  1  0
 26 24  2  0
M  END
$$$$
