DKI.pdb
     RDKit          3D

 26 25  0  0  1  0  0  0  0  0999 V2000
   20.8619  -19.4539  -16.4828 N   0  0  0  0  0  0  0  0  0  0  0  0
   21.4969  -18.9079  -15.3183 C   0  0  1  0  0  0  0  0  0  0  0  0
   20.7570  -19.3833  -14.0851 C   0  0  0  0  0  0  0  0  0  0  0  0
   19.5398  -18.5789  -13.8152 C   0  0  0  0  0  0  0  0  0  0  0  0
   19.1667  -17.6541  -14.5862 O   0  0  0  0  0  0  0  0  0  0  0  0
   22.9301  -19.2409  -15.3005 C   0  0  0  0  0  0  0  0  0  0  0  0
   23.3200  -20.2833  -14.6870 O   0  0  0  0  0  0  0  0  0  0  0  0
   18.7615  -18.8160  -12.6963 O   0  0  0  0  0  0  0  0  0  0  0  0
   23.9235  -18.4582  -15.9372 N   0  0  0  0  0  0  0  0  0  0  0  0
   25.3405  -18.7615  -15.9253 C   0  0  1  0  0  0  0  0  0  0  0  0
   26.0774  -17.6656  -16.6307 C   0  0  0  0  0  0  0  0  0  0  0  0
   27.4542  -18.0018  -17.0855 C   0  0  0  0  0  0  0  0  0  0  0  0
   27.4221  -19.1218  -18.0796 C   0  0  0  0  0  0  0  0  0  0  0  0
   28.8338  -19.4913  -18.4842 C   0  0  0  0  0  0  0  0  0  0  0  0
   28.8048  -20.6540  -19.3456 N   0  0  0  0  0  0  0  0  0  0  0  0
   25.8416  -18.7999  -14.5137 C   0  0  0  0  0  0  0  0  0  0  0  0
   25.8163  -17.7805  -13.8054 O   0  0  0  0  0  0  0  0  0  0  0  0
   24.0811  -21.0207  -10.4763 C   0  0  0  0  0  0  0  0  0  0  0  0
   24.8717  -20.1979  -11.5032 C   0  0  0  0  0  0  0  0  0  0  0  0
   26.2267  -20.8166  -11.7410 C   0  0  2  0  0  0  0  0  0  0  0  0
   26.9684  -21.0585  -10.4430 C   0  0  0  0  0  0  0  0  0  0  0  0
   27.0841  -20.0894  -12.7152 C   0  0  2  0  0  0  0  0  0  0  0  0
   26.3533  -20.0015  -13.9624 N   0  0  0  0  0  0  0  0  0  0  0  0
   28.4433  -20.5977  -12.8831 C   0  0  0  0  0  0  0  0  0  0  0  0
   29.5262  -20.2452  -12.0801 O   0  0  0  0  0  0  0  0  0  0  0  0
   28.6959  -21.4136  -13.8062 O   0  0  0  0  0  0  0  0  0  0  0  0
  2  1  1  6
  2  3  1  0
  3  4  1  0
  4  8  1  0
  5  4  2  0
  6  7  2  0
  6  2  1  0
  9  6  1  0
 10  9  1  0
 10 11  1  6
 11 12  1  0
 13 12  1  0
 13 14  1  0
 14 15  1  0
 16 10  1  0
 17 16  2  0
 19 18  1  0
 19 20  1  0
 20 22  1  0
 20 21  1  1
 22 24  1  0
 22 23  1  6
 23 16  1  0
 24 25  1  0
 26 24  2  0
M  END
$$$$
