DKI.pdb
     RDKit          3D

 26 25  0  0  1  0  0  0  0  0999 V2000
   14.8471   -6.5885  -20.1984 N   0  0  0  0  0  0  0  0  0  0  0  0
   16.1865   -7.0095  -19.9054 C   0  0  1  0  0  0  0  0  0  0  0  0
   17.1417   -6.3031  -20.8449 C   0  0  0  0  0  0  0  0  0  0  0  0
   17.0666   -6.8359  -22.2277 C   0  0  0  0  0  0  0  0  0  0  0  0
   16.2442   -7.7342  -22.5529 O   0  0  0  0  0  0  0  0  0  0  0  0
   16.5029   -6.7935  -18.4847 C   0  0  0  0  0  0  0  0  0  0  0  0
   16.2637   -5.6619  -17.9582 O   0  0  0  0  0  0  0  0  0  0  0  0
   17.9046   -6.3623  -23.2214 O   0  0  0  0  0  0  0  0  0  0  0  0
   17.0678   -7.7869  -17.6486 N   0  0  0  0  0  0  0  0  0  0  0  0
   17.2708   -7.6407  -16.2213 C   0  0  1  0  0  0  0  0  0  0  0  0
   16.5594   -8.7519  -15.5136 C   0  0  0  0  0  0  0  0  0  0  0  0
   15.0869   -8.5881  -15.3700 C   0  0  0  0  0  0  0  0  0  0  0  0
   14.4970   -9.7498  -14.6312 C   0  0  0  0  0  0  0  0  0  0  0  0
   13.0066   -9.5454  -14.4566 C   0  0  0  0  0  0  0  0  0  0  0  0
   12.4277  -10.7069  -13.8160 N   0  0  0  0  0  0  0  0  0  0  0  0
   18.7285   -7.7664  -15.8982 C   0  0  0  0  0  0  0  0  0  0  0  0
   19.4082   -8.6830  -16.3875 O   0  0  0  0  0  0  0  0  0  0  0  0
   21.9200   -3.7940  -16.5875 C   0  0  0  0  0  0  0  0  0  0  0  0
   21.3147   -5.1911  -16.3916 C   0  0  0  0  0  0  0  0  0  0  0  0
   21.3653   -5.5863  -14.9368 C   0  0  2  0  0  0  0  0  0  0  0  0
   22.7721   -5.5050  -14.3821 C   0  0  0  0  0  0  0  0  0  0  0  0
   20.7463   -6.9024  -14.6242 C   0  0  2  0  0  0  0  0  0  0  0  0
   19.3569   -6.8405  -15.0280 N   0  0  0  0  0  0  0  0  0  0  0  0
   20.9242   -7.3907  -13.2589 C   0  0  0  0  0  0  0  0  0  0  0  0
   21.9053   -8.2976  -12.8631 O   0  0  0  0  0  0  0  0  0  0  0  0
   20.1580   -6.9884  -12.3464 O   0  0  0  0  0  0  0  0  0  0  0  0
  2  1  1  1
  2  3  1  0
  3  4  1  0
  4  8  1  0
  5  4  2  0
  6  7  2  0
  6  2  1  0
  9  6  1  0
 10  9  1  0
 10 11  1  1
 11 12  1  0
 13 12  1  0
 13 14  1  0
 14 15  1  0
 16 10  1  0
 17 16  2  0
 19 18  1  0
 19 20  1  0
 20 22  1  0
 20 21  1  6
 22 24  1  0
 22 23  1  1
 23 16  1  0
 24 25  1  0
 26 24  2  0
M  END
$$$$
