DKI.pdb
     RDKit          3D

 26 25  0  0  1  0  0  0  0  0999 V2000
   19.4051  -12.8387  -16.9455 N   0  0  0  0  0  0  0  0  0  0  0  0
   18.9453  -11.5159  -17.2552 C   0  0  1  0  0  0  0  0  0  0  0  0
   17.6717  -11.2434  -16.4820 C   0  0  0  0  0  0  0  0  0  0  0  0
   16.5234  -12.0307  -16.9951 C   0  0  0  0  0  0  0  0  0  0  0  0
   16.5113  -12.5108  -18.1606 O   0  0  0  0  0  0  0  0  0  0  0  0
   20.0018  -10.5233  -17.0031 C   0  0  0  0  0  0  0  0  0  0  0  0
   20.6331  -10.5517  -15.9005 O   0  0  0  0  0  0  0  0  0  0  0  0
   15.4125  -12.2693  -16.2060 O   0  0  0  0  0  0  0  0  0  0  0  0
   20.3686   -9.5177  -17.9301 N   0  0  0  0  0  0  0  0  0  0  0  0
   21.4225   -8.5469  -17.7143 C   0  0  1  0  0  0  0  0  0  0  0  0
   21.7273   -7.8649  -19.0118 C   0  0  0  0  0  0  0  0  0  0  0  0
   22.8038   -6.8379  -18.9644 C   0  0  0  0  0  0  0  0  0  0  0  0
   22.9708   -6.1873  -20.3032 C   0  0  0  0  0  0  0  0  0  0  0  0
   24.0877   -5.1664  -20.2435 C   0  0  0  0  0  0  0  0  0  0  0  0
   24.3696   -4.6750  -21.5752 N   0  0  0  0  0  0  0  0  0  0  0  0
   20.9572   -7.4941  -16.7549 C   0  0  0  0  0  0  0  0  0  0  0  0
   19.8099   -7.0264  -16.8366 O   0  0  0  0  0  0  0  0  0  0  0  0
   20.7485   -8.6381  -11.9325 C   0  0  0  0  0  0  0  0  0  0  0  0
   20.5972   -7.9769  -13.3097 C   0  0  0  0  0  0  0  0  0  0  0  0
   21.4788   -6.7567  -13.4062 C   0  0  2  0  0  0  0  0  0  0  0  0
   21.2236   -5.7890  -12.2697 C   0  0  0  0  0  0  0  0  0  0  0  0
   21.4378   -6.0576  -14.7187 C   0  0  2  0  0  0  0  0  0  0  0  0
   21.8191   -7.0140  -15.7371 N   0  0  0  0  0  0  0  0  0  0  0  0
   22.1815   -4.8032  -14.8046 C   0  0  0  0  0  0  0  0  0  0  0  0
   21.6216   -3.5373  -14.6442 O   0  0  0  0  0  0  0  0  0  0  0  0
   23.4170   -4.8238  -15.0385 O   0  0  0  0  0  0  0  0  0  0  0  0
  2  1  1  1
  2  3  1  0
  3  4  1  0
  4  8  1  0
  5  4  2  0
  6  7  2  0
  6  2  1  0
  9  6  1  0
 10  9  1  0
 10 11  1  6
 11 12  1  0
 13 12  1  0
 13 14  1  0
 14 15  1  0
 16 10  1  0
 17 16  2  0
 19 18  1  0
 19 20  1  0
 20 22  1  0
 20 21  1  1
 22 24  1  0
 22 23  1  6
 23 16  1  0
 24 25  1  0
 26 24  2  0
M  END
$$$$
