DKI.pdb
     RDKit          3D

 26 25  0  0  1  0  0  0  0  0999 V2000
   17.1968  -23.8216  -12.3842 N   0  0  0  0  0  0  0  0  0  0  0  0
   17.5688  -23.2903  -11.1049 C   0  0  1  0  0  0  0  0  0  0  0  0
   16.8262  -21.9901  -10.8767 C   0  0  0  0  0  0  0  0  0  0  0  0
   17.2717  -20.9187  -11.8015 C   0  0  0  0  0  0  0  0  0  0  0  0
   18.4112  -20.9337  -12.3404 O   0  0  0  0  0  0  0  0  0  0  0  0
   17.3435  -24.2825  -10.0419 C   0  0  0  0  0  0  0  0  0  0  0  0
   16.1577  -24.5172   -9.6499 O   0  0  0  0  0  0  0  0  0  0  0  0
   16.4453  -19.8529  -12.1097 O   0  0  0  0  0  0  0  0  0  0  0  0
   18.3853  -25.0084   -9.4152 N   0  0  0  0  0  0  0  0  0  0  0  0
   18.1815  -26.1295   -8.5199 C   0  0  1  0  0  0  0  0  0  0  0  0
   19.2589  -27.1418   -8.7567 C   0  0  0  0  0  0  0  0  0  0  0  0
   19.1509  -27.9156  -10.0237 C   0  0  0  0  0  0  0  0  0  0  0  0
   20.4792  -27.9877  -10.7121 C   0  0  0  0  0  0  0  0  0  0  0  0
   20.3409  -28.7379  -12.0203 C   0  0  0  0  0  0  0  0  0  0  0  0
   21.6194  -28.7759  -12.6973 N   0  0  0  0  0  0  0  0  0  0  0  0
   18.3015  -25.6742   -7.0974 C   0  0  0  0  0  0  0  0  0  0  0  0
   19.1387  -24.8153   -6.7765 O   0  0  0  0  0  0  0  0  0  0  0  0
   14.1472  -24.1534   -4.2997 C   0  0  0  0  0  0  0  0  0  0  0  0
   15.5653  -24.3743   -4.8446 C   0  0  0  0  0  0  0  0  0  0  0  0
   16.1967  -25.5792   -4.1927 C   0  0  2  0  0  0  0  0  0  0  0  0
   16.1728  -25.4766   -2.6820 C   0  0  0  0  0  0  0  0  0  0  0  0
   17.5621  -25.9111   -4.6812 C   0  0  2  0  0  0  0  0  0  0  0  0
   17.4606  -26.2164   -6.0932 N   0  0  0  0  0  0  0  0  0  0  0  0
   18.2871  -26.9301   -3.9261 C   0  0  0  0  0  0  0  0  0  0  0  0
   19.1850  -26.6630   -2.8945 O   0  0  0  0  0  0  0  0  0  0  0  0
   18.1169  -28.1467   -4.1953 O   0  0  0  0  0  0  0  0  0  0  0  0
  2  1  1  6
  2  3  1  0
  3  4  1  0
  4  8  1  0
  5  4  2  0
  6  7  2  0
  6  2  1  0
  9  6  1  0
 10  9  1  0
 10 11  1  6
 11 12  1  0
 13 12  1  0
 13 14  1  0
 14 15  1  0
 16 10  1  0
 17 16  2  0
 19 18  1  0
 19 20  1  0
 20 22  1  0
 20 21  1  1
 22 24  1  0
 22 23  1  6
 23 16  1  0
 24 25  1  0
 26 24  2  0
M  END
$$$$
