DKI.pdb
     RDKit          3D

 26 25  0  0  1  0  0  0  0  0999 V2000
   15.9636  -10.5101  -15.2542 N   0  0  0  0  0  0  0  0  0  0  0  0
   16.6254  -10.3788  -13.9885 C   0  0  1  0  0  0  0  0  0  0  0  0
   17.9325   -9.6407  -14.1902 C   0  0  0  0  0  0  0  0  0  0  0  0
   18.9430  -10.4694  -14.8929 C   0  0  0  0  0  0  0  0  0  0  0  0
   18.7427  -11.6860  -15.1550 O   0  0  0  0  0  0  0  0  0  0  0  0
   15.7423   -9.7374  -13.0015 C   0  0  0  0  0  0  0  0  0  0  0  0
   15.1869   -8.6311  -13.2885 O   0  0  0  0  0  0  0  0  0  0  0  0
   20.1545   -9.9326  -15.2904 O   0  0  0  0  0  0  0  0  0  0  0  0
   15.4651  -10.2860  -11.7259 N   0  0  0  0  0  0  0  0  0  0  0  0
   14.5609   -9.6982  -10.7581 C   0  0  1  0  0  0  0  0  0  0  0  0
   13.8940  -10.7954   -9.9880 C   0  0  0  0  0  0  0  0  0  0  0  0
   12.7181  -11.4254  -10.6482 C   0  0  0  0  0  0  0  0  0  0  0  0
   12.2488  -12.6138   -9.8666 C   0  0  0  0  0  0  0  0  0  0  0  0
   11.0444  -13.2328  -10.5445 C   0  0  0  0  0  0  0  0  0  0  0  0
   10.5973  -14.3826   -9.7880 N   0  0  0  0  0  0  0  0  0  0  0  0
   15.3329   -8.8695   -9.7770 C   0  0  0  0  0  0  0  0  0  0  0  0
   16.3161   -9.3428   -9.1847 O   0  0  0  0  0  0  0  0  0  0  0  0
   19.1557   -5.0861   -9.6279 C   0  0  0  0  0  0  0  0  0  0  0  0
   17.8944   -5.3085   -8.7815 C   0  0  0  0  0  0  0  0  0  0  0  0
   16.9652   -6.2782   -9.4682 C   0  0  2  0  0  0  0  0  0  0  0  0
   16.6375   -5.8373  -10.8795 C   0  0  0  0  0  0  0  0  0  0  0  0
   15.7260   -6.6002   -8.7109 C   0  0  2  0  0  0  0  0  0  0  0  0
   14.9538   -7.5303   -9.5083 N   0  0  0  0  0  0  0  0  0  0  0  0
   14.9419   -5.4600   -8.2424 C   0  0  0  0  0  0  0  0  0  0  0  0
   13.7189   -5.0645   -8.7804 O   0  0  0  0  0  0  0  0  0  0  0  0
   15.3660   -4.7599   -7.2877 O   0  0  0  0  0  0  0  0  0  0  0  0
  2  1  1  6
  2  3  1  0
  3  4  1  0
  4  8  1  0
  5  4  2  0
  6  7  2  0
  6  2  1  0
  9  6  1  0
 10  9  1  0
 10 11  1  1
 11 12  1  0
 13 12  1  0
 13 14  1  0
 14 15  1  0
 16 10  1  0
 17 16  2  0
 19 18  1  0
 19 20  1  0
 20 22  1  0
 20 21  1  6
 22 24  1  0
 22 23  1  6
 23 16  1  0
 24 25  1  0
 26 24  2  0
M  END
$$$$
