KNQ.pdb
     RDKit          3D

 27 26  0  0  1  0  0  0  0  0999 V2000
    7.5747  -12.5350   19.8365 N   0  0  0  0  0  0  0  0  0  0  0  0
    7.8441  -13.7869   19.1945 C   0  0  1  0  0  0  0  0  0  0  0  0
    8.8816  -13.6323   18.0832 C   0  0  0  0  0  0  0  0  0  0  0  0
    8.3104  -13.5359   16.7190 C   0  0  0  0  0  0  0  0  0  0  0  0
    8.8633  -14.4637   15.6907 C   0  0  0  0  0  0  0  0  0  0  0  0
    8.0294  -14.2262   14.4218 C   0  0  0  0  0  0  0  0  0  0  0  0
    8.3605  -15.2452   13.4640 N   0  0  0  0  0  0  0  0  0  0  0  0
    8.5398  -14.7291   20.1534 C   0  0  0  0  0  0  0  0  0  0  0  0
    9.0871  -14.1952   21.1438 O   0  0  0  0  0  0  0  0  0  0  0  0
   10.4706  -19.0636   22.2835 N   0  0  0  0  0  0  0  0  0  0  0  0
    9.5024  -19.4658   21.3252 C   0  0  0  0  0  0  0  0  0  0  0  0
    9.1812  -20.6750   21.1655 O   0  0  0  0  0  0  0  0  0  0  0  0
    8.8914  -18.3821   20.5227 C   0  0  0  0  0  0  0  0  0  0  0  0
    9.3884  -17.0264   20.8370 C   0  0  2  0  0  0  0  0  0  0  0  0
    8.5941  -16.1074   19.9904 N   0  0  0  0  0  0  0  0  0  0  0  0
   10.8073  -16.7514   20.7006 C   0  0  0  0  0  0  0  0  0  0  0  0
   11.6193  -17.5382   21.3099 O   0  0  0  0  0  0  0  0  0  0  0  0
   15.9237  -15.8173   18.0319 N   0  0  0  0  0  0  0  0  0  0  0  0
   15.3035  -14.5425   18.0139 C   0  0  0  0  0  0  0  0  0  0  0  0
   15.2803  -13.8883   16.9612 O   0  0  0  0  0  0  0  0  0  0  0  0
   14.7031  -14.0572   19.2970 C   0  0  0  0  0  0  0  0  0  0  0  0
   13.2119  -14.2325   19.3349 C   0  0  0  0  0  0  0  0  0  0  0  0
   12.8785  -15.5789   19.9009 C   0  0  2  0  0  0  0  0  0  0  0  0
   11.4207  -15.7103   19.9687 N   0  0  0  0  0  0  0  0  0  0  0  0
   13.4723  -15.7589   21.2591 C   0  0  0  0  0  0  0  0  0  0  0  0
   14.7057  -15.7530   21.4402 O   0  0  0  0  0  0  0  0  0  0  0  0
   12.6278  -15.9357   22.3289 O   0  0  0  0  0  0  0  0  0  0  0  0
  2  1  1  1
  2  8  1  0
  3  2  1  0
  4  3  1  0
  4  5  1  0
  5  6  1  0
  7  6  1  0
  8  9  2  0
  8 15  1  0
 10 11  1  0
 11 12  2  0
 13 11  1  0
 14 13  1  6
 14 16  1  0
 15 14  1  0
 16 17  2  0
 19 21  1  0
 19 18  1  0
 20 19  2  0
 22 21  1  0
 23 22  1  1
 24 16  1  0
 24 23  1  0
 25 23  1  0
 25 27  1  0
 26 25  2  0
M  END
$$$$
