KNQ.pdb
     RDKit          3D

 27 26  0  0  1  0  0  0  0  0999 V2000
    7.7941  -18.5560   16.7779 N   0  0  0  0  0  0  0  0  0  0  0  0
    9.1607  -18.1395   16.6736 C   0  0  1  0  0  0  0  0  0  0  0  0
    9.4660  -17.5682   15.2896 C   0  0  0  0  0  0  0  0  0  0  0  0
    8.8378  -18.3062   14.1684 C   0  0  0  0  0  0  0  0  0  0  0  0
    8.6713  -19.7782   14.3408 C   0  0  0  0  0  0  0  0  0  0  0  0
    8.2202  -20.3110   12.9717 C   0  0  0  0  0  0  0  0  0  0  0  0
    8.0143  -21.7291   13.0822 N   0  0  0  0  0  0  0  0  0  0  0  0
    9.4168  -16.9505   17.5747 C   0  0  0  0  0  0  0  0  0  0  0  0
   10.5642  -16.4552   17.5132 O   0  0  0  0  0  0  0  0  0  0  0  0
    7.3337  -12.3373   20.3562 N   0  0  0  0  0  0  0  0  0  0  0  0
    7.4355  -13.6935   20.7655 C   0  0  0  0  0  0  0  0  0  0  0  0
    7.5280  -14.0208   21.9801 O   0  0  0  0  0  0  0  0  0  0  0  0
    7.4275  -14.7027   19.6825 C   0  0  0  0  0  0  0  0  0  0  0  0
    8.7404  -15.3223   19.4068 C   0  0  2  0  0  0  0  0  0  0  0  0
    8.4709  -16.4042   18.4325 N   0  0  0  0  0  0  0  0  0  0  0  0
    9.5279  -15.8197   20.5203 C   0  0  0  0  0  0  0  0  0  0  0  0
    9.2609  -17.0015   20.9468 O   0  0  0  0  0  0  0  0  0  0  0  0
   15.4319  -14.7449   22.0569 N   0  0  0  0  0  0  0  0  0  0  0  0
   15.0963  -15.7864   22.9583 C   0  0  0  0  0  0  0  0  0  0  0  0
   15.9925  -16.3498   23.6032 O   0  0  0  0  0  0  0  0  0  0  0  0
   13.6477  -16.1475   23.0756 C   0  0  0  0  0  0  0  0  0  0  0  0
   12.7816  -15.3561   22.1377 C   0  0  0  0  0  0  0  0  0  0  0  0
   11.3674  -15.8420   22.2290 C   0  0  2  0  0  0  0  0  0  0  0  0
   10.5707  -15.1585   21.2067 N   0  0  0  0  0  0  0  0  0  0  0  0
   10.7917  -15.5856   23.5827 C   0  0  0  0  0  0  0  0  0  0  0  0
   11.2685  -16.1121   24.6071 O   0  0  0  0  0  0  0  0  0  0  0  0
    9.7082  -14.7468   23.6894 O   0  0  0  0  0  0  0  0  0  0  0  0
  2  1  1  6
  2  8  1  0
  3  2  1  0
  4  3  1  0
  4  5  1  0
  5  6  1  0
  7  6  1  0
  8  9  2  0
  8 15  1  0
 10 11  1  0
 11 12  2  0
 13 11  1  0
 14 13  1  1
 14 16  1  0
 15 14  1  0
 16 17  2  0
 19 21  1  0
 19 18  1  0
 20 19  2  0
 22 21  1  0
 23 22  1  1
 24 16  1  0
 24 23  1  0
 25 23  1  0
 25 27  1  0
 26 25  2  0
M  END
$$$$
