KNQ.pdb
     RDKit          3D

 27 26  0  0  1  0  0  0  0  0999 V2000
    6.6692  -17.0194   21.1115 N   0  0  0  0  0  0  0  0  0  0  0  0
    8.0209  -16.6102   21.3506 C   0  0  1  0  0  0  0  0  0  0  0  0
    8.1351  -15.0894   21.4461 C   0  0  0  0  0  0  0  0  0  0  0  0
    8.3557  -14.4075   20.1489 C   0  0  0  0  0  0  0  0  0  0  0  0
    8.4068  -12.9172   20.1719 C   0  0  0  0  0  0  0  0  0  0  0  0
    8.5656  -12.4817   18.7066 C   0  0  0  0  0  0  0  0  0  0  0  0
    8.6457  -11.0473   18.6658 N   0  0  0  0  0  0  0  0  0  0  0  0
    8.4669  -17.0521   22.7279 C   0  0  0  0  0  0  0  0  0  0  0  0
    7.5680  -17.1298   23.5949 O   0  0  0  0  0  0  0  0  0  0  0  0
   13.6539  -18.2296   24.3592 N   0  0  0  0  0  0  0  0  0  0  0  0
   12.5120  -18.2820   23.5161 C   0  0  0  0  0  0  0  0  0  0  0  0
   12.5437  -17.8804   22.3209 O   0  0  0  0  0  0  0  0  0  0  0  0
   11.2801  -18.8357   24.1223 C   0  0  0  0  0  0  0  0  0  0  0  0
   10.2226  -17.8389   24.3903 C   0  0  2  0  0  0  0  0  0  0  0  0
    9.7789  -17.3650   23.0596 N   0  0  0  0  0  0  0  0  0  0  0  0
   10.5225  -16.7162   25.2604 C   0  0  0  0  0  0  0  0  0  0  0  0
   11.0471  -15.6767   24.7181 O   0  0  0  0  0  0  0  0  0  0  0  0
    8.0027  -12.3070   27.0710 N   0  0  0  0  0  0  0  0  0  0  0  0
    7.4966  -13.5765   26.6941 C   0  0  0  0  0  0  0  0  0  0  0  0
    6.2842  -13.7112   26.4744 O   0  0  0  0  0  0  0  0  0  0  0  0
    8.4820  -14.6988   26.5835 C   0  0  0  0  0  0  0  0  0  0  0  0
    9.8882  -14.2580   26.8735 C   0  0  0  0  0  0  0  0  0  0  0  0
   10.6786  -15.4155   27.4024 C   0  0  2  0  0  0  0  0  0  0  0  0
   10.3060  -16.6183   26.6530 N   0  0  0  0  0  0  0  0  0  0  0  0
   10.4287  -15.6227   28.8599 C   0  0  0  0  0  0  0  0  0  0  0  0
   10.6505  -14.7251   29.6960 O   0  0  0  0  0  0  0  0  0  0  0  0
    9.9425  -16.8382   29.2784 O   0  0  0  0  0  0  0  0  0  0  0  0
  2  1  1  1
  2  8  1  0
  3  2  1  0
  4  3  1  0
  4  5  1  0
  5  6  1  0
  7  6  1  0
  8  9  2  0
  8 15  1  0
 10 11  1  0
 11 12  2  0
 13 11  1  0
 14 13  1  6
 14 16  1  0
 15 14  1  0
 16 17  2  0
 19 21  1  0
 19 18  1  0
 20 19  2  0
 22 21  1  0
 23 22  1  6
 24 16  1  0
 24 23  1  0
 25 23  1  0
 25 27  1  0
 26 25  2  0
M  END
$$$$
