KNQ.pdb
     RDKit          3D

 27 26  0  0  1  0  0  0  0  0999 V2000
    8.9759  -15.9626   19.5094 N   0  0  0  0  0  0  0  0  0  0  0  0
    8.8756  -14.8779   20.4395 C   0  0  1  0  0  0  0  0  0  0  0  0
    7.7534  -13.9147   20.0548 C   0  0  0  0  0  0  0  0  0  0  0  0
    7.1857  -14.1412   18.7046 C   0  0  0  0  0  0  0  0  0  0  0  0
    7.7739  -13.3500   17.5856 C   0  0  0  0  0  0  0  0  0  0  0  0
    6.9346  -13.6929   16.3448 C   0  0  0  0  0  0  0  0  0  0  0  0
    7.5581  -13.0953   15.1960 N   0  0  0  0  0  0  0  0  0  0  0  0
    8.4140  -15.3850   21.7890 C   0  0  0  0  0  0  0  0  0  0  0  0
    8.2907  -14.5203   22.6849 O   0  0  0  0  0  0  0  0  0  0  0  0
    7.3360  -20.7036   24.3500 N   0  0  0  0  0  0  0  0  0  0  0  0
    6.9579  -19.3372   24.4361 C   0  0  0  0  0  0  0  0  0  0  0  0
    6.4803  -18.8404   25.4924 O   0  0  0  0  0  0  0  0  0  0  0  0
    7.1564  -18.5285   23.2121 C   0  0  0  0  0  0  0  0  0  0  0  0
    7.8901  -17.2629   23.4212 C   0  0  2  0  0  0  0  0  0  0  0  0
    8.1301  -16.7160   22.0663 N   0  0  0  0  0  0  0  0  0  0  0  0
    9.1213  -17.2857   24.1900 C   0  0  0  0  0  0  0  0  0  0  0  0
   10.1737  -17.7269   23.6005 O   0  0  0  0  0  0  0  0  0  0  0  0
   11.0486  -13.3423   28.4042 N   0  0  0  0  0  0  0  0  0  0  0  0
   10.5793  -14.4852   29.0995 C   0  0  0  0  0  0  0  0  0  0  0  0
   10.3169  -14.4013   30.3080 O   0  0  0  0  0  0  0  0  0  0  0  0
   10.4278  -15.7494   28.3111 C   0  0  0  0  0  0  0  0  0  0  0  0
   10.8323  -15.5813   26.8745 C   0  0  0  0  0  0  0  0  0  0  0  0
   10.6432  -16.8758   26.1445 C   0  0  2  0  0  0  0  0  0  0  0  0
    9.3138  -16.8760   25.5282 N   0  0  0  0  0  0  0  0  0  0  0  0
   10.7806  -18.0433   27.0652 C   0  0  0  0  0  0  0  0  0  0  0  0
   11.8736  -18.3416   27.5851 O   0  0  0  0  0  0  0  0  0  0  0  0
    9.6672  -18.8012   27.3384 O   0  0  0  0  0  0  0  0  0  0  0  0
  2  1  1  6
  2  8  1  0
  3  2  1  0
  4  3  1  0
  4  5  1  0
  5  6  1  0
  7  6  1  0
  8  9  2  0
  8 15  1  0
 10 11  1  0
 11 12  2  0
 13 11  1  0
 14 13  1  6
 14 16  1  0
 15 14  1  0
 16 17  2  0
 19 21  1  0
 19 18  1  0
 20 19  2  0
 22 21  1  0
 23 22  1  1
 24 16  1  0
 24 23  1  0
 25 23  1  0
 25 27  1  0
 26 25  2  0
M  END
$$$$
