KNQ.pdb
     RDKit          3D

 27 26  0  0  1  0  0  0  0  0999 V2000
   11.9197  -16.9191   16.4335 N   0  0  0  0  0  0  0  0  0  0  0  0
   11.3950  -16.8112   17.7620 C   0  0  1  0  0  0  0  0  0  0  0  0
   10.6687  -18.0888   18.1807 C   0  0  0  0  0  0  0  0  0  0  0  0
   10.3850  -19.0264   17.0686 C   0  0  0  0  0  0  0  0  0  0  0  0
    9.6461  -20.2753   17.4129 C   0  0  0  0  0  0  0  0  0  0  0  0
    9.4205  -21.0082   16.0811 C   0  0  0  0  0  0  0  0  0  0  0  0
    8.7661  -22.2578   16.3562 N   0  0  0  0  0  0  0  0  0  0  0  0
   12.5239  -16.7402   18.7678 C   0  0  0  0  0  0  0  0  0  0  0  0
   13.0825  -17.8262   19.0402 O   0  0  0  0  0  0  0  0  0  0  0  0
   14.9824  -13.0299   17.9800 N   0  0  0  0  0  0  0  0  0  0  0  0
   15.4351  -14.0306   18.8806 C   0  0  0  0  0  0  0  0  0  0  0  0
   16.4248  -14.7675   18.6195 O   0  0  0  0  0  0  0  0  0  0  0  0
   14.6766  -14.1594   20.1454 C   0  0  0  0  0  0  0  0  0  0  0  0
   14.0563  -15.4833   20.3606 C   0  0  2  0  0  0  0  0  0  0  0  0
   12.9527  -15.5680   19.3772 N   0  0  0  0  0  0  0  0  0  0  0  0
   13.5859  -15.8287   21.6899 C   0  0  0  0  0  0  0  0  0  0  0  0
   12.8283  -14.9785   22.2840 O   0  0  0  0  0  0  0  0  0  0  0  0
    9.7003  -20.0126   21.8950 N   0  0  0  0  0  0  0  0  0  0  0  0
   10.8603  -19.9131   22.7041 C   0  0  0  0  0  0  0  0  0  0  0  0
   11.2879  -20.9201   23.2868 O   0  0  0  0  0  0  0  0  0  0  0  0
   11.5087  -18.5671   22.8051 C   0  0  0  0  0  0  0  0  0  0  0  0
   12.6275  -18.5432   23.8069 C   0  0  0  0  0  0  0  0  0  0  0  0
   13.3077  -17.2090   23.7687 C   0  0  2  0  0  0  0  0  0  0  0  0
   13.8588  -17.0026   22.4268 N   0  0  0  0  0  0  0  0  0  0  0  0
   14.3962  -17.1253   24.7875 C   0  0  0  0  0  0  0  0  0  0  0  0
   14.1659  -17.2664   26.0044 O   0  0  0  0  0  0  0  0  0  0  0  0
   15.6805  -16.8854   24.3608 O   0  0  0  0  0  0  0  0  0  0  0  0
  2  1  1  6
  2  8  1  0
  3  2  1  0
  4  3  1  0
  4  5  1  0
  5  6  1  0
  7  6  1  0
  8  9  2  0
  8 15  1  0
 10 11  1  0
 11 12  2  0
 13 11  1  0
 14 13  1  1
 14 16  1  0
 15 14  1  0
 16 17  2  0
 19 21  1  0
 19 18  1  0
 20 19  2  0
 22 21  1  0
 23 22  1  6
 24 16  1  0
 24 23  1  0
 25 23  1  0
 25 27  1  0
 26 25  2  0
M  END
$$$$
