KNQ.pdb
     RDKit          3D

 27 26  0  0  1  0  0  0  0  0999 V2000
    9.8368  -19.3083   21.3852 N   0  0  0  0  0  0  0  0  0  0  0  0
   10.9719  -18.4607   21.1734 C   0  0  1  0  0  0  0  0  0  0  0  0
   11.3938  -18.4495   19.7047 C   0  0  0  0  0  0  0  0  0  0  0  0
   10.4681  -19.1643   18.7945 C   0  0  0  0  0  0  0  0  0  0  0  0
   10.9084  -19.3278   17.3790 C   0  0  0  0  0  0  0  0  0  0  0  0
    9.7574  -20.0532   16.6643 C   0  0  0  0  0  0  0  0  0  0  0  0
   10.1535  -20.3042   15.3058 N   0  0  0  0  0  0  0  0  0  0  0  0
   10.5972  -17.0133   21.4101 C   0  0  0  0  0  0  0  0  0  0  0  0
   11.5330  -16.1865   21.3313 O   0  0  0  0  0  0  0  0  0  0  0  0
    6.9151  -16.8358   22.6819 N   0  0  0  0  0  0  0  0  0  0  0  0
    6.5830  -15.9554   21.6180 C   0  0  0  0  0  0  0  0  0  0  0  0
    5.4586  -15.9891   21.0477 O   0  0  0  0  0  0  0  0  0  0  0  0
    7.6350  -14.9945   21.2159 C   0  0  0  0  0  0  0  0  0  0  0  0
    8.9259  -15.1648   21.9148 C   0  0  2  0  0  0  0  0  0  0  0  0
    9.3099  -16.5782   21.6979 N   0  0  0  0  0  0  0  0  0  0  0  0
    9.0111  -14.8207   23.3226 C   0  0  0  0  0  0  0  0  0  0  0  0
    8.8866  -13.5805   23.6326 O   0  0  0  0  0  0  0  0  0  0  0  0
    5.4646  -13.3105   26.5343 N   0  0  0  0  0  0  0  0  0  0  0  0
    6.6315  -12.5483   26.7939 C   0  0  0  0  0  0  0  0  0  0  0  0
    6.5228  -11.3735   27.1740 O   0  0  0  0  0  0  0  0  0  0  0  0
    7.9502  -13.2270   26.5869 C   0  0  0  0  0  0  0  0  0  0  0  0
    7.8000  -14.6172   26.0388 C   0  0  0  0  0  0  0  0  0  0  0  0
    9.1540  -15.2116   25.7986 C   0  0  2  0  0  0  0  0  0  0  0  0
    9.2158  -15.6919   24.4156 N   0  0  0  0  0  0  0  0  0  0  0  0
    9.4291  -16.3349   26.7432 C   0  0  0  0  0  0  0  0  0  0  0  0
    9.4042  -17.5242   26.3707 O   0  0  0  0  0  0  0  0  0  0  0  0
    9.7151  -16.0378   28.0543 O   0  0  0  0  0  0  0  0  0  0  0  0
  2  1  1  6
  2  8  1  0
  3  2  1  0
  4  3  1  0
  4  5  1  0
  5  6  1  0
  7  6  1  0
  8  9  2  0
  8 15  1  0
 10 11  1  0
 11 12  2  0
 13 11  1  0
 14 13  1  1
 14 16  1  0
 15 14  1  0
 16 17  2  0
 19 21  1  0
 19 18  1  0
 20 19  2  0
 22 21  1  0
 23 22  1  1
 24 16  1  0
 24 23  1  0
 25 23  1  0
 25 27  1  0
 26 25  2  0
M  END
$$$$
