KNQ.pdb
     RDKit          3D

 27 26  0  0  1  0  0  0  0  0999 V2000
   14.5995  -19.1379   18.5862 N   0  0  0  0  0  0  0  0  0  0  0  0
   13.8929  -17.9056   18.7706 C   0  0  1  0  0  0  0  0  0  0  0  0
   12.4043  -18.1473   19.0171 C   0  0  0  0  0  0  0  0  0  0  0  0
   12.0436  -19.5648   19.2554 C   0  0  0  0  0  0  0  0  0  0  0  0
   10.5981  -19.8653   19.4663 C   0  0  0  0  0  0  0  0  0  0  0  0
   10.2491  -20.9697   18.4562 C   0  0  0  0  0  0  0  0  0  0  0  0
    9.0795  -21.6605   18.9254 N   0  0  0  0  0  0  0  0  0  0  0  0
   14.3271  -17.2397   20.0587 C   0  0  0  0  0  0  0  0  0  0  0  0
   14.7998  -16.0867   19.9457 O   0  0  0  0  0  0  0  0  0  0  0  0
   12.7106  -16.1992   25.4372 N   0  0  0  0  0  0  0  0  0  0  0  0
   13.8004  -16.9403   24.9075 C   0  0  0  0  0  0  0  0  0  0  0  0
   14.8783  -17.0928   25.5443 O   0  0  0  0  0  0  0  0  0  0  0  0
   13.5979  -17.5239   23.5621 C   0  0  0  0  0  0  0  0  0  0  0  0
   14.6508  -17.1905   22.5802 C   0  0  2  0  0  0  0  0  0  0  0  0
   14.2264  -17.8279   21.3129 N   0  0  0  0  0  0  0  0  0  0  0  0
   16.0284  -17.5294   22.8881 C   0  0  0  0  0  0  0  0  0  0  0  0
   16.4238  -18.7132   22.5847 O   0  0  0  0  0  0  0  0  0  0  0  0
   20.9967  -15.2717   21.1104 N   0  0  0  0  0  0  0  0  0  0  0  0
   20.2674  -14.4384   21.9956 C   0  0  0  0  0  0  0  0  0  0  0  0
   20.4032  -13.2081   21.9292 O   0  0  0  0  0  0  0  0  0  0  0  0
   19.3595  -15.1137   22.9766 C   0  0  0  0  0  0  0  0  0  0  0  0
   19.3059  -16.6015   22.7783 C   0  0  0  0  0  0  0  0  0  0  0  0
   18.3577  -17.2064   23.7680 C   0  0  2  0  0  0  0  0  0  0  0  0
   17.0084  -16.7080   23.4886 N   0  0  0  0  0  0  0  0  0  0  0  0
   18.7478  -16.8695   25.1694 C   0  0  0  0  0  0  0  0  0  0  0  0
   19.8052  -17.2945   25.6745 O   0  0  0  0  0  0  0  0  0  0  0  0
   17.9115  -16.0704   25.9117 O   0  0  0  0  0  0  0  0  0  0  0  0
  2  1  1  1
  2  8  1  0
  3  2  1  0
  4  3  1  0
  4  5  1  0
  5  6  1  0
  7  6  1  0
  8  9  2  0
  8 15  1  0
 10 11  1  0
 11 12  2  0
 13 11  1  0
 14 13  1  1
 14 16  1  0
 15 14  1  0
 16 17  2  0
 19 21  1  0
 19 18  1  0
 20 19  2  0
 22 21  1  0
 23 22  1  6
 24 16  1  0
 24 23  1  0
 25 23  1  0
 25 27  1  0
 26 25  2  0
M  END
$$$$
