KNQ.pdb
     RDKit          3D

 27 26  0  0  1  0  0  0  0  0999 V2000
    7.5832  -17.5204   20.8610 N   0  0  0  0  0  0  0  0  0  0  0  0
    8.8212  -16.8971   21.2223 C   0  0  1  0  0  0  0  0  0  0  0  0
    8.7242  -15.3743   21.1404 C   0  0  0  0  0  0  0  0  0  0  0  0
    8.5562  -14.8426   19.7673 C   0  0  0  0  0  0  0  0  0  0  0  0
    8.5132  -13.3591   19.6204 C   0  0  0  0  0  0  0  0  0  0  0  0
    8.2178  -13.0945   18.1356 C   0  0  0  0  0  0  0  0  0  0  0  0
    8.0901  -11.6759   17.9443 N   0  0  0  0  0  0  0  0  0  0  0  0
    9.1123  -17.1211   22.6908 C   0  0  0  0  0  0  0  0  0  0  0  0
    8.1130  -17.2163   23.4378 O   0  0  0  0  0  0  0  0  0  0  0  0
   11.9347  -19.8562   26.4876 N   0  0  0  0  0  0  0  0  0  0  0  0
   12.4788  -18.6546   25.9608 C   0  0  0  0  0  0  0  0  0  0  0  0
   13.3340  -17.9746   26.5910 O   0  0  0  0  0  0  0  0  0  0  0  0
   11.9830  -18.2453   24.6273 C   0  0  0  0  0  0  0  0  0  0  0  0
   10.6893  -17.5312   24.6427 C   0  0  2  0  0  0  0  0  0  0  0  0
   10.3900  -17.2237   23.2256 N   0  0  0  0  0  0  0  0  0  0  0  0
   10.5552  -16.3420   25.4645 C   0  0  0  0  0  0  0  0  0  0  0  0
   11.2952  -15.3355   25.1662 O   0  0  0  0  0  0  0  0  0  0  0  0
    5.8171  -13.3700   27.4245 N   0  0  0  0  0  0  0  0  0  0  0  0
    6.6815  -12.8561   26.4251 C   0  0  0  0  0  0  0  0  0  0  0  0
    6.2679  -11.9831   25.6483 O   0  0  0  0  0  0  0  0  0  0  0  0
    8.0701  -13.4141   26.3708 C   0  0  0  0  0  0  0  0  0  0  0  0
    8.3442  -14.3799   27.4878 C   0  0  0  0  0  0  0  0  0  0  0  0
    9.7385  -14.9129   27.3605 C   0  0  2  0  0  0  0  0  0  0  0  0
    9.6980  -16.1461   26.5702 N   0  0  0  0  0  0  0  0  0  0  0  0
   10.3409  -15.1828   28.6999 C   0  0  0  0  0  0  0  0  0  0  0  0
   10.5836  -16.3428   29.0865 O   0  0  0  0  0  0  0  0  0  0  0  0
   10.6301  -14.1176   29.5187 O   0  0  0  0  0  0  0  0  0  0  0  0
  2  1  1  1
  2  8  1  0
  3  2  1  0
  4  3  1  0
  4  5  1  0
  5  6  1  0
  7  6  1  0
  8  9  2  0
  8 15  1  0
 10 11  1  0
 11 12  2  0
 13 11  1  0
 14 13  1  6
 14 16  1  0
 15 14  1  0
 16 17  2  0
 19 21  1  0
 19 18  1  0
 20 19  2  0
 22 21  1  0
 23 22  1  1
 24 16  1  0
 24 23  1  0
 25 23  1  0
 25 27  1  0
 26 25  2  0
M  END
$$$$
