AMV.pdb
     RDKit          3D

 21 20  0  0  1  0  0  0  0  0999 V2000
    6.6340  -16.9531   20.4351 C   0  0  0  0  0  0  0  0  0  0  0  0
    7.2071  -15.5874   20.2247 C   0  0  2  0  0  0  0  0  0  0  0  0
    7.9862  -15.4771   19.0068 N   0  0  0  0  0  0  0  0  0  0  0  0
    7.9940  -15.1757   21.4114 C   0  0  0  0  0  0  0  0  0  0  0  0
    9.2173  -15.4360   21.4309 O   0  0  0  0  0  0  0  0  0  0  0  0
    5.5378  -12.3897   27.3383 C   0  0  0  0  0  0  0  0  0  0  0  0
    7.0767  -11.6511   26.7432 S   0  0  0  0  0  0  0  0  0  0  0  0
    8.0633  -12.8288   25.7962 C   0  0  0  0  0  0  0  0  0  0  0  0
    7.3396  -13.2211   24.5368 C   0  0  0  0  0  0  0  0  0  0  0  0
    8.1875  -14.1757   23.7234 C   0  0  2  0  0  0  0  0  0  0  0  0
    7.4429  -14.5053   22.5240 N   0  0  0  0  0  0  0  0  0  0  0  0
    8.5049  -15.3975   24.5051 C   0  0  0  0  0  0  0  0  0  0  0  0
    7.5892  -16.2385   24.6942 O   0  0  0  0  0  0  0  0  0  0  0  0
   11.6383  -18.8475   25.7509 C   0  0  0  0  0  0  0  0  0  0  0  0
   11.3136  -17.5688   25.0111 C   0  0  1  0  0  0  0  0  0  0  0  0
   11.1484  -17.9025   23.5673 C   0  0  0  0  0  0  0  0  0  0  0  0
   10.0839  -16.9372   25.6280 C   0  0  2  0  0  0  0  0  0  0  0  0
    9.7788  -15.6604   25.0444 N   0  0  0  0  0  0  0  0  0  0  0  0
   10.1846  -16.8710   27.1085 C   0  0  0  0  0  0  0  0  0  0  0  0
   10.3879  -15.7586   27.6579 O   0  0  0  0  0  0  0  0  0  0  0  0
   10.0666  -17.9778   27.9368 O   0  0  0  0  0  0  0  0  0  0  0  0
  2  1  1  1
  3  2  1  0
  4  2  1  0
  5  4  2  0
  6  7  1  0
  7  8  1  0
  8  9  1  0
 10  9  1  1
 10 11  1  0
 10 12  1  0
 11  4  1  0
 12 13  2  0
 12 18  1  0
 15 16  1  6
 15 14  1  0
 17 15  1  0
 17 18  1  6
 19 17  1  0
 19 21  1  0
 20 19  2  0
M  END
$$$$
