AMV.pdb
     RDKit          3D

 21 20  0  0  1  0  0  0  0  0999 V2000
    7.3091  -15.1285   19.2655 C   0  0  0  0  0  0  0  0  0  0  0  0
    7.4918  -13.7521   19.8221 C   0  0  2  0  0  0  0  0  0  0  0  0
    8.2826  -12.8904   18.9649 N   0  0  0  0  0  0  0  0  0  0  0  0
    8.0590  -13.8255   21.1894 C   0  0  0  0  0  0  0  0  0  0  0  0
    9.3015  -13.9003   21.3126 O   0  0  0  0  0  0  0  0  0  0  0  0
    7.2709  -10.7501   27.5503 C   0  0  0  0  0  0  0  0  0  0  0  0
    6.3289  -12.2280   27.1073 S   0  0  0  0  0  0  0  0  0  0  0  0
    7.2869  -13.3456   26.0630 C   0  0  0  0  0  0  0  0  0  0  0  0
    6.7926  -13.2844   24.6433 C   0  0  0  0  0  0  0  0  0  0  0  0
    7.8271  -13.8686   23.7049 C   0  0  2  0  0  0  0  0  0  0  0  0
    7.2775  -13.8161   22.3644 N   0  0  0  0  0  0  0  0  0  0  0  0
    8.1607  -15.2635   24.0889 C   0  0  0  0  0  0  0  0  0  0  0  0
    7.2595  -16.1365   24.0045 O   0  0  0  0  0  0  0  0  0  0  0  0
   10.6205  -17.5692   22.7083 C   0  0  0  0  0  0  0  0  0  0  0  0
   10.8869  -17.5981   24.1969 C   0  0  1  0  0  0  0  0  0  0  0  0
   12.1564  -16.8585   24.4510 C   0  0  0  0  0  0  0  0  0  0  0  0
    9.6944  -17.0162   24.9257 C   0  0  2  0  0  0  0  0  0  0  0  0
    9.4346  -15.6563   24.5422 N   0  0  0  0  0  0  0  0  0  0  0  0
    9.8203  -17.1730   26.3974 C   0  0  0  0  0  0  0  0  0  0  0  0
    9.8269  -16.1462   27.1229 O   0  0  0  0  0  0  0  0  0  0  0  0
    9.9330  -18.4015   27.0323 O   0  0  0  0  0  0  0  0  0  0  0  0
  2  1  1  6
  3  2  1  0
  4  2  1  0
  5  4  2  0
  6  7  1  0
  7  8  1  0
  8  9  1  0
 10  9  1  1
 10 11  1  0
 10 12  1  0
 11  4  1  0
 12 13  2  0
 12 18  1  0
 15 16  1  6
 15 14  1  0
 17 15  1  0
 17 18  1  1
 19 17  1  0
 19 21  1  0
 20 19  2  0
M  END
$$$$
