AMV.pdb
     RDKit          3D

 21 20  0  0  1  0  0  0  0  0999 V2000
    7.7999  -12.6862   19.7323 C   0  0  0  0  0  0  0  0  0  0  0  0
    7.7128  -14.0915   20.2375 C   0  0  2  0  0  0  0  0  0  0  0  0
    6.3625  -14.6196   20.2250 N   0  0  0  0  0  0  0  0  0  0  0  0
    8.3207  -14.1878   21.5858 C   0  0  0  0  0  0  0  0  0  0  0  0
    9.5570  -14.0300   21.6913 O   0  0  0  0  0  0  0  0  0  0  0  0
    6.9253  -11.8038   27.7343 C   0  0  0  0  0  0  0  0  0  0  0  0
    5.9580  -11.7599   26.2079 S   0  0  0  0  0  0  0  0  0  0  0  0
    6.8651  -12.4704   24.8187 C   0  0  0  0  0  0  0  0  0  0  0  0
    7.0984  -13.9395   25.0452 C   0  0  0  0  0  0  0  0  0  0  0  0
    8.1576  -14.4526   24.0930 C   0  0  2  0  0  0  0  0  0  0  0  0
    7.5847  -14.4479   22.7613 N   0  0  0  0  0  0  0  0  0  0  0  0
    8.5975  -15.8174   24.4781 C   0  0  0  0  0  0  0  0  0  0  0  0
    7.7586  -16.7525   24.4196 O   0  0  0  0  0  0  0  0  0  0  0  0
   10.9489  -18.0867   22.9812 C   0  0  0  0  0  0  0  0  0  0  0  0
   11.4110  -17.9854   24.4178 C   0  0  1  0  0  0  0  0  0  0  0  0
   12.6280  -17.1245   24.4495 C   0  0  0  0  0  0  0  0  0  0  0  0
   10.2760  -17.4556   25.2680 C   0  0  2  0  0  0  0  0  0  0  0  0
    9.9057  -16.1158   24.9050 N   0  0  0  0  0  0  0  0  0  0  0  0
   10.5687  -17.5866   26.7183 C   0  0  0  0  0  0  0  0  0  0  0  0
   10.6200  -16.5497   27.4273 O   0  0  0  0  0  0  0  0  0  0  0  0
   10.7928  -18.8013   27.3501 O   0  0  0  0  0  0  0  0  0  0  0  0
  2  1  1  1
  3  2  1  0
  4  2  1  0
  5  4  2  0
  6  7  1  0
  7  8  1  0
  8  9  1  0
 10  9  1  1
 10 11  1  0
 10 12  1  0
 11  4  1  0
 12 13  2  0
 12 18  1  0
 15 16  1  6
 15 14  1  0
 17 15  1  0
 17 18  1  6
 19 17  1  0
 19 21  1  0
 20 19  2  0
M  END
$$$$
