AMV.pdb
     RDKit          3D

 21 20  0  0  1  0  0  0  0  0999 V2000
   10.1993  -16.1359   19.8838 C   0  0  0  0  0  0  0  0  0  0  0  0
   10.0726  -16.9202   21.1512 C   0  0  2  0  0  0  0  0  0  0  0  0
    9.0374  -17.9339   21.0936 N   0  0  0  0  0  0  0  0  0  0  0  0
    9.8728  -16.0053   22.3000 C   0  0  0  0  0  0  0  0  0  0  0  0
   10.7697  -15.1722   22.5572 O   0  0  0  0  0  0  0  0  0  0  0  0
    6.5699  -11.5054   25.3915 C   0  0  0  0  0  0  0  0  0  0  0  0
    5.7396  -13.0779   25.7162 S   0  0  0  0  0  0  0  0  0  0  0  0
    6.9199  -14.4202   25.9662 C   0  0  0  0  0  0  0  0  0  0  0  0
    7.1227  -15.1815   24.6844 C   0  0  0  0  0  0  0  0  0  0  0  0
    8.5965  -15.2487   24.3449 C   0  0  2  0  0  0  0  0  0  0  0  0
    8.7269  -16.0185   23.1234 N   0  0  0  0  0  0  0  0  0  0  0  0
    9.3656  -15.8723   25.4514 C   0  0  0  0  0  0  0  0  0  0  0  0
    9.7278  -17.0699   25.3243 O   0  0  0  0  0  0  0  0  0  0  0  0
   11.3891  -13.5694   28.2006 C   0  0  0  0  0  0  0  0  0  0  0  0
   10.8645  -14.8689   28.7696 C   0  0  1  0  0  0  0  0  0  0  0  0
    9.6931  -14.5515   29.6359 C   0  0  0  0  0  0  0  0  0  0  0  0
   10.5346  -15.8114   27.6318 C   0  0  2  0  0  0  0  0  0  0  0  0
    9.7087  -15.1897   26.6341 N   0  0  0  0  0  0  0  0  0  0  0  0
    9.9579  -17.0880   28.1260 C   0  0  0  0  0  0  0  0  0  0  0  0
    8.7541  -17.3515   27.8768 O   0  0  0  0  0  0  0  0  0  0  0  0
   10.6759  -18.0232   28.8572 O   0  0  0  0  0  0  0  0  0  0  0  0
  2  1  1  6
  3  2  1  0
  4  2  1  0
  5  4  2  0
  6  7  1  0
  7  8  1  0
  8  9  1  0
 10  9  1  1
 10 11  1  0
 10 12  1  0
 11  4  1  0
 12 13  2  0
 12 18  1  0
 15 16  1  6
 15 14  1  0
 17 15  1  0
 17 18  1  6
 19 17  1  0
 19 21  1  0
 20 19  2  0
M  END
$$$$
