AMV.pdb
     RDKit          3D

 21 20  0  0  1  0  0  0  0  0999 V2000
  -20.4373   96.0579   12.2145 C   0  0  0  0  0  0  0  0  0  0  0  0
  -20.1737   94.8881   11.3204 C   0  0  2  0  0  0  0  0  0  0  0  0
  -21.0353   93.7545   11.5949 N   0  0  0  0  0  0  0  0  0  0  0  0
  -18.7421   94.5094   11.3839 C   0  0  0  0  0  0  0  0  0  0  0  0
  -18.1222   94.3524   10.3089 O   0  0  0  0  0  0  0  0  0  0  0  0
  -18.8186   90.4438   16.1221 C   0  0  0  0  0  0  0  0  0  0  0  0
  -18.1229   91.0917   14.5847 S   0  0  0  0  0  0  0  0  0  0  0  0
  -17.5171   92.7803   14.7822 C   0  0  0  0  0  0  0  0  0  0  0  0
  -18.6698   93.7464   14.8220 C   0  0  0  0  0  0  0  0  0  0  0  0
  -18.4254   94.8906   13.8613 C   0  0  2  0  0  0  0  0  0  0  0  0
  -18.0349   94.3148   12.5894 N   0  0  0  0  0  0  0  0  0  0  0  0
  -17.3722   95.7997   14.3796 C   0  0  0  0  0  0  0  0  0  0  0  0
  -16.9220   95.5922   15.5354 O   0  0  0  0  0  0  0  0  0  0  0  0
  -15.9859   96.1243   11.0250 C   0  0  0  0  0  0  0  0  0  0  0  0
  -15.0966   95.9207   12.2314 C   0  0  1  0  0  0  0  0  0  0  0  0
  -13.6791   96.0176   11.7791 C   0  0  0  0  0  0  0  0  0  0  0  0
  -15.4609   96.9362   13.2934 C   0  0  2  0  0  0  0  0  0  0  0  0
  -16.8535   96.8811   13.6420 N   0  0  0  0  0  0  0  0  0  0  0  0
  -15.0279   98.3057   12.9151 C   0  0  0  0  0  0  0  0  0  0  0  0
  -14.0714   98.4438   12.1108 O   0  0  0  0  0  0  0  0  0  0  0  0
  -15.6222   99.4612   13.4014 O   0  0  0  0  0  0  0  0  0  0  0  0
  2  1  1  1
  3  2  1  0
  4  2  1  0
  5  4  2  0
  6  7  1  0
  7  8  1  0
  8  9  1  0
 10  9  1  1
 10 11  1  0
 10 12  1  0
 11  4  1  0
 12 13  2  0
 12 18  1  0
 15 16  1  6
 15 14  1  0
 17 15  1  0
 17 18  1  6
 19 17  1  0
 19 21  1  0
 20 19  2  0
M  END
$$$$
