AMV.pdb
     RDKit          3D

 21 20  0  0  1  0  0  0  0  0999 V2000
    6.7289  -19.4074   22.6921 C   0  0  0  0  0  0  0  0  0  0  0  0
    6.6292  -18.0661   22.0374 C   0  0  2  0  0  0  0  0  0  0  0  0
    6.9860  -18.0893   20.6322 N   0  0  0  0  0  0  0  0  0  0  0  0
    7.4346  -17.0719   22.7854 C   0  0  0  0  0  0  0  0  0  0  0  0
    8.6232  -16.8914   22.4403 O   0  0  0  0  0  0  0  0  0  0  0  0
    6.1866  -10.8282   26.2559 C   0  0  0  0  0  0  0  0  0  0  0  0
    6.3861  -12.4087   27.1101 S   0  0  0  0  0  0  0  0  0  0  0  0
    7.5308  -13.5006   26.2412 C   0  0  0  0  0  0  0  0  0  0  0  0
    6.7701  -14.5155   25.4317 C   0  0  0  0  0  0  0  0  0  0  0  0
    7.7290  -15.3621   24.6220 C   0  0  2  0  0  0  0  0  0  0  0  0
    6.9381  -16.3144   23.8675 N   0  0  0  0  0  0  0  0  0  0  0  0
    8.6969  -16.0575   25.5076 C   0  0  0  0  0  0  0  0  0  0  0  0
    8.2929  -17.0460   26.1719 O   0  0  0  0  0  0  0  0  0  0  0  0
   13.3108  -17.2097   26.6660 C   0  0  0  0  0  0  0  0  0  0  0  0
   12.4018  -16.2642   25.9125 C   0  0  1  0  0  0  0  0  0  0  0  0
   12.5902  -16.5102   24.4540 C   0  0  0  0  0  0  0  0  0  0  0  0
   10.9763  -16.4692   26.3789 C   0  0  2  0  0  0  0  0  0  0  0  0
   10.0427  -15.6653   25.6400 N   0  0  0  0  0  0  0  0  0  0  0  0
   10.8460  -16.2797   27.8463 C   0  0  0  0  0  0  0  0  0  0  0  0
   10.4252  -15.1793   28.2853 O   0  0  0  0  0  0  0  0  0  0  0  0
   11.1647  -17.2567   28.7785 O   0  0  0  0  0  0  0  0  0  0  0  0
  2  1  1  1
  3  2  1  0
  4  2  1  0
  5  4  2  0
  6  7  1  0
  7  8  1  0
  8  9  1  0
 10  9  1  1
 10 11  1  0
 10 12  1  0
 11  4  1  0
 12 13  2  0
 12 18  1  0
 15 16  1  6
 15 14  1  0
 17 15  1  0
 17 18  1  6
 19 17  1  0
 19 21  1  0
 20 19  2  0
M  END
$$$$
