PAY.pdb
     RDKit          3D

 25 26  0  0  1  0  0  0  0  0999 V2000
    9.2429  -14.0495   18.9978 N   0  0  0  0  0  0  0  0  0  0  0  0
    8.2106  -13.9857   18.0053 C   0  0  0  0  0  0  0  0  0  0  0  0
    7.4183  -12.7686   18.4215 C   0  0  0  0  0  0  0  0  0  0  0  0
    7.5118  -12.7417   19.9270 C   0  0  0  0  0  0  0  0  0  0  0  0
    8.6814  -13.6526   20.2432 C   0  0  1  0  0  0  0  0  0  0  0  0
    8.3252  -14.7243   21.1719 C   0  0  0  0  0  0  0  0  0  0  0  0
    7.4044  -14.4940   22.0321 O   0  0  0  0  0  0  0  0  0  0  0  0
    8.8362  -18.3995   21.8484 C   0  0  0  0  0  0  0  0  0  0  0  0
    8.4882  -16.9970   22.2583 C   0  0  2  0  0  0  0  0  0  0  0  0
    8.8920  -16.0213   21.2351 N   0  0  0  0  0  0  0  0  0  0  0  0
    9.0421  -16.6317   23.5812 C   0  0  0  0  0  0  0  0  0  0  0  0
   10.1492  -16.0541   23.6166 O   0  0  0  0  0  0  0  0  0  0  0  0
    6.1678  -10.8616   25.6326 O   0  0  0  0  0  0  0  0  0  0  0  0
    6.6251  -12.1269   25.9951 C   0  0  0  0  0  0  0  0  0  0  0  0
    7.9506  -12.3771   26.2696 C   0  0  0  0  0  0  0  0  0  0  0  0
    8.3700  -13.6492   26.6276 C   0  0  0  0  0  0  0  0  0  0  0  0
    7.4889  -14.7043   26.7227 C   0  0  0  0  0  0  0  0  0  0  0  0
    7.9041  -16.0680   27.0650 C   0  0  0  0  0  0  0  0  0  0  0  0
    8.9373  -16.5415   26.1152 C   0  0  2  0  0  0  0  0  0  0  0  0
    8.3958  -16.8958   24.8100 N   0  0  0  0  0  0  0  0  0  0  0  0
    9.7503  -17.6187   26.6821 C   0  0  0  0  0  0  0  0  0  0  0  0
    9.6413  -18.7648   26.1307 O   0  0  0  0  0  0  0  0  0  0  0  0
    6.1723  -14.4344   26.4448 C   0  0  0  0  0  0  0  0  0  0  0  0
    5.7375  -13.1709   26.0864 C   0  0  0  0  0  0  0  0  0  0  0  0
   10.6224  -17.5326   27.7428 O   0  0  0  0  0  0  0  0  0  0  0  0
  1  5  1  0
  2  1  1  0
  3  2  1  0
  3  4  1  0
  4  5  1  0
  5  6  1  6
  6 10  1  0
  6  7  2  0
  9  8  1  6
  9 11  1  0
 10  9  1  0
 11 12  2  0
 13 14  1  0
 14 15  2  0
 15 16  1  0
 17 18  1  0
 17 16  2  0
 19 18  1  1
 19 21  1  0
 20 19  1  0
 20 11  1  0
 21 25  1  0
 22 21  2  0
 23 17  1  0
 24 23  2  0
 24 14  1  0
M  END
$$$$
