PAY.pdb
     RDKit          3D

 25 26  0  0  1  0  0  0  0  0999 V2000
    9.3855  -14.1471   19.1847 N   0  0  0  0  0  0  0  0  0  0  0  0
    8.4367  -14.3261   18.1252 C   0  0  0  0  0  0  0  0  0  0  0  0
    7.4409  -13.2177   18.3741 C   0  0  0  0  0  0  0  0  0  0  0  0
    7.4104  -13.0539   19.8735 C   0  0  0  0  0  0  0  0  0  0  0  0
    8.6745  -13.7424   20.3486 C   0  0  1  0  0  0  0  0  0  0  0  0
    8.4106  -14.7772   21.3473 C   0  0  0  0  0  0  0  0  0  0  0  0
    7.5904  -14.5058   22.2931 O   0  0  0  0  0  0  0  0  0  0  0  0
    9.0578  -18.4262   22.1133 C   0  0  0  0  0  0  0  0  0  0  0  0
    8.6357  -17.0285   22.4664 C   0  0  2  0  0  0  0  0  0  0  0  0
    8.9685  -16.0787   21.3946 N   0  0  0  0  0  0  0  0  0  0  0  0
    9.1864  -16.5732   23.7625 C   0  0  0  0  0  0  0  0  0  0  0  0
   10.2482  -15.9149   23.7522 O   0  0  0  0  0  0  0  0  0  0  0  0
    6.2194  -10.8447   25.4844 O   0  0  0  0  0  0  0  0  0  0  0  0
    6.6583  -12.1010   25.8973 C   0  0  0  0  0  0  0  0  0  0  0  0
    5.8552  -13.2170   25.8308 C   0  0  0  0  0  0  0  0  0  0  0  0
    6.3256  -14.4518   26.2506 C   0  0  0  0  0  0  0  0  0  0  0  0
    7.6013  -14.6127   26.7460 C   0  0  0  0  0  0  0  0  0  0  0  0
    8.1182  -15.8964   27.2299 C   0  0  0  0  0  0  0  0  0  0  0  0
    9.1405  -16.4211   26.2953 C   0  0  2  0  0  0  0  0  0  0  0  0
    8.5853  -16.8367   25.0142 N   0  0  0  0  0  0  0  0  0  0  0  0
    9.9540  -17.4729   26.9072 C   0  0  0  0  0  0  0  0  0  0  0  0
    9.8644  -18.6361   26.3892 O   0  0  0  0  0  0  0  0  0  0  0  0
    8.3859  -13.4882   26.8044 C   0  0  0  0  0  0  0  0  0  0  0  0
    7.9318  -12.2490   26.3895 C   0  0  0  0  0  0  0  0  0  0  0  0
   10.8083  -17.3465   27.9785 O   0  0  0  0  0  0  0  0  0  0  0  0
  1  5  1  0
  2  1  1  0
  3  2  1  0
  3  4  1  0
  4  5  1  0
  5  6  1  1
  6 10  1  0
  6  7  2  0
  9  8  1  6
  9 11  1  0
 10  9  1  0
 11 12  2  0
 13 14  1  0
 14 15  2  0
 15 16  1  0
 17 18  1  0
 17 16  2  0
 19 18  1  1
 19 21  1  0
 20 19  1  0
 20 11  1  0
 21 25  1  0
 22 21  2  0
 23 17  1  0
 24 23  2  0
 24 14  1  0
M  END
$$$$
