PAY.pdb
     RDKit          3D

 25 26  0  0  1  0  0  0  0  0999 V2000
    8.8035  -14.6430   18.2443 N   0  0  0  0  0  0  0  0  0  0  0  0
    7.5461  -14.4542   17.5825 C   0  0  0  0  0  0  0  0  0  0  0  0
    7.2209  -13.0099   17.8831 C   0  0  0  0  0  0  0  0  0  0  0  0
    7.8013  -12.7592   19.2529 C   0  0  0  0  0  0  0  0  0  0  0  0
    8.7787  -13.8997   19.4570 C   0  0  1  0  0  0  0  0  0  0  0  0
    8.5158  -14.6539   20.6818 C   0  0  0  0  0  0  0  0  0  0  0  0
    8.4671  -14.0086   21.7873 O   0  0  0  0  0  0  0  0  0  0  0  0
    7.7386  -18.1597   21.9197 C   0  0  0  0  0  0  0  0  0  0  0  0
    7.9824  -16.6863   22.0805 C   0  0  2  0  0  0  0  0  0  0  0  0
    8.3027  -16.0500   20.7943 N   0  0  0  0  0  0  0  0  0  0  0  0
    9.0211  -16.3836   23.0903 C   0  0  0  0  0  0  0  0  0  0  0  0
   10.2148  -16.3733   22.7220 O   0  0  0  0  0  0  0  0  0  0  0  0
    4.9440  -12.0505   26.4897 O   0  0  0  0  0  0  0  0  0  0  0  0
    6.1917  -12.6621   26.3874 C   0  0  0  0  0  0  0  0  0  0  0  0
    7.3008  -12.1810   27.0458 C   0  0  0  0  0  0  0  0  0  0  0  0
    8.5271  -12.8157   26.9210 C   0  0  0  0  0  0  0  0  0  0  0  0
    8.6862  -13.9412   26.1421 C   0  0  0  0  0  0  0  0  0  0  0  0
    9.9749  -14.6162   25.9613 C   0  0  0  0  0  0  0  0  0  0  0  0
    9.7635  -16.0034   25.4871 C   0  0  2  0  0  0  0  0  0  0  0  0
    8.7471  -16.1047   24.4485 N   0  0  0  0  0  0  0  0  0  0  0  0
    9.5108  -16.9281   26.5934 C   0  0  0  0  0  0  0  0  0  0  0  0
   10.4222  -17.0144   27.4830 O   0  0  0  0  0  0  0  0  0  0  0  0
    7.5689  -14.4047   25.4938 C   0  0  0  0  0  0  0  0  0  0  0  0
    6.3381  -13.7833   25.6079 C   0  0  0  0  0  0  0  0  0  0  0  0
    8.3971  -17.7136   26.7831 O   0  0  0  0  0  0  0  0  0  0  0  0
  1  5  1  0
  2  1  1  0
  3  2  1  0
  3  4  1  0
  4  5  1  0
  5  6  1  1
  6 10  1  0
  6  7  2  0
  9  8  1  6
  9 11  1  0
 10  9  1  0
 11 12  2  0
 13 14  1  0
 14 15  2  0
 15 16  1  0
 17 18  1  0
 17 16  2  0
 19 18  1  1
 19 21  1  0
 20 19  1  0
 20 11  1  0
 21 25  1  0
 22 21  2  0
 23 17  1  0
 24 23  2  0
 24 14  1  0
M  END
$$$$
