PAY.pdb
     RDKit          3D

 25 26  0  0  1  0  0  0  0  0999 V2000
    6.6678  -18.8246   21.0625 N   0  0  0  0  0  0  0  0  0  0  0  0
    5.4958  -18.6932   20.2475 C   0  0  0  0  0  0  0  0  0  0  0  0
    5.9731  -19.1628   18.8933 C   0  0  0  0  0  0  0  0  0  0  0  0
    7.4216  -18.7463   18.8273 C   0  0  0  0  0  0  0  0  0  0  0  0
    7.7962  -18.4736   20.2706 C   0  0  1  0  0  0  0  0  0  0  0  0
    8.3415  -17.1311   20.4666 C   0  0  0  0  0  0  0  0  0  0  0  0
    9.4342  -16.8320   19.8687 O   0  0  0  0  0  0  0  0  0  0  0  0
    7.6276  -13.6492   21.4325 C   0  0  0  0  0  0  0  0  0  0  0  0
    8.5247  -14.8499   21.5316 C   0  0  2  0  0  0  0  0  0  0  0  0
    7.7904  -16.0944   21.2597 N   0  0  0  0  0  0  0  0  0  0  0  0
    9.2343  -14.9303   22.8278 C   0  0  0  0  0  0  0  0  0  0  0  0
   10.0984  -14.0641   23.0805 O   0  0  0  0  0  0  0  0  0  0  0  0
    5.5476  -11.3502   26.5064 O   0  0  0  0  0  0  0  0  0  0  0  0
    6.2936  -12.5241   26.4233 C   0  0  0  0  0  0  0  0  0  0  0  0
    5.7166  -13.7415   26.1404 C   0  0  0  0  0  0  0  0  0  0  0  0
    6.4903  -14.8895   26.0653 C   0  0  0  0  0  0  0  0  0  0  0  0
    7.8530  -14.8614   26.2682 C   0  0  0  0  0  0  0  0  0  0  0  0
    8.6948  -16.0610   26.2300 C   0  0  0  0  0  0  0  0  0  0  0  0
    9.6499  -15.9797   25.1008 C   0  0  2  0  0  0  0  0  0  0  0  0
    8.9956  -15.9277   23.8003 N   0  0  0  0  0  0  0  0  0  0  0  0
   10.6629  -17.0345   25.1629 C   0  0  0  0  0  0  0  0  0  0  0  0
   11.3196  -17.1298   26.2534 O   0  0  0  0  0  0  0  0  0  0  0  0
    8.4088  -13.6385   26.5494 C   0  0  0  0  0  0  0  0  0  0  0  0
    7.6510  -12.4836   26.6276 C   0  0  0  0  0  0  0  0  0  0  0  0
   10.9845  -17.9380   24.1763 O   0  0  0  0  0  0  0  0  0  0  0  0
  1  5  1  0
  2  1  1  0
  3  2  1  0
  3  4  1  0
  4  5  1  0
  5  6  1  6
  6 10  1  0
  6  7  2  0
  9  8  1  1
  9 11  1  0
 10  9  1  0
 11 12  2  0
 13 14  1  0
 14 15  2  0
 15 16  1  0
 17 18  1  0
 17 16  2  0
 19 18  1  1
 19 21  1  0
 20 19  1  0
 20 11  1  0
 21 25  1  0
 22 21  2  0
 23 17  1  0
 24 23  2  0
 24 14  1  0
M  END
$$$$
