PAY.pdb
     RDKit          3D

 25 26  0  0  1  0  0  0  0  0999 V2000
    8.2836  -17.8060   18.0965 N   0  0  0  0  0  0  0  0  0  0  0  0
    8.2218  -16.9820   16.9252 C   0  0  0  0  0  0  0  0  0  0  0  0
    9.6743  -16.8450   16.5331 C   0  0  0  0  0  0  0  0  0  0  0  0
   10.4311  -16.8615   17.8380 C   0  0  0  0  0  0  0  0  0  0  0  0
    9.4434  -17.4375   18.8333 C   0  0  1  0  0  0  0  0  0  0  0  0
    9.2355  -16.5659   19.9887 C   0  0  0  0  0  0  0  0  0  0  0  0
   10.0745  -16.6358   20.9542 O   0  0  0  0  0  0  0  0  0  0  0  0
    7.0034  -13.7968   21.3013 C   0  0  0  0  0  0  0  0  0  0  0  0
    8.0050  -14.9076   21.4405 C   0  0  2  0  0  0  0  0  0  0  0  0
    8.1892  -15.6284   20.1723 N   0  0  0  0  0  0  0  0  0  0  0  0
    7.6724  -15.8460   22.5355 C   0  0  0  0  0  0  0  0  0  0  0  0
    7.1261  -16.9291   22.2368 O   0  0  0  0  0  0  0  0  0  0  0  0
   11.2124  -13.0370   28.7865 O   0  0  0  0  0  0  0  0  0  0  0  0
   10.6315  -14.0418   28.0156 C   0  0  0  0  0  0  0  0  0  0  0  0
   11.3508  -14.7669   27.0927 C   0  0  0  0  0  0  0  0  0  0  0  0
   10.7395  -15.7600   26.3428 C   0  0  0  0  0  0  0  0  0  0  0  0
    9.4024  -16.0600   26.4876 C   0  0  0  0  0  0  0  0  0  0  0  0
    8.7177  -17.0797   25.6872 C   0  0  0  0  0  0  0  0  0  0  0  0
    7.5547  -16.4854   24.9886 C   0  0  2  0  0  0  0  0  0  0  0  0
    7.9346  -15.5936   23.9011 N   0  0  0  0  0  0  0  0  0  0  0  0
    6.6230  -15.8477   25.9203 C   0  0  0  0  0  0  0  0  0  0  0  0
    6.4651  -14.5873   25.7943 O   0  0  0  0  0  0  0  0  0  0  0  0
    8.7029  -15.3258   27.4123 C   0  0  0  0  0  0  0  0  0  0  0  0
    9.2978  -14.3317   28.1686 C   0  0  0  0  0  0  0  0  0  0  0  0
    5.8951  -16.4571   26.9163 O   0  0  0  0  0  0  0  0  0  0  0  0
  1  5  1  0
  2  1  1  0
  3  2  1  0
  3  4  1  0
  4  5  1  0
  5  6  1  1
  6 10  1  0
  6  7  2  0
  9  8  1  6
  9 11  1  0
 10  9  1  0
 11 12  2  0
 13 14  1  0
 14 15  2  0
 15 16  1  0
 17 18  1  0
 17 16  2  0
 19 18  1  1
 19 21  1  0
 20 19  1  0
 20 11  1  0
 21 25  1  0
 22 21  2  0
 23 17  1  0
 24 23  2  0
 24 14  1  0
M  END
$$$$
