PAY.pdb
     RDKit          3D

 25 26  0  0  1  0  0  0  0  0999 V2000
    9.3570  -14.1308   18.8981 N   0  0  0  0  0  0  0  0  0  0  0  0
    8.3116  -14.0942   17.9179 C   0  0  0  0  0  0  0  0  0  0  0  0
    7.5406  -12.8509   18.2943 C   0  0  0  0  0  0  0  0  0  0  0  0
    7.6556  -12.7635   19.7960 C   0  0  0  0  0  0  0  0  0  0  0  0
    8.8181  -13.6759   20.1336 C   0  0  1  0  0  0  0  0  0  0  0  0
    8.4616  -14.7039   21.1104 C   0  0  0  0  0  0  0  0  0  0  0  0
    7.7112  -14.3668   22.0923 O   0  0  0  0  0  0  0  0  0  0  0  0
    8.6683  -18.4358   21.7121 C   0  0  0  0  0  0  0  0  0  0  0  0
    8.3956  -17.0163   22.1205 C   0  0  2  0  0  0  0  0  0  0  0  0
    8.8575  -16.0642   21.0996 N   0  0  0  0  0  0  0  0  0  0  0  0
    8.9620  -16.6818   23.4463 C   0  0  0  0  0  0  0  0  0  0  0  0
   10.1047  -16.1787   23.4882 O   0  0  0  0  0  0  0  0  0  0  0  0
    6.2677  -10.8148   25.8762 O   0  0  0  0  0  0  0  0  0  0  0  0
    6.6827  -12.1146   26.1583 C   0  0  0  0  0  0  0  0  0  0  0  0
    7.9734  -12.4066   26.5377 C   0  0  0  0  0  0  0  0  0  0  0  0
    8.3511  -13.7123   26.8109 C   0  0  0  0  0  0  0  0  0  0  0  0
    7.4618  -14.7606   26.7157 C   0  0  0  0  0  0  0  0  0  0  0  0
    7.8367  -16.1559   26.9640 C   0  0  0  0  0  0  0  0  0  0  0  0
    8.8531  -16.5952   25.9802 C   0  0  2  0  0  0  0  0  0  0  0  0
    8.2898  -16.8962   24.6709 N   0  0  0  0  0  0  0  0  0  0  0  0
    9.6706  -17.6965   26.4916 C   0  0  0  0  0  0  0  0  0  0  0  0
    9.4689  -18.8446   25.9714 O   0  0  0  0  0  0  0  0  0  0  0  0
    6.1804  -14.4488   26.3357 C   0  0  0  0  0  0  0  0  0  0  0  0
    5.7874  -13.1513   26.0597 C   0  0  0  0  0  0  0  0  0  0  0  0
   10.6359  -17.6313   27.4699 O   0  0  0  0  0  0  0  0  0  0  0  0
  1  5  1  0
  2  1  1  0
  3  2  1  0
  3  4  1  0
  4  5  1  0
  5  6  1  1
  6 10  1  0
  6  7  2  0
  9  8  1  6
  9 11  1  0
 10  9  1  0
 11 12  2  0
 13 14  1  0
 14 15  2  0
 15 16  1  0
 17 18  1  0
 17 16  2  0
 19 18  1  1
 19 21  1  0
 20 19  1  0
 20 11  1  0
 21 25  1  0
 22 21  2  0
 23 17  1  0
 24 23  2  0
 24 14  1  0
M  END
$$$$
