PAY.pdb
     RDKit          3D

 25 26  0  0  1  0  0  0  0  0999 V2000
    8.9187  -15.0550   17.0442 N   0  0  0  0  0  0  0  0  0  0  0  0
    7.5741  -14.6910   16.7061 C   0  0  0  0  0  0  0  0  0  0  0  0
    7.4233  -13.3299   17.3439 C   0  0  0  0  0  0  0  0  0  0  0  0
    8.2770  -13.3877   18.5865 C   0  0  0  0  0  0  0  0  0  0  0  0
    9.1869  -14.5782   18.3574 C   0  0  1  0  0  0  0  0  0  0  0  0
    9.1122  -15.5600   19.4383 C   0  0  0  0  0  0  0  0  0  0  0  0
    7.9814  -15.7370   20.0137 O   0  0  0  0  0  0  0  0  0  0  0  0
   11.1961  -18.0791   21.3614 C   0  0  0  0  0  0  0  0  0  0  0  0
   10.0293  -17.1531   21.1682 C   0  0  2  0  0  0  0  0  0  0  0  0
   10.1693  -16.3601   19.9380 N   0  0  0  0  0  0  0  0  0  0  0  0
    9.7942  -16.2752   22.3362 C   0  0  0  0  0  0  0  0  0  0  0  0
   10.5185  -15.2660   22.4692 O   0  0  0  0  0  0  0  0  0  0  0  0
    6.5745  -10.9204   28.1953 O   0  0  0  0  0  0  0  0  0  0  0  0
    6.7015  -11.8934   27.2061 C   0  0  0  0  0  0  0  0  0  0  0  0
    5.9226  -13.0283   27.1891 C   0  0  0  0  0  0  0  0  0  0  0  0
    6.0764  -13.9758   26.1887 C   0  0  0  0  0  0  0  0  0  0  0  0
    7.0041  -13.8238   25.1811 C   0  0  0  0  0  0  0  0  0  0  0  0
    7.2160  -14.8218   24.1283 C   0  0  0  0  0  0  0  0  0  0  0  0
    8.4657  -15.5753   24.3821 C   0  0  2  0  0  0  0  0  0  0  0  0
    8.7994  -16.5070   23.3131 N   0  0  0  0  0  0  0  0  0  0  0  0
    8.4565  -16.2261   25.6932 C   0  0  0  0  0  0  0  0  0  0  0  0
    7.8925  -17.3694   25.7576 O   0  0  0  0  0  0  0  0  0  0  0  0
    7.7708  -12.6861   25.2161 C   0  0  0  0  0  0  0  0  0  0  0  0
    7.6298  -11.7311   26.2071 C   0  0  0  0  0  0  0  0  0  0  0  0
    8.9916  -15.7432   26.8653 O   0  0  0  0  0  0  0  0  0  0  0  0
  1  5  1  0
  2  1  1  0
  3  2  1  0
  3  4  1  0
  4  5  1  0
  5  6  1  1
  6 10  1  0
  6  7  2  0
  9  8  1  1
  9 11  1  0
 10  9  1  0
 11 12  2  0
 13 14  1  0
 14 15  2  0
 15 16  1  0
 17 18  1  0
 17 16  2  0
 19 18  1  6
 19 21  1  0
 20 19  1  0
 20 11  1  0
 21 25  1  0
 22 21  2  0
 23 17  1  0
 24 23  2  0
 24 14  1  0
M  END
$$$$
