TCG.pdb
     RDKit          3D

 18 17  0  0  1  0  0  0  0  0999 V2000
   26.7520  -17.8869  -14.4769 C   0  0  0  0  0  0  0  0  0  0  0  0
   27.2636  -18.8954  -15.4799 C   0  0  1  0  0  0  0  0  0  0  0  0
   28.2474  -18.3976  -16.2960 O   0  0  0  0  0  0  0  0  0  0  0  0
   27.7919  -20.0889  -14.7196 C   0  0  2  0  0  0  0  0  0  0  0  0
   28.4387  -20.9490  -15.7256 N   0  0  0  0  0  0  0  0  0  0  0  0
   26.7674  -20.8380  -13.9823 C   0  0  0  0  0  0  0  0  0  0  0  0
   26.0834  -21.7736  -14.4921 O   0  0  0  0  0  0  0  0  0  0  0  0
   26.5067  -20.5206  -12.6233 N   0  0  0  0  0  0  0  0  0  0  0  0
   25.3911  -21.1148  -11.9000 C   0  0  1  0  0  0  0  0  0  0  0  0
   25.6115  -20.9414  -10.3922 C   0  0  0  0  0  0  0  0  0  0  0  0
   27.2824  -21.5066   -9.9802 S   0  0  0  0  0  0  0  0  0  0  0  0
   24.0984  -20.5413  -12.3119 C   0  0  0  0  0  0  0  0  0  0  0  0
   23.7949  -19.3230  -12.2008 O   0  0  0  0  0  0  0  0  0  0  0  0
   23.1181  -21.4016  -12.8725 N   0  0  0  0  0  0  0  0  0  0  0  0
   21.8283  -20.9220  -13.3365 C   0  0  0  0  0  0  0  0  0  0  0  0
   21.0266  -22.0342  -13.8704 C   0  0  0  0  0  0  0  0  0  0  0  0
   21.5822  -23.2932  -14.0427 O   0  0  0  0  0  0  0  0  0  0  0  0
   19.8239  -21.8733  -14.1826 O   0  0  0  0  0  0  0  0  0  0  0  0
  2  3  1  0
  2  1  1  1
  4  5  1  6
  4  2  1  0
  6  4  1  0
  7  6  2  0
  8  6  1  0
  9  8  1  0
  9 12  1  0
  9 10  1  1
 11 10  1  0
 12 14  1  0
 13 12  2  0
 14 15  1  0
 16 17  1  0
 16 15  1  0
 18 16  2  0
M  END
$$$$
