TCG.pdb
     RDKit          3D

 18 17  0  0  1  0  0  0  0  0999 V2000
   19.9621  -13.5120  -20.2700 C   0  0  0  0  0  0  0  0  0  0  0  0
   20.0516  -12.7331  -18.9777 C   0  0  1  0  0  0  0  0  0  0  0  0
   19.2630  -13.2462  -17.9795 O   0  0  0  0  0  0  0  0  0  0  0  0
   21.4945  -12.7272  -18.5307 C   0  0  2  0  0  0  0  0  0  0  0  0
   21.8786  -14.1437  -18.4021 N   0  0  0  0  0  0  0  0  0  0  0  0
   21.7348  -12.0112  -17.2721 C   0  0  0  0  0  0  0  0  0  0  0  0
   22.1421  -12.5749  -16.2142 O   0  0  0  0  0  0  0  0  0  0  0  0
   21.5082  -10.6113  -17.2058 N   0  0  0  0  0  0  0  0  0  0  0  0
   21.8339   -9.8398  -16.0145 C   0  0  1  0  0  0  0  0  0  0  0  0
   23.3420   -9.9256  -15.7487 C   0  0  0  0  0  0  0  0  0  0  0  0
   23.7348   -8.9151  -14.2976 S   0  0  0  0  0  0  0  0  0  0  0  0
   21.3993   -8.4371  -16.1296 C   0  0  0  0  0  0  0  0  0  0  0  0
   21.8340   -7.6280  -16.9928 O   0  0  0  0  0  0  0  0  0  0  0  0
   20.4282   -7.9469  -15.2174 N   0  0  0  0  0  0  0  0  0  0  0  0
   19.9144   -6.5898  -15.2746 C   0  0  0  0  0  0  0  0  0  0  0  0
   20.8666   -5.6518  -14.6596 C   0  0  0  0  0  0  0  0  0  0  0  0
   22.0925   -6.0924  -14.1838 O   0  0  0  0  0  0  0  0  0  0  0  0
   20.5955   -4.4336  -14.5500 O   0  0  0  0  0  0  0  0  0  0  0  0
  2  3  1  0
  2  1  1  6
  4  5  1  1
  4  2  1  0
  6  4  1  0
  7  6  2  0
  8  6  1  0
  9  8  1  0
  9 12  1  0
  9 10  1  6
 11 10  1  0
 12 14  1  0
 13 12  2  0
 14 15  1  0
 16 17  1  0
 16 15  1  0
 18 16  2  0
M  END
$$$$
