TCG.pdb
     RDKit          3D

 18 17  0  0  1  0  0  0  0  0999 V2000
   16.2257   -9.8655  -14.7061 C   0  0  0  0  0  0  0  0  0  0  0  0
   17.1823   -8.7012  -14.5882 C   0  0  1  0  0  0  0  0  0  0  0  0
   16.5613   -7.5186  -14.2761 O   0  0  0  0  0  0  0  0  0  0  0  0
   18.2007   -9.0348  -13.5237 C   0  0  2  0  0  0  0  0  0  0  0  0
   17.4513   -9.0876  -12.2565 N   0  0  0  0  0  0  0  0  0  0  0  0
   19.3103   -8.0787  -13.4276 C   0  0  0  0  0  0  0  0  0  0  0  0
   19.3105   -7.0851  -12.6429 O   0  0  0  0  0  0  0  0  0  0  0  0
   20.4586   -8.2505  -14.2445 N   0  0  0  0  0  0  0  0  0  0  0  0
   21.5519   -7.2886  -14.2382 C   0  0  1  0  0  0  0  0  0  0  0  0
   22.8417   -7.9805  -14.6966 C   0  0  0  0  0  0  0  0  0  0  0  0
   23.3233   -9.1994  -13.4462 S   0  0  0  0  0  0  0  0  0  0  0  0
   21.2584   -6.1142  -15.0774 C   0  0  0  0  0  0  0  0  0  0  0  0
   20.9324   -6.1746  -16.2935 O   0  0  0  0  0  0  0  0  0  0  0  0
   21.3432   -4.8219  -14.4958 N   0  0  0  0  0  0  0  0  0  0  0  0
   21.0880   -3.6062  -15.2480 C   0  0  0  0  0  0  0  0  0  0  0  0
   21.2011   -2.4270  -14.3754 C   0  0  0  0  0  0  0  0  0  0  0  0
   21.1202   -1.1449  -14.8980 O   0  0  0  0  0  0  0  0  0  0  0  0
   21.3730   -2.5500  -13.1405 O   0  0  0  0  0  0  0  0  0  0  0  0
  2  3  1  0
  2  1  1  1
  4  5  1  1
  4  2  1  0
  6  4  1  0
  7  6  2  0
  8  6  1  0
  9  8  1  0
  9 12  1  0
  9 10  1  6
 11 10  1  0
 12 14  1  0
 13 12  2  0
 14 15  1  0
 16 17  1  0
 16 15  1  0
 18 16  2  0
M  END
$$$$
