TCG.pdb
     RDKit          3D

 18 17  0  0  1  0  0  0  0  0999 V2000
   21.1275  -10.8127  -20.4913 C   0  0  0  0  0  0  0  0  0  0  0  0
   20.7407   -9.9780  -19.2920 C   0  0  1  0  0  0  0  0  0  0  0  0
   19.4014   -9.6855  -19.2440 O   0  0  0  0  0  0  0  0  0  0  0  0
   21.1394  -10.7322  -18.0454 C   0  0  2  0  0  0  0  0  0  0  0  0
   20.3283  -11.9619  -18.0460 N   0  0  0  0  0  0  0  0  0  0  0  0
   20.9425   -9.9848  -16.7975 C   0  0  0  0  0  0  0  0  0  0  0  0
   19.8917  -10.0616  -16.0954 O   0  0  0  0  0  0  0  0  0  0  0  0
   21.9666   -9.1220  -16.3261 N   0  0  0  0  0  0  0  0  0  0  0  0
   21.7989   -8.3245  -15.1193 C   0  0  1  0  0  0  0  0  0  0  0  0
   22.8871   -8.6995  -14.1056 C   0  0  0  0  0  0  0  0  0  0  0  0
   22.3796  -10.2071  -13.2393 S   0  0  0  0  0  0  0  0  0  0  0  0
   21.8219   -6.8797  -15.4051 C   0  0  0  0  0  0  0  0  0  0  0  0
   22.7703   -6.2861  -15.9854 O   0  0  0  0  0  0  0  0  0  0  0  0
   20.7121   -6.0882  -15.0084 N   0  0  0  0  0  0  0  0  0  0  0  0
   20.6455   -4.6572  -15.2468 C   0  0  0  0  0  0  0  0  0  0  0  0
   19.3973   -4.1014  -14.7012 C   0  0  0  0  0  0  0  0  0  0  0  0
   18.3943   -4.9346  -14.2286 O   0  0  0  0  0  0  0  0  0  0  0  0
   19.2082   -2.8639  -14.6496 O   0  0  0  0  0  0  0  0  0  0  0  0
  2  3  1  0
  2  1  1  6
  4  5  1  1
  4  2  1  0
  6  4  1  0
  7  6  2  0
  8  6  1  0
  9  8  1  0
  9 12  1  0
  9 10  1  1
 11 10  1  0
 12 14  1  0
 13 12  2  0
 14 15  1  0
 16 17  1  0
 16 15  1  0
 18 16  2  0
M  END
$$$$
