TCG.pdb
     RDKit          3D

 18 17  0  0  1  0  0  0  0  0999 V2000
   16.9546   -7.7109  -17.0721 C   0  0  0  0  0  0  0  0  0  0  0  0
   16.2656   -8.8093  -16.2953 C   0  0  1  0  0  0  0  0  0  0  0  0
   15.1999   -9.3585  -16.9620 O   0  0  0  0  0  0  0  0  0  0  0  0
   17.2840   -9.8840  -15.9959 C   0  0  2  0  0  0  0  0  0  0  0  0
   16.5327  -10.9806  -15.3609 N   0  0  0  0  0  0  0  0  0  0  0  0
   18.3879   -9.4473  -15.1327 C   0  0  0  0  0  0  0  0  0  0  0  0
   18.2488   -9.1760  -13.9039 O   0  0  0  0  0  0  0  0  0  0  0  0
   19.6931   -9.3129  -15.6749 N   0  0  0  0  0  0  0  0  0  0  0  0
   20.8090   -8.8337  -14.8714 C   0  0  1  0  0  0  0  0  0  0  0  0
   21.9961   -9.7926  -15.0252 C   0  0  0  0  0  0  0  0  0  0  0  0
   23.2994   -9.2939  -13.8703 S   0  0  0  0  0  0  0  0  0  0  0  0
   21.1949   -7.4577  -15.2279 C   0  0  0  0  0  0  0  0  0  0  0  0
   21.3504   -7.0478  -16.4097 O   0  0  0  0  0  0  0  0  0  0  0  0
   21.4100   -6.5179  -14.1858 N   0  0  0  0  0  0  0  0  0  0  0  0
   21.8942   -5.1713  -14.4331 C   0  0  0  0  0  0  0  0  0  0  0  0
   20.7680   -4.2528  -14.6628 C   0  0  0  0  0  0  0  0  0  0  0  0
   20.0291   -4.3122  -15.8350 O   0  0  0  0  0  0  0  0  0  0  0  0
   20.4478   -3.3950  -13.8076 O   0  0  0  0  0  0  0  0  0  0  0  0
  2  3  1  0
  2  1  1  6
  4  5  1  1
  4  2  1  0
  6  4  1  0
  7  6  2  0
  8  6  1  0
  9  8  1  0
  9 12  1  0
  9 10  1  6
 11 10  1  0
 12 14  1  0
 13 12  2  0
 14 15  1  0
 16 17  1  0
 16 15  1  0
 18 16  2  0
M  END
$$$$
