TCG.pdb
     RDKit          3D

 18 17  0  0  1  0  0  0  0  0999 V2000
   18.0303  -10.3130  -17.5570 C   0  0  0  0  0  0  0  0  0  0  0  0
   17.7921  -11.5864  -16.7783 C   0  0  1  0  0  0  0  0  0  0  0  0
   16.9185  -12.4447  -17.3963 O   0  0  0  0  0  0  0  0  0  0  0  0
   19.1229  -12.2734  -16.5812 C   0  0  2  0  0  0  0  0  0  0  0  0
   18.8150  -13.5652  -15.9435 N   0  0  0  0  0  0  0  0  0  0  0  0
   20.0816  -11.5132  -15.7703 C   0  0  0  0  0  0  0  0  0  0  0  0
   19.8564  -11.1520  -14.5778 O   0  0  0  0  0  0  0  0  0  0  0  0
   21.3370  -11.1490  -16.3240 N   0  0  0  0  0  0  0  0  0  0  0  0
   22.2521  -10.2588  -15.6235 C   0  0  1  0  0  0  0  0  0  0  0  0
   23.6973  -10.6801  -15.9170 C   0  0  0  0  0  0  0  0  0  0  0  0
   24.0897  -12.1424  -14.9227 S   0  0  0  0  0  0  0  0  0  0  0  0
   22.0324   -8.8474  -15.9833 C   0  0  0  0  0  0  0  0  0  0  0  0
   21.8488   -8.4354  -17.1603 O   0  0  0  0  0  0  0  0  0  0  0  0
   22.0238   -7.8735  -14.9504 N   0  0  0  0  0  0  0  0  0  0  0  0
   21.8688   -6.4538  -15.2137 C   0  0  0  0  0  0  0  0  0  0  0  0
   21.8321   -5.6968  -13.9527 C   0  0  0  0  0  0  0  0  0  0  0  0
   21.8501   -4.3100  -13.9546 O   0  0  0  0  0  0  0  0  0  0  0  0
   21.7837   -6.2837  -12.8468 O   0  0  0  0  0  0  0  0  0  0  0  0
  2  3  1  0
  2  1  1  6
  4  5  1  1
  4  2  1  0
  6  4  1  0
  7  6  2  0
  8  6  1  0
  9  8  1  0
  9 12  1  0
  9 10  1  6
 11 10  1  0
 12 14  1  0
 13 12  2  0
 14 15  1  0
 16 17  1  0
 16 15  1  0
 18 16  2  0
M  END
$$$$
