TCG.pdb
     RDKit          3D

 18 17  0  0  1  0  0  0  0  0999 V2000
   26.8427  -17.9770  -14.6968 C   0  0  0  0  0  0  0  0  0  0  0  0
   27.1190  -19.0670  -15.7068 C   0  0  1  0  0  0  0  0  0  0  0  0
   27.9945  -18.6849  -16.6913 O   0  0  0  0  0  0  0  0  0  0  0  0
   27.6761  -20.2618  -14.9693 C   0  0  2  0  0  0  0  0  0  0  0  0
   28.0745  -21.2241  -16.0111 N   0  0  0  0  0  0  0  0  0  0  0  0
   26.7377  -20.8816  -14.0260 C   0  0  0  0  0  0  0  0  0  0  0  0
   25.8104  -21.6685  -14.3782 O   0  0  0  0  0  0  0  0  0  0  0  0
   26.8502  -20.6041  -12.6383 N   0  0  0  0  0  0  0  0  0  0  0  0
   25.8584  -21.0751  -11.6817 C   0  0  1  0  0  0  0  0  0  0  0  0
   26.3435  -20.7785  -10.2573 C   0  0  0  0  0  0  0  0  0  0  0  0
   25.0193  -21.1952   -9.0938 S   0  0  0  0  0  0  0  0  0  0  0  0
   24.5336  -20.4776  -11.9211 C   0  0  0  0  0  0  0  0  0  0  0  0
   24.3282  -19.2428  -12.0690 O   0  0  0  0  0  0  0  0  0  0  0  0
   23.4025  -21.3327  -11.9931 N   0  0  0  0  0  0  0  0  0  0  0  0
   22.0417  -20.8286  -12.0462 C   0  0  0  0  0  0  0  0  0  0  0  0
   21.5632  -20.7821  -13.4367 C   0  0  0  0  0  0  0  0  0  0  0  0
   22.3683  -20.2833  -14.4499 O   0  0  0  0  0  0  0  0  0  0  0  0
   20.4187  -21.1910  -13.7412 O   0  0  0  0  0  0  0  0  0  0  0  0
  2  3  1  0
  2  1  1  1
  4  5  1  6
  4  2  1  0
  6  4  1  0
  7  6  2  0
  8  6  1  0
  9  8  1  0
  9 12  1  0
  9 10  1  1
 11 10  1  0
 12 14  1  0
 13 12  2  0
 14 15  1  0
 16 17  1  0
 16 15  1  0
 18 16  2  0
M  END
$$$$
