NRS.pdb
     RDKit          3D

 26 25  0  0  1  0  0  0  0  0999 V2000
   12.6020  -20.9903   15.7740 N   0  0  0  0  0  0  0  0  0  0  0  0
   11.7122  -20.9647   16.8753 C   0  0  0  0  0  0  0  0  0  0  0  0
   10.7552  -21.7955   16.8159 O   0  0  0  0  0  0  0  0  0  0  0  0
   11.7992  -20.0873   18.0411 C   0  0  0  0  0  0  0  0  0  0  0  0
   10.4471  -19.7792   18.5789 C   0  0  2  0  0  0  0  0  0  0  0  0
    9.5841  -19.1057   17.6524 N   0  0  0  0  0  0  0  0  0  0  0  0
   10.6435  -18.8901   19.7829 C   0  0  0  0  0  0  0  0  0  0  0  0
   11.6751  -18.1848   19.9029 O   0  0  0  0  0  0  0  0  0  0  0  0
    7.5532  -12.0847   20.6662 N   0  0  0  0  0  0  0  0  0  0  0  0
    8.1876  -13.2539   20.0470 C   0  0  0  0  0  0  0  0  0  0  0  0
    7.9462  -13.5308   18.8403 N   0  0  0  0  0  0  0  0  0  0  0  0
    9.0625  -14.0522   20.8041 N   0  0  0  0  0  0  0  0  0  0  0  0
    8.9888  -15.4491   21.0070 C   0  0  0  0  0  0  0  0  0  0  0  0
    8.4313  -15.9598   22.2976 C   0  0  0  0  0  0  0  0  0  0  0  0
    8.4731  -17.4729   22.3019 C   0  0  0  0  0  0  0  0  0  0  0  0
    9.8195  -17.9893   21.9435 C   0  0  2  0  0  0  0  0  0  0  0  0
    9.6655  -18.8451   20.7857 N   0  0  0  0  0  0  0  0  0  0  0  0
   10.3474  -18.8885   23.0499 C   0  0  0  0  0  0  0  0  0  0  0  0
    9.7559  -19.9691   23.3020 O   0  0  0  0  0  0  0  0  0  0  0  0
    8.3110  -14.2509   18.2713 O   0  0  0  0  0  0  0  0  0  0  0  0
   14.2190  -19.0053   23.9542 C   0  0  0  0  0  0  0  0  0  0  0  0
   13.4754  -18.9255   25.1127 C   0  0  2  0  0  0  0  0  0  0  0  0
   12.0353  -19.3008   24.8436 N   0  0  0  0  0  0  0  0  0  0  0  0
   11.4920  -18.4812   23.7644 C   0  0  0  0  0  0  0  0  0  0  0  0
   11.1909  -19.1718   26.0460 O   0  0  0  0  0  0  0  0  0  0  0  0
   11.4063  -20.0076   27.1196 O   0  0  0  0  0  0  0  0  0  0  0  0
  2  1  1  0
  3  2  2  0
  4  2  1  0
  5  4  1  0
  5  6  1  6
  7  5  1  0
  7  8  2  0
  9 10  1  0
 10 12  1  0
 11 10  2  0
 12 13  1  0
 13 14  1  0
 16 15  1  1
 15 14  1  0
 16 17  1  0
 17  7  1  0
 18 16  1  0
 19 18  2  0
 20 21  1  0
 22 21  1  6
 22 24  1  0
 22 23  1  0
 23 18  1  0
 24 25  1  0
 26 24  2  0
M  END
$$$$
