NRS.pdb
     RDKit          3D

 26 25  0  0  1  0  0  0  0  0999 V2000
   13.4500  -13.4244   16.9096 N   0  0  0  0  0  0  0  0  0  0  0  0
   14.3302  -14.4532   17.3247 C   0  0  0  0  0  0  0  0  0  0  0  0
   14.4300  -15.4336   16.5255 O   0  0  0  0  0  0  0  0  0  0  0  0
   15.1105  -14.4816   18.5602 C   0  0  0  0  0  0  0  0  0  0  0  0
   14.8026  -15.6988   19.3577 C   0  0  2  0  0  0  0  0  0  0  0  0
   14.3374  -16.8104   18.5800 N   0  0  0  0  0  0  0  0  0  0  0  0
   13.7238  -15.3192   20.3430 C   0  0  0  0  0  0  0  0  0  0  0  0
   13.7840  -14.2403   20.9819 O   0  0  0  0  0  0  0  0  0  0  0  0
    8.2440  -14.4558   16.4931 N   0  0  0  0  0  0  0  0  0  0  0  0
    8.1251  -13.5385   17.6321 C   0  0  0  0  0  0  0  0  0  0  0  0
    7.8363  -12.3271   17.4321 N   0  0  0  0  0  0  0  0  0  0  0  0
    8.3300  -14.0203   18.9366 N   0  0  0  0  0  0  0  0  0  0  0  0
    9.2707  -14.9893   19.3540 C   0  0  0  0  0  0  0  0  0  0  0  0
    9.2184  -15.4808   20.7657 C   0  0  0  0  0  0  0  0  0  0  0  0
   10.3301  -16.4828   20.9929 C   0  0  0  0  0  0  0  0  0  0  0  0
   11.5742  -15.8279   21.4738 C   0  0  2  0  0  0  0  0  0  0  0  0
   12.6360  -16.1774   20.5535 N   0  0  0  0  0  0  0  0  0  0  0  0
   11.9876  -16.4101   22.8160 C   0  0  0  0  0  0  0  0  0  0  0  0
   13.0416  -17.0912   22.8950 O   0  0  0  0  0  0  0  0  0  0  0  0
    7.7237  -11.5885   18.0781 O   0  0  0  0  0  0  0  0  0  0  0  0
    9.2350  -16.3701   25.9233 C   0  0  0  0  0  0  0  0  0  0  0  0
   10.5535  -16.2201   26.2981 C   0  0  1  0  0  0  0  0  0  0  0  0
   11.4724  -16.7740   25.2323 N   0  0  0  0  0  0  0  0  0  0  0  0
   11.1715  -16.1669   23.9391 C   0  0  0  0  0  0  0  0  0  0  0  0
   11.3865  -18.2428   25.1297 O   0  0  0  0  0  0  0  0  0  0  0  0
   11.9362  -19.0260   26.1207 O   0  0  0  0  0  0  0  0  0  0  0  0
  2  1  1  0
  3  2  2  0
  4  2  1  0
  5  4  1  0
  5  6  1  6
  7  5  1  0
  7  8  2  0
  9 10  1  0
 10 12  1  0
 11 10  2  0
 12 13  1  0
 13 14  1  0
 16 15  1  6
 15 14  1  0
 16 17  1  0
 17  7  1  0
 18 16  1  0
 19 18  2  0
 20 21  1  0
 22 21  1  1
 22 24  1  0
 22 23  1  0
 23 18  1  0
 24 25  1  0
 26 24  2  0
M  END
$$$$
