NRS.pdb
     RDKit          3D

 26 25  0  0  1  0  0  0  0  0999 V2000
   15.1088  -18.8508   14.9396 N   0  0  0  0  0  0  0  0  0  0  0  0
   13.7561  -18.9304   15.3507 C   0  0  0  0  0  0  0  0  0  0  0  0
   13.0665  -19.8225   14.7691 O   0  0  0  0  0  0  0  0  0  0  0  0
   13.1048  -18.0959   16.3586 C   0  0  0  0  0  0  0  0  0  0  0  0
   12.5458  -18.9264   17.4586 C   0  0  2  0  0  0  0  0  0  0  0  0
   11.2769  -19.5239   17.1590 N   0  0  0  0  0  0  0  0  0  0  0  0
   12.3775  -18.0199   18.6538 C   0  0  0  0  0  0  0  0  0  0  0  0
   13.3565  -17.3995   19.1362 O   0  0  0  0  0  0  0  0  0  0  0  0
    7.0461  -11.9582   19.4751 N   0  0  0  0  0  0  0  0  0  0  0  0
    7.4008  -12.8282   20.6021 C   0  0  0  0  0  0  0  0  0  0  0  0
    7.7686  -12.3173   21.6951 N   0  0  0  0  0  0  0  0  0  0  0  0
    7.3229  -14.2238   20.4538 N   0  0  0  0  0  0  0  0  0  0  0  0
    7.7117  -15.2080   21.3910 C   0  0  0  0  0  0  0  0  0  0  0  0
    9.1536  -15.5985   21.4673 C   0  0  0  0  0  0  0  0  0  0  0  0
    9.4951  -16.4992   20.2996 C   0  0  0  0  0  0  0  0  0  0  0  0
   10.9101  -16.9504   20.3454 C   0  0  2  0  0  0  0  0  0  0  0  0
   11.1140  -17.8626   19.2395 N   0  0  0  0  0  0  0  0  0  0  0  0
   11.1586  -17.7687   21.6023 C   0  0  0  0  0  0  0  0  0  0  0  0
   10.6437  -18.9111   21.7069 O   0  0  0  0  0  0  0  0  0  0  0  0
    8.0294  -12.7541   22.5416 O   0  0  0  0  0  0  0  0  0  0  0  0
   13.9497  -16.4025   24.3808 C   0  0  0  0  0  0  0  0  0  0  0  0
   13.6719  -17.7492   24.2785 C   0  0  1  0  0  0  0  0  0  0  0  0
   12.2385  -17.9620   23.8457 N   0  0  0  0  0  0  0  0  0  0  0  0
   11.9645  -17.2186   22.6194 C   0  0  0  0  0  0  0  0  0  0  0  0
   11.2757  -17.5744   24.8937 O   0  0  0  0  0  0  0  0  0  0  0  0
   11.2679  -18.2525   26.0928 O   0  0  0  0  0  0  0  0  0  0  0  0
  2  1  1  0
  3  2  2  0
  4  2  1  0
  5  4  1  0
  5  6  1  6
  7  5  1  0
  7  8  2  0
  9 10  1  0
 10 12  1  0
 11 10  2  0
 12 13  1  0
 13 14  1  0
 16 15  1  1
 15 14  1  0
 16 17  1  0
 17  7  1  0
 18 16  1  0
 19 18  2  0
 20 21  1  0
 22 21  1  6
 22 24  1  0
 22 23  1  0
 23 18  1  0
 24 25  1  0
 26 24  2  0
M  END
$$$$
