NRS.pdb
     RDKit          3D

 26 25  0  0  1  0  0  0  0  0999 V2000
   13.3731  -18.5143   15.1598 N   0  0  0  0  0  0  0  0  0  0  0  0
   12.9508  -19.0189   16.4136 C   0  0  0  0  0  0  0  0  0  0  0  0
   13.0370  -20.2779   16.5458 O   0  0  0  0  0  0  0  0  0  0  0  0
   12.4380  -18.2359   17.5362 C   0  0  0  0  0  0  0  0  0  0  0  0
   12.8948  -18.8013   18.8339 C   0  0  2  0  0  0  0  0  0  0  0  0
   12.1993  -19.9893   19.2362 N   0  0  0  0  0  0  0  0  0  0  0  0
   12.6712  -17.7378   19.8815 C   0  0  0  0  0  0  0  0  0  0  0  0
   13.3945  -16.7127   19.9251 O   0  0  0  0  0  0  0  0  0  0  0  0
    6.2267  -13.6208   21.4650 N   0  0  0  0  0  0  0  0  0  0  0  0
    7.5344  -13.2806   20.8930 C   0  0  0  0  0  0  0  0  0  0  0  0
    7.8700  -12.0705   20.7756 N   0  0  0  0  0  0  0  0  0  0  0  0
    8.4029  -14.3079   20.4852 N   0  0  0  0  0  0  0  0  0  0  0  0
    8.1118  -15.6877   20.3881 C   0  0  0  0  0  0  0  0  0  0  0  0
    9.0997  -16.6709   20.9310 C   0  0  0  0  0  0  0  0  0  0  0  0
   10.3760  -15.9490   21.3067 C   0  0  0  0  0  0  0  0  0  0  0  0
   11.4034  -16.8829   21.8361 C   0  0  2  0  0  0  0  0  0  0  0  0
   11.6436  -17.8887   20.8226 N   0  0  0  0  0  0  0  0  0  0  0  0
   10.8572  -17.6358   23.0386 C   0  0  0  0  0  0  0  0  0  0  0  0
    9.8954  -18.4309   22.8843 O   0  0  0  0  0  0  0  0  0  0  0  0
    8.6905  -11.6758   20.3928 O   0  0  0  0  0  0  0  0  0  0  0  0
   13.0258  -19.5896   26.7041 C   0  0  0  0  0  0  0  0  0  0  0  0
   12.8426  -19.0615   25.4436 C   0  0  1  0  0  0  0  0  0  0  0  0
   11.4582  -18.4663   25.3158 N   0  0  0  0  0  0  0  0  0  0  0  0
   11.4497  -17.4186   24.2990 C   0  0  0  0  0  0  0  0  0  0  0  0
   10.9620  -17.9275   26.5961 O   0  0  0  0  0  0  0  0  0  0  0  0
   10.8427  -18.7640   27.6840 O   0  0  0  0  0  0  0  0  0  0  0  0
  2  1  1  0
  3  2  2  0
  4  2  1  0
  5  4  1  0
  5  6  1  1
  7  5  1  0
  7  8  2  0
  9 10  1  0
 10 12  1  0
 11 10  2  0
 12 13  1  0
 13 14  1  0
 16 15  1  6
 15 14  1  0
 16 17  1  0
 17  7  1  0
 18 16  1  0
 19 18  2  0
 20 21  1  0
 22 21  1  6
 22 24  1  0
 22 23  1  0
 23 18  1  0
 24 25  1  0
 26 24  2  0
M  END
$$$$
