NRS.pdb
     RDKit          3D

 26 25  0  0  1  0  0  0  0  0999 V2000
   12.7970  -18.2934   18.3575 N   0  0  0  0  0  0  0  0  0  0  0  0
   12.0501  -18.3583   19.5588 C   0  0  0  0  0  0  0  0  0  0  0  0
   11.3546  -19.4091   19.7063 O   0  0  0  0  0  0  0  0  0  0  0  0
   12.0124  -17.3466   20.6131 C   0  0  0  0  0  0  0  0  0  0  0  0
   11.1468  -17.7834   21.7410 C   0  0  2  0  0  0  0  0  0  0  0  0
    9.8906  -18.3447   21.3361 N   0  0  0  0  0  0  0  0  0  0  0  0
   10.8751  -16.5630   22.5867 C   0  0  0  0  0  0  0  0  0  0  0  0
   11.7869  -16.0349   23.2693 O   0  0  0  0  0  0  0  0  0  0  0  0
    8.7806  -15.3456   18.1286 N   0  0  0  0  0  0  0  0  0  0  0  0
    7.8276  -14.2376   17.9980 C   0  0  0  0  0  0  0  0  0  0  0  0
    7.7641  -13.5913   16.9167 N   0  0  0  0  0  0  0  0  0  0  0  0
    6.9908  -13.9099   19.0789 N   0  0  0  0  0  0  0  0  0  0  0  0
    7.3841  -13.5313   20.3827 C   0  0  0  0  0  0  0  0  0  0  0  0
    8.3058  -14.4295   21.1451 C   0  0  0  0  0  0  0  0  0  0  0  0
    8.3835  -13.9684   22.5848 C   0  0  0  0  0  0  0  0  0  0  0  0
    9.3103  -14.8101   23.3851 C   0  0  2  0  0  0  0  0  0  0  0  0
    9.5899  -16.0048   22.6162 N   0  0  0  0  0  0  0  0  0  0  0  0
    8.6203  -15.2905   24.6517 C   0  0  0  0  0  0  0  0  0  0  0  0
    8.0808  -14.4512   25.4169 O   0  0  0  0  0  0  0  0  0  0  0  0
    7.2364  -12.7879   16.6900 O   0  0  0  0  0  0  0  0  0  0  0  0
    7.3716  -19.1855   25.2039 C   0  0  0  0  0  0  0  0  0  0  0  0
    6.9801  -18.1367   26.0090 C   0  0  1  0  0  0  0  0  0  0  0  0
    8.1269  -17.1730   26.2167 N   0  0  0  0  0  0  0  0  0  0  0  0
    8.6058  -16.6718   24.9318 C   0  0  0  0  0  0  0  0  0  0  0  0
    9.2416  -17.7846   26.9642 O   0  0  0  0  0  0  0  0  0  0  0  0
    9.0198  -18.2775   28.2313 O   0  0  0  0  0  0  0  0  0  0  0  0
  2  1  1  0
  3  2  2  0
  4  2  1  0
  5  4  1  0
  5  6  1  6
  7  5  1  0
  7  8  2  0
  9 10  1  0
 10 12  1  0
 11 10  2  0
 12 13  1  0
 13 14  1  0
 16 15  1  6
 15 14  1  0
 16 17  1  0
 17  7  1  0
 18 16  1  0
 19 18  2  0
 20 21  1  0
 22 21  1  1
 22 24  1  0
 22 23  1  0
 23 18  1  0
 24 25  1  0
 26 24  2  0
M  END
$$$$
