NMQ.pdb
     RDKit          3D

 26 25  0  0  1  0  0  0  0  0999 V2000
   18.5610  -13.2521  -17.5709 N   0  0  0  0  0  0  0  0  0  0  0  0
   18.6554  -13.3804  -16.1586 C   0  0  0  0  0  0  0  0  0  0  0  0
   17.8464  -14.1678  -15.5795 O   0  0  0  0  0  0  0  0  0  0  0  0
   19.6917  -12.5956  -15.3969 C   0  0  0  0  0  0  0  0  0  0  0  0
   20.4107  -11.7282  -16.3741 C   0  0  2  0  0  0  0  0  0  0  0  0
   21.1998  -12.4774  -17.3146 N   0  0  0  0  0  0  0  0  0  0  0  0
   21.1984  -10.6545  -15.7553 C   0  0  0  0  0  0  0  0  0  0  0  0
   20.6895  -10.0014  -14.8211 O   0  0  0  0  0  0  0  0  0  0  0  0
   27.5252  -10.4137  -17.1025 C   0  0  0  0  0  0  0  0  0  0  0  0
   27.1635  -10.5535  -15.3279 S   0  0  0  0  0  0  0  0  0  0  0  0
   25.3492  -10.5179  -15.0447 C   0  0  0  0  0  0  0  0  0  0  0  0
   24.7554   -9.3303  -15.7238 C   0  0  0  0  0  0  0  0  0  0  0  0
   23.2839   -9.2110  -15.6992 C   0  0  2  0  0  0  0  0  0  0  0  0
   22.5227  -10.3179  -16.1679 N   0  0  0  0  0  0  0  0  0  0  0  0
   22.7668   -7.8777  -16.1869 C   0  0  0  0  0  0  0  0  0  0  0  0
   22.7585   -7.6596  -17.4287 O   0  0  0  0  0  0  0  0  0  0  0  0
   17.5059   -5.0664  -15.7680 N   0  0  0  0  0  0  0  0  0  0  0  0
   18.3762   -3.9938  -16.0755 C   0  0  0  0  0  0  0  0  0  0  0  0
   17.8365   -2.8602  -16.2998 O   0  0  0  0  0  0  0  0  0  0  0  0
   19.8310   -4.1220  -16.1394 C   0  0  0  0  0  0  0  0  0  0  0  0
   20.4061   -5.4385  -15.7510 C   0  0  0  0  0  0  0  0  0  0  0  0
   21.8761   -5.5403  -15.7483 C   0  0  2  0  0  0  0  0  0  0  0  0
   22.3064   -6.8827  -15.3309 N   0  0  0  0  0  0  0  0  0  0  0  0
   22.6902   -4.5301  -15.1032 C   0  0  0  0  0  0  0  0  0  0  0  0
   23.0917   -3.3697  -15.8081 O   0  0  0  0  0  0  0  0  0  0  0  0
   23.1199   -4.5483  -13.9089 O   0  0  0  0  0  0  0  0  0  0  0  0
  2  1  1  0
  3  2  2  0
  4  2  1  0
  5  4  1  0
  5  7  1  0
  5  6  1  1
  7  8  2  0
  7 14  1  0
 10  9  1  0
 11 12  1  0
 11 10  1  0
 13 12  1  6
 14 13  1  0
 15 13  1  0
 15 23  1  0
 16 15  2  0
 17 18  1  0
 18 20  1  0
 19 18  2  0
 20 21  1  0
 22 21  1  1
 22 23  1  0
 22 24  1  0
 24 25  1  0
 26 24  2  0
M  END
$$$$
