NMQ.pdb
     RDKit          3D

 26 25  0  0  1  0  0  0  0  0999 V2000
   28.5000  -18.3874  -16.2876 N   0  0  0  0  0  0  0  0  0  0  0  0
   28.3339  -19.7938  -16.4076 C   0  0  0  0  0  0  0  0  0  0  0  0
   29.1680  -20.4305  -17.1209 O   0  0  0  0  0  0  0  0  0  0  0  0
   27.1957  -20.4826  -15.7004 C   0  0  0  0  0  0  0  0  0  0  0  0
   27.5152  -20.5040  -14.2437 C   0  0  2  0  0  0  0  0  0  0  0  0
   28.7414  -21.1952  -13.9484 N   0  0  0  0  0  0  0  0  0  0  0  0
   26.4164  -20.9852  -13.3968 C   0  0  0  0  0  0  0  0  0  0  0  0
   25.3849  -21.4233  -13.9467 O   0  0  0  0  0  0  0  0  0  0  0  0
   27.8279  -19.0033   -6.6908 C   0  0  0  0  0  0  0  0  0  0  0  0
   26.6258  -20.2164   -7.3095 S   0  0  0  0  0  0  0  0  0  0  0  0
   26.6874  -20.2932   -9.1435 C   0  0  0  0  0  0  0  0  0  0  0  0
   25.6336  -21.2212   -9.6457 C   0  0  0  0  0  0  0  0  0  0  0  0
   25.3669  -21.2089  -11.0978 C   0  0  2  0  0  0  0  0  0  0  0  0
   26.4670  -20.9790  -11.9704 N   0  0  0  0  0  0  0  0  0  0  0  0
   24.1221  -20.4467  -11.4881 C   0  0  0  0  0  0  0  0  0  0  0  0
   24.2224  -19.2068  -11.6941 O   0  0  0  0  0  0  0  0  0  0  0  0
   23.5788  -19.1586  -15.7031 N   0  0  0  0  0  0  0  0  0  0  0  0
   22.4169  -19.9646  -15.7556 C   0  0  0  0  0  0  0  0  0  0  0  0
   22.1545  -20.5251  -16.8708 O   0  0  0  0  0  0  0  0  0  0  0  0
   21.5292  -20.1839  -14.6151 C   0  0  0  0  0  0  0  0  0  0  0  0
   21.9437  -19.5847  -13.3175 C   0  0  0  0  0  0  0  0  0  0  0  0
   21.6601  -20.3748  -12.1065 C   0  0  2  0  0  0  0  0  0  0  0  0
   22.8753  -21.0477  -11.6248 N   0  0  0  0  0  0  0  0  0  0  0  0
   20.5321  -21.2828  -12.0583 C   0  0  0  0  0  0  0  0  0  0  0  0
   19.2158  -20.8095  -12.2778 O   0  0  0  0  0  0  0  0  0  0  0  0
   20.5697  -22.5310  -11.8307 O   0  0  0  0  0  0  0  0  0  0  0  0
  2  1  1  0
  3  2  2  0
  4  2  1  0
  5  4  1  0
  5  7  1  0
  5  6  1  6
  7  8  2  0
  7 14  1  0
 10  9  1  0
 11 12  1  0
 11 10  1  0
 13 12  1  1
 14 13  1  0
 15 13  1  0
 15 23  1  0
 16 15  2  0
 17 18  1  0
 18 20  1  0
 19 18  2  0
 20 21  1  0
 22 21  1  6
 22 23  1  0
 22 24  1  0
 24 25  1  0
 26 24  2  0
M  END
$$$$
