NMQ.pdb
     RDKit          3D

 26 25  0  0  1  0  0  0  0  0999 V2000
   19.6306  -13.8370  -18.9350 N   0  0  0  0  0  0  0  0  0  0  0  0
   18.8701  -12.7355  -18.4574 C   0  0  0  0  0  0  0  0  0  0  0  0
   17.7125  -12.5581  -18.9458 O   0  0  0  0  0  0  0  0  0  0  0  0
   19.4428  -11.8225  -17.4046 C   0  0  0  0  0  0  0  0  0  0  0  0
   20.8590  -12.2298  -17.1746 C   0  0  2  0  0  0  0  0  0  0  0  0
   20.9865  -13.5948  -16.7397 N   0  0  0  0  0  0  0  0  0  0  0  0
   21.6089  -11.3205  -16.2989 C   0  0  0  0  0  0  0  0  0  0  0  0
   21.1665  -11.0921  -15.1541 O   0  0  0  0  0  0  0  0  0  0  0  0
   28.0571  -12.8384  -15.2414 C   0  0  0  0  0  0  0  0  0  0  0  0
   27.3793  -11.2245  -15.7267 S   0  0  0  0  0  0  0  0  0  0  0  0
   25.5528  -11.2188  -15.5341 C   0  0  0  0  0  0  0  0  0  0  0  0
   25.0151   -9.8663  -15.8589 C   0  0  0  0  0  0  0  0  0  0  0  0
   23.5466   -9.7268  -15.9219 C   0  0  2  0  0  0  0  0  0  0  0  0
   22.8238  -10.6816  -16.6902 N   0  0  0  0  0  0  0  0  0  0  0  0
   23.0719   -8.3073  -16.1284 C   0  0  0  0  0  0  0  0  0  0  0  0
   22.9358   -7.8904  -17.3105 O   0  0  0  0  0  0  0  0  0  0  0  0
   18.8302   -5.9031  -17.9943 N   0  0  0  0  0  0  0  0  0  0  0  0
   18.7256   -6.5178  -16.7240 C   0  0  0  0  0  0  0  0  0  0  0  0
   17.5801   -6.9732  -16.3969 O   0  0  0  0  0  0  0  0  0  0  0  0
   19.8458   -6.6570  -15.7951 C   0  0  0  0  0  0  0  0  0  0  0  0
   21.1457   -6.0694  -16.2191 C   0  0  0  0  0  0  0  0  0  0  0  0
   22.2326   -6.0876  -15.2243 C   0  0  2  0  0  0  0  0  0  0  0  0
   22.7846   -7.4423  -15.0778 N   0  0  0  0  0  0  0  0  0  0  0  0
   22.0602   -5.4734  -13.9234 C   0  0  0  0  0  0  0  0  0  0  0  0
   21.6555   -4.1211  -13.8126 O   0  0  0  0  0  0  0  0  0  0  0  0
   22.2352   -6.0241  -12.7932 O   0  0  0  0  0  0  0  0  0  0  0  0
  2  1  1  0
  3  2  2  0
  4  2  1  0
  5  4  1  0
  5  7  1  0
  5  6  1  1
  7  8  2  0
  7 14  1  0
 10  9  1  0
 11 12  1  0
 11 10  1  0
 13 12  1  6
 14 13  1  0
 15 13  1  0
 15 23  1  0
 16 15  2  0
 17 18  1  0
 18 20  1  0
 19 18  2  0
 20 21  1  0
 22 21  1  1
 22 23  1  0
 22 24  1  0
 24 25  1  0
 26 24  2  0
M  END
$$$$
