NMQ.pdb
     RDKit          3D

 26 25  0  0  1  0  0  0  0  0999 V2000
   20.7289  -10.5998  -19.8501 N   0  0  0  0  0  0  0  0  0  0  0  0
   19.9940  -11.2204  -18.8038 C   0  0  0  0  0  0  0  0  0  0  0  0
   19.4456  -12.3385  -19.0469 O   0  0  0  0  0  0  0  0  0  0  0  0
   19.8848  -10.5514  -17.4583 C   0  0  0  0  0  0  0  0  0  0  0  0
   20.6179   -9.2550  -17.5370 C   0  0  2  0  0  0  0  0  0  0  0  0
   22.0337   -9.4218  -17.7269 N   0  0  0  0  0  0  0  0  0  0  0  0
   20.3349   -8.3387  -16.4250 C   0  0  0  0  0  0  0  0  0  0  0  0
   19.1768   -7.8900  -16.2995 O   0  0  0  0  0  0  0  0  0  0  0  0
   21.9929  -10.7307  -10.3510 C   0  0  0  0  0  0  0  0  0  0  0  0
   22.2424   -9.0306  -10.9398 S   0  0  0  0  0  0  0  0  0  0  0  0
   21.4521   -8.8047  -12.5822 C   0  0  0  0  0  0  0  0  0  0  0  0
   21.7035   -7.4207  -13.0775 C   0  0  0  0  0  0  0  0  0  0  0  0
   21.1042   -7.0550  -14.3764 C   0  0  2  0  0  0  0  0  0  0  0  0
   21.3199   -7.9331  -15.4749 N   0  0  0  0  0  0  0  0  0  0  0  0
   21.2582   -5.5955  -14.7357 C   0  0  0  0  0  0  0  0  0  0  0  0
   22.3167   -5.2333  -15.3173 O   0  0  0  0  0  0  0  0  0  0  0  0
   21.6896   -3.2627  -19.1315 N   0  0  0  0  0  0  0  0  0  0  0  0
   20.7334   -2.3020  -18.7249 C   0  0  0  0  0  0  0  0  0  0  0  0
   20.5739   -1.2904  -19.4851 O   0  0  0  0  0  0  0  0  0  0  0  0
   19.9347   -2.4175  -17.5061 C   0  0  0  0  0  0  0  0  0  0  0  0
   20.2044   -3.5947  -16.6364 C   0  0  0  0  0  0  0  0  0  0  0  0
   20.1093   -3.3753  -15.1824 C   0  0  2  0  0  0  0  0  0  0  0  0
   20.2915   -4.6371  -14.4503 N   0  0  0  0  0  0  0  0  0  0  0  0
   19.0104   -2.6208  -14.6147 C   0  0  0  0  0  0  0  0  0  0  0  0
   17.9890   -3.2742  -13.8835 O   0  0  0  0  0  0  0  0  0  0  0  0
   18.8297   -1.3666  -14.6903 O   0  0  0  0  0  0  0  0  0  0  0  0
  2  1  1  0
  3  2  2  0
  4  2  1  0
  5  4  1  0
  5  7  1  0
  5  6  1  1
  7  8  2  0
  7 14  1  0
 10  9  1  0
 11 12  1  0
 11 10  1  0
 13 12  1  1
 14 13  1  0
 15 13  1  0
 15 23  1  0
 16 15  2  0
 17 18  1  0
 18 20  1  0
 19 18  2  0
 20 21  1  0
 22 21  1  6
 22 23  1  0
 22 24  1  0
 24 25  1  0
 26 24  2  0
M  END
$$$$
