NMQ.pdb
     RDKit          3D

 26 25  0  0  1  0  0  0  0  0999 V2000
   28.1821  -15.7011  -20.7071 N   0  0  0  0  0  0  0  0  0  0  0  0
   28.6632  -16.0723  -19.4223 C   0  0  0  0  0  0  0  0  0  0  0  0
   28.4408  -17.2567  -19.0254 O   0  0  0  0  0  0  0  0  0  0  0  0
   29.4105  -15.0727  -18.5783 C   0  0  0  0  0  0  0  0  0  0  0  0
   29.5375  -13.8161  -19.3717 C   0  0  2  0  0  0  0  0  0  0  0  0
   30.6148  -13.8601  -20.3235 N   0  0  0  0  0  0  0  0  0  0  0  0
   29.5981  -12.5966  -18.5560 C   0  0  0  0  0  0  0  0  0  0  0  0
   28.7782  -12.4583  -17.6249 O   0  0  0  0  0  0  0  0  0  0  0  0
   34.0545   -8.6026  -15.4260 C   0  0  0  0  0  0  0  0  0  0  0  0
   34.3836  -10.0387  -16.4884 S   0  0  0  0  0  0  0  0  0  0  0  0
   32.8057  -10.8379  -16.9829 C   0  0  0  0  0  0  0  0  0  0  0  0
   31.9053   -9.8302  -17.6136 C   0  0  0  0  0  0  0  0  0  0  0  0
   30.5920  -10.3097  -18.0885 C   0  0  2  0  0  0  0  0  0  0  0  0
   30.5511  -11.5564  -18.7729 N   0  0  0  0  0  0  0  0  0  0  0  0
   29.7452   -9.2404  -18.7385 C   0  0  0  0  0  0  0  0  0  0  0  0
   29.8847   -9.0396  -19.9754 O   0  0  0  0  0  0  0  0  0  0  0  0
   24.2526   -7.0217  -16.3684 N   0  0  0  0  0  0  0  0  0  0  0  0
   24.6518   -8.2431  -16.9612 C   0  0  0  0  0  0  0  0  0  0  0  0
   23.8599   -9.2339  -16.8281 O   0  0  0  0  0  0  0  0  0  0  0  0
   25.8974   -8.4142  -17.7070 C   0  0  0  0  0  0  0  0  0  0  0  0
   26.7620   -7.2118  -17.8536 C   0  0  0  0  0  0  0  0  0  0  0  0
   28.0124   -7.3882  -18.6129 C   0  0  2  0  0  0  0  0  0  0  0  0
   28.8266   -8.4678  -18.0358 N   0  0  0  0  0  0  0  0  0  0  0  0
   28.8485   -6.2519  -18.9430 C   0  0  0  0  0  0  0  0  0  0  0  0
   28.4372   -5.3140  -19.9207 O   0  0  0  0  0  0  0  0  0  0  0  0
   29.9771   -5.9657  -18.4373 O   0  0  0  0  0  0  0  0  0  0  0  0
  2  1  1  0
  3  2  2  0
  4  2  1  0
  5  4  1  0
  5  7  1  0
  5  6  1  1
  7  8  2  0
  7 14  1  0
 10  9  1  0
 11 12  1  0
 11 10  1  0
 13 12  1  6
 14 13  1  0
 15 13  1  0
 15 23  1  0
 16 15  2  0
 17 18  1  0
 18 20  1  0
 19 18  2  0
 20 21  1  0
 22 21  1  1
 22 23  1  0
 22 24  1  0
 24 25  1  0
 26 24  2  0
M  END
$$$$
