NMQ.pdb
     RDKit          3D

 26 25  0  0  1  0  0  0  0  0999 V2000
   28.9374  -19.6351  -16.8456 N   0  0  0  0  0  0  0  0  0  0  0  0
   27.6568  -19.0456  -16.6653 C   0  0  0  0  0  0  0  0  0  0  0  0
   27.3906  -17.9935  -17.3228 O   0  0  0  0  0  0  0  0  0  0  0  0
   26.6651  -19.6694  -15.7180 C   0  0  0  0  0  0  0  0  0  0  0  0
   27.3247  -20.8475  -15.0842 C   0  0  2  0  0  0  0  0  0  0  0  0
   27.6248  -21.8948  -16.0231 N   0  0  0  0  0  0  0  0  0  0  0  0
   26.6139  -21.3724  -13.9114 C   0  0  0  0  0  0  0  0  0  0  0  0
   25.7624  -22.2695  -14.0799 O   0  0  0  0  0  0  0  0  0  0  0  0
   28.0311  -20.3624   -7.5781 C   0  0  0  0  0  0  0  0  0  0  0  0
   26.2232  -20.2266   -7.4666 S   0  0  0  0  0  0  0  0  0  0  0  0
   25.4464  -20.7835   -9.0349 C   0  0  0  0  0  0  0  0  0  0  0  0
   26.3762  -20.5365  -10.1744 C   0  0  0  0  0  0  0  0  0  0  0  0
   25.9004  -20.9122  -11.5207 C   0  0  2  0  0  0  0  0  0  0  0  0
   26.8480  -20.9086  -12.5819 N   0  0  0  0  0  0  0  0  0  0  0  0
   24.5740  -20.2951  -11.8986 C   0  0  0  0  0  0  0  0  0  0  0  0
   24.5697  -19.1121  -12.3349 O   0  0  0  0  0  0  0  0  0  0  0  0
   22.7935  -20.1227  -16.8279 N   0  0  0  0  0  0  0  0  0  0  0  0
   21.5134  -19.9648  -16.2456 C   0  0  0  0  0  0  0  0  0  0  0  0
   20.5542  -19.6729  -17.0338 O   0  0  0  0  0  0  0  0  0  0  0  0
   21.2464  -20.1240  -14.8173 C   0  0  0  0  0  0  0  0  0  0  0  0
   22.4141  -20.4287  -13.9465 C   0  0  0  0  0  0  0  0  0  0  0  0
   22.1330  -20.6299  -12.5140 C   0  0  2  0  0  0  0  0  0  0  0  0
   23.3626  -20.9685  -11.7826 N   0  0  0  0  0  0  0  0  0  0  0  0
   21.0429  -21.4812  -12.0826 C   0  0  0  0  0  0  0  0  0  0  0  0
   21.2259  -22.8797  -11.9586 O   0  0  0  0  0  0  0  0  0  0  0  0
   19.8658  -21.1149  -11.7801 O   0  0  0  0  0  0  0  0  0  0  0  0
  2  1  1  0
  3  2  2  0
  4  2  1  0
  5  4  1  0
  5  7  1  0
  5  6  1  6
  7  8  2  0
  7 14  1  0
 10  9  1  0
 11 12  1  0
 11 10  1  0
 13 12  1  1
 14 13  1  0
 15 13  1  0
 15 23  1  0
 16 15  2  0
 17 18  1  0
 18 20  1  0
 19 18  2  0
 20 21  1  0
 22 21  1  6
 22 23  1  0
 22 24  1  0
 24 25  1  0
 26 24  2  0
M  END
$$$$
