NMQ.pdb
     RDKit          3D

 26 25  0  0  1  0  0  0  0  0999 V2000
   14.6021  -13.7603  -15.7627 N   0  0  0  0  0  0  0  0  0  0  0  0
   15.7753  -13.1572  -16.2916 C   0  0  0  0  0  0  0  0  0  0  0  0
   15.9137  -13.1355  -17.5527 O   0  0  0  0  0  0  0  0  0  0  0  0
   16.8063  -12.5696  -15.3634 C   0  0  0  0  0  0  0  0  0  0  0  0
   18.0128  -12.2422  -16.1767 C   0  0  2  0  0  0  0  0  0  0  0  0
   18.6276  -13.4038  -16.7609 N   0  0  0  0  0  0  0  0  0  0  0  0
   19.0013  -11.4137  -15.4749 C   0  0  0  0  0  0  0  0  0  0  0  0
   18.8420  -11.1959  -14.2560 O   0  0  0  0  0  0  0  0  0  0  0  0
   26.6634   -9.5802  -14.8672 C   0  0  0  0  0  0  0  0  0  0  0  0
   25.3084  -10.3172  -15.8265 S   0  0  0  0  0  0  0  0  0  0  0  0
   23.6870   -9.8117  -15.1276 C   0  0  0  0  0  0  0  0  0  0  0  0
   22.5839  -10.4792  -15.8769 C   0  0  0  0  0  0  0  0  0  0  0  0
   21.2032  -10.1536  -15.4675 C   0  0  2  0  0  0  0  0  0  0  0  0
   20.1410  -10.8424  -16.1167 N   0  0  0  0  0  0  0  0  0  0  0  0
   20.9445   -8.6746  -15.2983 C   0  0  0  0  0  0  0  0  0  0  0  0
   20.5879   -8.0124  -16.3103 O   0  0  0  0  0  0  0  0  0  0  0  0
   18.0553   -6.3059  -10.3004 N   0  0  0  0  0  0  0  0  0  0  0  0
   18.3691   -5.1811  -11.0997 C   0  0  0  0  0  0  0  0  0  0  0  0
   17.8624   -4.0648  -10.7477 O   0  0  0  0  0  0  0  0  0  0  0  0
   19.2325   -5.2383  -12.2779 C   0  0  0  0  0  0  0  0  0  0  0  0
   19.6837   -6.5877  -12.7139 C   0  0  0  0  0  0  0  0  0  0  0  0
   20.6594   -6.6315  -13.8173 C   0  0  2  0  0  0  0  0  0  0  0  0
   21.0863   -8.0130  -14.0831 N   0  0  0  0  0  0  0  0  0  0  0  0
   21.8028   -5.7418  -13.8346 C   0  0  0  0  0  0  0  0  0  0  0  0
   22.9667   -6.0491  -13.0893 O   0  0  0  0  0  0  0  0  0  0  0  0
   21.9068   -4.6495  -14.4728 O   0  0  0  0  0  0  0  0  0  0  0  0
  2  1  1  0
  3  2  2  0
  4  2  1  0
  5  4  1  0
  5  7  1  0
  5  6  1  1
  7  8  2  0
  7 14  1  0
 10  9  1  0
 11 12  1  0
 11 10  1  0
 13 12  1  6
 14 13  1  0
 15 13  1  0
 15 23  1  0
 16 15  2  0
 17 18  1  0
 18 20  1  0
 19 18  2  0
 20 21  1  0
 22 21  1  1
 22 23  1  0
 22 24  1  0
 24 25  1  0
 26 24  2  0
M  END
$$$$
