NMQ.pdb
     RDKit          3D

 26 25  0  0  1  0  0  0  0  0999 V2000
   27.9931  -22.2383  -18.1124 N   0  0  0  0  0  0  0  0  0  0  0  0
   28.0337  -23.4994  -17.4584 C   0  0  0  0  0  0  0  0  0  0  0  0
   28.6352  -24.4514  -18.0432 O   0  0  0  0  0  0  0  0  0  0  0  0
   27.3760  -23.6743  -16.1143 C   0  0  0  0  0  0  0  0  0  0  0  0
   26.7942  -22.3586  -15.7209 C   0  0  2  0  0  0  0  0  0  0  0  0
   27.7853  -21.4197  -15.2683 N   0  0  0  0  0  0  0  0  0  0  0  0
   25.6809  -22.4569  -14.7684 C   0  0  0  0  0  0  0  0  0  0  0  0
   25.0281  -23.5198  -14.7189 O   0  0  0  0  0  0  0  0  0  0  0  0
   25.7155  -19.0704   -9.3656 C   0  0  0  0  0  0  0  0  0  0  0  0
   25.7643  -20.8716   -9.1360 S   0  0  0  0  0  0  0  0  0  0  0  0
   25.4869  -21.7240  -10.7390 C   0  0  0  0  0  0  0  0  0  0  0  0
   24.5425  -20.9297  -11.5764 C   0  0  0  0  0  0  0  0  0  0  0  0
   24.2559  -21.4414  -12.9314 C   0  0  2  0  0  0  0  0  0  0  0  0
   25.3051  -21.3954  -13.8913 N   0  0  0  0  0  0  0  0  0  0  0  0
   22.9184  -21.0060  -13.4832 C   0  0  0  0  0  0  0  0  0  0  0  0
   22.8133  -19.8339  -13.9356 O   0  0  0  0  0  0  0  0  0  0  0  0
   18.4142  -22.2978  -16.9216 N   0  0  0  0  0  0  0  0  0  0  0  0
   19.4854  -23.1961  -16.7032 C   0  0  0  0  0  0  0  0  0  0  0  0
   19.8933  -23.8623  -17.7114 O   0  0  0  0  0  0  0  0  0  0  0  0
   20.1344  -23.3853  -15.4071 C   0  0  0  0  0  0  0  0  0  0  0  0
   19.6219  -22.5673  -14.2745 C   0  0  0  0  0  0  0  0  0  0  0  0
   20.4418  -21.4106  -13.8732 C   0  0  2  0  0  0  0  0  0  0  0  0
   21.8017  -21.8348  -13.5095 N   0  0  0  0  0  0  0  0  0  0  0  0
   19.9454  -20.4439  -12.9149 C   0  0  0  0  0  0  0  0  0  0  0  0
   20.3975  -20.4612  -11.5733 O   0  0  0  0  0  0  0  0  0  0  0  0
   19.1023  -19.5205  -13.1334 O   0  0  0  0  0  0  0  0  0  0  0  0
  2  1  1  0
  3  2  2  0
  4  2  1  0
  5  4  1  0
  5  7  1  0
  5  6  1  1
  7  8  2  0
  7 14  1  0
 10  9  1  0
 11 12  1  0
 11 10  1  0
 13 12  1  1
 14 13  1  0
 15 13  1  0
 15 23  1  0
 16 15  2  0
 17 18  1  0
 18 20  1  0
 19 18  2  0
 20 21  1  0
 22 21  1  1
 22 23  1  0
 22 24  1  0
 24 25  1  0
 26 24  2  0
M  END
$$$$
