NMQ.pdb
     RDKit          3D

 26 25  0  0  1  0  0  0  0  0999 V2000
   18.0257  -12.2095  -18.8107 N   0  0  0  0  0  0  0  0  0  0  0  0
   17.2273  -11.5133  -17.8632 C   0  0  0  0  0  0  0  0  0  0  0  0
   16.0636  -11.1536  -18.2189 O   0  0  0  0  0  0  0  0  0  0  0  0
   17.7685  -11.2242  -16.4872 C   0  0  0  0  0  0  0  0  0  0  0  0
   19.1499  -11.7823  -16.4181 C   0  0  2  0  0  0  0  0  0  0  0  0
   19.1717  -13.1926  -16.1371 N   0  0  0  0  0  0  0  0  0  0  0  0
   20.0484  -11.0471  -15.5190 C   0  0  0  0  0  0  0  0  0  0  0  0
   19.7530  -10.9715  -14.3085 O   0  0  0  0  0  0  0  0  0  0  0  0
   26.5484   -9.1439  -15.4649 C   0  0  0  0  0  0  0  0  0  0  0  0
   25.9760  -10.8674  -15.4265 S   0  0  0  0  0  0  0  0  0  0  0  0
   24.1905  -10.9343  -15.0014 C   0  0  0  0  0  0  0  0  0  0  0  0
   23.5348   -9.6471  -15.3717 C   0  0  0  0  0  0  0  0  0  0  0  0
   22.0741   -9.5588  -15.1752 C   0  0  2  0  0  0  0  0  0  0  0  0
   21.2484  -10.4120  -15.9593 N   0  0  0  0  0  0  0  0  0  0  0  0
   21.5514   -8.1447  -15.0748 C   0  0  0  0  0  0  0  0  0  0  0  0
   21.1444   -7.5835  -16.1280 O   0  0  0  0  0  0  0  0  0  0  0  0
   17.9881   -6.0878  -10.3677 N   0  0  0  0  0  0  0  0  0  0  0  0
   18.2553   -4.9303  -11.1367 C   0  0  0  0  0  0  0  0  0  0  0  0
   17.6253   -3.8685  -10.8173 O   0  0  0  0  0  0  0  0  0  0  0  0
   19.2029   -4.8961  -12.2492 C   0  0  0  0  0  0  0  0  0  0  0  0
   19.9070   -6.1673  -12.5700 C   0  0  0  0  0  0  0  0  0  0  0  0
   20.8568   -6.1285  -13.6959 C   0  0  2  0  0  0  0  0  0  0  0  0
   21.5041   -7.4357  -13.8792 N   0  0  0  0  0  0  0  0  0  0  0  0
   21.8346   -5.0651  -13.8075 C   0  0  0  0  0  0  0  0  0  0  0  0
   21.4651   -3.7964  -14.3159 O   0  0  0  0  0  0  0  0  0  0  0  0
   23.0616   -5.1237  -13.4878 O   0  0  0  0  0  0  0  0  0  0  0  0
  2  1  1  0
  3  2  2  0
  4  2  1  0
  5  4  1  0
  5  7  1  0
  5  6  1  1
  7  8  2  0
  7 14  1  0
 10  9  1  0
 11 12  1  0
 11 10  1  0
 13 12  1  6
 14 13  1  0
 15 13  1  0
 15 23  1  0
 16 15  2  0
 17 18  1  0
 18 20  1  0
 19 18  2  0
 20 21  1  0
 22 21  1  1
 22 23  1  0
 22 24  1  0
 24 25  1  0
 26 24  2  0
M  END
$$$$
