NMQ.pdb
     RDKit          3D

 26 25  0  0  1  0  0  0  0  0999 V2000
   18.2910  -14.3963  -19.9702 N   0  0  0  0  0  0  0  0  0  0  0  0
   17.7422  -13.1686  -19.5104 C   0  0  0  0  0  0  0  0  0  0  0  0
   16.7334  -12.7036  -20.1235 O   0  0  0  0  0  0  0  0  0  0  0  0
   18.3572  -12.4617  -18.3305 C   0  0  0  0  0  0  0  0  0  0  0  0
   19.5359  -13.2614  -17.8883 C   0  0  2  0  0  0  0  0  0  0  0  0
   19.1678  -14.4769  -17.2133 N   0  0  0  0  0  0  0  0  0  0  0  0
   20.5194  -12.4979  -17.1099 C   0  0  0  0  0  0  0  0  0  0  0  0
   20.2742  -12.2544  -15.9103 O   0  0  0  0  0  0  0  0  0  0  0  0
   27.8632  -10.6453  -15.1561 C   0  0  0  0  0  0  0  0  0  0  0  0
   26.7318  -11.5443  -16.2567 S   0  0  0  0  0  0  0  0  0  0  0  0
   25.0665  -10.7705  -16.2252 C   0  0  0  0  0  0  0  0  0  0  0  0
   24.1048  -11.6105  -16.9956 C   0  0  0  0  0  0  0  0  0  0  0  0
   22.6895  -11.1897  -16.9842 C   0  0  2  0  0  0  0  0  0  0  0  0
   21.7478  -12.0182  -17.6559 N   0  0  0  0  0  0  0  0  0  0  0  0
   22.4840   -9.7155  -17.2435 C   0  0  0  0  0  0  0  0  0  0  0  0
   22.4250   -9.3234  -18.4404 O   0  0  0  0  0  0  0  0  0  0  0  0
   18.8077   -7.1056  -19.5072 N   0  0  0  0  0  0  0  0  0  0  0  0
   18.6804   -6.3030  -18.3487 C   0  0  0  0  0  0  0  0  0  0  0  0
   17.7972   -5.3834  -18.3793 O   0  0  0  0  0  0  0  0  0  0  0  0
   19.4911   -6.4805  -17.1454 C   0  0  0  0  0  0  0  0  0  0  0  0
   20.4161   -7.6462  -17.1257 C   0  0  0  0  0  0  0  0  0  0  0  0
   21.6528   -7.4927  -16.3394 C   0  0  2  0  0  0  0  0  0  0  0  0
   22.3626   -8.7752  -16.2258 N   0  0  0  0  0  0  0  0  0  0  0  0
   21.6411   -6.8116  -15.0606 C   0  0  0  0  0  0  0  0  0  0  0  0
   21.5731   -5.3988  -14.9969 O   0  0  0  0  0  0  0  0  0  0  0  0
   21.6863   -7.3498  -13.9119 O   0  0  0  0  0  0  0  0  0  0  0  0
  2  1  1  0
  3  2  2  0
  4  2  1  0
  5  4  1  0
  5  7  1  0
  5  6  1  1
  7  8  2  0
  7 14  1  0
 10  9  1  0
 11 12  1  0
 11 10  1  0
 13 12  1  6
 14 13  1  0
 15 13  1  0
 15 23  1  0
 16 15  2  0
 17 18  1  0
 18 20  1  0
 19 18  2  0
 20 21  1  0
 22 21  1  1
 22 23  1  0
 22 24  1  0
 24 25  1  0
 26 24  2  0
M  END
$$$$
