NMQ.pdb
     RDKit          3D

 26 25  0  0  1  0  0  0  0  0999 V2000
   18.3138  -13.7522  -20.3064 N   0  0  0  0  0  0  0  0  0  0  0  0
   17.7720  -12.4955  -19.9229 C   0  0  0  0  0  0  0  0  0  0  0  0
   16.8142  -12.0279  -20.6113 O   0  0  0  0  0  0  0  0  0  0  0  0
   18.3346  -11.7623  -18.7330 C   0  0  0  0  0  0  0  0  0  0  0  0
   19.3786  -12.6321  -18.1181 C   0  0  2  0  0  0  0  0  0  0  0  0
   18.8257  -13.7368  -17.3816 N   0  0  0  0  0  0  0  0  0  0  0  0
   20.3703  -11.9026  -17.3177 C   0  0  0  0  0  0  0  0  0  0  0  0
   20.0404  -11.4914  -16.1861 O   0  0  0  0  0  0  0  0  0  0  0  0
   27.7619  -10.6035  -14.9705 C   0  0  0  0  0  0  0  0  0  0  0  0
   26.5660  -11.5597  -15.9477 S   0  0  0  0  0  0  0  0  0  0  0  0
   25.0002  -10.6180  -16.1335 C   0  0  0  0  0  0  0  0  0  0  0  0
   24.0247  -11.4132  -16.9336 C   0  0  0  0  0  0  0  0  0  0  0  0
   22.6677  -10.8515  -17.0856 C   0  0  2  0  0  0  0  0  0  0  0  0
   21.6987  -11.6387  -17.7682 N   0  0  0  0  0  0  0  0  0  0  0  0
   22.6462   -9.3945  -17.4850 C   0  0  0  0  0  0  0  0  0  0  0  0
   22.9365   -9.0985  -18.6758 O   0  0  0  0  0  0  0  0  0  0  0  0
   19.3462   -5.1260  -19.6010 N   0  0  0  0  0  0  0  0  0  0  0  0
   18.7817   -5.9772  -18.6216 C   0  0  0  0  0  0  0  0  0  0  0  0
   17.5181   -5.9122  -18.4611 O   0  0  0  0  0  0  0  0  0  0  0  0
   19.5617   -6.9100  -17.8102 C   0  0  0  0  0  0  0  0  0  0  0  0
   21.0099   -7.0297  -18.1316 C   0  0  0  0  0  0  0  0  0  0  0  0
   21.9421   -7.0051  -16.9907 C   0  0  2  0  0  0  0  0  0  0  0  0
   22.3272   -8.3694  -16.6007 N   0  0  0  0  0  0  0  0  0  0  0  0
   21.6564   -6.2095  -15.8140 C   0  0  0  0  0  0  0  0  0  0  0  0
   21.6488   -4.7954  -15.8844 O   0  0  0  0  0  0  0  0  0  0  0  0
   21.3936   -6.6411  -14.6496 O   0  0  0  0  0  0  0  0  0  0  0  0
  2  1  1  0
  3  2  2  0
  4  2  1  0
  5  4  1  0
  5  7  1  0
  5  6  1  1
  7  8  2  0
  7 14  1  0
 10  9  1  0
 11 12  1  0
 11 10  1  0
 13 12  1  6
 14 13  1  0
 15 13  1  0
 15 23  1  0
 16 15  2  0
 17 18  1  0
 18 20  1  0
 19 18  2  0
 20 21  1  0
 22 21  1  6
 22 23  1  0
 22 24  1  0
 24 25  1  0
 26 24  2  0
M  END
$$$$
