QWF.pdb
     RDKit          3D

 35 37  0  0  1  0  0  0  0  0999 V2000
    7.5699  -13.0770   16.6382 N   0  0  0  0  0  0  0  0  0  0  0  0
    8.1483  -14.1612   15.9021 C   0  0  0  0  0  0  0  0  0  0  0  0
    8.3762  -13.9666   14.6774 O   0  0  0  0  0  0  0  0  0  0  0  0
    8.4392  -15.4196   16.6159 C   0  0  0  0  0  0  0  0  0  0  0  0
    8.0782  -15.4406   18.0471 C   0  0  0  0  0  0  0  0  0  0  0  0
    8.8209  -16.3283   18.9660 C   0  0  2  0  0  0  0  0  0  0  0  0
    8.4093  -17.7157   18.9158 N   0  0  0  0  0  0  0  0  0  0  0  0
    9.0107  -15.8388   20.3518 C   0  0  0  0  0  0  0  0  0  0  0  0
    9.6307  -14.7929   20.6555 O   0  0  0  0  0  0  0  0  0  0  0  0
    8.4580  -16.5844   21.4253 N   0  0  0  0  0  0  0  0  0  0  0  0
    8.5749  -16.1890   22.8067 C   0  0  1  0  0  0  0  0  0  0  0  0
    7.4166  -16.7488   23.5653 C   0  0  0  0  0  0  0  0  0  0  0  0
    6.8479  -15.8204   24.5864 C   0  0  0  0  0  0  0  0  0  0  0  0
    6.0772  -16.0941   25.6724 C   0  0  0  0  0  0  0  0  0  0  0  0
    5.7994  -14.9576   26.3303 N   0  0  0  0  0  0  0  0  0  0  0  0
    6.3895  -13.9096   25.6805 C   0  0  0  0  0  0  0  0  0  0  0  0
    6.3943  -12.5564   25.9448 C   0  0  0  0  0  0  0  0  0  0  0  0
    7.0887  -11.7140   25.0737 C   0  0  0  0  0  0  0  0  0  0  0  0
    7.7324  -12.2779   23.9959 C   0  0  0  0  0  0  0  0  0  0  0  0
    7.7266  -13.6465   23.7301 C   0  0  0  0  0  0  0  0  0  0  0  0
    7.0433  -14.4442   24.5941 C   0  0  0  0  0  0  0  0  0  0  0  0
    9.8768  -16.5802   23.4295 C   0  0  0  0  0  0  0  0  0  0  0  0
   10.4423  -17.6141   22.9962 O   0  0  0  0  0  0  0  0  0  0  0  0
   10.5048  -15.8523   24.4743 N   0  0  0  0  0  0  0  0  0  0  0  0
   11.7724  -16.2482   25.0946 C   0  0  1  0  0  0  0  0  0  0  0  0
   12.2829  -15.1762   25.9939 C   0  0  0  0  0  0  0  0  0  0  0  0
   11.3454  -14.8358   27.0641 C   0  0  0  0  0  0  0  0  0  0  0  0
   10.4291  -13.8150   26.9673 C   0  0  0  0  0  0  0  0  0  0  0  0
    9.5330  -13.4980   27.9512 C   0  0  0  0  0  0  0  0  0  0  0  0
    9.5360  -14.2514   29.1382 C   0  0  0  0  0  0  0  0  0  0  0  0
   10.4324  -15.2662   29.2574 C   0  0  0  0  0  0  0  0  0  0  0  0
   11.3249  -15.5543   28.2349 C   0  0  0  0  0  0  0  0  0  0  0  0
   11.6216  -17.5204   25.8289 C   0  0  0  0  0  0  0  0  0  0  0  0
   12.5447  -18.1474   26.3945 O   0  0  0  0  0  0  0  0  0  0  0  0
   10.3267  -18.0752   25.9048 O   0  0  0  0  0  0  0  0  0  0  0  0
  2  1  1  0
  3  2  2  0
  4  2  1  0
  5  4  1  0
  6  5  1  0
  6  7  1  1
  8  9  2  0
  8  6  1  0
 10  8  1  0
 11 10  1  0
 11 12  1  1
 12 13  1  0
 13 14  2  0
 13 21  1  0
 14 15  1  0
 15 16  1  0
 16 17  2  0
 18 17  1  0
 19 18  2  0
 20 19  1  0
 21 20  2  0
 21 16  1  0
 22 11  1  0
 23 22  2  0
 24 22  1  0
 25 26  1  1
 25 24  1  0
 26 27  1  0
 27 32  1  0
 28 27  2  0
 28 29  1  0
 29 30  2  0
 30 31  1  0
 32 31  2  0
 33 35  1  0
 33 25  1  0
 34 33  2  0
M  END
$$$$
