QWF.pdb
     RDKit          3D

 35 37  0  0  1  0  0  0  0  0999 V2000
   11.7867  -16.8953   16.7906 N   0  0  0  0  0  0  0  0  0  0  0  0
   12.0427  -18.2328   17.2352 C   0  0  0  0  0  0  0  0  0  0  0  0
   12.4392  -19.0595   16.3697 O   0  0  0  0  0  0  0  0  0  0  0  0
   11.8313  -18.5525   18.6602 C   0  0  0  0  0  0  0  0  0  0  0  0
   11.2717  -17.4626   19.4836 C   0  0  0  0  0  0  0  0  0  0  0  0
   11.0113  -17.7023   20.9184 C   0  0  2  0  0  0  0  0  0  0  0  0
   10.1308  -18.8206   21.1849 N   0  0  0  0  0  0  0  0  0  0  0  0
   10.6890  -16.5130   21.7416 C   0  0  0  0  0  0  0  0  0  0  0  0
   11.4471  -15.5260   21.8885 O   0  0  0  0  0  0  0  0  0  0  0  0
    9.4411  -16.4617   22.4152 N   0  0  0  0  0  0  0  0  0  0  0  0
    8.9658  -15.2935   23.1136 C   0  0  1  0  0  0  0  0  0  0  0  0
    7.5100  -15.1230   22.8274 C   0  0  0  0  0  0  0  0  0  0  0  0
    7.1846  -14.9770   21.3779 C   0  0  0  0  0  0  0  0  0  0  0  0
    6.5038  -15.8171   20.5540 C   0  0  0  0  0  0  0  0  0  0  0  0
    6.4295  -15.2854   19.3238 N   0  0  0  0  0  0  0  0  0  0  0  0
    7.0663  -14.0758   19.3207 C   0  0  0  0  0  0  0  0  0  0  0  0
    7.2750  -13.1555   18.3155 C   0  0  0  0  0  0  0  0  0  0  0  0
    7.9890  -11.9940   18.6188 C   0  0  0  0  0  0  0  0  0  0  0  0
    8.4477  -11.8278   19.9056 C   0  0  0  0  0  0  0  0  0  0  0  0
    8.2356  -12.7593   20.9210 C   0  0  0  0  0  0  0  0  0  0  0  0
    7.5374  -13.8811   20.5989 C   0  0  0  0  0  0  0  0  0  0  0  0
    9.2333  -15.3297   24.5844 C   0  0  0  0  0  0  0  0  0  0  0  0
    9.2562  -14.2353   25.1994 O   0  0  0  0  0  0  0  0  0  0  0  0
    9.4595  -16.5238   25.3184 N   0  0  0  0  0  0  0  0  0  0  0  0
    9.6338  -16.5645   26.7732 C   0  0  1  0  0  0  0  0  0  0  0  0
    8.3535  -16.2621   27.4716 C   0  0  0  0  0  0  0  0  0  0  0  0
    7.8908  -14.8927   27.2457 C   0  0  0  0  0  0  0  0  0  0  0  0
    6.6853  -14.5920   26.6562 C   0  0  0  0  0  0  0  0  0  0  0  0
    6.2304  -13.3172   26.4567 C   0  0  0  0  0  0  0  0  0  0  0  0
    7.0311  -12.2395   26.8738 C   0  0  0  0  0  0  0  0  0  0  0  0
    8.2271  -12.5115   27.4597 C   0  0  0  0  0  0  0  0  0  0  0  0
    8.6513  -13.8198   27.6428 C   0  0  0  0  0  0  0  0  0  0  0  0
   10.1673  -17.8734   27.2005 C   0  0  0  0  0  0  0  0  0  0  0  0
   10.3933  -18.8473   26.4483 O   0  0  0  0  0  0  0  0  0  0  0  0
   10.4519  -18.0406   28.5721 O   0  0  0  0  0  0  0  0  0  0  0  0
  2  1  1  0
  3  2  2  0
  4  2  1  0
  5  4  1  0
  6  5  1  0
  6  7  1  6
  8  9  2  0
  8  6  1  0
 10  8  1  0
 11 10  1  0
 11 12  1  1
 12 13  1  0
 13 14  2  0
 13 21  1  0
 14 15  1  0
 15 16  1  0
 16 17  2  0
 18 17  1  0
 19 18  2  0
 20 19  1  0
 21 20  2  0
 21 16  1  0
 22 11  1  0
 23 22  2  0
 24 22  1  0
 25 26  1  1
 25 24  1  0
 26 27  1  0
 27 32  1  0
 28 27  2  0
 28 29  1  0
 29 30  2  0
 30 31  1  0
 32 31  2  0
 33 35  1  0
 33 25  1  0
 34 33  2  0
M  END
$$$$
