QWF.pdb
     RDKit          3D

 35 37  0  0  1  0  0  0  0  0999 V2000
    8.8027  -18.3898   17.8427 N   0  0  0  0  0  0  0  0  0  0  0  0
    8.0370  -19.5970   17.7513 C   0  0  0  0  0  0  0  0  0  0  0  0
    8.3744  -20.4249   16.8622 O   0  0  0  0  0  0  0  0  0  0  0  0
    6.9183  -19.7930   18.6935 C   0  0  0  0  0  0  0  0  0  0  0  0
    6.7583  -18.7464   19.7221 C   0  0  0  0  0  0  0  0  0  0  0  0
    6.2156  -19.1131   21.0469 C   0  0  2  0  0  0  0  0  0  0  0  0
    5.0660  -19.9922   20.9967 N   0  0  0  0  0  0  0  0  0  0  0  0
    6.0493  -18.0110   22.0235 C   0  0  0  0  0  0  0  0  0  0  0  0
    5.2576  -17.0502   21.8802 O   0  0  0  0  0  0  0  0  0  0  0  0
    6.8241  -18.0242   23.2124 N   0  0  0  0  0  0  0  0  0  0  0  0
    7.2150  -16.8281   23.9159 C   0  0  1  0  0  0  0  0  0  0  0  0
    6.7699  -16.9406   25.3370 C   0  0  0  0  0  0  0  0  0  0  0  0
    6.7479  -15.6437   26.0756 C   0  0  0  0  0  0  0  0  0  0  0  0
    5.7509  -14.7261   26.1853 C   0  0  0  0  0  0  0  0  0  0  0  0
    6.1544  -13.7074   26.9606 N   0  0  0  0  0  0  0  0  0  0  0  0
    7.4352  -13.9427   27.3766 C   0  0  0  0  0  0  0  0  0  0  0  0
    8.2893  -13.2041   28.1677 C   0  0  0  0  0  0  0  0  0  0  0  0
    9.5693  -13.7078   28.4101 C   0  0  0  0  0  0  0  0  0  0  0  0
    9.9124  -14.9155   27.8464 C   0  0  0  0  0  0  0  0  0  0  0  0
    9.0474  -15.6612   27.0468 C   0  0  0  0  0  0  0  0  0  0  0  0
    7.8072  -15.1482   26.8270 C   0  0  0  0  0  0  0  0  0  0  0  0
    8.6783  -16.5345   23.8229 C   0  0  0  0  0  0  0  0  0  0  0  0
    9.4770  -17.4751   24.0547 O   0  0  0  0  0  0  0  0  0  0  0  0
    9.2103  -15.2614   23.4883 N   0  0  0  0  0  0  0  0  0  0  0  0
   10.5699  -15.0549   22.9810 C   0  0  1  0  0  0  0  0  0  0  0  0
   10.6333  -13.8554   22.1005 C   0  0  0  0  0  0  0  0  0  0  0  0
    9.6724  -13.9059   20.9985 C   0  0  0  0  0  0  0  0  0  0  0  0
    9.8403  -14.6987   19.8876 C   0  0  0  0  0  0  0  0  0  0  0  0
    8.9411  -14.7716   18.8591 C   0  0  0  0  0  0  0  0  0  0  0  0
    7.7704  -13.9962   18.9270 C   0  0  0  0  0  0  0  0  0  0  0  0
    7.5816  -13.2045   20.0156 C   0  0  0  0  0  0  0  0  0  0  0  0
    8.5196  -13.1596   21.0371 C   0  0  0  0  0  0  0  0  0  0  0  0
   11.5326  -14.9389   24.0947 C   0  0  0  0  0  0  0  0  0  0  0  0
   11.2415  -14.9478   25.3114 O   0  0  0  0  0  0  0  0  0  0  0  0
   12.8973  -14.8124   23.7609 O   0  0  0  0  0  0  0  0  0  0  0  0
  2  1  1  0
  3  2  2  0
  4  2  1  0
  5  4  1  0
  6  5  1  0
  6  7  1  6
  8  9  2  0
  8  6  1  0
 10  8  1  0
 11 10  1  0
 11 12  1  1
 12 13  1  0
 13 14  2  0
 13 21  1  0
 14 15  1  0
 15 16  1  0
 16 17  2  0
 18 17  1  0
 19 18  2  0
 20 19  1  0
 21 20  2  0
 21 16  1  0
 22 11  1  0
 23 22  2  0
 24 22  1  0
 25 26  1  1
 25 24  1  0
 26 27  1  0
 27 32  1  0
 28 27  2  0
 28 29  1  0
 29 30  2  0
 30 31  1  0
 32 31  2  0
 33 35  1  0
 33 25  1  0
 34 33  2  0
M  END
$$$$
