QWF.pdb
     RDKit          3D

 35 37  0  0  1  0  0  0  0  0999 V2000
   12.1378  -18.4816   15.3686 N   0  0  0  0  0  0  0  0  0  0  0  0
   10.9889  -19.3020   15.6112 C   0  0  0  0  0  0  0  0  0  0  0  0
   10.5593  -19.9885   14.6448 O   0  0  0  0  0  0  0  0  0  0  0  0
   10.3909  -19.2933   16.9603 C   0  0  0  0  0  0  0  0  0  0  0  0
   11.0183  -18.3756   17.9315 C   0  0  0  0  0  0  0  0  0  0  0  0
   10.6939  -18.5115   19.3668 C   0  0  2  0  0  0  0  0  0  0  0  0
    9.2863  -18.3684   19.6751 N   0  0  0  0  0  0  0  0  0  0  0  0
   11.5637  -17.7772   20.3157 C   0  0  0  0  0  0  0  0  0  0  0  0
   12.8150  -17.8446   20.3279 O   0  0  0  0  0  0  0  0  0  0  0  0
   10.9634  -16.9296   21.2826 N   0  0  0  0  0  0  0  0  0  0  0  0
   11.7179  -16.1808   22.2565 C   0  0  1  0  0  0  0  0  0  0  0  0
   10.9660  -14.9345   22.5905 C   0  0  0  0  0  0  0  0  0  0  0  0
    9.4872  -15.0484   22.4219 C   0  0  0  0  0  0  0  0  0  0  0  0
    8.5850  -15.7610   23.1474 C   0  0  0  0  0  0  0  0  0  0  0  0
    7.3512  -15.5653   22.6563 N   0  0  0  0  0  0  0  0  0  0  0  0
    7.4247  -14.7126   21.5905 C   0  0  0  0  0  0  0  0  0  0  0  0
    6.4519  -14.2149   20.7495 C   0  0  0  0  0  0  0  0  0  0  0  0
    6.8430  -13.3566   19.7194 C   0  0  0  0  0  0  0  0  0  0  0  0
    8.1793  -13.0518   19.5964 C   0  0  0  0  0  0  0  0  0  0  0  0
    9.1617  -13.5558   20.4477 C   0  0  0  0  0  0  0  0  0  0  0  0
    8.7539  -14.3889   21.4424 C   0  0  0  0  0  0  0  0  0  0  0  0
   12.0478  -16.9663   23.4855 C   0  0  0  0  0  0  0  0  0  0  0  0
   13.2546  -17.2439   23.6928 O   0  0  0  0  0  0  0  0  0  0  0  0
   11.0798  -17.4107   24.4242 N   0  0  0  0  0  0  0  0  0  0  0  0
   10.9268  -16.8427   25.7667 C   0  0  1  0  0  0  0  0  0  0  0  0
   10.0634  -15.6294   25.7365 C   0  0  0  0  0  0  0  0  0  0  0  0
    9.9755  -14.9601   27.0343 C   0  0  0  0  0  0  0  0  0  0  0  0
   10.5359  -15.4668   28.1833 C   0  0  0  0  0  0  0  0  0  0  0  0
   10.4792  -14.8427   29.3995 C   0  0  0  0  0  0  0  0  0  0  0  0
    9.8121  -13.6090   29.4970 C   0  0  0  0  0  0  0  0  0  0  0  0
    9.2502  -13.0874   28.3747 C   0  0  0  0  0  0  0  0  0  0  0  0
    9.3304  -13.7537   27.1602 C   0  0  0  0  0  0  0  0  0  0  0  0
   10.3848  -17.8483   26.7024 C   0  0  0  0  0  0  0  0  0  0  0  0
    9.3970  -18.5850   26.4861 O   0  0  0  0  0  0  0  0  0  0  0  0
   11.0376  -17.9961   27.9442 O   0  0  0  0  0  0  0  0  0  0  0  0
  2  1  1  0
  3  2  2  0
  4  2  1  0
  5  4  1  0
  6  5  1  0
  6  7  1  6
  8  9  2  0
  8  6  1  0
 10  8  1  0
 11 10  1  0
 11 12  1  1
 12 13  1  0
 13 14  2  0
 13 21  1  0
 14 15  1  0
 15 16  1  0
 16 17  2  0
 18 17  1  0
 19 18  2  0
 20 19  1  0
 21 20  2  0
 21 16  1  0
 22 11  1  0
 23 22  2  0
 24 22  1  0
 25 26  1  6
 25 24  1  0
 26 27  1  0
 27 32  1  0
 28 27  2  0
 28 29  1  0
 29 30  2  0
 30 31  1  0
 32 31  2  0
 33 35  1  0
 33 25  1  0
 34 33  2  0
M  END
$$$$
