QWF.pdb
     RDKit          3D

 35 37  0  0  1  0  0  0  0  0999 V2000
    9.0345  -12.7930   16.3051 N   0  0  0  0  0  0  0  0  0  0  0  0
    8.4296  -14.0080   15.8471 C   0  0  0  0  0  0  0  0  0  0  0  0
    8.3625  -14.1813   14.6000 O   0  0  0  0  0  0  0  0  0  0  0  0
    7.9324  -14.9680   16.8515 C   0  0  0  0  0  0  0  0  0  0  0  0
    8.2004  -14.6157   18.2598 C   0  0  0  0  0  0  0  0  0  0  0  0
    8.8479  -15.6090   19.1418 C   0  0  2  0  0  0  0  0  0  0  0  0
    8.3799  -16.9664   18.9540 N   0  0  0  0  0  0  0  0  0  0  0  0
    8.9761  -15.2421   20.5718 C   0  0  0  0  0  0  0  0  0  0  0  0
    9.4779  -14.1712   20.9867 O   0  0  0  0  0  0  0  0  0  0  0  0
    8.5014  -16.1454   21.5579 N   0  0  0  0  0  0  0  0  0  0  0  0
    8.6092  -15.8995   22.9744 C   0  0  1  0  0  0  0  0  0  0  0  0
    7.4723  -16.5769   23.6664 C   0  0  0  0  0  0  0  0  0  0  0  0
    6.6773  -15.6811   24.5573 C   0  0  0  0  0  0  0  0  0  0  0  0
    5.6464  -15.9817   25.3911 C   0  0  0  0  0  0  0  0  0  0  0  0
    5.2306  -14.8701   26.0181 N   0  0  0  0  0  0  0  0  0  0  0  0
    5.9895  -13.8120   25.6021 C   0  0  0  0  0  0  0  0  0  0  0  0
    5.9528  -12.4744   25.9344 C   0  0  0  0  0  0  0  0  0  0  0  0
    6.8657  -11.6142   25.3202 C   0  0  0  0  0  0  0  0  0  0  0  0
    7.7550  -12.1458   24.4144 C   0  0  0  0  0  0  0  0  0  0  0  0
    7.7909  -13.4987   24.0796 C   0  0  0  0  0  0  0  0  0  0  0  0
    6.8915  -14.3143   24.6923 C   0  0  0  0  0  0  0  0  0  0  0  0
    9.9252  -16.3131   23.5516 C   0  0  0  0  0  0  0  0  0  0  0  0
   10.4696  -17.3423   23.0818 O   0  0  0  0  0  0  0  0  0  0  0  0
   10.5885  -15.6112   24.5923 N   0  0  0  0  0  0  0  0  0  0  0  0
   11.9224  -15.9612   25.0888 C   0  0  1  0  0  0  0  0  0  0  0  0
   12.2626  -15.1706   26.3044 C   0  0  0  0  0  0  0  0  0  0  0  0
   11.2289  -15.2403   27.3373 C   0  0  0  0  0  0  0  0  0  0  0  0
   11.3422  -14.6217   28.5601 C   0  0  0  0  0  0  0  0  0  0  0  0
   10.3758  -14.6612   29.5278 C   0  0  0  0  0  0  0  0  0  0  0  0
    9.1903  -15.3722   29.2721 C   0  0  0  0  0  0  0  0  0  0  0  0
    9.0547  -15.9921   28.0701 C   0  0  0  0  0  0  0  0  0  0  0  0
   10.0600  -15.9274   27.1159 C   0  0  0  0  0  0  0  0  0  0  0  0
   12.0163  -17.4093   25.3624 C   0  0  0  0  0  0  0  0  0  0  0  0
   13.0693  -18.0340   25.6194 O   0  0  0  0  0  0  0  0  0  0  0  0
   10.8175  -18.1524   25.3374 O   0  0  0  0  0  0  0  0  0  0  0  0
  2  1  1  0
  3  2  2  0
  4  2  1  0
  5  4  1  0
  6  5  1  0
  6  7  1  1
  8  9  2  0
  8  6  1  0
 10  8  1  0
 11 10  1  0
 11 12  1  1
 12 13  1  0
 13 14  2  0
 13 21  1  0
 14 15  1  0
 15 16  1  0
 16 17  2  0
 18 17  1  0
 19 18  2  0
 20 19  1  0
 21 20  2  0
 21 16  1  0
 22 11  1  0
 23 22  2  0
 24 22  1  0
 25 26  1  1
 25 24  1  0
 26 27  1  0
 27 32  1  0
 28 27  2  0
 28 29  1  0
 29 30  2  0
 30 31  1  0
 32 31  2  0
 33 35  1  0
 33 25  1  0
 34 33  2  0
M  END
$$$$
