QWF.pdb
     RDKit          3D

 35 37  0  0  1  0  0  0  0  0999 V2000
   13.3492  -16.1926   17.5584 N   0  0  0  0  0  0  0  0  0  0  0  0
   13.5761  -17.6044   17.4720 C   0  0  0  0  0  0  0  0  0  0  0  0
   14.5932  -17.9842   16.8310 O   0  0  0  0  0  0  0  0  0  0  0  0
   12.6183  -18.5121   18.1326 C   0  0  0  0  0  0  0  0  0  0  0  0
   11.4976  -17.8571   18.8355 C   0  0  0  0  0  0  0  0  0  0  0  0
   11.0418  -18.4008   20.1318 C   0  0  2  0  0  0  0  0  0  0  0  0
   10.0259  -19.4270   20.0227 N   0  0  0  0  0  0  0  0  0  0  0  0
   10.7450  -17.4145   21.1971 C   0  0  0  0  0  0  0  0  0  0  0  0
   11.5318  -16.5118   21.5666 O   0  0  0  0  0  0  0  0  0  0  0  0
    9.4892  -17.4716   21.8555 N   0  0  0  0  0  0  0  0  0  0  0  0
    9.0997  -16.5559   22.8986 C   0  0  1  0  0  0  0  0  0  0  0  0
    7.7734  -15.9657   22.5479 C   0  0  0  0  0  0  0  0  0  0  0  0
    7.6593  -14.5050   22.8331 C   0  0  0  0  0  0  0  0  0  0  0  0
    7.7560  -13.4467   21.9852 C   0  0  0  0  0  0  0  0  0  0  0  0
    7.5743  -12.3029   22.6638 N   0  0  0  0  0  0  0  0  0  0  0  0
    7.3528  -12.5951   23.9807 C   0  0  0  0  0  0  0  0  0  0  0  0
    7.1260  -11.7828   25.0714 C   0  0  0  0  0  0  0  0  0  0  0  0
    6.9455  -12.3843   26.3189 C   0  0  0  0  0  0  0  0  0  0  0  0
    7.0036  -13.7572   26.3955 C   0  0  0  0  0  0  0  0  0  0  0  0
    7.2329  -14.5771   25.2916 C   0  0  0  0  0  0  0  0  0  0  0  0
    7.4050  -13.9660   24.0889 C   0  0  0  0  0  0  0  0  0  0  0  0
    9.0793  -17.1772   24.2586 C   0  0  0  0  0  0  0  0  0  0  0  0
    8.0470  -17.0193   24.9557 O   0  0  0  0  0  0  0  0  0  0  0  0
   10.1536  -17.9309   24.8005 N   0  0  0  0  0  0  0  0  0  0  0  0
   10.9093  -17.5314   25.9911 C   0  0  1  0  0  0  0  0  0  0  0  0
   10.0067  -17.3669   27.1645 C   0  0  0  0  0  0  0  0  0  0  0  0
    9.9882  -15.9986   27.6818 C   0  0  0  0  0  0  0  0  0  0  0  0
    9.3797  -14.9534   27.0275 C   0  0  0  0  0  0  0  0  0  0  0  0
    9.3368  -13.6733   27.5084 C   0  0  0  0  0  0  0  0  0  0  0  0
    9.9463  -13.3934   28.7439 C   0  0  0  0  0  0  0  0  0  0  0  0
   10.5542  -14.4104   29.4100 C   0  0  0  0  0  0  0  0  0  0  0  0
   10.5752  -15.6951   28.8863 C   0  0  0  0  0  0  0  0  0  0  0  0
   11.9782  -18.5069   26.2850 C   0  0  0  0  0  0  0  0  0  0  0  0
   12.2191  -19.5424   25.6255 O   0  0  0  0  0  0  0  0  0  0  0  0
   12.8022  -18.2487   27.4006 O   0  0  0  0  0  0  0  0  0  0  0  0
  2  1  1  0
  3  2  2  0
  4  2  1  0
  5  4  1  0
  6  5  1  0
  6  7  1  6
  8  9  2  0
  8  6  1  0
 10  8  1  0
 11 10  1  0
 11 12  1  6
 12 13  1  0
 13 14  2  0
 13 21  1  0
 14 15  1  0
 15 16  1  0
 16 17  2  0
 18 17  1  0
 19 18  2  0
 20 19  1  0
 21 20  2  0
 21 16  1  0
 22 11  1  0
 23 22  2  0
 24 22  1  0
 25 26  1  1
 25 24  1  0
 26 27  1  0
 27 32  1  0
 28 27  2  0
 28 29  1  0
 29 30  2  0
 30 31  1  0
 32 31  2  0
 33 35  1  0
 33 25  1  0
 34 33  2  0
M  END
$$$$
