QWF.pdb
     RDKit          3D

 35 37  0  0  1  0  0  0  0  0999 V2000
    6.7730  -20.6173   28.3035 N   0  0  0  0  0  0  0  0  0  0  0  0
    8.0543  -20.9692   27.7683 C   0  0  0  0  0  0  0  0  0  0  0  0
    9.0572  -20.7803   28.5087 O   0  0  0  0  0  0  0  0  0  0  0  0
    8.1172  -21.5257   26.4030 C   0  0  0  0  0  0  0  0  0  0  0  0
    6.8214  -21.6670   25.7102 C   0  0  0  0  0  0  0  0  0  0  0  0
    6.7241  -21.3067   24.2803 C   0  0  2  0  0  0  0  0  0  0  0  0
    6.9506  -22.4111   23.3714 N   0  0  0  0  0  0  0  0  0  0  0  0
    7.4215  -20.0687   23.8595 C   0  0  0  0  0  0  0  0  0  0  0  0
    8.4955  -20.0445   23.2142 O   0  0  0  0  0  0  0  0  0  0  0  0
    6.8521  -18.8125   24.1932 N   0  0  0  0  0  0  0  0  0  0  0  0
    7.4811  -17.5518   23.8874 C   0  0  1  0  0  0  0  0  0  0  0  0
    6.4553  -16.4701   23.9766 C   0  0  0  0  0  0  0  0  0  0  0  0
    6.9722  -15.1085   23.6498 C   0  0  0  0  0  0  0  0  0  0  0  0
    7.5561  -14.6542   22.5093 C   0  0  0  0  0  0  0  0  0  0  0  0
    7.8571  -13.3526   22.6404 N   0  0  0  0  0  0  0  0  0  0  0  0
    7.4713  -12.9277   23.8811 C   0  0  0  0  0  0  0  0  0  0  0  0
    7.5694  -11.6982   24.4973 C   0  0  0  0  0  0  0  0  0  0  0  0
    7.0897  -11.5718   25.8030 C   0  0  0  0  0  0  0  0  0  0  0  0
    6.5440  -12.6811   26.4076 C   0  0  0  0  0  0  0  0  0  0  0  0
    6.4455  -13.9236   25.7829 C   0  0  0  0  0  0  0  0  0  0  0  0
    6.9197  -14.0192   24.5119 C   0  0  0  0  0  0  0  0  0  0  0  0
    8.6663  -17.2538   24.7491 C   0  0  0  0  0  0  0  0  0  0  0  0
    8.5921  -17.5544   25.9659 O   0  0  0  0  0  0  0  0  0  0  0  0
    9.8619  -16.6557   24.2711 N   0  0  0  0  0  0  0  0  0  0  0  0
   11.0184  -16.3564   25.1203 C   0  0  1  0  0  0  0  0  0  0  0  0
   10.7147  -16.6355   26.5515 C   0  0  0  0  0  0  0  0  0  0  0  0
   10.3667  -15.4312   27.3056 C   0  0  0  0  0  0  0  0  0  0  0  0
    9.3911  -14.5478   26.9071 C   0  0  0  0  0  0  0  0  0  0  0  0
    9.0409  -13.4287   27.6119 C   0  0  0  0  0  0  0  0  0  0  0  0
    9.7086  -13.1513   28.8175 C   0  0  0  0  0  0  0  0  0  0  0  0
   10.6768  -14.0102   29.2327 C   0  0  0  0  0  0  0  0  0  0  0  0
   11.0017  -15.1343   28.4871 C   0  0  0  0  0  0  0  0  0  0  0  0
   12.2041  -17.1174   24.6782 C   0  0  0  0  0  0  0  0  0  0  0  0
   13.3284  -17.0952   25.2266 O   0  0  0  0  0  0  0  0  0  0  0  0
   12.0577  -17.9443   23.5447 O   0  0  0  0  0  0  0  0  0  0  0  0
  2  1  1  0
  3  2  2  0
  4  2  1  0
  5  4  1  0
  6  5  1  0
  6  7  1  6
  8  9  2  0
  8  6  1  0
 10  8  1  0
 11 10  1  0
 11 12  1  1
 12 13  1  0
 13 14  2  0
 13 21  1  0
 14 15  1  0
 15 16  1  0
 16 17  2  0
 18 17  1  0
 19 18  2  0
 20 19  1  0
 21 20  2  0
 21 16  1  0
 22 11  1  0
 23 22  2  0
 24 22  1  0
 25 26  1  1
 25 24  1  0
 26 27  1  0
 27 32  1  0
 28 27  2  0
 28 29  1  0
 29 30  2  0
 30 31  1  0
 32 31  2  0
 33 35  1  0
 33 25  1  0
 34 33  2  0
M  END
$$$$
