QWF.pdb
     RDKit          3D

 35 37  0  0  1  0  0  0  0  0999 V2000
    8.8233  -15.0060   14.5006 N   0  0  0  0  0  0  0  0  0  0  0  0
    8.3181  -16.3374   14.3447 C   0  0  0  0  0  0  0  0  0  0  0  0
    8.1944  -16.7701   13.1670 O   0  0  0  0  0  0  0  0  0  0  0  0
    7.9818  -17.1082   15.5572 C   0  0  0  0  0  0  0  0  0  0  0  0
    8.1480  -16.3913   16.8369 C   0  0  0  0  0  0  0  0  0  0  0  0
    8.9288  -17.0218   17.9216 C   0  0  2  0  0  0  0  0  0  0  0  0
    9.1033  -18.4519   17.7757 N   0  0  0  0  0  0  0  0  0  0  0  0
    8.5784  -16.6277   19.3064 C   0  0  0  0  0  0  0  0  0  0  0  0
    8.3115  -15.4567   19.6642 O   0  0  0  0  0  0  0  0  0  0  0  0
    8.5298  -17.6265   20.3133 N   0  0  0  0  0  0  0  0  0  0  0  0
    8.2296  -17.3441   21.6948 C   0  0  1  0  0  0  0  0  0  0  0  0
    7.4871  -18.5048   22.2710 C   0  0  0  0  0  0  0  0  0  0  0  0
    6.4622  -18.1305   23.2896 C   0  0  0  0  0  0  0  0  0  0  0  0
    5.1080  -18.2373   23.2357 C   0  0  0  0  0  0  0  0  0  0  0  0
    4.5714  -17.7935   24.3832 N   0  0  0  0  0  0  0  0  0  0  0  0
    5.5746  -17.3848   25.2169 C   0  0  0  0  0  0  0  0  0  0  0  0
    5.5460  -16.8465   26.4860 C   0  0  0  0  0  0  0  0  0  0  0  0
    6.7593  -16.5074   27.0889 C   0  0  0  0  0  0  0  0  0  0  0  0
    7.9213  -16.7276   26.3852 C   0  0  0  0  0  0  0  0  0  0  0  0
    7.9485  -17.2722   25.1021 C   0  0  0  0  0  0  0  0  0  0  0  0
    6.7534  -17.5937   24.5383 C   0  0  0  0  0  0  0  0  0  0  0  0
    9.4377  -17.0089   22.5097 C   0  0  0  0  0  0  0  0  0  0  0  0
   10.4688  -17.7039   22.3357 O   0  0  0  0  0  0  0  0  0  0  0  0
    9.4835  -15.9557   23.4607 N   0  0  0  0  0  0  0  0  0  0  0  0
   10.6946  -15.5702   24.1908 C   0  0  1  0  0  0  0  0  0  0  0  0
   10.6864  -14.1142   24.5047 C   0  0  0  0  0  0  0  0  0  0  0  0
    9.4130  -13.6587   25.0625 C   0  0  0  0  0  0  0  0  0  0  0  0
    9.1953  -13.4971   26.4107 C   0  0  0  0  0  0  0  0  0  0  0  0
    8.0170  -13.0530   26.9456 C   0  0  0  0  0  0  0  0  0  0  0  0
    6.9558  -12.7385   26.0788 C   0  0  0  0  0  0  0  0  0  0  0  0
    7.1469  -12.8897   24.7415 C   0  0  0  0  0  0  0  0  0  0  0  0
    8.3584  -13.3438   24.2403 C   0  0  0  0  0  0  0  0  0  0  0  0
   10.8409  -16.3710   25.4228 C   0  0  0  0  0  0  0  0  0  0  0  0
    9.9544  -17.0937   25.9298 O   0  0  0  0  0  0  0  0  0  0  0  0
   12.0867  -16.3227   26.0828 O   0  0  0  0  0  0  0  0  0  0  0  0
  2  1  1  0
  3  2  2  0
  4  2  1  0
  5  4  1  0
  6  5  1  0
  6  7  1  1
  8  9  2  0
  8  6  1  0
 10  8  1  0
 11 10  1  0
 11 12  1  1
 12 13  1  0
 13 14  2  0
 13 21  1  0
 14 15  1  0
 15 16  1  0
 16 17  2  0
 18 17  1  0
 19 18  2  0
 20 19  1  0
 21 20  2  0
 21 16  1  0
 22 11  1  0
 23 22  2  0
 24 22  1  0
 25 26  1  1
 25 24  1  0
 26 27  1  0
 27 32  1  0
 28 27  2  0
 28 29  1  0
 29 30  2  0
 30 31  1  0
 32 31  2  0
 33 35  1  0
 33 25  1  0
 34 33  2  0
M  END
$$$$
