QWF.pdb
     RDKit          3D

 35 37  0  0  1  0  0  0  0  0999 V2000
    8.7712  -12.9494   17.5202 N   0  0  0  0  0  0  0  0  0  0  0  0
    9.1014  -14.1941   16.8926 C   0  0  0  0  0  0  0  0  0  0  0  0
    8.8766  -14.2906   15.6557 O   0  0  0  0  0  0  0  0  0  0  0  0
    9.6786  -15.2688   17.7228 C   0  0  0  0  0  0  0  0  0  0  0  0
    9.8329  -14.9555   19.1571 C   0  0  0  0  0  0  0  0  0  0  0  0
   10.3079  -16.0083   20.0790 C   0  0  2  0  0  0  0  0  0  0  0  0
    9.7036  -17.3063   19.8623 N   0  0  0  0  0  0  0  0  0  0  0  0
   10.3857  -15.6472   21.5142 C   0  0  0  0  0  0  0  0  0  0  0  0
   11.0654  -14.6984   21.9706 O   0  0  0  0  0  0  0  0  0  0  0  0
    9.6454  -16.4090   22.4552 N   0  0  0  0  0  0  0  0  0  0  0  0
    9.3013  -15.9261   23.7692 C   0  0  1  0  0  0  0  0  0  0  0  0
    7.8238  -16.0450   23.9519 C   0  0  0  0  0  0  0  0  0  0  0  0
    7.0888  -14.7498   23.8503 C   0  0  0  0  0  0  0  0  0  0  0  0
    6.4590  -14.1926   22.7821 C   0  0  0  0  0  0  0  0  0  0  0  0
    5.9129  -13.0192   23.1381 N   0  0  0  0  0  0  0  0  0  0  0  0
    6.1779  -12.7855   24.4586 C   0  0  0  0  0  0  0  0  0  0  0  0
    5.8511  -11.7299   25.2834 C   0  0  0  0  0  0  0  0  0  0  0  0
    6.2838  -11.7682   26.6108 C   0  0  0  0  0  0  0  0  0  0  0  0
    7.0144  -12.8575   27.0274 C   0  0  0  0  0  0  0  0  0  0  0  0
    7.3438  -13.9241   26.1922 C   0  0  0  0  0  0  0  0  0  0  0  0
    6.9100  -13.8618   24.9048 C   0  0  0  0  0  0  0  0  0  0  0  0
   10.0452  -16.6134   24.8693 C   0  0  0  0  0  0  0  0  0  0  0  0
    9.5057  -16.6509   26.0024 O   0  0  0  0  0  0  0  0  0  0  0  0
   11.3172  -17.2223   24.7045 N   0  0  0  0  0  0  0  0  0  0  0  0
   12.0850  -17.8143   25.8037 C   0  0  1  0  0  0  0  0  0  0  0  0
   12.6367  -16.7581   26.6973 C   0  0  0  0  0  0  0  0  0  0  0  0
   11.6446  -16.2270   27.6320 C   0  0  0  0  0  0  0  0  0  0  0  0
   11.0651  -14.9877   27.4926 C   0  0  0  0  0  0  0  0  0  0  0  0
   10.1216  -14.4860   28.3469 C   0  0  0  0  0  0  0  0  0  0  0  0
    9.7090  -15.2719   29.4371 C   0  0  0  0  0  0  0  0  0  0  0  0
   10.2672  -16.5010   29.5959 C   0  0  0  0  0  0  0  0  0  0  0  0
   11.2220  -16.9720   28.7061 C   0  0  0  0  0  0  0  0  0  0  0  0
   11.2555  -18.7670   26.5686 C   0  0  0  0  0  0  0  0  0  0  0  0
   10.0375  -18.9833   26.3821 O   0  0  0  0  0  0  0  0  0  0  0  0
   11.8894  -19.5002   27.5936 O   0  0  0  0  0  0  0  0  0  0  0  0
  2  1  1  0
  3  2  2  0
  4  2  1  0
  5  4  1  0
  6  5  1  0
  6  7  1  1
  8  9  2  0
  8  6  1  0
 10  8  1  0
 11 10  1  0
 11 12  1  1
 12 13  1  0
 13 14  2  0
 13 21  1  0
 14 15  1  0
 15 16  1  0
 16 17  2  0
 18 17  1  0
 19 18  2  0
 20 19  1  0
 21 20  2  0
 21 16  1  0
 22 11  1  0
 23 22  2  0
 24 22  1  0
 25 26  1  1
 25 24  1  0
 26 27  1  0
 27 32  1  0
 28 27  2  0
 28 29  1  0
 29 30  2  0
 30 31  1  0
 32 31  2  0
 33 35  1  0
 33 25  1  0
 34 33  2  0
M  END
$$$$
