ANY.pdb
     RDKit          3D

 26 26  0  0  1  0  0  0  0  0999 V2000
    6.8425  -18.0896   20.2628 C   0  0  0  0  0  0  0  0  0  0  0  0
    8.3594  -18.0266   20.2403 C   0  0  2  0  0  0  0  0  0  0  0  0
    8.8531  -18.1204   21.5924 N   0  0  0  0  0  0  0  0  0  0  0  0
    8.7218  -16.7408   19.5858 C   0  0  0  0  0  0  0  0  0  0  0  0
    8.3628  -16.5831   18.4090 O   0  0  0  0  0  0  0  0  0  0  0  0
    7.7860  -12.2985   18.9771 N   0  0  0  0  0  0  0  0  0  0  0  0
    7.5333  -13.7139   18.9973 C   0  0  0  0  0  0  0  0  0  0  0  0
    7.4038  -14.2710   17.8824 O   0  0  0  0  0  0  0  0  0  0  0  0
    7.4488  -14.3823   20.3123 C   0  0  0  0  0  0  0  0  0  0  0  0
    8.8398  -14.5603   20.8661 C   0  0  2  0  0  0  0  0  0  0  0  0
    9.4476  -15.7102   20.2444 N   0  0  0  0  0  0  0  0  0  0  0  0
    8.8339  -14.6686   22.3507 C   0  0  0  0  0  0  0  0  0  0  0  0
    8.2408  -13.7733   22.9976 O   0  0  0  0  0  0  0  0  0  0  0  0
    6.2460  -10.8808   27.1065 O   0  0  0  0  0  0  0  0  0  0  0  0
    6.6853  -12.1122   26.6227 C   0  0  0  0  0  0  0  0  0  0  0  0
    8.0049  -12.3189   26.2797 C   0  0  0  0  0  0  0  0  0  0  0  0
    8.4972  -13.5075   25.7985 C   0  0  0  0  0  0  0  0  0  0  0  0
    7.6422  -14.5810   25.6371 C   0  0  0  0  0  0  0  0  0  0  0  0
    8.0853  -15.8812   25.0980 C   0  0  0  0  0  0  0  0  0  0  0  0
    9.4574  -15.7754   24.5385 C   0  0  2  0  0  0  0  0  0  0  0  0
    9.4476  -15.7062   23.0815 N   0  0  0  0  0  0  0  0  0  0  0  0
   10.2794  -16.9253   24.9302 C   0  0  0  0  0  0  0  0  0  0  0  0
   10.8363  -17.0749   26.1683 O   0  0  0  0  0  0  0  0  0  0  0  0
    6.3188  -14.3886   25.9760 C   0  0  0  0  0  0  0  0  0  0  0  0
    5.8291  -13.1806   26.4629 C   0  0  0  0  0  0  0  0  0  0  0  0
   10.4968  -17.8386   24.0824 O   0  0  0  0  0  0  0  0  0  0  0  0
  2  3  1  0
  2  1  1  1
  4  2  1  0
  5  4  2  0
  6  7  1  0
  7  8  2  0
  9  7  1  0
 10  9  1  6
 10 11  1  0
 11  4  1  0
 12 10  1  0
 12 21  1  0
 13 12  2  0
 15 14  1  0
 16 15  2  0
 17 16  1  0
 18 17  2  0
 18 24  1  0
 19 18  1  0
 20 19  1  6
 20 21  1  0
 20 22  1  0
 22 26  2  0
 22 23  1  0
 24 25  2  0
 25 15  1  0
M  END
$$$$
