ANY.pdb
     RDKit          3D

 26 26  0  0  1  0  0  0  0  0999 V2000
   10.6375  -18.9050   18.3358 C   0  0  0  0  0  0  0  0  0  0  0  0
   10.7707  -18.8769   19.8481 C   0  0  2  0  0  0  0  0  0  0  0  0
   10.2755  -20.1203   20.3861 N   0  0  0  0  0  0  0  0  0  0  0  0
    9.9954  -17.6987   20.3213 C   0  0  0  0  0  0  0  0  0  0  0  0
   10.4370  -16.5763   20.0314 O   0  0  0  0  0  0  0  0  0  0  0  0
    5.8393  -17.7850   24.1652 N   0  0  0  0  0  0  0  0  0  0  0  0
    6.6832  -18.0689   23.0361 C   0  0  0  0  0  0  0  0  0  0  0  0
    7.3977  -19.0949   23.1208 O   0  0  0  0  0  0  0  0  0  0  0  0
    6.6373  -17.1402   21.8880 C   0  0  0  0  0  0  0  0  0  0  0  0
    8.0378  -16.6844   21.5650 C   0  0  2  0  0  0  0  0  0  0  0  0
    8.7950  -17.8094   21.0758 N   0  0  0  0  0  0  0  0  0  0  0  0
    8.6929  -16.0398   22.7360 C   0  0  0  0  0  0  0  0  0  0  0  0
    8.2537  -14.9264   23.1090 O   0  0  0  0  0  0  0  0  0  0  0  0
   11.1620  -14.0402   30.6829 O   0  0  0  0  0  0  0  0  0  0  0  0
   10.6552  -14.4929   29.4658 C   0  0  0  0  0  0  0  0  0  0  0  0
   10.5389  -15.8397   29.1932 C   0  0  0  0  0  0  0  0  0  0  0  0
   10.0479  -16.3462   28.0147 C   0  0  0  0  0  0  0  0  0  0  0  0
    9.6368  -15.4779   27.0214 C   0  0  0  0  0  0  0  0  0  0  0  0
    9.1265  -15.9409   25.7166 C   0  0  0  0  0  0  0  0  0  0  0  0
   10.2370  -16.0792   24.7396 C   0  0  2  0  0  0  0  0  0  0  0  0
    9.7721  -16.5919   23.4555 N   0  0  0  0  0  0  0  0  0  0  0  0
   11.2730  -16.9887   25.2404 C   0  0  0  0  0  0  0  0  0  0  0  0
   12.4045  -16.5722   25.8822 O   0  0  0  0  0  0  0  0  0  0  0  0
    9.7475  -14.1273   27.2800 C   0  0  0  0  0  0  0  0  0  0  0  0
   10.2462  -13.6233   28.4773 C   0  0  0  0  0  0  0  0  0  0  0  0
   11.1262  -18.2339   25.0735 O   0  0  0  0  0  0  0  0  0  0  0  0
  2  3  1  0
  2  1  1  6
  4  2  1  0
  5  4  2  0
  6  7  1  0
  7  8  2  0
  9  7  1  0
 10  9  1  1
 10 11  1  0
 11  4  1  0
 12 10  1  0
 12 21  1  0
 13 12  2  0
 15 14  1  0
 16 15  2  0
 17 16  1  0
 18 17  2  0
 18 24  1  0
 19 18  1  0
 20 19  1  1
 20 21  1  0
 20 22  1  0
 22 26  2  0
 22 23  1  0
 24 25  2  0
 25 15  1  0
M  END
$$$$
