ANY.pdb
     RDKit          3D

 26 26  0  0  1  0  0  0  0  0999 V2000
    8.4812  -12.2602   19.5681 C   0  0  0  0  0  0  0  0  0  0  0  0
    8.7295  -13.4816   18.7009 C   0  0  2  0  0  0  0  0  0  0  0  0
    7.9349  -13.3751   17.5018 N   0  0  0  0  0  0  0  0  0  0  0  0
    8.3690  -14.6674   19.5237 C   0  0  0  0  0  0  0  0  0  0  0  0
    7.6179  -15.5084   19.0070 O   0  0  0  0  0  0  0  0  0  0  0  0
    7.9215  -18.0040   19.9272 N   0  0  0  0  0  0  0  0  0  0  0  0
    9.3446  -17.8925   19.7545 C   0  0  0  0  0  0  0  0  0  0  0  0
    9.8602  -18.6436   18.8941 O   0  0  0  0  0  0  0  0  0  0  0  0
   10.0684  -16.9158   20.5941 C   0  0  0  0  0  0  0  0  0  0  0  0
    9.0754  -16.1612   21.4414 C   0  0  2  0  0  0  0  0  0  0  0  0
    8.8429  -14.8673   20.8496 N   0  0  0  0  0  0  0  0  0  0  0  0
    9.5256  -16.0531   22.8562 C   0  0  0  0  0  0  0  0  0  0  0  0
   10.7090  -15.6959   23.0650 O   0  0  0  0  0  0  0  0  0  0  0  0
    5.8516  -10.7287   25.8663 O   0  0  0  0  0  0  0  0  0  0  0  0
    6.3890  -12.0117   25.9585 C   0  0  0  0  0  0  0  0  0  0  0  0
    5.6150  -13.0884   26.3368 C   0  0  0  0  0  0  0  0  0  0  0  0
    6.0865  -14.3740   26.4455 C   0  0  0  0  0  0  0  0  0  0  0  0
    7.4138  -14.6364   26.1652 C   0  0  0  0  0  0  0  0  0  0  0  0
    8.0050  -15.9829   26.2871 C   0  0  0  0  0  0  0  0  0  0  0  0
    9.1533  -16.1364   25.3571 C   0  0  2  0  0  0  0  0  0  0  0  0
    8.7161  -16.3238   23.9781 N   0  0  0  0  0  0  0  0  0  0  0  0
    9.9848  -17.2865   25.7273 C   0  0  0  0  0  0  0  0  0  0  0  0
   10.7681  -17.3296   26.8454 O   0  0  0  0  0  0  0  0  0  0  0  0
    8.2005  -13.5685   25.7856 C   0  0  0  0  0  0  0  0  0  0  0  0
    7.7139  -12.2693   25.6780 C   0  0  0  0  0  0  0  0  0  0  0  0
    9.9899  -18.3043   24.9762 O   0  0  0  0  0  0  0  0  0  0  0  0
  2  3  1  0
  2  1  1  1
  4  2  1  0
  5  4  2  0
  6  7  1  0
  7  8  2  0
  9  7  1  0
 10  9  1  6
 10 11  1  0
 11  4  1  0
 12 10  1  0
 12 21  1  0
 13 12  2  0
 15 14  1  0
 16 15  2  0
 17 16  1  0
 18 17  2  0
 18 24  1  0
 19 18  1  0
 20 19  1  1
 20 21  1  0
 20 22  1  0
 22 26  2  0
 22 23  1  0
 24 25  2  0
 25 15  1  0
M  END
$$$$
