ANY.pdb
     RDKit          3D

 26 26  0  0  1  0  0  0  0  0999 V2000
    8.9301  -15.4579   17.5633 C   0  0  0  0  0  0  0  0  0  0  0  0
    9.1415  -16.9025   17.1463 C   0  0  2  0  0  0  0  0  0  0  0  0
    7.8918  -17.4401   16.6665 N   0  0  0  0  0  0  0  0  0  0  0  0
    9.6515  -17.6207   18.3451 C   0  0  0  0  0  0  0  0  0  0  0  0
    8.8339  -18.2894   18.9955 O   0  0  0  0  0  0  0  0  0  0  0  0
   12.6591  -20.9140   20.9072 N   0  0  0  0  0  0  0  0  0  0  0  0
   13.4212  -19.7624   20.5069 C   0  0  0  0  0  0  0  0  0  0  0  0
   14.4941  -19.5645   21.1234 O   0  0  0  0  0  0  0  0  0  0  0  0
   12.8827  -18.9215   19.4179 C   0  0  0  0  0  0  0  0  0  0  0  0
   11.5551  -18.3492   19.8463 C   0  0  2  0  0  0  0  0  0  0  0  0
   11.0099  -17.5697   18.7630 N   0  0  0  0  0  0  0  0  0  0  0  0
   11.6745  -17.5538   21.0989 C   0  0  0  0  0  0  0  0  0  0  0  0
   12.1298  -18.1314   22.1142 O   0  0  0  0  0  0  0  0  0  0  0  0
    7.1954  -12.5940   18.1677 O   0  0  0  0  0  0  0  0  0  0  0  0
    7.7232  -13.3434   19.2179 C   0  0  0  0  0  0  0  0  0  0  0  0
    6.9237  -14.1604   19.9893 C   0  0  0  0  0  0  0  0  0  0  0  0
    7.3846  -14.9218   21.0355 C   0  0  0  0  0  0  0  0  0  0  0  0
    8.7274  -14.8884   21.3597 C   0  0  0  0  0  0  0  0  0  0  0  0
    9.2963  -15.6521   22.4868 C   0  0  0  0  0  0  0  0  0  0  0  0
   10.7809  -15.6109   22.4504 C   0  0  2  0  0  0  0  0  0  0  0  0
   11.3122  -16.1973   21.2250 N   0  0  0  0  0  0  0  0  0  0  0  0
   11.3591  -16.3371   23.5860 C   0  0  0  0  0  0  0  0  0  0  0  0
   12.1405  -17.4501   23.4580 O   0  0  0  0  0  0  0  0  0  0  0  0
    9.5395  -14.0751   20.5966 C   0  0  0  0  0  0  0  0  0  0  0  0
    9.0635  -13.3072   19.5382 C   0  0  0  0  0  0  0  0  0  0  0  0
   11.1277  -15.9229   24.7585 O   0  0  0  0  0  0  0  0  0  0  0  0
  2  3  1  0
  2  1  1  1
  4  2  1  0
  5  4  2  0
  6  7  1  0
  7  8  2  0
  9  7  1  0
 10  9  1  6
 10 11  1  0
 11  4  1  0
 12 10  1  0
 12 21  1  0
 13 12  2  0
 15 14  1  0
 16 15  2  0
 17 16  1  0
 18 17  2  0
 18 24  1  0
 19 18  1  0
 20 19  1  6
 20 21  1  0
 20 22  1  0
 22 26  2  0
 22 23  1  0
 24 25  2  0
 25 15  1  0
M  END
$$$$
