ANY.pdb
     RDKit          3D

 26 26  0  0  1  0  0  0  0  0999 V2000
    5.9429  -18.9577   19.4076 C   0  0  0  0  0  0  0  0  0  0  0  0
    7.1204  -19.3737   20.2712 C   0  0  2  0  0  0  0  0  0  0  0  0
    6.6581  -19.5967   21.6193 N   0  0  0  0  0  0  0  0  0  0  0  0
    8.1210  -18.2765   20.1828 C   0  0  0  0  0  0  0  0  0  0  0  0
    8.6892  -18.1143   19.0921 O   0  0  0  0  0  0  0  0  0  0  0  0
    8.9662  -13.3866   20.8971 N   0  0  0  0  0  0  0  0  0  0  0  0
    7.7642  -13.9222   20.3176 C   0  0  0  0  0  0  0  0  0  0  0  0
    7.0322  -13.1093   19.7063 O   0  0  0  0  0  0  0  0  0  0  0  0
    7.4975  -15.3652   20.4894 C   0  0  0  0  0  0  0  0  0  0  0  0
    8.6838  -16.0103   21.1603 C   0  0  2  0  0  0  0  0  0  0  0  0
    8.4425  -17.4268   21.2770 N   0  0  0  0  0  0  0  0  0  0  0  0
    8.9800  -15.3859   22.4787 C   0  0  0  0  0  0  0  0  0  0  0  0
    9.3145  -14.1777   22.4889 O   0  0  0  0  0  0  0  0  0  0  0  0
    5.5207  -11.0618   26.2263 O   0  0  0  0  0  0  0  0  0  0  0  0
    6.3569  -12.1768   26.1962 C   0  0  0  0  0  0  0  0  0  0  0  0
    5.8591  -13.4410   25.9601 C   0  0  0  0  0  0  0  0  0  0  0  0
    6.6313  -14.5761   25.9183 C   0  0  0  0  0  0  0  0  0  0  0  0
    7.9945  -14.4778   26.1216 C   0  0  0  0  0  0  0  0  0  0  0  0
    8.8887  -15.6517   26.1229 C   0  0  0  0  0  0  0  0  0  0  0  0
    9.7064  -15.6879   24.8832 C   0  0  2  0  0  0  0  0  0  0  0  0
    8.9114  -16.0562   23.7169 N   0  0  0  0  0  0  0  0  0  0  0  0
   10.8064  -16.6508   25.0020 C   0  0  0  0  0  0  0  0  0  0  0  0
   10.9502  -17.7437   24.1954 O   0  0  0  0  0  0  0  0  0  0  0  0
    8.5068  -13.2191   26.3593 C   0  0  0  0  0  0  0  0  0  0  0  0
    7.7165  -12.0745   26.3997 C   0  0  0  0  0  0  0  0  0  0  0  0
   11.6791  -16.4744   25.9004 O   0  0  0  0  0  0  0  0  0  0  0  0
  2  3  1  0
  2  1  1  6
  4  2  1  0
  5  4  2  0
  6  7  1  0
  7  8  2  0
  9  7  1  0
 10  9  1  1
 10 11  1  0
 11  4  1  0
 12 10  1  0
 12 21  1  0
 13 12  2  0
 15 14  1  0
 16 15  2  0
 17 16  1  0
 18 17  2  0
 18 24  1  0
 19 18  1  0
 20 19  1  1
 20 21  1  0
 20 22  1  0
 22 26  2  0
 22 23  1  0
 24 25  2  0
 25 15  1  0
M  END
$$$$
