ANY.pdb
     RDKit          3D

 26 26  0  0  1  0  0  0  0  0999 V2000
    8.0432  -17.5246   16.2497 C   0  0  0  0  0  0  0  0  0  0  0  0
    9.0848  -16.6281   16.8953 C   0  0  2  0  0  0  0  0  0  0  0  0
   10.2878  -16.6583   16.0999 N   0  0  0  0  0  0  0  0  0  0  0  0
    9.2961  -17.1461   18.2736 C   0  0  0  0  0  0  0  0  0  0  0  0
    8.2886  -17.3071   18.9791 O   0  0  0  0  0  0  0  0  0  0  0  0
   12.6788  -20.3420   18.2170 N   0  0  0  0  0  0  0  0  0  0  0  0
   11.7792  -20.0444   19.2986 C   0  0  0  0  0  0  0  0  0  0  0  0
   10.8303  -20.8451   19.4681 O   0  0  0  0  0  0  0  0  0  0  0  0
   12.0459  -18.8369   20.1072 C   0  0  0  0  0  0  0  0  0  0  0  0
   10.8108  -17.9724   20.1260 C   0  0  2  0  0  0  0  0  0  0  0  0
   10.5805  -17.4562   18.7997 N   0  0  0  0  0  0  0  0  0  0  0  0
   10.9132  -16.8842   21.1365 C   0  0  0  0  0  0  0  0  0  0  0  0
   11.9534  -16.1843   21.1352 O   0  0  0  0  0  0  0  0  0  0  0  0
    7.6532  -12.9247   17.6305 O   0  0  0  0  0  0  0  0  0  0  0  0
    7.9052  -13.3420   18.9365 C   0  0  0  0  0  0  0  0  0  0  0  0
    9.0767  -13.0083   19.5830 C   0  0  0  0  0  0  0  0  0  0  0  0
    9.3817  -13.3888   20.8671 C   0  0  0  0  0  0  0  0  0  0  0  0
    8.4792  -14.1538   21.5811 C   0  0  0  0  0  0  0  0  0  0  0  0
    8.7439  -14.6287   22.9529 C   0  0  0  0  0  0  0  0  0  0  0  0
    9.9887  -15.4383   22.9953 C   0  0  2  0  0  0  0  0  0  0  0  0
    9.9241  -16.5843   22.0951 N   0  0  0  0  0  0  0  0  0  0  0  0
   10.2478  -15.9413   24.3484 C   0  0  0  0  0  0  0  0  0  0  0  0
   10.6171  -15.1474   25.3967 O   0  0  0  0  0  0  0  0  0  0  0  0
    7.3027  -14.4956   20.9468 C   0  0  0  0  0  0  0  0  0  0  0  0
    7.0023  -14.1053   19.6454 C   0  0  0  0  0  0  0  0  0  0  0  0
   10.1293  -17.1805   24.5732 O   0  0  0  0  0  0  0  0  0  0  0  0
  2  3  1  0
  2  1  1  6
  4  2  1  0
  5  4  2  0
  6  7  1  0
  7  8  2  0
  9  7  1  0
 10  9  1  6
 10 11  1  0
 11  4  1  0
 12 10  1  0
 12 21  1  0
 13 12  2  0
 15 14  1  0
 16 15  2  0
 17 16  1  0
 18 17  2  0
 18 24  1  0
 19 18  1  0
 20 19  1  1
 20 21  1  0
 20 22  1  0
 22 26  2  0
 22 23  1  0
 24 25  2  0
 25 15  1  0
M  END
$$$$
