ANY.pdb
     RDKit          3D

 26 26  0  0  1  0  0  0  0  0999 V2000
    7.0942  -13.4375   18.3958 C   0  0  0  0  0  0  0  0  0  0  0  0
    8.0874  -13.1906   19.5175 C   0  0  2  0  0  0  0  0  0  0  0  0
    9.3397  -12.7563   18.9483 N   0  0  0  0  0  0  0  0  0  0  0  0
    8.2112  -14.4708   20.2650 C   0  0  0  0  0  0  0  0  0  0  0  0
    7.1671  -14.9682   20.7136 O   0  0  0  0  0  0  0  0  0  0  0  0
    9.6573  -18.9993   21.9352 N   0  0  0  0  0  0  0  0  0  0  0  0
   10.8772  -18.3890   21.4803 C   0  0  0  0  0  0  0  0  0  0  0  0
   11.9382  -18.9972   21.7539 O   0  0  0  0  0  0  0  0  0  0  0  0
   10.7782  -17.1146   20.7393 C   0  0  0  0  0  0  0  0  0  0  0  0
    9.6126  -16.3216   21.2742 C   0  0  2  0  0  0  0  0  0  0  0  0
    9.4532  -15.1296   20.4792 N   0  0  0  0  0  0  0  0  0  0  0  0
    9.7746  -16.0083   22.7204 C   0  0  0  0  0  0  0  0  0  0  0  0
   10.4582  -15.0026   23.0253 O   0  0  0  0  0  0  0  0  0  0  0  0
    6.8393  -10.6416   27.3550 O   0  0  0  0  0  0  0  0  0  0  0  0
    7.0018  -11.9204   26.8244 C   0  0  0  0  0  0  0  0  0  0  0  0
    5.9754  -12.5568   26.1587 C   0  0  0  0  0  0  0  0  0  0  0  0
    6.0747  -13.8142   25.6149 C   0  0  0  0  0  0  0  0  0  0  0  0
    7.2635  -14.5098   25.7252 C   0  0  0  0  0  0  0  0  0  0  0  0
    7.4420  -15.8756   25.1957 C   0  0  0  0  0  0  0  0  0  0  0  0
    8.8855  -16.2075   25.0805 C   0  0  2  0  0  0  0  0  0  0  0  0
    9.2141  -16.7617   23.7718 N   0  0  0  0  0  0  0  0  0  0  0  0
    9.2874  -17.1843   26.0981 C   0  0  0  0  0  0  0  0  0  0  0  0
    9.7328  -18.4428   25.8096 O   0  0  0  0  0  0  0  0  0  0  0  0
    8.2993  -13.8855   26.3891 C   0  0  0  0  0  0  0  0  0  0  0  0
    8.1895  -12.6111   26.9368 C   0  0  0  0  0  0  0  0  0  0  0  0
    9.2207  -16.8584   27.3185 O   0  0  0  0  0  0  0  0  0  0  0  0
  2  3  1  0
  2  1  1  6
  4  2  1  0
  5  4  2  0
  6  7  1  0
  7  8  2  0
  9  7  1  0
 10  9  1  6
 10 11  1  0
 11  4  1  0
 12 10  1  0
 12 21  1  0
 13 12  2  0
 15 14  1  0
 16 15  2  0
 17 16  1  0
 18 17  2  0
 18 24  1  0
 19 18  1  0
 20 19  1  6
 20 21  1  0
 20 22  1  0
 22 26  2  0
 22 23  1  0
 24 25  2  0
 25 15  1  0
M  END
$$$$
