MTL.pdb
     RDKit          3D

 24 23  0  0  1  0  0  0  0  0999 V2000
    8.7507  -11.5016   19.9135 C   0  0  0  0  0  0  0  0  0  0  0  0
    7.8816  -12.2932   18.5333 S   0  0  0  0  0  0  0  0  0  0  0  0
    8.0845  -14.0951   18.5898 C   0  0  0  0  0  0  0  0  0  0  0  0
    9.3471  -14.4845   19.3294 C   0  0  0  0  0  0  0  0  0  0  0  0
    9.3396  -15.9841   19.5301 C   0  0  2  0  0  0  0  0  0  0  0  0
    8.6292  -16.6064   18.4362 N   0  0  0  0  0  0  0  0  0  0  0  0
    8.7676  -16.3584   20.8489 C   0  0  0  0  0  0  0  0  0  0  0  0
    7.5166  -16.4719   20.9556 O   0  0  0  0  0  0  0  0  0  0  0  0
    8.8579  -19.3293   22.7510 C   0  0  0  0  0  0  0  0  0  0  0  0
    9.4509  -18.3428   23.7325 C   0  0  1  0  0  0  0  0  0  0  0  0
   10.8466  -18.3632   23.6915 O   0  0  0  0  0  0  0  0  0  0  0  0
    8.9636  -16.9523   23.2963 C   0  0  2  0  0  0  0  0  0  0  0  0
    9.5462  -16.6008   22.0145 N   0  0  0  0  0  0  0  0  0  0  0  0
    9.3471  -16.0118   24.3624 C   0  0  0  0  0  0  0  0  0  0  0  0
   10.4354  -15.3835   24.2963 O   0  0  0  0  0  0  0  0  0  0  0  0
    7.8880  -12.0016   25.5854 C   0  0  0  0  0  0  0  0  0  0  0  0
    7.1408  -13.1354   26.2514 C   0  0  2  0  0  0  0  0  0  0  0  0
    5.8798  -12.5978   26.8498 C   0  0  0  0  0  0  0  0  0  0  0  0
    7.9636  -13.9781   27.1456 C   0  0  0  0  0  0  0  0  0  0  0  0
    8.9731  -14.8742   26.5655 C   0  0  2  0  0  0  0  0  0  0  0  0
    8.5553  -15.7407   25.5128 N   0  0  0  0  0  0  0  0  0  0  0  0
    9.6736  -15.6119   27.6402 C   0  0  0  0  0  0  0  0  0  0  0  0
    9.7781  -16.9931   27.6141 O   0  0  0  0  0  0  0  0  0  0  0  0
   10.1980  -15.0159   28.6147 O   0  0  0  0  0  0  0  0  0  0  0  0
  1  2  1  0
  2  3  1  0
  4  3  1  0
  5  7  1  0
  5  4  1  0
  5  6  1  6
  7  8  2  0
 10  9  1  6
 10 12  1  0
 11 10  1  0
 12 13  1  6
 13  7  1  0
 14 12  1  0
 15 14  2  0
 17 16  1  1
 17 19  1  0
 18 17  1  0
 20 19  1  1
 20 21  1  0
 20 22  1  0
 21 14  1  0
 22 23  1  0
 24 22  2  0
M  END
$$$$
