MTL.pdb
     RDKit          3D

 24 23  0  0  1  0  0  0  0  0999 V2000
    6.7605  -23.7218   22.6962 C   0  0  0  0  0  0  0  0  0  0  0  0
    5.0341  -23.2501   22.9860 S   0  0  0  0  0  0  0  0  0  0  0  0
    4.8863  -21.4594   23.2356 C   0  0  0  0  0  0  0  0  0  0  0  0
    6.2443  -20.8140   23.4140 C   0  0  0  0  0  0  0  0  0  0  0  0
    6.0395  -19.4019   23.9174 C   0  0  2  0  0  0  0  0  0  0  0  0
    4.7452  -18.9262   23.4848 N   0  0  0  0  0  0  0  0  0  0  0  0
    7.1369  -18.4999   23.4830 C   0  0  0  0  0  0  0  0  0  0  0  0
    8.3281  -18.8398   23.7173 O   0  0  0  0  0  0  0  0  0  0  0  0
    6.4144  -14.5054   22.2351 C   0  0  0  0  0  0  0  0  0  0  0  0
    7.5218  -15.2596   21.5331 C   0  0  1  0  0  0  0  0  0  0  0  0
    8.5917  -14.4173   21.2232 O   0  0  0  0  0  0  0  0  0  0  0  0
    8.0072  -16.3331   22.5195 C   0  0  2  0  0  0  0  0  0  0  0  0
    6.9318  -17.2627   22.8116 N   0  0  0  0  0  0  0  0  0  0  0  0
    8.4781  -15.6259   23.7222 C   0  0  0  0  0  0  0  0  0  0  0  0
    9.3195  -14.6952   23.6253 O   0  0  0  0  0  0  0  0  0  0  0  0
    7.6746  -12.1285   25.7499 C   0  0  0  0  0  0  0  0  0  0  0  0
    6.7666  -13.2705   26.1480 C   0  0  2  0  0  0  0  0  0  0  0  0
    5.5452  -12.7105   26.8052 C   0  0  0  0  0  0  0  0  0  0  0  0
    7.4368  -14.3692   26.8762 C   0  0  0  0  0  0  0  0  0  0  0  0
    8.4552  -15.1747   26.1888 C   0  0  2  0  0  0  0  0  0  0  0  0
    8.0422  -15.9187   25.0444 N   0  0  0  0  0  0  0  0  0  0  0  0
    9.1757  -16.0217   27.1651 C   0  0  0  0  0  0  0  0  0  0  0  0
    9.3623  -17.3763   26.9423 O   0  0  0  0  0  0  0  0  0  0  0  0
    9.6437  -15.5465   28.2305 O   0  0  0  0  0  0  0  0  0  0  0  0
  1  2  1  0
  2  3  1  0
  4  3  1  0
  5  7  1  0
  5  4  1  0
  5  6  1  6
  7  8  2  0
 10  9  1  1
 10 12  1  0
 11 10  1  0
 12 13  1  1
 13  7  1  0
 14 12  1  0
 15 14  2  0
 17 16  1  1
 17 19  1  0
 18 17  1  0
 20 19  1  1
 20 21  1  0
 20 22  1  0
 21 14  1  0
 22 23  1  0
 24 22  2  0
M  END
$$$$
