MTL.pdb
     RDKit          3D

 24 23  0  0  1  0  0  0  0  0999 V2000
    7.7464  -11.4776   19.6518 C   0  0  0  0  0  0  0  0  0  0  0  0
    8.4509  -12.1332   18.1154 S   0  0  0  0  0  0  0  0  0  0  0  0
    9.0156  -13.8424   18.3409 C   0  0  0  0  0  0  0  0  0  0  0  0
    8.4508  -14.4465   19.6093 C   0  0  0  0  0  0  0  0  0  0  0  0
    8.9083  -15.8860   19.6974 C   0  0  2  0  0  0  0  0  0  0  0  0
    8.3824  -16.6217   18.5701 N   0  0  0  0  0  0  0  0  0  0  0  0
    8.5259  -16.5050   20.9924 C   0  0  0  0  0  0  0  0  0  0  0  0
    7.3623  -16.9734   21.1189 O   0  0  0  0  0  0  0  0  0  0  0  0
    8.9118  -19.3625   22.9981 C   0  0  0  0  0  0  0  0  0  0  0  0
    9.5483  -18.3042   23.8715 C   0  0  1  0  0  0  0  0  0  0  0  0
   10.9299  -18.2490   23.6761 O   0  0  0  0  0  0  0  0  0  0  0  0
    8.9342  -16.9625   23.4429 C   0  0  2  0  0  0  0  0  0  0  0  0
    9.3953  -16.6066   22.1138 N   0  0  0  0  0  0  0  0  0  0  0  0
    9.3278  -15.9697   24.4566 C   0  0  0  0  0  0  0  0  0  0  0  0
   10.4230  -15.3579   24.3574 O   0  0  0  0  0  0  0  0  0  0  0  0
    7.9178  -12.0749   25.3108 C   0  0  0  0  0  0  0  0  0  0  0  0
    7.1651  -13.0160   26.2247 C   0  0  2  0  0  0  0  0  0  0  0  0
    6.0269  -12.2746   26.8508 C   0  0  0  0  0  0  0  0  0  0  0  0
    8.0162  -13.7857   27.1573 C   0  0  0  0  0  0  0  0  0  0  0  0
    8.9864  -14.7496   26.6206 C   0  0  2  0  0  0  0  0  0  0  0  0
    8.5389  -15.6278   25.5900 N   0  0  0  0  0  0  0  0  0  0  0  0
    9.6350  -15.4862   27.7280 C   0  0  0  0  0  0  0  0  0  0  0  0
   10.3322  -14.8207   28.7233 O   0  0  0  0  0  0  0  0  0  0  0  0
    9.5791  -16.7394   27.8076 O   0  0  0  0  0  0  0  0  0  0  0  0
  1  2  1  0
  2  3  1  0
  4  3  1  0
  5  7  1  0
  5  4  1  0
  5  6  1  6
  7  8  2  0
 10  9  1  6
 10 12  1  0
 11 10  1  0
 12 13  1  6
 13  7  1  0
 14 12  1  0
 15 14  2  0
 17 16  1  1
 17 19  1  0
 18 17  1  0
 20 19  1  1
 20 21  1  0
 20 22  1  0
 21 14  1  0
 22 23  1  0
 24 22  2  0
M  END
$$$$
