MTL.pdb
     RDKit          3D

 24 23  0  0  1  0  0  0  0  0999 V2000
    6.6736  -12.4085   15.3635 C   0  0  0  0  0  0  0  0  0  0  0  0
    7.0503  -13.8309   14.3044 S   0  0  0  0  0  0  0  0  0  0  0  0
    7.9853  -15.0882   15.2188 C   0  0  0  0  0  0  0  0  0  0  0  0
    8.9937  -14.4537   16.1532 C   0  0  0  0  0  0  0  0  0  0  0  0
    9.6964  -15.5551   16.9164 C   0  0  2  0  0  0  0  0  0  0  0  0
    8.8026  -16.6823   17.0548 N   0  0  0  0  0  0  0  0  0  0  0  0
   10.1974  -15.0783   18.2310 C   0  0  0  0  0  0  0  0  0  0  0  0
   11.1132  -14.2121   18.2515 O   0  0  0  0  0  0  0  0  0  0  0  0
    8.0083  -14.1963   21.4229 C   0  0  0  0  0  0  0  0  0  0  0  0
    9.1018  -15.1603   21.8266 C   0  0  1  0  0  0  0  0  0  0  0  0
    8.6348  -16.4762   21.8493 O   0  0  0  0  0  0  0  0  0  0  0  0
   10.1986  -15.0432   20.7568 C   0  0  2  0  0  0  0  0  0  0  0  0
    9.7072  -15.5388   19.4845 N   0  0  0  0  0  0  0  0  0  0  0  0
   11.3564  -15.8098   21.2468 C   0  0  0  0  0  0  0  0  0  0  0  0
   11.5330  -17.0007   20.8805 O   0  0  0  0  0  0  0  0  0  0  0  0
   15.2044  -15.1636   19.9127 C   0  0  0  0  0  0  0  0  0  0  0  0
   15.0788  -14.3950   21.2092 C   0  0  2  0  0  0  0  0  0  0  0  0
   16.2428  -13.4640   21.3340 C   0  0  0  0  0  0  0  0  0  0  0  0
   14.7970  -15.2283   22.3979 C   0  0  0  0  0  0  0  0  0  0  0  0
   13.5404  -15.9865   22.4661 C   0  0  2  0  0  0  0  0  0  0  0  0
   12.3369  -15.2947   22.1396 N   0  0  0  0  0  0  0  0  0  0  0  0
   13.4388  -16.6834   23.7676 C   0  0  0  0  0  0  0  0  0  0  0  0
   14.3888  -17.6114   24.1626 O   0  0  0  0  0  0  0  0  0  0  0  0
   12.4900  -16.4615   24.5614 O   0  0  0  0  0  0  0  0  0  0  0  0
  1  2  1  0
  2  3  1  0
  4  3  1  0
  5  7  1  0
  5  4  1  0
  5  6  1  1
  7  8  2  0
 10  9  1  6
 10 12  1  0
 11 10  1  0
 12 13  1  6
 13  7  1  0
 14 12  1  0
 15 14  2  0
 17 16  1  6
 17 19  1  0
 18 17  1  0
 20 19  1  1
 20 21  1  0
 20 22  1  0
 21 14  1  0
 22 23  1  0
 24 22  2  0
M  END
$$$$
