MTL.pdb
     RDKit          3D

 24 23  0  0  1  0  0  0  0  0999 V2000
    8.8170  -11.5195   20.2614 C   0  0  0  0  0  0  0  0  0  0  0  0
    8.1655  -12.3316   18.7772 S   0  0  0  0  0  0  0  0  0  0  0  0
    8.2476  -14.1366   18.9391 C   0  0  0  0  0  0  0  0  0  0  0  0
    9.6814  -14.6202   18.9948 C   0  0  0  0  0  0  0  0  0  0  0  0
    9.6731  -16.1088   19.2650 C   0  0  2  0  0  0  0  0  0  0  0  0
    9.0235  -16.7876   18.1668 N   0  0  0  0  0  0  0  0  0  0  0  0
    9.0368  -16.4263   20.5691 C   0  0  0  0  0  0  0  0  0  0  0  0
    7.7953  -16.6429   20.5998 O   0  0  0  0  0  0  0  0  0  0  0  0
    9.2660  -19.2744   22.3960 C   0  0  0  0  0  0  0  0  0  0  0  0
    9.6770  -18.2932   23.4714 C   0  0  1  0  0  0  0  0  0  0  0  0
   11.0669  -18.2035   23.5716 O   0  0  0  0  0  0  0  0  0  0  0  0
    9.1226  -16.9254   23.0439 C   0  0  2  0  0  0  0  0  0  0  0  0
    9.7429  -16.5037   21.8016 N   0  0  0  0  0  0  0  0  0  0  0  0
    9.3921  -15.9912   24.1497 C   0  0  0  0  0  0  0  0  0  0  0  0
   10.4896  -15.3788   24.2130 O   0  0  0  0  0  0  0  0  0  0  0  0
    7.6308  -11.9892   25.5988 C   0  0  0  0  0  0  0  0  0  0  0  0
    6.9154  -13.2294   26.0862 C   0  0  2  0  0  0  0  0  0  0  0  0
    5.5868  -12.8322   26.6469 C   0  0  0  0  0  0  0  0  0  0  0  0
    7.7304  -14.1177   26.9425 C   0  0  0  0  0  0  0  0  0  0  0  0
    8.8058  -14.9153   26.3376 C   0  0  2  0  0  0  0  0  0  0  0  0
    8.4750  -15.7092   25.2001 N   0  0  0  0  0  0  0  0  0  0  0  0
    9.4969  -15.7073   27.3792 C   0  0  0  0  0  0  0  0  0  0  0  0
    9.6103  -17.0844   27.2785 O   0  0  0  0  0  0  0  0  0  0  0  0
   10.0050  -15.1631   28.3918 O   0  0  0  0  0  0  0  0  0  0  0  0
  1  2  1  0
  2  3  1  0
  4  3  1  0
  5  7  1  0
  5  4  1  0
  5  6  1  6
  7  8  2  0
 10  9  1  6
 10 12  1  0
 11 10  1  0
 12 13  1  6
 13  7  1  0
 14 12  1  0
 15 14  2  0
 17 16  1  1
 17 19  1  0
 18 17  1  0
 20 19  1  1
 20 21  1  0
 20 22  1  0
 21 14  1  0
 22 23  1  0
 24 22  2  0
M  END
$$$$
