NSY.pdb
     RDKit          3D

 27 27  0  0  1  0  0  0  0  0999 V2000
   11.3408  -20.4093   17.9355 N   0  0  0  0  0  0  0  0  0  0  0  0
   10.4495  -20.2637   19.0596 C   0  0  0  0  0  0  0  0  0  0  0  0
    9.8331  -21.3012   19.3733 O   0  0  0  0  0  0  0  0  0  0  0  0
   10.2950  -18.9938   19.7593 C   0  0  0  0  0  0  0  0  0  0  0  0
    9.2402  -18.0506   19.2541 C   0  0  2  0  0  0  0  0  0  0  0  0
    9.4642  -17.9144   17.8062 N   0  0  0  0  0  0  0  0  0  0  0  0
    9.2317  -16.7203   19.8937 C   0  0  0  0  0  0  0  0  0  0  0  0
   10.2063  -15.9606   19.7407 O   0  0  0  0  0  0  0  0  0  0  0  0
    6.0781  -15.4278   22.1892 O   0  0  0  0  0  0  0  0  0  0  0  0
    6.7613  -14.4631   21.4536 C   0  0  0  0  0  0  0  0  0  0  0  0
    8.1818  -14.9582   21.2612 C   0  0  2  0  0  0  0  0  0  0  0  0
    8.1281  -16.2702   20.6943 N   0  0  0  0  0  0  0  0  0  0  0  0
    8.9021  -14.9275   22.5584 C   0  0  0  0  0  0  0  0  0  0  0  0
    8.9148  -13.9280   23.3230 O   0  0  0  0  0  0  0  0  0  0  0  0
   10.0702  -14.0463   30.4161 O   0  0  0  0  0  0  0  0  0  0  0  0
    9.8295  -14.5936   29.1595 C   0  0  0  0  0  0  0  0  0  0  0  0
    9.4055  -13.7583   28.1385 C   0  0  0  0  0  0  0  0  0  0  0  0
    9.1593  -14.2695   26.8872 C   0  0  0  0  0  0  0  0  0  0  0  0
    9.3286  -15.6318   26.6137 C   0  0  0  0  0  0  0  0  0  0  0  0
    9.0552  -16.1627   25.2789 C   0  0  0  0  0  0  0  0  0  0  0  0
   10.2287  -16.0990   24.3180 C   0  0  2  0  0  0  0  0  0  0  0  0
    9.6144  -16.0723   22.9724 N   0  0  0  0  0  0  0  0  0  0  0  0
   11.0242  -17.3437   24.4601 C   0  0  0  0  0  0  0  0  0  0  0  0
   12.2564  -17.4156   25.0900 O   0  0  0  0  0  0  0  0  0  0  0  0
    9.7470  -16.4276   27.6415 C   0  0  0  0  0  0  0  0  0  0  0  0
   10.0016  -15.9308   28.9142 C   0  0  0  0  0  0  0  0  0  0  0  0
   10.5524  -18.4030   23.9786 O   0  0  0  0  0  0  0  0  0  0  0  0
  2  1  1  0
  2  3  2  0
  4  2  1  0
  5  4  1  0
  5  6  1  6
  7  5  1  0
  7  8  2  0
 10  9  1  0
 11 10  1  1
 11 12  1  0
 12  7  1  0
 13 22  1  0
 13 11  1  0
 14 13  2  0
 16 15  1  0
 16 26  2  0
 17 16  1  0
 18 17  2  0
 18 19  1  0
 19 20  1  0
 19 25  2  0
 21 20  1  1
 21 22  1  0
 21 23  1  0
 23 27  2  0
 23 24  1  0
 25 26  1  0
M  END
$$$$
