NSY.pdb
     RDKit          3D

 27 27  0  0  1  0  0  0  0  0999 V2000
   10.1969  -18.3369   13.8377 N   0  0  0  0  0  0  0  0  0  0  0  0
   10.3977  -18.9893   15.1077 C   0  0  0  0  0  0  0  0  0  0  0  0
    9.5174  -19.8183   15.4123 O   0  0  0  0  0  0  0  0  0  0  0  0
   11.5457  -18.6878   15.9545 C   0  0  0  0  0  0  0  0  0  0  0  0
   11.2688  -18.2710   17.3712 C   0  0  2  0  0  0  0  0  0  0  0  0
    9.9777  -17.5655   17.3514 N   0  0  0  0  0  0  0  0  0  0  0  0
   12.3042  -17.4176   17.9864 C   0  0  0  0  0  0  0  0  0  0  0  0
   13.4661  -17.8503   18.1010 O   0  0  0  0  0  0  0  0  0  0  0  0
   11.8751  -13.3604   18.6323 O   0  0  0  0  0  0  0  0  0  0  0  0
   13.1066  -13.9706   18.4097 C   0  0  0  0  0  0  0  0  0  0  0  0
   13.0639  -15.3364   19.0675 C   0  0  2  0  0  0  0  0  0  0  0  0
   12.0130  -16.0947   18.4623 N   0  0  0  0  0  0  0  0  0  0  0  0
   12.8828  -15.1805   20.5323 C   0  0  0  0  0  0  0  0  0  0  0  0
   11.9656  -14.4918   21.0500 O   0  0  0  0  0  0  0  0  0  0  0  0
   11.2980  -17.6803   28.5688 O   0  0  0  0  0  0  0  0  0  0  0  0
   11.5370  -17.3878   27.2295 C   0  0  0  0  0  0  0  0  0  0  0  0
   12.1320  -18.3523   26.4322 C   0  0  0  0  0  0  0  0  0  0  0  0
   12.3811  -18.0926   25.1062 C   0  0  0  0  0  0  0  0  0  0  0  0
   12.0442  -16.8612   24.5322 C   0  0  0  0  0  0  0  0  0  0  0  0
   12.3227  -16.5964   23.1213 C   0  0  0  0  0  0  0  0  0  0  0  0
   13.5580  -15.7517   22.8661 C   0  0  2  0  0  0  0  0  0  0  0  0
   13.7772  -15.8342   21.4053 N   0  0  0  0  0  0  0  0  0  0  0  0
   14.7101  -16.3762   23.5625 C   0  0  0  0  0  0  0  0  0  0  0  0
   15.2383  -15.9221   24.7604 O   0  0  0  0  0  0  0  0  0  0  0  0
   11.4599  -15.9325   25.3451 C   0  0  0  0  0  0  0  0  0  0  0  0
   11.1992  -16.1749   26.6884 C   0  0  0  0  0  0  0  0  0  0  0  0
   15.2436  -17.3823   23.0336 O   0  0  0  0  0  0  0  0  0  0  0  0
  2  1  1  0
  2  3  2  0
  4  2  1  0
  5  4  1  0
  5  6  1  6
  7  5  1  0
  7  8  2  0
 10  9  1  0
 11 10  1  6
 11 12  1  0
 12  7  1  0
 13 22  1  0
 13 11  1  0
 14 13  2  0
 16 15  1  0
 16 26  2  0
 17 16  1  0
 18 17  2  0
 18 19  1  0
 19 20  1  0
 19 25  2  0
 21 20  1  6
 21 22  1  0
 21 23  1  0
 23 27  2  0
 23 24  1  0
 25 26  1  0
M  END
$$$$
