NSY.pdb
     RDKit          3D

 27 27  0  0  1  0  0  0  0  0999 V2000
    6.7619  -12.9084   17.8815 N   0  0  0  0  0  0  0  0  0  0  0  0
    7.9459  -13.0628   18.6897 C   0  0  0  0  0  0  0  0  0  0  0  0
    9.0118  -12.7679   18.1137 O   0  0  0  0  0  0  0  0  0  0  0  0
    7.8801  -13.5299   20.0694 C   0  0  0  0  0  0  0  0  0  0  0  0
    9.0721  -14.2710   20.6055 C   0  0  2  0  0  0  0  0  0  0  0  0
    9.5268  -15.1618   19.5263 N   0  0  0  0  0  0  0  0  0  0  0  0
    8.8245  -15.0488   21.8353 C   0  0  0  0  0  0  0  0  0  0  0  0
    8.1755  -14.5346   22.7652 O   0  0  0  0  0  0  0  0  0  0  0  0
   10.6899  -18.5550   22.4825 O   0  0  0  0  0  0  0  0  0  0  0  0
    9.4093  -18.5426   23.0285 C   0  0  0  0  0  0  0  0  0  0  0  0
    9.0024  -17.0921   23.2030 C   0  0  2  0  0  0  0  0  0  0  0  0
    9.3125  -16.3894   21.9965 N   0  0  0  0  0  0  0  0  0  0  0  0
    9.6884  -16.5194   24.3879 C   0  0  0  0  0  0  0  0  0  0  0  0
   10.8038  -15.9393   24.3324 O   0  0  0  0  0  0  0  0  0  0  0  0
    6.1331  -10.9407   25.4061 O   0  0  0  0  0  0  0  0  0  0  0  0
    6.7215  -12.0706   25.9658 C   0  0  0  0  0  0  0  0  0  0  0  0
    8.0482  -12.0056   26.3603 C   0  0  0  0  0  0  0  0  0  0  0  0
    8.6567  -13.1051   26.9157 C   0  0  0  0  0  0  0  0  0  0  0  0
    7.9607  -14.3061   27.0958 C   0  0  0  0  0  0  0  0  0  0  0  0
    8.6241  -15.4704   27.6811 C   0  0  0  0  0  0  0  0  0  0  0  0
    9.7451  -16.0521   26.8388 C   0  0  2  0  0  0  0  0  0  0  0  0
    9.0700  -16.6205   25.6515 N   0  0  0  0  0  0  0  0  0  0  0  0
   10.3874  -17.1518   27.6008 C   0  0  0  0  0  0  0  0  0  0  0  0
   10.3442  -18.4868   27.2319 O   0  0  0  0  0  0  0  0  0  0  0  0
    6.6553  -14.3371   26.6962 C   0  0  0  0  0  0  0  0  0  0  0  0
    6.0210  -13.2366   26.1325 C   0  0  0  0  0  0  0  0  0  0  0  0
   11.0115  -16.8561   28.6493 O   0  0  0  0  0  0  0  0  0  0  0  0
  2  1  1  0
  2  3  2  0
  4  2  1  0
  5  4  1  0
  5  6  1  6
  7  5  1  0
  7  8  2  0
 10  9  1  0
 11 10  1  6
 11 12  1  0
 12  7  1  0
 13 22  1  0
 13 11  1  0
 14 13  2  0
 16 15  1  0
 16 26  2  0
 17 16  1  0
 18 17  2  0
 18 19  1  0
 19 20  1  0
 19 25  2  0
 21 20  1  1
 21 22  1  0
 21 23  1  0
 23 27  2  0
 23 24  1  0
 25 26  1  0
M  END
$$$$
