NSY.pdb
     RDKit          3D

 27 27  0  0  1  0  0  0  0  0999 V2000
   11.8202  -16.9187   14.9300 N   0  0  0  0  0  0  0  0  0  0  0  0
   10.8982  -17.4753   15.8887 C   0  0  0  0  0  0  0  0  0  0  0  0
   10.4478  -18.5982   15.5870 O   0  0  0  0  0  0  0  0  0  0  0  0
   10.5336  -16.7637   17.1080 C   0  0  0  0  0  0  0  0  0  0  0  0
    9.0896  -16.3868   17.2824 C   0  0  2  0  0  0  0  0  0  0  0  0
    8.7780  -15.4297   16.2091 N   0  0  0  0  0  0  0  0  0  0  0  0
    8.7485  -15.8055   18.5956 C   0  0  0  0  0  0  0  0  0  0  0  0
    9.1990  -14.6871   18.9063 O   0  0  0  0  0  0  0  0  0  0  0  0
    6.2324  -17.7069   21.2384 O   0  0  0  0  0  0  0  0  0  0  0  0
    6.1967  -16.3159   21.1930 C   0  0  0  0  0  0  0  0  0  0  0  0
    7.5698  -15.8387   20.7605 C   0  0  2  0  0  0  0  0  0  0  0  0
    7.9083  -16.4935   19.5349 N   0  0  0  0  0  0  0  0  0  0  0  0
    8.5541  -16.1045   21.8389 C   0  0  0  0  0  0  0  0  0  0  0  0
    9.3673  -17.0647   21.8167 O   0  0  0  0  0  0  0  0  0  0  0  0
    5.0682  -11.6091   26.5083 O   0  0  0  0  0  0  0  0  0  0  0  0
    6.2298  -12.2559   26.0974 C   0  0  0  0  0  0  0  0  0  0  0  0
    6.6893  -12.0456   24.8071 C   0  0  0  0  0  0  0  0  0  0  0  0
    7.8330  -12.6706   24.3724 C   0  0  0  0  0  0  0  0  0  0  0  0
    8.5561  -13.5263   25.2117 C   0  0  0  0  0  0  0  0  0  0  0  0
    9.7673  -14.1906   24.7323 C   0  0  0  0  0  0  0  0  0  0  0  0
    9.5323  -15.5325   24.0626 C   0  0  2  0  0  0  0  0  0  0  0  0
    8.5949  -15.2433   22.9552 N   0  0  0  0  0  0  0  0  0  0  0  0
    8.8668  -16.4357   25.0340 C   0  0  0  0  0  0  0  0  0  0  0  0
    7.5362  -16.8159   24.9624 O   0  0  0  0  0  0  0  0  0  0  0  0
    8.0763  -13.7123   26.4766 C   0  0  0  0  0  0  0  0  0  0  0  0
    6.9219  -13.0899   26.9360 C   0  0  0  0  0  0  0  0  0  0  0  0
    9.5521  -16.8866   25.9846 O   0  0  0  0  0  0  0  0  0  0  0  0
  2  1  1  0
  2  3  2  0
  4  2  1  0
  5  4  1  0
  5  6  1  6
  7  5  1  0
  7  8  2  0
 10  9  1  0
 11 10  1  1
 11 12  1  0
 12  7  1  0
 13 22  1  0
 13 11  1  0
 14 13  2  0
 16 15  1  0
 16 26  2  0
 17 16  1  0
 18 17  2  0
 18 19  1  0
 19 20  1  0
 19 25  2  0
 21 20  1  1
 21 22  1  0
 21 23  1  0
 23 27  2  0
 23 24  1  0
 25 26  1  0
M  END
$$$$
