NSY.pdb
     RDKit          3D

 27 27  0  0  1  0  0  0  0  0999 V2000
    8.1985  -12.1274   17.2044 N   0  0  0  0  0  0  0  0  0  0  0  0
    7.9651  -13.5500   17.2299 C   0  0  0  0  0  0  0  0  0  0  0  0
    8.0922  -14.1185   16.1274 O   0  0  0  0  0  0  0  0  0  0  0  0
    7.6080  -14.2490   18.4587 C   0  0  0  0  0  0  0  0  0  0  0  0
    8.6774  -14.4000   19.5033 C   0  0  2  0  0  0  0  0  0  0  0  0
    9.8376  -14.9998   18.8257 N   0  0  0  0  0  0  0  0  0  0  0  0
    8.2975  -15.2134   20.6750 C   0  0  0  0  0  0  0  0  0  0  0  0
    7.3197  -14.8724   21.3665 O   0  0  0  0  0  0  0  0  0  0  0  0
   10.2576  -18.6223   21.5069 O   0  0  0  0  0  0  0  0  0  0  0  0
    8.9958  -18.5438   22.0901 C   0  0  0  0  0  0  0  0  0  0  0  0
    8.6592  -17.0739   22.2514 C   0  0  2  0  0  0  0  0  0  0  0  0
    9.0251  -16.3937   21.0476 N   0  0  0  0  0  0  0  0  0  0  0  0
    9.3523  -16.5303   23.4458 C   0  0  0  0  0  0  0  0  0  0  0  0
   10.5062  -16.0292   23.4119 O   0  0  0  0  0  0  0  0  0  0  0  0
    5.6686  -10.8908   25.2365 O   0  0  0  0  0  0  0  0  0  0  0  0
    6.2884  -12.0705   25.6374 C   0  0  0  0  0  0  0  0  0  0  0  0
    7.6729  -12.1236   25.6557 C   0  0  0  0  0  0  0  0  0  0  0  0
    8.3134  -13.2746   26.0464 C   0  0  0  0  0  0  0  0  0  0  0  0
    7.5927  -14.4109   26.4321 C   0  0  0  0  0  0  0  0  0  0  0  0
    8.2883  -15.6314   26.8379 C   0  0  0  0  0  0  0  0  0  0  0  0
    9.3965  -16.0723   25.8987 C   0  0  2  0  0  0  0  0  0  0  0  0
    8.6959  -16.5679   24.6937 N   0  0  0  0  0  0  0  0  0  0  0  0
   10.1292  -17.1990   26.5280 C   0  0  0  0  0  0  0  0  0  0  0  0
   10.0662  -18.5127   26.0916 O   0  0  0  0  0  0  0  0  0  0  0  0
    6.2301  -14.3257   26.4025 C   0  0  0  0  0  0  0  0  0  0  0  0
    5.5627  -13.1714   26.0108 C   0  0  0  0  0  0  0  0  0  0  0  0
   10.8548  -16.9485   27.5217 O   0  0  0  0  0  0  0  0  0  0  0  0
  2  1  1  0
  2  3  2  0
  4  2  1  0
  5  4  1  0
  5  6  1  6
  7  5  1  0
  7  8  2  0
 10  9  1  0
 11 10  1  6
 11 12  1  0
 12  7  1  0
 13 22  1  0
 13 11  1  0
 14 13  2  0
 16 15  1  0
 16 26  2  0
 17 16  1  0
 18 17  2  0
 18 19  1  0
 19 20  1  0
 19 25  2  0
 21 20  1  1
 21 22  1  0
 21 23  1  0
 23 27  2  0
 23 24  1  0
 25 26  1  0
M  END
$$$$
