NSY.pdb
     RDKit          3D

 27 27  0  0  1  0  0  0  0  0999 V2000
    9.1837  -13.7834   15.3020 N   0  0  0  0  0  0  0  0  0  0  0  0
    7.9681  -13.3074   15.9141 C   0  0  0  0  0  0  0  0  0  0  0  0
    7.1881  -12.7222   15.1369 O   0  0  0  0  0  0  0  0  0  0  0  0
    7.6929  -13.5040   17.3324 C   0  0  0  0  0  0  0  0  0  0  0  0
    8.7033  -14.2774   18.1315 C   0  0  2  0  0  0  0  0  0  0  0  0
    8.8186  -15.5963   17.4896 N   0  0  0  0  0  0  0  0  0  0  0  0
    8.3805  -14.4360   19.5631 C   0  0  0  0  0  0  0  0  0  0  0  0
    8.5133  -13.4659   20.3322 O   0  0  0  0  0  0  0  0  0  0  0  0
    6.9210  -17.9384   21.0485 O   0  0  0  0  0  0  0  0  0  0  0  0
    6.6986  -16.8049   21.8258 C   0  0  0  0  0  0  0  0  0  0  0  0
    7.8104  -15.8191   21.5225 C   0  0  2  0  0  0  0  0  0  0  0  0
    7.9160  -15.6828   20.1027 N   0  0  0  0  0  0  0  0  0  0  0  0
    9.0747  -16.2840   22.1455 C   0  0  0  0  0  0  0  0  0  0  0  0
    9.5867  -17.4115   21.9211 O   0  0  0  0  0  0  0  0  0  0  0  0
    6.2887  -10.7548   27.4884 O   0  0  0  0  0  0  0  0  0  0  0  0
    6.6972  -11.8892   26.7938 C   0  0  0  0  0  0  0  0  0  0  0  0
    6.9285  -11.7897   25.4312 C   0  0  0  0  0  0  0  0  0  0  0  0
    7.3321  -12.8925   24.7182 C   0  0  0  0  0  0  0  0  0  0  0  0
    7.5186  -14.1316   25.3421 C   0  0  0  0  0  0  0  0  0  0  0  0
    7.9409  -15.2985   24.5687 C   0  0  0  0  0  0  0  0  0  0  0  0
    9.4441  -15.4932   24.4836 C   0  0  2  0  0  0  0  0  0  0  0  0
    9.7525  -15.4278   23.0381 N   0  0  0  0  0  0  0  0  0  0  0  0
    9.7743  -16.8499   24.9861 C   0  0  0  0  0  0  0  0  0  0  0  0
    9.8601  -17.9793   24.1877 O   0  0  0  0  0  0  0  0  0  0  0  0
    7.2819  -14.1960   26.6855 C   0  0  0  0  0  0  0  0  0  0  0  0
    6.8732  -13.0927   27.4251 C   0  0  0  0  0  0  0  0  0  0  0  0
    9.9907  -16.9866   26.2153 O   0  0  0  0  0  0  0  0  0  0  0  0
  2  1  1  0
  2  3  2  0
  4  2  1  0
  5  4  1  0
  5  6  1  6
  7  5  1  0
  7  8  2  0
 10  9  1  0
 11 10  1  6
 11 12  1  0
 12  7  1  0
 13 22  1  0
 13 11  1  0
 14 13  2  0
 16 15  1  0
 16 26  2  0
 17 16  1  0
 18 17  2  0
 18 19  1  0
 19 20  1  0
 19 25  2  0
 21 20  1  6
 21 22  1  0
 21 23  1  0
 23 27  2  0
 23 24  1  0
 25 26  1  0
M  END
$$$$
