NSY.pdb
     RDKit          3D

 27 27  0  0  1  0  0  0  0  0999 V2000
    7.7138  -12.7037   17.0139 N   0  0  0  0  0  0  0  0  0  0  0  0
    8.6518  -13.4314   17.8321 C   0  0  0  0  0  0  0  0  0  0  0  0
    9.8501  -13.2445   17.5425 O   0  0  0  0  0  0  0  0  0  0  0  0
    8.2125  -14.3125   18.9076 C   0  0  0  0  0  0  0  0  0  0  0  0
    8.9094  -15.6366   19.0442 C   0  0  2  0  0  0  0  0  0  0  0  0
    8.5684  -16.4111   17.8405 N   0  0  0  0  0  0  0  0  0  0  0  0
    8.5633  -16.4041   20.2566 C   0  0  0  0  0  0  0  0  0  0  0  0
    7.6796  -17.2792   20.1963 O   0  0  0  0  0  0  0  0  0  0  0  0
   10.5373  -18.4890   22.0886 O   0  0  0  0  0  0  0  0  0  0  0  0
    9.1691  -18.4156   22.3353 C   0  0  0  0  0  0  0  0  0  0  0  0
    8.8383  -16.9674   22.6408 C   0  0  2  0  0  0  0  0  0  0  0  0
    9.2166  -16.1720   21.5139 N   0  0  0  0  0  0  0  0  0  0  0  0
    9.5250  -16.5501   23.8885 C   0  0  0  0  0  0  0  0  0  0  0  0
   10.6826  -16.0573   23.9134 O   0  0  0  0  0  0  0  0  0  0  0  0
    5.6696  -11.1007   25.5265 O   0  0  0  0  0  0  0  0  0  0  0  0
    6.2976  -12.2660   25.9553 C   0  0  0  0  0  0  0  0  0  0  0  0
    7.6820  -12.2968   26.0082 C   0  0  0  0  0  0  0  0  0  0  0  0
    8.3305  -13.4333   26.4270 C   0  0  0  0  0  0  0  0  0  0  0  0
    7.6184  -14.5769   26.8070 C   0  0  0  0  0  0  0  0  0  0  0  0
    8.3229  -15.7818   27.2430 C   0  0  0  0  0  0  0  0  0  0  0  0
    9.4862  -16.1920   26.3581 C   0  0  2  0  0  0  0  0  0  0  0  0
    8.8576  -16.7057   25.1213 N   0  0  0  0  0  0  0  0  0  0  0  0
   10.2183  -17.2989   27.0224 C   0  0  0  0  0  0  0  0  0  0  0  0
   10.2550  -18.6027   26.5547 O   0  0  0  0  0  0  0  0  0  0  0  0
    6.2558  -14.5138   26.7429 C   0  0  0  0  0  0  0  0  0  0  0  0
    5.5804  -13.3744   26.3225 C   0  0  0  0  0  0  0  0  0  0  0  0
   10.8466  -17.0398   28.0782 O   0  0  0  0  0  0  0  0  0  0  0  0
  2  1  1  0
  2  3  2  0
  4  2  1  0
  5  4  1  0
  5  6  1  6
  7  5  1  0
  7  8  2  0
 10  9  1  0
 11 10  1  6
 11 12  1  0
 12  7  1  0
 13 22  1  0
 13 11  1  0
 14 13  2  0
 16 15  1  0
 16 26  2  0
 17 16  1  0
 18 17  2  0
 18 19  1  0
 19 20  1  0
 19 25  2  0
 21 20  1  1
 21 22  1  0
 21 23  1  0
 23 27  2  0
 23 24  1  0
 25 26  1  0
M  END
$$$$
