NSY.pdb
     RDKit          3D

 27 27  0  0  1  0  0  0  0  0999 V2000
    8.2455  -12.0925   17.8264 N   0  0  0  0  0  0  0  0  0  0  0  0
    7.6847  -13.4206   17.7986 C   0  0  0  0  0  0  0  0  0  0  0  0
    7.4522  -13.8640   16.6567 O   0  0  0  0  0  0  0  0  0  0  0  0
    7.4170  -14.1682   19.0215 C   0  0  0  0  0  0  0  0  0  0  0  0
    8.5535  -14.3400   19.9891 C   0  0  2  0  0  0  0  0  0  0  0  0
    9.7221  -14.7406   19.1898 N   0  0  0  0  0  0  0  0  0  0  0  0
    8.3155  -15.3201   21.0668 C   0  0  0  0  0  0  0  0  0  0  0  0
    7.1839  -15.4042   21.5795 O   0  0  0  0  0  0  0  0  0  0  0  0
   10.9726  -18.2183   21.9683 O   0  0  0  0  0  0  0  0  0  0  0  0
    9.6630  -18.3948   22.4064 C   0  0  0  0  0  0  0  0  0  0  0  0
    9.0843  -17.0196   22.6786 C   0  0  2  0  0  0  0  0  0  0  0  0
    9.3547  -16.1859   21.5483 N   0  0  0  0  0  0  0  0  0  0  0  0
    9.6554  -16.4767   23.9362 C   0  0  0  0  0  0  0  0  0  0  0  0
   10.6987  -15.7742   23.9795 O   0  0  0  0  0  0  0  0  0  0  0  0
    6.3041  -10.7642   25.5686 O   0  0  0  0  0  0  0  0  0  0  0  0
    6.7873  -12.0059   25.9700 C   0  0  0  0  0  0  0  0  0  0  0  0
    8.0801  -12.0912   26.4615 C   0  0  0  0  0  0  0  0  0  0  0  0
    8.5853  -13.3034   26.8652 C   0  0  0  0  0  0  0  0  0  0  0  0
    7.8165  -14.4708   26.7916 C   0  0  0  0  0  0  0  0  0  0  0  0
    8.3706  -15.7553   27.2176 C   0  0  0  0  0  0  0  0  0  0  0  0
    9.5726  -16.2243   26.4177 C   0  0  2  0  0  0  0  0  0  0  0  0
    9.0055  -16.7519   25.1573 N   0  0  0  0  0  0  0  0  0  0  0  0
   10.2264  -17.3346   27.1541 C   0  0  0  0  0  0  0  0  0  0  0  0
   11.0558  -17.1630   28.2508 O   0  0  0  0  0  0  0  0  0  0  0  0
    6.5471  -14.3525   26.3022 C   0  0  0  0  0  0  0  0  0  0  0  0
    6.0169  -13.1363   25.8888 C   0  0  0  0  0  0  0  0  0  0  0  0
   10.0163  -18.5079   26.7594 O   0  0  0  0  0  0  0  0  0  0  0  0
  2  1  1  0
  2  3  2  0
  4  2  1  0
  5  4  1  0
  5  6  1  6
  7  5  1  0
  7  8  2  0
 10  9  1  0
 11 10  1  6
 11 12  1  0
 12  7  1  0
 13 22  1  0
 13 11  1  0
 14 13  2  0
 16 15  1  0
 16 26  2  0
 17 16  1  0
 18 17  2  0
 18 19  1  0
 19 20  1  0
 19 25  2  0
 21 20  1  1
 21 22  1  0
 21 23  1  0
 23 27  2  0
 23 24  1  0
 25 26  1  0
M  END
$$$$
