HTE.pdb
     RDKit          3D

 27 27  0  0  1  0  0  0  0  0999 V2000
    9.3500  -16.6023   20.0053 N   0  0  0  0  0  0  0  0  0  0  0  0
    9.0481  -15.6984   21.1205 C   0  0  1  0  0  0  0  0  0  0  0  0
    7.7108  -15.0472   20.7817 C   0  0  0  0  0  0  0  0  0  0  0  0
    7.8028  -14.2047   19.5634 C   0  0  0  0  0  0  0  0  0  0  0  0
    8.8862  -13.9755   18.7425 C   0  0  0  0  0  0  0  0  0  0  0  0
    8.5139  -13.1491   17.7611 N   0  0  0  0  0  0  0  0  0  0  0  0
    7.2280  -12.8605   17.9527 C   0  0  0  0  0  0  0  0  0  0  0  0
    6.7867  -13.5004   19.0502 N   0  0  0  0  0  0  0  0  0  0  0  0
    8.8130  -16.5278   22.3320 C   0  0  0  0  0  0  0  0  0  0  0  0
    7.6775  -16.4896   22.8440 O   0  0  0  0  0  0  0  0  0  0  0  0
    8.3059  -20.0843   23.0678 C   0  0  0  0  0  0  0  0  0  0  0  0
    9.5610  -19.6533   23.8317 C   0  0  1  0  0  0  0  0  0  0  0  0
   10.7017  -20.1816   23.2789 O   0  0  0  0  0  0  0  0  0  0  0  0
    9.5919  -18.1902   24.0776 C   0  0  2  0  0  0  0  0  0  0  0  0
    9.7721  -17.3479   22.9395 N   0  0  0  0  0  0  0  0  0  0  0  0
   10.6171  -17.8863   25.1273 C   0  0  0  0  0  0  0  0  0  0  0  0
   11.8208  -17.7170   24.7793 O   0  0  0  0  0  0  0  0  0  0  0  0
   10.3085  -17.7767   26.5012 N   0  0  0  0  0  0  0  0  0  0  0  0
   11.3186  -17.5466   27.5221 C   0  0  1  0  0  0  0  0  0  0  0  0
   10.9213  -16.4537   28.4387 C   0  0  0  0  0  0  0  0  0  0  0  0
   10.4216  -15.2012   27.8177 C   0  0  0  0  0  0  0  0  0  0  0  0
   10.0553  -14.0847   28.6490 C   0  0  0  0  0  0  0  0  0  0  0  0
   10.0949  -14.0133   29.8855 O   0  0  0  0  0  0  0  0  0  0  0  0
   11.7653  -18.8042   28.0834 C   0  0  0  0  0  0  0  0  0  0  0  0
   11.0728  -19.8677   27.8892 O   0  0  0  0  0  0  0  0  0  0  0  0
    9.5872  -12.9032   28.0137 O   0  0  0  0  0  0  0  0  0  0  0  0
   12.9326  -18.9015   28.8353 O   0  0  0  0  0  0  0  0  0  0  0  0
  2  9  1  0
  2  1  1  6
  3  2  1  0
  4  8  1  0
  4  3  1  0
  5  4  2  0
  6  5  1  0
  6  7  1  0
  7  8  2  0
  9 10  2  0
 12 11  1  6
 13 12  1  0
 14 12  1  0
 15  9  1  0
 14 15  1  6
 16 17  2  0
 16 14  1  0
 18 16  1  0
 19 18  1  0
 19 20  1  1
 21 20  1  0
 22 21  1  0
 22 23  2  0
 24 19  1  0
 24 27  1  0
 25 24  2  0
 26 22  1  0
M  END
$$$$
