HTE.pdb
     RDKit          3D

 27 27  0  0  1  0  0  0  0  0999 V2000
    9.0042  -15.4269   14.8876 N   0  0  0  0  0  0  0  0  0  0  0  0
    8.7739  -16.2388   16.0875 C   0  0  1  0  0  0  0  0  0  0  0  0
    9.6796  -17.4584   15.9481 C   0  0  0  0  0  0  0  0  0  0  0  0
    9.1379  -18.4367   14.9725 C   0  0  0  0  0  0  0  0  0  0  0  0
    8.5353  -19.6548   15.2032 C   0  0  0  0  0  0  0  0  0  0  0  0
    8.2026  -20.1984   14.0291 N   0  0  0  0  0  0  0  0  0  0  0  0
    8.5833  -19.3486   13.0770 C   0  0  0  0  0  0  0  0  0  0  0  0
    9.1548  -18.2714   13.6441 N   0  0  0  0  0  0  0  0  0  0  0  0
    9.2782  -15.4767   17.2604 C   0  0  0  0  0  0  0  0  0  0  0  0
   10.2535  -14.7222   17.0803 O   0  0  0  0  0  0  0  0  0  0  0  0
    7.5665  -12.7794   19.3494 C   0  0  0  0  0  0  0  0  0  0  0  0
    8.0080  -13.9164   20.2752 C   0  0  1  0  0  0  0  0  0  0  0  0
    6.9360  -14.6204   20.7661 O   0  0  0  0  0  0  0  0  0  0  0  0
    9.0886  -14.7384   19.6762 C   0  0  2  0  0  0  0  0  0  0  0  0
    8.7388  -15.5440   18.5511 N   0  0  0  0  0  0  0  0  0  0  0  0
    9.7263  -15.5725   20.7453 C   0  0  0  0  0  0  0  0  0  0  0  0
    9.3781  -16.7815   20.8703 O   0  0  0  0  0  0  0  0  0  0  0  0
   10.7076  -15.0760   21.6316 N   0  0  0  0  0  0  0  0  0  0  0  0
   11.2381  -15.8546   22.7396 C   0  0  1  0  0  0  0  0  0  0  0  0
   12.6487  -15.5028   23.0207 C   0  0  0  0  0  0  0  0  0  0  0  0
   13.6602  -16.5738   22.8359 C   0  0  0  0  0  0  0  0  0  0  0  0
   15.0521  -16.2949   23.0736 C   0  0  0  0  0  0  0  0  0  0  0  0
   15.5424  -15.3119   23.6472 O   0  0  0  0  0  0  0  0  0  0  0  0
   10.2919  -15.8844   23.8350 C   0  0  0  0  0  0  0  0  0  0  0  0
    9.4516  -14.9237   23.9744 O   0  0  0  0  0  0  0  0  0  0  0  0
   16.0112  -17.2352   22.6105 O   0  0  0  0  0  0  0  0  0  0  0  0
   10.2612  -16.9300   24.7532 O   0  0  0  0  0  0  0  0  0  0  0  0
  2  9  1  0
  2  1  1  6
  3  2  1  0
  4  8  1  0
  4  3  1  0
  5  4  2  0
  6  5  1  0
  6  7  1  0
  7  8  2  0
  9 10  2  0
 12 11  1  6
 13 12  1  0
 14 12  1  0
 15  9  1  0
 14 15  1  6
 16 17  2  0
 16 14  1  0
 18 16  1  0
 19 18  1  0
 19 20  1  1
 21 20  1  0
 22 21  1  0
 22 23  2  0
 24 19  1  0
 24 27  1  0
 25 24  2  0
 26 22  1  0
M  END
$$$$
