HTE.pdb
     RDKit          3D

 27 27  0  0  1  0  0  0  0  0999 V2000
    6.1152  -16.0199   26.2354 N   0  0  0  0  0  0  0  0  0  0  0  0
    6.5094  -15.0392   25.2183 C   0  0  1  0  0  0  0  0  0  0  0  0
    7.4001  -14.0284   25.9338 C   0  0  0  0  0  0  0  0  0  0  0  0
    6.6110  -12.9110   26.5094 C   0  0  0  0  0  0  0  0  0  0  0  0
    5.2667  -12.6358   26.3783 C   0  0  0  0  0  0  0  0  0  0  0  0
    4.9861  -11.5272   27.0688 N   0  0  0  0  0  0  0  0  0  0  0  0
    6.1218  -11.1084   27.6242 C   0  0  0  0  0  0  0  0  0  0  0  0
    7.1178  -11.9471   27.2878 N   0  0  0  0  0  0  0  0  0  0  0  0
    7.3757  -15.7301   24.2268 C   0  0  0  0  0  0  0  0  0  0  0  0
    7.7859  -16.8705   24.5169 O   0  0  0  0  0  0  0  0  0  0  0  0
    9.2230  -16.1319   19.5925 C   0  0  0  0  0  0  0  0  0  0  0  0
    8.2739  -15.4430   20.5770 C   0  0  1  0  0  0  0  0  0  0  0  0
    6.9632  -15.5485   20.1811 O   0  0  0  0  0  0  0  0  0  0  0  0
    8.5470  -15.8314   21.9829 C   0  0  2  0  0  0  0  0  0  0  0  0
    7.7643  -15.1947   22.9924 N   0  0  0  0  0  0  0  0  0  0  0  0
   10.0093  -15.6677   22.2665 C   0  0  0  0  0  0  0  0  0  0  0  0
   10.4762  -14.5045   22.4319 O   0  0  0  0  0  0  0  0  0  0  0  0
   10.9054  -16.7554   22.3607 N   0  0  0  0  0  0  0  0  0  0  0  0
   12.2311  -16.6383   22.9474 C   0  0  1  0  0  0  0  0  0  0  0  0
   12.2272  -17.0333   24.3745 C   0  0  0  0  0  0  0  0  0  0  0  0
   11.9502  -18.4599   24.6782 C   0  0  0  0  0  0  0  0  0  0  0  0
   11.9041  -18.9065   26.0458 C   0  0  0  0  0  0  0  0  0  0  0  0
   12.3835  -18.3489   27.0433 O   0  0  0  0  0  0  0  0  0  0  0  0
   13.2266  -17.2099   22.0651 C   0  0  0  0  0  0  0  0  0  0  0  0
   14.4726  -17.0015   22.2943 O   0  0  0  0  0  0  0  0  0  0  0  0
   11.2379  -20.1292   26.3280 O   0  0  0  0  0  0  0  0  0  0  0  0
   12.8760  -17.9859   20.9641 O   0  0  0  0  0  0  0  0  0  0  0  0
  2  9  1  0
  2  1  1  1
  3  2  1  0
  4  8  1  0
  4  3  1  0
  5  4  2  0
  6  5  1  0
  6  7  1  0
  7  8  2  0
  9 10  2  0
 12 11  1  6
 13 12  1  0
 14 12  1  0
 15  9  1  0
 14 15  1  1
 16 17  2  0
 16 14  1  0
 18 16  1  0
 19 18  1  0
 19 20  1  1
 21 20  1  0
 22 21  1  0
 22 23  2  0
 24 19  1  0
 24 27  1  0
 25 24  2  0
 26 22  1  0
M  END
$$$$
