HTE.pdb
     RDKit          3D

 27 27  0  0  1  0  0  0  0  0999 V2000
    8.1776  -14.3348   15.3977 N   0  0  0  0  0  0  0  0  0  0  0  0
    8.9193  -15.2566   16.2648 C   0  0  1  0  0  0  0  0  0  0  0  0
   10.2680  -15.4763   15.5865 C   0  0  0  0  0  0  0  0  0  0  0  0
   10.1671  -16.4391   14.4617 C   0  0  0  0  0  0  0  0  0  0  0  0
    9.0954  -17.2131   14.0709 C   0  0  0  0  0  0  0  0  0  0  0  0
    9.4527  -17.9338   13.0044 N   0  0  0  0  0  0  0  0  0  0  0  0
   10.7179  -17.6265   12.7243 C   0  0  0  0  0  0  0  0  0  0  0  0
   11.1611  -16.7154   13.6087 N   0  0  0  0  0  0  0  0  0  0  0  0
    9.2052  -14.5534   17.5433 C   0  0  0  0  0  0  0  0  0  0  0  0
    9.1191  -13.3102   17.5480 O   0  0  0  0  0  0  0  0  0  0  0  0
    7.5872  -13.0826   19.6765 C   0  0  0  0  0  0  0  0  0  0  0  0
    8.1886  -14.1872   20.5499 C   0  0  1  0  0  0  0  0  0  0  0  0
    7.2855  -15.1922   20.7955 O   0  0  0  0  0  0  0  0  0  0  0  0
    9.5157  -14.6311   20.0563 C   0  0  2  0  0  0  0  0  0  0  0  0
    9.5637  -15.1841   18.7413 N   0  0  0  0  0  0  0  0  0  0  0  0
   10.1225  -15.5754   21.0489 C   0  0  0  0  0  0  0  0  0  0  0  0
    9.8983  -16.8144   20.9341 O   0  0  0  0  0  0  0  0  0  0  0  0
   10.9417  -15.1520   22.1188 N   0  0  0  0  0  0  0  0  0  0  0  0
   11.5668  -16.0781   23.0499 C   0  0  1  0  0  0  0  0  0  0  0  0
   13.0141  -15.8022   23.1967 C   0  0  0  0  0  0  0  0  0  0  0  0
   13.7943  -15.6127   21.9478 C   0  0  0  0  0  0  0  0  0  0  0  0
   15.2073  -15.3475   22.0177 C   0  0  0  0  0  0  0  0  0  0  0  0
   15.8006  -14.3052   21.7060 O   0  0  0  0  0  0  0  0  0  0  0  0
   10.7565  -16.2209   24.2412 C   0  0  0  0  0  0  0  0  0  0  0  0
   11.0591  -17.1153   25.1112 O   0  0  0  0  0  0  0  0  0  0  0  0
   16.0585  -16.3794   22.4964 O   0  0  0  0  0  0  0  0  0  0  0  0
    9.6480  -15.4136   24.4788 O   0  0  0  0  0  0  0  0  0  0  0  0
  2  9  1  0
  2  1  1  6
  3  2  1  0
  4  8  1  0
  4  3  1  0
  5  4  2  0
  6  5  1  0
  6  7  1  0
  7  8  2  0
  9 10  2  0
 12 11  1  6
 13 12  1  0
 14 12  1  0
 15  9  1  0
 14 15  1  6
 16 17  2  0
 16 14  1  0
 18 16  1  0
 19 18  1  0
 19 20  1  1
 21 20  1  0
 22 21  1  0
 22 23  2  0
 24 19  1  0
 24 27  1  0
 25 24  2  0
 26 22  1  0
M  END
$$$$
