HTE.pdb
     RDKit          3D

 27 27  0  0  1  0  0  0  0  0999 V2000
    9.0489  -14.8099   16.0290 N   0  0  0  0  0  0  0  0  0  0  0  0
    9.7775  -15.5871   17.0374 C   0  0  1  0  0  0  0  0  0  0  0  0
   11.2494  -15.5074   16.6446 C   0  0  0  0  0  0  0  0  0  0  0  0
   11.5611  -16.3963   15.4978 C   0  0  0  0  0  0  0  0  0  0  0  0
   10.7162  -17.2030   14.7661 C   0  0  0  0  0  0  0  0  0  0  0  0
   11.4282  -17.8281   13.8243 N   0  0  0  0  0  0  0  0  0  0  0  0
   12.6924  -17.4296   13.9537 C   0  0  0  0  0  0  0  0  0  0  0  0
   12.7820  -16.5562   14.9724 N   0  0  0  0  0  0  0  0  0  0  0  0
    9.6543  -14.8789   18.3390 C   0  0  0  0  0  0  0  0  0  0  0  0
    9.8547  -13.6490   18.3461 O   0  0  0  0  0  0  0  0  0  0  0  0
    7.4701  -13.0400   20.0506 C   0  0  0  0  0  0  0  0  0  0  0  0
    7.6745  -14.2684   20.9416 C   0  0  1  0  0  0  0  0  0  0  0  0
    6.6383  -15.1620   20.8244 O   0  0  0  0  0  0  0  0  0  0  0  0
    9.0331  -14.8469   20.7947 C   0  0  2  0  0  0  0  0  0  0  0  0
    9.3301  -15.4911   19.5561 N   0  0  0  0  0  0  0  0  0  0  0  0
    9.3074  -15.7649   21.9468 C   0  0  0  0  0  0  0  0  0  0  0  0
    9.4384  -17.0031   21.7275 O   0  0  0  0  0  0  0  0  0  0  0  0
    9.4297  -15.3169   23.2807 N   0  0  0  0  0  0  0  0  0  0  0  0
    9.7076  -16.2124   24.3926 C   0  0  1  0  0  0  0  0  0  0  0  0
   10.2535  -15.4764   25.5557 C   0  0  0  0  0  0  0  0  0  0  0  0
   10.5546  -16.2694   26.7743 C   0  0  0  0  0  0  0  0  0  0  0  0
   11.0827  -15.6161   27.9431 C   0  0  0  0  0  0  0  0  0  0  0  0
   11.4614  -14.4411   28.0504 O   0  0  0  0  0  0  0  0  0  0  0  0
    8.6010  -17.1233   24.5966 C   0  0  0  0  0  0  0  0  0  0  0  0
    7.4061  -16.7419   24.3225 O   0  0  0  0  0  0  0  0  0  0  0  0
   11.2000  -16.3755   29.1381 O   0  0  0  0  0  0  0  0  0  0  0  0
    8.7893  -18.4128   25.0855 O   0  0  0  0  0  0  0  0  0  0  0  0
  2  9  1  0
  2  1  1  6
  3  2  1  0
  4  8  1  0
  4  3  1  0
  5  4  2  0
  6  5  1  0
  6  7  1  0
  7  8  2  0
  9 10  2  0
 12 11  1  6
 13 12  1  0
 14 12  1  0
 15  9  1  0
 14 15  1  6
 16 17  2  0
 16 14  1  0
 18 16  1  0
 19 18  1  0
 19 20  1  1
 21 20  1  0
 22 21  1  0
 22 23  2  0
 24 19  1  0
 24 27  1  0
 25 24  2  0
 26 22  1  0
M  END
$$$$
