HTE.pdb
     RDKit          3D

 27 27  0  0  1  0  0  0  0  0999 V2000
    9.5417  -16.9389   17.7878 N   0  0  0  0  0  0  0  0  0  0  0  0
   10.7030  -16.7691   18.6677 C   0  0  1  0  0  0  0  0  0  0  0  0
   11.7503  -16.0294   17.8411 C   0  0  0  0  0  0  0  0  0  0  0  0
   12.2790  -16.8738   16.7411 C   0  0  0  0  0  0  0  0  0  0  0  0
   13.3563  -17.7338   16.7437 C   0  0  0  0  0  0  0  0  0  0  0  0
   13.4669  -18.2869   15.5327 N   0  0  0  0  0  0  0  0  0  0  0  0
   12.4861  -17.7918   14.7799 C   0  0  0  0  0  0  0  0  0  0  0  0
   11.7569  -16.9290   15.5096 N   0  0  0  0  0  0  0  0  0  0  0  0
   10.3137  -15.8480   19.7681 C   0  0  0  0  0  0  0  0  0  0  0  0
   10.8905  -14.7449   19.8265 O   0  0  0  0  0  0  0  0  0  0  0  0
    7.3161  -13.7607   20.7542 C   0  0  0  0  0  0  0  0  0  0  0  0
    7.5646  -14.8033   21.8478 C   0  0  1  0  0  0  0  0  0  0  0  0
    6.5943  -15.7751   21.8565 O   0  0  0  0  0  0  0  0  0  0  0  0
    8.9628  -15.3004   21.8400 C   0  0  2  0  0  0  0  0  0  0  0  0
    9.3477  -16.1282   20.7427 N   0  0  0  0  0  0  0  0  0  0  0  0
    9.2532  -15.9815   23.1428 C   0  0  0  0  0  0  0  0  0  0  0  0
    9.3978  -17.2374   23.1602 O   0  0  0  0  0  0  0  0  0  0  0  0
    9.3761  -15.2885   24.3674 N   0  0  0  0  0  0  0  0  0  0  0  0
    9.6269  -15.9594   25.6332 C   0  0  1  0  0  0  0  0  0  0  0  0
   10.0028  -14.9942   26.6912 C   0  0  0  0  0  0  0  0  0  0  0  0
   10.3102  -15.5505   28.0330 C   0  0  0  0  0  0  0  0  0  0  0  0
   10.7222  -14.6726   29.0966 C   0  0  0  0  0  0  0  0  0  0  0  0
   10.7679  -13.4343   29.0844 O   0  0  0  0  0  0  0  0  0  0  0  0
    8.5864  -16.9283   25.9064 C   0  0  0  0  0  0  0  0  0  0  0  0
    7.3700  -16.6579   25.5968 O   0  0  0  0  0  0  0  0  0  0  0  0
   11.1333  -15.2569   30.3246 O   0  0  0  0  0  0  0  0  0  0  0  0
    8.8616  -18.1567   26.5002 O   0  0  0  0  0  0  0  0  0  0  0  0
  2  9  1  0
  2  1  1  6
  3  2  1  0
  4  8  1  0
  4  3  1  0
  5  4  2  0
  6  5  1  0
  6  7  1  0
  7  8  2  0
  9 10  2  0
 12 11  1  6
 13 12  1  0
 14 12  1  0
 15  9  1  0
 14 15  1  6
 16 17  2  0
 16 14  1  0
 18 16  1  0
 19 18  1  0
 19 20  1  1
 21 20  1  0
 22 21  1  0
 22 23  2  0
 24 19  1  0
 24 27  1  0
 25 24  2  0
 26 22  1  0
M  END
$$$$
