HTE.pdb
     RDKit          3D

 27 27  0  0  1  0  0  0  0  0999 V2000
    9.0874  -17.0012   19.5829 N   0  0  0  0  0  0  0  0  0  0  0  0
    9.4047  -16.6281   20.9657 C   0  0  1  0  0  0  0  0  0  0  0  0
    8.2256  -15.7933   21.4554 C   0  0  0  0  0  0  0  0  0  0  0  0
    8.2604  -14.4161   20.9034 C   0  0  0  0  0  0  0  0  0  0  0  0
    9.1569  -13.8540   20.0200 C   0  0  0  0  0  0  0  0  0  0  0  0
    8.8032  -12.5849   19.7988 N   0  0  0  0  0  0  0  0  0  0  0  0
    7.7109  -12.3462   20.5223 C   0  0  0  0  0  0  0  0  0  0  0  0
    7.3732  -13.4581   21.1991 N   0  0  0  0  0  0  0  0  0  0  0  0
    9.4069  -17.8683   21.7860 C   0  0  0  0  0  0  0  0  0  0  0  0
    8.7840  -18.8524   21.3429 O   0  0  0  0  0  0  0  0  0  0  0  0
   11.2079  -20.3417   21.3853 C   0  0  0  0  0  0  0  0  0  0  0  0
   11.7363  -19.8134   22.7219 C   0  0  1  0  0  0  0  0  0  0  0  0
   12.8688  -19.0540   22.5587 O   0  0  0  0  0  0  0  0  0  0  0  0
   10.6662  -19.1920   23.5408 C   0  0  2  0  0  0  0  0  0  0  0  0
   10.0564  -18.0119   23.0184 N   0  0  0  0  0  0  0  0  0  0  0  0
   11.1807  -18.9513   24.9274 C   0  0  0  0  0  0  0  0  0  0  0  0
   11.6392  -17.8106   25.2228 O   0  0  0  0  0  0  0  0  0  0  0  0
   11.1810  -19.9410   25.9350 N   0  0  0  0  0  0  0  0  0  0  0  0
   11.5010  -19.6539   27.3245 C   0  0  1  0  0  0  0  0  0  0  0  0
   10.7491  -20.5364   28.2456 C   0  0  0  0  0  0  0  0  0  0  0  0
   11.0967  -20.4590   29.6870 C   0  0  0  0  0  0  0  0  0  0  0  0
   10.4670  -21.3502   30.6257 C   0  0  0  0  0  0  0  0  0  0  0  0
    9.5949  -22.2005   30.3979 O   0  0  0  0  0  0  0  0  0  0  0  0
   12.9322  -19.5189   27.4959 C   0  0  0  0  0  0  0  0  0  0  0  0
   13.3915  -18.7676   28.4303 O   0  0  0  0  0  0  0  0  0  0  0  0
   10.8657  -21.2776   31.9874 O   0  0  0  0  0  0  0  0  0  0  0  0
   13.8381  -20.1825   26.6736 O   0  0  0  0  0  0  0  0  0  0  0  0
  2  9  1  0
  2  1  1  6
  3  2  1  0
  4  8  1  0
  4  3  1  0
  5  4  2  0
  6  5  1  0
  6  7  1  0
  7  8  2  0
  9 10  2  0
 12 11  1  6
 13 12  1  0
 14 12  1  0
 15  9  1  0
 14 15  1  6
 16 17  2  0
 16 14  1  0
 18 16  1  0
 19 18  1  0
 19 20  1  1
 21 20  1  0
 22 21  1  0
 22 23  2  0
 24 19  1  0
 24 27  1  0
 25 24  2  0
 26 22  1  0
M  END
$$$$
