HTE.pdb
     RDKit          3D

 27 27  0  0  1  0  0  0  0  0999 V2000
    4.0997  -20.6279   14.6380 N   0  0  0  0  0  0  0  0  0  0  0  0
    5.4513  -20.5569   15.2037 C   0  0  1  0  0  0  0  0  0  0  0  0
    5.6798  -19.0914   15.5603 C   0  0  0  0  0  0  0  0  0  0  0  0
    5.8751  -18.2552   14.3499 C   0  0  0  0  0  0  0  0  0  0  0  0
    5.9238  -18.6367   13.0261 C   0  0  0  0  0  0  0  0  0  0  0  0
    6.1171  -17.5503   12.2731 N   0  0  0  0  0  0  0  0  0  0  0  0
    6.1895  -16.5057   13.0961 C   0  0  0  0  0  0  0  0  0  0  0  0
    6.0428  -16.9272   14.3647 N   0  0  0  0  0  0  0  0  0  0  0  0
    5.4498  -21.3036   16.4896 C   0  0  0  0  0  0  0  0  0  0  0  0
    4.4918  -21.1144   17.2637 O   0  0  0  0  0  0  0  0  0  0  0  0
    4.0509  -23.9591   17.7793 C   0  0  0  0  0  0  0  0  0  0  0  0
    5.5400  -24.3107   17.8403 C   0  0  1  0  0  0  0  0  0  0  0  0
    5.9051  -25.1629   16.8272 O   0  0  0  0  0  0  0  0  0  0  0  0
    6.3935  -23.1070   17.9976 C   0  0  2  0  0  0  0  0  0  0  0  0
    6.4443  -22.2027   16.8945 N   0  0  0  0  0  0  0  0  0  0  0  0
    7.7743  -23.5284   18.3992 C   0  0  0  0  0  0  0  0  0  0  0  0
    8.6672  -23.6332   17.5102 O   0  0  0  0  0  0  0  0  0  0  0  0
    8.1374  -23.8181   19.7331 N   0  0  0  0  0  0  0  0  0  0  0  0
    9.4725  -24.2533   20.1117 C   0  0  1  0  0  0  0  0  0  0  0  0
    9.8036  -23.8403   21.4946 C   0  0  0  0  0  0  0  0  0  0  0  0
    9.8538  -22.3821   21.7689 C   0  0  0  0  0  0  0  0  0  0  0  0
   10.1301  -21.9115   23.1008 C   0  0  0  0  0  0  0  0  0  0  0  0
    9.8096  -22.4403   24.1747 O   0  0  0  0  0  0  0  0  0  0  0  0
    9.6841  -25.6317   19.7227 C   0  0  0  0  0  0  0  0  0  0  0  0
    8.7090  -26.4649   19.7821 O   0  0  0  0  0  0  0  0  0  0  0  0
   10.8554  -20.6984   23.2444 O   0  0  0  0  0  0  0  0  0  0  0  0
   10.9219  -26.0907   19.2818 O   0  0  0  0  0  0  0  0  0  0  0  0
  2  9  1  0
  2  1  1  1
  3  2  1  0
  4  8  1  0
  4  3  1  0
  5  4  2  0
  6  5  1  0
  6  7  1  0
  7  8  2  0
  9 10  2  0
 12 11  1  6
 13 12  1  0
 14 12  1  0
 15  9  1  0
 14 15  1  6
 16 17  2  0
 16 14  1  0
 18 16  1  0
 19 18  1  0
 19 20  1  1
 21 20  1  0
 22 21  1  0
 22 23  2  0
 24 19  1  0
 24 27  1  0
 25 24  2  0
 26 22  1  0
M  END
$$$$
