HTE.pdb
     RDKit          3D

 27 27  0  0  1  0  0  0  0  0999 V2000
   10.0487  -15.9294   16.6878 N   0  0  0  0  0  0  0  0  0  0  0  0
   10.6737  -14.8469   17.4554 C   0  0  1  0  0  0  0  0  0  0  0  0
    9.8546  -14.7138   18.7354 C   0  0  0  0  0  0  0  0  0  0  0  0
    8.6452  -13.8787   18.5296 C   0  0  0  0  0  0  0  0  0  0  0  0
    8.1953  -13.2653   17.3801 C   0  0  0  0  0  0  0  0  0  0  0  0
    7.0615  -12.6149   17.6560 N   0  0  0  0  0  0  0  0  0  0  0  0
    6.7974  -12.8094   18.9468 C   0  0  0  0  0  0  0  0  0  0  0  0
    7.7587  -13.5793   19.4870 N   0  0  0  0  0  0  0  0  0  0  0  0
   12.0267  -15.3021   17.8715 C   0  0  0  0  0  0  0  0  0  0  0  0
   12.3019  -16.5073   17.7146 O   0  0  0  0  0  0  0  0  0  0  0  0
   16.8278  -14.5728   18.4835 C   0  0  0  0  0  0  0  0  0  0  0  0
   15.4358  -14.1904   17.9727 C   0  0  1  0  0  0  0  0  0  0  0  0
   15.3372  -14.3259   16.6097 O   0  0  0  0  0  0  0  0  0  0  0  0
   14.3546  -14.8377   18.7562 C   0  0  2  0  0  0  0  0  0  0  0  0
   13.0135  -14.4775   18.4262 N   0  0  0  0  0  0  0  0  0  0  0  0
   14.6121  -14.6330   20.2181 C   0  0  0  0  0  0  0  0  0  0  0  0
   14.1116  -13.6250   20.7944 O   0  0  0  0  0  0  0  0  0  0  0  0
   15.3925  -15.5156   20.9972 N   0  0  0  0  0  0  0  0  0  0  0  0
   15.2700  -15.6119   22.4433 C   0  0  1  0  0  0  0  0  0  0  0  0
   13.9995  -16.2631   22.8358 C   0  0  0  0  0  0  0  0  0  0  0  0
   13.7765  -16.4863   24.2865 C   0  0  0  0  0  0  0  0  0  0  0  0
   12.6076  -17.1986   24.7316 C   0  0  0  0  0  0  0  0  0  0  0  0
   12.2448  -18.3389   24.4096 O   0  0  0  0  0  0  0  0  0  0  0  0
   16.5086  -16.0850   23.0249 C   0  0  0  0  0  0  0  0  0  0  0  0
   17.1711  -17.0149   22.4377 O   0  0  0  0  0  0  0  0  0  0  0  0
   11.7395  -16.5509   25.6510 O   0  0  0  0  0  0  0  0  0  0  0  0
   17.0117  -15.5613   24.2123 O   0  0  0  0  0  0  0  0  0  0  0  0
  2  9  1  0
  2  1  1  6
  3  2  1  0
  4  8  1  0
  4  3  1  0
  5  4  2  0
  6  5  1  0
  6  7  1  0
  7  8  2  0
  9 10  2  0
 12 11  1  1
 13 12  1  0
 14 12  1  0
 15  9  1  0
 14 15  1  6
 16 17  2  0
 16 14  1  0
 18 16  1  0
 19 18  1  0
 19 20  1  6
 21 20  1  0
 22 21  1  0
 22 23  2  0
 24 19  1  0
 24 27  1  0
 25 24  2  0
 26 22  1  0
M  END
$$$$
