FRM.pdb
     RDKit          3D

 31 31  0  0  1  0  0  0  0  0999 V2000
    6.1184  -18.1766   26.6660 N   0  0  0  0  0  0  0  0  0  0  0  0
    6.3357  -16.8399   26.1366 C   0  0  1  0  0  0  0  0  0  0  0  0
    6.9430  -15.9331   27.1919 C   0  0  0  0  0  0  0  0  0  0  0  0
    6.5019  -14.5194   26.9883 C   0  0  0  0  0  0  0  0  0  0  0  0
    7.3087  -13.4474   27.2901 C   0  0  0  0  0  0  0  0  0  0  0  0
    6.9300  -12.1423   27.1053 C   0  0  0  0  0  0  0  0  0  0  0  0
    5.6775  -11.8484   26.5903 C   0  0  0  0  0  0  0  0  0  0  0  0
    4.8568  -12.9118   26.2833 C   0  0  0  0  0  0  0  0  0  0  0  0
    5.2549  -14.2284   26.4761 C   0  0  0  0  0  0  0  0  0  0  0  0
    7.1576  -16.8656   24.9055 C   0  0  0  0  0  0  0  0  0  0  0  0
    8.1046  -17.7062   24.7556 O   0  0  0  0  0  0  0  0  0  0  0  0
   10.3351  -14.6917   18.2389 N   0  0  0  0  0  0  0  0  0  0  0  0
    9.3068  -13.7328   18.0572 C   0  0  0  0  0  0  0  0  0  0  0  0
    9.6252  -12.5156   17.8520 N   0  0  0  0  0  0  0  0  0  0  0  0
    7.9386  -14.1264   18.1051 N   0  0  0  0  0  0  0  0  0  0  0  0
    7.2233  -14.1175   19.3584 C   0  0  0  0  0  0  0  0  0  0  0  0
    7.9889  -14.9120   20.4032 C   0  0  0  0  0  0  0  0  0  0  0  0
    7.2089  -14.9829   21.6584 C   0  0  0  0  0  0  0  0  0  0  0  0
    7.8476  -15.9482   22.6579 C   0  0  2  0  0  0  0  0  0  0  0  0
    6.9434  -15.9660   23.8223 N   0  0  0  0  0  0  0  0  0  0  0  0
    9.1850  -15.4565   23.0238 C   0  0  0  0  0  0  0  0  0  0  0  0
    9.4054  -14.2198   23.2504 O   0  0  0  0  0  0  0  0  0  0  0  0
    8.9944  -11.7212   17.7391 C   0  0  0  0  0  0  0  0  0  0  0  0
   10.3055  -16.0751   28.5392 S   0  0  0  0  0  0  0  0  0  0  0  0
   11.6848  -15.1142   27.9417 C   0  0  0  0  0  0  0  0  0  0  0  0
   12.1730  -15.3687   26.2560 C   0  0  0  0  0  0  0  0  0  0  0  0
   11.0613  -15.6185   25.2972 C   0  0  1  0  0  0  0  0  0  0  0  0
   11.5239  -15.8243   23.8768 N   0  0  0  0  0  0  0  0  0  0  0  0
   10.3254  -16.2959   23.1575 C   0  0  0  0  0  0  0  0  0  0  0  0
   12.4840  -16.9521   23.8102 O   0  0  0  0  0  0  0  0  0  0  0  0
   12.1049  -18.2178   23.4247 O   0  0  0  0  0  0  0  0  0  0  0  0
  2  1  1  1
  2 10  1  0
  3  2  1  0
  3  4  1  0
  4  9  2  0
  4  5  1  0
  5  6  2  0
  6  7  1  0
  8  7  2  0
  9  8  1  0
 10 11  2  0
 13 15  1  0
 13 12  1  0
 14 13  2  0
 16 15  1  0
 16 17  1  0
 17 18  1  0
 19 18  1  6
 20 10  1  0
 20 19  1  0
 21 19  1  0
 21 22  2  0
 23 24  1  0
 24 25  1  0
 25 26  1  0
 27 26  1  6
 27 28  1  0
 28 21  1  0
 29 30  1  0
 29 27  1  0
 31 29  2  0
M  END
$$$$
