FRM.pdb
     RDKit          3D

 31 31  0  0  1  0  0  0  0  0999 V2000
    7.3285  -17.0447   25.8088 N   0  0  0  0  0  0  0  0  0  0  0  0
    6.5466  -17.1709   24.5894 C   0  0  1  0  0  0  0  0  0  0  0  0
    5.4484  -16.1236   24.5411 C   0  0  0  0  0  0  0  0  0  0  0  0
    5.9720  -14.7916   24.9725 C   0  0  0  0  0  0  0  0  0  0  0  0
    6.6589  -13.9607   24.1188 C   0  0  0  0  0  0  0  0  0  0  0  0
    7.1422  -12.7315   24.4882 C   0  0  0  0  0  0  0  0  0  0  0  0
    6.9485  -12.2683   25.7799 C   0  0  0  0  0  0  0  0  0  0  0  0
    6.2623  -13.0895   26.6478 C   0  0  0  0  0  0  0  0  0  0  0  0
    5.7789  -14.3320   26.2584 C   0  0  0  0  0  0  0  0  0  0  0  0
    7.4020  -17.1156   23.3823 C   0  0  0  0  0  0  0  0  0  0  0  0
    7.3922  -18.0520   22.5169 O   0  0  0  0  0  0  0  0  0  0  0  0
    8.6734  -12.1801   17.9888 N   0  0  0  0  0  0  0  0  0  0  0  0
    8.2827  -13.5319   17.8166 C   0  0  0  0  0  0  0  0  0  0  0  0
    8.4916  -14.0980   16.6936 N   0  0  0  0  0  0  0  0  0  0  0  0
    7.6648  -14.2445   18.8841 N   0  0  0  0  0  0  0  0  0  0  0  0
    8.1878  -14.1419   20.2252 C   0  0  0  0  0  0  0  0  0  0  0  0
    9.4426  -14.9877   20.3633 C   0  0  0  0  0  0  0  0  0  0  0  0
    9.9295  -14.9483   21.7598 C   0  0  0  0  0  0  0  0  0  0  0  0
    9.6010  -16.2445   22.5016 C   0  0  2  0  0  0  0  0  0  0  0  0
    8.2773  -16.0249   23.1128 N   0  0  0  0  0  0  0  0  0  0  0  0
   10.6293  -16.4956   23.5231 C   0  0  0  0  0  0  0  0  0  0  0  0
   11.8721  -16.5147   23.2322 O   0  0  0  0  0  0  0  0  0  0  0  0
    8.3106  -15.0720   16.4481 C   0  0  0  0  0  0  0  0  0  0  0  0
    9.5766  -13.0688   28.6479 S   0  0  0  0  0  0  0  0  0  0  0  0
   10.9007  -14.1050   29.2444 C   0  0  0  0  0  0  0  0  0  0  0  0
   11.5500  -15.3101   28.1172 C   0  0  0  0  0  0  0  0  0  0  0  0
   10.7764  -15.4925   26.8579 C   0  0  1  0  0  0  0  0  0  0  0  0
   11.3701  -16.5206   25.9281 N   0  0  0  0  0  0  0  0  0  0  0  0
   10.3382  -16.7314   24.8953 C   0  0  0  0  0  0  0  0  0  0  0  0
   11.4956  -17.8250   26.6216 O   0  0  0  0  0  0  0  0  0  0  0  0
   12.4845  -18.0732   27.5462 O   0  0  0  0  0  0  0  0  0  0  0  0
  2  1  1  1
  2 10  1  0
  3  2  1  0
  3  4  1  0
  4  9  2  0
  4  5  1  0
  5  6  2  0
  6  7  1  0
  8  7  2  0
  9  8  1  0
 10 11  2  0
 13 15  1  0
 13 12  1  0
 14 13  2  0
 16 15  1  0
 16 17  1  0
 17 18  1  0
 19 18  1  1
 20 10  1  0
 20 19  1  0
 21 19  1  0
 21 22  2  0
 23 24  1  0
 24 25  1  0
 25 26  1  0
 27 26  1  6
 27 28  1  0
 28 21  1  0
 29 30  1  0
 29 27  1  0
 31 29  2  0
M  END
$$$$
