FRM.pdb
     RDKit          3D

 31 31  0  0  1  0  0  0  0  0999 V2000
    6.4661  -16.5020   26.6588 N   0  0  0  0  0  0  0  0  0  0  0  0
    6.7819  -15.6657   25.5119 C   0  0  1  0  0  0  0  0  0  0  0  0
    7.5736  -14.4421   25.9372 C   0  0  0  0  0  0  0  0  0  0  0  0
    6.6582  -13.3679   26.4299 C   0  0  0  0  0  0  0  0  0  0  0  0
    5.4063  -13.1681   25.8972 C   0  0  0  0  0  0  0  0  0  0  0  0
    4.5455  -12.1951   26.3367 C   0  0  0  0  0  0  0  0  0  0  0  0
    4.9208  -11.3498   27.3688 C   0  0  0  0  0  0  0  0  0  0  0  0
    6.1728  -11.5369   27.9130 C   0  0  0  0  0  0  0  0  0  0  0  0
    7.0332  -12.5272   27.4568 C   0  0  0  0  0  0  0  0  0  0  0  0
    7.4868  -16.4277   24.4562 C   0  0  0  0  0  0  0  0  0  0  0  0
    8.1515  -17.4814   24.7281 O   0  0  0  0  0  0  0  0  0  0  0  0
    9.8957  -13.8232   16.8361 N   0  0  0  0  0  0  0  0  0  0  0  0
    9.0130  -13.4966   17.8963 C   0  0  0  0  0  0  0  0  0  0  0  0
    8.9884  -12.2996   18.3342 N   0  0  0  0  0  0  0  0  0  0  0  0
    8.1682  -14.4937   18.4630 N   0  0  0  0  0  0  0  0  0  0  0  0
    8.5244  -15.8888   18.3661 C   0  0  0  0  0  0  0  0  0  0  0  0
    9.0079  -16.4000   19.7130 C   0  0  0  0  0  0  0  0  0  0  0  0
    8.1205  -15.9089   20.7900 C   0  0  0  0  0  0  0  0  0  0  0  0
    8.4698  -16.5476   22.1348 C   0  0  2  0  0  0  0  0  0  0  0  0
    7.4651  -16.0387   23.0864 N   0  0  0  0  0  0  0  0  0  0  0  0
    9.8306  -16.1477   22.5255 C   0  0  0  0  0  0  0  0  0  0  0  0
   10.2149  -14.9320   22.4655 O   0  0  0  0  0  0  0  0  0  0  0  0
    8.4436  -11.9383   19.1181 C   0  0  0  0  0  0  0  0  0  0  0  0
   10.2147  -14.0939   27.8624 S   0  0  0  0  0  0  0  0  0  0  0  0
   11.2386  -15.5548   27.8613 C   0  0  0  0  0  0  0  0  0  0  0  0
   12.0475  -15.9696   26.3387 C   0  0  0  0  0  0  0  0  0  0  0  0
   11.1451  -16.2227   25.1814 C   0  0  1  0  0  0  0  0  0  0  0  0
   11.8753  -16.6063   23.9190 N   0  0  0  0  0  0  0  0  0  0  0  0
   10.8164  -17.0583   22.9968 C   0  0  0  0  0  0  0  0  0  0  0  0
   12.7165  -17.8034   24.1588 O   0  0  0  0  0  0  0  0  0  0  0  0
   12.3668  -19.0516   23.6963 O   0  0  0  0  0  0  0  0  0  0  0  0
  2  1  1  1
  2 10  1  0
  3  2  1  0
  3  4  1  0
  4  9  2  0
  4  5  1  0
  5  6  2  0
  6  7  1  0
  8  7  2  0
  9  8  1  0
 10 11  2  0
 13 15  1  0
 13 12  1  0
 14 13  2  0
 16 15  1  0
 16 17  1  0
 17 18  1  0
 19 18  1  6
 20 10  1  0
 20 19  1  0
 21 19  1  0
 21 22  2  0
 23 24  1  0
 24 25  1  0
 25 26  1  0
 27 26  1  6
 27 28  1  0
 28 21  1  0
 29 30  1  0
 29 27  1  0
 31 29  2  0
M  END
$$$$
