FRM.pdb
     RDKit          3D

 31 31  0  0  1  0  0  0  0  0999 V2000
    5.8838  -18.3448   25.0379 N   0  0  0  0  0  0  0  0  0  0  0  0
    6.2323  -16.9362   24.9442 C   0  0  1  0  0  0  0  0  0  0  0  0
    6.4539  -16.3418   26.3235 C   0  0  0  0  0  0  0  0  0  0  0  0
    6.6122  -14.8578   26.2380 C   0  0  0  0  0  0  0  0  0  0  0  0
    7.8426  -14.2562   26.1138 C   0  0  0  0  0  0  0  0  0  0  0  0
    8.0133  -12.8983   26.0257 C   0  0  0  0  0  0  0  0  0  0  0  0
    6.9134  -12.0560   26.0604 C   0  0  0  0  0  0  0  0  0  0  0  0
    5.6733  -12.6434   26.1851 C   0  0  0  0  0  0  0  0  0  0  0  0
    5.5167  -14.0207   26.2730 C   0  0  0  0  0  0  0  0  0  0  0  0
    7.4040  -16.7194   24.0656 C   0  0  0  0  0  0  0  0  0  0  0  0
    8.4382  -17.4614   24.1412 O   0  0  0  0  0  0  0  0  0  0  0  0
    7.8621  -13.0475   15.8162 N   0  0  0  0  0  0  0  0  0  0  0  0
    8.4781  -13.9138   16.7542 C   0  0  0  0  0  0  0  0  0  0  0  0
    9.7508  -13.9746   16.7972 N   0  0  0  0  0  0  0  0  0  0  0  0
    7.6841  -14.7046   17.6336 N   0  0  0  0  0  0  0  0  0  0  0  0
    7.4391  -14.2639   18.9858 C   0  0  0  0  0  0  0  0  0  0  0  0
    8.5940  -14.6705   19.8858 C   0  0  0  0  0  0  0  0  0  0  0  0
    8.2803  -14.3409   21.2935 C   0  0  0  0  0  0  0  0  0  0  0  0
    8.6311  -15.4989   22.2287 C   0  0  2  0  0  0  0  0  0  0  0  0
    7.4486  -15.6828   23.0900 N   0  0  0  0  0  0  0  0  0  0  0  0
    9.8207  -15.1446   23.0182 C   0  0  0  0  0  0  0  0  0  0  0  0
    9.9849  -13.9709   23.4925 O   0  0  0  0  0  0  0  0  0  0  0  0
   10.3231  -14.5157   17.4463 C   0  0  0  0  0  0  0  0  0  0  0  0
   11.0882  -12.7229   28.1968 S   0  0  0  0  0  0  0  0  0  0  0  0
   11.5644  -14.4408   28.1258 C   0  0  0  0  0  0  0  0  0  0  0  0
   12.2825  -15.0150   26.6095 C   0  0  0  0  0  0  0  0  0  0  0  0
   11.3180  -15.3043   25.5124 C   0  0  1  0  0  0  0  0  0  0  0  0
   11.9797  -15.6589   24.2046 N   0  0  0  0  0  0  0  0  0  0  0  0
   10.8692  -16.0574   23.3192 C   0  0  0  0  0  0  0  0  0  0  0  0
   12.8050  -16.8802   24.3639 O   0  0  0  0  0  0  0  0  0  0  0  0
   12.3744  -18.1178   23.9431 O   0  0  0  0  0  0  0  0  0  0  0  0
  2  1  1  1
  2 10  1  0
  3  2  1  0
  3  4  1  0
  4  9  2  0
  4  5  1  0
  5  6  2  0
  6  7  1  0
  8  7  2  0
  9  8  1  0
 10 11  2  0
 13 15  1  0
 13 12  1  0
 14 13  2  0
 16 15  1  0
 16 17  1  0
 17 18  1  0
 19 18  1  6
 20 10  1  0
 20 19  1  0
 21 19  1  0
 21 22  2  0
 23 24  1  0
 24 25  1  0
 25 26  1  0
 27 26  1  6
 27 28  1  0
 28 21  1  0
 29 30  1  0
 29 27  1  0
 31 29  2  0
M  END
$$$$
