FRM.pdb
     RDKit          3D

 31 31  0  0  1  0  0  0  0  0999 V2000
    5.7474  -19.1571   25.4230 N   0  0  0  0  0  0  0  0  0  0  0  0
    6.1750  -17.7827   25.2169 C   0  0  1  0  0  0  0  0  0  0  0  0
    6.6554  -17.1656   26.5182 C   0  0  0  0  0  0  0  0  0  0  0  0
    7.0100  -15.7272   26.3193 C   0  0  0  0  0  0  0  0  0  0  0  0
    6.0599  -14.7334   26.2907 C   0  0  0  0  0  0  0  0  0  0  0  0
    6.3604  -13.4066   26.1175 C   0  0  0  0  0  0  0  0  0  0  0  0
    7.6781  -13.0075   25.9595 C   0  0  0  0  0  0  0  0  0  0  0  0
    8.6422  -13.9915   25.9854 C   0  0  0  0  0  0  0  0  0  0  0  0
    8.3218  -15.3314   26.1619 C   0  0  0  0  0  0  0  0  0  0  0  0
    7.2038  -17.6825   24.1569 C   0  0  0  0  0  0  0  0  0  0  0  0
    8.2286  -18.4411   24.1511 O   0  0  0  0  0  0  0  0  0  0  0  0
    7.0880  -12.9282   18.0239 N   0  0  0  0  0  0  0  0  0  0  0  0
    8.4297  -13.2410   17.6897 C   0  0  0  0  0  0  0  0  0  0  0  0
    9.1964  -12.3113   17.2735 N   0  0  0  0  0  0  0  0  0  0  0  0
    8.9111  -14.5757   17.8166 N   0  0  0  0  0  0  0  0  0  0  0  0
    8.3123  -15.4764   18.7719 C   0  0  0  0  0  0  0  0  0  0  0  0
    8.8126  -15.1621   20.1719 C   0  0  0  0  0  0  0  0  0  0  0  0
    7.7648  -15.4777   21.1676 C   0  0  0  0  0  0  0  0  0  0  0  0
    8.2346  -16.5512   22.1501 C   0  0  2  0  0  0  0  0  0  0  0  0
    7.1135  -16.7459   23.0877 N   0  0  0  0  0  0  0  0  0  0  0  0
    9.4416  -16.0798   22.8466 C   0  0  0  0  0  0  0  0  0  0  0  0
   10.5033  -15.7677   22.2105 O   0  0  0  0  0  0  0  0  0  0  0  0
   10.1579  -12.4030   16.9437 C   0  0  0  0  0  0  0  0  0  0  0  0
   10.3957  -12.9611   29.3975 S   0  0  0  0  0  0  0  0  0  0  0  0
   11.1368  -14.5067   28.9028 C   0  0  0  0  0  0  0  0  0  0  0  0
   11.5016  -14.7092   27.1793 C   0  0  0  0  0  0  0  0  0  0  0  0
   10.3685  -15.1789   26.3349 C   0  0  1  0  0  0  0  0  0  0  0  0
   10.7158  -15.3021   24.8727 N   0  0  0  0  0  0  0  0  0  0  0  0
    9.5309  -15.9303   24.2583 C   0  0  0  0  0  0  0  0  0  0  0  0
   11.8127  -16.2824   24.6887 O   0  0  0  0  0  0  0  0  0  0  0  0
   11.5993  -17.6413   24.7377 O   0  0  0  0  0  0  0  0  0  0  0  0
  2  1  1  1
  2 10  1  0
  3  2  1  0
  3  4  1  0
  4  9  2  0
  4  5  1  0
  5  6  2  0
  6  7  1  0
  8  7  2  0
  9  8  1  0
 10 11  2  0
 13 15  1  0
 13 12  1  0
 14 13  2  0
 16 15  1  0
 16 17  1  0
 17 18  1  0
 19 18  1  6
 20 10  1  0
 20 19  1  0
 21 19  1  0
 21 22  2  0
 23 24  1  0
 24 25  1  0
 25 26  1  0
 27 26  1  6
 27 28  1  0
 28 21  1  0
 29 30  1  0
 29 27  1  0
 31 29  2  0
M  END
$$$$
