FRM.pdb
     RDKit          3D

 31 31  0  0  1  0  0  0  0  0999 V2000
    5.7778  -16.7426   24.9900 N   0  0  0  0  0  0  0  0  0  0  0  0
    6.6630  -15.6805   24.5398 C   0  0  1  0  0  0  0  0  0  0  0  0
    7.3781  -15.0388   25.7154 C   0  0  0  0  0  0  0  0  0  0  0  0
    6.6968  -13.7704   26.1172 C   0  0  0  0  0  0  0  0  0  0  0  0
    6.2879  -13.5334   27.4086 C   0  0  0  0  0  0  0  0  0  0  0  0
    5.6681  -12.3754   27.8035 C   0  0  0  0  0  0  0  0  0  0  0  0
    5.4238  -11.3691   26.8826 C   0  0  0  0  0  0  0  0  0  0  0  0
    5.8271  -11.5915   25.5839 C   0  0  0  0  0  0  0  0  0  0  0  0
    6.4538  -12.7699   25.1995 C   0  0  0  0  0  0  0  0  0  0  0  0
    7.6215  -16.1624   23.5194 C   0  0  0  0  0  0  0  0  0  0  0  0
    7.8776  -17.4038   23.3815 O   0  0  0  0  0  0  0  0  0  0  0  0
    7.5365  -15.5478   17.2540 N   0  0  0  0  0  0  0  0  0  0  0  0
    7.8639  -14.2356   16.8289 C   0  0  0  0  0  0  0  0  0  0  0  0
    7.8222  -13.9598   15.5849 N   0  0  0  0  0  0  0  0  0  0  0  0
    8.2352  -13.2421   17.7799 N   0  0  0  0  0  0  0  0  0  0  0  0
    9.2770  -13.5101   18.7418 C   0  0  0  0  0  0  0  0  0  0  0  0
    8.7301  -14.3480   19.8855 C   0  0  0  0  0  0  0  0  0  0  0  0
    9.7885  -14.5852   20.8916 C   0  0  0  0  0  0  0  0  0  0  0  0
    9.4328  -15.7553   21.8097 C   0  0  2  0  0  0  0  0  0  0  0  0
    8.3076  -15.2808   22.6360 N   0  0  0  0  0  0  0  0  0  0  0  0
   10.5998  -16.0978   22.6371 C   0  0  0  0  0  0  0  0  0  0  0  0
   11.7926  -15.9012   22.2274 O   0  0  0  0  0  0  0  0  0  0  0  0
    8.0628  -13.0739   15.1388 C   0  0  0  0  0  0  0  0  0  0  0  0
   10.5995  -14.2411   29.0819 S   0  0  0  0  0  0  0  0  0  0  0  0
   11.7173  -13.7836   27.7690 C   0  0  0  0  0  0  0  0  0  0  0  0
   12.2779  -15.0826   26.6999 C   0  0  0  0  0  0  0  0  0  0  0  0
   11.2057  -15.8936   26.0596 C   0  0  2  0  0  0  0  0  0  0  0  0
   11.6702  -16.6573   24.8450 N   0  0  0  0  0  0  0  0  0  0  0  0
   10.5061  -16.6632   23.9390 C   0  0  0  0  0  0  0  0  0  0  0  0
   11.8976  -18.0806   25.1922 O   0  0  0  0  0  0  0  0  0  0  0  0
   11.0194  -19.0753   24.8264 O   0  0  0  0  0  0  0  0  0  0  0  0
  2  1  1  1
  2 10  1  0
  3  2  1  0
  3  4  1  0
  4  9  2  0
  4  5  1  0
  5  6  2  0
  6  7  1  0
  8  7  2  0
  9  8  1  0
 10 11  2  0
 13 15  1  0
 13 12  1  0
 14 13  2  0
 16 15  1  0
 16 17  1  0
 17 18  1  0
 19 18  1  6
 20 10  1  0
 20 19  1  0
 21 19  1  0
 21 22  2  0
 23 24  1  0
 24 25  1  0
 25 26  1  0
 27 26  1  6
 27 28  1  0
 28 21  1  0
 29 30  1  0
 29 27  1  0
 31 29  2  0
M  END
$$$$
