FRM.pdb
     RDKit          3D

 31 31  0  0  1  0  0  0  0  0999 V2000
    5.7679  -18.1937   25.7417 N   0  0  0  0  0  0  0  0  0  0  0  0
    6.1617  -16.7991   25.6214 C   0  0  1  0  0  0  0  0  0  0  0  0
    6.6671  -16.2642   26.9493 C   0  0  0  0  0  0  0  0  0  0  0  0
    7.0056  -14.8125   26.8375 C   0  0  0  0  0  0  0  0  0  0  0  0
    6.0559  -13.8253   26.9584 C   0  0  0  0  0  0  0  0  0  0  0  0
    6.3424  -12.4871   26.8674 C   0  0  0  0  0  0  0  0  0  0  0  0
    7.6444  -12.0690   26.6424 C   0  0  0  0  0  0  0  0  0  0  0  0
    8.6078  -13.0463   26.5185 C   0  0  0  0  0  0  0  0  0  0  0  0
    8.3017  -14.3978   26.6132 C   0  0  0  0  0  0  0  0  0  0  0  0
    7.1571  -16.6024   24.5433 C   0  0  0  0  0  0  0  0  0  0  0  0
    8.1889  -17.3453   24.4471 O   0  0  0  0  0  0  0  0  0  0  0  0
    8.3780  -15.4284   17.8328 N   0  0  0  0  0  0  0  0  0  0  0  0
    8.5913  -14.1106   17.3556 C   0  0  0  0  0  0  0  0  0  0  0  0
    8.8732  -13.9365   16.1245 N   0  0  0  0  0  0  0  0  0  0  0  0
    8.4928  -12.9992   18.2412 N   0  0  0  0  0  0  0  0  0  0  0  0
    7.7222  -13.1047   19.4568 C   0  0  0  0  0  0  0  0  0  0  0  0
    8.3194  -14.1675   20.3641 C   0  0  0  0  0  0  0  0  0  0  0  0
    7.4926  -14.3177   21.5817 C   0  0  0  0  0  0  0  0  0  0  0  0
    8.0279  -15.4291   22.4854 C   0  0  2  0  0  0  0  0  0  0  0  0
    7.0253  -15.5851   23.5553 N   0  0  0  0  0  0  0  0  0  0  0  0
    9.3351  -15.0286   23.0284 C   0  0  0  0  0  0  0  0  0  0  0  0
    9.4976  -13.9152   23.6311 O   0  0  0  0  0  0  0  0  0  0  0  0
    9.0138  -13.0486   15.6412 C   0  0  0  0  0  0  0  0  0  0  0  0
    9.4694  -13.6726   27.8209 S   0  0  0  0  0  0  0  0  0  0  0  0
   11.1803  -14.0607   27.4968 C   0  0  0  0  0  0  0  0  0  0  0  0
   11.6769  -14.1522   25.7969 C   0  0  0  0  0  0  0  0  0  0  0  0
   11.3560  -15.4302   25.1031 C   0  0  2  0  0  0  0  0  0  0  0  0
   11.7403  -15.4385   23.6449 N   0  0  0  0  0  0  0  0  0  0  0  0
   10.5074  -15.8287   22.9352 C   0  0  0  0  0  0  0  0  0  0  0  0
   12.7041  -16.5326   23.3765 O   0  0  0  0  0  0  0  0  0  0  0  0
   14.0592  -16.3802   23.5633 O   0  0  0  0  0  0  0  0  0  0  0  0
  2  1  1  1
  2 10  1  0
  3  2  1  0
  3  4  1  0
  4  9  2  0
  4  5  1  0
  5  6  2  0
  6  7  1  0
  8  7  2  0
  9  8  1  0
 10 11  2  0
 13 15  1  0
 13 12  1  0
 14 13  2  0
 16 15  1  0
 16 17  1  0
 17 18  1  0
 19 18  1  6
 20 10  1  0
 20 19  1  0
 21 19  1  0
 21 22  2  0
 23 24  1  0
 24 25  1  0
 25 26  1  0
 27 26  1  6
 27 28  1  0
 28 21  1  0
 29 30  1  0
 29 27  1  0
 31 29  2  0
M  END
$$$$
