FRM.pdb
     RDKit          3D

 31 31  0  0  1  0  0  0  0  0999 V2000
    5.4701  -18.1197   24.9976 N   0  0  0  0  0  0  0  0  0  0  0  0
    5.8939  -16.7325   24.8967 C   0  0  1  0  0  0  0  0  0  0  0  0
    6.1302  -16.1384   26.2737 C   0  0  0  0  0  0  0  0  0  0  0  0
    6.4376  -14.6791   26.1718 C   0  0  0  0  0  0  0  0  0  0  0  0
    7.7224  -14.2062   26.0426 C   0  0  0  0  0  0  0  0  0  0  0  0
    8.0294  -12.8735   25.9396 C   0  0  0  0  0  0  0  0  0  0  0  0
    7.0201  -11.9241   25.9633 C   0  0  0  0  0  0  0  0  0  0  0  0
    5.7270  -12.3819   26.0928 C   0  0  0  0  0  0  0  0  0  0  0  0
    5.4322  -13.7353   26.1959 C   0  0  0  0  0  0  0  0  0  0  0  0
    7.0859  -16.5858   24.0309 C   0  0  0  0  0  0  0  0  0  0  0  0
    8.1133  -17.3256   24.1830 O   0  0  0  0  0  0  0  0  0  0  0  0
    8.4449  -15.5425   15.6997 N   0  0  0  0  0  0  0  0  0  0  0  0
    8.4770  -14.4637   16.6189 C   0  0  0  0  0  0  0  0  0  0  0  0
    8.2336  -13.2851   16.1982 N   0  0  0  0  0  0  0  0  0  0  0  0
    8.7783  -14.6959   17.9916 N   0  0  0  0  0  0  0  0  0  0  0  0
    8.7621  -13.6032   18.9342 C   0  0  0  0  0  0  0  0  0  0  0  0
    9.2331  -14.0813   20.2975 C   0  0  0  0  0  0  0  0  0  0  0  0
    8.0691  -14.3642   21.1657 C   0  0  0  0  0  0  0  0  0  0  0  0
    8.3864  -15.4601   22.1840 C   0  0  2  0  0  0  0  0  0  0  0  0
    7.1587  -15.6229   22.9841 N   0  0  0  0  0  0  0  0  0  0  0  0
    9.5199  -15.0352   23.0199 C   0  0  0  0  0  0  0  0  0  0  0  0
    9.5709  -13.8695   23.5375 O   0  0  0  0  0  0  0  0  0  0  0  0
    8.3095  -12.4127   16.7224 C   0  0  0  0  0  0  0  0  0  0  0  0
    9.6678  -14.2897   28.9317 S   0  0  0  0  0  0  0  0  0  0  0  0
   10.6328  -15.7061   28.4362 C   0  0  0  0  0  0  0  0  0  0  0  0
   11.5485  -15.5670   26.9240 C   0  0  0  0  0  0  0  0  0  0  0  0
   10.7488  -15.7038   25.6753 C   0  0  1  0  0  0  0  0  0  0  0  0
   11.5576  -15.5151   24.4166 N   0  0  0  0  0  0  0  0  0  0  0  0
   10.6337  -15.8668   23.3218 C   0  0  0  0  0  0  0  0  0  0  0  0
   12.6406  -16.5254   24.3487 O   0  0  0  0  0  0  0  0  0  0  0  0
   13.8282  -16.3759   25.0280 O   0  0  0  0  0  0  0  0  0  0  0  0
  2  1  1  1
  2 10  1  0
  3  2  1  0
  3  4  1  0
  4  9  2  0
  4  5  1  0
  5  6  2  0
  6  7  1  0
  8  7  2  0
  9  8  1  0
 10 11  2  0
 13 15  1  0
 13 12  1  0
 14 13  2  0
 16 15  1  0
 16 17  1  0
 17 18  1  0
 19 18  1  6
 20 10  1  0
 20 19  1  0
 21 19  1  0
 21 22  2  0
 23 24  1  0
 24 25  1  0
 25 26  1  0
 27 26  1  6
 27 28  1  0
 28 21  1  0
 29 30  1  0
 29 27  1  0
 31 29  2  0
M  END
$$$$
