FRM.pdb
     RDKit          3D

 31 31  0  0  1  0  0  0  0  0999 V2000
    6.6651  -18.3820   25.3467 N   0  0  0  0  0  0  0  0  0  0  0  0
    6.4346  -16.9502   25.2413 C   0  0  1  0  0  0  0  0  0  0  0  0
    6.5317  -16.2858   26.6029 C   0  0  0  0  0  0  0  0  0  0  0  0
    6.3583  -14.8062   26.4803 C   0  0  0  0  0  0  0  0  0  0  0  0
    7.3244  -13.9169   26.8889 C   0  0  0  0  0  0  0  0  0  0  0  0
    7.1923  -12.5562   26.7799 C   0  0  0  0  0  0  0  0  0  0  0  0
    6.0402  -12.0113   26.2356 C   0  0  0  0  0  0  0  0  0  0  0  0
    5.0622  -12.8892   25.8218 C   0  0  0  0  0  0  0  0  0  0  0  0
    5.2111  -14.2652   25.9387 C   0  0  0  0  0  0  0  0  0  0  0  0
    7.3495  -16.3190   24.2633 C   0  0  0  0  0  0  0  0  0  0  0  0
    7.3894  -15.0537   24.1108 O   0  0  0  0  0  0  0  0  0  0  0  0
    8.7133  -11.8295   19.1093 N   0  0  0  0  0  0  0  0  0  0  0  0
    8.5809  -12.9459   18.2456 C   0  0  0  0  0  0  0  0  0  0  0  0
    8.9364  -12.8306   17.0267 N   0  0  0  0  0  0  0  0  0  0  0  0
    8.0567  -14.1768   18.7348 N   0  0  0  0  0  0  0  0  0  0  0  0
    7.7229  -14.3205   20.1314 C   0  0  0  0  0  0  0  0  0  0  0  0
    8.9853  -14.5214   20.9530 C   0  0  0  0  0  0  0  0  0  0  0  0
    8.6379  -15.0111   22.3051 C   0  0  0  0  0  0  0  0  0  0  0  0
    9.2040  -16.4097   22.5539 C   0  0  2  0  0  0  0  0  0  0  0  0
    8.2345  -17.0755   23.4431 N   0  0  0  0  0  0  0  0  0  0  0  0
   10.5254  -16.2946   23.1903 C   0  0  0  0  0  0  0  0  0  0  0  0
   11.3099  -15.3208   22.9340 O   0  0  0  0  0  0  0  0  0  0  0  0
    8.9409  -13.5589   16.3117 C   0  0  0  0  0  0  0  0  0  0  0  0
   10.7116  -12.6142   27.8593 S   0  0  0  0  0  0  0  0  0  0  0  0
   10.6432  -14.3354   28.3237 C   0  0  0  0  0  0  0  0  0  0  0  0
   11.6072  -15.4684   27.3585 C   0  0  0  0  0  0  0  0  0  0  0  0
   11.0149  -15.8611   26.0498 C   0  0  1  0  0  0  0  0  0  0  0  0
   11.8886  -16.7914   25.2465 N   0  0  0  0  0  0  0  0  0  0  0  0
   11.0345  -17.2347   24.1284 C   0  0  0  0  0  0  0  0  0  0  0  0
   12.1771  -18.0204   26.0240 O   0  0  0  0  0  0  0  0  0  0  0  0
   11.5668  -19.2232   25.7498 O   0  0  0  0  0  0  0  0  0  0  0  0
  2  1  1  1
  2 10  1  0
  3  2  1  0
  3  4  1  0
  4  9  2  0
  4  5  1  0
  5  6  2  0
  6  7  1  0
  8  7  2  0
  9  8  1  0
 10 11  2  0
 13 15  1  0
 13 12  1  0
 14 13  2  0
 16 15  1  0
 16 17  1  0
 17 18  1  0
 19 18  1  1
 20 10  1  0
 20 19  1  0
 21 19  1  0
 21 22  2  0
 23 24  1  0
 24 25  1  0
 25 26  1  0
 27 26  1  6
 27 28  1  0
 28 21  1  0
 29 30  1  0
 29 27  1  0
 31 29  2  0
M  END
$$$$
