WGM.pdb
     RDKit          3D

 27 28  0  0  1  0  0  0  0  0999 V2000
   24.7696  -21.2501  -16.2253 N   0  0  0  0  0  0  0  0  0  0  0  0
   24.6013  -19.9844  -15.5409 C   0  0  1  0  0  0  0  0  0  0  0  0
   23.1733  -19.8176  -15.0772 C   0  0  0  0  0  0  0  0  0  0  0  0
   22.1952  -20.0148  -16.1789 C   0  0  0  0  0  0  0  0  0  0  0  0
   21.4208  -21.1251  -16.4336 C   0  0  0  0  0  0  0  0  0  0  0  0
   20.6621  -20.9192  -17.5223 N   0  0  0  0  0  0  0  0  0  0  0  0
   20.9079  -19.6935  -18.0080 C   0  0  0  0  0  0  0  0  0  0  0  0
   20.4000  -19.0120  -19.0902 C   0  0  0  0  0  0  0  0  0  0  0  0
   20.8607  -17.7172  -19.3509 C   0  0  0  0  0  0  0  0  0  0  0  0
   21.8018  -17.1310  -18.5461 C   0  0  0  0  0  0  0  0  0  0  0  0
   22.2941  -17.8248  -17.4756 C   0  0  0  0  0  0  0  0  0  0  0  0
   21.8659  -19.1153  -17.1769 C   0  0  0  0  0  0  0  0  0  0  0  0
   25.4521  -20.0208  -14.3261 C   0  0  0  0  0  0  0  0  0  0  0  0
   25.3590  -19.0634  -13.5188 O   0  0  0  0  0  0  0  0  0  0  0  0
   26.3476  -21.0910  -14.0653 N   0  0  0  0  0  0  0  0  0  0  0  0
   27.1625  -21.0664  -12.8809 C   0  0  0  0  0  0  0  0  0  0  0  0
   26.3890  -21.4124  -11.6638 C   0  0  0  0  0  0  0  0  0  0  0  0
   25.6990  -22.4595  -11.6823 O   0  0  0  0  0  0  0  0  0  0  0  0
   29.1505  -19.1293   -5.7225 C   0  0  0  0  0  0  0  0  0  0  0  0
   28.3150  -19.0353   -7.3235 S   0  0  0  0  0  0  0  0  0  0  0  0
   27.3643  -20.5321   -7.6064 C   0  0  0  0  0  0  0  0  0  0  0  0
   25.9692  -20.2904   -8.0581 C   0  0  0  0  0  0  0  0  0  0  0  0
   25.5730  -20.9483   -9.3473 C   0  0  2  0  0  0  0  0  0  0  0  0
   26.3896  -20.6214  -10.4831 N   0  0  0  0  0  0  0  0  0  0  0  0
   24.1337  -20.7018   -9.6285 C   0  0  0  0  0  0  0  0  0  0  0  0
   23.1290  -21.1539   -8.7815 O   0  0  0  0  0  0  0  0  0  0  0  0
   23.8117  -20.0753  -10.6465 O   0  0  0  0  0  0  0  0  0  0  0  0
  2 13  1  0
  2  1  1  1
  3  2  1  0
  4  3  1  0
  4  5  2  0
  6  5  1  0
  7  6  1  0
  8  7  2  0
  9  8  1  0
 10  9  2  0
 10 11  1  0
 11 12  2  0
 12  7  1  0
 12  4  1  0
 13 14  2  0
 15 16  1  0
 15 13  1  0
 17 18  2  0
 17 16  1  0
 19 20  1  0
 20 21  1  0
 23 22  1  1
 22 21  1  0
 23 24  1  0
 24 17  1  0
 25 23  1  0
 26 25  1  0
 27 25  2  0
M  END
$$$$
