WGM.pdb
     RDKit          3D

 27 28  0  0  1  0  0  0  0  0999 V2000
   26.2913  -22.2649  -12.1338 N   0  0  0  0  0  0  0  0  0  0  0  0
   25.6155  -21.0938  -11.6139 C   0  0  1  0  0  0  0  0  0  0  0  0
   26.5989  -19.9694  -11.3896 C   0  0  0  0  0  0  0  0  0  0  0  0
   27.6333  -20.3168  -10.3802 C   0  0  0  0  0  0  0  0  0  0  0  0
   28.8746  -20.8726  -10.5982 C   0  0  0  0  0  0  0  0  0  0  0  0
   29.5182  -21.0376   -9.4313 N   0  0  0  0  0  0  0  0  0  0  0  0
   28.7377  -20.6051   -8.4301 C   0  0  0  0  0  0  0  0  0  0  0  0
   28.9280  -20.5565   -7.0681 C   0  0  0  0  0  0  0  0  0  0  0  0
   27.9089  -20.0403   -6.2610 C   0  0  0  0  0  0  0  0  0  0  0  0
   26.7381  -19.5885   -6.8105 C   0  0  0  0  0  0  0  0  0  0  0  0
   26.5683  -19.6453   -8.1661 C   0  0  0  0  0  0  0  0  0  0  0  0
   27.5541  -20.1508   -9.0093 C   0  0  0  0  0  0  0  0  0  0  0  0
   24.6601  -20.6358  -12.6523 C   0  0  0  0  0  0  0  0  0  0  0  0
   24.9303  -20.8966  -13.8506 O   0  0  0  0  0  0  0  0  0  0  0  0
   23.4750  -19.9257  -12.3252 N   0  0  0  0  0  0  0  0  0  0  0  0
   22.6108  -19.4586  -13.3751 C   0  0  0  0  0  0  0  0  0  0  0  0
   21.4969  -20.4005  -13.6417 C   0  0  0  0  0  0  0  0  0  0  0  0
   20.6175  -20.0546  -14.4663 O   0  0  0  0  0  0  0  0  0  0  0  0
   18.8716  -25.7380  -10.1698 C   0  0  0  0  0  0  0  0  0  0  0  0
   19.1632  -26.2774  -11.8710 S   0  0  0  0  0  0  0  0  0  0  0  0
   19.2630  -24.8506  -12.9567 C   0  0  0  0  0  0  0  0  0  0  0  0
   20.3293  -23.8819  -12.5918 C   0  0  0  0  0  0  0  0  0  0  0  0
   20.2819  -22.5572  -13.2952 C   0  0  2  0  0  0  0  0  0  0  0  0
   21.3754  -21.6693  -13.0130 N   0  0  0  0  0  0  0  0  0  0  0  0
   18.9726  -21.8945  -13.0543 C   0  0  0  0  0  0  0  0  0  0  0  0
   18.7122  -21.1764  -11.8933 O   0  0  0  0  0  0  0  0  0  0  0  0
   18.0814  -21.9800  -13.9092 O   0  0  0  0  0  0  0  0  0  0  0  0
  2 13  1  0
  2  1  1  6
  3  2  1  0
  4  3  1  0
  4  5  2  0
  6  5  1  0
  7  6  1  0
  8  7  2  0
  9  8  1  0
 10  9  2  0
 10 11  1  0
 11 12  2  0
 12  7  1  0
 12  4  1  0
 13 14  2  0
 15 16  1  0
 15 13  1  0
 17 18  2  0
 17 16  1  0
 19 20  1  0
 20 21  1  0
 23 22  1  1
 22 21  1  0
 23 24  1  0
 24 17  1  0
 25 23  1  0
 26 25  1  0
 27 25  2  0
M  END
$$$$
