WGM.pdb
     RDKit          3D

 27 28  0  0  1  0  0  0  0  0999 V2000
   27.0116  -18.9610  -11.9605 N   0  0  0  0  0  0  0  0  0  0  0  0
   27.3883  -20.2526  -12.4977 C   0  0  1  0  0  0  0  0  0  0  0  0
   26.6954  -21.3634  -11.7443 C   0  0  0  0  0  0  0  0  0  0  0  0
   26.4873  -21.0294  -10.3109 C   0  0  0  0  0  0  0  0  0  0  0  0
   25.2995  -20.7509   -9.6713 C   0  0  0  0  0  0  0  0  0  0  0  0
   25.5234  -20.4956   -8.3721 N   0  0  0  0  0  0  0  0  0  0  0  0
   26.8370  -20.5958   -8.1211 C   0  0  0  0  0  0  0  0  0  0  0  0
   27.5703  -20.4317   -6.9682 C   0  0  0  0  0  0  0  0  0  0  0  0
   28.9573  -20.6054   -7.0185 C   0  0  0  0  0  0  0  0  0  0  0  0
   29.5822  -20.9336   -8.1927 C   0  0  0  0  0  0  0  0  0  0  0  0
   28.8359  -21.0922   -9.3274 C   0  0  0  0  0  0  0  0  0  0  0  0
   27.4533  -20.9295   -9.3259 C   0  0  0  0  0  0  0  0  0  0  0  0
   26.9037  -20.3085  -13.8987 C   0  0  0  0  0  0  0  0  0  0  0  0
   26.8677  -19.2341  -14.5478 O   0  0  0  0  0  0  0  0  0  0  0  0
   26.4898  -21.5238  -14.5048 N   0  0  0  0  0  0  0  0  0  0  0  0
   27.1844  -22.0153  -15.6639 C   0  0  0  0  0  0  0  0  0  0  0  0
   26.7082  -23.3592  -16.0718 C   0  0  0  0  0  0  0  0  0  0  0  0
   27.2975  -23.9302  -17.0202 O   0  0  0  0  0  0  0  0  0  0  0  0
   21.0096  -22.8171  -12.9079 C   0  0  0  0  0  0  0  0  0  0  0  0
   20.8280  -22.1648  -14.5847 S   0  0  0  0  0  0  0  0  0  0  0  0
   21.9497  -23.0175  -15.6977 C   0  0  0  0  0  0  0  0  0  0  0  0
   23.3699  -23.0018  -15.2600 C   0  0  0  0  0  0  0  0  0  0  0  0
   24.2846  -23.9609  -15.9637 C   0  0  2  0  0  0  0  0  0  0  0  0
   25.6228  -24.0299  -15.4458 N   0  0  0  0  0  0  0  0  0  0  0  0
   24.2851  -23.6909  -17.4261 C   0  0  0  0  0  0  0  0  0  0  0  0
   24.1118  -24.7028  -18.3628 O   0  0  0  0  0  0  0  0  0  0  0  0
   24.4442  -22.5317  -17.8303 O   0  0  0  0  0  0  0  0  0  0  0  0
  2 13  1  0
  2  1  1  1
  3  2  1  0
  4  3  1  0
  4  5  2  0
  6  5  1  0
  7  6  1  0
  8  7  2  0
  9  8  1  0
 10  9  2  0
 10 11  1  0
 11 12  2  0
 12  7  1  0
 12  4  1  0
 13 14  2  0
 15 16  1  0
 15 13  1  0
 17 18  2  0
 17 16  1  0
 19 20  1  0
 20 21  1  0
 23 22  1  1
 22 21  1  0
 23 24  1  0
 24 17  1  0
 25 23  1  0
 26 25  1  0
 27 25  2  0
M  END
$$$$
