WGM.pdb
     RDKit          3D

 27 28  0  0  1  0  0  0  0  0999 V2000
   27.5042  -20.3342  -12.1522 N   0  0  0  0  0  0  0  0  0  0  0  0
   26.4025  -21.2406  -12.4040 C   0  0  1  0  0  0  0  0  0  0  0  0
   25.9864  -21.9372  -11.1299 C   0  0  0  0  0  0  0  0  0  0  0  0
   26.2459  -21.1093   -9.9230 C   0  0  0  0  0  0  0  0  0  0  0  0
   25.3623  -20.2940   -9.2507 C   0  0  0  0  0  0  0  0  0  0  0  0
   25.9744  -19.7105   -8.2076 N   0  0  0  0  0  0  0  0  0  0  0  0
   27.2524  -20.1145   -8.1614 C   0  0  0  0  0  0  0  0  0  0  0  0
   28.2836  -19.8137   -7.3013 C   0  0  0  0  0  0  0  0  0  0  0  0
   29.5342  -20.4036   -7.5125 C   0  0  0  0  0  0  0  0  0  0  0  0
   29.7361  -21.2677   -8.5563 C   0  0  0  0  0  0  0  0  0  0  0  0
   28.6988  -21.5537   -9.3999 C   0  0  0  0  0  0  0  0  0  0  0  0
   27.4369  -20.9908   -9.2295 C   0  0  0  0  0  0  0  0  0  0  0  0
   25.2481  -20.4222  -12.8497 C   0  0  0  0  0  0  0  0  0  0  0  0
   24.8118  -19.5486  -12.0601 O   0  0  0  0  0  0  0  0  0  0  0  0
   24.6421  -20.6034  -14.1207 N   0  0  0  0  0  0  0  0  0  0  0  0
   24.4885  -21.9294  -14.6550 C   0  0  0  0  0  0  0  0  0  0  0  0
   23.0648  -22.3354  -14.7401 C   0  0  0  0  0  0  0  0  0  0  0  0
   22.4075  -21.9716  -15.7444 O   0  0  0  0  0  0  0  0  0  0  0  0
   22.5133  -26.5879  -13.9432 C   0  0  0  0  0  0  0  0  0  0  0  0
   20.8323  -26.9674  -13.3950 S   0  0  0  0  0  0  0  0  0  0  0  0
   19.8269  -25.4801  -13.4298 C   0  0  0  0  0  0  0  0  0  0  0  0
   20.4584  -24.3035  -12.7775 C   0  0  0  0  0  0  0  0  0  0  0  0
   20.9801  -23.2421  -13.7011 C   0  0  2  0  0  0  0  0  0  0  0  0
   22.4101  -23.1121  -13.7461 N   0  0  0  0  0  0  0  0  0  0  0  0
   20.3287  -21.9384  -13.4052 C   0  0  0  0  0  0  0  0  0  0  0  0
   19.1450  -21.5492  -14.0206 O   0  0  0  0  0  0  0  0  0  0  0  0
   20.8501  -21.1701  -12.5866 O   0  0  0  0  0  0  0  0  0  0  0  0
  2 13  1  0
  2  1  1  1
  3  2  1  0
  4  3  1  0
  4  5  2  0
  6  5  1  0
  7  6  1  0
  8  7  2  0
  9  8  1  0
 10  9  2  0
 10 11  1  0
 11 12  2  0
 12  7  1  0
 12  4  1  0
 13 14  2  0
 15 16  1  0
 15 13  1  0
 17 18  2  0
 17 16  1  0
 19 20  1  0
 20 21  1  0
 23 22  1  1
 22 21  1  0
 23 24  1  0
 24 17  1  0
 25 23  1  0
 26 25  1  0
 27 25  2  0
M  END
$$$$
