WGM.pdb
     RDKit          3D

 27 28  0  0  1  0  0  0  0  0999 V2000
   21.9801  -11.1156  -17.8648 N   0  0  0  0  0  0  0  0  0  0  0  0
   20.9153  -10.2076  -18.2396 C   0  0  1  0  0  0  0  0  0  0  0  0
   19.6975  -10.4320  -17.3745 C   0  0  0  0  0  0  0  0  0  0  0  0
   19.0913  -11.7720  -17.5892 C   0  0  0  0  0  0  0  0  0  0  0  0
   19.3073  -12.9239  -16.8654 C   0  0  0  0  0  0  0  0  0  0  0  0
   18.5753  -13.9303  -17.3696 N   0  0  0  0  0  0  0  0  0  0  0  0
   17.8698  -13.4826  -18.4186 C   0  0  0  0  0  0  0  0  0  0  0  0
   16.9832  -14.1057  -19.2667 C   0  0  0  0  0  0  0  0  0  0  0  0
   16.3921  -13.3613  -20.2928 C   0  0  0  0  0  0  0  0  0  0  0  0
   16.6861  -12.0333  -20.4566 C   0  0  0  0  0  0  0  0  0  0  0  0
   17.5697  -11.4324  -19.6035 C   0  0  0  0  0  0  0  0  0  0  0  0
   18.1827  -12.1326  -18.5680 C   0  0  0  0  0  0  0  0  0  0  0  0
   21.3928   -8.8291  -17.9702 C   0  0  0  0  0  0  0  0  0  0  0  0
   22.2798   -8.6788  -17.0942 O   0  0  0  0  0  0  0  0  0  0  0  0
   20.8785   -7.7041  -18.6668 N   0  0  0  0  0  0  0  0  0  0  0  0
   21.4377   -6.4010  -18.4286 C   0  0  0  0  0  0  0  0  0  0  0  0
   21.0818   -5.8775  -17.0875 C   0  0  0  0  0  0  0  0  0  0  0  0
   19.8816   -5.9419  -16.7296 O   0  0  0  0  0  0  0  0  0  0  0  0
   19.8873   -9.1484  -12.1053 C   0  0  0  0  0  0  0  0  0  0  0  0
   21.1372   -7.8427  -12.1600 S   0  0  0  0  0  0  0  0  0  0  0  0
   20.8184   -6.7482  -13.5473 C   0  0  0  0  0  0  0  0  0  0  0  0
   21.8529   -5.6997  -13.7453 C   0  0  0  0  0  0  0  0  0  0  0  0
   21.6415   -4.7806  -14.9125 C   0  0  2  0  0  0  0  0  0  0  0  0
   22.0271   -5.3089  -16.1915 N   0  0  0  0  0  0  0  0  0  0  0  0
   22.2873   -3.4661  -14.6545 C   0  0  0  0  0  0  0  0  0  0  0  0
   23.2585   -2.9432  -15.4999 O   0  0  0  0  0  0  0  0  0  0  0  0
   21.9553   -2.8106  -13.6582 O   0  0  0  0  0  0  0  0  0  0  0  0
  2 13  1  0
  2  1  1  1
  3  2  1  0
  4  3  1  0
  4  5  2  0
  6  5  1  0
  7  6  1  0
  8  7  2  0
  9  8  1  0
 10  9  2  0
 10 11  1  0
 11 12  2  0
 12  7  1  0
 12  4  1  0
 13 14  2  0
 15 16  1  0
 15 13  1  0
 17 18  2  0
 17 16  1  0
 19 20  1  0
 20 21  1  0
 23 22  1  1
 22 21  1  0
 23 24  1  0
 24 17  1  0
 25 23  1  0
 26 25  1  0
 27 25  2  0
M  END
$$$$
