WGM.pdb
     RDKit          3D

 27 28  0  0  1  0  0  0  0  0999 V2000
   28.3999  -21.6534  -15.1341 N   0  0  0  0  0  0  0  0  0  0  0  0
   28.4716  -21.4193  -13.7063 C   0  0  1  0  0  0  0  0  0  0  0  0
   29.7518  -20.7009  -13.3499 C   0  0  0  0  0  0  0  0  0  0  0  0
   30.8343  -21.6391  -12.9534 C   0  0  0  0  0  0  0  0  0  0  0  0
   31.5462  -22.4988  -13.7606 C   0  0  0  0  0  0  0  0  0  0  0  0
   32.4406  -23.1841  -13.0301 N   0  0  0  0  0  0  0  0  0  0  0  0
   32.3476  -22.8054  -11.7469 C   0  0  0  0  0  0  0  0  0  0  0  0
   33.0292  -23.1989  -10.6181 C   0  0  0  0  0  0  0  0  0  0  0  0
   32.7024  -22.6112   -9.3916 C   0  0  0  0  0  0  0  0  0  0  0  0
   31.7211  -21.6588   -9.3081 C   0  0  0  0  0  0  0  0  0  0  0  0
   31.0553  -21.2815  -10.4412 C   0  0  0  0  0  0  0  0  0  0  0  0
   31.3458  -21.8384  -11.6837 C   0  0  0  0  0  0  0  0  0  0  0  0
   27.3510  -20.5154  -13.3484 C   0  0  0  0  0  0  0  0  0  0  0  0
   27.3502  -19.3615  -13.8436 O   0  0  0  0  0  0  0  0  0  0  0  0
   26.3051  -20.9203  -12.4779 N   0  0  0  0  0  0  0  0  0  0  0  0
   25.8158  -20.0092  -11.4790 C   0  0  0  0  0  0  0  0  0  0  0  0
   25.8951  -20.5827  -10.1137 C   0  0  0  0  0  0  0  0  0  0  0  0
   26.3964  -21.7248   -9.9827 O   0  0  0  0  0  0  0  0  0  0  0  0
   27.7644  -19.5365   -3.4581 C   0  0  0  0  0  0  0  0  0  0  0  0
   28.3821  -19.0448   -5.0850 S   0  0  0  0  0  0  0  0  0  0  0  0
   27.5996  -20.0356   -6.3618 C   0  0  0  0  0  0  0  0  0  0  0  0
   26.1655  -19.7165   -6.5861 C   0  0  0  0  0  0  0  0  0  0  0  0
   25.4736  -20.5160   -7.6509 C   0  0  2  0  0  0  0  0  0  0  0  0
   25.4337  -19.9072   -8.9514 N   0  0  0  0  0  0  0  0  0  0  0  0
   24.1129  -20.9076   -7.1963 C   0  0  0  0  0  0  0  0  0  0  0  0
   23.9134  -21.8297   -6.1759 O   0  0  0  0  0  0  0  0  0  0  0  0
   23.1217  -20.4013   -7.7381 O   0  0  0  0  0  0  0  0  0  0  0  0
  2 13  1  0
  2  1  1  6
  3  2  1  0
  4  3  1  0
  4  5  2  0
  6  5  1  0
  7  6  1  0
  8  7  2  0
  9  8  1  0
 10  9  2  0
 10 11  1  0
 11 12  2  0
 12  7  1  0
 12  4  1  0
 13 14  2  0
 15 16  1  0
 15 13  1  0
 17 18  2  0
 17 16  1  0
 19 20  1  0
 20 21  1  0
 23 22  1  1
 22 21  1  0
 23 24  1  0
 24 17  1  0
 25 23  1  0
 26 25  1  0
 27 25  2  0
M  END
$$$$
