WGM.pdb
     RDKit          3D

 27 28  0  0  1  0  0  0  0  0999 V2000
   28.1052  -20.7661  -11.6696 N   0  0  0  0  0  0  0  0  0  0  0  0
   27.1070  -21.4405  -10.8651 C   0  0  1  0  0  0  0  0  0  0  0  0
   26.8982  -20.7124   -9.5581 C   0  0  0  0  0  0  0  0  0  0  0  0
   28.1545  -20.5892   -8.7733 C   0  0  0  0  0  0  0  0  0  0  0  0
   29.4383  -20.8760   -9.1817 C   0  0  0  0  0  0  0  0  0  0  0  0
   30.3047  -20.6367   -8.1841 N   0  0  0  0  0  0  0  0  0  0  0  0
   29.6330  -20.1944   -7.1108 C   0  0  0  0  0  0  0  0  0  0  0  0
   30.0488  -19.8158   -5.8549 C   0  0  0  0  0  0  0  0  0  0  0  0
   29.0935  -19.3904   -4.9260 C   0  0  0  0  0  0  0  0  0  0  0  0
   27.7640  -19.3486   -5.2544 C   0  0  0  0  0  0  0  0  0  0  0  0
   27.3710  -19.7290   -6.5075 C   0  0  0  0  0  0  0  0  0  0  0  0
   28.2854  -20.1595   -7.4650 C   0  0  0  0  0  0  0  0  0  0  0  0
   25.8240  -21.3793  -11.6073 C   0  0  0  0  0  0  0  0  0  0  0  0
   25.0043  -20.4845  -11.2844 O   0  0  0  0  0  0  0  0  0  0  0  0
   25.5128  -22.2907  -12.6504 N   0  0  0  0  0  0  0  0  0  0  0  0
   24.2216  -22.9225  -12.6838 C   0  0  0  0  0  0  0  0  0  0  0  0
   23.1170  -21.9335  -12.7162 C   0  0  0  0  0  0  0  0  0  0  0  0
   22.7380  -21.4379  -11.6283 O   0  0  0  0  0  0  0  0  0  0  0  0
   18.6319  -16.5630  -12.4779 C   0  0  0  0  0  0  0  0  0  0  0  0
   20.1200  -17.5793  -12.3271 S   0  0  0  0  0  0  0  0  0  0  0  0
   20.6182  -18.1787  -13.9448 C   0  0  0  0  0  0  0  0  0  0  0  0
   21.7472  -19.1446  -13.9144 C   0  0  0  0  0  0  0  0  0  0  0  0
   21.3690  -20.5967  -13.9014 C   0  0  2  0  0  0  0  0  0  0  0  0
   22.4688  -21.5208  -13.9118 N   0  0  0  0  0  0  0  0  0  0  0  0
   20.4096  -20.8873  -14.9998 C   0  0  0  0  0  0  0  0  0  0  0  0
   20.8327  -21.1667  -16.2938 O   0  0  0  0  0  0  0  0  0  0  0  0
   19.1945  -20.8824  -14.7631 O   0  0  0  0  0  0  0  0  0  0  0  0
  2 13  1  0
  2  1  1  6
  3  2  1  0
  4  3  1  0
  4  5  2  0
  6  5  1  0
  7  6  1  0
  8  7  2  0
  9  8  1  0
 10  9  2  0
 10 11  1  0
 11 12  2  0
 12  7  1  0
 12  4  1  0
 13 14  2  0
 15 16  1  0
 15 13  1  0
 17 18  2  0
 17 16  1  0
 19 20  1  0
 20 21  1  0
 23 22  1  6
 22 21  1  0
 23 24  1  0
 24 17  1  0
 25 23  1  0
 26 25  1  0
 27 25  2  0
M  END
$$$$
