WGM.pdb
     RDKit          3D

 27 28  0  0  1  0  0  0  0  0999 V2000
   24.9776  -20.6366  -11.3711 N   0  0  0  0  0  0  0  0  0  0  0  0
   26.4207  -20.5510  -11.4645 C   0  0  1  0  0  0  0  0  0  0  0  0
   27.0719  -21.3206  -10.3396 C   0  0  0  0  0  0  0  0  0  0  0  0
   26.7927  -20.7202   -9.0088 C   0  0  0  0  0  0  0  0  0  0  0  0
   25.6329  -20.1117   -8.5821 C   0  0  0  0  0  0  0  0  0  0  0  0
   25.7701  -19.6946   -7.3131 N   0  0  0  0  0  0  0  0  0  0  0  0
   26.9979  -20.0085   -6.8741 C   0  0  0  0  0  0  0  0  0  0  0  0
   27.6252  -19.8040   -5.6665 C   0  0  0  0  0  0  0  0  0  0  0  0
   28.9397  -20.2531   -5.5027 C   0  0  0  0  0  0  0  0  0  0  0  0
   29.5979  -20.8871   -6.5233 C   0  0  0  0  0  0  0  0  0  0  0  0
   28.9572  -21.0808   -7.7157 C   0  0  0  0  0  0  0  0  0  0  0  0
   27.6497  -20.6512   -7.9252 C   0  0  0  0  0  0  0  0  0  0  0  0
   26.8227  -21.2089  -12.7319 C   0  0  0  0  0  0  0  0  0  0  0  0
   26.1266  -22.1726  -13.1364 O   0  0  0  0  0  0  0  0  0  0  0  0
   27.9519  -20.7802  -13.4781 N   0  0  0  0  0  0  0  0  0  0  0  0
   27.7727  -19.8975  -14.5989 C   0  0  0  0  0  0  0  0  0  0  0  0
   26.8528  -20.4645  -15.6145 C   0  0  0  0  0  0  0  0  0  0  0  0
   27.1471  -20.3154  -16.8245 O   0  0  0  0  0  0  0  0  0  0  0  0
   20.9229  -23.3341  -14.4635 C   0  0  0  0  0  0  0  0  0  0  0  0
   21.2515  -23.8532  -16.1642 S   0  0  0  0  0  0  0  0  0  0  0  0
   22.6434  -22.9326  -16.8270 C   0  0  0  0  0  0  0  0  0  0  0  0
   23.6253  -22.4926  -15.8018 C   0  0  0  0  0  0  0  0  0  0  0  0
   24.7535  -21.6365  -16.2977 C   0  0  2  0  0  0  0  0  0  0  0  0
   25.6599  -21.1647  -15.2880 N   0  0  0  0  0  0  0  0  0  0  0  0
   24.2242  -20.5128  -17.1155 C   0  0  0  0  0  0  0  0  0  0  0  0
   23.6443  -19.3897  -16.5378 O   0  0  0  0  0  0  0  0  0  0  0  0
   24.2986  -20.5713  -18.3498 O   0  0  0  0  0  0  0  0  0  0  0  0
  2 13  1  0
  2  1  1  1
  3  2  1  0
  4  3  1  0
  4  5  2  0
  6  5  1  0
  7  6  1  0
  8  7  2  0
  9  8  1  0
 10  9  2  0
 10 11  1  0
 11 12  2  0
 12  7  1  0
 12  4  1  0
 13 14  2  0
 15 16  1  0
 15 13  1  0
 17 18  2  0
 17 16  1  0
 19 20  1  0
 20 21  1  0
 23 22  1  1
 22 21  1  0
 23 24  1  0
 24 17  1  0
 25 23  1  0
 26 25  1  0
 27 25  2  0
M  END
$$$$
