VYW.pdb
     RDKit          3D

 34 36  0  0  1  0  0  0  0  0999 V2000
   30.4211  -17.8293  -16.7867 C   0  0  0  0  0  0  0  0  0  0  0  0
   30.3964  -18.6880  -18.0561 C   0  0  2  0  0  0  0  0  0  0  0  0
   30.9710  -17.9693  -19.2197 C   0  0  0  0  0  0  0  0  0  0  0  0
   29.0451  -19.2588  -18.2208 C   0  0  2  0  0  0  0  0  0  0  0  0
   28.1035  -18.2915  -18.7518 N   0  0  0  0  0  0  0  0  0  0  0  0
   28.4864  -19.9751  -17.0578 C   0  0  0  0  0  0  0  0  0  0  0  0
   29.0407  -20.9309  -16.4827 O   0  0  0  0  0  0  0  0  0  0  0  0
   21.9920  -21.4709  -11.0089 O   0  0  0  0  0  0  0  0  0  0  0  0
   22.9003  -20.9418  -11.9189 C   0  0  0  0  0  0  0  0  0  0  0  0
   24.2584  -20.9410  -11.6202 C   0  0  0  0  0  0  0  0  0  0  0  0
   25.1893  -20.4231  -12.5017 C   0  0  0  0  0  0  0  0  0  0  0  0
   24.8196  -19.8810  -13.7215 C   0  0  0  0  0  0  0  0  0  0  0  0
   25.8086  -19.3240  -14.6696 C   0  0  0  0  0  0  0  0  0  0  0  0
   26.4762  -20.3329  -15.5518 C   0  0  2  0  0  0  0  0  0  0  0  0
   27.2258  -19.5491  -16.5536 N   0  0  0  0  0  0  0  0  0  0  0  0
   25.4383  -21.1540  -16.2286 C   0  0  0  0  0  0  0  0  0  0  0  0
   24.7116  -20.5674  -17.0791 O   0  0  0  0  0  0  0  0  0  0  0  0
   23.4602  -19.8879  -14.0080 C   0  0  0  0  0  0  0  0  0  0  0  0
   22.5336  -20.4029  -13.1318 C   0  0  0  0  0  0  0  0  0  0  0  0
   25.2515  -22.5272  -15.9505 N   0  0  0  0  0  0  0  0  0  0  0  0
   24.1803  -23.2469  -16.6351 C   0  0  1  0  0  0  0  0  0  0  0  0
   24.7257  -24.1431  -17.6867 C   0  0  0  0  0  0  0  0  0  0  0  0
   25.6385  -25.1650  -17.1441 C   0  0  0  0  0  0  0  0  0  0  0  0
   25.2778  -26.3593  -16.4975 C   0  0  0  0  0  0  0  0  0  0  0  0
   26.3871  -27.0019  -16.1011 N   0  0  0  0  0  0  0  0  0  0  0  0
   27.4682  -26.3003  -16.4498 C   0  0  0  0  0  0  0  0  0  0  0  0
   28.8106  -26.5695  -16.2723 C   0  0  0  0  0  0  0  0  0  0  0  0
   29.7707  -25.6870  -16.7498 C   0  0  0  0  0  0  0  0  0  0  0  0
   29.3254  -24.5507  -17.3976 C   0  0  0  0  0  0  0  0  0  0  0  0
   27.9814  -24.2920  -17.5679 C   0  0  0  0  0  0  0  0  0  0  0  0
   27.0156  -25.1588  -17.0979 C   0  0  0  0  0  0  0  0  0  0  0  0
   23.2980  -23.9490  -15.7021 C   0  0  0  0  0  0  0  0  0  0  0  0
   23.6730  -24.1102  -14.3862 O   0  0  0  0  0  0  0  0  0  0  0  0
   22.2044  -24.4083  -16.0760 O   0  0  0  0  0  0  0  0  0  0  0  0
  2  1  1  1
  2  3  1  0
  2  4  1  0
  4  5  1  1
  6 15  1  0
  6  4  1  0
  7  6  2  0
  8  9  1  0
  9 19  2  0
 10  9  1  0
 10 11  2  0
 11 12  1  0
 12 18  2  0
 12 13  1  0
 14 13  1  1
 14 16  1  0
 14 15  1  0
 16 20  1  0
 17 16  2  0
 19 18  1  0
 20 21  1  0
 21 32  1  0
 21 22  1  6
 23 22  1  0
 23 24  2  0
 25 24  1  0
 26 31  2  0
 26 25  1  0
 27 26  1  0
 28 29  1  0
 28 27  2  0
 29 30  2  0
 30 31  1  0
 31 23  1  0
 32 33  1  0
 34 32  2  0
M  END
$$$$
