VYW.pdb
     RDKit          3D

 34 36  0  0  1  0  0  0  0  0999 V2000
   26.3053  -18.2513  -16.3296 C   0  0  0  0  0  0  0  0  0  0  0  0
   27.7694  -18.3039  -15.8789 C   0  0  2  0  0  0  0  0  0  0  0  0
   28.6992  -18.3843  -17.0320 C   0  0  0  0  0  0  0  0  0  0  0  0
   27.9101  -19.3337  -14.8307 C   0  0  2  0  0  0  0  0  0  0  0  0
   27.8593  -20.6778  -15.3737 N   0  0  0  0  0  0  0  0  0  0  0  0
   27.0368  -19.1944  -13.6492 C   0  0  0  0  0  0  0  0  0  0  0  0
   26.8120  -18.1212  -13.0583 O   0  0  0  0  0  0  0  0  0  0  0  0
   21.0761  -17.9330  -16.2537 O   0  0  0  0  0  0  0  0  0  0  0  0
   21.8443  -18.6981  -15.3833 C   0  0  0  0  0  0  0  0  0  0  0  0
   21.8504  -18.4036  -14.0243 C   0  0  0  0  0  0  0  0  0  0  0  0
   22.6025  -19.1434  -13.1305 C   0  0  0  0  0  0  0  0  0  0  0  0
   23.3849  -20.2104  -13.5400 C   0  0  0  0  0  0  0  0  0  0  0  0
   24.1932  -21.0061  -12.5909 C   0  0  0  0  0  0  0  0  0  0  0  0
   25.4072  -20.3110  -12.0572 C   0  0  2  0  0  0  0  0  0  0  0  0
   26.4048  -20.3651  -13.1442 N   0  0  0  0  0  0  0  0  0  0  0  0
   25.9135  -21.0514  -10.8718 C   0  0  0  0  0  0  0  0  0  0  0  0
   26.8328  -21.8935  -11.0748 O   0  0  0  0  0  0  0  0  0  0  0  0
   23.3700  -20.4945  -14.8998 C   0  0  0  0  0  0  0  0  0  0  0  0
   22.6222  -19.7592  -15.7896 C   0  0  0  0  0  0  0  0  0  0  0  0
   25.4061  -20.8431   -9.5690 N   0  0  0  0  0  0  0  0  0  0  0  0
   25.9819  -21.5972   -8.4582 C   0  0  1  0  0  0  0  0  0  0  0  0
   27.4233  -21.2809   -8.2879 C   0  0  0  0  0  0  0  0  0  0  0  0
   27.6560  -20.2013   -7.3120 C   0  0  0  0  0  0  0  0  0  0  0  0
   27.2149  -18.8706   -7.4062 C   0  0  0  0  0  0  0  0  0  0  0  0
   27.6676  -18.1771   -6.3504 N   0  0  0  0  0  0  0  0  0  0  0  0
   28.3862  -18.9748   -5.5568 C   0  0  0  0  0  0  0  0  0  0  0  0
   29.0268  -18.7139   -4.3619 C   0  0  0  0  0  0  0  0  0  0  0  0
   29.7034  -19.7265   -3.6946 C   0  0  0  0  0  0  0  0  0  0  0  0
   29.7036  -20.9812   -4.2732 C   0  0  0  0  0  0  0  0  0  0  0  0
   29.0609  -21.2294   -5.4681 C   0  0  0  0  0  0  0  0  0  0  0  0
   28.3854  -20.2332   -6.1434 C   0  0  0  0  0  0  0  0  0  0  0  0
   25.2209  -21.4298   -7.2194 C   0  0  0  0  0  0  0  0  0  0  0  0
   25.5627  -22.1514   -6.0966 O   0  0  0  0  0  0  0  0  0  0  0  0
   24.2614  -20.6410   -7.1578 O   0  0  0  0  0  0  0  0  0  0  0  0
  2  1  1  6
  2  3  1  0
  2  4  1  0
  4  5  1  6
  6 15  1  0
  6  4  1  0
  7  6  2  0
  8  9  1  0
  9 19  2  0
 10  9  1  0
 10 11  2  0
 11 12  1  0
 12 18  2  0
 12 13  1  0
 14 13  1  6
 14 16  1  0
 14 15  1  0
 16 20  1  0
 17 16  2  0
 19 18  1  0
 20 21  1  0
 21 32  1  0
 21 22  1  1
 23 22  1  0
 23 24  2  0
 25 24  1  0
 26 31  2  0
 26 25  1  0
 27 26  1  0
 28 29  1  0
 28 27  2  0
 29 30  2  0
 30 31  1  0
 31 23  1  0
 32 33  1  0
 34 32  2  0
M  END
$$$$
