VYW.pdb
     RDKit          3D

 34 36  0  0  1  0  0  0  0  0999 V2000
   28.1266  -20.1653  -18.0593 C   0  0  0  0  0  0  0  0  0  0  0  0
   28.9318  -21.4439  -17.8020 C   0  0  2  0  0  0  0  0  0  0  0  0
   29.0064  -22.3015  -19.0101 C   0  0  0  0  0  0  0  0  0  0  0  0
   28.4425  -22.0751  -16.5605 C   0  0  2  0  0  0  0  0  0  0  0  0
   27.2008  -22.7964  -16.7659 N   0  0  0  0  0  0  0  0  0  0  0  0
   28.3752  -21.2122  -15.3652 C   0  0  0  0  0  0  0  0  0  0  0  0
   29.3324  -20.5576  -14.9107 O   0  0  0  0  0  0  0  0  0  0  0  0
   27.6755  -15.3903  -17.8171 O   0  0  0  0  0  0  0  0  0  0  0  0
   27.2581  -16.3113  -16.8629 C   0  0  0  0  0  0  0  0  0  0  0  0
   26.3654  -17.3173  -17.2160 C   0  0  0  0  0  0  0  0  0  0  0  0
   25.9293  -18.2498  -16.2929 C   0  0  0  0  0  0  0  0  0  0  0  0
   26.3565  -18.2305  -14.9755 C   0  0  0  0  0  0  0  0  0  0  0  0
   25.8942  -19.2232  -13.9815 C   0  0  0  0  0  0  0  0  0  0  0  0
   26.9347  -20.2036  -13.5364 C   0  0  2  0  0  0  0  0  0  0  0  0
   27.1324  -21.1178  -14.6788 N   0  0  0  0  0  0  0  0  0  0  0  0
   26.4221  -20.9636  -12.3662 C   0  0  0  0  0  0  0  0  0  0  0  0
   25.7268  -21.9891  -12.6118 O   0  0  0  0  0  0  0  0  0  0  0  0
   27.2482  -17.2208  -14.6355 C   0  0  0  0  0  0  0  0  0  0  0  0
   27.6825  -16.2929  -15.5530 C   0  0  0  0  0  0  0  0  0  0  0  0
   26.6842  -20.5772  -11.0320 N   0  0  0  0  0  0  0  0  0  0  0  0
   26.1258  -21.3751   -9.9432 C   0  0  1  0  0  0  0  0  0  0  0  0
   27.1496  -21.6499   -8.9026 C   0  0  0  0  0  0  0  0  0  0  0  0
   27.3510  -20.5107   -7.9896 C   0  0  0  0  0  0  0  0  0  0  0  0
   26.8190  -19.2173   -8.1258 C   0  0  0  0  0  0  0  0  0  0  0  0
   27.2687  -18.4447   -7.1250 N   0  0  0  0  0  0  0  0  0  0  0  0
   28.0713  -19.1544   -6.3282 C   0  0  0  0  0  0  0  0  0  0  0  0
   28.7427  -18.7941   -5.1769 C   0  0  0  0  0  0  0  0  0  0  0  0
   29.5123  -19.7269   -4.4943 C   0  0  0  0  0  0  0  0  0  0  0  0
   29.5715  -21.0061   -5.0132 C   0  0  0  0  0  0  0  0  0  0  0  0
   28.8971  -21.3539   -6.1650 C   0  0  0  0  0  0  0  0  0  0  0  0
   28.1293  -20.4377   -6.8549 C   0  0  0  0  0  0  0  0  0  0  0  0
   24.9075  -20.7832   -9.3888 C   0  0  0  0  0  0  0  0  0  0  0  0
   24.1319  -21.5011   -8.5049 O   0  0  0  0  0  0  0  0  0  0  0  0
   24.5536  -19.6328   -9.7019 O   0  0  0  0  0  0  0  0  0  0  0  0
  2  1  1  6
  2  3  1  0
  2  4  1  0
  4  5  1  6
  6 15  1  0
  6  4  1  0
  7  6  2  0
  8  9  1  0
  9 19  2  0
 10  9  1  0
 10 11  2  0
 11 12  1  0
 12 18  2  0
 12 13  1  0
 14 13  1  6
 14 16  1  0
 14 15  1  0
 16 20  1  0
 17 16  2  0
 19 18  1  0
 20 21  1  0
 21 32  1  0
 21 22  1  1
 23 22  1  0
 23 24  2  0
 25 24  1  0
 26 31  2  0
 26 25  1  0
 27 26  1  0
 28 29  1  0
 28 27  2  0
 29 30  2  0
 30 31  1  0
 31 23  1  0
 32 33  1  0
 34 32  2  0
M  END
$$$$
