VYW.pdb
     RDKit          3D

 34 36  0  0  1  0  0  0  0  0999 V2000
   29.3837  -17.0196  -16.2425 C   0  0  0  0  0  0  0  0  0  0  0  0
   29.9668  -18.3683  -16.6790 C   0  0  2  0  0  0  0  0  0  0  0  0
   31.3295  -18.2225  -17.2468 C   0  0  0  0  0  0  0  0  0  0  0  0
   28.9684  -19.0761  -17.5043 C   0  0  2  0  0  0  0  0  0  0  0  0
   29.0015  -18.6484  -18.8900 N   0  0  0  0  0  0  0  0  0  0  0  0
   27.5885  -19.1118  -16.9823 C   0  0  0  0  0  0  0  0  0  0  0  0
   26.7778  -18.1693  -17.0611 O   0  0  0  0  0  0  0  0  0  0  0  0
   23.1591  -18.3963  -21.2736 O   0  0  0  0  0  0  0  0  0  0  0  0
   23.6262  -19.0943  -20.1656 C   0  0  0  0  0  0  0  0  0  0  0  0
   22.9347  -19.0239  -18.9613 C   0  0  0  0  0  0  0  0  0  0  0  0
   23.3706  -19.7049  -17.8396 C   0  0  0  0  0  0  0  0  0  0  0  0
   24.5127  -20.4883  -17.8570 C   0  0  0  0  0  0  0  0  0  0  0  0
   24.9866  -21.2189  -16.6617 C   0  0  0  0  0  0  0  0  0  0  0  0
   25.8155  -20.4093  -15.7135 C   0  0  2  0  0  0  0  0  0  0  0  0
   27.1472  -20.3035  -16.3421 N   0  0  0  0  0  0  0  0  0  0  0  0
   25.9255  -21.1325  -14.4195 C   0  0  0  0  0  0  0  0  0  0  0  0
   26.8979  -21.9286  -14.2915 O   0  0  0  0  0  0  0  0  0  0  0  0
   25.1944  -20.5504  -19.0660 C   0  0  0  0  0  0  0  0  0  0  0  0
   24.7615  -19.8735  -20.1821 C   0  0  0  0  0  0  0  0  0  0  0  0
   24.9984  -20.9574  -13.3669 N   0  0  0  0  0  0  0  0  0  0  0  0
   25.1968  -21.6943  -12.1214 C   0  0  1  0  0  0  0  0  0  0  0  0
   26.5468  -21.4370  -11.5574 C   0  0  0  0  0  0  0  0  0  0  0  0
   26.4983  -20.9602  -10.1638 C   0  0  0  0  0  0  0  0  0  0  0  0
   25.3651  -20.5082   -9.4666 C   0  0  0  0  0  0  0  0  0  0  0  0
   25.7294  -20.1097   -8.2382 N   0  0  0  0  0  0  0  0  0  0  0  0
   27.0449  -20.2729   -8.0788 C   0  0  0  0  0  0  0  0  0  0  0  0
   27.8567  -20.0224   -6.9904 C   0  0  0  0  0  0  0  0  0  0  0  0
   29.2161  -20.2990   -7.0526 C   0  0  0  0  0  0  0  0  0  0  0  0
   29.7056  -20.8262   -8.2323 C   0  0  0  0  0  0  0  0  0  0  0  0
   28.8848  -21.0711   -9.3134 C   0  0  0  0  0  0  0  0  0  0  0  0
   27.5322  -20.8003   -9.2671 C   0  0  0  0  0  0  0  0  0  0  0  0
   24.1279  -21.4466  -11.1528 C   0  0  0  0  0  0  0  0  0  0  0  0
   23.2665  -20.3863  -11.3318 O   0  0  0  0  0  0  0  0  0  0  0  0
   23.9788  -22.1813  -10.1605 O   0  0  0  0  0  0  0  0  0  0  0  0
  2  1  1  6
  2  3  1  0
  2  4  1  0
  4  5  1  6
  6 15  1  0
  6  4  1  0
  7  6  2  0
  8  9  1  0
  9 19  2  0
 10  9  1  0
 10 11  2  0
 11 12  1  0
 12 18  2  0
 12 13  1  0
 14 13  1  6
 14 16  1  0
 14 15  1  0
 16 20  1  0
 17 16  2  0
 19 18  1  0
 20 21  1  0
 21 32  1  0
 21 22  1  1
 23 22  1  0
 23 24  2  0
 25 24  1  0
 26 31  2  0
 26 25  1  0
 27 26  1  0
 28 29  1  0
 28 27  2  0
 29 30  2  0
 30 31  1  0
 31 23  1  0
 32 33  1  0
 34 32  2  0
M  END
$$$$
