VYW.pdb
     RDKit          3D

 34 36  0  0  1  0  0  0  0  0999 V2000
   28.2982  -16.7942  -18.3758 C   0  0  0  0  0  0  0  0  0  0  0  0
   29.5547  -17.5541  -17.9361 C   0  0  2  0  0  0  0  0  0  0  0  0
   30.5918  -17.5660  -18.9967 C   0  0  0  0  0  0  0  0  0  0  0  0
   29.1524  -18.8595  -17.3766 C   0  0  2  0  0  0  0  0  0  0  0  0
   28.7568  -19.7988  -18.4088 N   0  0  0  0  0  0  0  0  0  0  0  0
   28.1763  -18.8292  -16.2701 C   0  0  0  0  0  0  0  0  0  0  0  0
   28.3959  -18.3388  -15.1464 O   0  0  0  0  0  0  0  0  0  0  0  0
   19.7635  -18.8531  -13.1956 O   0  0  0  0  0  0  0  0  0  0  0  0
   20.9304  -18.9010  -13.9500 C   0  0  0  0  0  0  0  0  0  0  0  0
   21.4131  -20.1247  -14.4009 C   0  0  0  0  0  0  0  0  0  0  0  0
   22.5701  -20.2094  -15.1532 C   0  0  0  0  0  0  0  0  0  0  0  0
   23.3047  -19.0860  -15.4948 C   0  0  0  0  0  0  0  0  0  0  0  0
   24.5439  -19.1678  -16.2980 C   0  0  0  0  0  0  0  0  0  0  0  0
   25.8050  -19.3030  -15.5024 C   0  0  2  0  0  0  0  0  0  0  0  0
   26.8924  -19.3994  -16.4964 N   0  0  0  0  0  0  0  0  0  0  0  0
   25.7451  -20.5521  -14.6988 C   0  0  0  0  0  0  0  0  0  0  0  0
   25.9194  -21.6386  -15.3191 O   0  0  0  0  0  0  0  0  0  0  0  0
   22.8120  -17.8699  -15.0385 C   0  0  0  0  0  0  0  0  0  0  0  0
   21.6612  -17.7847  -14.2902 C   0  0  0  0  0  0  0  0  0  0  0  0
   25.5040  -20.5518  -13.3060 N   0  0  0  0  0  0  0  0  0  0  0  0
   25.3839  -21.8306  -12.6100 C   0  0  1  0  0  0  0  0  0  0  0  0
   26.5155  -22.0355  -11.6699 C   0  0  0  0  0  0  0  0  0  0  0  0
   26.4576  -21.1328  -10.5065 C   0  0  0  0  0  0  0  0  0  0  0  0
   25.3620  -20.3532  -10.0984 C   0  0  0  0  0  0  0  0  0  0  0  0
   25.7103  -19.6246   -9.0268 N   0  0  0  0  0  0  0  0  0  0  0  0
   26.9794  -19.8775   -8.6979 C   0  0  0  0  0  0  0  0  0  0  0  0
   27.7571  -19.3846   -7.6692 C   0  0  0  0  0  0  0  0  0  0  0  0
   29.0659  -19.8206   -7.5102 C   0  0  0  0  0  0  0  0  0  0  0  0
   29.5410  -20.7524   -8.4130 C   0  0  0  0  0  0  0  0  0  0  0  0
   28.7548  -21.2368   -9.4375 C   0  0  0  0  0  0  0  0  0  0  0  0
   27.4528  -20.8121   -9.6090 C   0  0  0  0  0  0  0  0  0  0  0  0
   24.0810  -21.9907  -11.9628 C   0  0  0  0  0  0  0  0  0  0  0  0
   23.6333  -23.2461  -11.6140 O   0  0  0  0  0  0  0  0  0  0  0  0
   23.3614  -21.0064  -11.7179 O   0  0  0  0  0  0  0  0  0  0  0  0
  2  1  1  6
  2  3  1  0
  2  4  1  0
  4  5  1  6
  6 15  1  0
  6  4  1  0
  7  6  2  0
  8  9  1  0
  9 19  2  0
 10  9  1  0
 10 11  2  0
 11 12  1  0
 12 18  2  0
 12 13  1  0
 14 13  1  6
 14 16  1  0
 14 15  1  0
 16 20  1  0
 17 16  2  0
 19 18  1  0
 20 21  1  0
 21 32  1  0
 21 22  1  1
 23 22  1  0
 23 24  2  0
 25 24  1  0
 26 31  2  0
 26 25  1  0
 27 26  1  0
 28 29  1  0
 28 27  2  0
 29 30  2  0
 30 31  1  0
 31 23  1  0
 32 33  1  0
 34 32  2  0
M  END
$$$$
