VYW.pdb
     RDKit          3D

 34 36  0  0  1  0  0  0  0  0999 V2000
   22.7519  -13.1977  -22.2612 C   0  0  0  0  0  0  0  0  0  0  0  0
   21.3719  -12.6811  -21.8391 C   0  0  2  0  0  0  0  0  0  0  0  0
   21.3694  -11.2107  -21.6429 C   0  0  0  0  0  0  0  0  0  0  0  0
   20.8731  -13.5077  -20.7224 C   0  0  2  0  0  0  0  0  0  0  0  0
   20.8342  -14.9179  -21.0604 N   0  0  0  0  0  0  0  0  0  0  0  0
   19.6147  -13.0687  -20.0888 C   0  0  0  0  0  0  0  0  0  0  0  0
   18.4807  -13.2411  -20.5742 O   0  0  0  0  0  0  0  0  0  0  0  0
   16.5081  -17.9320  -16.7468 O   0  0  0  0  0  0  0  0  0  0  0  0
   17.0254  -16.6416  -16.7566 C   0  0  0  0  0  0  0  0  0  0  0  0
   16.1634  -15.5505  -16.7565 C   0  0  0  0  0  0  0  0  0  0  0  0
   16.6431  -14.2536  -16.7660 C   0  0  0  0  0  0  0  0  0  0  0  0
   17.9998  -13.9754  -16.7764 C   0  0  0  0  0  0  0  0  0  0  0  0
   18.5214  -12.5915  -16.7879 C   0  0  0  0  0  0  0  0  0  0  0  0
   18.4953  -11.9174  -18.1245 C   0  0  2  0  0  0  0  0  0  0  0  0
   19.6959  -12.4000  -18.8354 N   0  0  0  0  0  0  0  0  0  0  0  0
   18.5815  -10.4459  -17.9322 C   0  0  0  0  0  0  0  0  0  0  0  0
   19.7057   -9.9793  -17.5946 O   0  0  0  0  0  0  0  0  0  0  0  0
   18.8504  -15.0739  -16.7763 C   0  0  0  0  0  0  0  0  0  0  0  0
   18.3741  -16.3641  -16.7668 C   0  0  0  0  0  0  0  0  0  0  0  0
   17.4726   -9.5875  -18.1102 N   0  0  0  0  0  0  0  0  0  0  0  0
   17.6191   -8.1695  -17.7914 C   0  0  1  0  0  0  0  0  0  0  0  0
   17.9577   -7.3814  -19.0042 C   0  0  0  0  0  0  0  0  0  0  0  0
   16.8465   -6.5232  -19.4520 C   0  0  0  0  0  0  0  0  0  0  0  0
   16.2645   -5.4593  -18.7424 C   0  0  0  0  0  0  0  0  0  0  0  0
   15.2466   -4.9539  -19.4559 N   0  0  0  0  0  0  0  0  0  0  0  0
   15.1195   -5.6236  -20.6039 C   0  0  0  0  0  0  0  0  0  0  0  0
   14.2364   -5.4531  -21.6514 C   0  0  0  0  0  0  0  0  0  0  0  0
   14.3129   -6.2701  -22.7717 C   0  0  0  0  0  0  0  0  0  0  0  0
   15.2957   -7.2412  -22.7859 C   0  0  0  0  0  0  0  0  0  0  0  0
   16.1717   -7.4027  -21.7328 C   0  0  0  0  0  0  0  0  0  0  0  0
   16.1073   -6.5993  -20.6124 C   0  0  0  0  0  0  0  0  0  0  0  0
   16.4549   -7.6361  -17.0830 C   0  0  0  0  0  0  0  0  0  0  0  0
   16.5013   -6.3747  -16.5307 O   0  0  0  0  0  0  0  0  0  0  0  0
   15.4126   -8.3046  -16.9678 O   0  0  0  0  0  0  0  0  0  0  0  0
  2  1  1  1
  2  3  1  0
  2  4  1  0
  4  5  1  6
  6 15  1  0
  6  4  1  0
  7  6  2  0
  8  9  1  0
  9 19  2  0
 10  9  1  0
 10 11  2  0
 11 12  1  0
 12 18  2  0
 12 13  1  0
 14 13  1  1
 14 16  1  0
 14 15  1  0
 16 20  1  0
 17 16  2  0
 19 18  1  0
 20 21  1  0
 21 32  1  0
 21 22  1  6
 23 22  1  0
 23 24  2  0
 25 24  1  0
 26 31  2  0
 26 25  1  0
 27 26  1  0
 28 29  1  0
 28 27  2  0
 29 30  2  0
 30 31  1  0
 31 23  1  0
 32 33  1  0
 34 32  2  0
M  END
$$$$
