VYW.pdb
     RDKit          3D

 34 36  0  0  1  0  0  0  0  0999 V2000
   28.2100  -17.4518  -14.7616 C   0  0  0  0  0  0  0  0  0  0  0  0
   28.2266  -18.8816  -15.3137 C   0  0  2  0  0  0  0  0  0  0  0  0
   29.0386  -18.9860  -16.5507 C   0  0  0  0  0  0  0  0  0  0  0  0
   26.8406  -19.3858  -15.3765 C   0  0  2  0  0  0  0  0  0  0  0  0
   26.1310  -18.8923  -16.5414 N   0  0  0  0  0  0  0  0  0  0  0  0
   26.0319  -19.2436  -14.1503 C   0  0  0  0  0  0  0  0  0  0  0  0
   25.5638  -18.1675  -13.7326 O   0  0  0  0  0  0  0  0  0  0  0  0
   19.6452  -18.5801  -15.2488 O   0  0  0  0  0  0  0  0  0  0  0  0
   20.6456  -19.2036  -14.5117 C   0  0  0  0  0  0  0  0  0  0  0  0
   21.5999  -19.9808  -15.1590 C   0  0  0  0  0  0  0  0  0  0  0  0
   22.6086  -20.6151  -14.4574 C   0  0  0  0  0  0  0  0  0  0  0  0
   22.7203  -20.5101  -13.0809 C   0  0  0  0  0  0  0  0  0  0  0  0
   23.7952  -21.1862  -12.3227 C   0  0  0  0  0  0  0  0  0  0  0  0
   25.0291  -20.3658  -12.1077 C   0  0  2  0  0  0  0  0  0  0  0  0
   25.7651  -20.4143  -13.3866 N   0  0  0  0  0  0  0  0  0  0  0  0
   25.8472  -20.9850  -11.0321 C   0  0  0  0  0  0  0  0  0  0  0  0
   26.5871  -21.9536  -11.3638 O   0  0  0  0  0  0  0  0  0  0  0  0
   21.7611  -19.7309  -12.4462 C   0  0  0  0  0  0  0  0  0  0  0  0
   20.7575  -19.0996  -13.1432 C   0  0  0  0  0  0  0  0  0  0  0  0
   25.8156  -20.5319   -9.6936 N   0  0  0  0  0  0  0  0  0  0  0  0
   26.6104  -21.2364   -8.6907 C   0  0  1  0  0  0  0  0  0  0  0  0
   27.9300  -20.5820   -8.4986 C   0  0  0  0  0  0  0  0  0  0  0  0
   27.9425  -19.6549   -7.3531 C   0  0  0  0  0  0  0  0  0  0  0  0
   27.4427  -18.3419   -7.3262 C   0  0  0  0  0  0  0  0  0  0  0  0
   27.6826  -17.8002   -6.1221 N   0  0  0  0  0  0  0  0  0  0  0  0
   28.3147  -18.6824   -5.3445 C   0  0  0  0  0  0  0  0  0  0  0  0
   28.7439  -18.5824   -4.0361 C   0  0  0  0  0  0  0  0  0  0  0  0
   29.3671  -19.6594   -3.4195 C   0  0  0  0  0  0  0  0  0  0  0  0
   29.5327  -20.8113   -4.1642 C   0  0  0  0  0  0  0  0  0  0  0  0
   29.1007  -20.8989   -5.4712 C   0  0  0  0  0  0  0  0  0  0  0  0
   28.4808  -19.8369   -6.0978 C   0  0  0  0  0  0  0  0  0  0  0  0
   25.8849  -21.4158   -7.4324 C   0  0  0  0  0  0  0  0  0  0  0  0
   24.6584  -20.8149   -7.2511 O   0  0  0  0  0  0  0  0  0  0  0  0
   26.3572  -22.1073   -6.5128 O   0  0  0  0  0  0  0  0  0  0  0  0
  2  1  1  6
  2  3  1  0
  2  4  1  0
  4  5  1  6
  6 15  1  0
  6  4  1  0
  7  6  2  0
  8  9  1  0
  9 19  2  0
 10  9  1  0
 10 11  2  0
 11 12  1  0
 12 18  2  0
 12 13  1  0
 14 13  1  6
 14 16  1  0
 14 15  1  0
 16 20  1  0
 17 16  2  0
 19 18  1  0
 20 21  1  0
 21 32  1  0
 21 22  1  1
 23 22  1  0
 23 24  2  0
 25 24  1  0
 26 31  2  0
 26 25  1  0
 27 26  1  0
 28 29  1  0
 28 27  2  0
 29 30  2  0
 30 31  1  0
 31 23  1  0
 32 33  1  0
 34 32  2  0
M  END
$$$$
