VYW.pdb
     RDKit          3D

 34 36  0  0  1  0  0  0  0  0999 V2000
   29.1510  -22.8688  -19.2735 C   0  0  0  0  0  0  0  0  0  0  0  0
   29.4623  -22.0968  -17.9865 C   0  0  2  0  0  0  0  0  0  0  0  0
   30.8794  -22.2545  -17.5773 C   0  0  0  0  0  0  0  0  0  0  0  0
   28.4332  -22.4154  -16.9772 C   0  0  2  0  0  0  0  0  0  0  0  0
   27.1220  -22.5956  -17.5707 N   0  0  0  0  0  0  0  0  0  0  0  0
   28.3751  -21.5342  -15.7949 C   0  0  0  0  0  0  0  0  0  0  0  0
   29.3698  -21.1381  -15.1584 O   0  0  0  0  0  0  0  0  0  0  0  0
   28.2167  -15.3429  -18.2685 O   0  0  0  0  0  0  0  0  0  0  0  0
   27.6889  -16.2537  -17.3602 C   0  0  0  0  0  0  0  0  0  0  0  0
   26.8429  -17.2636  -17.8052 C   0  0  0  0  0  0  0  0  0  0  0  0
   26.3002  -18.1863  -16.9300 C   0  0  0  0  0  0  0  0  0  0  0  0
   26.5693  -18.1526  -15.5717 C   0  0  0  0  0  0  0  0  0  0  0  0
   25.9921  -19.1347  -14.6285 C   0  0  0  0  0  0  0  0  0  0  0  0
   26.9332  -20.2099  -14.1812 C   0  0  2  0  0  0  0  0  0  0  0  0
   27.0956  -21.1038  -15.3449 N   0  0  0  0  0  0  0  0  0  0  0  0
   26.3200  -20.9586  -13.0528 C   0  0  0  0  0  0  0  0  0  0  0  0
   25.5965  -21.9498  -13.3519 O   0  0  0  0  0  0  0  0  0  0  0  0
   27.4157  -17.1391  -15.1399 C   0  0  0  0  0  0  0  0  0  0  0  0
   27.9560  -16.2211  -16.0098 C   0  0  0  0  0  0  0  0  0  0  0  0
   26.5195  -20.5980  -11.7008 N   0  0  0  0  0  0  0  0  0  0  0  0
   25.8916  -21.4023  -10.6555 C   0  0  1  0  0  0  0  0  0  0  0  0
   26.8845  -21.8171   -9.6314 C   0  0  0  0  0  0  0  0  0  0  0  0
   27.0080  -20.8424   -8.5329 C   0  0  0  0  0  0  0  0  0  0  0  0
   26.2465  -19.6755   -8.3521 C   0  0  0  0  0  0  0  0  0  0  0  0
   26.6876  -19.0213   -7.2667 N   0  0  0  0  0  0  0  0  0  0  0  0
   27.7020  -19.6904   -6.7136 C   0  0  0  0  0  0  0  0  0  0  0  0
   28.4514  -19.4171   -5.5868 C   0  0  0  0  0  0  0  0  0  0  0  0
   29.4568  -20.2874   -5.1865 C   0  0  0  0  0  0  0  0  0  0  0  0
   29.6654  -21.4163   -5.9553 C   0  0  0  0  0  0  0  0  0  0  0  0
   28.9108  -21.6782   -7.0798 C   0  0  0  0  0  0  0  0  0  0  0  0
   27.9092  -20.8222   -7.4908 C   0  0  0  0  0  0  0  0  0  0  0  0
   24.7254  -20.7399  -10.0698 C   0  0  0  0  0  0  0  0  0  0  0  0
   23.8598  -21.4494   -9.2662 O   0  0  0  0  0  0  0  0  0  0  0  0
   24.4966  -19.5364  -10.2842 O   0  0  0  0  0  0  0  0  0  0  0  0
  2  1  1  6
  2  3  1  0
  2  4  1  0
  4  5  1  6
  6 15  1  0
  6  4  1  0
  7  6  2  0
  8  9  1  0
  9 19  2  0
 10  9  1  0
 10 11  2  0
 11 12  1  0
 12 18  2  0
 12 13  1  0
 14 13  1  6
 14 16  1  0
 14 15  1  0
 16 20  1  0
 17 16  2  0
 19 18  1  0
 20 21  1  0
 21 32  1  0
 21 22  1  1
 23 22  1  0
 23 24  2  0
 25 24  1  0
 26 31  2  0
 26 25  1  0
 27 26  1  0
 28 29  1  0
 28 27  2  0
 29 30  2  0
 30 31  1  0
 31 23  1  0
 32 33  1  0
 34 32  2  0
M  END
$$$$
