SCC.pdb
     RDKit          3D

 19 18  0  0  1  0  0  0  0  0999 V2000
   15.8701  -12.6019  -12.4858 O   0  0  0  0  0  0  0  0  0  0  0  0
   16.3240  -11.3392  -12.8772 C   0  0  0  0  0  0  0  0  0  0  0  0
   15.2864  -10.3413  -12.4113 C   0  0  2  0  0  0  0  0  0  0  0  0
   14.1736  -10.3996  -13.3017 N   0  0  0  0  0  0  0  0  0  0  0  0
   15.8594   -8.9737  -12.2834 C   0  0  0  0  0  0  0  0  0  0  0  0
   16.0087   -8.2477  -13.2759 O   0  0  0  0  0  0  0  0  0  0  0  0
   16.2299   -8.5263  -10.9887 N   0  0  0  0  0  0  0  0  0  0  0  0
   16.8864   -7.2960  -10.6728 C   0  0  1  0  0  0  0  0  0  0  0  0
   16.6522   -6.8464   -9.2685 C   0  0  0  0  0  0  0  0  0  0  0  0
   17.5786   -5.3496   -8.8514 S   0  0  0  0  0  0  0  0  0  0  0  0
   18.3154   -7.2335  -11.1076 C   0  0  0  0  0  0  0  0  0  0  0  0
   19.1236   -8.1500  -10.8418 O   0  0  0  0  0  0  0  0  0  0  0  0
   18.7873   -6.1225  -11.8381 N   0  0  0  0  0  0  0  0  0  0  0  0
   20.1072   -5.9949  -12.4153 C   0  0  1  0  0  0  0  0  0  0  0  0
   20.5200   -7.1184  -13.2890 C   0  0  0  0  0  0  0  0  0  0  0  0
   22.2445   -7.0796  -13.7711 S   0  0  0  0  0  0  0  0  0  0  0  0
   20.2986   -4.6383  -13.0117 C   0  0  0  0  0  0  0  0  0  0  0  0
   19.3445   -3.8787  -13.2798 O   0  0  0  0  0  0  0  0  0  0  0  0
   21.5683   -4.2206  -13.2738 O   0  0  0  0  0  0  0  0  0  0  0  0
  1  2  1  0
  2  3  1  0
  3  5  1  0
  3  4  1  6
  5  6  2  0
  7  8  1  0
  7  5  1  0
  9 10  1  0
  8  9  1  1
 11  8  1  0
 11 12  2  0
 13 11  1  0
 14 13  1  0
 14 17  1  0
 14 15  1  6
 16 15  1  0
 17 18  2  0
 17 19  1  0
M  END
$$$$
