SCC.pdb
     RDKit          3D

 19 18  0  0  1  0  0  0  0  0999 V2000
   14.4251  -12.5026  -12.9195 O   0  0  0  0  0  0  0  0  0  0  0  0
   14.8629  -11.5506  -11.9945 C   0  0  0  0  0  0  0  0  0  0  0  0
   16.3622  -11.7176  -11.8765 C   0  0  2  0  0  0  0  0  0  0  0  0
   16.6263  -12.9228  -11.1608 N   0  0  0  0  0  0  0  0  0  0  0  0
   17.0002  -10.5223  -11.2607 C   0  0  0  0  0  0  0  0  0  0  0  0
   17.0380  -10.3802  -10.0307 O   0  0  0  0  0  0  0  0  0  0  0  0
   17.5645   -9.5496  -12.1261 N   0  0  0  0  0  0  0  0  0  0  0  0
   18.2085   -8.3356  -11.7313 C   0  0  1  0  0  0  0  0  0  0  0  0
   19.3836   -7.9873  -12.5839 C   0  0  0  0  0  0  0  0  0  0  0  0
   20.5045   -6.8154  -11.7821 S   0  0  0  0  0  0  0  0  0  0  0  0
   17.2722   -7.1972  -11.4810 C   0  0  0  0  0  0  0  0  0  0  0  0
   16.3951   -6.8733  -12.3115 O   0  0  0  0  0  0  0  0  0  0  0  0
   17.3607   -6.4551  -10.2843 N   0  0  0  0  0  0  0  0  0  0  0  0
   16.4630   -5.3940   -9.8848 C   0  0  1  0  0  0  0  0  0  0  0  0
   16.0671   -5.4129   -8.4569 C   0  0  0  0  0  0  0  0  0  0  0  0
   15.5405   -7.0178   -7.8612 S   0  0  0  0  0  0  0  0  0  0  0  0
   16.9496   -4.0706  -10.3794 C   0  0  0  0  0  0  0  0  0  0  0  0
   18.0158   -3.9389  -11.0158 O   0  0  0  0  0  0  0  0  0  0  0  0
   16.1957   -2.9663  -10.1194 O   0  0  0  0  0  0  0  0  0  0  0  0
  1  2  1  0
  2  3  1  0
  3  5  1  0
  3  4  1  1
  5  6  2  0
  7  8  1  0
  7  5  1  0
  9 10  1  0
  8  9  1  6
 11  8  1  0
 11 12  2  0
 13 11  1  0
 14 13  1  0
 14 17  1  0
 14 15  1  1
 16 15  1  0
 17 18  2  0
 17 19  1  0
M  END
$$$$
