SCC.pdb
     RDKit          3D

 19 18  0  0  1  0  0  0  0  0999 V2000
   22.8072  -23.1600  -12.4644 O   0  0  0  0  0  0  0  0  0  0  0  0
   23.1571  -21.8097  -12.5523 C   0  0  0  0  0  0  0  0  0  0  0  0
   23.8843  -21.6344  -13.8676 C   0  0  2  0  0  0  0  0  0  0  0  0
   25.0413  -22.4686  -13.8573 N   0  0  0  0  0  0  0  0  0  0  0  0
   24.1991  -20.2044  -14.1338 C   0  0  0  0  0  0  0  0  0  0  0  0
   23.3535  -19.3184  -13.9484 O   0  0  0  0  0  0  0  0  0  0  0  0
   25.4986  -19.8864  -14.6070 N   0  0  0  0  0  0  0  0  0  0  0  0
   25.9676  -18.5912  -14.9903 C   0  0  1  0  0  0  0  0  0  0  0  0
   27.4481  -18.4408  -14.8696 C   0  0  0  0  0  0  0  0  0  0  0  0
   28.1182  -19.2789  -13.4132 S   0  0  0  0  0  0  0  0  0  0  0  0
   25.4024  -18.0907  -16.2807 C   0  0  0  0  0  0  0  0  0  0  0  0
   25.2066  -18.8537  -17.2519 O   0  0  0  0  0  0  0  0  0  0  0  0
   25.0731  -16.7269  -16.4300 N   0  0  0  0  0  0  0  0  0  0  0  0
   24.2794  -16.1661  -17.5009 C   0  0  1  0  0  0  0  0  0  0  0  0
   22.8182  -16.3789  -17.3753 C   0  0  0  0  0  0  0  0  0  0  0  0
   21.9140  -16.1972  -18.9106 S   0  0  0  0  0  0  0  0  0  0  0  0
   24.6821  -14.7543  -17.7791 C   0  0  0  0  0  0  0  0  0  0  0  0
   24.7318  -13.8794  -16.8895 O   0  0  0  0  0  0  0  0  0  0  0  0
   25.0042  -14.4138  -19.0580 O   0  0  0  0  0  0  0  0  0  0  0  0
  1  2  1  0
  2  3  1  0
  3  5  1  0
  3  4  1  1
  5  6  2  0
  7  8  1  0
  7  5  1  0
  9 10  1  0
  8  9  1  6
 11  8  1  0
 11 12  2  0
 13 11  1  0
 14 13  1  0
 14 17  1  0
 14 15  1  1
 16 15  1  0
 17 18  2  0
 17 19  1  0
M  END
$$$$
