SCC.pdb
     RDKit          3D

 19 18  0  0  1  0  0  0  0  0999 V2000
   26.6604  -18.8591  -15.8184 O   0  0  0  0  0  0  0  0  0  0  0  0
   27.8546  -18.9529  -15.0982 C   0  0  0  0  0  0  0  0  0  0  0  0
   28.0674  -20.4211  -14.8000 C   0  0  2  0  0  0  0  0  0  0  0  0
   28.3941  -21.0856  -16.0191 N   0  0  0  0  0  0  0  0  0  0  0  0
   26.8913  -21.0163  -14.1089 C   0  0  0  0  0  0  0  0  0  0  0  0
   26.0359  -21.6547  -14.7375 O   0  0  0  0  0  0  0  0  0  0  0  0
   26.7796  -20.8301  -12.7066 N   0  0  0  0  0  0  0  0  0  0  0  0
   25.6045  -21.0280  -11.9163 C   0  0  1  0  0  0  0  0  0  0  0  0
   25.8041  -20.7057  -10.4723 C   0  0  0  0  0  0  0  0  0  0  0  0
   24.2740  -20.8200   -9.5139 S   0  0  0  0  0  0  0  0  0  0  0  0
   24.3610  -20.4474  -12.5092 C   0  0  0  0  0  0  0  0  0  0  0  0
   24.3531  -19.3154  -13.0406 O   0  0  0  0  0  0  0  0  0  0  0  0
   23.1535  -21.1767  -12.4809 N   0  0  0  0  0  0  0  0  0  0  0  0
   21.9103  -20.7686  -13.0968 C   0  0  1  0  0  0  0  0  0  0  0  0
   21.9047  -20.8018  -14.5784 C   0  0  0  0  0  0  0  0  0  0  0  0
   20.3457  -20.3229  -15.3187 S   0  0  0  0  0  0  0  0  0  0  0  0
   20.7478  -21.4523  -12.4535 C   0  0  0  0  0  0  0  0  0  0  0  0
   20.8824  -22.3938  -11.6443 O   0  0  0  0  0  0  0  0  0  0  0  0
   19.4925  -21.0282  -12.7694 O   0  0  0  0  0  0  0  0  0  0  0  0
  1  2  1  0
  2  3  1  0
  3  5  1  0
  3  4  1  6
  5  6  2  0
  7  8  1  0
  7  5  1  0
  9 10  1  0
  8  9  1  1
 11  8  1  0
 11 12  2  0
 13 11  1  0
 14 13  1  0
 14 17  1  0
 14 15  1  6
 16 15  1  0
 17 18  2  0
 17 19  1  0
M  END
$$$$
