SCC.pdb
     RDKit          3D

 19 18  0  0  1  0  0  0  0  0999 V2000
   28.4898  -18.1066  -14.9067 O   0  0  0  0  0  0  0  0  0  0  0  0
   27.3651  -18.8343  -14.5078 C   0  0  0  0  0  0  0  0  0  0  0  0
   27.7607  -20.2946  -14.5356 C   0  0  2  0  0  0  0  0  0  0  0  0
   28.0049  -20.6695  -15.8900 N   0  0  0  0  0  0  0  0  0  0  0  0
   26.7429  -21.1512  -13.8682 C   0  0  0  0  0  0  0  0  0  0  0  0
   26.1468  -22.0398  -14.4922 O   0  0  0  0  0  0  0  0  0  0  0  0
   26.4760  -20.9189  -12.4940 N   0  0  0  0  0  0  0  0  0  0  0  0
   25.2669  -21.2364  -11.8000 C   0  0  1  0  0  0  0  0  0  0  0  0
   25.4162  -21.2133  -10.3147 C   0  0  0  0  0  0  0  0  0  0  0  0
   25.8492  -19.5746   -9.6823 S   0  0  0  0  0  0  0  0  0  0  0  0
   24.0601  -20.5144  -12.3074 C   0  0  0  0  0  0  0  0  0  0  0  0
   24.0954  -19.2981  -12.5961 O   0  0  0  0  0  0  0  0  0  0  0  0
   22.8393  -21.2017  -12.4737 N   0  0  0  0  0  0  0  0  0  0  0  0
   21.7363  -20.7678  -13.3022 C   0  0  1  0  0  0  0  0  0  0  0  0
   22.0751  -20.5386  -14.7266 C   0  0  0  0  0  0  0  0  0  0  0  0
   20.6983  -19.9866  -15.7303 S   0  0  0  0  0  0  0  0  0  0  0  0
   20.5326  -21.6243  -13.0778 C   0  0  0  0  0  0  0  0  0  0  0  0
   20.6072  -22.7901  -12.6367 O   0  0  0  0  0  0  0  0  0  0  0  0
   19.3072  -21.1070  -13.3711 O   0  0  0  0  0  0  0  0  0  0  0  0
  1  2  1  0
  2  3  1  0
  3  5  1  0
  3  4  1  6
  5  6  2  0
  7  8  1  0
  7  5  1  0
  9 10  1  0
  8  9  1  1
 11  8  1  0
 11 12  2  0
 13 11  1  0
 14 13  1  0
 14 17  1  0
 14 15  1  6
 16 15  1  0
 17 18  2  0
 17 19  1  0
M  END
$$$$
