IKG.pdb
     RDKit          3D

 22 21  0  0  1  0  0  0  0  0999 V2000
   25.8017  -14.5006  -16.2978 C   0  0  0  0  0  0  0  0  0  0  0  0
   25.4803  -15.9249  -16.7586 C   0  0  0  0  0  0  0  0  0  0  0  0
   25.1673  -16.7933  -15.5636 C   0  0  2  0  0  0  0  0  0  0  0  0
   26.2701  -16.7270  -14.5598 C   0  0  0  0  0  0  0  0  0  0  0  0
   24.7790  -18.2017  -15.9335 C   0  0  2  0  0  0  0  0  0  0  0  0
   23.6600  -18.1909  -16.8703 N   0  0  0  0  0  0  0  0  0  0  0  0
   24.4328  -19.0606  -14.8028 C   0  0  0  0  0  0  0  0  0  0  0  0
   23.2858  -19.0546  -14.2663 O   0  0  0  0  0  0  0  0  0  0  0  0
   25.3926  -19.9528  -14.2535 N   0  0  0  0  0  0  0  0  0  0  0  0
   25.0914  -20.8384  -13.1111 C   0  0  1  0  0  0  0  0  0  0  0  0
   25.2577  -22.2736  -13.5288 C   0  0  0  0  0  0  0  0  0  0  0  0
   24.1346  -22.8364  -14.3452 C   0  0  0  0  0  0  0  0  0  0  0  0
   24.4085  -24.3135  -14.6686 C   0  0  0  0  0  0  0  0  0  0  0  0
   23.2795  -24.8842  -15.5004 C   0  0  0  0  0  0  0  0  0  0  0  0
   23.6096  -26.2442  -15.8805 N   0  0  0  0  0  0  0  0  0  0  0  0
   25.9531  -20.4917  -11.9654 C   0  0  0  0  0  0  0  0  0  0  0  0
   27.1974  -20.4646  -12.0232 O   0  0  0  0  0  0  0  0  0  0  0  0
   25.3999  -20.1538  -10.6743 N   0  0  0  0  0  0  0  0  0  0  0  0
   26.2284  -19.9394   -9.5188 C   0  0  0  0  0  0  0  0  0  0  0  0
   25.7306  -20.5975   -8.3083 C   0  0  0  0  0  0  0  0  0  0  0  0
   26.4151  -20.3941   -7.1196 O   0  0  0  0  0  0  0  0  0  0  0  0
   24.7178  -21.3391   -8.2752 O   0  0  0  0  0  0  0  0  0  0  0  0
  2  1  1  0
  3  2  1  0
  3  5  1  0
  3  4  1  1
  5  6  1  6
  7  5  1  0
  7  8  2  0
  9  7  1  0
 10  9  1  0
 10 11  1  6
 12 11  1  0
 12 13  1  0
 13 14  1  0
 14 15  1  0
 16 10  1  0
 17 16  2  0
 18 16  1  0
 19 20  1  0
 19 18  1  0
 20 21  1  0
 22 20  2  0
M  END
$$$$
