IKG.pdb
     RDKit          3D

 22 21  0  0  1  0  0  0  0  0999 V2000
   29.4341  -19.2681  -13.7532 C   0  0  0  0  0  0  0  0  0  0  0  0
   28.5331  -19.6521  -14.9301 C   0  0  0  0  0  0  0  0  0  0  0  0
   27.1108  -19.8248  -14.4535 C   0  0  2  0  0  0  0  0  0  0  0  0
   26.5698  -18.5361  -13.9294 C   0  0  0  0  0  0  0  0  0  0  0  0
   26.9358  -20.9789  -13.5004 C   0  0  2  0  0  0  0  0  0  0  0  0
   27.3577  -22.2262  -14.1297 N   0  0  0  0  0  0  0  0  0  0  0  0
   25.5784  -21.1512  -12.9868 C   0  0  0  0  0  0  0  0  0  0  0  0
   24.6745  -21.7566  -13.6347 O   0  0  0  0  0  0  0  0  0  0  0  0
   25.2171  -20.6338  -11.7137 N   0  0  0  0  0  0  0  0  0  0  0  0
   23.8383  -20.7036  -11.1901 C   0  0  1  0  0  0  0  0  0  0  0  0
   23.8284  -20.2982   -9.7419 C   0  0  0  0  0  0  0  0  0  0  0  0
   22.4923  -20.3673   -9.0675 C   0  0  0  0  0  0  0  0  0  0  0  0
   22.1397  -21.8283   -8.7476 C   0  0  0  0  0  0  0  0  0  0  0  0
   20.7845  -21.9038   -8.0766 C   0  0  0  0  0  0  0  0  0  0  0  0
   20.3893  -23.2940   -7.9587 N   0  0  0  0  0  0  0  0  0  0  0  0
   22.9469  -19.8596  -12.0075 C   0  0  0  0  0  0  0  0  0  0  0  0
   23.0510  -18.6204  -12.0837 O   0  0  0  0  0  0  0  0  0  0  0  0
   21.8722  -20.4256  -12.7896 N   0  0  0  0  0  0  0  0  0  0  0  0
   20.9882  -19.6109  -13.5786 C   0  0  0  0  0  0  0  0  0  0  0  0
   19.5695  -19.8299  -13.2864 C   0  0  0  0  0  0  0  0  0  0  0  0
   18.6800  -19.8879  -14.3485 O   0  0  0  0  0  0  0  0  0  0  0  0
   19.1018  -19.9695  -12.1294 O   0  0  0  0  0  0  0  0  0  0  0  0
  2  1  1  0
  3  2  1  0
  3  5  1  0
  3  4  1  1
  5  6  1  6
  7  5  1  0
  7  8  2  0
  9  7  1  0
 10  9  1  0
 10 11  1  1
 12 11  1  0
 12 13  1  0
 13 14  1  0
 14 15  1  0
 16 10  1  0
 17 16  2  0
 18 16  1  0
 19 20  1  0
 19 18  1  0
 20 21  1  0
 22 20  2  0
M  END
$$$$
