IKG.pdb
     RDKit          3D

 22 21  0  0  1  0  0  0  0  0999 V2000
   28.5165  -17.5749  -18.1271 C   0  0  0  0  0  0  0  0  0  0  0  0
   28.8636  -18.6931  -17.1405 C   0  0  0  0  0  0  0  0  0  0  0  0
   27.6147  -19.1576  -16.4302 C   0  0  2  0  0  0  0  0  0  0  0  0
   26.9083  -18.0052  -15.7968 C   0  0  0  0  0  0  0  0  0  0  0  0
   27.8573  -20.3044  -15.4830 C   0  0  2  0  0  0  0  0  0  0  0  0
   28.4502  -21.4332  -16.1929 N   0  0  0  0  0  0  0  0  0  0  0  0
   26.6712  -20.7731  -14.7692 C   0  0  0  0  0  0  0  0  0  0  0  0
   25.8594  -21.6076  -15.2672 O   0  0  0  0  0  0  0  0  0  0  0  0
   26.3807  -20.2982  -13.4619 N   0  0  0  0  0  0  0  0  0  0  0  0
   25.2009  -20.7488  -12.6970 C   0  0  1  0  0  0  0  0  0  0  0  0
   25.4549  -20.5672  -11.2259 C   0  0  0  0  0  0  0  0  0  0  0  0
   24.3829  -21.0947  -10.3218 C   0  0  0  0  0  0  0  0  0  0  0  0
   24.7586  -20.8362   -8.8543 C   0  0  0  0  0  0  0  0  0  0  0  0
   23.6930  -21.3961   -7.9359 C   0  0  0  0  0  0  0  0  0  0  0  0
   24.0230  -21.0598   -6.5644 N   0  0  0  0  0  0  0  0  0  0  0  0
   24.0013  -20.0177  -13.1462 C   0  0  0  0  0  0  0  0  0  0  0  0
   23.9168  -18.7747  -13.1579 O   0  0  0  0  0  0  0  0  0  0  0  0
   22.8210  -20.7087  -13.6116 N   0  0  0  0  0  0  0  0  0  0  0  0
   21.6405  -20.0064  -14.0367 C   0  0  0  0  0  0  0  0  0  0  0  0
   20.4654  -20.2744  -13.2039 C   0  0  0  0  0  0  0  0  0  0  0  0
   20.5751  -21.2198  -12.1954 O   0  0  0  0  0  0  0  0  0  0  0  0
   19.3571  -19.7007  -13.3435 O   0  0  0  0  0  0  0  0  0  0  0  0
  2  1  1  0
  3  2  1  0
  3  5  1  0
  3  4  1  1
  5  6  1  6
  7  5  1  0
  7  8  2  0
  9  7  1  0
 10  9  1  0
 10 11  1  1
 12 11  1  0
 12 13  1  0
 13 14  1  0
 14 15  1  0
 16 10  1  0
 17 16  2  0
 18 16  1  0
 19 20  1  0
 19 18  1  0
 20 21  1  0
 22 20  2  0
M  END
$$$$
