IKG.pdb
     RDKit          3D

 22 21  0  0  1  0  0  0  0  0999 V2000
   29.1590  -20.0215  -11.6937 C   0  0  0  0  0  0  0  0  0  0  0  0
   28.3395  -20.8679  -12.6716 C   0  0  0  0  0  0  0  0  0  0  0  0
   26.8652  -20.6485  -12.4306 C   0  0  2  0  0  0  0  0  0  0  0  0
   26.5203  -20.9053  -11.0012 C   0  0  0  0  0  0  0  0  0  0  0  0
   25.9837  -21.3912  -13.4014 C   0  0  2  0  0  0  0  0  0  0  0  0
   26.5899  -21.4065  -14.7289 N   0  0  0  0  0  0  0  0  0  0  0  0
   24.6223  -20.8722  -13.5161 C   0  0  0  0  0  0  0  0  0  0  0  0
   23.6884  -21.2261  -12.7375 O   0  0  0  0  0  0  0  0  0  0  0  0
   24.2911  -19.9312  -14.5279 N   0  0  0  0  0  0  0  0  0  0  0  0
   22.9126  -19.4479  -14.7427 C   0  0  1  0  0  0  0  0  0  0  0  0
   22.9333  -18.2599  -15.6647 C   0  0  0  0  0  0  0  0  0  0  0  0
   21.5920  -17.6713  -15.9797 C   0  0  0  0  0  0  0  0  0  0  0  0
   20.8841  -17.2517  -14.6819 C   0  0  0  0  0  0  0  0  0  0  0  0
   19.5420  -16.6262  -14.9978 C   0  0  0  0  0  0  0  0  0  0  0  0
   18.8674  -16.2967  -13.7571 N   0  0  0  0  0  0  0  0  0  0  0  0
   22.0725  -20.5410  -15.2668 C   0  0  0  0  0  0  0  0  0  0  0  0
   22.3976  -21.2560  -16.2340 O   0  0  0  0  0  0  0  0  0  0  0  0
   20.7912  -20.8613  -14.6813 N   0  0  0  0  0  0  0  0  0  0  0  0
   19.9447  -21.8959  -15.2110 C   0  0  0  0  0  0  0  0  0  0  0  0
   18.6979  -22.0755  -14.4631 C   0  0  0  0  0  0  0  0  0  0  0  0
   17.7837  -23.0115  -14.9224 O   0  0  0  0  0  0  0  0  0  0  0  0
   18.3996  -21.4334  -13.4260 O   0  0  0  0  0  0  0  0  0  0  0  0
  2  1  1  0
  3  2  1  0
  3  5  1  0
  3  4  1  1
  5  6  1  6
  7  5  1  0
  7  8  2  0
  9  7  1  0
 10  9  1  0
 10 11  1  6
 12 11  1  0
 12 13  1  0
 13 14  1  0
 14 15  1  0
 16 10  1  0
 17 16  2  0
 18 16  1  0
 19 20  1  0
 19 18  1  0
 20 21  1  0
 22 20  2  0
M  END
$$$$
