IKG.pdb
     RDKit          3D

 22 21  0  0  1  0  0  0  0  0999 V2000
   36.7377  -32.0868  -20.1700 C   0  0  0  0  0  0  0  0  0  0  0  0
   35.5121  -31.5106  -20.8843 C   0  0  0  0  0  0  0  0  0  0  0  0
   34.4692  -31.1061  -19.8700 C   0  0  2  0  0  0  0  0  0  0  0  0
   34.1593  -32.2405  -18.9506 C   0  0  0  0  0  0  0  0  0  0  0  0
   33.2432  -30.4851  -20.4883 C   0  0  2  0  0  0  0  0  0  0  0  0
   33.6193  -29.3750  -21.3578 N   0  0  0  0  0  0  0  0  0  0  0  0
   32.2454  -30.0111  -19.5314 C   0  0  0  0  0  0  0  0  0  0  0  0
   32.1135  -28.7879  -19.2315 O   0  0  0  0  0  0  0  0  0  0  0  0
   31.3686  -30.9265  -18.8895 N   0  0  0  0  0  0  0  0  0  0  0  0
   30.2523  -30.4868  -18.0290 C   0  0  1  0  0  0  0  0  0  0  0  0
   29.3834  -29.5203  -18.7858 C   0  0  0  0  0  0  0  0  0  0  0  0
   29.7803  -28.0799  -18.6732 C   0  0  0  0  0  0  0  0  0  0  0  0
   28.6069  -27.2526  -18.1254 C   0  0  0  0  0  0  0  0  0  0  0  0
   29.1163  -26.1874  -17.1777 C   0  0  0  0  0  0  0  0  0  0  0  0
   27.9891  -25.4472  -16.6443 N   0  0  0  0  0  0  0  0  0  0  0  0
   29.4930  -31.6580  -17.5527 C   0  0  0  0  0  0  0  0  0  0  0  0
   29.5586  -32.7833  -18.0835 O   0  0  0  0  0  0  0  0  0  0  0  0
   28.6051  -31.5762  -16.4160 N   0  0  0  0  0  0  0  0  0  0  0  0
   28.0518  -32.7470  -15.7910 C   0  0  0  0  0  0  0  0  0  0  0  0
   27.1118  -32.4465  -14.7083 C   0  0  0  0  0  0  0  0  0  0  0  0
   26.4876  -33.5051  -14.0658 O   0  0  0  0  0  0  0  0  0  0  0  0
   26.8314  -31.2856  -14.3204 O   0  0  0  0  0  0  0  0  0  0  0  0
  2  1  1  0
  3  2  1  0
  3  5  1  0
  3  4  1  6
  5  6  1  1
  7  5  1  0
  7  8  2  0
  9  7  1  0
 10  9  1  0
 10 11  1  6
 12 11  1  0
 12 13  1  0
 13 14  1  0
 14 15  1  0
 16 10  1  0
 17 16  2  0
 18 16  1  0
 19 20  1  0
 19 18  1  0
 20 21  1  0
 22 20  2  0
M  END
$$$$
