IKG.pdb
     RDKit          3D

 22 21  0  0  1  0  0  0  0  0999 V2000
   28.5192  -11.8626  -15.8212 C   0  0  0  0  0  0  0  0  0  0  0  0
   27.1106  -12.3053  -16.2265 C   0  0  0  0  0  0  0  0  0  0  0  0
   26.1864  -11.1117  -16.2598 C   0  0  2  0  0  0  0  0  0  0  0  0
   26.1843  -10.4091  -14.9428 C   0  0  0  0  0  0  0  0  0  0  0  0
   24.8051  -11.4391  -16.7654 C   0  0  2  0  0  0  0  0  0  0  0  0
   24.8842  -12.1346  -18.0460 N   0  0  0  0  0  0  0  0  0  0  0  0
   23.9162  -10.2885  -16.9135 C   0  0  0  0  0  0  0  0  0  0  0  0
   24.0729   -9.4160  -17.8178 O   0  0  0  0  0  0  0  0  0  0  0  0
   22.8203  -10.1041  -16.0281 N   0  0  0  0  0  0  0  0  0  0  0  0
   21.8856   -8.9673  -16.1471 C   0  0  1  0  0  0  0  0  0  0  0  0
   20.4878   -9.4838  -16.3502 C   0  0  0  0  0  0  0  0  0  0  0  0
   19.4359   -8.4312  -16.5242 C   0  0  0  0  0  0  0  0  0  0  0  0
   18.0533   -9.0874  -16.6633 C   0  0  0  0  0  0  0  0  0  0  0  0
   17.0026   -8.0359  -16.9512 C   0  0  0  0  0  0  0  0  0  0  0  0
   15.7076   -8.6778  -17.0686 N   0  0  0  0  0  0  0  0  0  0  0  0
   21.9893   -8.1043  -14.9556 C   0  0  0  0  0  0  0  0  0  0  0  0
   22.0971   -8.5435  -13.7947 O   0  0  0  0  0  0  0  0  0  0  0  0
   21.9724   -6.6633  -15.0582 N   0  0  0  0  0  0  0  0  0  0  0  0
   22.0943   -5.8124  -13.9056 C   0  0  0  0  0  0  0  0  0  0  0  0
   22.2103   -4.3896  -14.2351 C   0  0  0  0  0  0  0  0  0  0  0  0
   22.4192   -3.4894  -13.2012 O   0  0  0  0  0  0  0  0  0  0  0  0
   22.1325   -3.9275  -15.4001 O   0  0  0  0  0  0  0  0  0  0  0  0
  2  1  1  0
  3  2  1  0
  3  5  1  0
  3  4  1  1
  5  6  1  6
  7  5  1  0
  7  8  2  0
  9  7  1  0
 10  9  1  0
 10 11  1  1
 12 11  1  0
 12 13  1  0
 13 14  1  0
 14 15  1  0
 16 10  1  0
 17 16  2  0
 18 16  1  0
 19 20  1  0
 19 18  1  0
 20 21  1  0
 22 20  2  0
M  END
$$$$
