IKG.pdb
     RDKit          3D

 22 21  0  0  1  0  0  0  0  0999 V2000
   23.7663  -12.5355  -24.0283 C   0  0  0  0  0  0  0  0  0  0  0  0
   24.2513  -12.4491  -22.5787 C   0  0  0  0  0  0  0  0  0  0  0  0
   23.3179  -11.5751  -21.7757 C   0  0  2  0  0  0  0  0  0  0  0  0
   23.1305  -10.2522  -22.4412 C   0  0  0  0  0  0  0  0  0  0  0  0
   23.7038  -11.4647  -20.3232 C   0  0  2  0  0  0  0  0  0  0  0  0
   24.0339  -12.7799  -19.7836 N   0  0  0  0  0  0  0  0  0  0  0  0
   22.6948  -10.8479  -19.4645 C   0  0  0  0  0  0  0  0  0  0  0  0
   22.2089   -9.7017  -19.6959 O   0  0  0  0  0  0  0  0  0  0  0  0
   22.2126  -11.5279  -18.3138 N   0  0  0  0  0  0  0  0  0  0  0  0
   21.1341  -10.9850  -17.4640 C   0  0  1  0  0  0  0  0  0  0  0  0
   20.2508  -12.1073  -16.9929 C   0  0  0  0  0  0  0  0  0  0  0  0
   19.0374  -11.6856  -16.2217 C   0  0  0  0  0  0  0  0  0  0  0  0
   18.1581  -12.9081  -15.9153 C   0  0  0  0  0  0  0  0  0  0  0  0
   16.8438  -12.4669  -15.3069 C   0  0  0  0  0  0  0  0  0  0  0  0
   15.9481  -13.6051  -15.2338 N   0  0  0  0  0  0  0  0  0  0  0  0
   21.7136  -10.2270  -16.3393 C   0  0  0  0  0  0  0  0  0  0  0  0
   22.6767  -10.6314  -15.6602 O   0  0  0  0  0  0  0  0  0  0  0  0
   21.1921   -8.9394  -15.9429 N   0  0  0  0  0  0  0  0  0  0  0  0
   21.6562   -8.2546  -14.7667 C   0  0  0  0  0  0  0  0  0  0  0  0
   20.8680   -7.0670  -14.4286 C   0  0  0  0  0  0  0  0  0  0  0  0
   21.1803   -6.3787  -13.2660 O   0  0  0  0  0  0  0  0  0  0  0  0
   19.9212   -6.6274  -15.1266 O   0  0  0  0  0  0  0  0  0  0  0  0
  2  1  1  0
  3  2  1  0
  3  5  1  0
  3  4  1  6
  5  6  1  1
  7  5  1  0
  7  8  2  0
  9  7  1  0
 10  9  1  0
 10 11  1  1
 12 11  1  0
 12 13  1  0
 13 14  1  0
 14 15  1  0
 16 10  1  0
 17 16  2  0
 18 16  1  0
 19 20  1  0
 19 18  1  0
 20 21  1  0
 22 20  2  0
M  END
$$$$
