IKG.pdb
     RDKit          3D

 22 21  0  0  1  0  0  0  0  0999 V2000
   19.3681  -14.0446  -20.3792 C   0  0  0  0  0  0  0  0  0  0  0  0
   20.7822  -14.4145  -19.9235 C   0  0  0  0  0  0  0  0  0  0  0  0
   21.2438  -13.4567  -18.8514 C   0  0  2  0  0  0  0  0  0  0  0  0
   21.1611  -12.0462  -19.3328 C   0  0  0  0  0  0  0  0  0  0  0  0
   22.5878  -13.8126  -18.2702 C   0  0  2  0  0  0  0  0  0  0  0  0
   22.6164  -15.2184  -17.8795 N   0  0  0  0  0  0  0  0  0  0  0  0
   22.9963  -13.0016  -17.1250 C   0  0  0  0  0  0  0  0  0  0  0  0
   22.4351  -13.0862  -15.9930 O   0  0  0  0  0  0  0  0  0  0  0  0
   24.0614  -12.0687  -17.2441 N   0  0  0  0  0  0  0  0  0  0  0  0
   24.4895  -11.2049  -16.1258 C   0  0  1  0  0  0  0  0  0  0  0  0
   25.9769  -10.9928  -16.1940 C   0  0  0  0  0  0  0  0  0  0  0  0
   26.8079  -12.1018  -15.6245 C   0  0  0  0  0  0  0  0  0  0  0  0
   27.1372  -13.1279  -16.7200 C   0  0  0  0  0  0  0  0  0  0  0  0
   28.1041  -14.1655  -16.1902 C   0  0  0  0  0  0  0  0  0  0  0  0
   28.4155  -15.1085  -17.2470 N   0  0  0  0  0  0  0  0  0  0  0  0
   23.7464   -9.9314  -16.1613 C   0  0  0  0  0  0  0  0  0  0  0  0
   23.4634   -9.3286  -17.2143 O   0  0  0  0  0  0  0  0  0  0  0  0
   23.2882   -9.2859  -14.9528 N   0  0  0  0  0  0  0  0  0  0  0  0
   22.4649   -8.1073  -14.9793 C   0  0  0  0  0  0  0  0  0  0  0  0
   21.0671   -8.3586  -14.6196 C   0  0  0  0  0  0  0  0  0  0  0  0
   20.2373   -7.2692  -14.4021 O   0  0  0  0  0  0  0  0  0  0  0  0
   20.5667   -9.5035  -14.4942 O   0  0  0  0  0  0  0  0  0  0  0  0
  2  1  1  0
  3  2  1  0
  3  5  1  0
  3  4  1  6
  5  6  1  1
  7  5  1  0
  7  8  2  0
  9  7  1  0
 10  9  1  0
 10 11  1  6
 12 11  1  0
 12 13  1  0
 13 14  1  0
 14 15  1  0
 16 10  1  0
 17 16  2  0
 18 16  1  0
 19 20  1  0
 19 18  1  0
 20 21  1  0
 22 20  2  0
M  END
$$$$
