IKG.pdb
     RDKit          3D

 22 21  0  0  1  0  0  0  0  0999 V2000
   19.8310  -16.7553  -11.9262 C   0  0  0  0  0  0  0  0  0  0  0  0
   19.5937  -17.6938  -13.1124 C   0  0  0  0  0  0  0  0  0  0  0  0
   20.5845  -17.3934  -14.2115 C   0  0  2  0  0  0  0  0  0  0  0  0
   20.5542  -15.9441  -14.5677 C   0  0  0  0  0  0  0  0  0  0  0  0
   20.4495  -18.3053  -15.4037 C   0  0  2  0  0  0  0  0  0  0  0  0
   20.1699  -19.6704  -14.9702 N   0  0  0  0  0  0  0  0  0  0  0  0
   21.6075  -18.3267  -16.2951 C   0  0  0  0  0  0  0  0  0  0  0  0
   22.0662  -17.2820  -16.8445 O   0  0  0  0  0  0  0  0  0  0  0  0
   22.2743  -19.5479  -16.5833 N   0  0  0  0  0  0  0  0  0  0  0  0
   23.5063  -19.6078  -17.3949 C   0  0  1  0  0  0  0  0  0  0  0  0
   24.3605  -20.7550  -16.9298 C   0  0  0  0  0  0  0  0  0  0  0  0
   24.0259  -21.2921  -15.5717 C   0  0  0  0  0  0  0  0  0  0  0  0
   24.9610  -22.4608  -15.2236 C   0  0  0  0  0  0  0  0  0  0  0  0
   24.5748  -23.0585  -13.8872 C   0  0  0  0  0  0  0  0  0  0  0  0
   25.4925  -24.1340  -13.5645 N   0  0  0  0  0  0  0  0  0  0  0  0
   23.1616  -19.7182  -18.8246 C   0  0  0  0  0  0  0  0  0  0  0  0
   22.1660  -20.3369  -19.2470 O   0  0  0  0  0  0  0  0  0  0  0  0
   23.9721  -19.1038  -19.8506 N   0  0  0  0  0  0  0  0  0  0  0  0
   23.6595  -19.2262  -21.2488 C   0  0  0  0  0  0  0  0  0  0  0  0
   22.8246  -18.1372  -21.7619 C   0  0  0  0  0  0  0  0  0  0  0  0
   23.3149  -17.3679  -22.8063 O   0  0  0  0  0  0  0  0  0  0  0  0
   21.6861  -17.8517  -21.3156 O   0  0  0  0  0  0  0  0  0  0  0  0
  2  1  1  0
  3  2  1  0
  3  5  1  0
  3  4  1  6
  5  6  1  1
  7  5  1  0
  7  8  2  0
  9  7  1  0
 10  9  1  0
 10 11  1  1
 12 11  1  0
 12 13  1  0
 13 14  1  0
 14 15  1  0
 16 10  1  0
 17 16  2  0
 18 16  1  0
 19 20  1  0
 19 18  1  0
 20 21  1  0
 22 20  2  0
M  END
$$$$
