IKG.pdb
     RDKit          3D

 22 21  0  0  1  0  0  0  0  0999 V2000
   19.1217  -22.2279   -9.5879 C   0  0  0  0  0  0  0  0  0  0  0  0
   19.6125  -21.6932  -10.9360 C   0  0  0  0  0  0  0  0  0  0  0  0
   20.9206  -20.9615  -10.7532 C   0  0  2  0  0  0  0  0  0  0  0  0
   20.7790  -19.8719   -9.7428 C   0  0  0  0  0  0  0  0  0  0  0  0
   21.5330  -20.4987  -12.0501 C   0  0  2  0  0  0  0  0  0  0  0  0
   21.5629  -21.5918  -13.0165 N   0  0  0  0  0  0  0  0  0  0  0  0
   22.8801  -19.9448  -11.9303 C   0  0  0  0  0  0  0  0  0  0  0  0
   23.1056  -18.7936  -11.4534 O   0  0  0  0  0  0  0  0  0  0  0  0
   24.0097  -20.6953  -12.3542 N   0  0  0  0  0  0  0  0  0  0  0  0
   25.3754  -20.1343  -12.3709 C   0  0  1  0  0  0  0  0  0  0  0  0
   26.3081  -21.0574  -11.6361 C   0  0  0  0  0  0  0  0  0  0  0  0
   27.7189  -20.5701  -11.5058 C   0  0  0  0  0  0  0  0  0  0  0  0
   28.5800  -21.6339  -10.8069 C   0  0  0  0  0  0  0  0  0  0  0  0
   30.0251  -21.1850  -10.7556 C   0  0  0  0  0  0  0  0  0  0  0  0
   30.8186  -22.2105  -10.1063 N   0  0  0  0  0  0  0  0  0  0  0  0
   25.8070  -19.9034  -13.7621 C   0  0  0  0  0  0  0  0  0  0  0  0
   26.9804  -19.6344  -14.0832 O   0  0  0  0  0  0  0  0  0  0  0  0
   24.8788  -19.9753  -14.8669 N   0  0  0  0  0  0  0  0  0  0  0  0
   25.2733  -19.6833  -16.2184 C   0  0  0  0  0  0  0  0  0  0  0  0
   24.1925  -19.8449  -17.1940 C   0  0  0  0  0  0  0  0  0  0  0  0
   24.4561  -19.5505  -18.5233 O   0  0  0  0  0  0  0  0  0  0  0  0
   23.0345  -20.2350  -16.9047 O   0  0  0  0  0  0  0  0  0  0  0  0
  2  1  1  0
  3  2  1  0
  3  5  1  0
  3  4  1  1
  5  6  1  6
  7  5  1  0
  7  8  2  0
  9  7  1  0
 10  9  1  0
 10 11  1  6
 12 11  1  0
 12 13  1  0
 13 14  1  0
 14 15  1  0
 16 10  1  0
 17 16  2  0
 18 16  1  0
 19 20  1  0
 19 18  1  0
 20 21  1  0
 22 20  2  0
M  END
$$$$
