HRI.pdb
     RDKit          3D

 30 30  0  0  1  0  0  0  0  0999 V2000
   25.8650  -24.8662  -16.4913 N   0  0  0  0  0  0  0  0  0  0  0  0
   25.3117  -23.5771  -16.2251 C   0  0  1  0  0  0  0  0  0  0  0  0
   23.8069  -23.7588  -16.0043 C   0  0  0  0  0  0  0  0  0  0  0  0
   23.1316  -24.0354  -17.2952 C   0  0  0  0  0  0  0  0  0  0  0  0
   21.8259  -23.9554  -17.6639 C   0  0  0  0  0  0  0  0  0  0  0  0
   21.7468  -24.3184  -18.9577 N   0  0  0  0  0  0  0  0  0  0  0  0
   22.9799  -24.6218  -19.3984 C   0  0  0  0  0  0  0  0  0  0  0  0
   23.8234  -24.4493  -18.3846 N   0  0  0  0  0  0  0  0  0  0  0  0
   25.9397  -22.9784  -15.0116 C   0  0  0  0  0  0  0  0  0  0  0  0
   26.1169  -23.6614  -13.9695 O   0  0  0  0  0  0  0  0  0  0  0  0
   24.9943  -16.8571  -17.5931 N   0  0  0  0  0  0  0  0  0  0  0  0
   25.1115  -16.0496  -16.4576 C   0  0  0  0  0  0  0  0  0  0  0  0
   24.3103  -15.0456  -16.2333 N   0  0  0  0  0  0  0  0  0  0  0  0
   26.1059  -16.2879  -15.4957 N   0  0  0  0  0  0  0  0  0  0  0  0
   27.0541  -17.3631  -15.5599 C   0  0  0  0  0  0  0  0  0  0  0  0
   26.5061  -18.7266  -15.2401 C   0  0  0  0  0  0  0  0  0  0  0  0
   27.1869  -19.4415  -14.1382 C   0  0  0  0  0  0  0  0  0  0  0  0
   26.7395  -20.8457  -13.8800 C   0  0  2  0  0  0  0  0  0  0  0  0
   26.3535  -21.6125  -15.0106 N   0  0  0  0  0  0  0  0  0  0  0  0
   25.9206  -20.9842  -12.6676 C   0  0  0  0  0  0  0  0  0  0  0  0
   24.6852  -21.2440  -12.8440 O   0  0  0  0  0  0  0  0  0  0  0  0
   24.5001  -14.4575  -15.3978 C   0  0  0  0  0  0  0  0  0  0  0  0
   26.1985  -18.6726   -7.2362 C   0  0  0  0  0  0  0  0  0  0  0  0
   26.3320  -19.1203   -8.6433 C   0  0  2  0  0  0  0  0  0  0  0  0
   26.1187  -20.5469   -8.9516 C   0  0  0  0  0  0  0  0  0  0  0  0
   27.3792  -21.3344   -8.6547 C   0  0  1  0  0  0  0  0  0  0  0  0
   25.4102  -20.9207  -10.1926 N   0  0  0  0  0  0  0  0  0  0  0  0
   26.3610  -20.8546  -11.3369 C   0  0  0  0  0  0  0  0  0  0  0  0
   24.2494  -20.1429  -10.5933 O   0  0  0  0  0  0  0  0  0  0  0  0
   22.9918  -20.3410  -10.0165 O   0  0  0  0  0  0  0  0  0  0  0  0
  2  9  1  0
  2  3  1  0
  2  1  1  1
  3  4  1  0
  4  8  1  0
  5  6  1  0
  5  4  2  0
  6  7  1  0
  7  8  2  0
  9 10  2  0
 11 12  1  0
 12 14  1  0
 12 13  2  0
 14 15  1  0
 15 16  1  0
 16 17  1  0
 18 17  1  6
 18 20  1  0
 19 18  1  0
 19  9  1  0
 20 21  2  0
 22 23  1  0
 23 24  1  0
 24 25  1  1
 24 26  1  0
 26 28  1  0
 27 20  1  0
 26 27  1  6
 28 30  2  0
 28 29  1  0
M  END
$$$$
