HRI.pdb
     RDKit          3D

 30 30  0  0  1  0  0  0  0  0999 V2000
   18.1286  -13.3696  -16.4108 N   0  0  0  0  0  0  0  0  0  0  0  0
   19.0392  -12.2714  -16.4717 C   0  0  1  0  0  0  0  0  0  0  0  0
   19.5751  -12.1967  -17.9047 C   0  0  0  0  0  0  0  0  0  0  0  0
   20.3859  -13.4002  -18.2094 C   0  0  0  0  0  0  0  0  0  0  0  0
   21.6445  -13.7557  -17.8391 C   0  0  0  0  0  0  0  0  0  0  0  0
   21.9057  -14.9555  -18.3906 N   0  0  0  0  0  0  0  0  0  0  0  0
   20.8320  -15.3509  -19.0962 C   0  0  0  0  0  0  0  0  0  0  0  0
   19.9062  -14.4024  -18.9854 N   0  0  0  0  0  0  0  0  0  0  0  0
   18.3482  -10.9982  -16.1153 C   0  0  0  0  0  0  0  0  0  0  0  0
   17.4808  -10.4964  -16.8766 O   0  0  0  0  0  0  0  0  0  0  0  0
   15.4766   -7.4358   -8.3944 N   0  0  0  0  0  0  0  0  0  0  0  0
   15.1929   -6.5407   -9.4303 C   0  0  0  0  0  0  0  0  0  0  0  0
   14.4237   -5.5017   -9.2597 N   0  0  0  0  0  0  0  0  0  0  0  0
   15.7318   -6.7203  -10.7142 N   0  0  0  0  0  0  0  0  0  0  0  0
   16.5326   -7.8445  -11.1067 C   0  0  0  0  0  0  0  0  0  0  0  0
   17.0058   -7.8325  -12.5341 C   0  0  0  0  0  0  0  0  0  0  0  0
   17.6641   -9.0750  -12.9946 C   0  0  0  0  0  0  0  0  0  0  0  0
   18.0850   -9.1117  -14.4299 C   0  0  2  0  0  0  0  0  0  0  0  0
   18.6600  -10.3225  -14.8974 N   0  0  0  0  0  0  0  0  0  0  0  0
   18.6993   -7.8588  -14.8908 C   0  0  0  0  0  0  0  0  0  0  0  0
   19.9300   -7.6913  -14.6040 O   0  0  0  0  0  0  0  0  0  0  0  0
   14.2641   -4.8829  -10.0792 C   0  0  0  0  0  0  0  0  0  0  0  0
   19.5207   -6.3004  -19.3041 C   0  0  0  0  0  0  0  0  0  0  0  0
   18.2636   -6.1343  -18.5357 C   0  0  1  0  0  0  0  0  0  0  0  0
   18.2558   -5.2042  -17.3909 C   0  0  0  0  0  0  0  0  0  0  0  0
   18.6619   -3.8174  -17.8482 C   0  0  2  0  0  0  0  0  0  0  0  0
   18.8232   -5.6420  -16.0993 N   0  0  0  0  0  0  0  0  0  0  0  0
   18.0663   -6.8274  -15.6098 C   0  0  0  0  0  0  0  0  0  0  0  0
   18.8463   -4.6990  -14.9932 O   0  0  0  0  0  0  0  0  0  0  0  0
   19.9931   -3.9698  -14.6672 O   0  0  0  0  0  0  0  0  0  0  0  0
  2  9  1  0
  2  3  1  0
  2  1  1  6
  3  4  1  0
  4  8  1  0
  5  6  1  0
  5  4  2  0
  6  7  1  0
  7  8  2  0
  9 10  2  0
 11 12  1  0
 12 14  1  0
 12 13  2  0
 14 15  1  0
 15 16  1  0
 16 17  1  0
 18 17  1  1
 18 20  1  0
 19 18  1  0
 19  9  1  0
 20 21  2  0
 22 23  1  0
 23 24  1  0
 24 25  1  6
 24 26  1  0
 26 28  1  0
 27 20  1  0
 26 27  1  1
 28 30  2  0
 28 29  1  0
M  END
$$$$
