HRI.pdb
     RDKit          3D

 30 30  0  0  1  0  0  0  0  0999 V2000
   26.6614  -22.2193  -13.0619 N   0  0  0  0  0  0  0  0  0  0  0  0
   25.8347  -21.5754  -12.0919 C   0  0  1  0  0  0  0  0  0  0  0  0
   26.4888  -20.2340  -11.7473 C   0  0  0  0  0  0  0  0  0  0  0  0
   27.7556  -20.4587  -11.0102 C   0  0  0  0  0  0  0  0  0  0  0  0
   29.0350  -20.6100  -11.4433 C   0  0  0  0  0  0  0  0  0  0  0  0
   29.8119  -20.7889  -10.3587 N   0  0  0  0  0  0  0  0  0  0  0  0
   29.0377  -20.7511   -9.2605 C   0  0  0  0  0  0  0  0  0  0  0  0
   27.7846  -20.5499   -9.6583 N   0  0  0  0  0  0  0  0  0  0  0  0
   24.4641  -21.3527  -12.6376 C   0  0  0  0  0  0  0  0  0  0  0  0
   24.2940  -20.9441  -13.8156 O   0  0  0  0  0  0  0  0  0  0  0  0
   19.2852  -23.9903   -7.9161 N   0  0  0  0  0  0  0  0  0  0  0  0
   18.1384  -23.6838   -8.6549 C   0  0  0  0  0  0  0  0  0  0  0  0
   16.9400  -23.7810   -8.1502 N   0  0  0  0  0  0  0  0  0  0  0  0
   18.2265  -23.2497   -9.9871 N   0  0  0  0  0  0  0  0  0  0  0  0
   18.9625  -23.9301  -11.0140 C   0  0  0  0  0  0  0  0  0  0  0  0
   19.7904  -23.0476  -11.9069 C   0  0  0  0  0  0  0  0  0  0  0  0
   21.1303  -22.6971  -11.3866 C   0  0  0  0  0  0  0  0  0  0  0  0
   22.0006  -21.8793  -12.2879 C   0  0  2  0  0  0  0  0  0  0  0  0
   23.3146  -21.6008  -11.8288 N   0  0  0  0  0  0  0  0  0  0  0  0
   21.2825  -20.7878  -12.9606 C   0  0  0  0  0  0  0  0  0  0  0  0
   21.1272  -19.7139  -12.2916 O   0  0  0  0  0  0  0  0  0  0  0  0
   16.1415  -23.4958   -8.7510 C   0  0  0  0  0  0  0  0  0  0  0  0
   22.0579  -17.6619  -16.1872 C   0  0  0  0  0  0  0  0  0  0  0  0
   21.0158  -18.3987  -16.9417 C   0  0  1  0  0  0  0  0  0  0  0  0
   20.4130  -19.5951  -16.3245 C   0  0  0  0  0  0  0  0  0  0  0  0
   19.3001  -20.1268  -17.2055 C   0  0  2  0  0  0  0  0  0  0  0  0
   20.1354  -19.5987  -14.8738 N   0  0  0  0  0  0  0  0  0  0  0  0
   20.7472  -20.8110  -14.2623 C   0  0  0  0  0  0  0  0  0  0  0  0
   18.7514  -19.5831  -14.4294 O   0  0  0  0  0  0  0  0  0  0  0  0
   18.0292  -18.3933  -14.3020 O   0  0  0  0  0  0  0  0  0  0  0  0
  2  9  1  0
  2  3  1  0
  2  1  1  6
  3  4  1  0
  4  8  1  0
  5  6  1  0
  5  4  2  0
  6  7  1  0
  7  8  2  0
  9 10  2  0
 11 12  1  0
 12 14  1  0
 12 13  2  0
 14 15  1  0
 15 16  1  0
 16 17  1  0
 18 17  1  1
 18 20  1  0
 19 18  1  0
 19  9  1  0
 20 21  2  0
 22 23  1  0
 23 24  1  0
 24 25  1  1
 24 26  1  0
 26 28  1  0
 27 20  1  0
 26 27  1  1
 28 30  2  0
 28 29  1  0
M  END
$$$$
