HRI.pdb
     RDKit          3D

 30 30  0  0  1  0  0  0  0  0999 V2000
   26.1222  -19.4785  -19.1923 N   0  0  0  0  0  0  0  0  0  0  0  0
   26.3496  -19.5944  -17.7874 C   0  0  1  0  0  0  0  0  0  0  0  0
   26.5260  -18.1781  -17.2313 C   0  0  0  0  0  0  0  0  0  0  0  0
   27.7752  -17.5759  -17.7565 C   0  0  0  0  0  0  0  0  0  0  0  0
   28.7406  -18.0734  -18.5736 C   0  0  0  0  0  0  0  0  0  0  0  0
   29.6659  -17.1103  -18.7413 N   0  0  0  0  0  0  0  0  0  0  0  0
   29.2919  -16.0242  -18.0431 C   0  0  0  0  0  0  0  0  0  0  0  0
   28.1396  -16.3087  -17.4431 N   0  0  0  0  0  0  0  0  0  0  0  0
   25.1944  -20.2658  -17.1239 C   0  0  0  0  0  0  0  0  0  0  0  0
   24.0418  -19.7622  -17.1635 O   0  0  0  0  0  0  0  0  0  0  0  0
   27.9568  -27.2267  -15.8685 N   0  0  0  0  0  0  0  0  0  0  0  0
   27.7941  -26.7437  -17.1705 C   0  0  0  0  0  0  0  0  0  0  0  0
   28.0870  -27.4609  -18.2194 N   0  0  0  0  0  0  0  0  0  0  0  0
   27.2996  -25.4518  -17.4100 N   0  0  0  0  0  0  0  0  0  0  0  0
   26.7836  -24.5805  -16.3933 C   0  0  0  0  0  0  0  0  0  0  0  0
   25.2840  -24.5150  -16.2998 C   0  0  0  0  0  0  0  0  0  0  0  0
   24.7523  -23.6020  -15.2642 C   0  0  0  0  0  0  0  0  0  0  0  0
   24.3849  -22.2242  -15.7175 C   0  0  2  0  0  0  0  0  0  0  0  0
   25.3766  -21.4988  -16.4284 N   0  0  0  0  0  0  0  0  0  0  0  0
   23.5886  -21.4783  -14.7331 C   0  0  0  0  0  0  0  0  0  0  0  0
   24.2256  -20.9828  -13.7464 O   0  0  0  0  0  0  0  0  0  0  0  0
   27.9353  -27.0302  -19.1529 C   0  0  0  0  0  0  0  0  0  0  0  0
   20.2333  -16.8355  -13.7308 C   0  0  0  0  0  0  0  0  0  0  0  0
   20.5042  -18.2117  -13.2502 C   0  0  2  0  0  0  0  0  0  0  0  0
   21.2449  -19.1327  -14.1328 C   0  0  0  0  0  0  0  0  0  0  0  0
   20.7561  -18.9867  -15.5600 C   0  0  2  0  0  0  0  0  0  0  0  0
   21.4995  -20.5167  -13.6839 N   0  0  0  0  0  0  0  0  0  0  0  0
   22.1983  -21.2612  -14.7680 C   0  0  0  0  0  0  0  0  0  0  0  0
   20.3676  -21.3432  -13.2981 O   0  0  0  0  0  0  0  0  0  0  0  0
   20.0133  -22.4914  -14.0120 O   0  0  0  0  0  0  0  0  0  0  0  0
  2  9  1  0
  2  3  1  0
  2  1  1  6
  3  4  1  0
  4  8  1  0
  5  6  1  0
  5  4  2  0
  6  7  1  0
  7  8  2  0
  9 10  2  0
 11 12  1  0
 12 14  1  0
 12 13  2  0
 14 15  1  0
 15 16  1  0
 16 17  1  0
 18 17  1  1
 18 20  1  0
 19 18  1  0
 19  9  1  0
 20 21  2  0
 22 23  1  0
 23 24  1  0
 24 25  1  1
 24 26  1  0
 26 28  1  0
 27 20  1  0
 26 27  1  1
 28 30  2  0
 28 29  1  0
M  END
$$$$
