HRI.pdb
     RDKit          3D

 30 30  0  0  1  0  0  0  0  0999 V2000
   20.6173  -22.9693  -16.0419 N   0  0  0  0  0  0  0  0  0  0  0  0
   21.0924  -23.2895  -14.7339 C   0  0  1  0  0  0  0  0  0  0  0  0
   20.7711  -22.1003  -13.8236 C   0  0  0  0  0  0  0  0  0  0  0  0
   21.5326  -20.9046  -14.2587 C   0  0  0  0  0  0  0  0  0  0  0  0
   22.4178  -20.7206  -15.2736 C   0  0  0  0  0  0  0  0  0  0  0  0
   22.8227  -19.4376  -15.2310 N   0  0  0  0  0  0  0  0  0  0  0  0
   22.2046  -18.8222  -14.2082 C   0  0  0  0  0  0  0  0  0  0  0  0
   21.4186  -19.7168  -13.6160 N   0  0  0  0  0  0  0  0  0  0  0  0
   20.4257  -24.5221  -14.2222 C   0  0  0  0  0  0  0  0  0  0  0  0
   19.2372  -24.4924  -13.8094 O   0  0  0  0  0  0  0  0  0  0  0  0
   23.1973  -31.9987  -11.6176 N   0  0  0  0  0  0  0  0  0  0  0  0
   21.9660  -32.4964  -12.0548 C   0  0  0  0  0  0  0  0  0  0  0  0
   21.3733  -33.4983  -11.4671 N   0  0  0  0  0  0  0  0  0  0  0  0
   21.3033  -31.9317  -13.1561 N   0  0  0  0  0  0  0  0  0  0  0  0
   21.7035  -30.7170  -13.8067 C   0  0  0  0  0  0  0  0  0  0  0  0
   20.9353  -29.4874  -13.4068 C   0  0  0  0  0  0  0  0  0  0  0  0
   21.3446  -28.2362  -14.0819 C   0  0  0  0  0  0  0  0  0  0  0  0
   20.6692  -26.9820  -13.6240 C   0  0  2  0  0  0  0  0  0  0  0  0
   21.1277  -25.7644  -14.1917 N   0  0  0  0  0  0  0  0  0  0  0  0
   20.3619  -26.9753  -12.1870 C   0  0  0  0  0  0  0  0  0  0  0  0
   21.3526  -27.0997  -11.3945 O   0  0  0  0  0  0  0  0  0  0  0  0
   20.4657  -33.8168  -11.8606 C   0  0  0  0  0  0  0  0  0  0  0  0
   18.5301  -23.8460   -7.7159 C   0  0  0  0  0  0  0  0  0  0  0  0
   18.5492  -25.2465   -8.2022 C   0  0  2  0  0  0  0  0  0  0  0  0
   18.9438  -25.5010   -9.6005 C   0  0  0  0  0  0  0  0  0  0  0  0
   18.3499  -24.4413  -10.5068 C   0  0  2  0  0  0  0  0  0  0  0  0
   18.9054  -26.8821  -10.1230 N   0  0  0  0  0  0  0  0  0  0  0  0
   19.0883  -26.8506  -11.6007 C   0  0  0  0  0  0  0  0  0  0  0  0
   17.7165  -27.6840   -9.8854 O   0  0  0  0  0  0  0  0  0  0  0  0
   16.9431  -28.1884  -10.9347 O   0  0  0  0  0  0  0  0  0  0  0  0
  2  9  1  0
  2  3  1  0
  2  1  1  6
  3  4  1  0
  4  8  1  0
  5  6  1  0
  5  4  2  0
  6  7  1  0
  7  8  2  0
  9 10  2  0
 11 12  1  0
 12 14  1  0
 12 13  2  0
 14 15  1  0
 15 16  1  0
 16 17  1  0
 18 17  1  1
 18 20  1  0
 19 18  1  0
 19  9  1  0
 20 21  2  0
 22 23  1  0
 23 24  1  0
 24 25  1  6
 24 26  1  0
 26 28  1  0
 27 20  1  0
 26 27  1  6
 28 30  2  0
 28 29  1  0
M  END
$$$$
