HRI.pdb
     RDKit          3D

 30 30  0  0  1  0  0  0  0  0999 V2000
   26.9489  -20.4518  -17.0933 N   0  0  0  0  0  0  0  0  0  0  0  0
   27.5183  -20.7971  -15.8302 C   0  0  1  0  0  0  0  0  0  0  0  0
   28.9431  -20.2356  -15.7986 C   0  0  0  0  0  0  0  0  0  0  0  0
   29.7678  -20.8780  -16.8503 C   0  0  0  0  0  0  0  0  0  0  0  0
   30.3191  -20.3834  -17.9899 C   0  0  0  0  0  0  0  0  0  0  0  0
   30.9759  -21.3916  -18.5934 N   0  0  0  0  0  0  0  0  0  0  0  0
   30.8422  -22.5026  -17.8487 C   0  0  0  0  0  0  0  0  0  0  0  0
   30.1057  -22.1889  -16.7866 N   0  0  0  0  0  0  0  0  0  0  0  0
   26.7132  -20.2161  -14.7167 C   0  0  0  0  0  0  0  0  0  0  0  0
   26.6024  -18.9702  -14.5785 O   0  0  0  0  0  0  0  0  0  0  0  0
   19.4083  -22.4789  -11.1164 N   0  0  0  0  0  0  0  0  0  0  0  0
   19.4756  -21.1312  -10.7500 C   0  0  0  0  0  0  0  0  0  0  0  0
   18.7741  -20.6430   -9.7652 N   0  0  0  0  0  0  0  0  0  0  0  0
   20.3130  -20.2336  -11.4313 N   0  0  0  0  0  0  0  0  0  0  0  0
   21.2529  -20.6141  -12.4466 C   0  0  0  0  0  0  0  0  0  0  0  0
   22.7020  -20.4818  -12.0665 C   0  0  0  0  0  0  0  0  0  0  0  0
   23.6695  -20.7374  -13.1563 C   0  0  0  0  0  0  0  0  0  0  0  0
   25.1182  -20.6704  -12.7884 C   0  0  2  0  0  0  0  0  0  0  0  0
   26.0500  -21.0678  -13.7829 N   0  0  0  0  0  0  0  0  0  0  0  0
   25.3909  -21.0970  -11.4088 C   0  0  0  0  0  0  0  0  0  0  0  0
   25.4917  -22.3524  -11.2127 O   0  0  0  0  0  0  0  0  0  0  0  0
   18.8546  -19.6241   -9.5774 C   0  0  0  0  0  0  0  0  0  0  0  0
   28.9825  -19.0426   -7.9040 C   0  0  0  0  0  0  0  0  0  0  0  0
   28.0461  -19.9484   -8.6118 C   0  0  2  0  0  0  0  0  0  0  0  0
   26.6475  -20.0172   -8.1484 C   0  0  0  0  0  0  0  0  0  0  0  0
   26.6091  -20.1961   -6.6439 C   0  0  2  0  0  0  0  0  0  0  0  0
   25.6712  -20.8211   -8.9118 N   0  0  0  0  0  0  0  0  0  0  0  0
   25.5464  -20.2619  -10.2864 C   0  0  0  0  0  0  0  0  0  0  0  0
   24.3143  -20.9359   -8.4033 O   0  0  0  0  0  0  0  0  0  0  0  0
   23.9506  -21.9233   -7.4833 O   0  0  0  0  0  0  0  0  0  0  0  0
  2  9  1  0
  2  3  1  0
  2  1  1  6
  3  4  1  0
  4  8  1  0
  5  6  1  0
  5  4  2  0
  6  7  1  0
  7  8  2  0
  9 10  2  0
 11 12  1  0
 12 14  1  0
 12 13  2  0
 14 15  1  0
 15 16  1  0
 16 17  1  0
 18 17  1  6
 18 20  1  0
 19 18  1  0
 19  9  1  0
 20 21  2  0
 22 23  1  0
 23 24  1  0
 24 25  1  6
 24 26  1  0
 26 28  1  0
 27 20  1  0
 26 27  1  6
 28 30  2  0
 28 29  1  0
M  END
$$$$
