LMK.pdb
     RDKit          3D

 26 25  0  0  1  0  0  0  0  0999 V2000
   20.3373  -17.2456  -19.4449 C   0  0  0  0  0  0  0  0  0  0  0  0
   21.0321  -15.9679  -19.8113 C   0  0  1  0  0  0  0  0  0  0  0  0
   20.3358  -15.2875  -20.9602 C   0  0  0  0  0  0  0  0  0  0  0  0
   21.2497  -15.0388  -18.6458 C   0  0  0  0  0  0  0  0  0  0  0  0
   21.9242  -13.7975  -19.1443 C   0  0  2  0  0  0  0  0  0  0  0  0
   23.1694  -14.1077  -19.7936 N   0  0  0  0  0  0  0  0  0  0  0  0
   22.1431  -12.7878  -18.0886 C   0  0  0  0  0  0  0  0  0  0  0  0
   21.2239  -12.3681  -17.3378 O   0  0  0  0  0  0  0  0  0  0  0  0
   27.8015  -12.1839  -14.4218 C   0  0  0  0  0  0  0  0  0  0  0  0
   27.5123  -10.6340  -15.2869 S   0  0  0  0  0  0  0  0  0  0  0  0
   25.7552  -10.3405  -15.6093 C   0  0  0  0  0  0  0  0  0  0  0  0
   25.1168  -11.3266  -16.4943 C   0  0  0  0  0  0  0  0  0  0  0  0
   23.6898  -11.1868  -16.8650 C   0  0  2  0  0  0  0  0  0  0  0  0
   23.4311  -12.2444  -17.8820 N   0  0  0  0  0  0  0  0  0  0  0  0
   23.2432   -9.9116  -17.4236 C   0  0  0  0  0  0  0  0  0  0  0  0
   23.5367   -9.5244  -18.5961 O   0  0  0  0  0  0  0  0  0  0  0  0
   22.4212   -9.0212  -16.6570 N   0  0  0  0  0  0  0  0  0  0  0  0
   22.0955   -7.7059  -17.2526 C   0  0  1  0  0  0  0  0  0  0  0  0
   20.5756   -7.8563  -17.5312 C   0  0  0  0  0  0  0  0  0  0  0  0
   19.9984   -6.6673  -18.2144 C   0  0  0  0  0  0  0  0  0  0  0  0
   18.5521   -6.8830  -18.6199 C   0  0  0  0  0  0  0  0  0  0  0  0
   18.0146   -5.6955  -19.3895 C   0  0  0  0  0  0  0  0  0  0  0  0
   16.6538   -5.9676  -19.8089 N   0  0  0  0  0  0  0  0  0  0  0  0
   22.2108   -6.6063  -16.2835 C   0  0  0  0  0  0  0  0  0  0  0  0
   22.4611   -5.3249  -16.7478 O   0  0  0  0  0  0  0  0  0  0  0  0
   22.1027   -6.7241  -15.0402 O   0  0  0  0  0  0  0  0  0  0  0  0
  2  1  1  1
  3  2  1  0
  4  2  1  0
  5  4  1  0
  5  6  1  1
  7  8  2  0
  7  5  1  0
 10  9  1  0
 11 12  1  0
 11 10  1  0
 13 12  1  6
 13 14  1  0
 14  7  1  0
 15 13  1  0
 15 16  2  0
 17 15  1  0
 18 19  1  1
 18 24  1  0
 18 17  1  0
 20 21  1  0
 20 19  1  0
 22 23  1  0
 22 21  1  0
 24 25  1  0
 26 24  2  0
M  END
$$$$
