LMK.pdb
     RDKit          3D

 26 25  0  0  1  0  0  0  0  0999 V2000
   28.9308  -22.1335  -16.7891 C   0  0  0  0  0  0  0  0  0  0  0  0
   27.8295  -21.3285  -16.1656 C   0  0  1  0  0  0  0  0  0  0  0  0
   26.5507  -21.4702  -16.9480 C   0  0  0  0  0  0  0  0  0  0  0  0
   27.6330  -21.6026  -14.6976 C   0  0  0  0  0  0  0  0  0  0  0  0
   26.4737  -20.7880  -14.2109 C   0  0  2  0  0  0  0  0  0  0  0  0
   26.8148  -19.3930  -14.1337 N   0  0  0  0  0  0  0  0  0  0  0  0
   25.9394  -21.2497  -12.9135 C   0  0  0  0  0  0  0  0  0  0  0  0
   25.5295  -22.4238  -12.7176 O   0  0  0  0  0  0  0  0  0  0  0  0
   28.6062  -19.7465   -7.2888 C   0  0  0  0  0  0  0  0  0  0  0  0
   26.9074  -19.2631   -6.9506 S   0  0  0  0  0  0  0  0  0  0  0  0
   25.7261  -20.0680   -8.0615 C   0  0  0  0  0  0  0  0  0  0  0  0
   26.0388  -19.9400   -9.4929 C   0  0  0  0  0  0  0  0  0  0  0  0
   25.3378  -20.7803  -10.4906 C   0  0  2  0  0  0  0  0  0  0  0  0
   25.8693  -20.3603  -11.8175 N   0  0  0  0  0  0  0  0  0  0  0  0
   23.8788  -20.7082  -10.5511 C   0  0  0  0  0  0  0  0  0  0  0  0
   23.2513  -20.0059  -11.4017 O   0  0  0  0  0  0  0  0  0  0  0  0
   23.0675  -21.4567   -9.6357 N   0  0  0  0  0  0  0  0  0  0  0  0
   21.6265  -21.5884   -9.9473 C   0  0  1  0  0  0  0  0  0  0  0  0
   21.1144  -22.3960   -8.7243 C   0  0  0  0  0  0  0  0  0  0  0  0
   19.6690  -22.7339   -8.8260 C   0  0  0  0  0  0  0  0  0  0  0  0
   19.1923  -23.5773   -7.6581 C   0  0  0  0  0  0  0  0  0  0  0  0
   17.7482  -23.9952   -7.8358 C   0  0  0  0  0  0  0  0  0  0  0  0
   17.3358  -24.8011   -6.7035 N   0  0  0  0  0  0  0  0  0  0  0  0
   20.9198  -20.3003   -9.8919 C   0  0  0  0  0  0  0  0  0  0  0  0
   19.7612  -20.1371  -10.6344 O   0  0  0  0  0  0  0  0  0  0  0  0
   21.2795  -19.3068   -9.2175 O   0  0  0  0  0  0  0  0  0  0  0  0
  2  1  1  6
  3  2  1  0
  4  2  1  0
  5  4  1  0
  5  6  1  1
  7  8  2  0
  7  5  1  0
 10  9  1  0
 11 12  1  0
 11 10  1  0
 13 12  1  1
 13 14  1  0
 14  7  1  0
 15 13  1  0
 15 16  2  0
 17 15  1  0
 18 19  1  1
 18 24  1  0
 18 17  1  0
 20 21  1  0
 20 19  1  0
 22 23  1  0
 22 21  1  0
 24 25  1  0
 26 24  2  0
M  END
$$$$
