LMK.pdb
     RDKit          3D

 26 25  0  0  1  0  0  0  0  0999 V2000
   30.6808  -21.3437  -17.3863 C   0  0  0  0  0  0  0  0  0  0  0  0
   29.5929  -20.5324  -16.7477 C   0  0  1  0  0  0  0  0  0  0  0  0
   28.7398  -19.8609  -17.7912 C   0  0  0  0  0  0  0  0  0  0  0  0
   28.7702  -21.3006  -15.7467 C   0  0  0  0  0  0  0  0  0  0  0  0
   27.7292  -20.3839  -15.1805 C   0  0  2  0  0  0  0  0  0  0  0  0
   28.3320  -19.2479  -14.5367 N   0  0  0  0  0  0  0  0  0  0  0  0
   26.8012  -21.0581  -14.2499 C   0  0  0  0  0  0  0  0  0  0  0  0
   26.1318  -22.0768  -14.5646 O   0  0  0  0  0  0  0  0  0  0  0  0
   27.8413  -20.6430   -7.9326 C   0  0  0  0  0  0  0  0  0  0  0  0
   26.0440  -20.6366   -7.8692 S   0  0  0  0  0  0  0  0  0  0  0  0
   25.2956  -21.0943   -9.4528 C   0  0  0  0  0  0  0  0  0  0  0  0
   26.1091  -20.7742  -10.6356 C   0  0  0  0  0  0  0  0  0  0  0  0
   25.6496  -21.1645  -11.9883 C   0  0  2  0  0  0  0  0  0  0  0  0
   26.6303  -20.5656  -12.9365 N   0  0  0  0  0  0  0  0  0  0  0  0
   24.3120  -20.7508  -12.4092 C   0  0  0  0  0  0  0  0  0  0  0  0
   24.0100  -19.5499  -12.6870 O   0  0  0  0  0  0  0  0  0  0  0  0
   23.2543  -21.7098  -12.5429 N   0  0  0  0  0  0  0  0  0  0  0  0
   21.9389  -21.2183  -13.0111 C   0  0  1  0  0  0  0  0  0  0  0  0
   21.3844  -22.4652  -13.7514 C   0  0  0  0  0  0  0  0  0  0  0  0
   20.0355  -22.2318  -14.3343 C   0  0  0  0  0  0  0  0  0  0  0  0
   19.4372  -23.4959  -14.9231 C   0  0  0  0  0  0  0  0  0  0  0  0
   18.0671  -23.2331  -15.5106 C   0  0  0  0  0  0  0  0  0  0  0  0
   17.5252  -24.4675  -16.0436 N   0  0  0  0  0  0  0  0  0  0  0  0
   21.0048  -20.9710  -11.9030 C   0  0  0  0  0  0  0  0  0  0  0  0
   19.9389  -20.1084  -12.1026 O   0  0  0  0  0  0  0  0  0  0  0  0
   21.0867  -21.4812  -10.7609 O   0  0  0  0  0  0  0  0  0  0  0  0
  2  1  1  6
  3  2  1  0
  4  2  1  0
  5  4  1  0
  5  6  1  1
  7  8  2  0
  7  5  1  0
 10  9  1  0
 11 12  1  0
 11 10  1  0
 13 12  1  1
 13 14  1  0
 14  7  1  0
 15 13  1  0
 15 16  2  0
 17 15  1  0
 18 19  1  6
 18 24  1  0
 18 17  1  0
 20 21  1  0
 20 19  1  0
 22 23  1  0
 22 21  1  0
 24 25  1  0
 26 24  2  0
M  END
$$$$
