LMK.pdb
     RDKit          3D

 26 25  0  0  1  0  0  0  0  0999 V2000
   29.9870  -21.6813  -17.3577 C   0  0  0  0  0  0  0  0  0  0  0  0
   29.1069  -20.7302  -16.6024 C   0  0  1  0  0  0  0  0  0  0  0  0
   28.3809  -19.8062  -17.5441 C   0  0  0  0  0  0  0  0  0  0  0  0
   28.1724  -21.4064  -15.6337 C   0  0  0  0  0  0  0  0  0  0  0  0
   27.3254  -20.3591  -14.9776 C   0  0  2  0  0  0  0  0  0  0  0  0
   28.1270  -19.4595  -14.1924 N   0  0  0  0  0  0  0  0  0  0  0  0
   26.2391  -20.9212  -14.1494 C   0  0  0  0  0  0  0  0  0  0  0  0
   25.4890  -21.8535  -14.5404 O   0  0  0  0  0  0  0  0  0  0  0  0
   26.0501  -19.5449   -7.7195 C   0  0  0  0  0  0  0  0  0  0  0  0
   27.1233  -20.8428   -8.3502 S   0  0  0  0  0  0  0  0  0  0  0  0
   26.6268  -21.4103   -9.9961 C   0  0  0  0  0  0  0  0  0  0  0  0
   25.4636  -20.7128  -10.5648 C   0  0  0  0  0  0  0  0  0  0  0  0
   24.9986  -21.0269  -11.9353 C   0  0  2  0  0  0  0  0  0  0  0  0
   26.0003  -20.4142  -12.8522 N   0  0  0  0  0  0  0  0  0  0  0  0
   23.6753  -20.5552  -12.3406 C   0  0  0  0  0  0  0  0  0  0  0  0
   23.3835  -19.3268  -12.4689 O   0  0  0  0  0  0  0  0  0  0  0  0
   22.6216  -21.4833  -12.6311 N   0  0  0  0  0  0  0  0  0  0  0  0
   21.2819  -20.9280  -12.9273 C   0  0  1  0  0  0  0  0  0  0  0  0
   20.5125  -22.1954  -13.3877 C   0  0  0  0  0  0  0  0  0  0  0  0
   19.0879  -21.9142  -13.7114 C   0  0  0  0  0  0  0  0  0  0  0  0
   18.3553  -23.1492  -14.2022 C   0  0  0  0  0  0  0  0  0  0  0  0
   16.8952  -22.8518  -14.4691 C   0  0  0  0  0  0  0  0  0  0  0  0
   16.1965  -24.0875  -14.7631 N   0  0  0  0  0  0  0  0  0  0  0  0
   20.5864  -20.4633  -11.7182 C   0  0  0  0  0  0  0  0  0  0  0  0
   19.6459  -19.4520  -11.8308 O   0  0  0  0  0  0  0  0  0  0  0  0
   20.7722  -20.9085  -10.5612 O   0  0  0  0  0  0  0  0  0  0  0  0
  2  1  1  6
  3  2  1  0
  4  2  1  0
  5  4  1  0
  5  6  1  1
  7  8  2  0
  7  5  1  0
 10  9  1  0
 11 12  1  0
 11 10  1  0
 13 12  1  1
 13 14  1  0
 14  7  1  0
 15 13  1  0
 15 16  2  0
 17 15  1  0
 18 19  1  1
 18 24  1  0
 18 17  1  0
 20 21  1  0
 20 19  1  0
 22 23  1  0
 22 21  1  0
 24 25  1  0
 26 24  2  0
M  END
$$$$
