LMK.pdb
     RDKit          3D

 26 25  0  0  1  0  0  0  0  0999 V2000
   30.0510  -22.3293  -16.9520 C   0  0  0  0  0  0  0  0  0  0  0  0
   29.1149  -21.3041  -16.3844 C   0  0  1  0  0  0  0  0  0  0  0  0
   28.4768  -20.4929  -17.4809 C   0  0  0  0  0  0  0  0  0  0  0  0
   28.0976  -21.8726  -15.4300 C   0  0  0  0  0  0  0  0  0  0  0  0
   27.2516  -20.7507  -14.9102 C   0  0  2  0  0  0  0  0  0  0  0  0
   28.0607  -19.7263  -14.3067 N   0  0  0  0  0  0  0  0  0  0  0  0
   26.2103  -21.1957  -13.9618 C   0  0  0  0  0  0  0  0  0  0  0  0
   25.4127  -22.1379  -14.2092 O   0  0  0  0  0  0  0  0  0  0  0  0
   26.7350  -19.0358   -7.8103 C   0  0  0  0  0  0  0  0  0  0  0  0
   27.0964  -20.7784   -8.0690 S   0  0  0  0  0  0  0  0  0  0  0  0
   26.6768  -21.3298   -9.7415 C   0  0  0  0  0  0  0  0  0  0  0  0
   25.5953  -20.5716  -10.3884 C   0  0  0  0  0  0  0  0  0  0  0  0
   25.0644  -20.9984  -11.7034 C   0  0  2  0  0  0  0  0  0  0  0  0
   26.0723  -20.5581  -12.7083 N   0  0  0  0  0  0  0  0  0  0  0  0
   23.7618  -20.4831  -12.1223 C   0  0  0  0  0  0  0  0  0  0  0  0
   23.5622  -19.2705  -12.4393 O   0  0  0  0  0  0  0  0  0  0  0  0
   22.6221  -21.3491  -12.2084 N   0  0  0  0  0  0  0  0  0  0  0  0
   21.3214  -20.7366  -12.5604 C   0  0  1  0  0  0  0  0  0  0  0  0
   20.8643  -21.6313  -13.7440 C   0  0  0  0  0  0  0  0  0  0  0  0
   19.5553  -21.2073  -14.3099 C   0  0  0  0  0  0  0  0  0  0  0  0
   19.1254  -22.0756  -15.4777 C   0  0  0  0  0  0  0  0  0  0  0  0
   17.8450  -21.5627  -16.1014 C   0  0  0  0  0  0  0  0  0  0  0  0
   17.4958  -22.3916  -17.2383 N   0  0  0  0  0  0  0  0  0  0  0  0
   20.3092  -20.9254  -11.5109 C   0  0  0  0  0  0  0  0  0  0  0  0
   19.2292  -20.0590  -11.4555 O   0  0  0  0  0  0  0  0  0  0  0  0
   20.3343  -21.8219  -10.6352 O   0  0  0  0  0  0  0  0  0  0  0  0
  2  1  1  6
  3  2  1  0
  4  2  1  0
  5  4  1  0
  5  6  1  1
  7  8  2  0
  7  5  1  0
 10  9  1  0
 11 12  1  0
 11 10  1  0
 13 12  1  1
 13 14  1  0
 14  7  1  0
 15 13  1  0
 15 16  2  0
 17 15  1  0
 18 19  1  6
 18 24  1  0
 18 17  1  0
 20 21  1  0
 20 19  1  0
 22 23  1  0
 22 21  1  0
 24 25  1  0
 26 24  2  0
M  END
$$$$
