LMK.pdb
     RDKit          3D

 26 25  0  0  1  0  0  0  0  0999 V2000
   25.4263  -25.1496  -15.8618 C   0  0  0  0  0  0  0  0  0  0  0  0
   25.9198  -24.9074  -17.2572 C   0  0  1  0  0  0  0  0  0  0  0  0
   26.5339  -23.5380  -17.3804 C   0  0  0  0  0  0  0  0  0  0  0  0
   26.8304  -25.9893  -17.7759 C   0  0  0  0  0  0  0  0  0  0  0  0
   27.1612  -25.6899  -19.2061 C   0  0  2  0  0  0  0  0  0  0  0  0
   25.9697  -25.5939  -20.0058 N   0  0  0  0  0  0  0  0  0  0  0  0
   28.0948  -26.6648  -19.8060 C   0  0  0  0  0  0  0  0  0  0  0  0
   27.7228  -27.7693  -20.2819 O   0  0  0  0  0  0  0  0  0  0  0  0
   33.8590  -24.4176  -21.5263 C   0  0  0  0  0  0  0  0  0  0  0  0
   33.9018  -26.0023  -22.3755 S   0  0  0  0  0  0  0  0  0  0  0  0
   32.6421  -27.1487  -21.7621 C   0  0  0  0  0  0  0  0  0  0  0  0
   31.5446  -26.5174  -21.0139 C   0  0  0  0  0  0  0  0  0  0  0  0
   30.4602  -27.3436  -20.4355 C   0  0  2  0  0  0  0  0  0  0  0  0
   29.4775  -26.3795  -19.8661 N   0  0  0  0  0  0  0  0  0  0  0  0
   30.8064  -28.3004  -19.3855 C   0  0  0  0  0  0  0  0  0  0  0  0
   30.7870  -28.0144  -18.1492 O   0  0  0  0  0  0  0  0  0  0  0  0
   31.1821  -29.6453  -19.7117 N   0  0  0  0  0  0  0  0  0  0  0  0
   31.4623  -30.5695  -18.5900 C   0  0  1  0  0  0  0  0  0  0  0  0
   30.0295  -30.9931  -18.1682 C   0  0  0  0  0  0  0  0  0  0  0  0
   30.0293  -32.0988  -17.1727 C   0  0  0  0  0  0  0  0  0  0  0  0
   28.6249  -32.5203  -16.7820 C   0  0  0  0  0  0  0  0  0  0  0  0
   28.6495  -33.6942  -15.8265 C   0  0  0  0  0  0  0  0  0  0  0  0
   27.3081  -33.9487  -15.3395 N   0  0  0  0  0  0  0  0  0  0  0  0
   32.1237  -31.8058  -19.0326 C   0  0  0  0  0  0  0  0  0  0  0  0
   32.6393  -32.6700  -18.0800 O   0  0  0  0  0  0  0  0  0  0  0  0
   32.2705  -32.1598  -20.2261 O   0  0  0  0  0  0  0  0  0  0  0  0
  2  1  1  1
  3  2  1  0
  4  2  1  0
  5  4  1  0
  5  6  1  6
  7  8  2  0
  7  5  1  0
 10  9  1  0
 11 12  1  0
 11 10  1  0
 13 12  1  1
 13 14  1  0
 14  7  1  0
 15 13  1  0
 15 16  2  0
 17 15  1  0
 18 19  1  6
 18 24  1  0
 18 17  1  0
 20 21  1  0
 20 19  1  0
 22 23  1  0
 22 21  1  0
 24 25  1  0
 26 24  2  0
M  END
$$$$
