LMK.pdb
     RDKit          3D

 26 25  0  0  1  0  0  0  0  0999 V2000
   30.0301  -21.7839  -17.0228 C   0  0  0  0  0  0  0  0  0  0  0  0
   29.1754  -20.8260  -16.2472 C   0  0  1  0  0  0  0  0  0  0  0  0
   28.4423  -19.8899  -17.1712 C   0  0  0  0  0  0  0  0  0  0  0  0
   28.2518  -21.4955  -15.2635 C   0  0  0  0  0  0  0  0  0  0  0  0
   27.4812  -20.4367  -14.5356 C   0  0  2  0  0  0  0  0  0  0  0  0
   28.3609  -19.4467  -13.9748 N   0  0  0  0  0  0  0  0  0  0  0  0
   26.5950  -20.9778  -13.4850 C   0  0  0  0  0  0  0  0  0  0  0  0
   25.7167  -21.8513  -13.7095 O   0  0  0  0  0  0  0  0  0  0  0  0
   28.3416  -20.1834   -7.3468 C   0  0  0  0  0  0  0  0  0  0  0  0
   26.5659  -20.2161   -7.0637 S   0  0  0  0  0  0  0  0  0  0  0  0
   25.6394  -20.6936   -8.5439 C   0  0  0  0  0  0  0  0  0  0  0  0
   26.3694  -20.5267   -9.8098 C   0  0  0  0  0  0  0  0  0  0  0  0
   25.7420  -20.9174  -11.0931 C   0  0  2  0  0  0  0  0  0  0  0  0
   26.7088  -20.5176  -12.1537 N   0  0  0  0  0  0  0  0  0  0  0  0
   24.4432  -20.3374  -11.4315 C   0  0  0  0  0  0  0  0  0  0  0  0
   24.2436  -19.0881  -11.5316 O   0  0  0  0  0  0  0  0  0  0  0  0
   23.3076  -21.1757  -11.6845 N   0  0  0  0  0  0  0  0  0  0  0  0
   22.0052  -20.5125  -11.9188 C   0  0  1  0  0  0  0  0  0  0  0  0
   21.8663  -20.6316  -13.4605 C   0  0  0  0  0  0  0  0  0  0  0  0
   20.5916  -20.0548  -13.9666 C   0  0  0  0  0  0  0  0  0  0  0  0
   20.4656  -20.1733  -15.4742 C   0  0  0  0  0  0  0  0  0  0  0  0
   19.1506  -19.6036  -15.9618 C   0  0  0  0  0  0  0  0  0  0  0  0
   19.0082  -19.8637  -17.3808 N   0  0  0  0  0  0  0  0  0  0  0  0
   20.8782  -21.2752  -11.3622 C   0  0  0  0  0  0  0  0  0  0  0  0
   19.8158  -20.5882  -10.7971 O   0  0  0  0  0  0  0  0  0  0  0  0
   20.7877  -22.5254  -11.3492 O   0  0  0  0  0  0  0  0  0  0  0  0
  2  1  1  6
  3  2  1  0
  4  2  1  0
  5  4  1  0
  5  6  1  1
  7  8  2  0
  7  5  1  0
 10  9  1  0
 11 12  1  0
 11 10  1  0
 13 12  1  1
 13 14  1  0
 14  7  1  0
 15 13  1  0
 15 16  2  0
 17 15  1  0
 18 19  1  6
 18 24  1  0
 18 17  1  0
 20 21  1  0
 20 19  1  0
 22 23  1  0
 22 21  1  0
 24 25  1  0
 26 24  2  0
M  END
$$$$
