LMK.pdb
     RDKit          3D

 26 25  0  0  1  0  0  0  0  0999 V2000
   25.6996  -14.7534  -19.2138 C   0  0  0  0  0  0  0  0  0  0  0  0
   26.2896  -13.8649  -18.1593 C   0  0  1  0  0  0  0  0  0  0  0  0
   26.4751  -14.6147  -16.8667 C   0  0  0  0  0  0  0  0  0  0  0  0
   27.5469  -13.1584  -18.5941 C   0  0  0  0  0  0  0  0  0  0  0  0
   28.0127  -12.2801  -17.4734 C   0  0  2  0  0  0  0  0  0  0  0  0
   26.9380  -11.4692  -16.9676 N   0  0  0  0  0  0  0  0  0  0  0  0
   29.1607  -11.4257  -17.8396 C   0  0  0  0  0  0  0  0  0  0  0  0
   30.2531  -11.8866  -18.2628 O   0  0  0  0  0  0  0  0  0  0  0  0
   30.1915   -3.9697  -20.3319 C   0  0  0  0  0  0  0  0  0  0  0  0
   29.1936   -5.3725  -19.8119 S   0  0  0  0  0  0  0  0  0  0  0  0
   30.2013   -6.7557  -19.2214 C   0  0  0  0  0  0  0  0  0  0  0  0
   29.4364   -7.9241  -18.7603 C   0  0  0  0  0  0  0  0  0  0  0  0
   30.1367   -9.1114  -18.2188 C   0  0  2  0  0  0  0  0  0  0  0  0
   29.0659  -10.0206  -17.7226 N   0  0  0  0  0  0  0  0  0  0  0  0
   31.0929   -8.9124  -17.1308 C   0  0  0  0  0  0  0  0  0  0  0  0
   30.7465   -8.7515  -15.9205 O   0  0  0  0  0  0  0  0  0  0  0  0
   32.5040   -8.9016  -17.3855 N   0  0  0  0  0  0  0  0  0  0  0  0
   33.4046   -8.6349  -16.2415 C   0  0  1  0  0  0  0  0  0  0  0  0
   34.4957   -9.7209  -16.4423 C   0  0  0  0  0  0  0  0  0  0  0  0
   35.5772   -9.6410  -15.4238 C   0  0  0  0  0  0  0  0  0  0  0  0
   36.6297  -10.7168  -15.6173 C   0  0  0  0  0  0  0  0  0  0  0  0
   37.7090  -10.6258  -14.5597 C   0  0  0  0  0  0  0  0  0  0  0  0
   38.7812  -11.5461  -14.8834 N   0  0  0  0  0  0  0  0  0  0  0  0
   34.1037   -7.3474  -16.3652 C   0  0  0  0  0  0  0  0  0  0  0  0
   34.6326   -6.7581  -15.2281 O   0  0  0  0  0  0  0  0  0  0  0  0
   34.2686   -6.7141  -17.4344 O   0  0  0  0  0  0  0  0  0  0  0  0
  2  1  1  6
  3  2  1  0
  4  2  1  0
  5  4  1  0
  5  6  1  6
  7  8  2  0
  7  5  1  0
 10  9  1  0
 11 12  1  0
 11 10  1  0
 13 12  1  1
 13 14  1  0
 14  7  1  0
 15 13  1  0
 15 16  2  0
 17 15  1  0
 18 19  1  6
 18 24  1  0
 18 17  1  0
 20 21  1  0
 20 19  1  0
 22 23  1  0
 22 21  1  0
 24 25  1  0
 26 24  2  0
M  END
$$$$
