LMK.pdb
     RDKit          3D

 26 25  0  0  1  0  0  0  0  0999 V2000
   17.2803  -16.1381  -19.2455 C   0  0  0  0  0  0  0  0  0  0  0  0
   18.0037  -14.8613  -19.5552 C   0  0  1  0  0  0  0  0  0  0  0  0
   17.2838  -14.0807  -20.6228 C   0  0  0  0  0  0  0  0  0  0  0  0
   18.3035  -14.0229  -18.3402 C   0  0  0  0  0  0  0  0  0  0  0  0
   18.9569  -12.7510  -18.7873 C   0  0  2  0  0  0  0  0  0  0  0  0
   20.1995  -13.0145  -19.4618 N   0  0  0  0  0  0  0  0  0  0  0  0
   19.1733  -11.7881  -17.6883 C   0  0  0  0  0  0  0  0  0  0  0  0
   18.2592  -11.4258  -16.9021 O   0  0  0  0  0  0  0  0  0  0  0  0
   22.6716   -9.6214  -12.1414 C   0  0  0  0  0  0  0  0  0  0  0  0
   23.4110  -10.2698  -13.6471 S   0  0  0  0  0  0  0  0  0  0  0  0
   22.7980   -9.4356  -15.1322 C   0  0  0  0  0  0  0  0  0  0  0  0
   22.1740  -10.3227  -16.1255 C   0  0  0  0  0  0  0  0  0  0  0  0
   20.7179  -10.2489  -16.3854 C   0  0  2  0  0  0  0  0  0  0  0  0
   20.4526  -11.2257  -17.4786 N   0  0  0  0  0  0  0  0  0  0  0  0
   20.1530   -8.9623  -16.7897 C   0  0  0  0  0  0  0  0  0  0  0  0
   20.3387   -8.4500  -17.9358 O   0  0  0  0  0  0  0  0  0  0  0  0
   19.3315   -8.2055  -15.8906 N   0  0  0  0  0  0  0  0  0  0  0  0
   18.8772   -6.8696  -16.3376 C   0  0  1  0  0  0  0  0  0  0  0  0
   17.5305   -6.7267  -15.5784 C   0  0  0  0  0  0  0  0  0  0  0  0
   16.8844   -5.4054  -15.8026 C   0  0  0  0  0  0  0  0  0  0  0  0
   15.5923   -5.2573  -15.0208 C   0  0  0  0  0  0  0  0  0  0  0  0
   14.9066   -3.9452  -15.3366 C   0  0  0  0  0  0  0  0  0  0  0  0
   13.6262   -3.8940  -14.6589 N   0  0  0  0  0  0  0  0  0  0  0  0
   19.7319   -5.7865  -15.8297 C   0  0  0  0  0  0  0  0  0  0  0  0
   20.5016   -6.0117  -14.6997 O   0  0  0  0  0  0  0  0  0  0  0  0
   19.8302   -4.6446  -16.3375 O   0  0  0  0  0  0  0  0  0  0  0  0
  2  1  1  1
  3  2  1  0
  4  2  1  0
  5  4  1  0
  5  6  1  1
  7  8  2  0
  7  5  1  0
 10  9  1  0
 11 12  1  0
 11 10  1  0
 13 12  1  6
 13 14  1  0
 14  7  1  0
 15 13  1  0
 15 16  2  0
 17 15  1  0
 18 19  1  1
 18 24  1  0
 18 17  1  0
 20 21  1  0
 20 19  1  0
 22 23  1  0
 22 21  1  0
 24 25  1  0
 26 24  2  0
M  END
$$$$
