QFV.pdb
     RDKit          3D

 28 28  0  0  1  0  0  0  0  0999 V2000
   11.4490  -18.0792   17.4842 N   0  0  0  0  0  0  0  0  0  0  0  0
   12.0874  -18.9644   18.3837 C   0  0  0  0  0  0  0  0  0  0  0  0
   12.5957  -20.0340   17.9833 O   0  0  0  0  0  0  0  0  0  0  0  0
   12.1281  -18.5645   19.8420 C   0  0  0  0  0  0  0  0  0  0  0  0
   11.4276  -17.2483   19.9673 C   0  0  0  0  0  0  0  0  0  0  0  0
   10.2535  -17.2593   20.8682 C   0  0  2  0  0  0  0  0  0  0  0  0
    9.0091  -17.1574   20.0544 N   0  0  0  0  0  0  0  0  0  0  0  0
   10.1550  -16.2812   21.9241 C   0  0  0  0  0  0  0  0  0  0  0  0
   10.9534  -15.2829   21.9000 O   0  0  0  0  0  0  0  0  0  0  0  0
    9.2412  -16.3493   22.9727 N   0  0  0  0  0  0  0  0  0  0  0  0
    9.1355  -15.2925   24.0151 C   0  0  1  0  0  0  0  0  0  0  0  0
    7.7180  -14.8629   23.9623 C   0  0  0  0  0  0  0  0  0  0  0  0
    7.2622  -13.8329   24.8716 C   0  0  0  0  0  0  0  0  0  0  0  0
    7.6148  -12.4999   24.8384 C   0  0  0  0  0  0  0  0  0  0  0  0
    7.1445  -11.5689   25.7081 C   0  0  0  0  0  0  0  0  0  0  0  0
    6.2672  -11.9118   26.6977 C   0  0  0  0  0  0  0  0  0  0  0  0
    5.8800  -13.2484   26.7730 C   0  0  0  0  0  0  0  0  0  0  0  0
    6.3652  -14.1788   25.8841 C   0  0  0  0  0  0  0  0  0  0  0  0
    9.5668  -15.9343   25.2779 C   0  0  0  0  0  0  0  0  0  0  0  0
    8.8532  -16.8151   25.8756 O   0  0  0  0  0  0  0  0  0  0  0  0
   10.6099  -14.4719   29.5256 C   0  0  0  0  0  0  0  0  0  0  0  0
   10.3591  -14.4572   28.0448 C   0  0  1  0  0  0  0  0  0  0  0  0
   10.9453  -13.1796   27.4873 C   0  0  0  0  0  0  0  0  0  0  0  0
   10.9375  -15.7017   27.3921 C   0  0  2  0  0  0  0  0  0  0  0  0
   10.7948  -15.6578   25.9528 N   0  0  0  0  0  0  0  0  0  0  0  0
   10.4935  -16.9411   28.0242 C   0  0  0  0  0  0  0  0  0  0  0  0
    9.5661  -17.7740   27.3918 O   0  0  0  0  0  0  0  0  0  0  0  0
   10.9101  -17.3185   29.1453 O   0  0  0  0  0  0  0  0  0  0  0  0
  2  1  1  0
  3  2  2  0
  4  2  1  0
  5  4  1  0
  5  6  1  0
  6  8  1  0
  6  7  1  6
  8  9  2  0
 10 11  1  0
 10  8  1  0
 11 12  1  1
 13 12  1  0
 14 13  2  0
 15 14  1  0
 16 17  1  0
 16 15  2  0
 17 18  2  0
 18 13  1  0
 19 11  1  0
 20 19  2  0
 22 21  1  1
 23 22  1  0
 24 22  1  0
 24 25  1  6
 25 19  1  0
 26 27  1  0
 26 24  1  0
 28 26  2  0
M  END
$$$$
