QFV.pdb
     RDKit          3D

 28 28  0  0  1  0  0  0  0  0999 V2000
   10.2957  -16.5157   16.9426 N   0  0  0  0  0  0  0  0  0  0  0  0
   10.6966  -17.8595   17.1261 C   0  0  0  0  0  0  0  0  0  0  0  0
   10.8352  -18.6293   16.1511 O   0  0  0  0  0  0  0  0  0  0  0  0
   10.9484  -18.3227   18.5440 C   0  0  0  0  0  0  0  0  0  0  0  0
   10.6526  -17.1714   19.4527 C   0  0  0  0  0  0  0  0  0  0  0  0
   10.6969  -17.4987   20.8953 C   0  0  2  0  0  0  0  0  0  0  0  0
    9.7788  -18.6405   21.1682 N   0  0  0  0  0  0  0  0  0  0  0  0
   10.4063  -16.4743   21.8688 C   0  0  0  0  0  0  0  0  0  0  0  0
   11.1298  -15.4202   21.8717 O   0  0  0  0  0  0  0  0  0  0  0  0
    9.3824  -16.5548   22.8091 N   0  0  0  0  0  0  0  0  0  0  0  0
    9.0891  -15.4588   23.7720 C   0  0  1  0  0  0  0  0  0  0  0  0
    7.6205  -15.2777   23.6886 C   0  0  0  0  0  0  0  0  0  0  0  0
    6.9875  -14.2799   24.5248 C   0  0  0  0  0  0  0  0  0  0  0  0
    6.0889  -14.5191   25.5435 C   0  0  0  0  0  0  0  0  0  0  0  0
    5.5350  -13.5450   26.3107 C   0  0  0  0  0  0  0  0  0  0  0  0
    5.8464  -12.2300   26.1095 C   0  0  0  0  0  0  0  0  0  0  0  0
    6.7508  -11.9366   25.0907 C   0  0  0  0  0  0  0  0  0  0  0  0
    7.3033  -12.9350   24.3230 C   0  0  0  0  0  0  0  0  0  0  0  0
    9.6065  -15.9271   25.0780 C   0  0  0  0  0  0  0  0  0  0  0  0
   10.1469  -17.0797   25.2258 O   0  0  0  0  0  0  0  0  0  0  0  0
   10.9135  -14.9160   29.7939 C   0  0  0  0  0  0  0  0  0  0  0  0
   10.0751  -14.5468   28.6036 C   0  0  1  0  0  0  0  0  0  0  0  0
   10.5131  -13.1776   28.1342 C   0  0  0  0  0  0  0  0  0  0  0  0
   10.1918  -15.6041   27.5185 C   0  0  2  0  0  0  0  0  0  0  0  0
    9.5692  -15.1680   26.2873 N   0  0  0  0  0  0  0  0  0  0  0  0
    9.8071  -16.9379   27.9722 C   0  0  0  0  0  0  0  0  0  0  0  0
   10.7582  -17.8157   28.5002 O   0  0  0  0  0  0  0  0  0  0  0  0
    8.6278  -17.3608   27.9142 O   0  0  0  0  0  0  0  0  0  0  0  0
  2  1  1  0
  3  2  2  0
  4  2  1  0
  5  4  1  0
  5  6  1  0
  6  8  1  0
  6  7  1  6
  8  9  2  0
 10 11  1  0
 10  8  1  0
 11 12  1  1
 13 12  1  0
 14 13  2  0
 15 14  1  0
 16 17  1  0
 16 15  2  0
 17 18  2  0
 18 13  1  0
 19 11  1  0
 20 19  2  0
 22 21  1  1
 23 22  1  0
 24 22  1  0
 24 25  1  6
 25 19  1  0
 26 27  1  0
 26 24  1  0
 28 26  2  0
M  END
$$$$
