QFV.pdb
     RDKit          3D

 28 28  0  0  1  0  0  0  0  0999 V2000
    6.2021  -19.7623   19.4870 N   0  0  0  0  0  0  0  0  0  0  0  0
    7.5534  -20.1716   19.5685 C   0  0  0  0  0  0  0  0  0  0  0  0
    7.8807  -21.1878   20.2188 O   0  0  0  0  0  0  0  0  0  0  0  0
    8.5796  -19.3320   18.8403 C   0  0  0  0  0  0  0  0  0  0  0  0
    9.2629  -18.4739   19.8579 C   0  0  0  0  0  0  0  0  0  0  0  0
    8.7647  -17.0819   19.9235 C   0  0  2  0  0  0  0  0  0  0  0  0
    9.2272  -16.3374   18.7182 N   0  0  0  0  0  0  0  0  0  0  0  0
    9.0729  -16.2671   21.0736 C   0  0  0  0  0  0  0  0  0  0  0  0
   10.2914  -15.9332   21.2691 O   0  0  0  0  0  0  0  0  0  0  0  0
    8.1266  -15.8139   21.9892 N   0  0  0  0  0  0  0  0  0  0  0  0
    8.4944  -15.0491   23.2115 C   0  0  1  0  0  0  0  0  0  0  0  0
    7.2864  -14.2490   23.5234 C   0  0  0  0  0  0  0  0  0  0  0  0
    7.2144  -13.5505   24.7892 C   0  0  0  0  0  0  0  0  0  0  0  0
    6.5589  -13.9816   25.9236 C   0  0  0  0  0  0  0  0  0  0  0  0
    6.5357  -13.2934   27.0942 C   0  0  0  0  0  0  0  0  0  0  0  0
    7.1812  -12.0956   27.2177 C   0  0  0  0  0  0  0  0  0  0  0  0
    7.8589  -11.6168   26.0981 C   0  0  0  0  0  0  0  0  0  0  0  0
    7.8731  -12.3264   24.9201 C   0  0  0  0  0  0  0  0  0  0  0  0
    8.8704  -16.0662   24.2196 C   0  0  0  0  0  0  0  0  0  0  0  0
    8.1761  -17.1258   24.4138 O   0  0  0  0  0  0  0  0  0  0  0  0
   12.2887  -18.5783   26.6013 C   0  0  0  0  0  0  0  0  0  0  0  0
   11.8796  -17.4588   25.6874 C   0  0  1  0  0  0  0  0  0  0  0  0
   12.1195  -17.9103   24.2642 C   0  0  0  0  0  0  0  0  0  0  0  0
   10.4348  -17.0620   25.9413 C   0  0  2  0  0  0  0  0  0  0  0  0
   10.0201  -15.9889   25.0636 N   0  0  0  0  0  0  0  0  0  0  0  0
   10.1347  -16.8601   27.3562 C   0  0  0  0  0  0  0  0  0  0  0  0
    9.9518  -17.9507   28.2112 O   0  0  0  0  0  0  0  0  0  0  0  0
   10.0262  -15.7219   27.8715 O   0  0  0  0  0  0  0  0  0  0  0  0
  2  1  1  0
  3  2  2  0
  4  2  1  0
  5  4  1  0
  5  6  1  0
  6  8  1  0
  6  7  1  6
  8  9  2  0
 10 11  1  0
 10  8  1  0
 11 12  1  1
 13 12  1  0
 14 13  2  0
 15 14  1  0
 16 17  1  0
 16 15  2  0
 17 18  2  0
 18 13  1  0
 19 11  1  0
 20 19  2  0
 22 21  1  1
 23 22  1  0
 24 22  1  0
 24 25  1  6
 25 19  1  0
 26 27  1  0
 26 24  1  0
 28 26  2  0
M  END
$$$$
