QFV.pdb
     RDKit          3D

 28 28  0  0  1  0  0  0  0  0999 V2000
   13.0390  -20.0584   18.5505 N   0  0  0  0  0  0  0  0  0  0  0  0
   12.4723  -20.1796   19.8406 C   0  0  0  0  0  0  0  0  0  0  0  0
   11.9390  -21.2473   20.2123 O   0  0  0  0  0  0  0  0  0  0  0  0
   12.5380  -18.9693   20.7457 C   0  0  0  0  0  0  0  0  0  0  0  0
   11.1801  -18.7815   21.3452 C   0  0  0  0  0  0  0  0  0  0  0  0
   10.4861  -17.5448   20.9219 C   0  0  2  0  0  0  0  0  0  0  0  0
   11.2375  -16.9207   19.7964 N   0  0  0  0  0  0  0  0  0  0  0  0
   10.2244  -16.5067   21.8890 C   0  0  0  0  0  0  0  0  0  0  0  0
   11.0165  -15.5039   21.9290 O   0  0  0  0  0  0  0  0  0  0  0  0
    9.1587  -16.5212   22.7853 N   0  0  0  0  0  0  0  0  0  0  0  0
    8.9605  -15.4640   23.8136 C   0  0  1  0  0  0  0  0  0  0  0  0
    7.5118  -15.1571   23.7526 C   0  0  0  0  0  0  0  0  0  0  0  0
    6.9784  -14.1151   24.6042 C   0  0  0  0  0  0  0  0  0  0  0  0
    6.1155  -14.2901   25.6659 C   0  0  0  0  0  0  0  0  0  0  0  0
    5.6563  -13.2771   26.4452 C   0  0  0  0  0  0  0  0  0  0  0  0
    6.0354  -11.9851   26.2133 C   0  0  0  0  0  0  0  0  0  0  0  0
    6.9072  -11.7563   25.1506 C   0  0  0  0  0  0  0  0  0  0  0  0
    7.3635  -12.7935   24.3711 C   0  0  0  0  0  0  0  0  0  0  0  0
    9.4409  -16.0507   25.0855 C   0  0  0  0  0  0  0  0  0  0  0  0
    9.5923  -17.3136   25.2418 O   0  0  0  0  0  0  0  0  0  0  0  0
   11.2353  -13.6349   27.9511 C   0  0  0  0  0  0  0  0  0  0  0  0
   10.5724  -14.8531   28.5277 C   0  0  1  0  0  0  0  0  0  0  0  0
    9.2933  -14.4104   29.2019 C   0  0  0  0  0  0  0  0  0  0  0  0
   10.3358  -15.8952   27.4472 C   0  0  2  0  0  0  0  0  0  0  0  0
    9.7865  -15.2981   26.2492 N   0  0  0  0  0  0  0  0  0  0  0  0
    9.6294  -17.0772   27.9339 C   0  0  0  0  0  0  0  0  0  0  0  0
   10.2726  -18.0065   28.7563 O   0  0  0  0  0  0  0  0  0  0  0  0
    8.4328  -17.3190   27.6466 O   0  0  0  0  0  0  0  0  0  0  0  0
  2  1  1  0
  3  2  2  0
  4  2  1  0
  5  4  1  0
  5  6  1  0
  6  8  1  0
  6  7  1  6
  8  9  2  0
 10 11  1  0
 10  8  1  0
 11 12  1  1
 13 12  1  0
 14 13  2  0
 15 14  1  0
 16 17  1  0
 16 15  2  0
 17 18  2  0
 18 13  1  0
 19 11  1  0
 20 19  2  0
 22 21  1  6
 23 22  1  0
 24 22  1  0
 24 25  1  6
 25 19  1  0
 26 27  1  0
 26 24  1  0
 28 26  2  0
M  END
$$$$
