WYT.pdb
     RDKit          3D

 34 36  0  0  1  0  0  0  0  0999 V2000
    8.0662  -16.5639   24.3550 N   0  0  0  0  0  0  0  0  0  0  0  0
    9.0290  -15.4810   24.3618 C   0  0  1  0  0  0  0  0  0  0  0  0
    8.9172  -14.6786   25.6408 C   0  0  0  0  0  0  0  0  0  0  0  0
    7.5435  -14.1449   25.8262 C   0  0  0  0  0  0  0  0  0  0  0  0
    6.3838  -14.8701   26.1044 C   0  0  0  0  0  0  0  0  0  0  0  0
    5.3446  -14.0255   26.1983 N   0  0  0  0  0  0  0  0  0  0  0  0
    5.7523  -12.7575   25.9952 C   0  0  0  0  0  0  0  0  0  0  0  0
    5.0534  -11.5663   25.9939 C   0  0  0  0  0  0  0  0  0  0  0  0
    5.7465  -10.3983   25.7516 C   0  0  0  0  0  0  0  0  0  0  0  0
    7.1066  -10.4514   25.5193 C   0  0  0  0  0  0  0  0  0  0  0  0
    7.7880  -11.6506   25.5245 C   0  0  0  0  0  0  0  0  0  0  0  0
    7.1176  -12.8274   25.7637 C   0  0  0  0  0  0  0  0  0  0  0  0
   10.4053  -15.9604   24.1255 C   0  0  0  0  0  0  0  0  0  0  0  0
   11.2929  -15.1050   23.8472 O   0  0  0  0  0  0  0  0  0  0  0  0
   10.8158  -17.1043   30.3429 O   0  0  0  0  0  0  0  0  0  0  0  0
   11.2651  -17.4710   29.0787 C   0  0  0  0  0  0  0  0  0  0  0  0
   10.6238  -18.4629   28.3665 C   0  0  0  0  0  0  0  0  0  0  0  0
   11.0813  -18.8208   27.1049 C   0  0  0  0  0  0  0  0  0  0  0  0
   12.1760  -18.2134   26.5175 C   0  0  0  0  0  0  0  0  0  0  0  0
   12.5993  -18.6443   25.1851 C   0  0  0  0  0  0  0  0  0  0  0  0
   12.1631  -17.7205   24.0760 C   0  0  2  0  0  0  0  0  0  0  0  0
   10.7957  -17.3115   24.1899 N   0  0  0  0  0  0  0  0  0  0  0  0
   12.4428  -18.4076   22.7868 C   0  0  0  0  0  0  0  0  0  0  0  0
   13.3890  -19.2298   22.6853 O   0  0  0  0  0  0  0  0  0  0  0  0
   12.8103  -17.2335   27.2201 C   0  0  0  0  0  0  0  0  0  0  0  0
   12.3583  -16.8688   28.4849 C   0  0  0  0  0  0  0  0  0  0  0  0
    9.8520  -19.7103   20.1400 C   0  0  0  0  0  0  0  0  0  0  0  0
   10.8546  -18.8503   19.3961 C   0  0  1  0  0  0  0  0  0  0  0  0
   10.2713  -17.5926   19.2446 O   0  0  0  0  0  0  0  0  0  0  0  0
   12.0490  -18.6771   20.3063 C   0  0  2  0  0  0  0  0  0  0  0  0
   11.6689  -18.1791   21.6111 N   0  0  0  0  0  0  0  0  0  0  0  0
   13.1165  -17.8739   19.6858 C   0  0  0  0  0  0  0  0  0  0  0  0
   13.7066  -18.2897   18.5190 O   0  0  0  0  0  0  0  0  0  0  0  0
   13.4830  -16.8134   20.2247 O   0  0  0  0  0  0  0  0  0  0  0  0
  2  1  1  1
  2  3  1  0
  3  4  1  0
  4  5  2  0
  6  5  1  0
  7  6  1  0
  8  7  2  0
  9  8  1  0
 10  9  2  0
 10 11  1  0
 11 12  2  0
 12  7  1  0
 12  4  1  0
 13  2  1  0
 13 14  2  0
 15 16  1  0
 16 26  2  0
 16 17  1  0
 17 18  2  0
 18 19  1  0
 19 20  1  0
 21 20  1  1
 22 21  1  0
 22 13  1  0
 23 21  1  0
 24 23  2  0
 25 19  2  0
 26 25  1  0
 28 27  1  1
 28 30  1  0
 29 28  1  0
 30 32  1  0
 30 31  1  1
 31 23  1  0
 32 33  1  0
 34 32  2  0
M  END
$$$$
