WYT.pdb
     RDKit          3D

 34 36  0  0  1  0  0  0  0  0999 V2000
    5.8465  -18.2195   23.8074 N   0  0  0  0  0  0  0  0  0  0  0  0
    6.5954  -16.9973   24.0194 C   0  0  1  0  0  0  0  0  0  0  0  0
    6.8718  -16.7924   25.4938 C   0  0  0  0  0  0  0  0  0  0  0  0
    6.4059  -15.4583   25.9512 C   0  0  0  0  0  0  0  0  0  0  0  0
    5.0882  -15.0460   26.1559 C   0  0  0  0  0  0  0  0  0  0  0  0
    5.0824  -13.7688   26.5693 N   0  0  0  0  0  0  0  0  0  0  0  0
    6.3422  -13.2983   26.6532 C   0  0  0  0  0  0  0  0  0  0  0  0
    6.8282  -12.0610   27.0272 C   0  0  0  0  0  0  0  0  0  0  0  0
    8.1932  -11.8612   27.0182 C   0  0  0  0  0  0  0  0  0  0  0  0
    9.0282  -12.8936   26.6392 C   0  0  0  0  0  0  0  0  0  0  0  0
    8.5245  -14.1231   26.2685 C   0  0  0  0  0  0  0  0  0  0  0  0
    7.1672  -14.3448   26.2700 C   0  0  0  0  0  0  0  0  0  0  0  0
    7.8308  -16.9561   23.2119 C   0  0  0  0  0  0  0  0  0  0  0  0
    8.4611  -18.0369   23.0346 O   0  0  0  0  0  0  0  0  0  0  0  0
    6.4997  -13.4543   16.6480 O   0  0  0  0  0  0  0  0  0  0  0  0
    7.3148  -13.7221   17.7428 C   0  0  0  0  0  0  0  0  0  0  0  0
    7.4597  -12.7945   18.7533 C   0  0  0  0  0  0  0  0  0  0  0  0
    8.2762  -13.0727   19.8418 C   0  0  0  0  0  0  0  0  0  0  0  0
    8.9661  -14.2653   19.9607 C   0  0  0  0  0  0  0  0  0  0  0  0
    9.8077  -14.4867   21.1367 C   0  0  0  0  0  0  0  0  0  0  0  0
    9.5495  -15.7977   21.8356 C   0  0  2  0  0  0  0  0  0  0  0  0
    8.3547  -15.7889   22.6245 N   0  0  0  0  0  0  0  0  0  0  0  0
   10.7576  -16.1193   22.6416 C   0  0  0  0  0  0  0  0  0  0  0  0
   11.1983  -15.3086   23.4960 O   0  0  0  0  0  0  0  0  0  0  0  0
    8.8238  -15.1823   18.9632 C   0  0  0  0  0  0  0  0  0  0  0  0
    8.0075  -14.9114   17.8689 C   0  0  0  0  0  0  0  0  0  0  0  0
   11.7165  -18.8324   25.0830 C   0  0  0  0  0  0  0  0  0  0  0  0
   12.6531  -18.9746   23.8995 C   0  0  1  0  0  0  0  0  0  0  0  0
   12.0492  -19.8665   23.0137 O   0  0  0  0  0  0  0  0  0  0  0  0
   12.7004  -17.6303   23.2099 C   0  0  2  0  0  0  0  0  0  0  0  0
   11.4743  -17.3434   22.4961 N   0  0  0  0  0  0  0  0  0  0  0  0
   13.8951  -17.4753   22.3624 C   0  0  0  0  0  0  0  0  0  0  0  0
   15.1495  -17.5953   22.9052 O   0  0  0  0  0  0  0  0  0  0  0  0
   13.7632  -17.2343   21.1483 O   0  0  0  0  0  0  0  0  0  0  0  0
  2  1  1  1
  2  3  1  0
  3  4  1  0
  4  5  2  0
  6  5  1  0
  7  6  1  0
  8  7  2  0
  9  8  1  0
 10  9  2  0
 10 11  1  0
 11 12  2  0
 12  7  1  0
 12  4  1  0
 13  2  1  0
 13 14  2  0
 15 16  1  0
 16 26  2  0
 16 17  1  0
 17 18  2  0
 18 19  1  0
 19 20  1  0
 21 20  1  1
 22 21  1  0
 22 13  1  0
 23 21  1  0
 24 23  2  0
 25 19  2  0
 26 25  1  0
 28 27  1  1
 28 30  1  0
 29 28  1  0
 30 32  1  0
 30 31  1  6
 31 23  1  0
 32 33  1  0
 34 32  2  0
M  END
$$$$
