WYT.pdb
     RDKit          3D

 34 36  0  0  1  0  0  0  0  0999 V2000
    8.1028  -16.6640   24.3273 N   0  0  0  0  0  0  0  0  0  0  0  0
    9.0168  -15.6045   23.9513 C   0  0  1  0  0  0  0  0  0  0  0  0
    8.9748  -14.4814   24.9657 C   0  0  0  0  0  0  0  0  0  0  0  0
    7.5772  -14.0912   25.2831 C   0  0  0  0  0  0  0  0  0  0  0  0
    6.4882  -14.9390   25.4923 C   0  0  0  0  0  0  0  0  0  0  0  0
    5.3968  -14.2024   25.7538 N   0  0  0  0  0  0  0  0  0  0  0  0
    5.7012  -12.8901   25.7304 C   0  0  0  0  0  0  0  0  0  0  0  0
    4.9191  -11.7709   25.9373 C   0  0  0  0  0  0  0  0  0  0  0  0
    5.5130  -10.5288   25.8490 C   0  0  0  0  0  0  0  0  0  0  0  0
    6.8600  -10.4393   25.5589 C   0  0  0  0  0  0  0  0  0  0  0  0
    7.6256  -11.5685   25.3552 C   0  0  0  0  0  0  0  0  0  0  0  0
    7.0547  -12.8169   25.4384 C   0  0  0  0  0  0  0  0  0  0  0  0
   10.3886  -16.1057   23.7343 C   0  0  0  0  0  0  0  0  0  0  0  0
   11.2506  -15.3007   23.2808 O   0  0  0  0  0  0  0  0  0  0  0  0
   10.8010  -15.9173   30.0273 O   0  0  0  0  0  0  0  0  0  0  0  0
   11.2197  -16.5667   28.8708 C   0  0  0  0  0  0  0  0  0  0  0  0
   12.3804  -16.1832   28.2318 C   0  0  0  0  0  0  0  0  0  0  0  0
   12.7887  -16.8390   27.0776 C   0  0  0  0  0  0  0  0  0  0  0  0
   12.0675  -17.8829   26.5278 C   0  0  0  0  0  0  0  0  0  0  0  0
   12.5608  -18.5250   25.3094 C   0  0  0  0  0  0  0  0  0  0  0  0
   12.1815  -17.8031   24.0409 C   0  0  2  0  0  0  0  0  0  0  0  0
   10.8011  -17.4253   23.9999 N   0  0  0  0  0  0  0  0  0  0  0  0
   12.5633  -18.6767   22.8991 C   0  0  0  0  0  0  0  0  0  0  0  0
   12.5740  -19.9285   23.0192 O   0  0  0  0  0  0  0  0  0  0  0  0
   10.9208  -18.2625   27.1581 C   0  0  0  0  0  0  0  0  0  0  0  0
   10.5045  -17.6107   28.3152 C   0  0  0  0  0  0  0  0  0  0  0  0
   11.2832  -18.6954   19.3824 C   0  0  0  0  0  0  0  0  0  0  0  0
   12.7867  -18.5973   19.2149 C   0  0  1  0  0  0  0  0  0  0  0  0
   13.0812  -17.2497   19.0094 O   0  0  0  0  0  0  0  0  0  0  0  0
   13.4048  -18.9883   20.5378 C   0  0  2  0  0  0  0  0  0  0  0  0
   12.9329  -18.1561   21.6240 N   0  0  0  0  0  0  0  0  0  0  0  0
   14.8750  -19.0515   20.4743 C   0  0  0  0  0  0  0  0  0  0  0  0
   15.4942  -19.8733   19.5665 O   0  0  0  0  0  0  0  0  0  0  0  0
   15.5564  -18.3552   21.2490 O   0  0  0  0  0  0  0  0  0  0  0  0
  2  1  1  1
  2  3  1  0
  3  4  1  0
  4  5  2  0
  6  5  1  0
  7  6  1  0
  8  7  2  0
  9  8  1  0
 10  9  2  0
 10 11  1  0
 11 12  2  0
 12  7  1  0
 12  4  1  0
 13  2  1  0
 13 14  2  0
 15 16  1  0
 16 26  2  0
 16 17  1  0
 17 18  2  0
 18 19  1  0
 19 20  1  0
 21 20  1  1
 22 21  1  0
 22 13  1  0
 23 21  1  0
 24 23  2  0
 25 19  2  0
 26 25  1  0
 28 27  1  1
 28 30  1  0
 29 28  1  0
 30 32  1  0
 30 31  1  1
 31 23  1  0
 32 33  1  0
 34 32  2  0
M  END
$$$$
