WYT.pdb
     RDKit          3D

 34 36  0  0  1  0  0  0  0  0999 V2000
    5.5998  -17.1816   24.3460 N   0  0  0  0  0  0  0  0  0  0  0  0
    6.8671  -16.9418   23.6856 C   0  0  1  0  0  0  0  0  0  0  0  0
    7.8629  -16.3344   24.6508 C   0  0  0  0  0  0  0  0  0  0  0  0
    7.2039  -15.3795   25.5781 C   0  0  0  0  0  0  0  0  0  0  0  0
    6.2703  -15.6732   26.5733 C   0  0  0  0  0  0  0  0  0  0  0  0
    5.9128  -14.5382   27.1947 N   0  0  0  0  0  0  0  0  0  0  0  0
    6.5657  -13.4871   26.6615 C   0  0  0  0  0  0  0  0  0  0  0  0
    6.5252  -12.1409   26.9668 C   0  0  0  0  0  0  0  0  0  0  0  0
    7.3187  -11.2781   26.2394 C   0  0  0  0  0  0  0  0  0  0  0  0
    8.1239  -11.7790   25.2357 C   0  0  0  0  0  0  0  0  0  0  0  0
    8.1513  -13.1270   24.9449 C   0  0  0  0  0  0  0  0  0  0  0  0
    7.3687  -14.0055   25.6570 C   0  0  0  0  0  0  0  0  0  0  0  0
    7.3940  -18.1590   23.0368 C   0  0  0  0  0  0  0  0  0  0  0  0
    6.9202  -19.2749   23.3935 O   0  0  0  0  0  0  0  0  0  0  0  0
    7.8162  -12.3158   17.0560 O   0  0  0  0  0  0  0  0  0  0  0  0
    7.8317  -13.1880   18.1393 C   0  0  0  0  0  0  0  0  0  0  0  0
    7.7350  -12.7073   19.4286 C   0  0  0  0  0  0  0  0  0  0  0  0
    7.7516  -13.5876   20.5027 C   0  0  0  0  0  0  0  0  0  0  0  0
    7.8632  -14.9555   20.3338 C   0  0  0  0  0  0  0  0  0  0  0  0
    7.8739  -15.8200   21.5139 C   0  0  0  0  0  0  0  0  0  0  0  0
    8.8651  -16.9536   21.4329 C   0  0  2  0  0  0  0  0  0  0  0  0
    8.3923  -18.1589   22.0443 N   0  0  0  0  0  0  0  0  0  0  0  0
   10.1392  -16.4761   22.0338 C   0  0  0  0  0  0  0  0  0  0  0  0
   10.7678  -15.5097   21.5315 O   0  0  0  0  0  0  0  0  0  0  0  0
    7.9589  -15.4315   19.0608 C   0  0  0  0  0  0  0  0  0  0  0  0
    7.9430  -14.5562   17.9787 C   0  0  0  0  0  0  0  0  0  0  0  0
   10.9996  -16.0540   25.9572 C   0  0  0  0  0  0  0  0  0  0  0  0
   12.0208  -16.9352   25.2651 C   0  0  1  0  0  0  0  0  0  0  0  0
   11.5868  -18.2514   25.4200 O   0  0  0  0  0  0  0  0  0  0  0  0
   11.9503  -16.6171   23.7890 C   0  0  2  0  0  0  0  0  0  0  0  0
   10.7128  -17.0748   23.1940 N   0  0  0  0  0  0  0  0  0  0  0  0
   13.1368  -17.0897   23.0552 C   0  0  0  0  0  0  0  0  0  0  0  0
   14.3939  -16.7108   23.4537 O   0  0  0  0  0  0  0  0  0  0  0  0
   12.9955  -17.8362   22.0692 O   0  0  0  0  0  0  0  0  0  0  0  0
  2  1  1  1
  2  3  1  0
  3  4  1  0
  4  5  2  0
  6  5  1  0
  7  6  1  0
  8  7  2  0
  9  8  1  0
 10  9  2  0
 10 11  1  0
 11 12  2  0
 12  7  1  0
 12  4  1  0
 13  2  1  0
 13 14  2  0
 15 16  1  0
 16 26  2  0
 16 17  1  0
 17 18  2  0
 18 19  1  0
 19 20  1  0
 21 20  1  1
 22 21  1  0
 22 13  1  0
 23 21  1  0
 24 23  2  0
 25 19  2  0
 26 25  1  0
 28 27  1  1
 28 30  1  0
 29 28  1  0
 30 32  1  0
 30 31  1  6
 31 23  1  0
 32 33  1  0
 34 32  2  0
M  END
$$$$
