WYT.pdb
     RDKit          3D

 34 36  0  0  1  0  0  0  0  0999 V2000
    6.8946  -19.2139   25.4760 N   0  0  0  0  0  0  0  0  0  0  0  0
    7.0383  -17.7727   25.4342 C   0  0  1  0  0  0  0  0  0  0  0  0
    7.9633  -17.2987   26.5350 C   0  0  0  0  0  0  0  0  0  0  0  0
    7.6570  -15.9013   26.9346 C   0  0  0  0  0  0  0  0  0  0  0  0
    6.4572  -15.2120   26.7512 C   0  0  0  0  0  0  0  0  0  0  0  0
    6.5785  -13.9708   27.2482 N   0  0  0  0  0  0  0  0  0  0  0  0
    7.8114  -13.7905   27.7609 C   0  0  0  0  0  0  0  0  0  0  0  0
    8.3918  -12.6960   28.3711 C   0  0  0  0  0  0  0  0  0  0  0  0
    9.6968  -12.8015   28.8060 C   0  0  0  0  0  0  0  0  0  0  0  0
   10.3804  -13.9869   28.6212 C   0  0  0  0  0  0  0  0  0  0  0  0
    9.7842  -15.0699   28.0095 C   0  0  0  0  0  0  0  0  0  0  0  0
    8.4843  -14.9874   27.5681 C   0  0  0  0  0  0  0  0  0  0  0  0
    7.4678  -17.2960   24.1043 C   0  0  0  0  0  0  0  0  0  0  0  0
    8.2105  -18.0503   23.4141 O   0  0  0  0  0  0  0  0  0  0  0  0
    8.5263  -12.7148   16.6348 O   0  0  0  0  0  0  0  0  0  0  0  0
    8.1844  -13.0744   17.9342 C   0  0  0  0  0  0  0  0  0  0  0  0
    7.3842  -14.1728   18.1708 C   0  0  0  0  0  0  0  0  0  0  0  0
    7.0492  -14.5224   19.4725 C   0  0  0  0  0  0  0  0  0  0  0  0
    7.4919  -13.8024   20.5669 C   0  0  0  0  0  0  0  0  0  0  0  0
    7.0970  -14.2317   21.9085 C   0  0  0  0  0  0  0  0  0  0  0  0
    7.5755  -15.6143   22.2740 C   0  0  2  0  0  0  0  0  0  0  0  0
    7.1037  -16.0531   23.5526 N   0  0  0  0  0  0  0  0  0  0  0  0
    9.0606  -15.6093   22.1900 C   0  0  0  0  0  0  0  0  0  0  0  0
    9.7542  -15.0128   23.0529 O   0  0  0  0  0  0  0  0  0  0  0  0
    8.2823  -12.7173   20.3345 C   0  0  0  0  0  0  0  0  0  0  0  0
    8.6228  -12.3600   19.0331 C   0  0  0  0  0  0  0  0  0  0  0  0
   11.5043  -18.3656   22.4035 C   0  0  0  0  0  0  0  0  0  0  0  0
   11.7179  -17.7597   21.0304 C   0  0  1  0  0  0  0  0  0  0  0  0
   10.8802  -18.4473   20.1527 O   0  0  0  0  0  0  0  0  0  0  0  0
   11.2178  -16.3346   21.0940 C   0  0  2  0  0  0  0  0  0  0  0  0
    9.7728  -16.2687   21.1453 N   0  0  0  0  0  0  0  0  0  0  0  0
   11.7826  -15.4927   20.0255 C   0  0  0  0  0  0  0  0  0  0  0  0
   13.1370  -15.2859   19.9497 O   0  0  0  0  0  0  0  0  0  0  0  0
   11.0255  -14.9676   19.1887 O   0  0  0  0  0  0  0  0  0  0  0  0
  2  1  1  6
  2  3  1  0
  3  4  1  0
  4  5  2  0
  6  5  1  0
  7  6  1  0
  8  7  2  0
  9  8  1  0
 10  9  2  0
 10 11  1  0
 11 12  2  0
 12  7  1  0
 12  4  1  0
 13  2  1  0
 13 14  2  0
 15 16  1  0
 16 26  2  0
 16 17  1  0
 17 18  2  0
 18 19  1  0
 19 20  1  0
 21 20  1  1
 22 21  1  0
 22 13  1  0
 23 21  1  0
 24 23  2  0
 25 19  2  0
 26 25  1  0
 28 27  1  1
 28 30  1  0
 29 28  1  0
 30 32  1  0
 30 31  1  6
 31 23  1  0
 32 33  1  0
 34 32  2  0
M  END
$$$$
