WYT.pdb
     RDKit          3D

 34 36  0  0  1  0  0  0  0  0999 V2000
    9.9932  -17.6130   18.8027 N   0  0  0  0  0  0  0  0  0  0  0  0
   10.4685  -16.5143   19.6191 C   0  0  1  0  0  0  0  0  0  0  0  0
    9.7167  -16.4641   20.9323 C   0  0  0  0  0  0  0  0  0  0  0  0
    8.3656  -15.8716   20.7597 C   0  0  0  0  0  0  0  0  0  0  0  0
    7.1410  -16.4370   21.1190 C   0  0  0  0  0  0  0  0  0  0  0  0
    6.1504  -15.5895   20.7984 N   0  0  0  0  0  0  0  0  0  0  0  0
    6.6533  -14.4729   20.2366 C   0  0  0  0  0  0  0  0  0  0  0  0
    6.0316  -13.3384   19.7534 C   0  0  0  0  0  0  0  0  0  0  0  0
    6.8159  -12.3348   19.2231 C   0  0  0  0  0  0  0  0  0  0  0  0
    8.1874  -12.4905   19.1903 C   0  0  0  0  0  0  0  0  0  0  0  0
    8.7909  -13.6310   19.6776 C   0  0  0  0  0  0  0  0  0  0  0  0
    8.0290  -14.6443   20.2107 C   0  0  0  0  0  0  0  0  0  0  0  0
   11.9308  -16.5626   19.8179 C   0  0  0  0  0  0  0  0  0  0  0  0
   12.5028  -17.6873   19.7504 O   0  0  0  0  0  0  0  0  0  0  0  0
   20.4995  -14.6404   19.9455 O   0  0  0  0  0  0  0  0  0  0  0  0
   19.1150  -14.5270   20.0141 C   0  0  0  0  0  0  0  0  0  0  0  0
   18.3300  -14.8457   18.9256 C   0  0  0  0  0  0  0  0  0  0  0  0
   16.9484  -14.7287   19.0055 C   0  0  0  0  0  0  0  0  0  0  0  0
   16.3099  -14.2970   20.1537 C   0  0  0  0  0  0  0  0  0  0  0  0
   14.8503  -14.1988   20.1624 C   0  0  0  0  0  0  0  0  0  0  0  0
   14.1483  -15.5291   20.2701 C   0  0  2  0  0  0  0  0  0  0  0  0
   12.7325  -15.4351   20.0785 N   0  0  0  0  0  0  0  0  0  0  0  0
   14.5030  -16.1153   21.5903 C   0  0  0  0  0  0  0  0  0  0  0  0
   14.0001  -15.6668   22.6521 O   0  0  0  0  0  0  0  0  0  0  0  0
   17.0841  -13.9818   21.2295 C   0  0  0  0  0  0  0  0  0  0  0  0
   18.4694  -14.0964   21.1578 C   0  0  0  0  0  0  0  0  0  0  0  0
   13.9395  -19.3599   23.1142 C   0  0  0  0  0  0  0  0  0  0  0  0
   15.4508  -19.2444   23.0851 C   0  0  1  0  0  0  0  0  0  0  0  0
   15.8750  -19.8205   21.8880 O   0  0  0  0  0  0  0  0  0  0  0  0
   15.7797  -17.7710   23.0079 C   0  0  2  0  0  0  0  0  0  0  0  0
   15.4174  -17.2008   21.7278 N   0  0  0  0  0  0  0  0  0  0  0  0
   17.1774  -17.4873   23.3757 C   0  0  0  0  0  0  0  0  0  0  0  0
   17.6405  -17.7990   24.6291 O   0  0  0  0  0  0  0  0  0  0  0  0
   17.9399  -16.9621   22.5437 O   0  0  0  0  0  0  0  0  0  0  0  0
  2  1  1  1
  2  3  1  0
  3  4  1  0
  4  5  2  0
  6  5  1  0
  7  6  1  0
  8  7  2  0
  9  8  1  0
 10  9  2  0
 10 11  1  0
 11 12  2  0
 12  7  1  0
 12  4  1  0
 13  2  1  0
 13 14  2  0
 15 16  1  0
 16 26  2  0
 16 17  1  0
 17 18  2  0
 18 19  1  0
 19 20  1  0
 21 20  1  1
 22 21  1  0
 22 13  1  0
 23 21  1  0
 24 23  2  0
 25 19  2  0
 26 25  1  0
 28 27  1  6
 28 30  1  0
 29 28  1  0
 30 32  1  0
 30 31  1  6
 31 23  1  0
 32 33  1  0
 34 32  2  0
M  END
$$$$
