WYT.pdb
     RDKit          3D

 34 36  0  0  1  0  0  0  0  0999 V2000
    6.5499  -18.2201   26.0466 N   0  0  0  0  0  0  0  0  0  0  0  0
    7.0751  -16.9042   25.7434 C   0  0  1  0  0  0  0  0  0  0  0  0
    8.3412  -16.6427   26.5313 C   0  0  0  0  0  0  0  0  0  0  0  0
    8.2017  -15.4438   27.3969 C   0  0  0  0  0  0  0  0  0  0  0  0
    8.6402  -15.2945   28.7136 C   0  0  0  0  0  0  0  0  0  0  0  0
    8.3256  -14.0641   29.1488 N   0  0  0  0  0  0  0  0  0  0  0  0
    7.6918  -13.3732   28.1811 C   0  0  0  0  0  0  0  0  0  0  0  0
    7.1855  -12.0885   28.1632 C   0  0  0  0  0  0  0  0  0  0  0  0
    6.5760  -11.6386   27.0103 C   0  0  0  0  0  0  0  0  0  0  0  0
    6.4896  -12.4767   25.9163 C   0  0  0  0  0  0  0  0  0  0  0  0
    7.0012  -13.7572   25.9526 C   0  0  0  0  0  0  0  0  0  0  0  0
    7.6130  -14.2268   27.0913 C   0  0  0  0  0  0  0  0  0  0  0  0
    7.2723  -16.7057   24.2936 C   0  0  0  0  0  0  0  0  0  0  0  0
    7.4405  -17.7289   23.5714 O   0  0  0  0  0  0  0  0  0  0  0  0
    8.4317  -13.3978   16.2040 O   0  0  0  0  0  0  0  0  0  0  0  0
    8.1662  -13.5169   17.5641 C   0  0  0  0  0  0  0  0  0  0  0  0
    7.1759  -14.3650   18.0141 C   0  0  0  0  0  0  0  0  0  0  0  0
    6.9195  -14.4759   19.3746 C   0  0  0  0  0  0  0  0  0  0  0  0
    7.6288  -13.7578   20.3199 C   0  0  0  0  0  0  0  0  0  0  0  0
    7.3015  -13.9271   21.7356 C   0  0  0  0  0  0  0  0  0  0  0  0
    7.6542  -15.2857   22.2868 C   0  0  2  0  0  0  0  0  0  0  0  0
    7.2854  -15.4483   23.6607 N   0  0  0  0  0  0  0  0  0  0  0  0
    9.1099  -15.4938   22.0631 C   0  0  0  0  0  0  0  0  0  0  0  0
    9.9635  -14.8389   22.7142 O   0  0  0  0  0  0  0  0  0  0  0  0
    8.6073  -12.9197   19.8766 C   0  0  0  0  0  0  0  0  0  0  0  0
    8.8706  -12.8027   18.5149 C   0  0  0  0  0  0  0  0  0  0  0  0
   11.2288  -18.7547   22.1730 C   0  0  0  0  0  0  0  0  0  0  0  0
   11.3336  -18.1511   20.7863 C   0  0  1  0  0  0  0  0  0  0  0  0
   10.3082  -18.7117   20.0252 O   0  0  0  0  0  0  0  0  0  0  0  0
   11.0282  -16.6769   20.9222 C   0  0  2  0  0  0  0  0  0  0  0  0
    9.6148  -16.4313   21.1145 N   0  0  0  0  0  0  0  0  0  0  0  0
   11.5930  -15.8819   19.8184 C   0  0  0  0  0  0  0  0  0  0  0  0
   12.9522  -15.7981   19.6502 O   0  0  0  0  0  0  0  0  0  0  0  0
   10.8314  -15.2844   19.0359 O   0  0  0  0  0  0  0  0  0  0  0  0
  2  1  1  6
  2  3  1  0
  3  4  1  0
  4  5  2  0
  6  5  1  0
  7  6  1  0
  8  7  2  0
  9  8  1  0
 10  9  2  0
 10 11  1  0
 11 12  2  0
 12  7  1  0
 12  4  1  0
 13  2  1  0
 13 14  2  0
 15 16  1  0
 16 26  2  0
 16 17  1  0
 17 18  2  0
 18 19  1  0
 19 20  1  0
 21 20  1  1
 22 21  1  0
 22 13  1  0
 23 21  1  0
 24 23  2  0
 25 19  2  0
 26 25  1  0
 28 27  1  1
 28 30  1  0
 29 28  1  0
 30 32  1  0
 30 31  1  6
 31 23  1  0
 32 33  1  0
 34 32  2  0
M  END
$$$$
