WYT.pdb
     RDKit          3D

 34 36  0  0  1  0  0  0  0  0999 V2000
    6.8831  -17.0663   26.3198 N   0  0  0  0  0  0  0  0  0  0  0  0
    7.9865  -16.4356   25.6239 C   0  0  1  0  0  0  0  0  0  0  0  0
    8.4765  -15.2257   26.3909 C   0  0  0  0  0  0  0  0  0  0  0  0
    7.4775  -14.1269   26.3636 C   0  0  0  0  0  0  0  0  0  0  0  0
    6.3786  -13.9605   27.2081 C   0  0  0  0  0  0  0  0  0  0  0  0
    5.7183  -12.8441   26.8616 N   0  0  0  0  0  0  0  0  0  0  0  0
    6.3244  -12.2471   25.8169 C   0  0  0  0  0  0  0  0  0  0  0  0
    6.0157  -11.0930   25.1241 C   0  0  0  0  0  0  0  0  0  0  0  0
    6.8319  -10.7169   24.0773 C   0  0  0  0  0  0  0  0  0  0  0  0
    7.9245  -11.4969   23.7540 C   0  0  0  0  0  0  0  0  0  0  0  0
    8.2173  -12.6467   24.4574 C   0  0  0  0  0  0  0  0  0  0  0  0
    7.4176  -13.0408   25.5046 C   0  0  0  0  0  0  0  0  0  0  0  0
    9.0767  -17.3880   25.3336 C   0  0  0  0  0  0  0  0  0  0  0  0
    9.9308  -17.6074   26.2387 O   0  0  0  0  0  0  0  0  0  0  0  0
    8.2112  -21.8597   29.1211 O   0  0  0  0  0  0  0  0  0  0  0  0
    8.6846  -21.4947   27.8653 C   0  0  0  0  0  0  0  0  0  0  0  0
    7.8076  -21.2419   26.8310 C   0  0  0  0  0  0  0  0  0  0  0  0
    8.2916  -20.8781   25.5812 C   0  0  0  0  0  0  0  0  0  0  0  0
    9.6442  -20.7550   25.3211 C   0  0  0  0  0  0  0  0  0  0  0  0
   10.0787  -20.3678   23.9789 C   0  0  0  0  0  0  0  0  0  0  0  0
   10.3644  -18.8947   23.8296 C   0  0  2  0  0  0  0  0  0  0  0  0
    9.2284  -18.0700   24.1114 N   0  0  0  0  0  0  0  0  0  0  0  0
   10.8933  -18.6796   22.4561 C   0  0  0  0  0  0  0  0  0  0  0  0
   10.4507  -19.3415   21.4828 O   0  0  0  0  0  0  0  0  0  0  0  0
   10.5114  -21.0044   26.3418 C   0  0  0  0  0  0  0  0  0  0  0  0
   10.0347  -21.3695   27.5975 C   0  0  0  0  0  0  0  0  0  0  0  0
   10.5299  -16.2321   20.2314 C   0  0  0  0  0  0  0  0  0  0  0  0
   12.0456  -16.2503   20.2122 C   0  0  1  0  0  0  0  0  0  0  0  0
   12.4707  -15.2242   21.0556 O   0  0  0  0  0  0  0  0  0  0  0  0
   12.4797  -17.5522   20.8459 C   0  0  2  0  0  0  0  0  0  0  0  0
   11.9145  -17.7273   22.1669 N   0  0  0  0  0  0  0  0  0  0  0  0
   13.9426  -17.7237   20.8318 C   0  0  0  0  0  0  0  0  0  0  0  0
   14.6346  -17.6713   19.6481 O   0  0  0  0  0  0  0  0  0  0  0  0
   14.5513  -17.9170   21.9002 O   0  0  0  0  0  0  0  0  0  0  0  0
  2  1  1  1
  2  3  1  0
  3  4  1  0
  4  5  2  0
  6  5  1  0
  7  6  1  0
  8  7  2  0
  9  8  1  0
 10  9  2  0
 10 11  1  0
 11 12  2  0
 12  7  1  0
 12  4  1  0
 13  2  1  0
 13 14  2  0
 15 16  1  0
 16 26  2  0
 16 17  1  0
 17 18  2  0
 18 19  1  0
 19 20  1  0
 21 20  1  6
 22 21  1  0
 22 13  1  0
 23 21  1  0
 24 23  2  0
 25 19  2  0
 26 25  1  0
 28 27  1  1
 28 30  1  0
 29 28  1  0
 30 32  1  0
 30 31  1  1
 31 23  1  0
 32 33  1  0
 34 32  2  0
M  END
$$$$
