WYT.pdb
     RDKit          3D

 34 36  0  0  1  0  0  0  0  0999 V2000
    5.6107  -17.9358   23.5916 N   0  0  0  0  0  0  0  0  0  0  0  0
    6.4816  -16.8230   23.9122 C   0  0  1  0  0  0  0  0  0  0  0  0
    6.7823  -16.7937   25.3958 C   0  0  0  0  0  0  0  0  0  0  0  0
    6.3989  -15.4921   25.9998 C   0  0  0  0  0  0  0  0  0  0  0  0
    5.1190  -15.0732   26.3668 C   0  0  0  0  0  0  0  0  0  0  0  0
    5.1875  -13.8333   26.8768 N   0  0  0  0  0  0  0  0  0  0  0  0
    6.4614  -13.3944   26.8705 C   0  0  0  0  0  0  0  0  0  0  0  0
    7.0143  -12.2002   27.2892 C   0  0  0  0  0  0  0  0  0  0  0  0
    8.3766  -12.0256   27.1592 C   0  0  0  0  0  0  0  0  0  0  0  0
    9.1427  -13.0395   26.6193 C   0  0  0  0  0  0  0  0  0  0  0  0
    8.5729  -14.2259   26.2064 C   0  0  0  0  0  0  0  0  0  0  0  0
    7.2170  -14.4219   26.3265 C   0  0  0  0  0  0  0  0  0  0  0  0
    7.7120  -16.8280   23.0962 C   0  0  0  0  0  0  0  0  0  0  0  0
    8.1650  -17.9431   22.7110 O   0  0  0  0  0  0  0  0  0  0  0  0
    6.6599  -13.7842   16.5786 O   0  0  0  0  0  0  0  0  0  0  0  0
    7.4471  -13.9294   17.7161 C   0  0  0  0  0  0  0  0  0  0  0  0
    8.2319  -15.0506   17.8880 C   0  0  0  0  0  0  0  0  0  0  0  0
    9.0139  -15.1848   19.0278 C   0  0  0  0  0  0  0  0  0  0  0  0
    9.0417  -14.2229   20.0209 C   0  0  0  0  0  0  0  0  0  0  0  0
    9.8904  -14.4346   21.1935 C   0  0  0  0  0  0  0  0  0  0  0  0
    9.6094  -15.7214   21.9278 C   0  0  2  0  0  0  0  0  0  0  0  0
    8.4163  -15.6693   22.7176 N   0  0  0  0  0  0  0  0  0  0  0  0
   10.8128  -16.0432   22.7407 C   0  0  0  0  0  0  0  0  0  0  0  0
   11.1855  -15.2838   23.6712 O   0  0  0  0  0  0  0  0  0  0  0  0
    8.2669  -13.1150   19.8523 C   0  0  0  0  0  0  0  0  0  0  0  0
    7.4803  -12.9726   18.7129 C   0  0  0  0  0  0  0  0  0  0  0  0
   11.9666  -18.7456   25.0820 C   0  0  0  0  0  0  0  0  0  0  0  0
   12.8623  -18.8294   23.8618 C   0  0  1  0  0  0  0  0  0  0  0  0
   12.2511  -19.7148   22.9744 O   0  0  0  0  0  0  0  0  0  0  0  0
   12.8466  -17.4666   23.2080 C   0  0  2  0  0  0  0  0  0  0  0  0
   11.6006  -17.2107   22.5174 N   0  0  0  0  0  0  0  0  0  0  0  0
   14.0226  -17.2412   22.3503 C   0  0  0  0  0  0  0  0  0  0  0  0
   15.2872  -17.2991   22.8798 O   0  0  0  0  0  0  0  0  0  0  0  0
   13.8657  -16.9973   21.1399 O   0  0  0  0  0  0  0  0  0  0  0  0
  2  1  1  1
  2  3  1  0
  3  4  1  0
  4  5  2  0
  6  5  1  0
  7  6  1  0
  8  7  2  0
  9  8  1  0
 10  9  2  0
 10 11  1  0
 11 12  2  0
 12  7  1  0
 12  4  1  0
 13  2  1  0
 13 14  2  0
 15 16  1  0
 16 26  2  0
 16 17  1  0
 17 18  2  0
 18 19  1  0
 19 20  1  0
 21 20  1  1
 22 21  1  0
 22 13  1  0
 23 21  1  0
 24 23  2  0
 25 19  2  0
 26 25  1  0
 28 27  1  1
 28 30  1  0
 29 28  1  0
 30 32  1  0
 30 31  1  6
 31 23  1  0
 32 33  1  0
 34 32  2  0
M  END
$$$$
