EQW.pdb
     RDKit          3D

 33 34  0  0  1  0  0  0  0  0999 V2000
   27.3278  -24.0554  -17.7570 N   0  0  0  0  0  0  0  0  0  0  0  0
   27.0057  -23.3661  -16.5580 C   0  0  1  0  0  0  0  0  0  0  0  0
   27.2126  -21.8899  -16.5549 C   0  0  0  0  0  0  0  0  0  0  0  0
   28.1117  -21.3443  -17.6031 C   0  0  0  0  0  0  0  0  0  0  0  0
   28.3397  -19.9046  -17.6063 C   0  0  0  0  0  0  0  0  0  0  0  0
   29.0746  -19.3370  -16.7832 O   0  0  0  0  0  0  0  0  0  0  0  0
   25.5439  -23.5850  -16.2277 C   0  0  0  0  0  0  0  0  0  0  0  0
   24.7082  -23.5026  -17.1395 O   0  0  0  0  0  0  0  0  0  0  0  0
   27.7085  -19.1064  -18.5738 O   0  0  0  0  0  0  0  0  0  0  0  0
   21.3794  -27.2142  -13.4502 N   0  0  0  0  0  0  0  0  0  0  0  0
   22.1500  -27.3362  -14.6663 C   0  0  0  0  0  0  0  0  0  0  0  0
   21.7870  -28.1902  -15.4849 O   0  0  0  0  0  0  0  0  0  0  0  0
   23.3028  -26.4730  -14.8950 C   0  0  0  0  0  0  0  0  0  0  0  0
   23.5972  -25.4683  -13.8469 C   0  0  0  0  0  0  0  0  0  0  0  0
   23.8485  -24.0785  -14.4124 C   0  0  2  0  0  0  0  0  0  0  0  0
   25.1859  -23.8769  -14.8891 N   0  0  0  0  0  0  0  0  0  0  0  0
   23.3523  -23.0151  -13.5400 C   0  0  0  0  0  0  0  0  0  0  0  0
   22.1028  -22.9518  -13.2601 O   0  0  0  0  0  0  0  0  0  0  0  0
   24.1491  -22.0092  -12.9514 N   0  0  0  0  0  0  0  0  0  0  0  0
   23.6386  -20.9487  -12.0908 C   0  0  1  0  0  0  0  0  0  0  0  0
   24.6259  -20.5588  -11.0545 C   0  0  0  0  0  0  0  0  0  0  0  0
   25.9856  -20.4130  -11.6005 C   0  0  0  0  0  0  0  0  0  0  0  0
   26.3292  -19.9779  -12.8889 C   0  0  0  0  0  0  0  0  0  0  0  0
   27.6624  -20.0090  -13.0384 N   0  0  0  0  0  0  0  0  0  0  0  0
   28.2378  -20.4449  -11.9079 C   0  0  0  0  0  0  0  0  0  0  0  0
   29.5788  -20.6306  -11.5699 C   0  0  0  0  0  0  0  0  0  0  0  0
   29.8500  -21.0763  -10.3029 C   0  0  0  0  0  0  0  0  0  0  0  0
   28.8421  -21.3415   -9.3686 C   0  0  0  0  0  0  0  0  0  0  0  0
   27.5490  -21.1441   -9.7510 C   0  0  0  0  0  0  0  0  0  0  0  0
   27.2129  -20.6966  -11.0157 C   0  0  0  0  0  0  0  0  0  0  0  0
   23.0066  -19.8735  -12.8117 C   0  0  0  0  0  0  0  0  0  0  0  0
   23.0292  -19.7188  -14.2016 O   0  0  0  0  0  0  0  0  0  0  0  0
   22.3594  -18.9453  -12.2067 O   0  0  0  0  0  0  0  0  0  0  0  0
  2  3  1  0
  2  1  1  6
  3  4  1  0
  4  5  1  0
  5  9  1  0
  6  5  2  0
  7  8  2  0
  7  2  1  0
 10 11  1  0
 11 13  1  0
 12 11  2  0
 13 14  1  0
 15 14  1  1
 15 16  1  0
 16  7  1  0
 17 15  1  0
 17 19  1  0
 18 17  2  0
 20 19  1  0
 20 31  1  0
 20 21  1  6
 22 21  1  0
 23 22  2  0
 24 25  1  0
 24 23  1  0
 25 30  2  0
 26 25  1  0
 26 27  2  0
 27 28  1  0
 28 29  2  0
 30 22  1  0
 30 29  1  0
 31 32  1  0
 33 31  2  0
M  END
$$$$
