EQW.pdb
     RDKit          3D

 33 34  0  0  1  0  0  0  0  0999 V2000
   27.0861  -19.5393  -16.6126 N   0  0  0  0  0  0  0  0  0  0  0  0
   26.0122  -18.8030  -16.0458 C   0  0  1  0  0  0  0  0  0  0  0  0
   25.0072  -18.2427  -16.9934 C   0  0  0  0  0  0  0  0  0  0  0  0
   25.3901  -18.2181  -18.4278 C   0  0  0  0  0  0  0  0  0  0  0  0
   26.3852  -17.2351  -18.8381 C   0  0  0  0  0  0  0  0  0  0  0  0
   27.4349  -17.5431  -19.4239 O   0  0  0  0  0  0  0  0  0  0  0  0
   25.2399  -19.6910  -15.0925 C   0  0  0  0  0  0  0  0  0  0  0  0
   24.0090  -19.5623  -15.0232 O   0  0  0  0  0  0  0  0  0  0  0  0
   26.1667  -15.8748  -18.5669 O   0  0  0  0  0  0  0  0  0  0  0  0
   25.6430  -25.7685  -14.7687 N   0  0  0  0  0  0  0  0  0  0  0  0
   25.1981  -24.7429  -15.6840 C   0  0  0  0  0  0  0  0  0  0  0  0
   24.8806  -25.1001  -16.8255 O   0  0  0  0  0  0  0  0  0  0  0  0
   25.1331  -23.3515  -15.2529 C   0  0  0  0  0  0  0  0  0  0  0  0
   25.6291  -23.0561  -13.8885 C   0  0  0  0  0  0  0  0  0  0  0  0
   25.3611  -21.6218  -13.4583 C   0  0  2  0  0  0  0  0  0  0  0  0
   25.9529  -20.6364  -14.3159 N   0  0  0  0  0  0  0  0  0  0  0  0
   25.6036  -21.4046  -12.0327 C   0  0  0  0  0  0  0  0  0  0  0  0
   26.7811  -21.5714  -11.5542 O   0  0  0  0  0  0  0  0  0  0  0  0
   24.6256  -21.0127  -11.0930 N   0  0  0  0  0  0  0  0  0  0  0  0
   24.8533  -20.9135   -9.6562 C   0  0  1  0  0  0  0  0  0  0  0  0
   26.1751  -20.3140   -9.3493 C   0  0  0  0  0  0  0  0  0  0  0  0
   26.3904  -20.1389   -7.9032 C   0  0  0  0  0  0  0  0  0  0  0  0
   25.4085  -20.1550   -6.9017 C   0  0  0  0  0  0  0  0  0  0  0  0
   25.9744  -19.9245   -5.7070 N   0  0  0  0  0  0  0  0  0  0  0  0
   27.2966  -19.7540   -5.8542 C   0  0  0  0  0  0  0  0  0  0  0  0
   28.3032  -19.5105   -4.9190 C   0  0  0  0  0  0  0  0  0  0  0  0
   29.5852  -19.4049   -5.3910 C   0  0  0  0  0  0  0  0  0  0  0  0
   29.8980  -19.5319   -6.7492 C   0  0  0  0  0  0  0  0  0  0  0  0
   28.8768  -19.7685   -7.6202 C   0  0  0  0  0  0  0  0  0  0  0  0
   27.5629  -19.8842   -7.2040 C   0  0  0  0  0  0  0  0  0  0  0  0
   23.7264  -20.3898   -8.9274 C   0  0  0  0  0  0  0  0  0  0  0  0
   23.2873  -20.8599   -7.6854 O   0  0  0  0  0  0  0  0  0  0  0  0
   23.0172  -19.4237   -9.3857 O   0  0  0  0  0  0  0  0  0  0  0  0
  2  3  1  0
  2  1  1  6
  3  4  1  0
  4  5  1  0
  5  9  1  0
  6  5  2  0
  7  8  2  0
  7  2  1  0
 10 11  1  0
 11 13  1  0
 12 11  2  0
 13 14  1  0
 15 14  1  6
 15 16  1  0
 16  7  1  0
 17 15  1  0
 17 19  1  0
 18 17  2  0
 20 19  1  0
 20 31  1  0
 20 21  1  6
 22 21  1  0
 23 22  2  0
 24 25  1  0
 24 23  1  0
 25 30  2  0
 26 25  1  0
 26 27  2  0
 27 28  1  0
 28 29  2  0
 30 22  1  0
 30 29  1  0
 31 32  1  0
 33 31  2  0
M  END
$$$$
