EQW.pdb
     RDKit          3D

 33 34  0  0  1  0  0  0  0  0999 V2000
   27.7192  -22.5744  -16.2480 N   0  0  0  0  0  0  0  0  0  0  0  0
   28.9309  -21.8359  -16.2999 C   0  0  1  0  0  0  0  0  0  0  0  0
   29.3730  -21.3631  -17.6427 C   0  0  0  0  0  0  0  0  0  0  0  0
   29.4959  -22.3964  -18.7020 C   0  0  0  0  0  0  0  0  0  0  0  0
   30.6973  -22.3695  -19.5270 C   0  0  0  0  0  0  0  0  0  0  0  0
   30.8310  -21.6083  -20.4979 O   0  0  0  0  0  0  0  0  0  0  0  0
   28.8026  -20.5955  -15.4403 C   0  0  0  0  0  0  0  0  0  0  0  0
   29.4832  -19.5997  -15.7258 O   0  0  0  0  0  0  0  0  0  0  0  0
   31.7613  -23.2356  -19.2282 O   0  0  0  0  0  0  0  0  0  0  0  0
   25.1149  -16.4041  -15.1447 N   0  0  0  0  0  0  0  0  0  0  0  0
   26.2775  -16.7097  -15.9463 C   0  0  0  0  0  0  0  0  0  0  0  0
   26.7809  -15.7822  -16.5926 O   0  0  0  0  0  0  0  0  0  0  0  0
   26.8163  -18.0644  -15.9723 C   0  0  0  0  0  0  0  0  0  0  0  0
   26.1397  -19.0637  -15.1130 C   0  0  0  0  0  0  0  0  0  0  0  0
   27.0185  -19.5571  -13.9735 C   0  0  2  0  0  0  0  0  0  0  0  0
   27.9086  -20.6192  -14.3423 N   0  0  0  0  0  0  0  0  0  0  0  0
   26.2655  -19.8007  -12.7438 C   0  0  0  0  0  0  0  0  0  0  0  0
   25.8423  -18.8099  -12.0491 O   0  0  0  0  0  0  0  0  0  0  0  0
   25.9462  -21.0746  -12.2258 N   0  0  0  0  0  0  0  0  0  0  0  0
   25.8001  -21.3767  -10.8069 C   0  0  1  0  0  0  0  0  0  0  0  0
   27.0598  -21.1363  -10.0612 C   0  0  0  0  0  0  0  0  0  0  0  0
   26.8241  -20.5244   -8.7428 C   0  0  0  0  0  0  0  0  0  0  0  0
   25.6062  -20.0289   -8.2545 C   0  0  0  0  0  0  0  0  0  0  0  0
   25.7846  -19.5123   -7.0289 N   0  0  0  0  0  0  0  0  0  0  0  0
   27.0694  -19.6366   -6.6645 C   0  0  0  0  0  0  0  0  0  0  0  0
   27.7331  -19.2729   -5.4922 C   0  0  0  0  0  0  0  0  0  0  0  0
   29.0707  -19.5598   -5.4143 C   0  0  0  0  0  0  0  0  0  0  0  0
   29.7650  -20.1903   -6.4531 C   0  0  0  0  0  0  0  0  0  0  0  0
   29.0689  -20.5234   -7.5765 C   0  0  0  0  0  0  0  0  0  0  0  0
   27.7183  -20.2591   -7.7139 C   0  0  0  0  0  0  0  0  0  0  0  0
   24.5967  -20.8417  -10.2231 C   0  0  0  0  0  0  0  0  0  0  0  0
   23.6621  -20.0500  -10.8984 O   0  0  0  0  0  0  0  0  0  0  0  0
   24.2891  -21.0574   -8.9962 O   0  0  0  0  0  0  0  0  0  0  0  0
  2  3  1  0
  2  1  1  6
  3  4  1  0
  4  5  1  0
  5  9  1  0
  6  5  2  0
  7  8  2  0
  7  2  1  0
 10 11  1  0
 11 13  1  0
 12 11  2  0
 13 14  1  0
 15 14  1  6
 15 16  1  0
 16  7  1  0
 17 15  1  0
 17 19  1  0
 18 17  2  0
 20 19  1  0
 20 31  1  0
 20 21  1  1
 22 21  1  0
 23 22  2  0
 24 25  1  0
 24 23  1  0
 25 30  2  0
 26 25  1  0
 26 27  2  0
 27 28  1  0
 28 29  2  0
 30 22  1  0
 30 29  1  0
 31 32  1  0
 33 31  2  0
M  END
$$$$
