EQW.pdb
     RDKit          3D

 33 34  0  0  1  0  0  0  0  0999 V2000
   26.5603  -24.1102  -15.6805 N   0  0  0  0  0  0  0  0  0  0  0  0
   25.4530  -23.5893  -16.4010 C   0  0  1  0  0  0  0  0  0  0  0  0
   24.5582  -24.5788  -17.0660 C   0  0  0  0  0  0  0  0  0  0  0  0
   25.1862  -25.4648  -18.0786 C   0  0  0  0  0  0  0  0  0  0  0  0
   24.6998  -25.3648  -19.4491 C   0  0  0  0  0  0  0  0  0  0  0  0
   23.8187  -24.5621  -19.7944 O   0  0  0  0  0  0  0  0  0  0  0  0
   24.5715  -22.7913  -15.4629 C   0  0  0  0  0  0  0  0  0  0  0  0
   24.4384  -23.1816  -14.2940 O   0  0  0  0  0  0  0  0  0  0  0  0
   25.2375  -26.2052  -20.4371 O   0  0  0  0  0  0  0  0  0  0  0  0
   23.3324  -16.5863  -16.1470 N   0  0  0  0  0  0  0  0  0  0  0  0
   23.7274  -17.5803  -17.1184 C   0  0  0  0  0  0  0  0  0  0  0  0
   24.1247  -17.1733  -18.2174 O   0  0  0  0  0  0  0  0  0  0  0  0
   23.6533  -18.9990  -16.7893 C   0  0  0  0  0  0  0  0  0  0  0  0
   23.1172  -19.3423  -15.4517 C   0  0  0  0  0  0  0  0  0  0  0  0
   22.9711  -20.8415  -15.2389 C   0  0  2  0  0  0  0  0  0  0  0  0
   23.9324  -21.6278  -15.9560 N   0  0  0  0  0  0  0  0  0  0  0  0
   21.5900  -21.3006  -15.3807 C   0  0  0  0  0  0  0  0  0  0  0  0
   21.1386  -21.6138  -16.5390 O   0  0  0  0  0  0  0  0  0  0  0  0
   20.6669  -21.4380  -14.3214 N   0  0  0  0  0  0  0  0  0  0  0  0
   19.2915  -21.8959  -14.4782 C   0  0  1  0  0  0  0  0  0  0  0  0
   19.2226  -23.1941  -15.1929 C   0  0  0  0  0  0  0  0  0  0  0  0
   19.5363  -24.3351  -14.3166 C   0  0  0  0  0  0  0  0  0  0  0  0
   19.1296  -24.5060  -12.9852 C   0  0  0  0  0  0  0  0  0  0  0  0
   19.6375  -25.6486  -12.4981 N   0  0  0  0  0  0  0  0  0  0  0  0
   20.3696  -26.2604  -13.4409 C   0  0  0  0  0  0  0  0  0  0  0  0
   21.0733  -27.4652  -13.4224 C   0  0  0  0  0  0  0  0  0  0  0  0
   21.7155  -27.8338  -14.5752 C   0  0  0  0  0  0  0  0  0  0  0  0
   21.6825  -27.0523  -15.7358 C   0  0  0  0  0  0  0  0  0  0  0  0
   20.9813  -25.8842  -15.6993 C   0  0  0  0  0  0  0  0  0  0  0  0
   20.3135  -25.4588  -14.5653 C   0  0  0  0  0  0  0  0  0  0  0  0
   18.5041  -21.7819  -13.2773 C   0  0  0  0  0  0  0  0  0  0  0  0
   19.0033  -21.4122  -12.0242 O   0  0  0  0  0  0  0  0  0  0  0  0
   17.2443  -22.0257  -13.2716 O   0  0  0  0  0  0  0  0  0  0  0  0
  2  3  1  0
  2  1  1  1
  3  4  1  0
  4  5  1  0
  5  9  1  0
  6  5  2  0
  7  8  2  0
  7  2  1  0
 10 11  1  0
 11 13  1  0
 12 11  2  0
 13 14  1  0
 15 14  1  6
 15 16  1  0
 16  7  1  0
 17 15  1  0
 17 19  1  0
 18 17  2  0
 20 19  1  0
 20 31  1  0
 20 21  1  1
 22 21  1  0
 23 22  2  0
 24 25  1  0
 24 23  1  0
 25 30  2  0
 26 25  1  0
 26 27  2  0
 27 28  1  0
 28 29  2  0
 30 22  1  0
 30 29  1  0
 31 32  1  0
 33 31  2  0
M  END
$$$$
