EQW.pdb
     RDKit          3D

 33 34  0  0  1  0  0  0  0  0999 V2000
   26.8871  -17.8897  -18.4924 N   0  0  0  0  0  0  0  0  0  0  0  0
   25.6960  -17.4667  -17.8452 C   0  0  1  0  0  0  0  0  0  0  0  0
   24.7936  -16.5671  -18.6189 C   0  0  0  0  0  0  0  0  0  0  0  0
   25.0599  -16.4542  -20.0753 C   0  0  0  0  0  0  0  0  0  0  0  0
   26.2403  -15.7027  -20.4836 C   0  0  0  0  0  0  0  0  0  0  0  0
   26.8338  -14.9176  -19.7278 O   0  0  0  0  0  0  0  0  0  0  0  0
   24.8648  -18.6781  -17.4770 C   0  0  0  0  0  0  0  0  0  0  0  0
   24.1056  -19.1613  -18.3294 O   0  0  0  0  0  0  0  0  0  0  0  0
   26.7434  -15.8582  -21.7852 O   0  0  0  0  0  0  0  0  0  0  0  0
   28.8952  -21.5239  -15.8761 N   0  0  0  0  0  0  0  0  0  0  0  0
   27.6401  -21.6450  -15.1707 C   0  0  0  0  0  0  0  0  0  0  0  0
   27.6887  -21.7369  -13.9377 O   0  0  0  0  0  0  0  0  0  0  0  0
   26.3815  -21.6531  -15.9071 C   0  0  0  0  0  0  0  0  0  0  0  0
   25.1474  -21.4497  -15.1132 C   0  0  0  0  0  0  0  0  0  0  0  0
   24.2614  -20.3446  -15.6682 C   0  0  2  0  0  0  0  0  0  0  0  0
   24.9866  -19.2148  -16.1722 N   0  0  0  0  0  0  0  0  0  0  0  0
   23.1573  -20.0021  -14.7727 C   0  0  0  0  0  0  0  0  0  0  0  0
   23.3286  -19.1194  -13.8588 O   0  0  0  0  0  0  0  0  0  0  0  0
   21.8670  -20.5731  -14.8188 N   0  0  0  0  0  0  0  0  0  0  0  0
   20.7309  -20.1125  -14.0295 C   0  0  1  0  0  0  0  0  0  0  0  0
   20.5719  -18.6393  -14.1027 C   0  0  0  0  0  0  0  0  0  0  0  0
   20.1869  -18.1821  -15.4483 C   0  0  0  0  0  0  0  0  0  0  0  0
   19.2253  -18.7632  -16.2878 C   0  0  0  0  0  0  0  0  0  0  0  0
   19.1740  -18.0954  -17.4506 N   0  0  0  0  0  0  0  0  0  0  0  0
   20.0577  -17.0864  -17.4360 C   0  0  0  0  0  0  0  0  0  0  0  0
   20.3600  -16.1136  -18.3896 C   0  0  0  0  0  0  0  0  0  0  0  0
   21.3157  -15.1886  -18.0602 C   0  0  0  0  0  0  0  0  0  0  0  0
   21.9754  -15.1976  -16.8259 C   0  0  0  0  0  0  0  0  0  0  0  0
   21.6426  -16.1703  -15.9311 C   0  0  0  0  0  0  0  0  0  0  0  0
   20.6870  -17.1314  -16.2064 C   0  0  0  0  0  0  0  0  0  0  0  0
   19.5380  -20.8969  -14.2212 C   0  0  0  0  0  0  0  0  0  0  0  0
   18.3987  -20.8332  -13.4123 O   0  0  0  0  0  0  0  0  0  0  0  0
   19.4351  -21.7441  -15.1794 O   0  0  0  0  0  0  0  0  0  0  0  0
  2  3  1  0
  2  1  1  6
  3  4  1  0
  4  5  1  0
  5  9  1  0
  6  5  2  0
  7  8  2  0
  7  2  1  0
 10 11  1  0
 11 13  1  0
 12 11  2  0
 13 14  1  0
 15 14  1  1
 15 16  1  0
 16  7  1  0
 17 15  1  0
 17 19  1  0
 18 17  2  0
 20 19  1  0
 20 31  1  0
 20 21  1  6
 22 21  1  0
 23 22  2  0
 24 25  1  0
 24 23  1  0
 25 30  2  0
 26 25  1  0
 26 27  2  0
 27 28  1  0
 28 29  2  0
 30 22  1  0
 30 29  1  0
 31 32  1  0
 33 31  2  0
M  END
$$$$
