EQW.pdb
     RDKit          3D

 33 34  0  0  1  0  0  0  0  0999 V2000
   23.3820  -17.3462  -14.7757 N   0  0  0  0  0  0  0  0  0  0  0  0
   22.5828  -18.5171  -14.6929 C   0  0  1  0  0  0  0  0  0  0  0  0
   21.9202  -18.9689  -15.9495 C   0  0  0  0  0  0  0  0  0  0  0  0
   21.6754  -17.9291  -16.9807 C   0  0  0  0  0  0  0  0  0  0  0  0
   22.0196  -18.2585  -18.3583 C   0  0  0  0  0  0  0  0  0  0  0  0
   21.9170  -17.4466  -19.2910 O   0  0  0  0  0  0  0  0  0  0  0  0
   23.4367  -19.6785  -14.2285 C   0  0  0  0  0  0  0  0  0  0  0  0
   22.8843  -20.7567  -13.9663 O   0  0  0  0  0  0  0  0  0  0  0  0
   22.4885  -19.5460  -18.6653 O   0  0  0  0  0  0  0  0  0  0  0  0
   29.1595  -21.2204  -16.3629 N   0  0  0  0  0  0  0  0  0  0  0  0
   28.9075  -22.0939  -15.2398 C   0  0  0  0  0  0  0  0  0  0  0  0
   29.6539  -23.0713  -15.1026 O   0  0  0  0  0  0  0  0  0  0  0  0
   27.8128  -21.8098  -14.3195 C   0  0  0  0  0  0  0  0  0  0  0  0
   26.9747  -20.6284  -14.6304 C   0  0  0  0  0  0  0  0  0  0  0  0
   25.7769  -20.4910  -13.7027 C   0  0  2  0  0  0  0  0  0  0  0  0
   24.8353  -19.4898  -14.1118 N   0  0  0  0  0  0  0  0  0  0  0  0
   26.1591  -20.4197  -12.2931 C   0  0  0  0  0  0  0  0  0  0  0  0
   27.3834  -20.5942  -11.9553 O   0  0  0  0  0  0  0  0  0  0  0  0
   25.2734  -20.1667  -11.2232 N   0  0  0  0  0  0  0  0  0  0  0  0
   25.4635  -20.6507   -9.8610 C   0  0  1  0  0  0  0  0  0  0  0  0
   26.1746  -19.6576   -9.0191 C   0  0  0  0  0  0  0  0  0  0  0  0
   27.4635  -20.1648   -8.5195 C   0  0  0  0  0  0  0  0  0  0  0  0
   28.3270  -21.0523   -9.1782 C   0  0  0  0  0  0  0  0  0  0  0  0
   29.3875  -21.3164   -8.3996 N   0  0  0  0  0  0  0  0  0  0  0  0
   29.2816  -20.6462   -7.2426 C   0  0  0  0  0  0  0  0  0  0  0  0
   30.1283  -20.5817   -6.1353 C   0  0  0  0  0  0  0  0  0  0  0  0
   29.7430  -19.7738   -5.0978 C   0  0  0  0  0  0  0  0  0  0  0  0
   28.5549  -19.0344   -5.1233 C   0  0  0  0  0  0  0  0  0  0  0  0
   27.7641  -19.1345   -6.2287 C   0  0  0  0  0  0  0  0  0  0  0  0
   28.0993  -19.9336   -7.3067 C   0  0  0  0  0  0  0  0  0  0  0  0
   24.2837  -21.2484   -9.2901 C   0  0  0  0  0  0  0  0  0  0  0  0
   23.1389  -21.6064  -10.0095 O   0  0  0  0  0  0  0  0  0  0  0  0
   24.1949  -21.4986   -8.0348 O   0  0  0  0  0  0  0  0  0  0  0  0
  2  3  1  0
  2  1  1  6
  3  4  1  0
  4  5  1  0
  5  9  1  0
  6  5  2  0
  7  8  2  0
  7  2  1  0
 10 11  1  0
 11 13  1  0
 12 11  2  0
 13 14  1  0
 15 14  1  6
 15 16  1  0
 16  7  1  0
 17 15  1  0
 17 19  1  0
 18 17  2  0
 20 19  1  0
 20 31  1  0
 20 21  1  1
 22 21  1  0
 23 22  2  0
 24 25  1  0
 24 23  1  0
 25 30  2  0
 26 25  1  0
 26 27  2  0
 27 28  1  0
 28 29  2  0
 30 22  1  0
 30 29  1  0
 31 32  1  0
 33 31  2  0
M  END
$$$$
