EQW.pdb
     RDKit          3D

 33 34  0  0  1  0  0  0  0  0999 V2000
   27.2731  -21.4885  -16.7052 N   0  0  0  0  0  0  0  0  0  0  0  0
   27.9051  -20.7965  -15.6383 C   0  0  1  0  0  0  0  0  0  0  0  0
   28.9084  -19.7589  -16.0109 C   0  0  0  0  0  0  0  0  0  0  0  0
   30.0613  -20.2146  -16.8280 C   0  0  0  0  0  0  0  0  0  0  0  0
   29.8832  -20.2525  -18.2743 C   0  0  0  0  0  0  0  0  0  0  0  0
   29.7537  -21.3104  -18.9098 O   0  0  0  0  0  0  0  0  0  0  0  0
   26.8570  -20.0866  -14.8068 C   0  0  0  0  0  0  0  0  0  0  0  0
   26.3758  -19.0267  -15.2330 O   0  0  0  0  0  0  0  0  0  0  0  0
   29.8553  -19.0505  -18.9996 O   0  0  0  0  0  0  0  0  0  0  0  0
   21.5373  -21.2055  -15.1016 N   0  0  0  0  0  0  0  0  0  0  0  0
   21.4949  -20.5699  -13.8048 C   0  0  0  0  0  0  0  0  0  0  0  0
   20.3823  -20.2582  -13.3618 O   0  0  0  0  0  0  0  0  0  0  0  0
   22.7285  -20.3202  -13.0684 C   0  0  0  0  0  0  0  0  0  0  0  0
   23.9928  -20.6818  -13.7507 C   0  0  0  0  0  0  0  0  0  0  0  0
   25.2239  -20.4117  -12.8989 C   0  0  2  0  0  0  0  0  0  0  0  0
   26.4647  -20.6607  -13.5732 N   0  0  0  0  0  0  0  0  0  0  0  0
   25.1312  -21.0075  -11.5667 C   0  0  0  0  0  0  0  0  0  0  0  0
   25.0639  -22.2817  -11.4420 O   0  0  0  0  0  0  0  0  0  0  0  0
   25.1075  -20.2854  -10.3538 N   0  0  0  0  0  0  0  0  0  0  0  0
   24.8572  -20.8769   -9.0448 C   0  0  1  0  0  0  0  0  0  0  0  0
   25.4748  -20.0817   -7.9552 C   0  0  0  0  0  0  0  0  0  0  0  0
   26.9361  -20.2521   -7.8943 C   0  0  0  0  0  0  0  0  0  0  0  0
   27.7426  -20.9139   -8.8318 C   0  0  0  0  0  0  0  0  0  0  0  0
   29.0204  -20.8993   -8.4225 N   0  0  0  0  0  0  0  0  0  0  0  0
   29.1161  -20.2560   -7.2495 C   0  0  0  0  0  0  0  0  0  0  0  0
   30.2188  -19.9692   -6.4440 C   0  0  0  0  0  0  0  0  0  0  0  0
   29.9876  -19.2622   -5.2933 C   0  0  0  0  0  0  0  0  0  0  0  0
   28.7086  -18.8342   -4.9192 C   0  0  0  0  0  0  0  0  0  0  0  0
   27.6664  -19.1419   -5.7417 C   0  0  0  0  0  0  0  0  0  0  0  0
   27.8369  -19.8533   -6.9155 C   0  0  0  0  0  0  0  0  0  0  0  0
   23.4897  -21.2838   -8.8464 C   0  0  0  0  0  0  0  0  0  0  0  0
   22.4738  -21.1708   -9.8011 O   0  0  0  0  0  0  0  0  0  0  0  0
   23.0917  -21.7920   -7.7374 O   0  0  0  0  0  0  0  0  0  0  0  0
  2  3  1  0
  2  1  1  6
  3  4  1  0
  4  5  1  0
  5  9  1  0
  6  5  2  0
  7  8  2  0
  7  2  1  0
 10 11  1  0
 11 13  1  0
 12 11  2  0
 13 14  1  0
 15 14  1  6
 15 16  1  0
 16  7  1  0
 17 15  1  0
 17 19  1  0
 18 17  2  0
 20 19  1  0
 20 31  1  0
 20 21  1  1
 22 21  1  0
 23 22  2  0
 24 25  1  0
 24 23  1  0
 25 30  2  0
 26 25  1  0
 26 27  2  0
 27 28  1  0
 28 29  2  0
 30 22  1  0
 30 29  1  0
 31 32  1  0
 33 31  2  0
M  END
$$$$
