EQW.pdb
     RDKit          3D

 33 34  0  0  1  0  0  0  0  0999 V2000
   26.0001  -21.1173  -18.8433 N   0  0  0  0  0  0  0  0  0  0  0  0
   27.0169  -22.1008  -18.9676 C   0  0  1  0  0  0  0  0  0  0  0  0
   28.4229  -21.6408  -18.7841 C   0  0  0  0  0  0  0  0  0  0  0  0
   28.6186  -20.1905  -18.5334 C   0  0  0  0  0  0  0  0  0  0  0  0
   29.9808  -19.7306  -18.2934 C   0  0  0  0  0  0  0  0  0  0  0  0
   30.2683  -18.5355  -18.1232 O   0  0  0  0  0  0  0  0  0  0  0  0
   26.7943  -23.1891  -17.9380 C   0  0  0  0  0  0  0  0  0  0  0  0
   27.6258  -24.1039  -17.8488 O   0  0  0  0  0  0  0  0  0  0  0  0
   31.0287  -20.6642  -18.2504 O   0  0  0  0  0  0  0  0  0  0  0  0
   24.5101  -21.0870  -13.1491 N   0  0  0  0  0  0  0  0  0  0  0  0
   23.6451  -21.1622  -14.3040 C   0  0  0  0  0  0  0  0  0  0  0  0
   22.8501  -20.2302  -14.4790 O   0  0  0  0  0  0  0  0  0  0  0  0
   23.7286  -22.3005  -15.2114 C   0  0  0  0  0  0  0  0  0  0  0  0
   24.6827  -23.3727  -14.8442 C   0  0  0  0  0  0  0  0  0  0  0  0
   25.3270  -24.0323  -16.0542 C   0  0  2  0  0  0  0  0  0  0  0  0
   25.6444  -23.1205  -17.1144 N   0  0  0  0  0  0  0  0  0  0  0  0
   24.6181  -25.2362  -16.4859 C   0  0  0  0  0  0  0  0  0  0  0  0
   23.5900  -25.1325  -17.2448 O   0  0  0  0  0  0  0  0  0  0  0  0
   24.9707  -26.5569  -16.1331 N   0  0  0  0  0  0  0  0  0  0  0  0
   24.2033  -27.7422  -16.4968 C   0  0  1  0  0  0  0  0  0  0  0  0
   24.9994  -28.9835  -16.3345 C   0  0  0  0  0  0  0  0  0  0  0  0
   24.2670  -30.1822  -16.7759 C   0  0  0  0  0  0  0  0  0  0  0  0
   24.0766  -30.6084  -18.0985 C   0  0  0  0  0  0  0  0  0  0  0  0
   23.3274  -31.7217  -18.1137 N   0  0  0  0  0  0  0  0  0  0  0  0
   23.0025  -32.0695  -16.8597 C   0  0  0  0  0  0  0  0  0  0  0  0
   22.2631  -33.1445  -16.3648 C   0  0  0  0  0  0  0  0  0  0  0  0
   22.1247  -33.2368  -15.0047 C   0  0  0  0  0  0  0  0  0  0  0  0
   22.6913  -32.3050  -14.1274 C   0  0  0  0  0  0  0  0  0  0  0  0
   23.4030  -31.2739  -14.6637 C   0  0  0  0  0  0  0  0  0  0  0  0
   23.5767  -31.1270  -16.0279 C   0  0  0  0  0  0  0  0  0  0  0  0
   22.8709  -27.7583  -15.9496 C   0  0  0  0  0  0  0  0  0  0  0  0
   21.7241  -28.1551  -16.6451 O   0  0  0  0  0  0  0  0  0  0  0  0
   22.6330  -27.3912  -14.7433 O   0  0  0  0  0  0  0  0  0  0  0  0
  2  3  1  0
  2  1  1  1
  3  4  1  0
  4  5  1  0
  5  9  1  0
  6  5  2  0
  7  8  2  0
  7  2  1  0
 10 11  1  0
 11 13  1  0
 12 11  2  0
 13 14  1  0
 15 14  1  1
 15 16  1  0
 16  7  1  0
 17 15  1  0
 17 19  1  0
 18 17  2  0
 20 19  1  0
 20 31  1  0
 20 21  1  1
 22 21  1  0
 23 22  2  0
 24 25  1  0
 24 23  1  0
 25 30  2  0
 26 25  1  0
 26 27  2  0
 27 28  1  0
 28 29  2  0
 30 22  1  0
 30 29  1  0
 31 32  1  0
 33 31  2  0
M  END
$$$$
