CLT.pdb
     RDKit          3D

 22 21  0  0  1  0  0  0  0  0999 V2000
    6.5657  -15.9575   21.4254 N   0  0  0  0  0  0  0  0  0  0  0  0
    7.8608  -15.3075   21.3083 C   0  0  1  0  0  0  0  0  0  0  0  0
    7.7317  -14.0337   20.5089 C   0  0  0  0  0  0  0  0  0  0  0  0
    6.1841  -14.1504   19.5619 S   0  0  0  0  0  0  0  0  0  0  0  0
    8.3602  -15.0756   22.6875 C   0  0  0  0  0  0  0  0  0  0  0  0
    9.5946  -14.9029   22.8284 O   0  0  0  0  0  0  0  0  0  0  0  0
    5.7143  -11.9391   26.4668 C   0  0  0  0  0  0  0  0  0  0  0  0
    6.8448  -12.6115   25.7748 C   0  0  1  0  0  0  0  0  0  0  0  0
    8.1375  -11.9212   26.2374 C   0  0  0  0  0  0  0  0  0  0  0  0
    6.9408  -14.0741   25.8614 C   0  0  0  0  0  0  0  0  0  0  0  0
    8.0282  -14.8229   25.1970 C   0  0  2  0  0  0  0  0  0  0  0  0
    7.5012  -15.0471   23.8079 N   0  0  0  0  0  0  0  0  0  0  0  0
    8.4074  -16.1367   25.6803 C   0  0  0  0  0  0  0  0  0  0  0  0
    7.5089  -17.0338   25.8623 O   0  0  0  0  0  0  0  0  0  0  0  0
   10.2889  -18.7048   24.1040 C   0  0  0  0  0  0  0  0  0  0  0  0
   10.9199  -18.5877   25.4585 C   0  0  1  0  0  0  0  0  0  0  0  0
   12.1230  -17.8646   25.2896 O   0  0  0  0  0  0  0  0  0  0  0  0
   10.0545  -17.8586   26.4723 C   0  0  2  0  0  0  0  0  0  0  0  0
    9.7302  -16.5330   25.9686 N   0  0  0  0  0  0  0  0  0  0  0  0
   10.6113  -17.9014   27.8192 C   0  0  0  0  0  0  0  0  0  0  0  0
   10.9739  -16.9382   28.5287 O   0  0  0  0  0  0  0  0  0  0  0  0
   10.7690  -19.1626   28.4154 O   0  0  0  0  0  0  0  0  0  0  0  0
  2  1  1  1
  2  3  1  0
  2  5  1  0
  3  4  1  0
  5 12  1  0
  5  6  2  0
  8  7  1  1
  8 10  1  0
  8  9  1  0
 11 10  1  1
 11 13  1  0
 12 11  1  0
 13 19  1  0
 13 14  2  0
 16 15  1  6
 16 18  1  0
 17 16  1  0
 18 20  1  0
 18 19  1  6
 20 22  1  0
 21 20  2  0
M  END
$$$$
