CLT.pdb
     RDKit          3D

 22 21  0  0  1  0  0  0  0  0999 V2000
    6.2720  -15.7137   20.4196 N   0  0  0  0  0  0  0  0  0  0  0  0
    5.9018  -16.0156   21.7927 C   0  0  1  0  0  0  0  0  0  0  0  0
    5.6534  -17.4962   21.9496 C   0  0  0  0  0  0  0  0  0  0  0  0
    7.2305  -18.3409   21.6258 S   0  0  0  0  0  0  0  0  0  0  0  0
    6.9994  -15.5190   22.6609 C   0  0  0  0  0  0  0  0  0  0  0  0
    8.1140  -15.3231   22.1198 O   0  0  0  0  0  0  0  0  0  0  0  0
    5.9032  -12.1095   26.8949 C   0  0  0  0  0  0  0  0  0  0  0  0
    6.6649  -12.7262   25.7774 C   0  0  1  0  0  0  0  0  0  0  0  0
    7.7087  -11.6975   25.3152 C   0  0  0  0  0  0  0  0  0  0  0  0
    7.2567  -14.0532   25.9896 C   0  0  0  0  0  0  0  0  0  0  0  0
    7.9468  -14.7798   24.9032 C   0  0  2  0  0  0  0  0  0  0  0  0
    6.8198  -15.2711   24.0395 N   0  0  0  0  0  0  0  0  0  0  0  0
    8.7403  -15.9559   25.2043 C   0  0  0  0  0  0  0  0  0  0  0  0
    8.2266  -16.9163   25.8817 O   0  0  0  0  0  0  0  0  0  0  0  0
   11.0581  -17.7770   22.6132 C   0  0  0  0  0  0  0  0  0  0  0  0
   11.7512  -17.6849   23.9390 C   0  0  1  0  0  0  0  0  0  0  0  0
   12.7080  -16.6497   23.8307 O   0  0  0  0  0  0  0  0  0  0  0  0
   10.8172  -17.3629   25.0932 C   0  0  2  0  0  0  0  0  0  0  0  0
   10.0757  -16.1480   24.7923 N   0  0  0  0  0  0  0  0  0  0  0  0
   11.4933  -17.3841   26.3848 C   0  0  0  0  0  0  0  0  0  0  0  0
   11.5564  -16.4664   27.2311 O   0  0  0  0  0  0  0  0  0  0  0  0
   12.1607  -18.5648   26.7475 O   0  0  0  0  0  0  0  0  0  0  0  0
  2  1  1  6
  2  3  1  0
  2  5  1  0
  3  4  1  0
  5 12  1  0
  5  6  2  0
  8  7  1  1
  8 10  1  0
  8  9  1  0
 11 10  1  1
 11 13  1  0
 12 11  1  0
 13 19  1  0
 13 14  2  0
 16 15  1  6
 16 18  1  0
 17 16  1  0
 18 20  1  0
 18 19  1  6
 20 22  1  0
 21 20  2  0
M  END
$$$$
