CLT.pdb
     RDKit          3D

 22 21  0  0  1  0  0  0  0  0999 V2000
    7.9617  -14.6376   20.4335 N   0  0  0  0  0  0  0  0  0  0  0  0
    7.3345  -15.4747   21.4431 C   0  0  1  0  0  0  0  0  0  0  0  0
    7.4652  -16.9301   21.0649 C   0  0  0  0  0  0  0  0  0  0  0  0
    6.5984  -17.8944   22.3394 S   0  0  0  0  0  0  0  0  0  0  0  0
    7.9821  -15.1548   22.7406 C   0  0  0  0  0  0  0  0  0  0  0  0
    9.2242  -14.9795   22.7332 O   0  0  0  0  0  0  0  0  0  0  0  0
    5.6938  -11.8802   26.5359 C   0  0  0  0  0  0  0  0  0  0  0  0
    6.7469  -12.5909   25.7644 C   0  0  1  0  0  0  0  0  0  0  0  0
    8.0458  -11.7840   25.9164 C   0  0  0  0  0  0  0  0  0  0  0  0
    6.9537  -14.0208   26.0262 C   0  0  0  0  0  0  0  0  0  0  0  0
    7.9364  -14.8174   25.2617 C   0  0  2  0  0  0  0  0  0  0  0  0
    7.2515  -15.0477   23.9443 N   0  0  0  0  0  0  0  0  0  0  0  0
    8.3251  -16.1346   25.7276 C   0  0  0  0  0  0  0  0  0  0  0  0
    7.4249  -16.9845   26.0631 O   0  0  0  0  0  0  0  0  0  0  0  0
   10.4978  -18.6281   23.9662 C   0  0  0  0  0  0  0  0  0  0  0  0
   10.9785  -18.5709   25.3848 C   0  0  1  0  0  0  0  0  0  0  0  0
   12.1768  -17.8206   25.3819 O   0  0  0  0  0  0  0  0  0  0  0  0
    9.9947  -17.9092   26.3348 C   0  0  2  0  0  0  0  0  0  0  0  0
    9.6576  -16.5841   25.8382 N   0  0  0  0  0  0  0  0  0  0  0  0
   10.4308  -17.9684   27.7249 C   0  0  0  0  0  0  0  0  0  0  0  0
   10.7187  -17.0134   28.4782 O   0  0  0  0  0  0  0  0  0  0  0  0
   10.5488  -19.2375   28.3134 O   0  0  0  0  0  0  0  0  0  0  0  0
  2  1  1  6
  2  3  1  0
  2  5  1  0
  3  4  1  0
  5 12  1  0
  5  6  2  0
  8  7  1  1
  8 10  1  0
  8  9  1  0
 11 10  1  1
 11 13  1  0
 12 11  1  0
 13 19  1  0
 13 14  2  0
 16 15  1  6
 16 18  1  0
 17 16  1  0
 18 20  1  0
 18 19  1  6
 20 22  1  0
 21 20  2  0
M  END
$$$$
