CLT.pdb
     RDKit          3D

 22 21  0  0  1  0  0  0  0  0999 V2000
    8.4708  -14.9456   20.3462 N   0  0  0  0  0  0  0  0  0  0  0  0
    7.4380  -15.2279   21.3297 C   0  0  1  0  0  0  0  0  0  0  0  0
    6.8856  -16.6166   21.1182 C   0  0  0  0  0  0  0  0  0  0  0  0
    8.2071  -17.7894   21.5469 S   0  0  0  0  0  0  0  0  0  0  0  0
    8.0500  -15.0478   22.6707 C   0  0  0  0  0  0  0  0  0  0  0  0
    9.3028  -15.0381   22.7321 O   0  0  0  0  0  0  0  0  0  0  0  0
    5.5549  -11.8054   26.4038 C   0  0  0  0  0  0  0  0  0  0  0  0
    6.6922  -12.4685   25.7138 C   0  0  1  0  0  0  0  0  0  0  0  0
    7.9567  -11.6577   26.0375 C   0  0  0  0  0  0  0  0  0  0  0  0
    6.8911  -13.9073   25.9288 C   0  0  0  0  0  0  0  0  0  0  0  0
    7.9133  -14.6712   25.1829 C   0  0  2  0  0  0  0  0  0  0  0  0
    7.2749  -14.8927   23.8409 N   0  0  0  0  0  0  0  0  0  0  0  0
    8.3138  -15.9882   25.6394 C   0  0  0  0  0  0  0  0  0  0  0  0
    7.4299  -16.9029   25.8042 O   0  0  0  0  0  0  0  0  0  0  0  0
   10.5105  -18.4945   24.1045 C   0  0  0  0  0  0  0  0  0  0  0  0
   10.9932  -18.3472   25.5159 C   0  0  1  0  0  0  0  0  0  0  0  0
   12.1570  -17.5457   25.4699 O   0  0  0  0  0  0  0  0  0  0  0  0
    9.9844  -17.6842   26.4383 C   0  0  2  0  0  0  0  0  0  0  0  0
    9.6431  -16.3692   25.9184 N   0  0  0  0  0  0  0  0  0  0  0  0
   10.3941  -17.7212   27.8371 C   0  0  0  0  0  0  0  0  0  0  0  0
   10.5005  -16.7602   28.6294 O   0  0  0  0  0  0  0  0  0  0  0  0
   10.7119  -18.9736   28.3863 O   0  0  0  0  0  0  0  0  0  0  0  0
  2  1  1  6
  2  3  1  0
  2  5  1  0
  3  4  1  0
  5 12  1  0
  5  6  2  0
  8  7  1  1
  8 10  1  0
  8  9  1  0
 11 10  1  1
 11 13  1  0
 12 11  1  0
 13 19  1  0
 13 14  2  0
 16 15  1  6
 16 18  1  0
 17 16  1  0
 18 20  1  0
 18 19  1  6
 20 22  1  0
 21 20  2  0
M  END
$$$$
