CLT.pdb
     RDKit          3D

 22 21  0  0  1  0  0  0  0  0999 V2000
    7.6970  -14.1837   20.0055 N   0  0  0  0  0  0  0  0  0  0  0  0
    6.8628  -14.5809   21.1279 C   0  0  1  0  0  0  0  0  0  0  0  0
    6.3616  -15.9907   20.9285 C   0  0  0  0  0  0  0  0  0  0  0  0
    7.8066  -17.0904   21.0189 S   0  0  0  0  0  0  0  0  0  0  0  0
    7.6815  -14.4275   22.3573 C   0  0  0  0  0  0  0  0  0  0  0  0
    8.9199  -14.2955   22.2082 O   0  0  0  0  0  0  0  0  0  0  0  0
    5.7983  -11.8183   26.9023 C   0  0  0  0  0  0  0  0  0  0  0  0
    6.8096  -12.3229   25.9368 C   0  0  1  0  0  0  0  0  0  0  0  0
    8.0963  -11.5130   26.1600 C   0  0  0  0  0  0  0  0  0  0  0  0
    7.0691  -13.7675   25.8946 C   0  0  0  0  0  0  0  0  0  0  0  0
    7.9661  -14.3674   24.8846 C   0  0  2  0  0  0  0  0  0  0  0  0
    7.1123  -14.4278   23.6496 N   0  0  0  0  0  0  0  0  0  0  0  0
    8.4707  -15.7146   25.0686 C   0  0  0  0  0  0  0  0  0  0  0  0
    7.6553  -16.6737   25.3143 O   0  0  0  0  0  0  0  0  0  0  0  0
   10.5578  -17.6949   22.6910 C   0  0  0  0  0  0  0  0  0  0  0  0
   11.1917  -17.8530   24.0400 C   0  0  1  0  0  0  0  0  0  0  0  0
   12.3385  -17.0263   24.0539 O   0  0  0  0  0  0  0  0  0  0  0  0
   10.2862  -17.4450   25.1898 C   0  0  2  0  0  0  0  0  0  0  0  0
    9.8312  -16.0783   24.9871 N   0  0  0  0  0  0  0  0  0  0  0  0
   10.8744  -17.7258   26.4941 C   0  0  0  0  0  0  0  0  0  0  0  0
   11.1866  -16.9070   27.3854 O   0  0  0  0  0  0  0  0  0  0  0  0
   11.1302  -19.0687   26.8139 O   0  0  0  0  0  0  0  0  0  0  0  0
  2  1  1  6
  2  3  1  0
  2  5  1  0
  3  4  1  0
  5 12  1  0
  5  6  2  0
  8  7  1  1
  8 10  1  0
  8  9  1  0
 11 10  1  1
 11 13  1  0
 12 11  1  0
 13 19  1  0
 13 14  2  0
 16 15  1  6
 16 18  1  0
 17 16  1  0
 18 20  1  0
 18 19  1  1
 20 22  1  0
 21 20  2  0
M  END
$$$$
