CLT.pdb
     RDKit          3D

 22 21  0  0  1  0  0  0  0  0999 V2000
    8.9059  -15.4654   20.6082 N   0  0  0  0  0  0  0  0  0  0  0  0
    7.8298  -15.7312   21.5488 C   0  0  1  0  0  0  0  0  0  0  0  0
    7.4725  -17.1976   21.5278 C   0  0  0  0  0  0  0  0  0  0  0  0
    8.8897  -18.1038   22.2178 S   0  0  0  0  0  0  0  0  0  0  0  0
    8.2902  -15.2680   22.8826 C   0  0  0  0  0  0  0  0  0  0  0  0
    9.5177  -15.0506   23.0212 O   0  0  0  0  0  0  0  0  0  0  0  0
    5.5639  -11.5647   26.3946 C   0  0  0  0  0  0  0  0  0  0  0  0
    6.6769  -12.2688   25.7055 C   0  0  1  0  0  0  0  0  0  0  0  0
    7.9896  -11.6511   26.2122 C   0  0  0  0  0  0  0  0  0  0  0  0
    6.7050  -13.7361   25.7526 C   0  0  0  0  0  0  0  0  0  0  0  0
    7.8714  -14.5074   25.2738 C   0  0  2  0  0  0  0  0  0  0  0  0
    7.4025  -15.0741   23.9635 N   0  0  0  0  0  0  0  0  0  0  0  0
    8.3527  -15.6451   26.0337 C   0  0  0  0  0  0  0  0  0  0  0  0
    8.7657  -15.4805   27.2368 O   0  0  0  0  0  0  0  0  0  0  0  0
    6.7264  -19.2611   26.2811 C   0  0  0  0  0  0  0  0  0  0  0  0
    8.1982  -19.3458   26.0104 C   0  0  1  0  0  0  0  0  0  0  0  0
    8.3466  -19.6229   24.6320 O   0  0  0  0  0  0  0  0  0  0  0  0
    8.9509  -18.0656   26.3311 C   0  0  2  0  0  0  0  0  0  0  0  0
    8.3979  -16.9696   25.5505 N   0  0  0  0  0  0  0  0  0  0  0  0
   10.3974  -18.2297   26.2492 C   0  0  0  0  0  0  0  0  0  0  0  0
   11.2016  -17.5882   25.5391 O   0  0  0  0  0  0  0  0  0  0  0  0
   10.9839  -19.2187   27.0546 O   0  0  0  0  0  0  0  0  0  0  0  0
  2  1  1  6
  2  3  1  0
  2  5  1  0
  3  4  1  0
  5 12  1  0
  5  6  2  0
  8  7  1  1
  8 10  1  0
  8  9  1  0
 11 10  1  1
 11 13  1  0
 12 11  1  0
 13 19  1  0
 13 14  2  0
 16 15  1  6
 16 18  1  0
 17 16  1  0
 18 20  1  0
 18 19  1  6
 20 22  1  0
 21 20  2  0
M  END
$$$$
