CLT.pdb
     RDKit          3D

 22 21  0  0  1  0  0  0  0  0999 V2000
    8.1626  -13.8732   19.9622 N   0  0  0  0  0  0  0  0  0  0  0  0
    7.1486  -14.2208   20.9443 C   0  0  1  0  0  0  0  0  0  0  0  0
    6.5178  -15.5462   20.5922 C   0  0  0  0  0  0  0  0  0  0  0  0
    7.8412  -16.7927   20.6185 S   0  0  0  0  0  0  0  0  0  0  0  0
    7.8120  -14.2318   22.2729 C   0  0  0  0  0  0  0  0  0  0  0  0
    9.0662  -14.2421   22.2870 O   0  0  0  0  0  0  0  0  0  0  0  0
    5.5421  -11.6507   26.7133 C   0  0  0  0  0  0  0  0  0  0  0  0
    6.6339  -12.1766   25.8526 C   0  0  1  0  0  0  0  0  0  0  0  0
    7.9389  -11.5087   26.3133 C   0  0  0  0  0  0  0  0  0  0  0  0
    6.7765  -13.6322   25.7238 C   0  0  0  0  0  0  0  0  0  0  0  0
    7.7733  -14.2388   24.8166 C   0  0  2  0  0  0  0  0  0  0  0  0
    7.0827  -14.2313   23.4821 N   0  0  0  0  0  0  0  0  0  0  0  0
    8.2020  -15.6094   25.0191 C   0  0  0  0  0  0  0  0  0  0  0  0
    7.3335  -16.5528   25.0446 O   0  0  0  0  0  0  0  0  0  0  0  0
   10.3147  -17.7686   22.9841 C   0  0  0  0  0  0  0  0  0  0  0  0
   10.8711  -17.8758   24.3717 C   0  0  1  0  0  0  0  0  0  0  0  0
   12.0351  -17.0744   24.4101 O   0  0  0  0  0  0  0  0  0  0  0  0
    9.9152  -17.3940   25.4499 C   0  0  2  0  0  0  0  0  0  0  0  0
    9.5435  -16.0126   25.1861 N   0  0  0  0  0  0  0  0  0  0  0  0
   10.4034  -17.6685   26.7961 C   0  0  0  0  0  0  0  0  0  0  0  0
   10.6429  -16.8458   27.7061 O   0  0  0  0  0  0  0  0  0  0  0  0
   10.6404  -19.0093   27.1385 O   0  0  0  0  0  0  0  0  0  0  0  0
  2  1  1  6
  2  3  1  0
  2  5  1  0
  3  4  1  0
  5 12  1  0
  5  6  2  0
  8  7  1  1
  8 10  1  0
  8  9  1  0
 11 10  1  1
 11 13  1  0
 12 11  1  0
 13 19  1  0
 13 14  2  0
 16 15  1  6
 16 18  1  0
 17 16  1  0
 18 20  1  0
 18 19  1  1
 20 22  1  0
 21 20  2  0
M  END
$$$$
