CLT.pdb
     RDKit          3D

 22 21  0  0  1  0  0  0  0  0999 V2000
    7.7916  -14.5153   19.9758 N   0  0  0  0  0  0  0  0  0  0  0  0
    6.9445  -14.9361   21.0799 C   0  0  1  0  0  0  0  0  0  0  0  0
    6.5682  -16.3892   20.9207 C   0  0  0  0  0  0  0  0  0  0  0  0
    8.1174  -17.3336   20.8029 S   0  0  0  0  0  0  0  0  0  0  0  0
    7.6941  -14.6677   22.3334 C   0  0  0  0  0  0  0  0  0  0  0  0
    8.9263  -14.4567   22.2301 O   0  0  0  0  0  0  0  0  0  0  0  0
    5.7489  -11.7039   26.6513 C   0  0  0  0  0  0  0  0  0  0  0  0
    6.7427  -12.3163   25.7312 C   0  0  1  0  0  0  0  0  0  0  0  0
    8.0727  -11.5749   25.9383 C   0  0  0  0  0  0  0  0  0  0  0  0
    6.9144  -13.7742   25.7654 C   0  0  0  0  0  0  0  0  0  0  0  0
    7.8587  -14.4675   24.8641 C   0  0  2  0  0  0  0  0  0  0  0  0
    7.0681  -14.6462   23.5990 N   0  0  0  0  0  0  0  0  0  0  0  0
    8.3475  -15.7907   25.2013 C   0  0  0  0  0  0  0  0  0  0  0  0
    7.5153  -16.7364   25.4426 O   0  0  0  0  0  0  0  0  0  0  0  0
   10.5496  -17.9492   23.1656 C   0  0  0  0  0  0  0  0  0  0  0  0
   11.1121  -17.9909   24.5543 C   0  0  1  0  0  0  0  0  0  0  0  0
   12.2573  -17.1619   24.5582 O   0  0  0  0  0  0  0  0  0  0  0  0
   10.1482  -17.4907   25.6169 C   0  0  2  0  0  0  0  0  0  0  0  0
    9.7107  -16.1450   25.2797 N   0  0  0  0  0  0  0  0  0  0  0  0
   10.6646  -17.6644   26.9693 C   0  0  0  0  0  0  0  0  0  0  0  0
   10.8098  -16.7908   27.8515 O   0  0  0  0  0  0  0  0  0  0  0  0
   11.0516  -18.9579   27.3540 O   0  0  0  0  0  0  0  0  0  0  0  0
  2  1  1  6
  2  3  1  0
  2  5  1  0
  3  4  1  0
  5 12  1  0
  5  6  2  0
  8  7  1  1
  8 10  1  0
  8  9  1  0
 11 10  1  1
 11 13  1  0
 12 11  1  0
 13 19  1  0
 13 14  2  0
 16 15  1  6
 16 18  1  0
 17 16  1  0
 18 20  1  0
 18 19  1  6
 20 22  1  0
 21 20  2  0
M  END
$$$$
