KVY.pdb
     RDKit          3D

 29 29  0  0  1  0  0  0  0  0999 V2000
   23.1617  -22.0534  -17.1767 N   0  0  0  0  0  0  0  0  0  0  0  0
   23.9251  -22.8661  -16.2767 C   0  0  1  0  0  0  0  0  0  0  0  0
   23.1095  -23.9583  -15.6246 C   0  0  0  0  0  0  0  0  0  0  0  0
   21.9773  -23.4808  -14.7978 C   0  0  0  0  0  0  0  0  0  0  0  0
   20.6158  -23.9586  -15.1442 C   0  0  0  0  0  0  0  0  0  0  0  0
   19.4938  -23.4018  -14.3411 C   0  0  0  0  0  0  0  0  0  0  0  0
   18.1922  -23.8423  -14.6883 N   0  0  0  0  0  0  0  0  0  0  0  0
   25.0641  -23.5289  -16.9714 C   0  0  0  0  0  0  0  0  0  0  0  0
   24.9443  -23.8134  -18.1922 O   0  0  0  0  0  0  0  0  0  0  0  0
   29.8381  -24.5035  -17.6031 C   0  0  0  0  0  0  0  0  0  0  0  0
   28.6929  -23.7365  -16.9629 C   0  0  1  0  0  0  0  0  0  0  0  0
   28.6142  -22.3153  -17.4350 C   0  0  0  0  0  0  0  0  0  0  0  0
   27.3990  -24.4753  -17.0448 C   0  0  2  0  0  0  0  0  0  0  0  0
   26.2830  -23.8734  -16.3846 N   0  0  0  0  0  0  0  0  0  0  0  0
   27.6286  -25.8782  -16.6086 C   0  0  0  0  0  0  0  0  0  0  0  0
   27.3747  -26.2379  -15.4073 O   0  0  0  0  0  0  0  0  0  0  0  0
   27.3415  -34.2479  -14.9716 O   0  0  0  0  0  0  0  0  0  0  0  0
   27.2456  -32.9057  -15.3231 C   0  0  0  0  0  0  0  0  0  0  0  0
   28.0850  -31.9769  -14.7456 C   0  0  0  0  0  0  0  0  0  0  0  0
   27.9817  -30.6565  -15.0995 C   0  0  0  0  0  0  0  0  0  0  0  0
   27.0505  -30.1912  -16.0349 C   0  0  0  0  0  0  0  0  0  0  0  0
   26.9586  -28.7625  -16.3993 C   0  0  0  0  0  0  0  0  0  0  0  0
   28.2435  -28.2948  -17.0285 C   0  0  2  0  0  0  0  0  0  0  0  0
   28.1298  -26.9007  -17.4544 N   0  0  0  0  0  0  0  0  0  0  0  0
   28.7772  -29.1469  -18.0867 C   0  0  0  0  0  0  0  0  0  0  0  0
   28.2175  -29.2206  -19.1965 O   0  0  0  0  0  0  0  0  0  0  0  0
   26.2075  -31.1421  -16.6113 C   0  0  0  0  0  0  0  0  0  0  0  0
   26.3304  -32.4502  -16.2421 C   0  0  0  0  0  0  0  0  0  0  0  0
   29.9233  -29.8955  -17.8778 O   0  0  0  0  0  0  0  0  0  0  0  0
  2  1  1  6
  2  8  1  0
  2  3  1  0
  3  4  1  0
  4  5  1  0
  5  6  1  0
  6  7  1  0
  8  9  2  0
 11 10  1  6
 11 12  1  0
 13 11  1  0
 13 14  1  1
 14  8  1  0
 15 13  1  0
 16 15  2  0
 18 17  1  0
 18 19  2  0
 20 19  1  0
 21 22  1  0
 21 20  2  0
 23 22  1  6
 23 24  1  0
 24 15  1  0
 25 23  1  0
 25 29  1  0
 26 25  2  0
 27 28  2  0
 27 21  1  0
 28 18  1  0
M  END
$$$$
