KVY.pdb
     RDKit          3D

 29 29  0  0  1  0  0  0  0  0999 V2000
   25.7970  -27.0111  -17.3658 N   0  0  0  0  0  0  0  0  0  0  0  0
   25.0049  -25.8298  -17.1914 C   0  0  1  0  0  0  0  0  0  0  0  0
   23.7696  -26.0608  -16.3523 C   0  0  0  0  0  0  0  0  0  0  0  0
   22.7567  -26.9497  -16.9666 C   0  0  0  0  0  0  0  0  0  0  0  0
   22.7210  -28.3670  -16.5285 C   0  0  0  0  0  0  0  0  0  0  0  0
   21.8676  -28.6748  -15.3490 C   0  0  0  0  0  0  0  0  0  0  0  0
   20.6780  -27.9156  -15.2178 N   0  0  0  0  0  0  0  0  0  0  0  0
   25.7820  -24.7432  -16.5324 C   0  0  0  0  0  0  0  0  0  0  0  0
   26.7388  -25.0575  -15.7766 O   0  0  0  0  0  0  0  0  0  0  0  0
   27.1054  -19.9492  -16.0977 C   0  0  0  0  0  0  0  0  0  0  0  0
   26.4465  -21.0709  -16.8832 C   0  0  1  0  0  0  0  0  0  0  0  0
   27.0763  -21.2821  -18.2276 C   0  0  0  0  0  0  0  0  0  0  0  0
   26.3024  -22.3191  -16.0782 C   0  0  2  0  0  0  0  0  0  0  0  0
   25.5462  -23.3747  -16.6760 N   0  0  0  0  0  0  0  0  0  0  0  0
   25.7991  -21.9537  -14.7276 C   0  0  0  0  0  0  0  0  0  0  0  0
   24.5754  -21.6226  -14.5547 O   0  0  0  0  0  0  0  0  0  0  0  0
   25.3862  -19.4848   -6.2580 O   0  0  0  0  0  0  0  0  0  0  0  0
   25.8468  -19.9359   -7.4903 C   0  0  0  0  0  0  0  0  0  0  0  0
   25.7471  -21.2707   -7.8205 C   0  0  0  0  0  0  0  0  0  0  0  0
   26.2043  -21.7044   -9.0380 C   0  0  0  0  0  0  0  0  0  0  0  0
   26.7789  -20.8470   -9.9832 C   0  0  0  0  0  0  0  0  0  0  0  0
   27.2646  -21.3390  -11.2887 C   0  0  0  0  0  0  0  0  0  0  0  0
   26.1394  -21.3842  -12.2874 C   0  0  2  0  0  0  0  0  0  0  0  0
   26.6015  -21.9411  -13.5579 N   0  0  0  0  0  0  0  0  0  0  0  0
   25.4071  -20.1352  -12.4732 C   0  0  0  0  0  0  0  0  0  0  0  0
   24.2754  -19.9739  -11.9794 O   0  0  0  0  0  0  0  0  0  0  0  0
   26.8734  -19.4989   -9.6357 C   0  0  0  0  0  0  0  0  0  0  0  0
   26.4109  -19.0925   -8.4177 C   0  0  0  0  0  0  0  0  0  0  0  0
   25.9582  -19.0978  -13.2063 O   0  0  0  0  0  0  0  0  0  0  0  0
  2  1  1  1
  2  8  1  0
  2  3  1  0
  3  4  1  0
  4  5  1  0
  5  6  1  0
  6  7  1  0
  8  9  2  0
 11 10  1  1
 11 12  1  0
 13 11  1  0
 13 14  1  6
 14  8  1  0
 15 13  1  0
 16 15  2  0
 18 17  1  0
 18 19  2  0
 20 19  1  0
 21 22  1  0
 21 20  2  0
 23 22  1  1
 23 24  1  0
 24 15  1  0
 25 23  1  0
 25 29  1  0
 26 25  2  0
 27 28  2  0
 27 21  1  0
 28 18  1  0
M  END
$$$$
