KVY.pdb
     RDKit          3D

 29 29  0  0  1  0  0  0  0  0999 V2000
   24.7553  -15.0963  -18.4296 N   0  0  0  0  0  0  0  0  0  0  0  0
   24.8188  -13.7656  -18.9572 C   0  0  1  0  0  0  0  0  0  0  0  0
   23.6820  -13.4448  -19.8997 C   0  0  0  0  0  0  0  0  0  0  0  0
   23.5977  -14.3172  -21.0935 C   0  0  0  0  0  0  0  0  0  0  0  0
   24.8159  -14.4719  -21.9266 C   0  0  0  0  0  0  0  0  0  0  0  0
   24.6711  -15.2777  -23.1691 C   0  0  0  0  0  0  0  0  0  0  0  0
   23.4981  -15.0524  -23.9321 N   0  0  0  0  0  0  0  0  0  0  0  0
   24.7859  -12.7454  -17.8722 C   0  0  0  0  0  0  0  0  0  0  0  0
   23.9670  -12.8944  -16.9273 O   0  0  0  0  0  0  0  0  0  0  0  0
   27.3499  -11.7454  -15.2838 C   0  0  0  0  0  0  0  0  0  0  0  0
   26.9301  -10.4906  -16.0312 C   0  0  1  0  0  0  0  0  0  0  0  0
   28.0232   -9.9421  -16.8990 C   0  0  0  0  0  0  0  0  0  0  0  0
   25.6245  -10.6586  -16.7340 C   0  0  2  0  0  0  0  0  0  0  0  0
   25.5967  -11.6113  -17.7995 N   0  0  0  0  0  0  0  0  0  0  0  0
   25.1410   -9.3178  -17.1577 C   0  0  0  0  0  0  0  0  0  0  0  0
   25.3486   -8.8950  -18.3473 O   0  0  0  0  0  0  0  0  0  0  0  0
   19.6513   -8.1539  -12.2051 O   0  0  0  0  0  0  0  0  0  0  0  0
   20.3475   -7.9039  -13.3828 C   0  0  0  0  0  0  0  0  0  0  0  0
   20.7674   -6.6249  -13.6810 C   0  0  0  0  0  0  0  0  0  0  0  0
   21.4529   -6.3899  -14.8447 C   0  0  0  0  0  0  0  0  0  0  0  0
   21.7556   -7.3996  -15.7653 C   0  0  0  0  0  0  0  0  0  0  0  0
   22.4957   -7.1206  -17.0131 C   0  0  0  0  0  0  0  0  0  0  0  0
   23.9786   -7.1084  -16.7556 C   0  0  2  0  0  0  0  0  0  0  0  0
   24.4343   -8.4249  -16.3118 N   0  0  0  0  0  0  0  0  0  0  0  0
   24.4610   -6.0415  -15.8839 C   0  0  0  0  0  0  0  0  0  0  0  0
   25.0518   -6.2995  -14.8186 O   0  0  0  0  0  0  0  0  0  0  0  0
   21.3247   -8.6889  -15.4507 C   0  0  0  0  0  0  0  0  0  0  0  0
   20.6442   -8.8967  -14.2862 C   0  0  0  0  0  0  0  0  0  0  0  0
   24.2710   -4.7129  -16.2248 O   0  0  0  0  0  0  0  0  0  0  0  0
  2  1  1  1
  2  8  1  0
  2  3  1  0
  3  4  1  0
  4  5  1  0
  5  6  1  0
  6  7  1  0
  8  9  2  0
 11 10  1  6
 11 12  1  0
 13 11  1  0
 13 14  1  6
 14  8  1  0
 15 13  1  0
 16 15  2  0
 18 17  1  0
 18 19  2  0
 20 19  1  0
 21 22  1  0
 21 20  2  0
 23 22  1  1
 23 24  1  0
 24 15  1  0
 25 23  1  0
 25 29  1  0
 26 25  2  0
 27 28  2  0
 27 21  1  0
 28 18  1  0
M  END
$$$$
