KVY.pdb
     RDKit          3D

 29 29  0  0  1  0  0  0  0  0999 V2000
   23.7463  -19.7948  -20.6049 N   0  0  0  0  0  0  0  0  0  0  0  0
   23.7433  -18.8713  -19.5093 C   0  0  1  0  0  0  0  0  0  0  0  0
   22.4601  -18.8989  -18.7119 C   0  0  0  0  0  0  0  0  0  0  0  0
   21.2220  -18.9156  -19.5246 C   0  0  0  0  0  0  0  0  0  0  0  0
   20.2287  -19.9839  -19.2528 C   0  0  0  0  0  0  0  0  0  0  0  0
   18.8990  -19.5408  -18.7531 C   0  0  0  0  0  0  0  0  0  0  0  0
   17.9422  -20.5604  -18.5214 N   0  0  0  0  0  0  0  0  0  0  0  0
   24.8541  -19.1500  -18.5566 C   0  0  0  0  0  0  0  0  0  0  0  0
   25.5632  -20.1746  -18.7384 O   0  0  0  0  0  0  0  0  0  0  0  0
   28.3987  -17.5606  -15.5560 C   0  0  0  0  0  0  0  0  0  0  0  0
   27.2605  -17.3389  -16.5382 C   0  0  1  0  0  0  0  0  0  0  0  0
   27.7347  -16.8299  -17.8666 C   0  0  0  0  0  0  0  0  0  0  0  0
   26.3521  -18.5192  -16.6302 C   0  0  2  0  0  0  0  0  0  0  0  0
   25.1939  -18.3645  -17.4538 N   0  0  0  0  0  0  0  0  0  0  0  0
   26.0141  -18.9626  -15.2517 C   0  0  0  0  0  0  0  0  0  0  0  0
   25.3930  -18.1833  -14.4492 O   0  0  0  0  0  0  0  0  0  0  0  0
   25.6531  -21.0262   -7.0002 O   0  0  0  0  0  0  0  0  0  0  0  0
   25.9603  -20.7210   -8.3218 C   0  0  0  0  0  0  0  0  0  0  0  0
   26.7733  -21.5588   -9.0551 C   0  0  0  0  0  0  0  0  0  0  0  0
   27.0696  -21.2482  -10.3571 C   0  0  0  0  0  0  0  0  0  0  0  0
   26.5808  -20.1023  -10.9949 C   0  0  0  0  0  0  0  0  0  0  0  0
   26.9150  -19.7893  -12.3995 C   0  0  0  0  0  0  0  0  0  0  0  0
   26.0759  -20.6144  -13.3379 C   0  0  2  0  0  0  0  0  0  0  0  0
   26.3385  -20.2399  -14.7267 N   0  0  0  0  0  0  0  0  0  0  0  0
   24.6466  -20.6508  -13.0434 C   0  0  0  0  0  0  0  0  0  0  0  0
   24.2326  -20.9101  -11.8981 O   0  0  0  0  0  0  0  0  0  0  0  0
   25.7594  -19.2635  -10.2408 C   0  0  0  0  0  0  0  0  0  0  0  0
   25.4795  -19.5951   -8.9469 C   0  0  0  0  0  0  0  0  0  0  0  0
   23.7159  -20.3964  -14.0367 O   0  0  0  0  0  0  0  0  0  0  0  0
  2  1  1  6
  2  8  1  0
  2  3  1  0
  3  4  1  0
  4  5  1  0
  5  6  1  0
  6  7  1  0
  8  9  2  0
 11 10  1  1
 11 12  1  0
 13 11  1  0
 13 14  1  1
 14  8  1  0
 15 13  1  0
 16 15  2  0
 18 17  1  0
 18 19  2  0
 20 19  1  0
 21 22  1  0
 21 20  2  0
 23 22  1  1
 23 24  1  0
 24 15  1  0
 25 23  1  0
 25 29  1  0
 26 25  2  0
 27 28  2  0
 27 21  1  0
 28 18  1  0
M  END
$$$$
