KVY.pdb
     RDKit          3D

 29 29  0  0  1  0  0  0  0  0999 V2000
   26.9014  -17.0999  -19.7962 N   0  0  0  0  0  0  0  0  0  0  0  0
   26.7791  -17.1523  -18.3695 C   0  0  1  0  0  0  0  0  0  0  0  0
   25.7394  -16.1998  -17.8263 C   0  0  0  0  0  0  0  0  0  0  0  0
   24.6526  -15.8585  -18.7729 C   0  0  0  0  0  0  0  0  0  0  0  0
   23.6256  -14.8845  -18.3273 C   0  0  0  0  0  0  0  0  0  0  0  0
   22.4710  -14.6738  -19.2420 C   0  0  0  0  0  0  0  0  0  0  0  0
   22.6285  -15.1391  -20.5715 N   0  0  0  0  0  0  0  0  0  0  0  0
   26.4055  -18.5168  -17.9029 C   0  0  0  0  0  0  0  0  0  0  0  0
   25.4838  -19.1295  -18.5034 O   0  0  0  0  0  0  0  0  0  0  0  0
   27.2150  -22.7838  -15.5587 C   0  0  0  0  0  0  0  0  0  0  0  0
   27.7226  -21.4340  -16.0382 C   0  0  1  0  0  0  0  0  0  0  0  0
   28.7378  -21.5550  -17.1353 C   0  0  0  0  0  0  0  0  0  0  0  0
   26.6118  -20.4851  -16.3419 C   0  0  2  0  0  0  0  0  0  0  0  0
   26.9942  -19.1997  -16.8371 N   0  0  0  0  0  0  0  0  0  0  0  0
   25.7292  -20.3949  -15.1486 C   0  0  0  0  0  0  0  0  0  0  0  0
   26.2170  -20.1388  -13.9938 O   0  0  0  0  0  0  0  0  0  0  0  0
   26.2300  -20.3307   -8.2491 O   0  0  0  0  0  0  0  0  0  0  0  0
   25.6222  -20.0588   -9.4702 C   0  0  0  0  0  0  0  0  0  0  0  0
   26.3795  -19.6347  -10.5414 C   0  0  0  0  0  0  0  0  0  0  0  0
   25.7700  -19.3694  -11.7404 C   0  0  0  0  0  0  0  0  0  0  0  0
   24.3917  -19.5089  -11.9393 C   0  0  0  0  0  0  0  0  0  0  0  0
   23.7584  -19.2163  -13.2416 C   0  0  0  0  0  0  0  0  0  0  0  0
   23.4823  -20.4913  -13.9923 C   0  0  2  0  0  0  0  0  0  0  0  0
   24.3230  -20.5778  -15.1855 N   0  0  0  0  0  0  0  0  0  0  0  0
   22.0790  -20.7579  -14.2930 C   0  0  0  0  0  0  0  0  0  0  0  0
   21.6883  -20.8976  -15.4670 O   0  0  0  0  0  0  0  0  0  0  0  0
   23.6378  -19.9388  -10.8468 C   0  0  0  0  0  0  0  0  0  0  0  0
   24.2683  -20.1962   -9.6641 C   0  0  0  0  0  0  0  0  0  0  0  0
   21.1474  -20.8615  -13.2737 O   0  0  0  0  0  0  0  0  0  0  0  0
  2  1  1  6
  2  8  1  0
  2  3  1  0
  3  4  1  0
  4  5  1  0
  5  6  1  0
  6  7  1  0
  8  9  2  0
 11 10  1  6
 11 12  1  0
 13 11  1  0
 13 14  1  1
 14  8  1  0
 15 13  1  0
 16 15  2  0
 18 17  1  0
 18 19  2  0
 20 19  1  0
 21 22  1  0
 21 20  2  0
 23 22  1  6
 23 24  1  0
 24 15  1  0
 25 23  1  0
 25 29  1  0
 26 25  2  0
 27 28  2  0
 27 21  1  0
 28 18  1  0
M  END
$$$$
