KVY.pdb
     RDKit          3D

 29 29  0  0  1  0  0  0  0  0999 V2000
   29.7010  -19.0215  -19.8872 N   0  0  0  0  0  0  0  0  0  0  0  0
   28.4183  -19.5809  -19.5791 C   0  0  1  0  0  0  0  0  0  0  0  0
   28.2543  -20.9997  -20.0726 C   0  0  0  0  0  0  0  0  0  0  0  0
   27.3369  -21.1562  -21.2247 C   0  0  0  0  0  0  0  0  0  0  0  0
   27.1541  -22.5178  -21.7855 C   0  0  0  0  0  0  0  0  0  0  0  0
   26.2335  -22.6375  -22.9484 C   0  0  0  0  0  0  0  0  0  0  0  0
   26.1585  -23.9125  -23.5628 N   0  0  0  0  0  0  0  0  0  0  0  0
   28.1684  -19.5989  -18.1107 C   0  0  0  0  0  0  0  0  0  0  0  0
   29.1204  -19.3275  -17.3324 O   0  0  0  0  0  0  0  0  0  0  0  0
   27.9744  -17.3764  -16.1591 C   0  0  0  0  0  0  0  0  0  0  0  0
   26.5538  -17.9078  -16.0642 C   0  0  1  0  0  0  0  0  0  0  0  0
   25.5931  -17.1460  -16.9276 C   0  0  0  0  0  0  0  0  0  0  0  0
   26.4882  -19.3877  -16.2437 C   0  0  2  0  0  0  0  0  0  0  0  0
   26.9493  -19.8947  -17.4983 N   0  0  0  0  0  0  0  0  0  0  0  0
   25.1099  -19.8415  -15.9192 C   0  0  0  0  0  0  0  0  0  0  0  0
   24.1461  -19.6364  -16.7353 O   0  0  0  0  0  0  0  0  0  0  0  0
   18.1417  -23.9512  -12.4326 O   0  0  0  0  0  0  0  0  0  0  0  0
   19.4305  -23.4812  -12.6616 C   0  0  0  0  0  0  0  0  0  0  0  0
   19.8625  -22.3209  -12.0551 C   0  0  0  0  0  0  0  0  0  0  0  0
   21.1349  -21.8667  -12.2879 C   0  0  0  0  0  0  0  0  0  0  0  0
   22.0375  -22.5316  -13.1258 C   0  0  0  0  0  0  0  0  0  0  0  0
   23.4038  -22.0215  -13.3610 C   0  0  0  0  0  0  0  0  0  0  0  0
   23.3978  -20.9772  -14.4449 C   0  0  2  0  0  0  0  0  0  0  0  0
   24.7573  -20.5159  -14.7221 N   0  0  0  0  0  0  0  0  0  0  0  0
   22.4737  -19.8646  -14.2471 C   0  0  0  0  0  0  0  0  0  0  0  0
   22.7855  -18.8876  -13.5409 O   0  0  0  0  0  0  0  0  0  0  0  0
   21.5869  -23.7044  -13.7329 C   0  0  0  0  0  0  0  0  0  0  0  0
   20.3160  -24.1354  -13.4848 C   0  0  0  0  0  0  0  0  0  0  0  0
   21.2241  -19.8721  -14.8437 O   0  0  0  0  0  0  0  0  0  0  0  0
  2  1  1  1
  2  8  1  0
  2  3  1  0
  3  4  1  0
  4  5  1  0
  5  6  1  0
  6  7  1  0
  8  9  2  0
 11 10  1  6
 11 12  1  0
 13 11  1  0
 13 14  1  6
 14  8  1  0
 15 13  1  0
 16 15  2  0
 18 17  1  0
 18 19  2  0
 20 19  1  0
 21 22  1  0
 21 20  2  0
 23 22  1  1
 23 24  1  0
 24 15  1  0
 25 23  1  0
 25 29  1  0
 26 25  2  0
 27 28  2  0
 27 21  1  0
 28 18  1  0
M  END
$$$$
