KVY.pdb
     RDKit          3D

 29 29  0  0  1  0  0  0  0  0999 V2000
   28.3914  -28.4347  -16.5613 N   0  0  0  0  0  0  0  0  0  0  0  0
   27.6380  -27.4608  -17.2942 C   0  0  1  0  0  0  0  0  0  0  0  0
   26.2476  -27.9315  -17.6528 C   0  0  0  0  0  0  0  0  0  0  0  0
   26.2004  -29.1364  -18.5127 C   0  0  0  0  0  0  0  0  0  0  0  0
   26.2031  -30.4631  -17.8481 C   0  0  0  0  0  0  0  0  0  0  0  0
   24.8766  -31.1070  -17.6485 C   0  0  0  0  0  0  0  0  0  0  0  0
   24.3199  -31.7633  -18.7746 N   0  0  0  0  0  0  0  0  0  0  0  0
   27.4840  -26.1956  -16.5230 C   0  0  0  0  0  0  0  0  0  0  0  0
   27.6903  -26.2161  -15.2810 O   0  0  0  0  0  0  0  0  0  0  0  0
   27.9618  -21.4035  -15.9743 C   0  0  0  0  0  0  0  0  0  0  0  0
   28.1815  -22.7504  -16.6430 C   0  0  1  0  0  0  0  0  0  0  0  0
   29.5533  -23.3023  -16.3933 C   0  0  0  0  0  0  0  0  0  0  0  0
   27.0787  -23.7135  -16.3552 C   0  0  2  0  0  0  0  0  0  0  0  0
   27.1245  -24.9574  -17.0582 N   0  0  0  0  0  0  0  0  0  0  0  0
   25.7805  -23.0097  -16.5294 C   0  0  0  0  0  0  0  0  0  0  0  0
   25.4346  -22.5519  -17.6730 O   0  0  0  0  0  0  0  0  0  0  0  0
   21.2930  -26.7763  -12.0221 O   0  0  0  0  0  0  0  0  0  0  0  0
   21.5898  -25.8647  -13.0297 C   0  0  0  0  0  0  0  0  0  0  0  0
   22.5853  -26.1414  -13.9426 C   0  0  0  0  0  0  0  0  0  0  0  0
   22.8695  -25.2357  -14.9317 C   0  0  0  0  0  0  0  0  0  0  0  0
   22.1892  -24.0201  -15.0672 C   0  0  0  0  0  0  0  0  0  0  0  0
   22.5146  -23.0602  -16.1420 C   0  0  0  0  0  0  0  0  0  0  0  0
   23.5780  -22.0977  -15.6856 C   0  0  2  0  0  0  0  0  0  0  0  0
   24.8481  -22.7931  -15.4826 N   0  0  0  0  0  0  0  0  0  0  0  0
   23.2258  -21.2600  -14.5433 C   0  0  0  0  0  0  0  0  0  0  0  0
   23.8887  -21.2975  -13.4899 O   0  0  0  0  0  0  0  0  0  0  0  0
   21.1844  -23.7534  -14.1365 C   0  0  0  0  0  0  0  0  0  0  0  0
   20.9207  -24.6712  -13.1615 C   0  0  0  0  0  0  0  0  0  0  0  0
   22.1413  -20.4013  -14.6070 O   0  0  0  0  0  0  0  0  0  0  0  0
  2  1  1  1
  2  8  1  0
  2  3  1  0
  3  4  1  0
  4  5  1  0
  5  6  1  0
  6  7  1  0
  8  9  2  0
 11 10  1  1
 11 12  1  0
 13 11  1  0
 13 14  1  6
 14  8  1  0
 15 13  1  0
 16 15  2  0
 18 17  1  0
 18 19  2  0
 20 19  1  0
 21 22  1  0
 21 20  2  0
 23 22  1  1
 23 24  1  0
 24 15  1  0
 25 23  1  0
 25 29  1  0
 26 25  2  0
 27 28  2  0
 27 21  1  0
 28 18  1  0
M  END
$$$$
