KVY.pdb
     RDKit          3D

 29 29  0  0  1  0  0  0  0  0999 V2000
   20.5052  -18.6937  -16.7122 N   0  0  0  0  0  0  0  0  0  0  0  0
   21.2794  -18.6637  -15.5068 C   0  0  1  0  0  0  0  0  0  0  0  0
   21.2069  -19.9525  -14.7214 C   0  0  0  0  0  0  0  0  0  0  0  0
   19.8396  -20.3698  -14.3341 C   0  0  0  0  0  0  0  0  0  0  0  0
   18.9887  -19.3832  -13.6239 C   0  0  0  0  0  0  0  0  0  0  0  0
   17.8907  -19.9367  -12.7859 C   0  0  0  0  0  0  0  0  0  0  0  0
   16.6922  -20.2752  -13.4626 N   0  0  0  0  0  0  0  0  0  0  0  0
   22.7193  -18.4058  -15.7885 C   0  0  0  0  0  0  0  0  0  0  0  0
   23.2300  -18.9015  -16.8273 O   0  0  0  0  0  0  0  0  0  0  0  0
   27.0529  -16.0784  -14.9863 C   0  0  0  0  0  0  0  0  0  0  0  0
   25.5554  -16.1668  -14.7428 C   0  0  1  0  0  0  0  0  0  0  0  0
   24.8156  -14.9654  -15.2508 C   0  0  0  0  0  0  0  0  0  0  0  0
   24.9826  -17.4681  -15.1957 C   0  0  2  0  0  0  0  0  0  0  0  0
   23.5791  -17.6476  -14.9918 N   0  0  0  0  0  0  0  0  0  0  0  0
   25.7882  -18.5692  -14.6046 C   0  0  0  0  0  0  0  0  0  0  0  0
   25.7272  -18.8228  -13.3520 O   0  0  0  0  0  0  0  0  0  0  0  0
   25.0274  -20.1098   -8.8466 O   0  0  0  0  0  0  0  0  0  0  0  0
   25.3324  -20.4551  -10.1588 C   0  0  0  0  0  0  0  0  0  0  0  0
   24.3214  -20.7213  -11.0577 C   0  0  0  0  0  0  0  0  0  0  0  0
   24.6334  -21.0608  -12.3487 C   0  0  0  0  0  0  0  0  0  0  0  0
   25.9505  -21.1535  -12.8128 C   0  0  0  0  0  0  0  0  0  0  0  0
   26.2610  -21.5218  -14.2094 C   0  0  0  0  0  0  0  0  0  0  0  0
   27.2960  -20.5915  -14.7827 C   0  0  2  0  0  0  0  0  0  0  0  0
   26.6612  -19.4027  -15.3499 N   0  0  0  0  0  0  0  0  0  0  0  0
   28.2475  -21.1968  -15.7095 C   0  0  0  0  0  0  0  0  0  0  0  0
   28.9820  -22.1373  -15.3539 O   0  0  0  0  0  0  0  0  0  0  0  0
   26.9634  -20.8814  -11.8924 C   0  0  0  0  0  0  0  0  0  0  0  0
   26.6266  -20.5457  -10.6132 C   0  0  0  0  0  0  0  0  0  0  0  0
   28.3542  -20.7356  -17.0108 O   0  0  0  0  0  0  0  0  0  0  0  0
  2  1  1  6
  2  8  1  0
  2  3  1  0
  3  4  1  0
  4  5  1  0
  5  6  1  0
  6  7  1  0
  8  9  2  0
 11 10  1  6
 11 12  1  0
 13 11  1  0
 13 14  1  1
 14  8  1  0
 15 13  1  0
 16 15  2  0
 18 17  1  0
 18 19  2  0
 20 19  1  0
 21 22  1  0
 21 20  2  0
 23 22  1  6
 23 24  1  0
 24 15  1  0
 25 23  1  0
 25 29  1  0
 26 25  2  0
 27 28  2  0
 27 21  1  0
 28 18  1  0
M  END
$$$$
