KVY.pdb
     RDKit          3D

 29 29  0  0  1  0  0  0  0  0999 V2000
   21.9779  -16.1761  -18.9091 N   0  0  0  0  0  0  0  0  0  0  0  0
   22.5042  -16.0844  -17.5795 C   0  0  1  0  0  0  0  0  0  0  0  0
   21.4801  -16.3931  -16.5121 C   0  0  0  0  0  0  0  0  0  0  0  0
   20.3241  -15.4681  -16.4720 C   0  0  0  0  0  0  0  0  0  0  0  0
   19.2737  -15.7149  -15.4534 C   0  0  0  0  0  0  0  0  0  0  0  0
   17.8765  -15.8203  -15.9544 C   0  0  0  0  0  0  0  0  0  0  0  0
   17.4679  -17.0968  -16.4151 N   0  0  0  0  0  0  0  0  0  0  0  0
   23.6419  -17.0243  -17.3762 C   0  0  0  0  0  0  0  0  0  0  0  0
   23.5706  -18.1769  -17.8781 O   0  0  0  0  0  0  0  0  0  0  0  0
   27.5794  -15.7303  -16.4583 C   0  0  0  0  0  0  0  0  0  0  0  0
   27.2410  -17.1052  -17.0104 C   0  0  1  0  0  0  0  0  0  0  0  0
   28.3710  -18.0802  -16.8650 C   0  0  0  0  0  0  0  0  0  0  0  0
   25.9324  -17.6136  -16.5047 C   0  0  2  0  0  0  0  0  0  0  0  0
   24.8099  -16.7431  -16.6651 N   0  0  0  0  0  0  0  0  0  0  0  0
   26.1111  -18.0571  -15.0967 C   0  0  0  0  0  0  0  0  0  0  0  0
   26.0717  -17.2126  -14.1364 O   0  0  0  0  0  0  0  0  0  0  0  0
   25.9536  -20.6125   -7.0153 O   0  0  0  0  0  0  0  0  0  0  0  0
   25.7949  -20.2890   -8.3585 C   0  0  0  0  0  0  0  0  0  0  0  0
   24.9619  -21.0421   -9.1585 C   0  0  0  0  0  0  0  0  0  0  0  0
   24.8129  -20.7143  -10.4812 C   0  0  0  0  0  0  0  0  0  0  0  0
   25.4747  -19.6336  -11.0754 C   0  0  0  0  0  0  0  0  0  0  0  0
   25.2975  -19.3008  -12.5038 C   0  0  0  0  0  0  0  0  0  0  0  0
   26.4571  -19.8162  -13.3133 C   0  0  2  0  0  0  0  0  0  0  0  0
   26.3323  -19.4040  -14.7106 N   0  0  0  0  0  0  0  0  0  0  0  0
   26.7317  -21.2444  -13.1881 C   0  0  0  0  0  0  0  0  0  0  0  0
   26.1543  -22.0761  -13.9129 O   0  0  0  0  0  0  0  0  0  0  0  0
   26.3143  -18.8803  -10.2541 C   0  0  0  0  0  0  0  0  0  0  0  0
   26.4455  -19.2272   -8.9408 C   0  0  0  0  0  0  0  0  0  0  0  0
   27.6449  -21.7071  -12.2557 O   0  0  0  0  0  0  0  0  0  0  0  0
  2  1  1  6
  2  8  1  0
  2  3  1  0
  3  4  1  0
  4  5  1  0
  5  6  1  0
  6  7  1  0
  8  9  2  0
 11 10  1  1
 11 12  1  0
 13 11  1  0
 13 14  1  1
 14  8  1  0
 15 13  1  0
 16 15  2  0
 18 17  1  0
 18 19  2  0
 20 19  1  0
 21 22  1  0
 21 20  2  0
 23 22  1  1
 23 24  1  0
 24 15  1  0
 25 23  1  0
 25 29  1  0
 26 25  2  0
 27 28  2  0
 27 21  1  0
 28 18  1  0
M  END
$$$$
