KVY.pdb
     RDKit          3D

 29 29  0  0  1  0  0  0  0  0999 V2000
   20.4099  -14.5197  -18.4921 N   0  0  0  0  0  0  0  0  0  0  0  0
   19.7228  -13.2635  -18.4365 C   0  0  1  0  0  0  0  0  0  0  0  0
   18.5141  -13.2866  -17.5300 C   0  0  0  0  0  0  0  0  0  0  0  0
   17.4789  -14.2800  -17.8974 C   0  0  0  0  0  0  0  0  0  0  0  0
   16.9615  -15.1698  -16.8285 C   0  0  0  0  0  0  0  0  0  0  0  0
   15.7844  -16.0102  -17.1779 C   0  0  0  0  0  0  0  0  0  0  0  0
   15.2716  -16.8351  -16.1458 N   0  0  0  0  0  0  0  0  0  0  0  0
   20.6137  -12.1746  -17.9469 C   0  0  0  0  0  0  0  0  0  0  0  0
   21.6249  -12.4829  -17.2627 O   0  0  0  0  0  0  0  0  0  0  0  0
   22.7617   -9.5156  -19.7576 C   0  0  0  0  0  0  0  0  0  0  0  0
   21.7940   -8.8324  -18.8055 C   0  0  1  0  0  0  0  0  0  0  0  0
   20.7108   -8.0829  -19.5221 C   0  0  0  0  0  0  0  0  0  0  0  0
   21.2934   -9.7558  -17.7456 C   0  0  2  0  0  0  0  0  0  0  0  0
   20.4313  -10.8103  -18.1797 N   0  0  0  0  0  0  0  0  0  0  0  0
   20.6917   -8.9416  -16.6565 C   0  0  0  0  0  0  0  0  0  0  0  0
   19.4331   -8.7131  -16.6317 O   0  0  0  0  0  0  0  0  0  0  0  0
   18.7706   -4.9996   -9.0846 O   0  0  0  0  0  0  0  0  0  0  0  0
   19.4167   -5.7096  -10.0910 C   0  0  0  0  0  0  0  0  0  0  0  0
   20.3236   -5.0754  -10.9133 C   0  0  0  0  0  0  0  0  0  0  0  0
   20.9546   -5.7849  -11.9021 C   0  0  0  0  0  0  0  0  0  0  0  0
   20.7227   -7.1468  -12.1262 C   0  0  0  0  0  0  0  0  0  0  0  0
   21.4154   -7.8894  -13.1991 C   0  0  0  0  0  0  0  0  0  0  0  0
   20.8134   -7.5637  -14.5397 C   0  0  2  0  0  0  0  0  0  0  0  0
   21.4328   -8.3695  -15.5909 N   0  0  0  0  0  0  0  0  0  0  0  0
   20.7750   -6.1470  -14.8892 C   0  0  0  0  0  0  0  0  0  0  0  0
   19.7178   -5.4939  -14.8108 O   0  0  0  0  0  0  0  0  0  0  0  0
   19.8026   -7.7757  -11.2866 C   0  0  0  0  0  0  0  0  0  0  0  0
   19.1879   -7.0473  -10.3099 C   0  0  0  0  0  0  0  0  0  0  0  0
   21.9195   -5.4957  -15.3176 O   0  0  0  0  0  0  0  0  0  0  0  0
  2  1  1  1
  2  8  1  0
  2  3  1  0
  3  4  1  0
  4  5  1  0
  5  6  1  0
  6  7  1  0
  8  9  2  0
 11 10  1  6
 11 12  1  0
 13 11  1  0
 13 14  1  6
 14  8  1  0
 15 13  1  0
 16 15  2  0
 18 17  1  0
 18 19  2  0
 20 19  1  0
 21 22  1  0
 21 20  2  0
 23 22  1  1
 23 24  1  0
 24 15  1  0
 25 23  1  0
 25 29  1  0
 26 25  2  0
 27 28  2  0
 27 21  1  0
 28 18  1  0
M  END
$$$$
