LET.pdb
     RDKit          3D

 25 24  0  0  1  0  0  0  0  0999 V2000
    8.8974  -13.3166   18.3874 C   0  0  0  0  0  0  0  0  0  0  0  0
    7.6980  -13.5547   19.3154 C   0  0  2  0  0  0  0  0  0  0  0  0
    7.1769  -12.2303   19.7863 C   0  0  0  0  0  0  0  0  0  0  0  0
    8.1846  -14.4621   20.3958 C   0  0  0  0  0  0  0  0  0  0  0  0
    8.7117  -15.7973   19.8841 C   0  0  2  0  0  0  0  0  0  0  0  0
    7.6479  -16.5479   19.2749 N   0  0  0  0  0  0  0  0  0  0  0  0
    9.1953  -16.5233   21.0852 C   0  0  0  0  0  0  0  0  0  0  0  0
    8.3940  -17.1410   21.8433 O   0  0  0  0  0  0  0  0  0  0  0  0
   10.5729  -16.5209   21.3816 N   0  0  0  0  0  0  0  0  0  0  0  0
   11.2051  -17.2223   22.4486 C   0  0  1  0  0  0  0  0  0  0  0  0
   12.6983  -17.4425   22.2912 C   0  0  0  0  0  0  0  0  0  0  0  0
   13.1972  -18.2439   23.4440 C   0  0  0  0  0  0  0  0  0  0  0  0
   14.5681  -18.8009   23.1681 C   0  0  0  0  0  0  0  0  0  0  0  0
   15.4937  -18.0708   22.7561 O   0  0  0  0  0  0  0  0  0  0  0  0
   10.7903  -16.7211   23.7540 C   0  0  0  0  0  0  0  0  0  0  0  0
   11.2588  -15.6368   24.2466 O   0  0  0  0  0  0  0  0  0  0  0  0
   14.7792  -20.1425   23.3817 O   0  0  0  0  0  0  0  0  0  0  0  0
    7.7230  -15.3313   25.1317 C   0  0  0  0  0  0  0  0  0  0  0  0
    8.0432  -16.5183   25.9741 C   0  0  1  0  0  0  0  0  0  0  0  0
    7.3332  -17.6204   25.4870 O   0  0  0  0  0  0  0  0  0  0  0  0
    9.5116  -16.9039   25.9303 C   0  0  2  0  0  0  0  0  0  0  0  0
    9.8383  -17.3779   24.5959 N   0  0  0  0  0  0  0  0  0  0  0  0
    9.8482  -17.9179   26.9626 C   0  0  0  0  0  0  0  0  0  0  0  0
    9.7406  -17.6826   28.3257 O   0  0  0  0  0  0  0  0  0  0  0  0
   10.2527  -19.0529   26.6033 O   0  0  0  0  0  0  0  0  0  0  0  0
  2  1  1  6
  2  3  1  0
  4  2  1  0
  4  5  1  0
  5  6  1  1
  5  7  1  0
  7  8  2  0
  9  7  1  0
  9 10  1  0
 10 11  1  6
 12 13  1  0
 12 11  1  0
 13 14  2  0
 15 10  1  0
 15 16  2  0
 17 13  1  0
 19 18  1  6
 19 21  1  0
 20 19  1  0
 21 22  1  6
 22 15  1  0
 23 21  1  0
 24 23  1  0
 25 23  2  0
M  END
$$$$
