LET.pdb
     RDKit          3D

 25 24  0  0  1  0  0  0  0  0999 V2000
    8.8434  -13.0091   19.3818 C   0  0  0  0  0  0  0  0  0  0  0  0
    7.5504  -13.3917   20.1156 C   0  0  2  0  0  0  0  0  0  0  0  0
    6.7754  -12.1446   20.4179 C   0  0  0  0  0  0  0  0  0  0  0  0
    7.9710  -14.1793   21.3116 C   0  0  0  0  0  0  0  0  0  0  0  0
    8.7193  -15.4619   20.9690 C   0  0  2  0  0  0  0  0  0  0  0  0
    7.8481  -16.3730   20.2784 N   0  0  0  0  0  0  0  0  0  0  0  0
    9.1127  -16.0555   22.2714 C   0  0  0  0  0  0  0  0  0  0  0  0
    8.2556  -16.5865   23.0342 O   0  0  0  0  0  0  0  0  0  0  0  0
   10.4668  -16.0241   22.6604 N   0  0  0  0  0  0  0  0  0  0  0  0
   11.0062  -16.5437   23.8724 C   0  0  1  0  0  0  0  0  0  0  0  0
   12.3488  -17.2395   23.7443 C   0  0  0  0  0  0  0  0  0  0  0  0
   12.2446  -18.3154   22.7189 C   0  0  0  0  0  0  0  0  0  0  0  0
   13.5713  -18.9927   22.5027 C   0  0  0  0  0  0  0  0  0  0  0  0
   14.0184  -19.8202   23.3243 O   0  0  0  0  0  0  0  0  0  0  0  0
   10.9104  -15.5861   24.9683 C   0  0  0  0  0  0  0  0  0  0  0  0
   11.5267  -14.4646   24.9475 O   0  0  0  0  0  0  0  0  0  0  0  0
   14.2849  -18.6770   21.3709 O   0  0  0  0  0  0  0  0  0  0  0  0
    8.7940  -13.1255   26.1470 C   0  0  0  0  0  0  0  0  0  0  0  0
    8.8924  -14.0676   27.2976 C   0  0  1  0  0  0  0  0  0  0  0  0
    7.8331  -14.9780   27.2255 O   0  0  0  0  0  0  0  0  0  0  0  0
   10.1665  -14.8942   27.2862 C   0  0  2  0  0  0  0  0  0  0  0  0
   10.1342  -15.8005   26.1507 N   0  0  0  0  0  0  0  0  0  0  0  0
   10.3592  -15.6309   28.5619 C   0  0  0  0  0  0  0  0  0  0  0  0
   10.5613  -15.0022   29.7821 O   0  0  0  0  0  0  0  0  0  0  0  0
   10.3417  -16.8882   28.5565 O   0  0  0  0  0  0  0  0  0  0  0  0
  2  1  1  1
  2  3  1  0
  4  2  1  0
  4  5  1  0
  5  6  1  1
  5  7  1  0
  7  8  2  0
  9  7  1  0
  9 10  1  0
 10 11  1  6
 12 13  1  0
 12 11  1  0
 13 14  2  0
 15 10  1  0
 15 16  2  0
 17 13  1  0
 19 18  1  6
 19 21  1  0
 20 19  1  0
 21 22  1  6
 22 15  1  0
 23 21  1  0
 24 23  1  0
 25 23  2  0
M  END
$$$$
