LET.pdb
     RDKit          3D

 25 24  0  0  1  0  0  0  0  0999 V2000
    8.8419  -13.4602   18.9391 C   0  0  0  0  0  0  0  0  0  0  0  0
    7.6251  -13.4291   19.8746 C   0  0  2  0  0  0  0  0  0  0  0  0
    7.1674  -12.0101   20.0303 C   0  0  0  0  0  0  0  0  0  0  0  0
    8.0576  -14.0953   21.1381 C   0  0  0  0  0  0  0  0  0  0  0  0
    8.4395  -15.5598   20.9596 C   0  0  2  0  0  0  0  0  0  0  0  0
    7.3038  -16.3149   20.5053 N   0  0  0  0  0  0  0  0  0  0  0  0
    8.8350  -16.0374   22.3082 C   0  0  0  0  0  0  0  0  0  0  0  0
    7.9693  -16.4129   23.1496 O   0  0  0  0  0  0  0  0  0  0  0  0
   10.2011  -16.0711   22.6523 N   0  0  0  0  0  0  0  0  0  0  0  0
   10.7508  -16.5752   23.8663 C   0  0  1  0  0  0  0  0  0  0  0  0
   12.0901  -17.2765   23.7352 C   0  0  0  0  0  0  0  0  0  0  0  0
   11.9811  -18.3471   22.7047 C   0  0  0  0  0  0  0  0  0  0  0  0
   13.3051  -19.0284   22.4842 C   0  0  0  0  0  0  0  0  0  0  0  0
   13.6999  -19.9389   23.2423 O   0  0  0  0  0  0  0  0  0  0  0  0
   10.6681  -15.6021   24.9495 C   0  0  0  0  0  0  0  0  0  0  0  0
   11.5769  -14.7223   25.1444 O   0  0  0  0  0  0  0  0  0  0  0  0
   14.0757  -18.6218   21.4208 O   0  0  0  0  0  0  0  0  0  0  0  0
    7.8809  -13.0879   25.8684 C   0  0  0  0  0  0  0  0  0  0  0  0
    8.1828  -13.9449   27.0497 C   0  0  1  0  0  0  0  0  0  0  0  0
    7.2585  -14.9937   27.0927 O   0  0  0  0  0  0  0  0  0  0  0  0
    9.5565  -14.5896   26.9852 C   0  0  2  0  0  0  0  0  0  0  0  0
    9.5855  -15.5355   25.8825 N   0  0  0  0  0  0  0  0  0  0  0  0
    9.9218  -15.2426   28.2687 C   0  0  0  0  0  0  0  0  0  0  0  0
   10.0534  -14.5520   29.4649 O   0  0  0  0  0  0  0  0  0  0  0  0
   10.1260  -16.4831   28.2932 O   0  0  0  0  0  0  0  0  0  0  0  0
  2  1  1  6
  2  3  1  0
  4  2  1  0
  4  5  1  0
  5  6  1  1
  5  7  1  0
  7  8  2  0
  9  7  1  0
  9 10  1  0
 10 11  1  6
 12 13  1  0
 12 11  1  0
 13 14  2  0
 15 10  1  0
 15 16  2  0
 17 13  1  0
 19 18  1  6
 19 21  1  0
 20 19  1  0
 21 22  1  6
 22 15  1  0
 23 21  1  0
 24 23  1  0
 25 23  2  0
M  END
$$$$
