LET.pdb
     RDKit          3D

 25 24  0  0  1  0  0  0  0  0999 V2000
    9.2367  -13.4233   18.9759 C   0  0  0  0  0  0  0  0  0  0  0  0
    7.8452  -13.5403   19.6138 C   0  0  2  0  0  0  0  0  0  0  0  0
    7.2902  -12.1641   19.8261 C   0  0  0  0  0  0  0  0  0  0  0  0
    8.0264  -14.3468   20.8565 C   0  0  0  0  0  0  0  0  0  0  0  0
    8.6182  -15.7293   20.6095 C   0  0  2  0  0  0  0  0  0  0  0  0
    7.6413  -16.5813   19.9881 N   0  0  0  0  0  0  0  0  0  0  0  0
    8.9514  -16.2675   21.9521 C   0  0  0  0  0  0  0  0  0  0  0  0
    8.0445  -16.6150   22.7616 O   0  0  0  0  0  0  0  0  0  0  0  0
   10.3042  -16.3913   22.3269 N   0  0  0  0  0  0  0  0  0  0  0  0
   10.7901  -16.8539   23.5838 C   0  0  1  0  0  0  0  0  0  0  0  0
   12.1314  -17.5626   23.5448 C   0  0  0  0  0  0  0  0  0  0  0  0
   12.4433  -18.0913   24.9025 C   0  0  0  0  0  0  0  0  0  0  0  0
   13.7723  -18.7977   24.9203 C   0  0  0  0  0  0  0  0  0  0  0  0
   14.1731  -19.4503   23.9338 O   0  0  0  0  0  0  0  0  0  0  0  0
   10.6573  -15.8432   24.6269 C   0  0  0  0  0  0  0  0  0  0  0  0
   11.1948  -14.6861   24.5253 O   0  0  0  0  0  0  0  0  0  0  0  0
   14.5408  -18.7071   26.0567 O   0  0  0  0  0  0  0  0  0  0  0  0
    8.7076  -13.2416   28.0409 C   0  0  0  0  0  0  0  0  0  0  0  0
    8.6859  -14.3341   27.0275 C   0  0  1  0  0  0  0  0  0  0  0  0
    8.4932  -13.7703   25.7622 O   0  0  0  0  0  0  0  0  0  0  0  0
    9.9905  -15.1083   26.9551 C   0  0  2  0  0  0  0  0  0  0  0  0
    9.9281  -16.0404   25.8419 N   0  0  0  0  0  0  0  0  0  0  0  0
   10.2901  -15.8080   28.2310 C   0  0  0  0  0  0  0  0  0  0  0  0
   10.6234  -15.1454   29.4036 O   0  0  0  0  0  0  0  0  0  0  0  0
   10.2446  -17.0639   28.2710 O   0  0  0  0  0  0  0  0  0  0  0  0
  2  1  1  1
  2  3  1  0
  4  2  1  0
  4  5  1  0
  5  6  1  1
  5  7  1  0
  7  8  2  0
  9  7  1  0
  9 10  1  0
 10 11  1  6
 12 13  1  0
 12 11  1  0
 13 14  2  0
 15 10  1  0
 15 16  2  0
 17 13  1  0
 19 18  1  1
 19 21  1  0
 20 19  1  0
 21 22  1  6
 22 15  1  0
 23 21  1  0
 24 23  1  0
 25 23  2  0
M  END
$$$$
