LET.pdb
     RDKit          3D

 25 24  0  0  1  0  0  0  0  0999 V2000
    8.8419  -13.3349   18.9554 C   0  0  0  0  0  0  0  0  0  0  0  0
    7.6353  -13.5482   19.8802 C   0  0  2  0  0  0  0  0  0  0  0  0
    6.9961  -12.2214   20.1597 C   0  0  0  0  0  0  0  0  0  0  0  0
    8.1566  -14.2637   21.0819 C   0  0  0  0  0  0  0  0  0  0  0  0
    8.7856  -15.6153   20.7659 C   0  0  2  0  0  0  0  0  0  0  0  0
    7.7941  -16.5095   20.2334 N   0  0  0  0  0  0  0  0  0  0  0  0
    9.2717  -16.1438   22.0651 C   0  0  0  0  0  0  0  0  0  0  0  0
    8.4705  -16.6219   22.9183 O   0  0  0  0  0  0  0  0  0  0  0  0
   10.6518  -16.1097   22.3481 N   0  0  0  0  0  0  0  0  0  0  0  0
   11.2774  -16.5713   23.5421 C   0  0  1  0  0  0  0  0  0  0  0  0
   12.7147  -17.0338   23.3895 C   0  0  0  0  0  0  0  0  0  0  0  0
   13.1934  -17.5759   24.6922 C   0  0  0  0  0  0  0  0  0  0  0  0
   14.6405  -17.9826   24.6147 C   0  0  0  0  0  0  0  0  0  0  0  0
   15.5198  -17.1812   24.2350 O   0  0  0  0  0  0  0  0  0  0  0  0
   11.0341  -15.6765   24.6678 C   0  0  0  0  0  0  0  0  0  0  0  0
   11.6800  -14.5819   24.8187 O   0  0  0  0  0  0  0  0  0  0  0  0
   14.9744  -19.2668   24.9745 O   0  0  0  0  0  0  0  0  0  0  0  0
    8.4651  -13.4122   25.7412 C   0  0  0  0  0  0  0  0  0  0  0  0
    8.5975  -14.3952   26.8534 C   0  0  1  0  0  0  0  0  0  0  0  0
    7.6388  -15.3992   26.6830 O   0  0  0  0  0  0  0  0  0  0  0  0
    9.9462  -15.0933   26.8772 C   0  0  2  0  0  0  0  0  0  0  0  0
   10.0695  -15.9279   25.6939 N   0  0  0  0  0  0  0  0  0  0  0  0
   10.1379  -15.8841   28.1201 C   0  0  0  0  0  0  0  0  0  0  0  0
   10.3199  -17.2595   28.1280 O   0  0  0  0  0  0  0  0  0  0  0  0
   10.1384  -15.2957   29.2314 O   0  0  0  0  0  0  0  0  0  0  0  0
  2  1  1  6
  2  3  1  0
  4  2  1  0
  4  5  1  0
  5  6  1  1
  5  7  1  0
  7  8  2  0
  9  7  1  0
  9 10  1  0
 10 11  1  6
 12 13  1  0
 12 11  1  0
 13 14  2  0
 15 10  1  0
 15 16  2  0
 17 13  1  0
 19 18  1  6
 19 21  1  0
 20 19  1  0
 21 22  1  6
 22 15  1  0
 23 21  1  0
 24 23  1  0
 25 23  2  0
M  END
$$$$
