LET.pdb
     RDKit          3D

 25 24  0  0  1  0  0  0  0  0999 V2000
    7.1477  -12.2312   22.0240 C   0  0  0  0  0  0  0  0  0  0  0  0
    7.9575  -13.4647   21.6005 C   0  0  2  0  0  0  0  0  0  0  0  0
    8.6760  -13.1590   20.3208 C   0  0  0  0  0  0  0  0  0  0  0  0
    6.9833  -14.5928   21.5238 C   0  0  0  0  0  0  0  0  0  0  0  0
    7.6291  -15.9420   21.2322 C   0  0  2  0  0  0  0  0  0  0  0  0
    6.6160  -16.9424   21.0345 N   0  0  0  0  0  0  0  0  0  0  0  0
    8.4171  -16.2785   22.4442 C   0  0  0  0  0  0  0  0  0  0  0  0
    7.8508  -16.6618   23.5076 O   0  0  0  0  0  0  0  0  0  0  0  0
    9.8213  -16.1672   22.4041 N   0  0  0  0  0  0  0  0  0  0  0  0
   10.7296  -16.6115   23.4080 C   0  0  1  0  0  0  0  0  0  0  0  0
   12.0904  -17.0579   22.9062 C   0  0  0  0  0  0  0  0  0  0  0  0
   11.9329  -18.3165   22.1243 C   0  0  0  0  0  0  0  0  0  0  0  0
   13.2179  -19.0994   22.0870 C   0  0  0  0  0  0  0  0  0  0  0  0
   14.0755  -18.8962   21.2022 O   0  0  0  0  0  0  0  0  0  0  0  0
   10.7607  -15.7106   24.5546 C   0  0  0  0  0  0  0  0  0  0  0  0
   11.4343  -14.6224   24.5465 O   0  0  0  0  0  0  0  0  0  0  0  0
   13.4272  -20.0508   23.0571 O   0  0  0  0  0  0  0  0  0  0  0  0
    8.7439  -13.2762   25.9564 C   0  0  0  0  0  0  0  0  0  0  0  0
    8.9261  -14.2454   27.0738 C   0  0  1  0  0  0  0  0  0  0  0  0
    7.8534  -15.1428   27.0704 O   0  0  0  0  0  0  0  0  0  0  0  0
   10.1846  -15.0847   26.9381 C   0  0  2  0  0  0  0  0  0  0  0  0
   10.0560  -15.9485   25.7766 N   0  0  0  0  0  0  0  0  0  0  0  0
   10.4613  -15.8696   28.1688 C   0  0  0  0  0  0  0  0  0  0  0  0
   10.4813  -17.2565   28.1999 O   0  0  0  0  0  0  0  0  0  0  0  0
   10.6916  -15.2649   29.2470 O   0  0  0  0  0  0  0  0  0  0  0  0
  2  1  1  6
  2  3  1  0
  4  2  1  0
  4  5  1  0
  5  6  1  1
  5  7  1  0
  7  8  2  0
  9  7  1  0
  9 10  1  0
 10 11  1  6
 12 13  1  0
 12 11  1  0
 13 14  2  0
 15 10  1  0
 15 16  2  0
 17 13  1  0
 19 18  1  6
 19 21  1  0
 20 19  1  0
 21 22  1  6
 22 15  1  0
 23 21  1  0
 24 23  1  0
 25 23  2  0
M  END
$$$$
