LET.pdb
     RDKit          3D

 25 24  0  0  1  0  0  0  0  0999 V2000
    9.1003  -13.1680   18.8205 C   0  0  0  0  0  0  0  0  0  0  0  0
    7.6760  -13.2640   19.3851 C   0  0  2  0  0  0  0  0  0  0  0  0
    7.1059  -11.8826   19.5043 C   0  0  0  0  0  0  0  0  0  0  0  0
    7.7903  -14.0131   20.6709 C   0  0  0  0  0  0  0  0  0  0  0  0
    8.3360  -15.4269   20.5105 C   0  0  2  0  0  0  0  0  0  0  0  0
    7.3949  -16.2413   19.7912 N   0  0  0  0  0  0  0  0  0  0  0  0
    8.4860  -15.9566   21.8890 C   0  0  0  0  0  0  0  0  0  0  0  0
    7.4764  -16.2012   22.6096 O   0  0  0  0  0  0  0  0  0  0  0  0
    9.7788  -16.1893   22.3992 N   0  0  0  0  0  0  0  0  0  0  0  0
   10.0938  -16.7042   23.6899 C   0  0  1  0  0  0  0  0  0  0  0  0
   11.2877  -17.6393   23.7463 C   0  0  0  0  0  0  0  0  0  0  0  0
   11.4179  -18.1809   25.1283 C   0  0  0  0  0  0  0  0  0  0  0  0
   12.6085  -19.0943   25.2459 C   0  0  0  0  0  0  0  0  0  0  0  0
   12.6576  -20.1784   24.6278 O   0  0  0  0  0  0  0  0  0  0  0  0
   10.0764  -15.6645   24.7125 C   0  0  0  0  0  0  0  0  0  0  0  0
   10.9901  -14.7717   24.7904 O   0  0  0  0  0  0  0  0  0  0  0  0
   13.6488  -18.7044   26.0557 O   0  0  0  0  0  0  0  0  0  0  0  0
    7.4951  -12.9660   25.5624 C   0  0  0  0  0  0  0  0  0  0  0  0
    7.7420  -13.8070   26.7678 C   0  0  1  0  0  0  0  0  0  0  0  0
    6.7698  -14.8110   26.8225 O   0  0  0  0  0  0  0  0  0  0  0  0
    9.0852  -14.5153   26.7378 C   0  0  2  0  0  0  0  0  0  0  0  0
    9.0577  -15.5417   25.7093 N   0  0  0  0  0  0  0  0  0  0  0  0
    9.4393  -15.0859   28.0630 C   0  0  0  0  0  0  0  0  0  0  0  0
    9.5887  -14.3173   29.2084 O   0  0  0  0  0  0  0  0  0  0  0  0
    9.6167  -16.3259   28.1730 O   0  0  0  0  0  0  0  0  0  0  0  0
  2  1  1  1
  2  3  1  0
  4  2  1  0
  4  5  1  0
  5  6  1  6
  5  7  1  0
  7  8  2  0
  9  7  1  0
  9 10  1  0
 10 11  1  6
 12 13  1  0
 12 11  1  0
 13 14  2  0
 15 10  1  0
 15 16  2  0
 17 13  1  0
 19 18  1  6
 19 21  1  0
 20 19  1  0
 21 22  1  6
 22 15  1  0
 23 21  1  0
 24 23  1  0
 25 23  2  0
M  END
$$$$
