LET.pdb
     RDKit          3D

 25 24  0  0  1  0  0  0  0  0999 V2000
    8.9780  -13.4753   19.1037 C   0  0  0  0  0  0  0  0  0  0  0  0
    7.7638  -13.5589   20.0393 C   0  0  2  0  0  0  0  0  0  0  0  0
    7.2067  -12.1814   20.2376 C   0  0  0  0  0  0  0  0  0  0  0  0
    8.2448  -14.2306   21.2823 C   0  0  0  0  0  0  0  0  0  0  0  0
    8.8255  -15.6192   21.0436 C   0  0  2  0  0  0  0  0  0  0  0  0
    7.8240  -16.4838   20.4818 N   0  0  0  0  0  0  0  0  0  0  0  0
    9.2123  -16.1268   22.3837 C   0  0  0  0  0  0  0  0  0  0  0  0
    8.3455  -16.5663   23.1924 O   0  0  0  0  0  0  0  0  0  0  0  0
   10.5711  -16.1166   22.7569 N   0  0  0  0  0  0  0  0  0  0  0  0
   11.1268  -16.7103   23.9269 C   0  0  1  0  0  0  0  0  0  0  0  0
   12.4394  -17.4450   23.7260 C   0  0  0  0  0  0  0  0  0  0  0  0
   12.1736  -18.7379   23.0347 C   0  0  0  0  0  0  0  0  0  0  0  0
   13.4491  -19.5010   22.7966 C   0  0  0  0  0  0  0  0  0  0  0  0
   14.1560  -19.2843   21.7902 O   0  0  0  0  0  0  0  0  0  0  0  0
   11.0973  -15.8021   25.0676 C   0  0  0  0  0  0  0  0  0  0  0  0
   11.8364  -14.7589   25.1259 O   0  0  0  0  0  0  0  0  0  0  0  0
   13.8205  -20.4494   23.7200 O   0  0  0  0  0  0  0  0  0  0  0  0
    9.0123  -13.2755   26.5161 C   0  0  0  0  0  0  0  0  0  0  0  0
    9.1409  -14.3202   27.5712 C   0  0  1  0  0  0  0  0  0  0  0  0
    8.0493  -15.1897   27.4787 O   0  0  0  0  0  0  0  0  0  0  0  0
   10.3841  -15.1784   27.4144 C   0  0  2  0  0  0  0  0  0  0  0  0
   10.2567  -15.9831   26.2111 N   0  0  0  0  0  0  0  0  0  0  0  0
   10.6250  -16.0266   28.6101 C   0  0  0  0  0  0  0  0  0  0  0  0
   10.8399  -15.5105   29.8800 O   0  0  0  0  0  0  0  0  0  0  0  0
   10.6387  -17.2778   28.4859 O   0  0  0  0  0  0  0  0  0  0  0  0
  2  1  1  6
  2  3  1  0
  4  2  1  0
  4  5  1  0
  5  6  1  1
  5  7  1  0
  7  8  2  0
  9  7  1  0
  9 10  1  0
 10 11  1  6
 12 13  1  0
 12 11  1  0
 13 14  2  0
 15 10  1  0
 15 16  2  0
 17 13  1  0
 19 18  1  6
 19 21  1  0
 20 19  1  0
 21 22  1  6
 22 15  1  0
 23 21  1  0
 24 23  1  0
 25 23  2  0
M  END
$$$$
