GYE.pdb
     RDKit          3D

 26 26  0  0  1  0  0  0  0  0999 V2000
   23.3943  -20.6576   -8.0766 N   0  0  0  0  0  0  0  0  0  0  0  0
   24.5301  -21.0971   -8.8604 C   0  0  0  0  0  0  0  0  0  0  0  0
   24.5813  -20.4045  -10.1782 C   0  0  0  0  0  0  0  0  0  0  0  0
   23.6695  -19.6022  -10.5326 O   0  0  0  0  0  0  0  0  0  0  0  0
   28.5413  -17.4126  -17.5648 O   0  0  0  0  0  0  0  0  0  0  0  0
   28.2297  -18.0577  -16.3808 C   0  0  0  0  0  0  0  0  0  0  0  0
   27.5966  -17.3540  -15.3625 C   0  0  0  0  0  0  0  0  0  0  0  0
   27.2927  -18.0070  -14.1912 C   0  0  0  0  0  0  0  0  0  0  0  0
   27.5908  -19.3462  -13.9760 C   0  0  0  0  0  0  0  0  0  0  0  0
   27.2260  -19.9245  -12.7037 C   0  0  0  0  0  0  0  0  0  0  0  0
   25.7897  -19.9714  -12.3473 C   0  0  2  0  0  0  0  0  0  0  0  0
   25.6490  -20.6280  -11.0621 N   0  0  0  0  0  0  0  0  0  0  0  0
   25.0039  -20.7569  -13.3319 C   0  0  0  0  0  0  0  0  0  0  0  0
   25.0980  -22.0095  -13.4225 O   0  0  0  0  0  0  0  0  0  0  0  0
   28.2184  -20.0040  -15.0128 C   0  0  0  0  0  0  0  0  0  0  0  0
   28.5348  -19.3723  -16.1996 C   0  0  0  0  0  0  0  0  0  0  0  0
   24.1237  -20.1108  -14.1980 N   0  0  0  0  0  0  0  0  0  0  0  0
   23.3508  -20.8099  -15.2300 C   0  0  1  0  0  0  0  0  0  0  0  0
   21.9324  -20.5168  -14.9319 C   0  0  0  0  0  0  0  0  0  0  0  0
   21.3046  -21.0863  -13.7269 C   0  0  0  0  0  0  0  0  0  0  0  0
   19.8809  -20.7629  -13.5148 C   0  0  0  0  0  0  0  0  0  0  0  0
   19.5080  -19.6109  -13.1974 O   0  0  0  0  0  0  0  0  0  0  0  0
   23.8749  -20.6437  -16.5606 C   0  0  0  0  0  0  0  0  0  0  0  0
   24.4700  -19.5830  -16.9532 O   0  0  0  0  0  0  0  0  0  0  0  0
   18.9369  -21.7570  -13.6709 O   0  0  0  0  0  0  0  0  0  0  0  0
   23.7970  -21.6289  -17.5653 O   0  0  0  0  0  0  0  0  0  0  0  0
  1  2  1  0
  2  3  1  0
  3 12  1  0
  3  4  2  0
  6 16  2  0
  6  5  1  0
  7  6  1  0
  8  9  1  0
  8  7  2  0
  9 15  2  0
 10  9  1  0
 11 10  1  6
 11 13  1  0
 12 11  1  0
 13 14  2  0
 13 17  1  0
 15 16  1  0
 17 18  1  0
 18 23  1  0
 18 19  1  6
 20 21  1  0
 20 19  1  0
 21 25  1  0
 22 21  2  0
 23 26  1  0
 24 23  2  0
M  END
$$$$
