GYE.pdb
     RDKit          3D

 26 26  0  0  1  0  0  0  0  0999 V2000
   29.5040   -2.0641  -18.7626 N   0  0  0  0  0  0  0  0  0  0  0  0
   28.7847   -2.7810  -19.7951 C   0  0  0  0  0  0  0  0  0  0  0  0
   27.9748   -3.8918  -19.2214 C   0  0  0  0  0  0  0  0  0  0  0  0
   28.5267   -4.9120  -18.7162 O   0  0  0  0  0  0  0  0  0  0  0  0
   21.2890   -7.1084  -14.4204 O   0  0  0  0  0  0  0  0  0  0  0  0
   22.2521   -6.4442  -15.1596 C   0  0  0  0  0  0  0  0  0  0  0  0
   22.8280   -5.2852  -14.6516 C   0  0  0  0  0  0  0  0  0  0  0  0
   23.7838   -4.6351  -15.3964 C   0  0  0  0  0  0  0  0  0  0  0  0
   24.2037   -5.0851  -16.6413 C   0  0  0  0  0  0  0  0  0  0  0  0
   25.2128   -4.3173  -17.3330 C   0  0  0  0  0  0  0  0  0  0  0  0
   25.7134   -4.8332  -18.6274 C   0  0  2  0  0  0  0  0  0  0  0  0
   26.5721   -3.8312  -19.2285 N   0  0  0  0  0  0  0  0  0  0  0  0
   24.6060   -5.0941  -19.5811 C   0  0  0  0  0  0  0  0  0  0  0  0
   23.9839   -4.1650  -20.1605 O   0  0  0  0  0  0  0  0  0  0  0  0
   23.6056   -6.2377  -17.1052 C   0  0  0  0  0  0  0  0  0  0  0  0
   22.6433   -6.9104  -16.3777 C   0  0  0  0  0  0  0  0  0  0  0  0
   24.2212   -6.4035  -19.8633 N   0  0  0  0  0  0  0  0  0  0  0  0
   23.1837   -6.7447  -20.8424 C   0  0  1  0  0  0  0  0  0  0  0  0
   23.5378   -8.0895  -21.3450 C   0  0  0  0  0  0  0  0  0  0  0  0
   22.6865   -8.7409  -22.3558 C   0  0  0  0  0  0  0  0  0  0  0  0
   23.0646  -10.1128  -22.7450 C   0  0  0  0  0  0  0  0  0  0  0  0
   22.5167  -11.1161  -22.2351 O   0  0  0  0  0  0  0  0  0  0  0  0
   21.8462   -6.4518  -20.3973 C   0  0  0  0  0  0  0  0  0  0  0  0
   20.9968   -5.8084  -21.1028 O   0  0  0  0  0  0  0  0  0  0  0  0
   24.0478  -10.2932  -23.6962 O   0  0  0  0  0  0  0  0  0  0  0  0
   21.3289   -6.8477  -19.1475 O   0  0  0  0  0  0  0  0  0  0  0  0
  1  2  1  0
  2  3  1  0
  3 12  1  0
  3  4  2  0
  6 16  2  0
  6  5  1  0
  7  6  1  0
  8  9  1  0
  8  7  2  0
  9 15  2  0
 10  9  1  0
 11 10  1  1
 11 13  1  0
 12 11  1  0
 13 14  2  0
 13 17  1  0
 15 16  1  0
 17 18  1  0
 18 23  1  0
 18 19  1  1
 20 21  1  0
 20 19  1  0
 21 25  1  0
 22 21  2  0
 23 26  1  0
 24 23  2  0
M  END
$$$$
