GYE.pdb
     RDKit          3D

 26 26  0  0  1  0  0  0  0  0999 V2000
   27.1041  -22.7061  -17.1226 N   0  0  0  0  0  0  0  0  0  0  0  0
   27.5641  -21.7257  -16.1610 C   0  0  0  0  0  0  0  0  0  0  0  0
   26.8629  -21.8750  -14.8552 C   0  0  0  0  0  0  0  0  0  0  0  0
   25.8484  -22.6217  -14.7379 O   0  0  0  0  0  0  0  0  0  0  0  0
   25.7997  -20.0443   -6.0842 O   0  0  0  0  0  0  0  0  0  0  0  0
   26.1953  -20.2046   -7.4005 C   0  0  0  0  0  0  0  0  0  0  0  0
   27.4657  -19.7952   -7.7895 C   0  0  0  0  0  0  0  0  0  0  0  0
   27.8461  -19.9603   -9.1005 C   0  0  0  0  0  0  0  0  0  0  0  0
   27.0147  -20.5208  -10.0614 C   0  0  0  0  0  0  0  0  0  0  0  0
   27.5223  -20.6409  -11.4083 C   0  0  0  0  0  0  0  0  0  0  0  0
   26.6086  -21.1579  -12.4523 C   0  0  2  0  0  0  0  0  0  0  0  0
   27.3150  -21.1862  -13.7184 N   0  0  0  0  0  0  0  0  0  0  0  0
   25.4229  -20.2821  -12.6287 C   0  0  0  0  0  0  0  0  0  0  0  0
   25.4395  -19.2695  -13.3775 O   0  0  0  0  0  0  0  0  0  0  0  0
   25.7646  -20.9122   -9.6308 C   0  0  0  0  0  0  0  0  0  0  0  0
   25.3571  -20.7580   -8.3201 C   0  0  0  0  0  0  0  0  0  0  0  0
   24.2372  -20.5673  -11.9541 N   0  0  0  0  0  0  0  0  0  0  0  0
   22.9090  -20.2579  -12.4939 C   0  0  1  0  0  0  0  0  0  0  0  0
   22.9016  -20.8022  -13.8688 C   0  0  0  0  0  0  0  0  0  0  0  0
   22.5743  -19.9211  -15.0033 C   0  0  0  0  0  0  0  0  0  0  0  0
   21.4114  -20.3124  -15.8224 C   0  0  0  0  0  0  0  0  0  0  0  0
   20.2834  -19.7970  -15.6524 O   0  0  0  0  0  0  0  0  0  0  0  0
   21.8312  -20.5410  -11.5823 C   0  0  0  0  0  0  0  0  0  0  0  0
   20.9639  -19.6713  -11.2291 O   0  0  0  0  0  0  0  0  0  0  0  0
   21.5726  -21.2714  -16.8013 O   0  0  0  0  0  0  0  0  0  0  0  0
   21.6116  -21.8014  -10.9913 O   0  0  0  0  0  0  0  0  0  0  0  0
  1  2  1  0
  2  3  1  0
  3 12  1  0
  3  4  2  0
  6 16  2  0
  6  5  1  0
  7  6  1  0
  8  9  1  0
  8  7  2  0
  9 15  2  0
 10  9  1  0
 11 10  1  1
 11 13  1  0
 12 11  1  0
 13 14  2  0
 13 17  1  0
 15 16  1  0
 17 18  1  0
 18 23  1  0
 18 19  1  6
 20 21  1  0
 20 19  1  0
 21 25  1  0
 22 21  2  0
 23 26  1  0
 24 23  2  0
M  END
$$$$
