GYE.pdb
     RDKit          3D

 26 26  0  0  1  0  0  0  0  0999 V2000
   28.6530  -20.0425  -19.4040 N   0  0  0  0  0  0  0  0  0  0  0  0
   28.7505  -19.3075  -18.1600 C   0  0  0  0  0  0  0  0  0  0  0  0
   27.9467  -19.9517  -17.0840 C   0  0  0  0  0  0  0  0  0  0  0  0
   27.1854  -20.9313  -17.3321 O   0  0  0  0  0  0  0  0  0  0  0  0
   24.9817  -20.9828   -8.7175 O   0  0  0  0  0  0  0  0  0  0  0  0
   25.6633  -20.6084   -9.8621 C   0  0  0  0  0  0  0  0  0  0  0  0
   26.2671  -21.5818  -10.6501 C   0  0  0  0  0  0  0  0  0  0  0  0
   26.9412  -21.1960  -11.7848 C   0  0  0  0  0  0  0  0  0  0  0  0
   27.0482  -19.8701  -12.1835 C   0  0  0  0  0  0  0  0  0  0  0  0
   27.7841  -19.5846  -13.3931 C   0  0  0  0  0  0  0  0  0  0  0  0
   27.1693  -19.9610  -14.6863 C   0  0  2  0  0  0  0  0  0  0  0  0
   28.0162  -19.4835  -15.7622 N   0  0  0  0  0  0  0  0  0  0  0  0
   25.8352  -19.3347  -14.8644 C   0  0  0  0  0  0  0  0  0  0  0  0
   25.6874  -18.2100  -15.4115 O   0  0  0  0  0  0  0  0  0  0  0  0
   26.4344  -18.9393  -11.3721 C   0  0  0  0  0  0  0  0  0  0  0  0
   25.7508  -19.2994  -10.2271 C   0  0  0  0  0  0  0  0  0  0  0  0
   24.6898  -19.9925  -14.4201 N   0  0  0  0  0  0  0  0  0  0  0  0
   23.3296  -19.5404  -14.7311 C   0  0  1  0  0  0  0  0  0  0  0  0
   23.2702  -19.4419  -16.2053 C   0  0  0  0  0  0  0  0  0  0  0  0
   22.8239  -18.1885  -16.8380 C   0  0  0  0  0  0  0  0  0  0  0  0
   22.7253  -18.1966  -18.3100 C   0  0  0  0  0  0  0  0  0  0  0  0
   21.6725  -18.5339  -18.8972 O   0  0  0  0  0  0  0  0  0  0  0  0
   22.3045  -20.2344  -13.9959 C   0  0  0  0  0  0  0  0  0  0  0  0
   21.2250  -19.6767  -13.6000 O   0  0  0  0  0  0  0  0  0  0  0  0
   23.8229  -17.8224  -19.0577 O   0  0  0  0  0  0  0  0  0  0  0  0
   22.3755  -21.5971  -13.6432 O   0  0  0  0  0  0  0  0  0  0  0  0
  1  2  1  0
  2  3  1  0
  3 12  1  0
  3  4  2  0
  6 16  2  0
  6  5  1  0
  7  6  1  0
  8  9  1  0
  8  7  2  0
  9 15  2  0
 10  9  1  0
 11 10  1  1
 11 13  1  0
 12 11  1  0
 13 14  2  0
 13 17  1  0
 15 16  1  0
 17 18  1  0
 18 23  1  0
 18 19  1  6
 20 21  1  0
 20 19  1  0
 21 25  1  0
 22 21  2  0
 23 26  1  0
 24 23  2  0
M  END
$$$$
