GYE.pdb
     RDKit          3D

 26 26  0  0  1  0  0  0  0  0999 V2000
   28.6169  -21.5924  -14.1939 N   0  0  0  0  0  0  0  0  0  0  0  0
   28.1173  -20.5792  -13.2876 C   0  0  0  0  0  0  0  0  0  0  0  0
   26.8998  -21.0468  -12.5680 C   0  0  0  0  0  0  0  0  0  0  0  0
   26.4301  -22.2059  -12.7593 O   0  0  0  0  0  0  0  0  0  0  0  0
   29.2245  -20.5445   -6.1178 O   0  0  0  0  0  0  0  0  0  0  0  0
   28.1764  -20.3289   -6.9953 C   0  0  0  0  0  0  0  0  0  0  0  0
   27.4907  -21.4163   -7.5250 C   0  0  0  0  0  0  0  0  0  0  0  0
   26.4512  -21.1879   -8.3957 C   0  0  0  0  0  0  0  0  0  0  0  0
   26.0513  -19.9128   -8.7738 C   0  0  0  0  0  0  0  0  0  0  0  0
   24.9474  -19.7962   -9.6978 C   0  0  0  0  0  0  0  0  0  0  0  0
   25.0171  -20.5598  -10.9644 C   0  0  2  0  0  0  0  0  0  0  0  0
   26.2420  -20.2066  -11.6555 N   0  0  0  0  0  0  0  0  0  0  0  0
   23.8886  -20.2277  -11.8700 C   0  0  0  0  0  0  0  0  0  0  0  0
   24.0022  -19.3981  -12.8106 O   0  0  0  0  0  0  0  0  0  0  0  0
   26.7595  -18.8651   -8.2240 C   0  0  0  0  0  0  0  0  0  0  0  0
   27.8074  -19.0662   -7.3470 C   0  0  0  0  0  0  0  0  0  0  0  0
   22.6493  -20.8409  -11.6956 N   0  0  0  0  0  0  0  0  0  0  0  0
   21.6392  -20.9311  -12.7551 C   0  0  1  0  0  0  0  0  0  0  0  0
   22.3197  -21.5731  -13.9002 C   0  0  0  0  0  0  0  0  0  0  0  0
   21.8844  -22.9040  -14.3583 C   0  0  0  0  0  0  0  0  0  0  0  0
   22.2610  -23.2786  -15.7346 C   0  0  0  0  0  0  0  0  0  0  0  0
   23.4058  -23.7030  -16.0112 O   0  0  0  0  0  0  0  0  0  0  0  0
   20.3586  -21.4044  -12.2980 C   0  0  0  0  0  0  0  0  0  0  0  0
   20.2028  -22.0834  -11.2266 O   0  0  0  0  0  0  0  0  0  0  0  0
   21.3262  -23.1579  -16.7423 O   0  0  0  0  0  0  0  0  0  0  0  0
   19.1448  -21.1644  -12.9728 O   0  0  0  0  0  0  0  0  0  0  0  0
  1  2  1  0
  2  3  1  0
  3 12  1  0
  3  4  2  0
  6 16  2  0
  6  5  1  0
  7  6  1  0
  8  9  1  0
  8  7  2  0
  9 15  2  0
 10  9  1  0
 11 10  1  1
 11 13  1  0
 12 11  1  0
 13 14  2  0
 13 17  1  0
 15 16  1  0
 17 18  1  0
 18 23  1  0
 18 19  1  6
 20 21  1  0
 20 19  1  0
 21 25  1  0
 22 21  2  0
 23 26  1  0
 24 23  2  0
M  END
$$$$
