GYE.pdb
     RDKit          3D

 26 26  0  0  1  0  0  0  0  0999 V2000
   18.6610  -12.6050  -16.0677 N   0  0  0  0  0  0  0  0  0  0  0  0
   18.3698  -11.3447  -16.7189 C   0  0  0  0  0  0  0  0  0  0  0  0
   19.5930  -10.5044  -16.8476 C   0  0  0  0  0  0  0  0  0  0  0  0
   20.6777  -10.8359  -16.2871 O   0  0  0  0  0  0  0  0  0  0  0  0
   23.0036  -13.4867  -20.9922 O   0  0  0  0  0  0  0  0  0  0  0  0
   22.5393  -12.2688  -20.5274 C   0  0  0  0  0  0  0  0  0  0  0  0
   23.4483  -11.2786  -20.1722 C   0  0  0  0  0  0  0  0  0  0  0  0
   22.9735  -10.0730  -19.7120 C   0  0  0  0  0  0  0  0  0  0  0  0
   21.6187   -9.7960  -19.5841 C   0  0  0  0  0  0  0  0  0  0  0  0
   21.2382   -8.4946  -19.0864 C   0  0  0  0  0  0  0  0  0  0  0  0
   20.6923   -8.4077  -17.7129 C   0  0  2  0  0  0  0  0  0  0  0  0
   19.5695   -9.3183  -17.5985 N   0  0  0  0  0  0  0  0  0  0  0  0
   20.1880   -7.0455  -17.4063 C   0  0  0  0  0  0  0  0  0  0  0  0
   19.2437   -6.5167  -18.0503 O   0  0  0  0  0  0  0  0  0  0  0  0
   20.7541  -10.8068  -19.9478 C   0  0  0  0  0  0  0  0  0  0  0  0
   21.2041  -12.0269  -20.4132 C   0  0  0  0  0  0  0  0  0  0  0  0
   20.7615   -6.3041  -16.3750 N   0  0  0  0  0  0  0  0  0  0  0  0
   20.2928   -4.9700  -15.9852 C   0  0  1  0  0  0  0  0  0  0  0  0
   18.8223   -5.0808  -15.8764 C   0  0  0  0  0  0  0  0  0  0  0  0
   18.0382   -3.9433  -15.3647 C   0  0  0  0  0  0  0  0  0  0  0  0
   16.5795   -4.1425  -15.2710 C   0  0  0  0  0  0  0  0  0  0  0  0
   16.0015   -4.2641  -14.1673 O   0  0  0  0  0  0  0  0  0  0  0  0
   21.0674   -4.3671  -14.9319 C   0  0  0  0  0  0  0  0  0  0  0  0
   21.6932   -5.0428  -14.0458 O   0  0  0  0  0  0  0  0  0  0  0  0
   15.8339   -4.1959  -16.4308 O   0  0  0  0  0  0  0  0  0  0  0  0
   21.2261   -2.9762  -14.7698 O   0  0  0  0  0  0  0  0  0  0  0  0
  1  2  1  0
  2  3  1  0
  3 12  1  0
  3  4  2  0
  6 16  2  0
  6  5  1  0
  7  6  1  0
  8  9  1  0
  8  7  2  0
  9 15  2  0
 10  9  1  0
 11 10  1  6
 11 13  1  0
 12 11  1  0
 13 14  2  0
 13 17  1  0
 15 16  1  0
 17 18  1  0
 18 23  1  0
 18 19  1  1
 20 21  1  0
 20 19  1  0
 21 25  1  0
 22 21  2  0
 23 26  1  0
 24 23  2  0
M  END
$$$$
