GMQ.pdb
     RDKit          3D

 22 21  0  0  1  0  0  0  0  0999 V2000
   17.9864  -15.7078  -16.2324 N   0  0  0  0  0  0  0  0  0  0  0  0
   17.6238  -14.5362  -16.9887 C   0  0  0  0  0  0  0  0  0  0  0  0
   18.6648  -13.4664  -16.7932 C   0  0  0  0  0  0  0  0  0  0  0  0
   19.4996  -13.5262  -15.8511 O   0  0  0  0  0  0  0  0  0  0  0  0
   21.9045  -12.7026  -22.3578 C   0  0  0  0  0  0  0  0  0  0  0  0
   21.0753  -11.4069  -21.4016 S   0  0  0  0  0  0  0  0  0  0  0  0
   20.8470  -11.9206  -19.6760 C   0  0  0  0  0  0  0  0  0  0  0  0
   20.0952  -10.8772  -18.9149 C   0  0  0  0  0  0  0  0  0  0  0  0
   19.6910  -11.2746  -17.5344 C   0  0  2  0  0  0  0  0  0  0  0  0
   18.7379  -12.3621  -17.6598 N   0  0  0  0  0  0  0  0  0  0  0  0
   19.1843  -10.1902  -16.6953 C   0  0  0  0  0  0  0  0  0  0  0  0
   17.9754   -9.9233  -16.5513 O   0  0  0  0  0  0  0  0  0  0  0  0
   17.4035   -9.3888  -11.2327 N   0  0  0  0  0  0  0  0  0  0  0  0
   17.1533   -8.4503  -12.2691 C   0  0  0  0  0  0  0  0  0  0  0  0
   15.9356   -8.1597  -12.4850 O   0  0  0  0  0  0  0  0  0  0  0  0
   18.2441   -7.8289  -13.0710 C   0  0  0  0  0  0  0  0  0  0  0  0
   18.6666   -8.7281  -14.1636 C   0  0  0  0  0  0  0  0  0  0  0  0
   19.7319   -8.3311  -15.0741 C   0  0  2  0  0  0  0  0  0  0  0  0
   20.1223   -9.3814  -15.9941 N   0  0  0  0  0  0  0  0  0  0  0  0
   20.8983   -7.6264  -14.5907 C   0  0  0  0  0  0  0  0  0  0  0  0
   20.9467   -6.5898  -13.6811 O   0  0  0  0  0  0  0  0  0  0  0  0
   22.0271   -7.9599  -15.0196 O   0  0  0  0  0  0  0  0  0  0  0  0
  2  1  1  0
  2  3  1  0
  3 10  1  0
  4  3  2  0
  6  5  1  0
  6  7  1  0
  8  7  1  0
  9 11  1  0
  9  8  1  6
 10  9  1  0
 11 12  2  0
 14 13  1  0
 14 16  1  0
 15 14  2  0
 17 16  1  0
 18 17  1  1
 19 11  1  0
 19 18  1  0
 20 21  1  0
 20 18  1  0
 22 20  2  0
M  END
$$$$
