GMQ.pdb
     RDKit          3D

 22 21  0  0  1  0  0  0  0  0999 V2000
   30.9644  -22.1734  -10.9272 N   0  0  0  0  0  0  0  0  0  0  0  0
   30.5708  -20.9687  -10.2418 C   0  0  0  0  0  0  0  0  0  0  0  0
   29.3239  -21.2285   -9.4391 C   0  0  0  0  0  0  0  0  0  0  0  0
   28.6479  -22.2802   -9.5971 O   0  0  0  0  0  0  0  0  0  0  0  0
   27.5830  -19.2409   -3.4144 C   0  0  0  0  0  0  0  0  0  0  0  0
   29.1011  -20.0464   -3.9864 S   0  0  0  0  0  0  0  0  0  0  0  0
   28.8976  -20.6914   -5.6705 C   0  0  0  0  0  0  0  0  0  0  0  0
   27.8200  -19.9462   -6.3892 C   0  0  0  0  0  0  0  0  0  0  0  0
   27.5941  -20.3733   -7.8011 C   0  0  2  0  0  0  0  0  0  0  0  0
   28.8729  -20.3010   -8.4840 N   0  0  0  0  0  0  0  0  0  0  0  0
   26.5457  -19.6456   -8.5138 C   0  0  0  0  0  0  0  0  0  0  0  0
   26.7097  -18.5363   -9.0576 O   0  0  0  0  0  0  0  0  0  0  0  0
   25.6488  -22.6530  -13.0522 N   0  0  0  0  0  0  0  0  0  0  0  0
   25.3914  -21.2869  -13.3438 C   0  0  0  0  0  0  0  0  0  0  0  0
   25.2947  -20.9809  -14.5729 O   0  0  0  0  0  0  0  0  0  0  0  0
   25.2396  -20.2535  -12.2817 C   0  0  0  0  0  0  0  0  0  0  0  0
   25.3369  -20.8642  -10.9407 C   0  0  0  0  0  0  0  0  0  0  0  0
   24.5205  -20.3648   -9.8427 C   0  0  2  0  0  0  0  0  0  0  0  0
   25.2514  -20.2318   -8.5977 N   0  0  0  0  0  0  0  0  0  0  0  0
   23.1997  -20.8991   -9.5961 C   0  0  0  0  0  0  0  0  0  0  0  0
   22.0348  -20.6338  -10.2867 O   0  0  0  0  0  0  0  0  0  0  0  0
   23.0406  -21.7061   -8.6512 O   0  0  0  0  0  0  0  0  0  0  0  0
  2  1  1  0
  2  3  1  0
  3 10  1  0
  4  3  2  0
  6  5  1  0
  6  7  1  0
  8  7  1  0
  9 11  1  0
  9  8  1  1
 10  9  1  0
 11 12  2  0
 14 13  1  0
 14 16  1  0
 15 14  2  0
 17 16  1  0
 18 17  1  6
 19 11  1  0
 19 18  1  0
 20 21  1  0
 20 18  1  0
 22 20  2  0
M  END
$$$$
