GMQ.pdb
     RDKit          3D

 22 21  0  0  1  0  0  0  0  0999 V2000
   21.1216  -14.4711  -18.1032 N   0  0  0  0  0  0  0  0  0  0  0  0
   21.8669  -13.4588  -18.8075 C   0  0  0  0  0  0  0  0  0  0  0  0
   22.4057  -12.4530  -17.8254 C   0  0  0  0  0  0  0  0  0  0  0  0
   21.6891  -11.9920  -16.8970 O   0  0  0  0  0  0  0  0  0  0  0  0
   29.0308  -11.2621  -17.2300 C   0  0  0  0  0  0  0  0  0  0  0  0
   28.1887  -11.1577  -15.6297 S   0  0  0  0  0  0  0  0  0  0  0  0
   26.4890  -10.5539  -15.8300 C   0  0  0  0  0  0  0  0  0  0  0  0
   25.7426  -11.4066  -16.8041 C   0  0  0  0  0  0  0  0  0  0  0  0
   24.3244  -11.0036  -17.0350 C   0  0  2  0  0  0  0  0  0  0  0  0
   23.7316  -11.9947  -17.9144 N   0  0  0  0  0  0  0  0  0  0  0  0
   24.1347   -9.6417  -17.5308 C   0  0  0  0  0  0  0  0  0  0  0  0
   24.2672   -9.3065  -18.7239 O   0  0  0  0  0  0  0  0  0  0  0  0
   18.5479   -6.5123  -16.3791 N   0  0  0  0  0  0  0  0  0  0  0  0
   19.9313   -6.3509  -16.1002 C   0  0  0  0  0  0  0  0  0  0  0  0
   20.2243   -5.6143  -15.1075 O   0  0  0  0  0  0  0  0  0  0  0  0
   20.9963   -7.0005  -16.9143 C   0  0  0  0  0  0  0  0  0  0  0  0
   22.3334   -6.6861  -16.3722 C   0  0  0  0  0  0  0  0  0  0  0  0
   23.5283   -7.2503  -16.9850 C   0  0  2  0  0  0  0  0  0  0  0  0
   23.7761   -8.6260  -16.6004 N   0  0  0  0  0  0  0  0  0  0  0  0
   24.7677   -6.5063  -17.0193 C   0  0  0  0  0  0  0  0  0  0  0  0
   25.0450   -5.3520  -17.7230 O   0  0  0  0  0  0  0  0  0  0  0  0
   25.7392   -6.9186  -16.3446 O   0  0  0  0  0  0  0  0  0  0  0  0
  2  1  1  0
  2  3  1  0
  3 10  1  0
  4  3  2  0
  6  5  1  0
  6  7  1  0
  8  7  1  0
  9 11  1  0
  9  8  1  6
 10  9  1  0
 11 12  2  0
 14 13  1  0
 14 16  1  0
 15 14  2  0
 17 16  1  0
 18 17  1  1
 19 11  1  0
 19 18  1  0
 20 21  1  0
 20 18  1  0
 22 20  2  0
M  END
$$$$
