GMQ.pdb
     RDKit          3D

 22 21  0  0  1  0  0  0  0  0999 V2000
   24.8609  -25.8404  -13.0455 N   0  0  0  0  0  0  0  0  0  0  0  0
   25.4053  -24.8106  -13.8936 C   0  0  0  0  0  0  0  0  0  0  0  0
   24.9666  -23.4600  -13.3938 C   0  0  0  0  0  0  0  0  0  0  0  0
   24.0857  -23.3444  -12.5002 O   0  0  0  0  0  0  0  0  0  0  0  0
   28.2702  -18.4096  -15.4908 C   0  0  0  0  0  0  0  0  0  0  0  0
   28.7945  -19.0984  -13.8997 S   0  0  0  0  0  0  0  0  0  0  0  0
   27.5210  -20.1970  -13.2178 C   0  0  0  0  0  0  0  0  0  0  0  0
   26.2289  -20.0150  -13.9461 C   0  0  0  0  0  0  0  0  0  0  0  0
   25.1343  -20.9379  -13.5252 C   0  0  2  0  0  0  0  0  0  0  0  0
   25.5289  -22.2802  -13.9114 N   0  0  0  0  0  0  0  0  0  0  0  0
   23.8018  -20.5912  -14.0158 C   0  0  0  0  0  0  0  0  0  0  0  0
   23.3359  -20.9748  -15.1063 O   0  0  0  0  0  0  0  0  0  0  0  0
   19.2240  -21.6513  -11.4296 N   0  0  0  0  0  0  0  0  0  0  0  0
   18.5696  -20.4715  -11.8742 C   0  0  0  0  0  0  0  0  0  0  0  0
   17.2999  -20.5043  -11.8942 O   0  0  0  0  0  0  0  0  0  0  0  0
   19.3124  -19.2519  -12.2982 C   0  0  0  0  0  0  0  0  0  0  0  0
   20.7701  -19.4776  -12.2294 C   0  0  0  0  0  0  0  0  0  0  0  0
   21.5592  -19.5738  -13.4499 C   0  0  2  0  0  0  0  0  0  0  0  0
   22.9755  -19.7633  -13.2048 N   0  0  0  0  0  0  0  0  0  0  0  0
   21.3570  -18.6461  -14.5404 C   0  0  0  0  0  0  0  0  0  0  0  0
   20.3713  -18.6736  -15.5058 O   0  0  0  0  0  0  0  0  0  0  0  0
   22.1463  -17.6817  -14.6681 O   0  0  0  0  0  0  0  0  0  0  0  0
  2  1  1  0
  2  3  1  0
  3 10  1  0
  4  3  2  0
  6  5  1  0
  6  7  1  0
  8  7  1  0
  9 11  1  0
  9  8  1  6
 10  9  1  0
 11 12  2  0
 14 13  1  0
 14 16  1  0
 15 14  2  0
 17 16  1  0
 18 17  1  1
 19 11  1  0
 19 18  1  0
 20 21  1  0
 20 18  1  0
 22 20  2  0
M  END
$$$$
