GMQ.pdb
     RDKit          3D

 22 21  0  0  1  0  0  0  0  0999 V2000
   28.0919  -22.0638  -16.1093 N   0  0  0  0  0  0  0  0  0  0  0  0
   27.6747  -20.9427  -15.3059 C   0  0  0  0  0  0  0  0  0  0  0  0
   26.8640  -21.4333  -14.1360 C   0  0  0  0  0  0  0  0  0  0  0  0
   26.1679  -22.4810  -14.2121 O   0  0  0  0  0  0  0  0  0  0  0  0
   25.6666  -20.3293   -6.3903 C   0  0  0  0  0  0  0  0  0  0  0  0
   26.5064  -19.8651   -7.9265 S   0  0  0  0  0  0  0  0  0  0  0  0
   25.6841  -20.6071   -9.3643 C   0  0  0  0  0  0  0  0  0  0  0  0
   26.4803  -20.3638  -10.6052 C   0  0  0  0  0  0  0  0  0  0  0  0
   25.8933  -20.9372  -11.8517 C   0  0  2  0  0  0  0  0  0  0  0  0
   26.8585  -20.7341  -12.9166 N   0  0  0  0  0  0  0  0  0  0  0  0
   24.5667  -20.4356  -12.2056 C   0  0  0  0  0  0  0  0  0  0  0  0
   24.3442  -19.2856  -12.6315 O   0  0  0  0  0  0  0  0  0  0  0  0
   23.6564  -23.2206  -15.8623 N   0  0  0  0  0  0  0  0  0  0  0  0
   23.1509  -21.8933  -15.8482 C   0  0  0  0  0  0  0  0  0  0  0  0
   23.8488  -21.0176  -16.4481 O   0  0  0  0  0  0  0  0  0  0  0  0
   21.8747  -21.5267  -15.1730 C   0  0  0  0  0  0  0  0  0  0  0  0
   21.8726  -21.9921  -13.7716 C   0  0  0  0  0  0  0  0  0  0  0  0
   22.1676  -21.0656  -12.6871 C   0  0  2  0  0  0  0  0  0  0  0  0
   23.4513  -21.3074  -12.0582 N   0  0  0  0  0  0  0  0  0  0  0  0
   21.1704  -20.7480  -11.6893 C   0  0  0  0  0  0  0  0  0  0  0  0
   19.9787  -20.0747  -11.8653 O   0  0  0  0  0  0  0  0  0  0  0  0
   21.3649  -21.1061  -10.5047 O   0  0  0  0  0  0  0  0  0  0  0  0
  2  1  1  0
  2  3  1  0
  3 10  1  0
  4  3  2  0
  6  5  1  0
  6  7  1  0
  8  7  1  0
  9 11  1  0
  9  8  1  1
 10  9  1  0
 11 12  2  0
 14 13  1  0
 14 16  1  0
 15 14  2  0
 17 16  1  0
 18 17  1  1
 19 11  1  0
 19 18  1  0
 20 21  1  0
 20 18  1  0
 22 20  2  0
M  END
$$$$
