GMQ.pdb
     RDKit          3D

 22 21  0  0  1  0  0  0  0  0999 V2000
   31.6509  -38.1403   -7.9774 N   0  0  0  0  0  0  0  0  0  0  0  0
   30.2560  -37.8769   -7.7299 C   0  0  0  0  0  0  0  0  0  0  0  0
   30.1170  -36.9728   -6.5341 C   0  0  0  0  0  0  0  0  0  0  0  0
   31.1028  -36.7007   -5.7979 O   0  0  0  0  0  0  0  0  0  0  0  0
   25.3387  -31.2892   -3.8732 C   0  0  0  0  0  0  0  0  0  0  0  0
   25.5747  -32.7742   -4.8830 S   0  0  0  0  0  0  0  0  0  0  0  0
   27.0745  -33.6659   -4.3837 C   0  0  0  0  0  0  0  0  0  0  0  0
   27.4315  -34.6998   -5.4018 C   0  0  0  0  0  0  0  0  0  0  0  0
   28.6574  -35.4919   -5.0908 C   0  0  2  0  0  0  0  0  0  0  0  0
   28.8766  -36.4017   -6.2003 N   0  0  0  0  0  0  0  0  0  0  0  0
   28.6441  -36.1840   -3.8034 C   0  0  0  0  0  0  0  0  0  0  0  0
   27.9798  -37.2120   -3.5685 O   0  0  0  0  0  0  0  0  0  0  0  0
   32.4687  -36.1033    2.3775 N   0  0  0  0  0  0  0  0  0  0  0  0
   32.4050  -36.3544    0.9809 C   0  0  0  0  0  0  0  0  0  0  0  0
   33.4124  -35.9935    0.2964 O   0  0  0  0  0  0  0  0  0  0  0  0
   31.2308  -37.0039    0.3341 C   0  0  0  0  0  0  0  0  0  0  0  0
   30.9275  -36.3637   -0.9616 C   0  0  0  0  0  0  0  0  0  0  0  0
   29.5567  -36.3023   -1.4502 C   0  0  2  0  0  0  0  0  0  0  0  0
   29.4362  -35.6589   -2.7438 N   0  0  0  0  0  0  0  0  0  0  0  0
   28.4761  -35.8918   -0.5815 C   0  0  0  0  0  0  0  0  0  0  0  0
   28.0499  -34.6085   -0.3060 O   0  0  0  0  0  0  0  0  0  0  0  0
   27.8147  -36.7709    0.0176 O   0  0  0  0  0  0  0  0  0  0  0  0
  2  1  1  0
  2  3  1  0
  3 10  1  0
  4  3  2  0
  6  5  1  0
  6  7  1  0
  8  7  1  0
  9 11  1  0
  9  8  1  6
 10  9  1  0
 11 12  2  0
 14 13  1  0
 14 16  1  0
 15 14  2  0
 17 16  1  0
 18 17  1  1
 19 11  1  0
 19 18  1  0
 20 21  1  0
 20 18  1  0
 22 20  2  0
M  END
$$$$
