GMQ.pdb
     RDKit          3D

 22 21  0  0  1  0  0  0  0  0999 V2000
   28.7459  -19.1282  -16.4585 N   0  0  0  0  0  0  0  0  0  0  0  0
   27.9299  -18.4956  -15.4535 C   0  0  0  0  0  0  0  0  0  0  0  0
   27.2356  -19.5478  -14.6305 C   0  0  0  0  0  0  0  0  0  0  0  0
   27.1796  -20.7480  -15.0103 O   0  0  0  0  0  0  0  0  0  0  0  0
   24.9782  -21.1269   -7.2434 C   0  0  0  0  0  0  0  0  0  0  0  0
   25.8785  -20.1449   -8.4706 S   0  0  0  0  0  0  0  0  0  0  0  0
   25.4635  -20.6754  -10.1559 C   0  0  0  0  0  0  0  0  0  0  0  0
   26.2007  -19.8503  -11.1603 C   0  0  0  0  0  0  0  0  0  0  0  0
   25.8736  -20.1525  -12.5846 C   0  0  2  0  0  0  0  0  0  0  0  0
   26.6250  -19.2220  -13.4070 N   0  0  0  0  0  0  0  0  0  0  0  0
   24.4490  -20.1527  -12.9119 C   0  0  0  0  0  0  0  0  0  0  0  0
   23.7741  -19.1219  -13.0998 O   0  0  0  0  0  0  0  0  0  0  0  0
   21.4340  -21.9508  -17.8024 N   0  0  0  0  0  0  0  0  0  0  0  0
   21.3720  -21.6065  -16.4257 C   0  0  0  0  0  0  0  0  0  0  0  0
   21.5720  -20.3850  -16.1402 O   0  0  0  0  0  0  0  0  0  0  0  0
   21.0894  -22.6074  -15.3592 C   0  0  0  0  0  0  0  0  0  0  0  0
   22.1897  -22.6470  -14.3750 C   0  0  0  0  0  0  0  0  0  0  0  0
   22.4044  -21.5306  -13.4645 C   0  0  2  0  0  0  0  0  0  0  0  0
   23.7802  -21.4039  -13.0252 N   0  0  0  0  0  0  0  0  0  0  0  0
   21.4999  -21.2854  -12.3633 C   0  0  0  0  0  0  0  0  0  0  0  0
   20.1954  -20.8390  -12.4202 O   0  0  0  0  0  0  0  0  0  0  0  0
   21.9018  -21.4882  -11.1942 O   0  0  0  0  0  0  0  0  0  0  0  0
  2  1  1  0
  2  3  1  0
  3 10  1  0
  4  3  2  0
  6  5  1  0
  6  7  1  0
  8  7  1  0
  9 11  1  0
  9  8  1  1
 10  9  1  0
 11 12  2  0
 14 13  1  0
 14 16  1  0
 15 14  2  0
 17 16  1  0
 18 17  1  1
 19 11  1  0
 19 18  1  0
 20 21  1  0
 20 18  1  0
 22 20  2  0
M  END
$$$$
