GMQ.pdb
     RDKit          3D

 22 21  0  0  1  0  0  0  0  0999 V2000
   28.9569  -17.9997  -17.5166 N   0  0  0  0  0  0  0  0  0  0  0  0
   28.1048  -17.6411  -16.4113 C   0  0  0  0  0  0  0  0  0  0  0  0
   27.6767  -18.8848  -15.6790 C   0  0  0  0  0  0  0  0  0  0  0  0
   27.6394  -20.0057  -16.2536 O   0  0  0  0  0  0  0  0  0  0  0  0
   30.1212  -21.1144  -10.5438 C   0  0  0  0  0  0  0  0  0  0  0  0
   28.3958  -21.3002  -10.0248 S   0  0  0  0  0  0  0  0  0  0  0  0
   27.2789  -21.2384  -11.4540 C   0  0  0  0  0  0  0  0  0  0  0  0
   27.6033  -20.0652  -12.3208 C   0  0  0  0  0  0  0  0  0  0  0  0
   26.7882  -19.9589  -13.5663 C   0  0  2  0  0  0  0  0  0  0  0  0
   27.3034  -18.8337  -14.3247 N   0  0  0  0  0  0  0  0  0  0  0  0
   25.3434  -19.8721  -13.3619 C   0  0  0  0  0  0  0  0  0  0  0  0
   24.7048  -18.8024  -13.3269 O   0  0  0  0  0  0  0  0  0  0  0  0
   22.6833  -21.4678   -9.3177 N   0  0  0  0  0  0  0  0  0  0  0  0
   21.4475  -21.2635   -9.9876 C   0  0  0  0  0  0  0  0  0  0  0  0
   20.4066  -21.6794   -9.3900 O   0  0  0  0  0  0  0  0  0  0  0  0
   21.3549  -20.6003  -11.3182 C   0  0  0  0  0  0  0  0  0  0  0  0
   22.7006  -20.3568  -11.8755 C   0  0  0  0  0  0  0  0  0  0  0  0
   23.1697  -21.1158  -13.0268 C   0  0  2  0  0  0  0  0  0  0  0  0
   24.6097  -21.0796  -13.1907 N   0  0  0  0  0  0  0  0  0  0  0  0
   22.5141  -20.9997  -14.3104 C   0  0  0  0  0  0  0  0  0  0  0  0
   21.5866  -21.8549  -14.8695 O   0  0  0  0  0  0  0  0  0  0  0  0
   22.7871  -20.0205  -15.0423 O   0  0  0  0  0  0  0  0  0  0  0  0
  2  1  1  0
  2  3  1  0
  3 10  1  0
  4  3  2  0
  6  5  1  0
  6  7  1  0
  8  7  1  0
  9 11  1  0
  9  8  1  1
 10  9  1  0
 11 12  2  0
 14 13  1  0
 14 16  1  0
 15 14  2  0
 17 16  1  0
 18 17  1  1
 19 11  1  0
 19 18  1  0
 20 21  1  0
 20 18  1  0
 22 20  2  0
M  END
$$$$
