RNW.pdb
     RDKit          3D

 34 35  0  0  1  0  0  0  0  0999 V2000
   34.2591  -26.1163  -15.1826 N   0  0  0  0  0  0  0  0  0  0  0  0
   33.5796  -25.4382  -14.1196 C   0  0  0  0  0  0  0  0  0  0  0  0
   34.1261  -25.3373  -12.9474 N   0  0  0  0  0  0  0  0  0  0  0  0
   32.2996  -24.8742  -14.3474 N   0  0  0  0  0  0  0  0  0  0  0  0
   31.6285  -24.9852  -15.6557 C   0  0  0  0  0  0  0  0  0  0  0  0
   31.6183  -23.6012  -16.2283 C   0  0  0  0  0  0  0  0  0  0  0  0
   30.2867  -22.9683  -16.1193 C   0  0  0  0  0  0  0  0  0  0  0  0
   29.1962  -23.4802  -16.9847 C   0  0  2  0  0  0  0  0  0  0  0  0
   29.3703  -23.3829  -18.3936 N   0  0  0  0  0  0  0  0  0  0  0  0
   27.9379  -22.7379  -16.6240 C   0  0  0  0  0  0  0  0  0  0  0  0
   27.8736  -21.5544  -17.0743 O   0  0  0  0  0  0  0  0  0  0  0  0
   33.6689  -24.8959  -12.1530 N   0  0  0  0  0  0  0  0  0  0  0  0
   25.5110  -25.3644  -15.4889 C   0  0  0  0  0  0  0  0  0  0  0  0
   24.4185  -24.5284  -15.8925 O   0  0  0  0  0  0  0  0  0  0  0  0
   23.3425  -25.1090  -16.1797 C   0  0  0  0  0  0  0  0  0  0  0  0
   24.5114  -23.0778  -15.9775 C   0  0  1  0  0  0  0  0  0  0  0  0
   25.7837  -22.4645  -15.4642 N   0  0  0  0  0  0  0  0  0  0  0  0
   26.8981  -23.2950  -15.8456 C   0  0  0  0  0  0  0  0  0  0  0  0
   25.6666  -22.3673  -13.9715 O   0  0  0  0  0  0  0  0  0  0  0  0
   25.9351  -23.3818  -13.2955 N   0  0  0  0  0  0  0  0  0  0  0  0
   25.2666  -21.1875  -13.3059 C   0  0  1  0  0  0  0  0  0  0  0  0
   25.0176  -21.0593  -11.8839 C   0  0  0  0  0  0  0  0  0  0  0  0
   25.7173  -19.9069  -11.2837 C   0  0  0  0  0  0  0  0  0  0  0  0
   27.0886  -20.2337  -10.8690 C   0  0  0  0  0  0  0  0  0  0  0  0
   28.1541  -20.6571  -11.6362 N   0  0  0  0  0  0  0  0  0  0  0  0
   29.2209  -20.8720  -10.8309 C   0  0  0  0  0  0  0  0  0  0  0  0
   28.8781  -20.5997   -9.5652 C   0  0  0  0  0  0  0  0  0  0  0  0
   29.5591  -20.6262   -8.3443 C   0  0  0  0  0  0  0  0  0  0  0  0
   28.9567  -20.2691   -7.1567 C   0  0  0  0  0  0  0  0  0  0  0  0
   27.6382  -19.8738   -7.1829 C   0  0  0  0  0  0  0  0  0  0  0  0
   26.9486  -19.8431   -8.3869 C   0  0  0  0  0  0  0  0  0  0  0  0
   27.5675  -20.2035   -9.5595 C   0  0  0  0  0  0  0  0  0  0  0  0
   23.6574  -21.3383  -11.4448 O   0  0  0  0  0  0  0  0  0  0  0  0
   23.2515  -21.6131  -10.1500 O   0  0  0  0  0  0  0  0  0  0  0  0
  1  2  1  0
  2  3  2  0
  4  2  1  0
  5  4  1  0
  6  5  1  0
  7  6  1  0
  8  9  1  6
  8  7  1  0
 10  8  1  0
 11 10  2  0
 13 15  1  0
 13 12  1  0
 14 13  2  0
 16 15  1  6
 16 17  1  0
 17 10  1  0
 18 16  1  0
 18 19  2  0
 20 18  1  0
 21 20  1  0
 21 22  1  1
 23 22  1  0
 23 31  1  0
 24 25  1  0
 24 23  2  0
 25 26  1  0
 26 31  2  0
 26 27  1  0
 27 28  2  0
 28 29  1  0
 30 29  2  0
 31 30  1  0
 32 21  1  0
 33 32  1  0
 34 32  2  0
M  END
$$$$
