RNW.pdb
     RDKit          3D

 34 35  0  0  1  0  0  0  0  0999 V2000
   28.9514  -26.5709  -16.3448 N   0  0  0  0  0  0  0  0  0  0  0  0
   28.2613  -27.4556  -17.2351 C   0  0  0  0  0  0  0  0  0  0  0  0
   28.3462  -28.7411  -17.0828 N   0  0  0  0  0  0  0  0  0  0  0  0
   27.4808  -26.9247  -18.2922 N   0  0  0  0  0  0  0  0  0  0  0  0
   27.0998  -25.5008  -18.3310 C   0  0  0  0  0  0  0  0  0  0  0  0
   25.7413  -25.4242  -17.7049 C   0  0  0  0  0  0  0  0  0  0  0  0
   25.8009  -24.9214  -16.3159 C   0  0  0  0  0  0  0  0  0  0  0  0
   25.1562  -23.6199  -16.0151 C   0  0  2  0  0  0  0  0  0  0  0  0
   24.8546  -22.7634  -17.1107 N   0  0  0  0  0  0  0  0  0  0  0  0
   26.0601  -22.8664  -15.0772 C   0  0  0  0  0  0  0  0  0  0  0  0
   26.9124  -23.5842  -14.4721 O   0  0  0  0  0  0  0  0  0  0  0  0
   27.9583  -29.4097  -17.7442 N   0  0  0  0  0  0  0  0  0  0  0  0
   28.6745  -20.0088  -15.9544 C   0  0  0  0  0  0  0  0  0  0  0  0
   27.8967  -19.0414  -15.2372 O   0  0  0  0  0  0  0  0  0  0  0  0
   28.0514  -17.8393  -15.5668 C   0  0  0  0  0  0  0  0  0  0  0  0
   26.9648  -19.3938  -14.1754 C   0  0  2  0  0  0  0  0  0  0  0  0
   26.8269  -20.8597  -13.8748 N   0  0  0  0  0  0  0  0  0  0  0  0
   25.9825  -21.4705  -14.8702 C   0  0  0  0  0  0  0  0  0  0  0  0
   26.2270  -20.9842  -12.5052 O   0  0  0  0  0  0  0  0  0  0  0  0
   24.9824  -21.0037  -12.4104 N   0  0  0  0  0  0  0  0  0  0  0  0
   27.0045  -21.0768  -11.3297 C   0  0  2  0  0  0  0  0  0  0  0  0
   26.4900  -21.1563   -9.9771 C   0  0  0  0  0  0  0  0  0  0  0  0
   27.5445  -21.4257   -8.9804 C   0  0  0  0  0  0  0  0  0  0  0  0
   27.1200  -21.1059   -7.6104 C   0  0  0  0  0  0  0  0  0  0  0  0
   25.9422  -21.4231   -6.9660 N   0  0  0  0  0  0  0  0  0  0  0  0
   25.9649  -20.8966   -5.7190 C   0  0  0  0  0  0  0  0  0  0  0  0
   27.1226  -20.2484   -5.5366 C   0  0  0  0  0  0  0  0  0  0  0  0
   27.6878  -19.5456   -4.4680 C   0  0  0  0  0  0  0  0  0  0  0  0
   28.9407  -18.9751   -4.5418 C   0  0  0  0  0  0  0  0  0  0  0  0
   29.6535  -19.1067   -5.7122 C   0  0  0  0  0  0  0  0  0  0  0  0
   29.1056  -19.8006   -6.7820 C   0  0  0  0  0  0  0  0  0  0  0  0
   27.8548  -20.3613   -6.6881 C   0  0  0  0  0  0  0  0  0  0  0  0
   25.4501  -20.1975   -9.6308 O   0  0  0  0  0  0  0  0  0  0  0  0
   24.2512  -20.4777   -8.9977 O   0  0  0  0  0  0  0  0  0  0  0  0
  1  2  1  0
  2  3  2  0
  4  2  1  0
  5  4  1  0
  6  5  1  0
  7  6  1  0
  8  9  1  6
  8  7  1  0
 10  8  1  0
 11 10  2  0
 13 15  1  0
 13 12  1  0
 14 13  2  0
 16 15  1  6
 16 17  1  0
 17 10  1  0
 18 16  1  0
 18 19  2  0
 20 18  1  0
 21 20  1  0
 21 22  1  6
 23 22  1  0
 23 31  1  0
 24 25  1  0
 24 23  2  0
 25 26  1  0
 26 31  2  0
 26 27  1  0
 27 28  2  0
 28 29  1  0
 30 29  2  0
 31 30  1  0
 32 21  1  0
 33 32  1  0
 34 32  2  0
M  END
$$$$
