RNW.pdb
     RDKit          3D

 34 35  0  0  1  0  0  0  0  0999 V2000
   19.8212  -19.1135  -17.6167 N   0  0  0  0  0  0  0  0  0  0  0  0
   21.1940  -19.1644  -18.0223 C   0  0  0  0  0  0  0  0  0  0  0  0
   21.5070  -19.4062  -19.2577 N   0  0  0  0  0  0  0  0  0  0  0  0
   22.2196  -18.9513  -17.0678 N   0  0  0  0  0  0  0  0  0  0  0  0
   21.9567  -19.0374  -15.6195 C   0  0  0  0  0  0  0  0  0  0  0  0
   21.0234  -20.1952  -15.4418 C   0  0  0  0  0  0  0  0  0  0  0  0
   21.6340  -21.2794  -14.6434 C   0  0  0  0  0  0  0  0  0  0  0  0
   22.1254  -20.9539  -13.2823 C   0  0  2  0  0  0  0  0  0  0  0  0
   21.9736  -19.6138  -12.8283 N   0  0  0  0  0  0  0  0  0  0  0  0
   23.5903  -21.2942  -13.2302 C   0  0  0  0  0  0  0  0  0  0  0  0
   23.8640  -22.5007  -13.5080 O   0  0  0  0  0  0  0  0  0  0  0  0
   22.4657  -19.5095  -19.5821 N   0  0  0  0  0  0  0  0  0  0  0  0
   28.8409  -21.1504  -12.5577 C   0  0  0  0  0  0  0  0  0  0  0  0
   28.2385  -20.5562  -13.7150 O   0  0  0  0  0  0  0  0  0  0  0  0
   29.0095  -20.2625  -14.6620 C   0  0  0  0  0  0  0  0  0  0  0  0
   26.8111  -20.2910  -13.8256 C   0  0  1  0  0  0  0  0  0  0  0  0
   25.9507  -20.8222  -12.7140 N   0  0  0  0  0  0  0  0  0  0  0  0
   24.5981  -20.3603  -12.8991 C   0  0  0  0  0  0  0  0  0  0  0  0
   26.5229  -20.3187  -11.4216 O   0  0  0  0  0  0  0  0  0  0  0  0
   26.8264  -19.1100  -11.3467 N   0  0  0  0  0  0  0  0  0  0  0  0
   26.7326  -21.1479  -10.2976 C   0  0  2  0  0  0  0  0  0  0  0  0
   26.6458  -20.7346   -8.9112 C   0  0  0  0  0  0  0  0  0  0  0  0
   27.3545  -19.4671   -8.6481 C   0  0  0  0  0  0  0  0  0  0  0  0
   27.6906  -19.2936   -7.2282 C   0  0  0  0  0  0  0  0  0  0  0  0
   27.1227  -18.4519   -6.2942 N   0  0  0  0  0  0  0  0  0  0  0  0
   27.7702  -18.5997   -5.1145 C   0  0  0  0  0  0  0  0  0  0  0  0
   28.7399  -19.5123   -5.2566 C   0  0  0  0  0  0  0  0  0  0  0  0
   29.6909  -20.0658   -4.3937 C   0  0  0  0  0  0  0  0  0  0  0  0
   30.5854  -21.0311   -4.8047 C   0  0  0  0  0  0  0  0  0  0  0  0
   30.5336  -21.4593   -6.1120 C   0  0  0  0  0  0  0  0  0  0  0  0
   29.5959  -20.9188   -6.9808 C   0  0  0  0  0  0  0  0  0  0  0  0
   28.7136  -19.9571   -6.5512 C   0  0  0  0  0  0  0  0  0  0  0  0
   25.3612  -20.9482   -8.2592 O   0  0  0  0  0  0  0  0  0  0  0  0
   24.7434  -20.0953   -7.3606 O   0  0  0  0  0  0  0  0  0  0  0  0
  1  2  1  0
  2  3  2  0
  4  2  1  0
  5  4  1  0
  6  5  1  0
  7  6  1  0
  8  9  1  6
  8  7  1  0
 10  8  1  0
 11 10  2  0
 13 15  1  0
 13 12  1  0
 14 13  2  0
 16 15  1  6
 16 17  1  0
 17 10  1  0
 18 16  1  0
 18 19  2  0
 20 18  1  0
 21 20  1  0
 21 22  1  6
 23 22  1  0
 23 31  1  0
 24 25  1  0
 24 23  2  0
 25 26  1  0
 26 31  2  0
 26 27  1  0
 27 28  2  0
 28 29  1  0
 30 29  2  0
 31 30  1  0
 32 21  1  0
 33 32  1  0
 34 32  2  0
M  END
$$$$
