RNW.pdb
     RDKit          3D

 34 35  0  0  1  0  0  0  0  0999 V2000
   26.1464  -25.7775  -18.9489 N   0  0  0  0  0  0  0  0  0  0  0  0
   27.1777  -26.0492  -19.9050 C   0  0  0  0  0  0  0  0  0  0  0  0
   27.0316  -26.9959  -20.7798 N   0  0  0  0  0  0  0  0  0  0  0  0
   28.3682  -25.2806  -19.8957 N   0  0  0  0  0  0  0  0  0  0  0  0
   28.5680  -24.1778  -18.9375 C   0  0  0  0  0  0  0  0  0  0  0  0
   27.9626  -22.9662  -19.5769 C   0  0  0  0  0  0  0  0  0  0  0  0
   27.2899  -22.0975  -18.5876 C   0  0  0  0  0  0  0  0  0  0  0  0
   27.6174  -22.2871  -17.1535 C   0  0  2  0  0  0  0  0  0  0  0  0
   28.4596  -23.3805  -16.8073 N   0  0  0  0  0  0  0  0  0  0  0  0
   26.3221  -22.4490  -16.4050 C   0  0  0  0  0  0  0  0  0  0  0  0
   25.4155  -21.6244  -16.7306 O   0  0  0  0  0  0  0  0  0  0  0  0
   27.7518  -27.2541  -21.4503 N   0  0  0  0  0  0  0  0  0  0  0  0
   24.6371  -26.7607  -16.2680 C   0  0  0  0  0  0  0  0  0  0  0  0
   24.0193  -25.5495  -15.8132 O   0  0  0  0  0  0  0  0  0  0  0  0
   23.1180  -25.0693  -16.5443 C   0  0  0  0  0  0  0  0  0  0  0  0
   24.3891  -24.8803  -14.5742 C   0  0  2  0  0  0  0  0  0  0  0  0
   24.8563  -23.4579  -14.7036 N   0  0  0  0  0  0  0  0  0  0  0  0
   26.1105  -23.4334  -15.4132 C   0  0  0  0  0  0  0  0  0  0  0  0
   25.0077  -22.9055  -13.3169 O   0  0  0  0  0  0  0  0  0  0  0  0
   26.0807  -23.1184  -12.7154 N   0  0  0  0  0  0  0  0  0  0  0  0
   23.9953  -22.1638  -12.6688 C   0  0  1  0  0  0  0  0  0  0  0  0
   24.1137  -21.5158  -11.3779 C   0  0  0  0  0  0  0  0  0  0  0  0
   25.3963  -20.8049  -11.2117 C   0  0  0  0  0  0  0  0  0  0  0  0
   25.5898  -19.7493  -12.2155 C   0  0  0  0  0  0  0  0  0  0  0  0
   24.7058  -18.7805  -12.6436 N   0  0  0  0  0  0  0  0  0  0  0  0
   25.2972  -18.0380  -13.6087 C   0  0  0  0  0  0  0  0  0  0  0  0
   26.5379  -18.4967  -13.8180 C   0  0  0  0  0  0  0  0  0  0  0  0
   27.5868  -18.1190  -14.6619 C   0  0  0  0  0  0  0  0  0  0  0  0
   28.8024  -18.7694  -14.6630 C   0  0  0  0  0  0  0  0  0  0  0  0
   28.9813  -19.8268  -13.7998 C   0  0  0  0  0  0  0  0  0  0  0  0
   27.9493  -20.2142  -12.9566 C   0  0  0  0  0  0  0  0  0  0  0  0
   26.7450  -19.5528  -12.9716 C   0  0  0  0  0  0  0  0  0  0  0  0
   22.9073  -20.8785  -10.8689 O   0  0  0  0  0  0  0  0  0  0  0  0
   21.7532  -20.6119  -11.5856 O   0  0  0  0  0  0  0  0  0  0  0  0
  1  2  1  0
  2  3  2  0
  4  2  1  0
  5  4  1  0
  6  5  1  0
  7  6  1  0
  8  9  1  6
  8  7  1  0
 10  8  1  0
 11 10  2  0
 13 15  1  0
 13 12  1  0
 14 13  2  0
 16 15  1  6
 16 17  1  0
 17 10  1  0
 18 16  1  0
 18 19  2  0
 20 18  1  0
 21 20  1  0
 21 22  1  1
 23 22  1  0
 23 31  1  0
 24 25  1  0
 24 23  2  0
 25 26  1  0
 26 31  2  0
 26 27  1  0
 27 28  2  0
 28 29  1  0
 30 29  2  0
 31 30  1  0
 32 21  1  0
 33 32  1  0
 34 32  2  0
M  END
$$$$
