RNW.pdb
     RDKit          3D

 34 35  0  0  1  0  0  0  0  0999 V2000
   13.2757  -20.5701   -8.9194 N   0  0  0  0  0  0  0  0  0  0  0  0
   12.5513  -19.3580   -8.6793 C   0  0  0  0  0  0  0  0  0  0  0  0
   12.0944  -18.6567   -9.6704 N   0  0  0  0  0  0  0  0  0  0  0  0
   12.3327  -18.9187   -7.3498 N   0  0  0  0  0  0  0  0  0  0  0  0
   12.7983  -19.7026   -6.1910 C   0  0  0  0  0  0  0  0  0  0  0  0
   11.8081  -20.8141   -6.0252 C   0  0  0  0  0  0  0  0  0  0  0  0
   12.1119  -21.6531   -4.8464 C   0  0  0  0  0  0  0  0  0  0  0  0
   13.3960  -22.3951   -4.8285 C   0  0  2  0  0  0  0  0  0  0  0  0
   13.6978  -23.2201   -5.9480 N   0  0  0  0  0  0  0  0  0  0  0  0
   13.4062  -23.2644   -3.6002 C   0  0  0  0  0  0  0  0  0  0  0  0
   12.3668  -23.1750   -2.8795 O   0  0  0  0  0  0  0  0  0  0  0  0
   11.6131  -17.7683   -9.5522 N   0  0  0  0  0  0  0  0  0  0  0  0
   14.7006  -26.3901    0.4310 C   0  0  0  0  0  0  0  0  0  0  0  0
   15.4917  -26.6797   -0.7290 O   0  0  0  0  0  0  0  0  0  0  0  0
   16.3075  -27.6295   -0.6303 C   0  0  0  0  0  0  0  0  0  0  0  0
   15.3846  -25.9349   -1.9755 C   0  0  1  0  0  0  0  0  0  0  0  0
   14.5101  -24.7132   -1.9440 N   0  0  0  0  0  0  0  0  0  0  0  0
   14.4781  -24.1189   -3.2566 C   0  0  0  0  0  0  0  0  0  0  0  0
   15.0932  -23.7678   -0.9354 O   0  0  0  0  0  0  0  0  0  0  0  0
   16.0530  -23.0523   -1.2895 N   0  0  0  0  0  0  0  0  0  0  0  0
   14.6077  -23.6565    0.3863 C   0  0  1  0  0  0  0  0  0  0  0  0
   14.9945  -22.6447    1.3491 C   0  0  0  0  0  0  0  0  0  0  0  0
   15.0078  -21.2855    0.7744 C   0  0  0  0  0  0  0  0  0  0  0  0
   13.8172  -20.5065    1.1420 C   0  0  0  0  0  0  0  0  0  0  0  0
   13.3821  -20.1163    2.3917 N   0  0  0  0  0  0  0  0  0  0  0  0
   12.2165  -19.4401    2.2627 C   0  0  0  0  0  0  0  0  0  0  0  0
   11.8841  -19.3803    0.9667 C   0  0  0  0  0  0  0  0  0  0  0  0
   10.8225  -18.8087    0.2585 C   0  0  0  0  0  0  0  0  0  0  0  0
   10.7298  -18.8803   -1.1151 C   0  0  0  0  0  0  0  0  0  0  0  0
   11.7214  -19.5395   -1.8060 C   0  0  0  0  0  0  0  0  0  0  0  0
   12.7812  -20.1128   -1.1172 C   0  0  0  0  0  0  0  0  0  0  0  0
   12.8545  -20.0306    0.2523 C   0  0  0  0  0  0  0  0  0  0  0  0
   14.4719  -22.8121    2.6981 O   0  0  0  0  0  0  0  0  0  0  0  0
   15.0048  -22.2772    3.8585 O   0  0  0  0  0  0  0  0  0  0  0  0
  1  2  1  0
  2  3  2  0
  4  2  1  0
  5  4  1  0
  6  5  1  0
  7  6  1  0
  8  9  1  6
  8  7  1  0
 10  8  1  0
 11 10  2  0
 13 15  1  0
 13 12  1  0
 14 13  2  0
 16 15  1  6
 16 17  1  0
 17 10  1  0
 18 16  1  0
 18 19  2  0
 20 18  1  0
 21 20  1  0
 21 22  1  1
 23 22  1  0
 23 31  1  0
 24 25  1  0
 24 23  2  0
 25 26  1  0
 26 31  2  0
 26 27  1  0
 27 28  2  0
 28 29  1  0
 30 29  2  0
 31 30  1  0
 32 21  1  0
 33 32  1  0
 34 32  2  0
M  END
$$$$
