RNW.pdb
     RDKit          3D

 34 35  0  0  1  0  0  0  0  0999 V2000
   18.5794  -24.4865  -15.7185 N   0  0  0  0  0  0  0  0  0  0  0  0
   18.5711  -23.0582  -15.8249 C   0  0  0  0  0  0  0  0  0  0  0  0
   17.6922  -22.3550  -15.1800 N   0  0  0  0  0  0  0  0  0  0  0  0
   19.5281  -22.4064  -16.6421 N   0  0  0  0  0  0  0  0  0  0  0  0
   20.8691  -22.9771  -16.8661 C   0  0  0  0  0  0  0  0  0  0  0  0
   21.3259  -23.4827  -15.5323 C   0  0  0  0  0  0  0  0  0  0  0  0
   22.3078  -22.5735  -14.9037 C   0  0  0  0  0  0  0  0  0  0  0  0
   23.4754  -22.1404  -15.7093 C   0  0  2  0  0  0  0  0  0  0  0  0
   23.8290  -22.9315  -16.8380 N   0  0  0  0  0  0  0  0  0  0  0  0
   24.6686  -22.0850  -14.7942 C   0  0  0  0  0  0  0  0  0  0  0  0
   25.0032  -23.2001  -14.2919 O   0  0  0  0  0  0  0  0  0  0  0  0
   17.5904  -21.3488  -15.2904 N   0  0  0  0  0  0  0  0  0  0  0  0
   28.9124  -20.5126  -15.5176 C   0  0  0  0  0  0  0  0  0  0  0  0
   28.0029  -19.5364  -14.9931 O   0  0  0  0  0  0  0  0  0  0  0  0
   27.8241  -18.5046  -15.6866 C   0  0  0  0  0  0  0  0  0  0  0  0
   27.3029  -19.6958  -13.7263 C   0  0  2  0  0  0  0  0  0  0  0  0
   26.4791  -20.9437  -13.5774 N   0  0  0  0  0  0  0  0  0  0  0  0
   25.3746  -20.8960  -14.5021 C   0  0  0  0  0  0  0  0  0  0  0  0
   25.9953  -20.9974  -12.1581 O   0  0  0  0  0  0  0  0  0  0  0  0
   24.7876  -20.7670  -11.9418 N   0  0  0  0  0  0  0  0  0  0  0  0
   26.8420  -21.2925  -11.0668 C   0  0  2  0  0  0  0  0  0  0  0  0
   26.4714  -21.2356   -9.6668 C   0  0  0  0  0  0  0  0  0  0  0  0
   27.6100  -21.4939   -8.7642 C   0  0  0  0  0  0  0  0  0  0  0  0
   27.6821  -20.5296   -7.6577 C   0  0  0  0  0  0  0  0  0  0  0  0
   26.7648  -19.5736   -7.2730 N   0  0  0  0  0  0  0  0  0  0  0  0
   27.2604  -18.8846   -6.2185 C   0  0  0  0  0  0  0  0  0  0  0  0
   28.4710  -19.3662   -5.9084 C   0  0  0  0  0  0  0  0  0  0  0  0
   29.4188  -19.0609   -4.9267 C   0  0  0  0  0  0  0  0  0  0  0  0
   30.6107  -19.7448   -4.8154 C   0  0  0  0  0  0  0  0  0  0  0  0
   30.8688  -20.7623   -5.7061 C   0  0  0  0  0  0  0  0  0  0  0  0
   29.9383  -21.0765   -6.6866 C   0  0  0  0  0  0  0  0  0  0  0  0
   28.7564  -20.3822   -6.7807 C   0  0  0  0  0  0  0  0  0  0  0  0
   25.5285  -20.1893   -9.2966 O   0  0  0  0  0  0  0  0  0  0  0  0
   24.4064  -20.3382   -8.4995 O   0  0  0  0  0  0  0  0  0  0  0  0
  1  2  1  0
  2  3  2  0
  4  2  1  0
  5  4  1  0
  6  5  1  0
  7  6  1  0
  8  9  1  6
  8  7  1  0
 10  8  1  0
 11 10  2  0
 13 15  1  0
 13 12  1  0
 14 13  2  0
 16 15  1  6
 16 17  1  0
 17 10  1  0
 18 16  1  0
 18 19  2  0
 20 18  1  0
 21 20  1  0
 21 22  1  6
 23 22  1  0
 23 31  1  0
 24 25  1  0
 24 23  2  0
 25 26  1  0
 26 31  2  0
 26 27  1  0
 27 28  2  0
 28 29  1  0
 30 29  2  0
 31 30  1  0
 32 21  1  0
 33 32  1  0
 34 32  2  0
M  END
$$$$
