RNW.pdb
     RDKit          3D

 34 35  0  0  1  0  0  0  0  0999 V2000
   22.9487  -15.4295  -16.0932 N   0  0  0  0  0  0  0  0  0  0  0  0
   24.2607  -14.9686  -15.7501 C   0  0  0  0  0  0  0  0  0  0  0  0
   24.4165  -13.9854  -14.9183 N   0  0  0  0  0  0  0  0  0  0  0  0
   25.3984  -15.5887  -16.3240 N   0  0  0  0  0  0  0  0  0  0  0  0
   25.2699  -16.6916  -17.2942 C   0  0  0  0  0  0  0  0  0  0  0  0
   24.5319  -17.7811  -16.5788 C   0  0  0  0  0  0  0  0  0  0  0  0
   25.4005  -18.5016  -15.6237 C   0  0  0  0  0  0  0  0  0  0  0  0
   26.3978  -19.4553  -16.1677 C   0  0  2  0  0  0  0  0  0  0  0  0
   25.9765  -20.3291  -17.2087 N   0  0  0  0  0  0  0  0  0  0  0  0
   26.8912  -20.3031  -15.0266 C   0  0  0  0  0  0  0  0  0  0  0  0
   26.1627  -21.3054  -14.7577 O   0  0  0  0  0  0  0  0  0  0  0  0
   25.3269  -13.6557  -14.6060 N   0  0  0  0  0  0  0  0  0  0  0  0
   30.3935  -22.6443  -11.4811 C   0  0  0  0  0  0  0  0  0  0  0  0
   30.2332  -21.2197  -11.4946 O   0  0  0  0  0  0  0  0  0  0  0  0
   30.5257  -20.6110  -10.4356 C   0  0  0  0  0  0  0  0  0  0  0  0
   29.7590  -20.4799  -12.6555 C   0  0  1  0  0  0  0  0  0  0  0  0
   28.3617  -20.7904  -13.1132 N   0  0  0  0  0  0  0  0  0  0  0  0
   28.0691  -20.0230  -14.2975 C   0  0  0  0  0  0  0  0  0  0  0  0
   27.4307  -20.4328  -11.9923 O   0  0  0  0  0  0  0  0  0  0  0  0
   27.1085  -19.2341  -11.8581 N   0  0  0  0  0  0  0  0  0  0  0  0
   26.9104  -21.3865  -11.0897 C   0  0  2  0  0  0  0  0  0  0  0  0
   26.3585  -21.1015   -9.7802 C   0  0  0  0  0  0  0  0  0  0  0  0
   27.3930  -20.7431   -8.7906 C   0  0  0  0  0  0  0  0  0  0  0  0
   26.8338  -20.4995   -7.4538 C   0  0  0  0  0  0  0  0  0  0  0  0
   25.5283  -20.6090   -7.0214 N   0  0  0  0  0  0  0  0  0  0  0  0
   25.4638  -20.2553   -5.7163 C   0  0  0  0  0  0  0  0  0  0  0  0
   26.6886  -19.9205   -5.2905 C   0  0  0  0  0  0  0  0  0  0  0  0
   27.2129  -19.5015   -4.0638 C   0  0  0  0  0  0  0  0  0  0  0  0
   28.5538  -19.2332   -3.8887 C   0  0  0  0  0  0  0  0  0  0  0  0
   29.3992  -19.3860   -4.9644 C   0  0  0  0  0  0  0  0  0  0  0  0
   28.8938  -19.8004   -6.1887 C   0  0  0  0  0  0  0  0  0  0  0  0
   27.5537  -20.0620   -6.3423 C   0  0  0  0  0  0  0  0  0  0  0  0
   25.1068  -20.3574   -9.7615 O   0  0  0  0  0  0  0  0  0  0  0  0
   24.4616  -19.8618   -8.6414 O   0  0  0  0  0  0  0  0  0  0  0  0
  1  2  1  0
  2  3  2  0
  4  2  1  0
  5  4  1  0
  6  5  1  0
  7  6  1  0
  8  9  1  6
  8  7  1  0
 10  8  1  0
 11 10  2  0
 13 15  1  0
 13 12  1  0
 14 13  2  0
 16 15  1  6
 16 17  1  0
 17 10  1  0
 18 16  1  0
 18 19  2  0
 20 18  1  0
 21 20  1  0
 21 22  1  6
 23 22  1  0
 23 31  1  0
 24 25  1  0
 24 23  2  0
 25 26  1  0
 26 31  2  0
 26 27  1  0
 27 28  2  0
 28 29  1  0
 30 29  2  0
 31 30  1  0
 32 21  1  0
 33 32  1  0
 34 32  2  0
M  END
$$$$
