RNW.pdb
     RDKit          3D

 34 35  0  0  1  0  0  0  0  0999 V2000
   29.5904  -21.4784  -18.1800 N   0  0  0  0  0  0  0  0  0  0  0  0
   29.4657  -20.5278  -19.2440 C   0  0  0  0  0  0  0  0  0  0  0  0
   28.9367  -20.8733  -20.3770 N   0  0  0  0  0  0  0  0  0  0  0  0
   29.9249  -19.1997  -19.0605 N   0  0  0  0  0  0  0  0  0  0  0  0
   29.8824  -18.5433  -17.7408 C   0  0  0  0  0  0  0  0  0  0  0  0
   28.5294  -17.9084  -17.6436 C   0  0  0  0  0  0  0  0  0  0  0  0
   28.0301  -17.8826  -16.2523 C   0  0  0  0  0  0  0  0  0  0  0  0
   28.1100  -19.1323  -15.4574 C   0  0  2  0  0  0  0  0  0  0  0  0
   27.9625  -20.3664  -16.1504 N   0  0  0  0  0  0  0  0  0  0  0  0
   27.0444  -19.0699  -14.3967 C   0  0  0  0  0  0  0  0  0  0  0  0
   26.9021  -17.9323  -13.8552 O   0  0  0  0  0  0  0  0  0  0  0  0
   28.9654  -20.2890  -21.2092 N   0  0  0  0  0  0  0  0  0  0  0  0
   23.0053  -18.7425  -14.8098 C   0  0  0  0  0  0  0  0  0  0  0  0
   23.3682  -20.1213  -14.6598 O   0  0  0  0  0  0  0  0  0  0  0  0
   23.1398  -20.8726  -15.6401 C   0  0  0  0  0  0  0  0  0  0  0  0
   23.9725  -20.6615  -13.4503 C   0  0  2  0  0  0  0  0  0  0  0  0
   25.2483  -20.0084  -12.9988 N   0  0  0  0  0  0  0  0  0  0  0  0
   26.2541  -20.1784  -14.0170 C   0  0  0  0  0  0  0  0  0  0  0  0
   25.6610  -20.6658  -11.7148 O   0  0  0  0  0  0  0  0  0  0  0  0
   26.3324  -21.7160  -11.7836 N   0  0  0  0  0  0  0  0  0  0  0  0
   25.3226  -20.1520  -10.4434 C   0  0  1  0  0  0  0  0  0  0  0  0
   25.6478  -20.7608   -9.1690 C   0  0  0  0  0  0  0  0  0  0  0  0
   26.9889  -20.3834   -8.6820 C   0  0  0  0  0  0  0  0  0  0  0  0
   27.1298  -20.5549   -7.2294 C   0  0  0  0  0  0  0  0  0  0  0  0
   26.3842  -21.3313   -6.3666 N   0  0  0  0  0  0  0  0  0  0  0  0
   26.8464  -21.1595   -5.1058 C   0  0  0  0  0  0  0  0  0  0  0  0
   27.8694  -20.2955   -5.1266 C   0  0  0  0  0  0  0  0  0  0  0  0
   28.7199  -19.7688   -4.1496 C   0  0  0  0  0  0  0  0  0  0  0  0
   29.7334  -18.8851   -4.4536 C   0  0  0  0  0  0  0  0  0  0  0  0
   29.9073  -18.5135   -5.7677 C   0  0  0  0  0  0  0  0  0  0  0  0
   29.0708  -19.0270   -6.7488 C   0  0  0  0  0  0  0  0  0  0  0  0
   28.0660  -19.9063   -6.4245 C   0  0  0  0  0  0  0  0  0  0  0  0
   24.5635  -20.8341   -8.1996 O   0  0  0  0  0  0  0  0  0  0  0  0
   23.2851  -20.3262   -8.3560 O   0  0  0  0  0  0  0  0  0  0  0  0
  1  2  1  0
  2  3  2  0
  4  2  1  0
  5  4  1  0
  6  5  1  0
  7  6  1  0
  8  9  1  6
  8  7  1  0
 10  8  1  0
 11 10  2  0
 13 15  1  0
 13 12  1  0
 14 13  2  0
 16 15  1  6
 16 17  1  0
 17 10  1  0
 18 16  1  0
 18 19  2  0
 20 18  1  0
 21 20  1  0
 21 22  1  1
 23 22  1  0
 23 31  1  0
 24 25  1  0
 24 23  2  0
 25 26  1  0
 26 31  2  0
 26 27  1  0
 27 28  2  0
 28 29  1  0
 30 29  2  0
 31 30  1  0
 32 21  1  0
 33 32  1  0
 34 32  2  0
M  END
$$$$
