KRF.pdb
     RDKit          3D

 32 32  0  0  1  0  0  0  0  0999 V2000
   12.8418  -17.3535   19.4571 N   0  0  0  0  0  0  0  0  0  0  0  0
   11.7351  -17.9407   20.1411 C   0  0  1  0  0  0  0  0  0  0  0  0
   12.0058  -19.2902   20.6915 C   0  0  0  0  0  0  0  0  0  0  0  0
   13.4576  -19.5783   20.8142 C   0  0  0  0  0  0  0  0  0  0  0  0
   13.8356  -20.9099   21.3687 C   0  0  0  0  0  0  0  0  0  0  0  0
   15.3796  -21.0165   21.4754 C   0  0  0  0  0  0  0  0  0  0  0  0
   15.6096  -22.3208   22.1016 N   0  0  0  0  0  0  0  0  0  0  0  0
   11.2733  -16.9816   21.2001 C   0  0  0  0  0  0  0  0  0  0  0  0
   12.1567  -16.2241   21.6991 O   0  0  0  0  0  0  0  0  0  0  0  0
    6.3321  -13.7971   18.6990 N   0  0  0  0  0  0  0  0  0  0  0  0
    7.6212  -13.2619   18.3934 C   0  0  0  0  0  0  0  0  0  0  0  0
    8.0410  -13.1850   17.1691 N   0  0  0  0  0  0  0  0  0  0  0  0
    8.4902  -12.7948   19.4162 N   0  0  0  0  0  0  0  0  0  0  0  0
    8.5350  -13.4053   20.7127 C   0  0  0  0  0  0  0  0  0  0  0  0
    7.9600  -14.8141   20.7437 C   0  0  0  0  0  0  0  0  0  0  0  0
    8.1032  -15.4202   22.1027 C   0  0  0  0  0  0  0  0  0  0  0  0
    9.4768  -15.8605   22.4709 C   0  0  2  0  0  0  0  0  0  0  0  0
    9.9250  -16.9390   21.6060 N   0  0  0  0  0  0  0  0  0  0  0  0
    9.5653  -16.2498   23.8926 C   0  0  0  0  0  0  0  0  0  0  0  0
    9.7909  -17.4379   24.2188 O   0  0  0  0  0  0  0  0  0  0  0  0
    9.0323  -12.9076   17.0232 N   0  0  0  0  0  0  0  0  0  0  0  0
    9.4043  -15.3254   24.9446 C   0  0  1  0  0  0  0  0  0  0  0  0
    9.5341  -15.7449   26.3245 C   0  0  0  0  0  0  0  0  0  0  0  0
    9.4702  -14.6035   27.2733 C   0  0  0  0  0  0  0  0  0  0  0  0
    8.3839  -13.6775   26.9135 C   0  0  0  0  0  0  0  0  0  0  0  0
    8.6517  -12.3238   27.0034 C   0  0  0  0  0  0  0  0  0  0  0  0
    7.6625  -11.4406   26.6428 C   0  0  0  0  0  0  0  0  0  0  0  0
    6.4318  -11.8726   26.2017 C   0  0  0  0  0  0  0  0  0  0  0  0
    6.1363  -13.2266   26.1017 C   0  0  0  0  0  0  0  0  0  0  0  0
    7.1454  -14.0907   26.4690 C   0  0  0  0  0  0  0  0  0  0  0  0
    8.4399  -16.6947   26.5824 O   0  0  0  0  0  0  0  0  0  0  0  0
    8.4349  -17.4774   27.7189 O   0  0  0  0  0  0  0  0  0  0  0  0
  2  3  1  0
  2  1  1  1
  4  3  1  0
  5  6  1  0
  5  4  1  0
  7  6  1  0
  8  2  1  0
  9  8  2  0
 10 11  1  0
 11 13  1  0
 11 12  2  0
 13 14  1  0
 14 15  1  0
 15 16  1  0
 17 16  1  6
 17 19  1  0
 17 18  1  0
 18  8  1  0
 19 21  1  0
 20 19  2  0
 21 22  1  0
 22 23  1  1
 23 24  1  0
 24 29  2  0
 25 24  1  0
 25 26  2  0
 26 27  1  0
 27 28  2  0
 29 28  1  0
 30 31  1  0
 30 22  1  0
 32 30  2  0
M  END
$$$$
