KRF.pdb
     RDKit          3D

 32 32  0  0  1  0  0  0  0  0999 V2000
    9.5248  -13.2517   19.4384 N   0  0  0  0  0  0  0  0  0  0  0  0
    8.2079  -13.3409   19.9818 C   0  0  1  0  0  0  0  0  0  0  0  0
    7.1357  -13.4533   18.9644 C   0  0  0  0  0  0  0  0  0  0  0  0
    7.4019  -14.5212   17.9670 C   0  0  0  0  0  0  0  0  0  0  0  0
    8.0072  -14.0975   16.6718 C   0  0  0  0  0  0  0  0  0  0  0  0
    8.0811  -15.3080   15.7044 C   0  0  0  0  0  0  0  0  0  0  0  0
    8.7344  -14.7744   14.5066 N   0  0  0  0  0  0  0  0  0  0  0  0
    8.1784  -14.4790   20.9608 C   0  0  0  0  0  0  0  0  0  0  0  0
    7.0339  -14.8881   21.3159 O   0  0  0  0  0  0  0  0  0  0  0  0
   11.7346  -19.4013   18.9122 N   0  0  0  0  0  0  0  0  0  0  0  0
   10.3613  -19.7959   18.9074 C   0  0  0  0  0  0  0  0  0  0  0  0
    9.7186  -19.9694   17.7947 N   0  0  0  0  0  0  0  0  0  0  0  0
    9.6492  -20.0130   20.1178 N   0  0  0  0  0  0  0  0  0  0  0  0
   10.2717  -19.8715   21.4016 C   0  0  0  0  0  0  0  0  0  0  0  0
    9.6897  -18.7431   22.2407 C   0  0  0  0  0  0  0  0  0  0  0  0
    9.7577  -17.4420   21.5077 C   0  0  0  0  0  0  0  0  0  0  0  0
    9.2995  -16.2479   22.2697 C   0  0  2  0  0  0  0  0  0  0  0  0
    9.3698  -15.0506   21.4489 N   0  0  0  0  0  0  0  0  0  0  0  0
   10.0570  -16.0748   23.5254 C   0  0  0  0  0  0  0  0  0  0  0  0
   10.9315  -16.9045   23.8657 O   0  0  0  0  0  0  0  0  0  0  0  0
    8.7290  -20.2810   17.8611 N   0  0  0  0  0  0  0  0  0  0  0  0
    9.8444  -14.9875   24.3969 C   0  0  2  0  0  0  0  0  0  0  0  0
    9.1769  -15.1775   25.6679 C   0  0  0  0  0  0  0  0  0  0  0  0
    7.6982  -15.0951   25.5504 C   0  0  0  0  0  0  0  0  0  0  0  0
    7.2234  -13.7253   25.8056 C   0  0  0  0  0  0  0  0  0  0  0  0
    6.0772  -13.5852   26.5665 C   0  0  0  0  0  0  0  0  0  0  0  0
    5.6328  -12.3146   26.8436 C   0  0  0  0  0  0  0  0  0  0  0  0
    6.2969  -11.1991   26.3848 C   0  0  0  0  0  0  0  0  0  0  0  0
    7.4506  -11.3112   25.6185 C   0  0  0  0  0  0  0  0  0  0  0  0
    7.8749  -12.5960   25.3555 C   0  0  0  0  0  0  0  0  0  0  0  0
    9.5841  -16.5013   26.1656 O   0  0  0  0  0  0  0  0  0  0  0  0
   10.1366  -17.4378   25.3159 O   0  0  0  0  0  0  0  0  0  0  0  0
  2  3  1  0
  2  1  1  6
  4  3  1  0
  5  6  1  0
  5  4  1  0
  7  6  1  0
  8  2  1  0
  9  8  2  0
 10 11  1  0
 11 13  1  0
 11 12  2  0
 13 14  1  0
 14 15  1  0
 15 16  1  0
 17 16  1  6
 17 19  1  0
 17 18  1  0
 18  8  1  0
 19 21  1  0
 20 19  2  0
 21 22  1  0
 22 23  1  6
 23 24  1  0
 24 29  2  0
 25 24  1  0
 25 26  2  0
 26 27  1  0
 27 28  2  0
 29 28  1  0
 30 31  1  0
 30 22  1  0
 32 30  2  0
M  END
$$$$
