KRF.pdb
     RDKit          3D

 32 32  0  0  1  0  0  0  0  0999 V2000
    9.7620  -15.6611   19.2243 N   0  0  0  0  0  0  0  0  0  0  0  0
    8.9531  -14.7100   19.9161 C   0  0  1  0  0  0  0  0  0  0  0  0
    7.8024  -14.2036   19.1307 C   0  0  0  0  0  0  0  0  0  0  0  0
    7.9804  -14.3902   17.6681 C   0  0  0  0  0  0  0  0  0  0  0  0
    7.6932  -13.2131   16.7990 C   0  0  0  0  0  0  0  0  0  0  0  0
    7.8162  -13.6184   15.3065 C   0  0  0  0  0  0  0  0  0  0  0  0
    7.4593  -12.4027   14.5710 N   0  0  0  0  0  0  0  0  0  0  0  0
    8.5227  -15.3176   21.2200 C   0  0  0  0  0  0  0  0  0  0  0  0
    7.7008  -14.6467   21.9109 O   0  0  0  0  0  0  0  0  0  0  0  0
    7.2123  -19.6999   19.2083 N   0  0  0  0  0  0  0  0  0  0  0  0
    6.9054  -20.9955   19.7267 C   0  0  0  0  0  0  0  0  0  0  0  0
    5.8651  -21.6516   19.3163 N   0  0  0  0  0  0  0  0  0  0  0  0
    7.7257  -21.6131   20.7091 N   0  0  0  0  0  0  0  0  0  0  0  0
    8.3480  -20.8627   21.7604 C   0  0  0  0  0  0  0  0  0  0  0  0
    7.9116  -19.4055   21.8104 C   0  0  0  0  0  0  0  0  0  0  0  0
    8.6906  -18.6492   22.8380 C   0  0  0  0  0  0  0  0  0  0  0  0
    8.4842  -17.1749   22.8473 C   0  0  2  0  0  0  0  0  0  0  0  0
    9.0164  -16.5690   21.6383 N   0  0  0  0  0  0  0  0  0  0  0  0
    9.0622  -16.5479   24.0530 C   0  0  0  0  0  0  0  0  0  0  0  0
   10.2591  -16.1795   24.0723 O   0  0  0  0  0  0  0  0  0  0  0  0
    5.7271  -22.6096   19.6959 N   0  0  0  0  0  0  0  0  0  0  0  0
    8.3154  -16.3317   25.2288 C   0  0  2  0  0  0  0  0  0  0  0  0
    8.9142  -15.6835   26.3770 C   0  0  0  0  0  0  0  0  0  0  0  0
    7.9215  -14.9300   27.1854 C   0  0  0  0  0  0  0  0  0  0  0  0
    7.5028  -13.6991   26.4950 C   0  0  0  0  0  0  0  0  0  0  0  0
    6.1450  -13.4490   26.4168 C   0  0  0  0  0  0  0  0  0  0  0  0
    5.7322  -12.2902   25.8039 C   0  0  0  0  0  0  0  0  0  0  0  0
    6.6309  -11.3906   25.2759 C   0  0  0  0  0  0  0  0  0  0  0  0
    8.0003  -11.6172   25.3407 C   0  0  0  0  0  0  0  0  0  0  0  0
    8.3875  -12.7858   25.9605 C   0  0  0  0  0  0  0  0  0  0  0  0
    9.5403  -16.7442   27.1825 O   0  0  0  0  0  0  0  0  0  0  0  0
   10.3116  -16.4346   28.2841 O   0  0  0  0  0  0  0  0  0  0  0  0
  2  3  1  0
  2  1  1  6
  4  3  1  0
  5  6  1  0
  5  4  1  0
  7  6  1  0
  8  2  1  0
  9  8  2  0
 10 11  1  0
 11 13  1  0
 11 12  2  0
 13 14  1  0
 14 15  1  0
 15 16  1  0
 17 16  1  6
 17 19  1  0
 17 18  1  0
 18  8  1  0
 19 21  1  0
 20 19  2  0
 21 22  1  0
 22 23  1  6
 23 24  1  0
 24 29  2  0
 25 24  1  0
 25 26  2  0
 26 27  1  0
 27 28  2  0
 29 28  1  0
 30 31  1  0
 30 22  1  0
 32 30  2  0
M  END
$$$$
