KRF.pdb
     RDKit          3D

 32 32  0  0  1  0  0  0  0  0999 V2000
    4.9566  -18.7719   23.7303 N   0  0  0  0  0  0  0  0  0  0  0  0
    5.7678  -19.3015   22.6820 C   0  0  1  0  0  0  0  0  0  0  0  0
    5.0028  -19.8221   21.5239 C   0  0  0  0  0  0  0  0  0  0  0  0
    5.8771  -20.4117   20.4781 C   0  0  0  0  0  0  0  0  0  0  0  0
    5.4296  -21.6991   19.8732 C   0  0  0  0  0  0  0  0  0  0  0  0
    6.4486  -22.1573   18.7969 C   0  0  0  0  0  0  0  0  0  0  0  0
    5.9288  -23.4456   18.3319 N   0  0  0  0  0  0  0  0  0  0  0  0
    6.7593  -18.2494   22.2764 C   0  0  0  0  0  0  0  0  0  0  0  0
    7.7832  -18.6511   21.6492 O   0  0  0  0  0  0  0  0  0  0  0  0
    9.8751  -14.3834   18.3538 N   0  0  0  0  0  0  0  0  0  0  0  0
    9.6551  -13.0227   18.7300 C   0  0  0  0  0  0  0  0  0  0  0  0
   10.6467  -12.2009   18.8799 N   0  0  0  0  0  0  0  0  0  0  0  0
    8.3453  -12.5190   18.9536 N   0  0  0  0  0  0  0  0  0  0  0  0
    7.6227  -12.7906   20.1619 C   0  0  0  0  0  0  0  0  0  0  0  0
    8.2240  -13.9153   20.9924 C   0  0  0  0  0  0  0  0  0  0  0  0
    7.1528  -14.7597   21.6040 C   0  0  0  0  0  0  0  0  0  0  0  0
    7.6255  -15.9390   22.3800 C   0  0  2  0  0  0  0  0  0  0  0  0
    6.5470  -16.8913   22.5848 N   0  0  0  0  0  0  0  0  0  0  0  0
    8.2329  -15.5416   23.6660 C   0  0  0  0  0  0  0  0  0  0  0  0
    8.5924  -14.3586   23.8663 O   0  0  0  0  0  0  0  0  0  0  0  0
   10.4185  -11.2283   19.1678 N   0  0  0  0  0  0  0  0  0  0  0  0
    8.4393  -16.4522   24.7220 C   0  0  1  0  0  0  0  0  0  0  0  0
    9.1449  -16.0480   25.9203 C   0  0  0  0  0  0  0  0  0  0  0  0
    8.2257  -15.5830   26.9908 C   0  0  0  0  0  0  0  0  0  0  0  0
    7.7993  -14.1940   26.7545 C   0  0  0  0  0  0  0  0  0  0  0  0
    8.7618  -13.2084   26.8743 C   0  0  0  0  0  0  0  0  0  0  0  0
    8.3935  -11.9075   26.6278 C   0  0  0  0  0  0  0  0  0  0  0  0
    7.1062  -11.5747   26.2704 C   0  0  0  0  0  0  0  0  0  0  0  0
    6.1197  -12.5450   26.1429 C   0  0  0  0  0  0  0  0  0  0  0  0
    6.5153  -13.8410   26.3951 C   0  0  0  0  0  0  0  0  0  0  0  0
    9.9162  -17.2173   26.3716 O   0  0  0  0  0  0  0  0  0  0  0  0
   10.7326  -17.1415   27.4815 O   0  0  0  0  0  0  0  0  0  0  0  0
  2  3  1  0
  2  1  1  1
  4  3  1  0
  5  6  1  0
  5  4  1  0
  7  6  1  0
  8  2  1  0
  9  8  2  0
 10 11  1  0
 11 13  1  0
 11 12  2  0
 13 14  1  0
 14 15  1  0
 15 16  1  0
 17 16  1  1
 17 19  1  0
 17 18  1  0
 18  8  1  0
 19 21  1  0
 20 19  2  0
 21 22  1  0
 22 23  1  1
 23 24  1  0
 24 29  2  0
 25 24  1  0
 25 26  2  0
 26 27  1  0
 27 28  2  0
 29 28  1  0
 30 31  1  0
 30 22  1  0
 32 30  2  0
M  END
$$$$
