KRF.pdb
     RDKit          3D

 32 32  0  0  1  0  0  0  0  0999 V2000
    9.7854  -13.1507   19.2027 N   0  0  0  0  0  0  0  0  0  0  0  0
    8.4749  -13.1937   19.7667 C   0  0  1  0  0  0  0  0  0  0  0  0
    7.3815  -13.2154   18.7659 C   0  0  0  0  0  0  0  0  0  0  0  0
    7.5840  -14.2487   17.7185 C   0  0  0  0  0  0  0  0  0  0  0  0
    7.8300  -13.7619   16.3307 C   0  0  0  0  0  0  0  0  0  0  0  0
    8.0314  -14.9691   15.3774 C   0  0  0  0  0  0  0  0  0  0  0  0
    8.4066  -14.3613   14.0983 N   0  0  0  0  0  0  0  0  0  0  0  0
    8.4042  -14.3639   20.7050 C   0  0  0  0  0  0  0  0  0  0  0  0
    7.2705  -14.6140   21.2104 O   0  0  0  0  0  0  0  0  0  0  0  0
    9.6485  -21.4645   23.0014 N   0  0  0  0  0  0  0  0  0  0  0  0
   10.1938  -21.4983   21.6812 C   0  0  0  0  0  0  0  0  0  0  0  0
    9.8368  -22.4114   20.8327 N   0  0  0  0  0  0  0  0  0  0  0  0
   11.1454  -20.5358   21.2484 N   0  0  0  0  0  0  0  0  0  0  0  0
   11.5777  -19.4614   22.0936 C   0  0  0  0  0  0  0  0  0  0  0  0
   10.4617  -18.5003   22.4774 C   0  0  0  0  0  0  0  0  0  0  0  0
   10.4779  -17.2866   21.6048 C   0  0  0  0  0  0  0  0  0  0  0  0
    9.4291  -16.2704   21.8940 C   0  0  2  0  0  0  0  0  0  0  0  0
    9.5477  -15.1329   20.9974 N   0  0  0  0  0  0  0  0  0  0  0  0
    9.4591  -15.8379   23.3057 C   0  0  0  0  0  0  0  0  0  0  0  0
   10.2713  -14.9659   23.6914 O   0  0  0  0  0  0  0  0  0  0  0  0
   10.2682  -22.3765   19.8874 N   0  0  0  0  0  0  0  0  0  0  0  0
    8.5927  -16.3704   24.2818 C   0  0  2  0  0  0  0  0  0  0  0  0
    8.5803  -15.8393   25.6290 C   0  0  0  0  0  0  0  0  0  0  0  0
    7.2032  -15.6011   26.1327 C   0  0  0  0  0  0  0  0  0  0  0  0
    6.8163  -14.1906   25.9662 C   0  0  0  0  0  0  0  0  0  0  0  0
    7.0506  -13.3410   27.0318 C   0  0  0  0  0  0  0  0  0  0  0  0
    6.7260  -12.0134   26.8876 C   0  0  0  0  0  0  0  0  0  0  0  0
    6.1813  -11.5237   25.7218 C   0  0  0  0  0  0  0  0  0  0  0  0
    5.9356  -12.3551   24.6359 C   0  0  0  0  0  0  0  0  0  0  0  0
    6.2704  -13.6813   24.8065 C   0  0  0  0  0  0  0  0  0  0  0  0
    9.2795  -16.8189   26.4760 O   0  0  0  0  0  0  0  0  0  0  0  0
    9.6478  -16.5027   27.7677 O   0  0  0  0  0  0  0  0  0  0  0  0
  2  3  1  0
  2  1  1  6
  4  3  1  0
  5  6  1  0
  5  4  1  0
  7  6  1  0
  8  2  1  0
  9  8  2  0
 10 11  1  0
 11 13  1  0
 11 12  2  0
 13 14  1  0
 14 15  1  0
 15 16  1  0
 17 16  1  1
 17 19  1  0
 17 18  1  0
 18  8  1  0
 19 21  1  0
 20 19  2  0
 21 22  1  0
 22 23  1  6
 23 24  1  0
 24 29  2  0
 25 24  1  0
 25 26  2  0
 26 27  1  0
 27 28  2  0
 29 28  1  0
 30 31  1  0
 30 22  1  0
 32 30  2  0
M  END
$$$$
