KRF.pdb
     RDKit          3D

 32 32  0  0  1  0  0  0  0  0999 V2000
    7.3078  -19.3718   22.1768 N   0  0  0  0  0  0  0  0  0  0  0  0
    8.6915  -19.3814   21.8263 C   0  0  1  0  0  0  0  0  0  0  0  0
    8.9744  -19.9296   20.4784 C   0  0  0  0  0  0  0  0  0  0  0  0
   10.3651  -20.4336   20.3453 C   0  0  0  0  0  0  0  0  0  0  0  0
   10.7844  -20.9049   18.9941 C   0  0  0  0  0  0  0  0  0  0  0  0
   12.2354  -21.4505   19.0538 C   0  0  0  0  0  0  0  0  0  0  0  0
   12.5674  -21.7485   17.6584 N   0  0  0  0  0  0  0  0  0  0  0  0
    9.2294  -17.9896   21.9938 C   0  0  0  0  0  0  0  0  0  0  0  0
   10.4897  -17.8719   22.0258 O   0  0  0  0  0  0  0  0  0  0  0  0
    8.9428  -15.0840   17.8947 N   0  0  0  0  0  0  0  0  0  0  0  0
    8.2258  -13.9334   17.4435 C   0  0  0  0  0  0  0  0  0  0  0  0
    8.4058  -13.4577   16.2508 N   0  0  0  0  0  0  0  0  0  0  0  0
    7.2908  -13.2681   18.2816 N   0  0  0  0  0  0  0  0  0  0  0  0
    7.5346  -13.0635   19.6796 C   0  0  0  0  0  0  0  0  0  0  0  0
    8.5275  -14.0506   20.2764 C   0  0  0  0  0  0  0  0  0  0  0  0
    8.0660  -14.5296   21.6152 C   0  0  0  0  0  0  0  0  0  0  0  0
    8.9286  -15.5535   22.2662 C   0  0  2  0  0  0  0  0  0  0  0  0
    8.3645  -16.8835   22.1078 N   0  0  0  0  0  0  0  0  0  0  0  0
    9.1663  -15.2449   23.6906 C   0  0  0  0  0  0  0  0  0  0  0  0
    9.5920  -14.1200   24.0401 O   0  0  0  0  0  0  0  0  0  0  0  0
    7.8499  -12.6206   15.9842 N   0  0  0  0  0  0  0  0  0  0  0  0
    8.9324  -16.1796   24.7195 C   0  0  1  0  0  0  0  0  0  0  0  0
    9.2638  -15.8656   26.0938 C   0  0  0  0  0  0  0  0  0  0  0  0
    8.0743  -15.4604   26.8862 C   0  0  0  0  0  0  0  0  0  0  0  0
    7.7385  -14.0467   26.6497 C   0  0  0  0  0  0  0  0  0  0  0  0
    6.4652  -13.7685   26.1874 C   0  0  0  0  0  0  0  0  0  0  0  0
    6.1192  -12.4533   25.9891 C   0  0  0  0  0  0  0  0  0  0  0  0
    7.0025  -11.4268   26.2380 C   0  0  0  0  0  0  0  0  0  0  0  0
    8.2875  -11.6782   26.7029 C   0  0  0  0  0  0  0  0  0  0  0  0
    8.6088  -13.0049   26.8937 C   0  0  0  0  0  0  0  0  0  0  0  0
    9.8809  -17.0727   26.6664 O   0  0  0  0  0  0  0  0  0  0  0  0
   10.0344  -18.2164   25.9095 O   0  0  0  0  0  0  0  0  0  0  0  0
  2  3  1  0
  2  1  1  6
  4  3  1  0
  5  6  1  0
  5  4  1  0
  7  6  1  0
  8  2  1  0
  9  8  2  0
 10 11  1  0
 11 13  1  0
 11 12  2  0
 13 14  1  0
 14 15  1  0
 15 16  1  0
 17 16  1  1
 17 19  1  0
 17 18  1  0
 18  8  1  0
 19 21  1  0
 20 19  2  0
 21 22  1  0
 22 23  1  6
 23 24  1  0
 24 29  2  0
 25 24  1  0
 25 26  2  0
 26 27  1  0
 27 28  2  0
 29 28  1  0
 30 31  1  0
 30 22  1  0
 32 30  2  0
M  END
$$$$
