KRF.pdb
     RDKit          3D

 32 32  0  0  1  0  0  0  0  0999 V2000
    5.0749  -16.5385   20.9340 N   0  0  0  0  0  0  0  0  0  0  0  0
    6.4462  -16.5474   21.3301 C   0  0  1  0  0  0  0  0  0  0  0  0
    7.1744  -15.2911   21.0320 C   0  0  0  0  0  0  0  0  0  0  0  0
    7.3875  -15.0839   19.5768 C   0  0  0  0  0  0  0  0  0  0  0  0
    8.2768  -13.9546   19.1803 C   0  0  0  0  0  0  0  0  0  0  0  0
    8.3507  -13.8608   17.6336 C   0  0  0  0  0  0  0  0  0  0  0  0
    9.1544  -12.6621   17.3819 N   0  0  0  0  0  0  0  0  0  0  0  0
    6.5135  -16.9065   22.7865 C   0  0  0  0  0  0  0  0  0  0  0  0
    5.5747  -16.4744   23.5180 O   0  0  0  0  0  0  0  0  0  0  0  0
    7.3181  -22.1115   29.0318 N   0  0  0  0  0  0  0  0  0  0  0  0
    6.7656  -22.4046   27.7471 C   0  0  0  0  0  0  0  0  0  0  0  0
    5.5409  -22.8117   27.6221 N   0  0  0  0  0  0  0  0  0  0  0  0
    7.5343  -22.2616   26.5606 N   0  0  0  0  0  0  0  0  0  0  0  0
    8.5852  -21.2927   26.4481 C   0  0  0  0  0  0  0  0  0  0  0  0
    8.0850  -19.8582   26.3566 C   0  0  0  0  0  0  0  0  0  0  0  0
    7.9236  -19.4383   24.9309 C   0  0  0  0  0  0  0  0  0  0  0  0
    7.6013  -18.0011   24.7146 C   0  0  2  0  0  0  0  0  0  0  0  0
    7.5717  -17.6840   23.2966 N   0  0  0  0  0  0  0  0  0  0  0  0
    8.5361  -17.1147   25.4365 C   0  0  0  0  0  0  0  0  0  0  0  0
    9.6997  -16.9288   25.0118 O   0  0  0  0  0  0  0  0  0  0  0  0
    5.2235  -23.0776   26.6685 N   0  0  0  0  0  0  0  0  0  0  0  0
    8.1805  -16.4397   26.6217 C   0  0  2  0  0  0  0  0  0  0  0  0
    9.1209  -15.5581   27.2817 C   0  0  0  0  0  0  0  0  0  0  0  0
    8.4456  -14.4992   28.0752 C   0  0  0  0  0  0  0  0  0  0  0  0
    7.8691  -13.4677   27.1973 C   0  0  0  0  0  0  0  0  0  0  0  0
    6.5806  -13.0494   27.4753 C   0  0  0  0  0  0  0  0  0  0  0  0
    6.0332  -12.0649   26.6879 C   0  0  0  0  0  0  0  0  0  0  0  0
    6.7328  -11.4986   25.6460 C   0  0  0  0  0  0  0  0  0  0  0  0
    8.0285  -11.9001   25.3449 C   0  0  0  0  0  0  0  0  0  0  0  0
    8.5539  -12.8881   26.1497 C   0  0  0  0  0  0  0  0  0  0  0  0
    9.9552  -16.4038   28.1503 O   0  0  0  0  0  0  0  0  0  0  0  0
    9.8433  -17.7788   28.1186 O   0  0  0  0  0  0  0  0  0  0  0  0
  2  3  1  0
  2  1  1  1
  4  3  1  0
  5  6  1  0
  5  4  1  0
  7  6  1  0
  8  2  1  0
  9  8  2  0
 10 11  1  0
 11 13  1  0
 11 12  2  0
 13 14  1  0
 14 15  1  0
 15 16  1  0
 17 16  1  6
 17 19  1  0
 17 18  1  0
 18  8  1  0
 19 21  1  0
 20 19  2  0
 21 22  1  0
 22 23  1  6
 23 24  1  0
 24 29  2  0
 25 24  1  0
 25 26  2  0
 26 27  1  0
 27 28  2  0
 29 28  1  0
 30 31  1  0
 30 22  1  0
 32 30  2  0
M  END
$$$$
