YCA.pdb
     RDKit          3D

 24 24  0  0  1  0  0  0  0  0999 V2000
    7.0852  -12.9047   17.3266 O   0  0  0  0  0  0  0  0  0  0  0  0
    7.3352  -13.4800   18.5857 C   0  0  0  0  0  0  0  0  0  0  0  0
    7.8550  -12.6959   19.5941 C   0  0  0  0  0  0  0  0  0  0  0  0
    8.1051  -13.2507   20.8374 C   0  0  0  0  0  0  0  0  0  0  0  0
    7.8455  -14.5898   21.1042 C   0  0  0  0  0  0  0  0  0  0  0  0
    8.1248  -15.1642   22.4553 C   0  0  0  0  0  0  0  0  0  0  0  0
    9.6095  -15.0329   22.7046 C   0  0  2  0  0  0  0  0  0  0  0  0
   10.2908  -15.8321   21.7272 N   0  0  0  0  0  0  0  0  0  0  0  0
    9.9770  -15.3775   24.0968 C   0  0  0  0  0  0  0  0  0  0  0  0
   10.5435  -16.4791   24.3130 O   0  0  0  0  0  0  0  0  0  0  0  0
    7.3259  -15.3421   20.0707 C   0  0  0  0  0  0  0  0  0  0  0  0
    7.0680  -14.8061   18.8180 C   0  0  0  0  0  0  0  0  0  0  0  0
    9.7375  -14.5539   25.2158 N   0  0  0  0  0  0  0  0  0  0  0  0
   10.1456  -14.8079   26.5549 C   0  0  1  0  0  0  0  0  0  0  0  0
    9.6850  -13.7848   27.5523 C   0  0  0  0  0  0  0  0  0  0  0  0
   10.1119  -14.1809   29.2405 S   0  0  0  0  0  0  0  0  0  0  0  0
    9.8039  -16.1887   26.9777 C   0  0  0  0  0  0  0  0  0  0  0  0
    8.5881  -16.5057   27.0086 O   0  0  0  0  0  0  0  0  0  0  0  0
   10.7446  -19.5881   26.9908 C   0  0  0  0  0  0  0  0  0  0  0  0
   10.4555  -18.4332   27.9095 C   0  0  2  0  0  0  0  0  0  0  0  0
   10.7830  -17.1520   27.3434 N   0  0  0  0  0  0  0  0  0  0  0  0
   11.0539  -18.6245   29.2549 C   0  0  0  0  0  0  0  0  0  0  0  0
   10.7778  -19.6833   29.8709 O   0  0  0  0  0  0  0  0  0  0  0  0
   11.8822  -17.7057   29.8415 O   0  0  0  0  0  0  0  0  0  0  0  0
  1  2  1  0
  2  3  2  0
  3  4  1  0
  5  4  2  0
  5  6  1  0
  6  7  1  0
  7  8  1  6
  9  7  1  0
  9 13  1  0
 10  9  2  0
 11  5  1  0
 12  2  1  0
 12 11  2  0
 14 13  1  0
 14 17  1  0
 14 15  1  1
 16 15  1  0
 17 18  2  0
 20 19  1  6
 21 17  1  0
 21 20  1  0
 22 20  1  0
 22 24  1  0
 23 22  2  0
M  END
$$$$
