YCA.pdb
     RDKit          3D

 24 24  0  0  1  0  0  0  0  0999 V2000
    8.2456  -12.5207   16.4074 O   0  0  0  0  0  0  0  0  0  0  0  0
    8.0473  -13.5293   17.3677 C   0  0  0  0  0  0  0  0  0  0  0  0
    7.5971  -13.1843   18.6248 C   0  0  0  0  0  0  0  0  0  0  0  0
    7.3981  -14.1680   19.5782 C   0  0  0  0  0  0  0  0  0  0  0  0
    7.6409  -15.5088   19.3046 C   0  0  0  0  0  0  0  0  0  0  0  0
    7.4181  -16.5513   20.3519 C   0  0  0  0  0  0  0  0  0  0  0  0
    6.6264  -15.9096   21.4678 C   0  0  2  0  0  0  0  0  0  0  0  0
    5.8281  -14.8645   20.8944 N   0  0  0  0  0  0  0  0  0  0  0  0
    7.4933  -15.4403   22.5725 C   0  0  0  0  0  0  0  0  0  0  0  0
    8.1524  -14.3819   22.4101 O   0  0  0  0  0  0  0  0  0  0  0  0
    8.0903  -15.8149   18.0363 C   0  0  0  0  0  0  0  0  0  0  0  0
    8.2961  -14.8451   17.0666 C   0  0  0  0  0  0  0  0  0  0  0  0
    7.6393  -16.0980   23.8109 N   0  0  0  0  0  0  0  0  0  0  0  0
    8.5048  -15.7163   24.8737 C   0  0  1  0  0  0  0  0  0  0  0  0
    7.8896  -14.7814   25.8744 C   0  0  0  0  0  0  0  0  0  0  0  0
    6.1177  -14.9484   26.0221 S   0  0  0  0  0  0  0  0  0  0  0  0
    9.1244  -16.8972   25.5248 C   0  0  0  0  0  0  0  0  0  0  0  0
    8.3566  -17.7712   26.0005 O   0  0  0  0  0  0  0  0  0  0  0  0
   12.5759  -18.4242   25.8708 C   0  0  0  0  0  0  0  0  0  0  0  0
   11.1355  -18.2222   26.2529 C   0  0  2  0  0  0  0  0  0  0  0  0
   10.5306  -17.0755   25.6297 N   0  0  0  0  0  0  0  0  0  0  0  0
   10.9398  -18.2326   27.7247 C   0  0  0  0  0  0  0  0  0  0  0  0
   11.3243  -19.2470   28.3571 O   0  0  0  0  0  0  0  0  0  0  0  0
   10.3652  -17.1954   28.4092 O   0  0  0  0  0  0  0  0  0  0  0  0
  1  2  1  0
  2  3  2  0
  3  4  1  0
  5  4  2  0
  5  6  1  0
  6  7  1  0
  7  8  1  6
  9  7  1  0
  9 13  1  0
 10  9  2  0
 11  5  1  0
 12  2  1  0
 12 11  2  0
 14 13  1  0
 14 17  1  0
 14 15  1  1
 16 15  1  0
 17 18  2  0
 20 19  1  1
 21 17  1  0
 21 20  1  0
 22 20  1  0
 22 24  1  0
 23 22  2  0
M  END
$$$$
