YCA.pdb
     RDKit          3D

 24 24  0  0  1  0  0  0  0  0999 V2000
    8.8661  -12.4648   16.9034 O   0  0  0  0  0  0  0  0  0  0  0  0
    8.3527  -12.9608   18.1155 C   0  0  0  0  0  0  0  0  0  0  0  0
    9.1296  -12.8972   19.2532 C   0  0  0  0  0  0  0  0  0  0  0  0
    8.6353  -13.3820   20.4518 C   0  0  0  0  0  0  0  0  0  0  0  0
    7.3647  -13.9376   20.5455 C   0  0  0  0  0  0  0  0  0  0  0  0
    6.8548  -14.4541   21.8518 C   0  0  0  0  0  0  0  0  0  0  0  0
    7.1998  -15.9237   21.9230 C   0  0  2  0  0  0  0  0  0  0  0  0
    6.2401  -16.6384   21.1316 N   0  0  0  0  0  0  0  0  0  0  0  0
    7.2840  -16.4130   23.3179 C   0  0  0  0  0  0  0  0  0  0  0  0
    6.2207  -16.7379   23.9053 O   0  0  0  0  0  0  0  0  0  0  0  0
    6.6174  -13.9838   19.3864 C   0  0  0  0  0  0  0  0  0  0  0  0
    7.0935  -13.5038   18.1755 C   0  0  0  0  0  0  0  0  0  0  0  0
    8.4819  -16.5448   24.0496 N   0  0  0  0  0  0  0  0  0  0  0  0
    8.6014  -16.9411   25.4109 C   0  0  1  0  0  0  0  0  0  0  0  0
    9.0006  -18.3745   25.6108 C   0  0  0  0  0  0  0  0  0  0  0  0
   10.6542  -18.7471   25.0489 S   0  0  0  0  0  0  0  0  0  0  0  0
    9.4683  -16.0113   26.1765 C   0  0  0  0  0  0  0  0  0  0  0  0
   10.5729  -15.6917   25.6692 O   0  0  0  0  0  0  0  0  0  0  0  0
    9.4102  -13.3498   28.6437 C   0  0  0  0  0  0  0  0  0  0  0  0
    9.9906  -14.6788   28.2458 C   0  0  2  0  0  0  0  0  0  0  0  0
    9.1036  -15.4763   27.4418 N   0  0  0  0  0  0  0  0  0  0  0  0
   10.5227  -15.4290   29.4115 C   0  0  0  0  0  0  0  0  0  0  0  0
   10.0095  -16.5455   29.6701 O   0  0  0  0  0  0  0  0  0  0  0  0
   11.5356  -14.9586   30.2034 O   0  0  0  0  0  0  0  0  0  0  0  0
  1  2  1  0
  2  3  2  0
  3  4  1  0
  5  4  2  0
  5  6  1  0
  6  7  1  0
  7  8  1  6
  9  7  1  0
  9 13  1  0
 10  9  2  0
 11  5  1  0
 12  2  1  0
 12 11  2  0
 14 13  1  0
 14 17  1  0
 14 15  1  6
 16 15  1  0
 17 18  2  0
 20 19  1  1
 21 17  1  0
 21 20  1  0
 22 20  1  0
 22 24  1  0
 23 22  2  0
M  END
$$$$
