YCA.pdb
     RDKit          3D

 24 24  0  0  1  0  0  0  0  0999 V2000
    6.2473  -10.4876   27.4419 O   0  0  0  0  0  0  0  0  0  0  0  0
    6.6507  -11.7960   27.1192 C   0  0  0  0  0  0  0  0  0  0  0  0
    5.7043  -12.7118   26.7098 C   0  0  0  0  0  0  0  0  0  0  0  0
    6.0891  -14.0024   26.3896 C   0  0  0  0  0  0  0  0  0  0  0  0
    7.4159  -14.4088   26.4688 C   0  0  0  0  0  0  0  0  0  0  0  0
    7.8050  -15.8082   26.1175 C   0  0  0  0  0  0  0  0  0  0  0  0
    6.7607  -16.3425   25.1647 C   0  0  2  0  0  0  0  0  0  0  0  0
    6.2056  -17.5317   25.7444 N   0  0  0  0  0  0  0  0  0  0  0  0
    7.3010  -16.5563   23.8029 C   0  0  0  0  0  0  0  0  0  0  0  0
    7.8515  -17.6562   23.5414 O   0  0  0  0  0  0  0  0  0  0  0  0
    8.3336  -13.4647   26.8822 C   0  0  0  0  0  0  0  0  0  0  0  0
    7.9692  -12.1668   27.2077 C   0  0  0  0  0  0  0  0  0  0  0  0
    7.2452  -15.6081   22.7611 N   0  0  0  0  0  0  0  0  0  0  0  0
    7.8296  -15.7357   21.4701 C   0  0  1  0  0  0  0  0  0  0  0  0
    7.5396  -14.5949   20.5383 C   0  0  0  0  0  0  0  0  0  0  0  0
    8.4484  -14.6695   19.0029 S   0  0  0  0  0  0  0  0  0  0  0  0
    9.2820  -16.0284   21.5543 C   0  0  0  0  0  0  0  0  0  0  0  0
   10.0021  -15.2282   22.2030 O   0  0  0  0  0  0  0  0  0  0  0  0
   11.6654  -18.8203   20.5866 C   0  0  0  0  0  0  0  0  0  0  0  0
   11.2981  -17.4094   20.9552 C   0  0  2  0  0  0  0  0  0  0  0  0
    9.8813  -17.1611   20.9394 N   0  0  0  0  0  0  0  0  0  0  0  0
   12.0546  -16.4081   20.1617 C   0  0  0  0  0  0  0  0  0  0  0  0
   11.7285  -16.2495   18.9595 O   0  0  0  0  0  0  0  0  0  0  0  0
   13.0784  -15.6623   20.6812 O   0  0  0  0  0  0  0  0  0  0  0  0
  1  2  1  0
  2  3  2  0
  3  4  1  0
  5  4  2  0
  5  6  1  0
  6  7  1  0
  7  8  1  1
  9  7  1  0
  9 13  1  0
 10  9  2  0
 11  5  1  0
 12  2  1  0
 12 11  2  0
 14 13  1  0
 14 17  1  0
 14 15  1  6
 16 15  1  0
 17 18  2  0
 20 19  1  6
 21 17  1  0
 21 20  1  0
 22 20  1  0
 22 24  1  0
 23 22  2  0
M  END
$$$$
