YCA.pdb
     RDKit          3D

 24 24  0  0  1  0  0  0  0  0999 V2000
   10.3659  -14.2849   30.9007 O   0  0  0  0  0  0  0  0  0  0  0  0
   10.1617  -14.6127   29.5480 C   0  0  0  0  0  0  0  0  0  0  0  0
    9.6184  -13.6702   28.7004 C   0  0  0  0  0  0  0  0  0  0  0  0
    9.4127  -13.9810   27.3673 C   0  0  0  0  0  0  0  0  0  0  0  0
    9.7408  -15.2287   26.8502 C   0  0  0  0  0  0  0  0  0  0  0  0
    9.5085  -15.5389   25.4069 C   0  0  0  0  0  0  0  0  0  0  0  0
    8.0259  -15.7696   25.2267 C   0  0  2  0  0  0  0  0  0  0  0  0
    7.6500  -16.8768   26.0581 N   0  0  0  0  0  0  0  0  0  0  0  0
    7.6562  -15.9572   23.8053 C   0  0  0  0  0  0  0  0  0  0  0  0
    7.5459  -17.1292   23.3634 O   0  0  0  0  0  0  0  0  0  0  0  0
   10.2821  -16.1450   27.7286 C   0  0  0  0  0  0  0  0  0  0  0  0
   10.4963  -15.8541   29.0675 C   0  0  0  0  0  0  0  0  0  0  0  0
    7.4146  -14.9078   22.8953 N   0  0  0  0  0  0  0  0  0  0  0  0
    7.4241  -15.0014   21.4756 C   0  0  1  0  0  0  0  0  0  0  0  0
    7.0874  -13.7233   20.7637 C   0  0  0  0  0  0  0  0  0  0  0  0
    7.1820  -13.8429   18.9845 S   0  0  0  0  0  0  0  0  0  0  0  0
    8.6871  -15.5992   20.9759 C   0  0  0  0  0  0  0  0  0  0  0  0
    9.7625  -15.0144   21.2607 O   0  0  0  0  0  0  0  0  0  0  0  0
   10.6155  -16.3662   18.6777 C   0  0  0  0  0  0  0  0  0  0  0  0
    9.9368  -17.3157   19.6259 C   0  0  2  0  0  0  0  0  0  0  0  0
    8.7273  -16.7892   20.1996 N   0  0  0  0  0  0  0  0  0  0  0  0
   10.8684  -17.8390   20.6569 C   0  0  0  0  0  0  0  0  0  0  0  0
   11.9223  -18.3958   20.2620 O   0  0  0  0  0  0  0  0  0  0  0  0
   10.6272  -17.7398   22.0009 O   0  0  0  0  0  0  0  0  0  0  0  0
  1  2  1  0
  2  3  2  0
  3  4  1  0
  5  4  2  0
  5  6  1  0
  6  7  1  0
  7  8  1  1
  9  7  1  0
  9 13  1  0
 10  9  2  0
 11  5  1  0
 12  2  1  0
 12 11  2  0
 14 13  1  0
 14 17  1  0
 14 15  1  6
 16 15  1  0
 17 18  2  0
 20 19  1  1
 21 17  1  0
 21 20  1  0
 22 20  1  0
 22 24  1  0
 23 22  2  0
M  END
$$$$
