YCA.pdb
     RDKit          3D

 24 24  0  0  1  0  0  0  0  0999 V2000
    2.6085  -23.5604   24.7319 O   0  0  0  0  0  0  0  0  0  0  0  0
    3.6781  -22.6543   24.6148 C   0  0  0  0  0  0  0  0  0  0  0  0
    3.4242  -21.3598   24.2126 C   0  0  0  0  0  0  0  0  0  0  0  0
    4.4685  -20.4590   24.0937 C   0  0  0  0  0  0  0  0  0  0  0  0
    5.7810  -20.8231   24.3704 C   0  0  0  0  0  0  0  0  0  0  0  0
    6.8904  -19.8313   24.2340 C   0  0  0  0  0  0  0  0  0  0  0  0
    6.9440  -19.4091   22.7839 C   0  0  2  0  0  0  0  0  0  0  0  0
    7.2420  -20.5725   21.9991 N   0  0  0  0  0  0  0  0  0  0  0  0
    7.8942  -18.2961   22.5586 C   0  0  0  0  0  0  0  0  0  0  0  0
    9.0541  -18.5690   22.1573 O   0  0  0  0  0  0  0  0  0  0  0  0
    5.9954  -22.1265   24.7699 C   0  0  0  0  0  0  0  0  0  0  0  0
    4.9637  -23.0446   24.8954 C   0  0  0  0  0  0  0  0  0  0  0  0
    7.5946  -16.9336   22.7622 N   0  0  0  0  0  0  0  0  0  0  0  0
    8.4831  -15.8369   22.5825 C   0  0  1  0  0  0  0  0  0  0  0  0
    7.8362  -14.4862   22.6865 C   0  0  0  0  0  0  0  0  0  0  0  0
    6.2940  -14.3552   21.7957 S   0  0  0  0  0  0  0  0  0  0  0  0
    9.6755  -15.9505   23.4585 C   0  0  0  0  0  0  0  0  0  0  0  0
    9.4861  -16.2335   24.6684 O   0  0  0  0  0  0  0  0  0  0  0  0
   12.1749  -17.6160   24.0957 C   0  0  0  0  0  0  0  0  0  0  0  0
   12.1682  -16.1571   23.7313 C   0  0  2  0  0  0  0  0  0  0  0  0
   11.0030  -15.7547   22.9899 N   0  0  0  0  0  0  0  0  0  0  0  0
   13.4297  -15.7394   23.0690 C   0  0  0  0  0  0  0  0  0  0  0  0
   14.4989  -15.8727   23.7138 O   0  0  0  0  0  0  0  0  0  0  0  0
   13.4725  -15.2226   21.8019 O   0  0  0  0  0  0  0  0  0  0  0  0
  1  2  1  0
  2  3  2  0
  3  4  1  0
  5  4  2  0
  5  6  1  0
  6  7  1  0
  7  8  1  6
  9  7  1  0
  9 13  1  0
 10  9  2  0
 11  5  1  0
 12  2  1  0
 12 11  2  0
 14 13  1  0
 14 17  1  0
 14 15  1  1
 16 15  1  0
 17 18  2  0
 20 19  1  6
 21 17  1  0
 21 20  1  0
 22 20  1  0
 22 24  1  0
 23 22  2  0
M  END
$$$$
