HNM.pdb
     RDKit          3D

 27 27  0  0  1  0  0  0  0  0999 V2000
   22.6904  -14.6085  -21.2798 N   0  0  0  0  0  0  0  0  0  0  0  0
   22.8819  -14.0735  -19.9579 C   0  0  1  0  0  0  0  0  0  0  0  0
   24.3548  -14.1378  -19.5876 C   0  0  0  0  0  0  0  0  0  0  0  0
   24.8236  -15.5317  -19.4605 C   0  0  0  0  0  0  0  0  0  0  0  0
   24.0260  -16.6205  -19.2613 C   0  0  0  0  0  0  0  0  0  0  0  0
   24.8268  -17.7001  -19.2011 N   0  0  0  0  0  0  0  0  0  0  0  0
   26.0906  -17.2789  -19.3605 C   0  0  0  0  0  0  0  0  0  0  0  0
   26.0929  -15.9524  -19.5196 N   0  0  0  0  0  0  0  0  0  0  0  0
   22.4614  -12.6488  -19.9174 C   0  0  0  0  0  0  0  0  0  0  0  0
   22.2672  -12.0610  -21.0217 O   0  0  0  0  0  0  0  0  0  0  0  0
   20.4739   -8.2812  -18.6519 N   0  0  0  0  0  0  0  0  0  0  0  0
   19.7159   -9.3264  -19.2803 C   0  0  0  0  0  0  0  0  0  0  0  0
   18.6106   -9.0386  -19.7701 O   0  0  0  0  0  0  0  0  0  0  0  0
   20.3379  -10.6707  -19.2829 C   0  0  0  0  0  0  0  0  0  0  0  0
   21.7215  -10.6449  -18.6671 C   0  0  2  0  0  0  0  0  0  0  0  0
   22.2848  -11.9748  -18.6886 N   0  0  0  0  0  0  0  0  0  0  0  0
   21.6747  -10.1774  -17.2581 C   0  0  0  0  0  0  0  0  0  0  0  0
   20.9654  -10.8509  -16.4432 O   0  0  0  0  0  0  0  0  0  0  0  0
   27.3424  -11.9193  -15.3964 C   0  0  0  0  0  0  0  0  0  0  0  0
   26.6274  -10.3031  -15.2183 S   0  0  0  0  0  0  0  0  0  0  0  0
   24.8381  -10.3310  -15.2495 C   0  0  0  0  0  0  0  0  0  0  0  0
   24.1804   -9.0116  -15.2036 C   0  0  0  0  0  0  0  0  0  0  0  0
   22.7028   -8.9546  -15.3452 C   0  0  2  0  0  0  0  0  0  0  0  0
   22.3567   -9.0547  -16.7836 N   0  0  0  0  0  0  0  0  0  0  0  0
   22.1361   -7.6514  -14.9303 C   0  0  0  0  0  0  0  0  0  0  0  0
   21.9594   -6.7427  -15.7641 O   0  0  0  0  0  0  0  0  0  0  0  0
   21.7978   -7.4198  -13.6211 O   0  0  0  0  0  0  0  0  0  0  0  0
  2  3  1  0
  2  1  1  6
  4  3  1  0
  5  4  2  0
  6  5  1  0
  7  6  1  0
  7  8  2  0
  8  4  1  0
  9  2  1  0
 10  9  2  0
 12 11  1  0
 13 12  2  0
 14 12  1  0
 15 14  1  1
 15 16  1  0
 16  9  1  0
 17 15  1  0
 17 18  2  0
 19 20  1  0
 20 21  1  0
 23 22  1  6
 22 21  1  0
 23 24  1  0
 24 17  1  0
 25 23  1  0
 26 25  2  0
 27 25  1  0
M  END
$$$$
