HNM.pdb
     RDKit          3D

 27 27  0  0  1  0  0  0  0  0999 V2000
   20.3196  -23.4621  -14.8244 N   0  0  0  0  0  0  0  0  0  0  0  0
   20.1414  -23.2083  -13.4195 C   0  0  1  0  0  0  0  0  0  0  0  0
   19.2861  -21.9664  -13.2277 C   0  0  0  0  0  0  0  0  0  0  0  0
   19.9964  -20.7451  -13.6553 C   0  0  0  0  0  0  0  0  0  0  0  0
   21.3224  -20.6682  -13.9670 C   0  0  0  0  0  0  0  0  0  0  0  0
   21.5822  -19.3926  -14.3073 N   0  0  0  0  0  0  0  0  0  0  0  0
   20.4362  -18.7025  -14.2054 C   0  0  0  0  0  0  0  0  0  0  0  0
   19.4632  -19.5268  -13.8066 N   0  0  0  0  0  0  0  0  0  0  0  0
   19.4397  -24.3508  -12.7788 C   0  0  0  0  0  0  0  0  0  0  0  0
   18.5379  -24.9368  -13.4467 O   0  0  0  0  0  0  0  0  0  0  0  0
   17.9852  -28.1290   -9.9018 N   0  0  0  0  0  0  0  0  0  0  0  0
   19.4195  -28.1628   -9.9611 C   0  0  0  0  0  0  0  0  0  0  0  0
   19.9967  -29.2166   -9.6437 O   0  0  0  0  0  0  0  0  0  0  0  0
   20.0828  -26.9144  -10.4031 C   0  0  0  0  0  0  0  0  0  0  0  0
   19.0753  -25.8843  -10.8704 C   0  0  2  0  0  0  0  0  0  0  0  0
   19.7685  -24.7678  -11.4698 N   0  0  0  0  0  0  0  0  0  0  0  0
   18.2595  -25.3772   -9.7376 C   0  0  0  0  0  0  0  0  0  0  0  0
   18.6139  -24.2734   -9.2115 O   0  0  0  0  0  0  0  0  0  0  0  0
   16.7066  -25.8933   -2.7919 C   0  0  0  0  0  0  0  0  0  0  0  0
   17.1038  -26.5449   -4.3959 S   0  0  0  0  0  0  0  0  0  0  0  0
   17.6371  -25.2796   -5.5440 C   0  0  0  0  0  0  0  0  0  0  0  0
   17.8387  -25.7268   -6.9349 C   0  0  0  0  0  0  0  0  0  0  0  0
   16.6696  -25.7307   -7.8512 C   0  0  2  0  0  0  0  0  0  0  0  0
   17.1397  -26.0354   -9.2240 N   0  0  0  0  0  0  0  0  0  0  0  0
   16.0346  -24.3992   -7.9774 C   0  0  0  0  0  0  0  0  0  0  0  0
   15.2208  -24.0014   -7.1220 O   0  0  0  0  0  0  0  0  0  0  0  0
   16.3284  -23.5811   -9.0387 O   0  0  0  0  0  0  0  0  0  0  0  0
  2  3  1  0
  2  1  1  6
  4  3  1  0
  5  4  2  0
  6  5  1  0
  7  6  1  0
  7  8  2  0
  8  4  1  0
  9  2  1  0
 10  9  2  0
 12 11  1  0
 13 12  2  0
 14 12  1  0
 15 14  1  1
 15 16  1  0
 16  9  1  0
 17 15  1  0
 17 18  2  0
 19 20  1  0
 20 21  1  0
 23 22  1  1
 22 21  1  0
 23 24  1  0
 24 17  1  0
 25 23  1  0
 26 25  2  0
 27 25  1  0
M  END
$$$$
