HNM.pdb
     RDKit          3D

 27 27  0  0  1  0  0  0  0  0999 V2000
   12.1104  -29.1268   -3.9303 N   0  0  0  0  0  0  0  0  0  0  0  0
   12.6827  -27.8238   -3.7187 C   0  0  1  0  0  0  0  0  0  0  0  0
   11.7149  -26.9621   -2.9241 C   0  0  0  0  0  0  0  0  0  0  0  0
   10.5524  -26.5567   -3.7386 C   0  0  0  0  0  0  0  0  0  0  0  0
    9.2996  -27.0897   -3.6510 C   0  0  0  0  0  0  0  0  0  0  0  0
    8.5288  -26.4557   -4.5535 N   0  0  0  0  0  0  0  0  0  0  0  0
    9.2965  -25.5519   -5.1811 C   0  0  0  0  0  0  0  0  0  0  0  0
   10.5357  -25.6106   -4.6852 N   0  0  0  0  0  0  0  0  0  0  0  0
   13.9410  -27.9393   -2.9366 C   0  0  0  0  0  0  0  0  0  0  0  0
   14.0025  -28.8416   -2.0508 O   0  0  0  0  0  0  0  0  0  0  0  0
   18.7169  -27.7995   -1.5665 N   0  0  0  0  0  0  0  0  0  0  0  0
   18.6797  -26.7457   -2.5413 C   0  0  0  0  0  0  0  0  0  0  0  0
   19.7556  -26.2362   -2.8980 O   0  0  0  0  0  0  0  0  0  0  0  0
   17.3369  -26.3621   -3.0350 C   0  0  0  0  0  0  0  0  0  0  0  0
   16.2512  -27.2187   -2.4170 C   0  0  2  0  0  0  0  0  0  0  0  0
   15.0301  -27.0717   -3.1745 N   0  0  0  0  0  0  0  0  0  0  0  0
   15.9836  -26.8174   -1.0122 C   0  0  0  0  0  0  0  0  0  0  0  0
   15.1213  -25.9005   -0.8215 O   0  0  0  0  0  0  0  0  0  0  0  0
   12.6742  -28.3883    5.4260 C   0  0  0  0  0  0  0  0  0  0  0  0
   13.1789  -28.6250    3.7395 S   0  0  0  0  0  0  0  0  0  0  0  0
   14.5905  -27.6195    3.2922 C   0  0  0  0  0  0  0  0  0  0  0  0
   15.0686  -27.7752    1.9056 C   0  0  0  0  0  0  0  0  0  0  0  0
   16.2289  -26.9597    1.4638 C   0  0  2  0  0  0  0  0  0  0  0  0
   16.6172  -27.3828    0.0968 N   0  0  0  0  0  0  0  0  0  0  0  0
   17.4442  -27.2045    2.2732 C   0  0  0  0  0  0  0  0  0  0  0  0
   18.2460  -28.1039    1.9566 O   0  0  0  0  0  0  0  0  0  0  0  0
   17.7079  -26.4481    3.3869 O   0  0  0  0  0  0  0  0  0  0  0  0
  2  3  1  0
  2  1  1  1
  4  3  1  0
  5  4  2  0
  6  5  1  0
  7  6  1  0
  7  8  2  0
  8  4  1  0
  9  2  1  0
 10  9  2  0
 12 11  1  0
 13 12  2  0
 14 12  1  0
 15 14  1  6
 15 16  1  0
 16  9  1  0
 17 15  1  0
 17 18  2  0
 19 20  1  0
 20 21  1  0
 23 22  1  1
 22 21  1  0
 23 24  1  0
 24 17  1  0
 25 23  1  0
 26 25  2  0
 27 25  1  0
M  END
$$$$
