HNM.pdb
     RDKit          3D

 27 27  0  0  1  0  0  0  0  0999 V2000
   27.1423  -22.2340  -16.0446 N   0  0  0  0  0  0  0  0  0  0  0  0
   26.9057  -21.0168  -15.3147 C   0  0  1  0  0  0  0  0  0  0  0  0
   26.3604  -19.9537  -16.2543 C   0  0  0  0  0  0  0  0  0  0  0  0
   27.4028  -19.4509  -17.1706 C   0  0  0  0  0  0  0  0  0  0  0  0
   28.7021  -19.8662  -17.1964 C   0  0  0  0  0  0  0  0  0  0  0  0
   29.3267  -19.1734  -18.1661 N   0  0  0  0  0  0  0  0  0  0  0  0
   28.4258  -18.3498  -18.7228 C   0  0  0  0  0  0  0  0  0  0  0  0
   27.2470  -18.5166  -18.1164 N   0  0  0  0  0  0  0  0  0  0  0  0
   25.8957  -21.2479  -14.2495 C   0  0  0  0  0  0  0  0  0  0  0  0
   25.0582  -22.1809  -14.4252 O   0  0  0  0  0  0  0  0  0  0  0  0
   26.4244  -22.0303  -10.4250 N   0  0  0  0  0  0  0  0  0  0  0  0
   26.1151  -20.7067   -9.9620 C   0  0  0  0  0  0  0  0  0  0  0  0
   26.6194  -20.3249   -8.8923 O   0  0  0  0  0  0  0  0  0  0  0  0
   25.2078  -19.9114  -10.8213 C   0  0  0  0  0  0  0  0  0  0  0  0
   24.8440  -20.6585  -12.0878 C   0  0  2  0  0  0  0  0  0  0  0  0
   25.8719  -20.4535  -13.0817 N   0  0  0  0  0  0  0  0  0  0  0  0
   23.5521  -20.1798  -12.6425 C   0  0  0  0  0  0  0  0  0  0  0  0
   23.5834  -19.1469  -13.3862 O   0  0  0  0  0  0  0  0  0  0  0  0
   18.6641  -20.6293  -18.0135 C   0  0  0  0  0  0  0  0  0  0  0  0
   20.0920  -21.0427  -17.0412 S   0  0  0  0  0  0  0  0  0  0  0  0
   19.9694  -20.4647  -15.3517 C   0  0  0  0  0  0  0  0  0  0  0  0
   21.1539  -20.7105  -14.5078 C   0  0  0  0  0  0  0  0  0  0  0  0
   21.1017  -20.2982  -13.0817 C   0  0  2  0  0  0  0  0  0  0  0  0
   22.3208  -20.7917  -12.3970 N   0  0  0  0  0  0  0  0  0  0  0  0
   19.9910  -20.9366  -12.3397 C   0  0  0  0  0  0  0  0  0  0  0  0
   18.9272  -20.3205  -12.1373 O   0  0  0  0  0  0  0  0  0  0  0  0
   20.1135  -22.2159  -11.8598 O   0  0  0  0  0  0  0  0  0  0  0  0
  2  3  1  0
  2  1  1  6
  4  3  1  0
  5  4  2  0
  6  5  1  0
  7  6  1  0
  7  8  2  0
  8  4  1  0
  9  2  1  0
 10  9  2  0
 12 11  1  0
 13 12  2  0
 14 12  1  0
 15 14  1  1
 15 16  1  0
 16  9  1  0
 17 15  1  0
 17 18  2  0
 19 20  1  0
 20 21  1  0
 23 22  1  6
 22 21  1  0
 23 24  1  0
 24 17  1  0
 25 23  1  0
 26 25  2  0
 27 25  1  0
M  END
$$$$
