HNM.pdb
     RDKit          3D

 27 27  0  0  1  0  0  0  0  0999 V2000
   22.1833  -12.5145  -20.1915 N   0  0  0  0  0  0  0  0  0  0  0  0
   21.0355  -11.7448  -19.7911 C   0  0  1  0  0  0  0  0  0  0  0  0
   20.2279  -12.5245  -18.7663 C   0  0  0  0  0  0  0  0  0  0  0  0
   19.5668  -13.6971  -19.3722 C   0  0  0  0  0  0  0  0  0  0  0  0
   19.7778  -14.9971  -19.0161 C   0  0  0  0  0  0  0  0  0  0  0  0
   18.9917  -15.7606  -19.7969 N   0  0  0  0  0  0  0  0  0  0  0  0
   18.3128  -14.9424  -20.6152 C   0  0  0  0  0  0  0  0  0  0  0  0
   18.6620  -13.6785  -20.3584 N   0  0  0  0  0  0  0  0  0  0  0  0
   21.4692  -10.4715  -19.1596 C   0  0  0  0  0  0  0  0  0  0  0  0
   22.3976  -10.5270  -18.3008 O   0  0  0  0  0  0  0  0  0  0  0  0
   22.5930   -5.1334  -19.3453 N   0  0  0  0  0  0  0  0  0  0  0  0
   21.2378   -5.5459  -19.1100 C   0  0  0  0  0  0  0  0  0  0  0  0
   20.5091   -4.8086  -18.4247 O   0  0  0  0  0  0  0  0  0  0  0  0
   20.8341   -6.8344  -19.7188 C   0  0  0  0  0  0  0  0  0  0  0  0
   21.3311   -8.0131  -18.9076 C   0  0  2  0  0  0  0  0  0  0  0  0
   20.8656   -9.2423  -19.5065 N   0  0  0  0  0  0  0  0  0  0  0  0
   20.8318   -7.9531  -17.5100 C   0  0  0  0  0  0  0  0  0  0  0  0
   19.6400   -8.3476  -17.2988 O   0  0  0  0  0  0  0  0  0  0  0  0
   22.2408   -9.4329  -10.0481 C   0  0  0  0  0  0  0  0  0  0  0  0
   22.6403   -9.4613  -11.7787 S   0  0  0  0  0  0  0  0  0  0  0  0
   21.6125   -8.3588  -12.7439 C   0  0  0  0  0  0  0  0  0  0  0  0
   21.8477   -8.3815  -14.1999 C   0  0  0  0  0  0  0  0  0  0  0  0
   21.0088   -7.5117  -15.0636 C   0  0  2  0  0  0  0  0  0  0  0  0
   21.5873   -7.4938  -16.4287 N   0  0  0  0  0  0  0  0  0  0  0  0
   21.0340   -6.0917  -14.6454 C   0  0  0  0  0  0  0  0  0  0  0  0
   21.8474   -5.2959  -15.1525 O   0  0  0  0  0  0  0  0  0  0  0  0
   20.1648   -5.6273  -13.6910 O   0  0  0  0  0  0  0  0  0  0  0  0
  2  3  1  0
  2  1  1  1
  4  3  1  0
  5  4  2  0
  6  5  1  0
  7  6  1  0
  7  8  2  0
  8  4  1  0
  9  2  1  0
 10  9  2  0
 12 11  1  0
 13 12  2  0
 14 12  1  0
 15 14  1  6
 15 16  1  0
 16  9  1  0
 17 15  1  0
 17 18  2  0
 19 20  1  0
 20 21  1  0
 23 22  1  1
 22 21  1  0
 23 24  1  0
 24 17  1  0
 25 23  1  0
 26 25  2  0
 27 25  1  0
M  END
$$$$
