HNM.pdb
     RDKit          3D

 27 27  0  0  1  0  0  0  0  0999 V2000
   18.9395  -13.4022  -17.5572 N   0  0  0  0  0  0  0  0  0  0  0  0
   19.2298  -12.1538  -18.2111 C   0  0  1  0  0  0  0  0  0  0  0  0
   18.2441  -11.9285  -19.3460 C   0  0  0  0  0  0  0  0  0  0  0  0
   18.4038  -12.9355  -20.4135 C   0  0  0  0  0  0  0  0  0  0  0  0
   19.0653  -12.7433  -21.5911 C   0  0  0  0  0  0  0  0  0  0  0  0
   18.9876  -13.8917  -22.2881 N   0  0  0  0  0  0  0  0  0  0  0  0
   18.2914  -14.7696  -21.5501 C   0  0  0  0  0  0  0  0  0  0  0  0
   17.9323  -14.1882  -20.4020 N   0  0  0  0  0  0  0  0  0  0  0  0
   19.0873  -11.0288  -17.2508 C   0  0  0  0  0  0  0  0  0  0  0  0
   18.0776  -11.0313  -16.4872 O   0  0  0  0  0  0  0  0  0  0  0  0
   19.9736   -6.9149  -14.4650 N   0  0  0  0  0  0  0  0  0  0  0  0
   21.1276   -7.7666  -14.3939 C   0  0  0  0  0  0  0  0  0  0  0  0
   21.9791   -7.5316  -13.5198 O   0  0  0  0  0  0  0  0  0  0  0  0
   21.1908   -8.8622  -15.3887 C   0  0  0  0  0  0  0  0  0  0  0  0
   19.9194   -8.9440  -16.2080 C   0  0  2  0  0  0  0  0  0  0  0  0
   20.0460   -9.9930  -17.1929 N   0  0  0  0  0  0  0  0  0  0  0  0
   19.6520   -7.6656  -16.9152 C   0  0  0  0  0  0  0  0  0  0  0  0
   20.2930   -7.4503  -17.9939 O   0  0  0  0  0  0  0  0  0  0  0  0
   14.5329   -2.8697  -17.2234 C   0  0  0  0  0  0  0  0  0  0  0  0
   14.5655   -4.6360  -17.4087 S   0  0  0  0  0  0  0  0  0  0  0  0
   16.0859   -5.3664  -16.8100 C   0  0  0  0  0  0  0  0  0  0  0  0
   17.2130   -5.3589  -17.7614 C   0  0  0  0  0  0  0  0  0  0  0  0
   18.5941   -5.4296  -17.2193 C   0  0  2  0  0  0  0  0  0  0  0  0
   18.7482   -6.6989  -16.4685 N   0  0  0  0  0  0  0  0  0  0  0  0
   18.8693   -4.3813  -16.2106 C   0  0  0  0  0  0  0  0  0  0  0  0
   19.1191   -4.6883  -15.0293 O   0  0  0  0  0  0  0  0  0  0  0  0
   18.8518   -3.0541  -16.5573 O   0  0  0  0  0  0  0  0  0  0  0  0
  2  3  1  0
  2  1  1  1
  4  3  1  0
  5  4  2  0
  6  5  1  0
  7  6  1  0
  7  8  2  0
  8  4  1  0
  9  2  1  0
 10  9  2  0
 12 11  1  0
 13 12  2  0
 14 12  1  0
 15 14  1  6
 15 16  1  0
 16  9  1  0
 17 15  1  0
 17 18  2  0
 19 20  1  0
 20 21  1  0
 23 22  1  1
 22 21  1  0
 23 24  1  0
 24 17  1  0
 25 23  1  0
 26 25  2  0
 27 25  1  0
M  END
$$$$
