HNM.pdb
     RDKit          3D

 27 27  0  0  1  0  0  0  0  0999 V2000
   24.2743  -17.7199  -18.7933 N   0  0  0  0  0  0  0  0  0  0  0  0
   24.4796  -17.8994  -17.3806 C   0  0  1  0  0  0  0  0  0  0  0  0
   25.3653  -16.7857  -16.8460 C   0  0  0  0  0  0  0  0  0  0  0  0
   26.7551  -16.9180  -17.3257 C   0  0  0  0  0  0  0  0  0  0  0  0
   27.2193  -17.9046  -18.1458 C   0  0  0  0  0  0  0  0  0  0  0  0
   28.5291  -17.6744  -18.3503 N   0  0  0  0  0  0  0  0  0  0  0  0
   28.8594  -16.5675  -17.6679 C   0  0  0  0  0  0  0  0  0  0  0  0
   27.7763  -16.1016  -17.0395 N   0  0  0  0  0  0  0  0  0  0  0  0
   23.1798  -17.8348  -16.6631 C   0  0  0  0  0  0  0  0  0  0  0  0
   22.4376  -16.8322  -16.8792 O   0  0  0  0  0  0  0  0  0  0  0  0
   18.3478  -17.6983  -15.7706 N   0  0  0  0  0  0  0  0  0  0  0  0
   19.0517  -18.9498  -15.7864 C   0  0  0  0  0  0  0  0  0  0  0  0
   18.4660  -19.9595  -15.3600 O   0  0  0  0  0  0  0  0  0  0  0  0
   20.4332  -18.9136  -16.3194 C   0  0  0  0  0  0  0  0  0  0  0  0
   21.4580  -18.8532  -15.2056 C   0  0  2  0  0  0  0  0  0  0  0  0
   22.7870  -18.8573  -15.7712 N   0  0  0  0  0  0  0  0  0  0  0  0
   21.3317  -20.0195  -14.2946 C   0  0  0  0  0  0  0  0  0  0  0  0
   21.7283  -21.1473  -14.7322 O   0  0  0  0  0  0  0  0  0  0  0  0
   25.5962  -20.7545   -9.5056 C   0  0  0  0  0  0  0  0  0  0  0  0
   23.8280  -20.6442   -9.3773 S   0  0  0  0  0  0  0  0  0  0  0  0
   22.9979  -21.0189  -10.9181 C   0  0  0  0  0  0  0  0  0  0  0  0
   21.5290  -20.8869  -10.8978 C   0  0  0  0  0  0  0  0  0  0  0  0
   20.7787  -21.1622  -12.1499 C   0  0  2  0  0  0  0  0  0  0  0  0
   20.8088  -19.9487  -13.0014 N   0  0  0  0  0  0  0  0  0  0  0  0
   19.3363  -21.3989  -11.9146 C   0  0  0  0  0  0  0  0  0  0  0  0
   18.5491  -20.4415  -11.7891 O   0  0  0  0  0  0  0  0  0  0  0  0
   18.8412  -22.6754  -11.8280 O   0  0  0  0  0  0  0  0  0  0  0  0
  2  3  1  0
  2  1  1  6
  4  3  1  0
  5  4  2  0
  6  5  1  0
  7  6  1  0
  7  8  2  0
  8  4  1  0
  9  2  1  0
 10  9  2  0
 12 11  1  0
 13 12  2  0
 14 12  1  0
 15 14  1  6
 15 16  1  0
 16  9  1  0
 17 15  1  0
 17 18  2  0
 19 20  1  0
 20 21  1  0
 23 22  1  1
 22 21  1  0
 23 24  1  0
 24 17  1  0
 25 23  1  0
 26 25  2  0
 27 25  1  0
M  END
$$$$
