LKP.pdb
     RDKit          3D

 25 25  0  0  1  0  0  0  0  0999 V2000
    5.4130  -16.0809   20.1216 C   0  0  0  0  0  0  0  0  0  0  0  0
    6.6602  -16.2257   19.2756 C   0  0  2  0  0  0  0  0  0  0  0  0
    6.7254  -17.6013   18.6710 C   0  0  0  0  0  0  0  0  0  0  0  0
    7.9025  -15.8383   20.0099 C   0  0  0  0  0  0  0  0  0  0  0  0
    7.8150  -14.5348   20.7205 C   0  0  2  0  0  0  0  0  0  0  0  0
    8.1547  -13.4359   19.8446 N   0  0  0  0  0  0  0  0  0  0  0  0
    8.8070  -14.5713   21.8488 C   0  0  0  0  0  0  0  0  0  0  0  0
   10.0067  -14.3680   21.5724 O   0  0  0  0  0  0  0  0  0  0  0  0
    8.3928  -14.8264   23.1691 N   0  0  0  0  0  0  0  0  0  0  0  0
    9.3421  -14.8915   24.2705 C   0  0  1  0  0  0  0  0  0  0  0  0
    8.6688  -14.3921   25.5494 C   0  0  0  0  0  0  0  0  0  0  0  0
    9.6981  -14.5674   26.6413 C   0  0  0  0  0  0  0  0  0  0  0  0
    9.2597  -14.1271   27.9936 C   0  0  0  0  0  0  0  0  0  0  0  0
   10.3681  -14.3709   28.9903 C   0  0  0  0  0  0  0  0  0  0  0  0
    9.8769  -13.9065   30.2923 N   0  0  0  0  0  0  0  0  0  0  0  0
    9.7370  -16.3089   24.4398 C   0  0  0  0  0  0  0  0  0  0  0  0
    8.8139  -17.2049   24.4522 O   0  0  0  0  0  0  0  0  0  0  0  0
   11.0815  -16.7250   24.5860 N   0  0  0  0  0  0  0  0  0  0  0  0
   12.2058  -15.8395   24.8192 C   0  0  0  0  0  0  0  0  0  0  0  0
   13.3660  -16.5276   24.1018 C   0  0  0  0  0  0  0  0  0  0  0  0
   12.9849  -17.9744   24.0166 C   0  0  0  0  0  0  0  0  0  0  0  0
   11.5810  -18.0966   24.5204 C   0  0  1  0  0  0  0  0  0  0  0  0
   11.4906  -18.6809   25.8794 C   0  0  0  0  0  0  0  0  0  0  0  0
   11.5866  -20.0415   26.0468 O   0  0  0  0  0  0  0  0  0  0  0  0
   11.3249  -17.9524   26.9072 O   0  0  0  0  0  0  0  0  0  0  0  0
  2  1  1  1
  2  3  1  0
  4  2  1  0
  5  6  1  6
  5  4  1  0
  7  5  1  0
  8  7  2  0
  9  7  1  0
 10 11  1  1
 10  9  1  0
 11 12  1  0
 12 13  1  0
 13 14  1  0
 15 14  1  0
 16 17  2  0
 16 10  1  0
 18 16  1  0
 19 18  1  0
 20 21  1  0
 20 19  1  0
 21 22  1  0
 22 18  1  0
 22 23  1  1
 24 23  1  0
 25 23  2  0
M  END
$$$$
