LKP.pdb
     RDKit          3D

 25 25  0  0  1  0  0  0  0  0999 V2000
    5.4145  -12.2642   26.5975 C   0  0  0  0  0  0  0  0  0  0  0  0
    6.6673  -12.6944   27.3307 C   0  0  2  0  0  0  0  0  0  0  0  0
    7.1844  -11.5709   28.1864 C   0  0  0  0  0  0  0  0  0  0  0  0
    7.6996  -13.2717   26.4176 C   0  0  0  0  0  0  0  0  0  0  0  0
    7.2013  -14.3631   25.5388 C   0  0  2  0  0  0  0  0  0  0  0  0
    7.1155  -15.6158   26.2553 N   0  0  0  0  0  0  0  0  0  0  0  0
    8.1878  -14.5207   24.4161 C   0  0  0  0  0  0  0  0  0  0  0  0
    8.9894  -13.5862   24.2135 O   0  0  0  0  0  0  0  0  0  0  0  0
    8.2032  -15.6835   23.6238 N   0  0  0  0  0  0  0  0  0  0  0  0
    9.0280  -15.7851   22.4289 C   0  0  1  0  0  0  0  0  0  0  0  0
    9.6640  -17.1745   22.3693 C   0  0  0  0  0  0  0  0  0  0  0  0
   10.9007  -17.0887   23.2328 C   0  0  0  0  0  0  0  0  0  0  0  0
   11.2554  -18.3450   23.9473 C   0  0  0  0  0  0  0  0  0  0  0  0
   12.6776  -18.7319   23.6168 C   0  0  0  0  0  0  0  0  0  0  0  0
   13.2829  -19.2229   24.8596 N   0  0  0  0  0  0  0  0  0  0  0  0
    8.1444  -15.5941   21.2557 C   0  0  0  0  0  0  0  0  0  0  0  0
    7.0516  -16.2702   21.1952 O   0  0  0  0  0  0  0  0  0  0  0  0
    8.4436  -14.7015   20.1992 N   0  0  0  0  0  0  0  0  0  0  0  0
    9.5665  -13.7845   20.1777 C   0  0  0  0  0  0  0  0  0  0  0  0
    9.0396  -12.5821   19.3960 C   0  0  0  0  0  0  0  0  0  0  0  0
    7.9135  -13.1086   18.5592 C   0  0  0  0  0  0  0  0  0  0  0  0
    7.6865  -14.5322   18.9610 C   0  0  1  0  0  0  0  0  0  0  0  0
    8.1992  -15.5126   17.9748 C   0  0  0  0  0  0  0  0  0  0  0  0
    7.4417  -15.8364   16.8749 O   0  0  0  0  0  0  0  0  0  0  0  0
    9.3323  -16.0695   18.1175 O   0  0  0  0  0  0  0  0  0  0  0  0
  2  1  1  6
  2  3  1  0
  4  2  1  0
  5  6  1  1
  5  4  1  0
  7  5  1  0
  8  7  2  0
  9  7  1  0
 10 11  1  6
 10  9  1  0
 11 12  1  0
 12 13  1  0
 13 14  1  0
 15 14  1  0
 16 17  2  0
 16 10  1  0
 18 16  1  0
 19 18  1  0
 20 21  1  0
 20 19  1  0
 21 22  1  0
 22 18  1  0
 22 23  1  6
 24 23  1  0
 25 23  2  0
M  END
$$$$
