LKP.pdb
     RDKit          3D

 25 25  0  0  1  0  0  0  0  0999 V2000
    9.7206  -13.2406   19.8500 C   0  0  0  0  0  0  0  0  0  0  0  0
    8.3883  -13.3877   19.1460 C   0  0  2  0  0  0  0  0  0  0  0  0
    7.9003  -12.0489   18.6649 C   0  0  0  0  0  0  0  0  0  0  0  0
    7.3826  -14.1292   19.9654 C   0  0  0  0  0  0  0  0  0  0  0  0
    7.8829  -15.4030   20.5474 C   0  0  2  0  0  0  0  0  0  0  0  0
    7.4251  -16.5433   19.7858 N   0  0  0  0  0  0  0  0  0  0  0  0
    7.3316  -15.5064   21.9416 C   0  0  0  0  0  0  0  0  0  0  0  0
    6.1032  -15.3468   22.0923 O   0  0  0  0  0  0  0  0  0  0  0  0
    8.1749  -15.7739   23.0356 N   0  0  0  0  0  0  0  0  0  0  0  0
    7.6544  -15.9127   24.3878 C   0  0  1  0  0  0  0  0  0  0  0  0
    7.7553  -17.3756   24.8216 C   0  0  0  0  0  0  0  0  0  0  0  0
    6.7193  -18.1106   24.0037 C   0  0  0  0  0  0  0  0  0  0  0  0
    6.6196  -19.5692   24.2816 C   0  0  0  0  0  0  0  0  0  0  0  0
    5.5662  -20.1841   23.3907 C   0  0  0  0  0  0  0  0  0  0  0  0
    5.6030  -21.6314   23.6278 N   0  0  0  0  0  0  0  0  0  0  0  0
    8.4886  -15.0734   25.2785 C   0  0  0  0  0  0  0  0  0  0  0  0
    9.7616  -15.0606   25.0930 O   0  0  0  0  0  0  0  0  0  0  0  0
    7.9521  -14.2829   26.3223 N   0  0  0  0  0  0  0  0  0  0  0  0
    6.5467  -14.2085   26.6713 C   0  0  0  0  0  0  0  0  0  0  0  0
    6.3686  -12.7719   27.1601 C   0  0  0  0  0  0  0  0  0  0  0  0
    7.7308  -12.3230   27.5943 C   0  0  0  0  0  0  0  0  0  0  0  0
    8.6971  -13.4027   27.2196 C   0  0  1  0  0  0  0  0  0  0  0  0
    9.1561  -14.2105   28.3742 C   0  0  0  0  0  0  0  0  0  0  0  0
   10.1251  -13.7153   29.2135 O   0  0  0  0  0  0  0  0  0  0  0  0
    8.6745  -15.3615   28.6145 O   0  0  0  0  0  0  0  0  0  0  0  0
  2  1  1  1
  2  3  1  0
  4  2  1  0
  5  6  1  6
  5  4  1  0
  7  5  1  0
  8  7  2  0
  9  7  1  0
 10 11  1  1
 10  9  1  0
 11 12  1  0
 12 13  1  0
 13 14  1  0
 15 14  1  0
 16 17  2  0
 16 10  1  0
 18 16  1  0
 19 18  1  0
 20 21  1  0
 20 19  1  0
 21 22  1  0
 22 18  1  0
 22 23  1  1
 24 23  1  0
 25 23  2  0
M  END
$$$$
