LKP.pdb
     RDKit          3D

 25 25  0  0  1  0  0  0  0  0999 V2000
    6.1936  -12.5438   25.3795 C   0  0  0  0  0  0  0  0  0  0  0  0
    6.1674  -12.9000   26.8508 C   0  0  2  0  0  0  0  0  0  0  0  0
    6.2918  -11.6592   27.6916 C   0  0  0  0  0  0  0  0  0  0  0  0
    7.1583  -13.9610   27.2043 C   0  0  0  0  0  0  0  0  0  0  0  0
    7.0781  -15.1826   26.3599 C   0  0  2  0  0  0  0  0  0  0  0  0
    7.4667  -16.3603   27.1029 N   0  0  0  0  0  0  0  0  0  0  0  0
    8.0357  -15.0011   25.2161 C   0  0  0  0  0  0  0  0  0  0  0  0
    9.0707  -14.3367   25.4267 O   0  0  0  0  0  0  0  0  0  0  0  0
    7.7702  -15.5626   23.9535 N   0  0  0  0  0  0  0  0  0  0  0  0
    8.7120  -15.4455   22.8499 C   0  0  1  0  0  0  0  0  0  0  0  0
    9.5735  -16.7071   22.7834 C   0  0  0  0  0  0  0  0  0  0  0  0
   10.7920  -16.4075   23.6249 C   0  0  0  0  0  0  0  0  0  0  0  0
   11.7830  -17.5144   23.7106 C   0  0  0  0  0  0  0  0  0  0  0  0
   12.9503  -17.0845   24.5674 C   0  0  0  0  0  0  0  0  0  0  0  0
   13.8563  -18.2348   24.6571 N   0  0  0  0  0  0  0  0  0  0  0  0
    7.9264  -15.3159   21.6010 C   0  0  0  0  0  0  0  0  0  0  0  0
    6.8521  -16.0128   21.4779 O   0  0  0  0  0  0  0  0  0  0  0  0
    8.2997  -14.4601   20.5378 N   0  0  0  0  0  0  0  0  0  0  0  0
    9.4288  -13.5506   20.5590 C   0  0  0  0  0  0  0  0  0  0  0  0
    8.9625  -12.3715   19.7066 C   0  0  0  0  0  0  0  0  0  0  0  0
    7.8883  -12.9187   18.8164 C   0  0  0  0  0  0  0  0  0  0  0  0
    7.6250  -14.3271   19.2485 C   0  0  1  0  0  0  0  0  0  0  0  0
    8.1924  -15.3421   18.3296 C   0  0  0  0  0  0  0  0  0  0  0  0
    7.5080  -15.6920   17.1904 O   0  0  0  0  0  0  0  0  0  0  0  0
    9.3064  -15.9054   18.5664 O   0  0  0  0  0  0  0  0  0  0  0  0
  2  1  1  6
  2  3  1  0
  4  2  1  0
  5  6  1  1
  5  4  1  0
  7  5  1  0
  8  7  2  0
  9  7  1  0
 10 11  1  6
 10  9  1  0
 11 12  1  0
 12 13  1  0
 13 14  1  0
 15 14  1  0
 16 17  2  0
 16 10  1  0
 18 16  1  0
 19 18  1  0
 20 21  1  0
 20 19  1  0
 21 22  1  0
 22 18  1  0
 22 23  1  6
 24 23  1  0
 25 23  2  0
M  END
$$$$
