FWC.pdb
     RDKit          3D

 32 34  0  0  1  0  0  0  0  0999 V2000
   27.2973  -34.0187   -0.1443 N   0  0  0  0  0  0  0  0  0  0  0  0
   26.8123  -34.6822    1.0226 C   0  0  1  0  0  0  0  0  0  0  0  0
   27.7315  -35.7783    1.4738 C   0  0  0  0  0  0  0  0  0  0  0  0
   27.6198  -36.9762    0.5763 C   0  0  0  0  0  0  0  0  0  0  0  0
   28.5930  -37.2625   -0.3543 C   0  0  0  0  0  0  0  0  0  0  0  0
   28.4874  -38.3553   -1.1705 C   0  0  0  0  0  0  0  0  0  0  0  0
   27.3716  -39.1704   -1.0365 C   0  0  0  0  0  0  0  0  0  0  0  0
   26.3875  -38.9073   -0.1169 C   0  0  0  0  0  0  0  0  0  0  0  0
   26.5275  -37.8088    0.6793 C   0  0  0  0  0  0  0  0  0  0  0  0
   26.5257  -33.7716    2.1661 C   0  0  0  0  0  0  0  0  0  0  0  0
   27.1491  -32.6613    2.1131 O   0  0  0  0  0  0  0  0  0  0  0  0
   25.6412  -34.1331    3.1976 N   0  0  0  0  0  0  0  0  0  0  0  0
   25.4497  -33.1761    4.3002 C   0  0  1  0  0  0  0  0  0  0  0  0
   24.0079  -33.0460    4.6115 C   0  0  0  0  0  0  0  0  0  0  0  0
   23.2008  -32.0737    3.9127 C   0  0  0  0  0  0  0  0  0  0  0  0
   22.8176  -32.0747    2.5931 C   0  0  0  0  0  0  0  0  0  0  0  0
   22.0683  -30.9659    2.3682 N   0  0  0  0  0  0  0  0  0  0  0  0
   21.9496  -30.2430    3.4949 C   0  0  0  0  0  0  0  0  0  0  0  0
   21.2771  -29.0519    3.7757 C   0  0  0  0  0  0  0  0  0  0  0  0
   21.3015  -28.5290    5.0364 C   0  0  0  0  0  0  0  0  0  0  0  0
   21.9945  -29.1881    6.0208 C   0  0  0  0  0  0  0  0  0  0  0  0
   22.6635  -30.3737    5.7371 C   0  0  0  0  0  0  0  0  0  0  0  0
   22.6509  -30.9194    4.4696 C   0  0  0  0  0  0  0  0  0  0  0  0
   26.3879  -33.4429    5.3668 C   0  0  0  0  0  0  0  0  0  0  0  0
   26.2660  -34.4632    6.1297 O   0  0  0  0  0  0  0  0  0  0  0  0
   27.5094  -32.6115    5.6426 N   0  0  0  0  0  0  0  0  0  0  0  0
   28.4564  -32.9979    6.6715 C   0  0  1  0  0  0  0  0  0  0  0  0
   29.8818  -32.6113    6.1956 C   0  0  0  0  0  0  0  0  0  0  0  0
   29.8587  -30.8665    5.7058 S   0  0  0  0  0  0  0  0  0  0  0  0
   28.2286  -32.3610    7.9740 C   0  0  0  0  0  0  0  0  0  0  0  0
   29.0272  -32.7755    9.0549 O   0  0  0  0  0  0  0  0  0  0  0  0
   27.3942  -31.4837    8.2244 O   0  0  0  0  0  0  0  0  0  0  0  0
  2  1  1  6
  3  2  1  0
  3  4  1  0
  4  5  2  0
  4  9  1  0
  5  6  1  0
  6  7  2  0
  8  7  1  0
  9  8  2  0
 10  2  1  0
 11 10  2  0
 12 10  1  0
 13 12  1  0
 13 14  1  1
 15 23  1  0
 15 14  1  0
 16 15  2  0
 17 16  1  0
 17 18  1  0
 18 23  2  0
 19 18  1  0
 19 20  2  0
 20 21  1  0
 21 22  2  0
 23 22  1  0
 24 13  1  0
 24 26  1  0
 25 24  2  0
 27 26  1  0
 27 28  1  6
 28 29  1  0
 30 27  1  0
 31 30  1  0
 32 30  2  0
M  END
$$$$
