FWC.pdb
     RDKit          3D

 32 34  0  0  1  0  0  0  0  0999 V2000
   28.6089  -22.3727  -16.1709 N   0  0  0  0  0  0  0  0  0  0  0  0
   27.8387  -21.1998  -15.9098 C   0  0  1  0  0  0  0  0  0  0  0  0
   27.1201  -20.7108  -17.1323 C   0  0  0  0  0  0  0  0  0  0  0  0
   27.5469  -19.3153  -17.4838 C   0  0  0  0  0  0  0  0  0  0  0  0
   28.4843  -19.0828  -18.4647 C   0  0  0  0  0  0  0  0  0  0  0  0
   28.8707  -17.8094  -18.7821 C   0  0  0  0  0  0  0  0  0  0  0  0
   28.2924  -16.7549  -18.0885 C   0  0  0  0  0  0  0  0  0  0  0  0
   27.3558  -16.9597  -17.1064 C   0  0  0  0  0  0  0  0  0  0  0  0
   26.9957  -18.2431  -16.8178 C   0  0  0  0  0  0  0  0  0  0  0  0
   26.8692  -21.3451  -14.7882 C   0  0  0  0  0  0  0  0  0  0  0  0
   26.2938  -22.4814  -14.7445 O   0  0  0  0  0  0  0  0  0  0  0  0
   26.6313  -20.3029  -13.8748 N   0  0  0  0  0  0  0  0  0  0  0  0
   25.6965  -20.5648  -12.7676 C   0  0  1  0  0  0  0  0  0  0  0  0
   25.9709  -19.6391  -11.6450 C   0  0  0  0  0  0  0  0  0  0  0  0
   26.5791  -20.1322  -10.4317 C   0  0  0  0  0  0  0  0  0  0  0  0
   26.0277  -20.2178   -9.1759 C   0  0  0  0  0  0  0  0  0  0  0  0
   26.9597  -20.7382   -8.3380 N   0  0  0  0  0  0  0  0  0  0  0  0
   28.0985  -20.9950   -9.0038 C   0  0  0  0  0  0  0  0  0  0  0  0
   29.3183  -21.5388   -8.5962 C   0  0  0  0  0  0  0  0  0  0  0  0
   30.3286  -21.7141   -9.4972 C   0  0  0  0  0  0  0  0  0  0  0  0
   30.1295  -21.3492  -10.8051 C   0  0  0  0  0  0  0  0  0  0  0  0
   28.9135  -20.8073  -11.2072 C   0  0  0  0  0  0  0  0  0  0  0  0
   27.8793  -20.6223  -10.3125 C   0  0  0  0  0  0  0  0  0  0  0  0
   24.3472  -20.6970  -13.2688 C   0  0  0  0  0  0  0  0  0  0  0  0
   23.7832  -19.7616  -13.9357 O   0  0  0  0  0  0  0  0  0  0  0  0
   23.5551  -21.8628  -13.0727 N   0  0  0  0  0  0  0  0  0  0  0  0
   22.1450  -21.7306  -12.7579 C   0  0  1  0  0  0  0  0  0  0  0  0
   22.0127  -20.9689  -11.4126 C   0  0  0  0  0  0  0  0  0  0  0  0
   20.2646  -20.9687  -10.9344 S   0  0  0  0  0  0  0  0  0  0  0  0
   21.3654  -21.0025  -13.7659 C   0  0  0  0  0  0  0  0  0  0  0  0
   20.3697  -21.7111  -14.4619 O   0  0  0  0  0  0  0  0  0  0  0  0
   21.4948  -19.8117  -14.0722 O   0  0  0  0  0  0  0  0  0  0  0  0
  2  1  1  6
  3  2  1  0
  3  4  1  0
  4  5  2  0
  4  9  1  0
  5  6  1  0
  6  7  2  0
  8  7  1  0
  9  8  2  0
 10  2  1  0
 11 10  2  0
 12 10  1  0
 13 12  1  0
 13 14  1  1
 15 23  1  0
 15 14  1  0
 16 15  2  0
 17 16  1  0
 17 18  1  0
 18 23  2  0
 19 18  1  0
 19 20  2  0
 20 21  1  0
 21 22  2  0
 23 22  1  0
 24 13  1  0
 24 26  1  0
 25 24  2  0
 27 26  1  0
 27 28  1  1
 28 29  1  0
 30 27  1  0
 31 30  1  0
 32 30  2  0
M  END
$$$$
