FWC.pdb
     RDKit          3D

 32 34  0  0  1  0  0  0  0  0999 V2000
   28.1180  -20.0439  -18.4862 N   0  0  0  0  0  0  0  0  0  0  0  0
   27.5829  -19.1784  -17.4853 C   0  0  1  0  0  0  0  0  0  0  0  0
   26.6883  -18.1247  -18.0677 C   0  0  0  0  0  0  0  0  0  0  0  0
   27.2586  -16.7539  -17.8466 C   0  0  0  0  0  0  0  0  0  0  0  0
   28.0964  -16.1732  -18.7717 C   0  0  0  0  0  0  0  0  0  0  0  0
   28.6144  -14.9237  -18.5665 C   0  0  0  0  0  0  0  0  0  0  0  0
   28.2730  -14.2543  -17.3991 C   0  0  0  0  0  0  0  0  0  0  0  0
   27.4399  -14.8109  -16.4611 C   0  0  0  0  0  0  0  0  0  0  0  0
   26.9431  -16.0582  -16.7005 C   0  0  0  0  0  0  0  0  0  0  0  0
   26.8676  -19.8864  -16.3871 C   0  0  0  0  0  0  0  0  0  0  0  0
   26.1442  -20.8585  -16.7822 O   0  0  0  0  0  0  0  0  0  0  0  0
   26.9986  -19.4936  -15.0434 N   0  0  0  0  0  0  0  0  0  0  0  0
   26.2995  -20.2960  -14.0257 C   0  0  1  0  0  0  0  0  0  0  0  0
   27.0044  -20.1910  -12.7277 C   0  0  0  0  0  0  0  0  0  0  0  0
   26.5042  -20.8983  -11.5725 C   0  0  0  0  0  0  0  0  0  0  0  0
   26.1631  -22.2253  -11.4675 C   0  0  0  0  0  0  0  0  0  0  0  0
   25.7378  -22.4548  -10.1995 N   0  0  0  0  0  0  0  0  0  0  0  0
   25.7902  -21.3243   -9.4748 C   0  0  0  0  0  0  0  0  0  0  0  0
   25.4798  -21.0530   -8.1406 C   0  0  0  0  0  0  0  0  0  0  0  0
   25.6444  -19.7943   -7.6385 C   0  0  0  0  0  0  0  0  0  0  0  0
   26.1171  -18.8024   -8.4607 C   0  0  0  0  0  0  0  0  0  0  0  0
   26.4245  -19.0763   -9.7889 C   0  0  0  0  0  0  0  0  0  0  0  0
   26.2659  -20.3417  -10.3161 C   0  0  0  0  0  0  0  0  0  0  0  0
   24.8757  -20.0543  -14.0851 C   0  0  0  0  0  0  0  0  0  0  0  0
   24.3994  -18.8748  -14.2253 O   0  0  0  0  0  0  0  0  0  0  0  0
   23.9062  -21.0928  -14.0041 N   0  0  0  0  0  0  0  0  0  0  0  0
   22.4989  -20.7572  -13.8956 C   0  0  1  0  0  0  0  0  0  0  0  0
   21.6716  -21.8984  -14.5444 C   0  0  0  0  0  0  0  0  0  0  0  0
   19.9166  -21.5681  -14.2359 S   0  0  0  0  0  0  0  0  0  0  0  0
   22.0226  -20.5830  -12.5184 C   0  0  0  0  0  0  0  0  0  0  0  0
   22.4585  -21.5074  -11.5523 O   0  0  0  0  0  0  0  0  0  0  0  0
   21.2657  -19.6938  -12.1121 O   0  0  0  0  0  0  0  0  0  0  0  0
  2  1  1  6
  3  2  1  0
  3  4  1  0
  4  5  2  0
  4  9  1  0
  5  6  1  0
  6  7  2  0
  8  7  1  0
  9  8  2  0
 10  2  1  0
 11 10  2  0
 12 10  1  0
 13 12  1  0
 13 14  1  1
 15 23  1  0
 15 14  1  0
 16 15  2  0
 17 16  1  0
 17 18  1  0
 18 23  2  0
 19 18  1  0
 19 20  2  0
 20 21  1  0
 21 22  2  0
 23 22  1  0
 24 13  1  0
 24 26  1  0
 25 24  2  0
 27 26  1  0
 27 28  1  1
 28 29  1  0
 30 27  1  0
 31 30  1  0
 32 30  2  0
M  END
$$$$
