FWC.pdb
     RDKit          3D

 32 34  0  0  1  0  0  0  0  0999 V2000
   27.9496  -21.1522  -16.2058 N   0  0  0  0  0  0  0  0  0  0  0  0
   26.9000  -20.3569  -15.6554 C   0  0  1  0  0  0  0  0  0  0  0  0
   25.8689  -19.9916  -16.6817 C   0  0  0  0  0  0  0  0  0  0  0  0
   26.4702  -19.1536  -17.7723 C   0  0  0  0  0  0  0  0  0  0  0  0
   26.7861  -19.6977  -18.9967 C   0  0  0  0  0  0  0  0  0  0  0  0
   27.3342  -18.9306  -19.9881 C   0  0  0  0  0  0  0  0  0  0  0  0
   27.5644  -17.5865  -19.7279 C   0  0  0  0  0  0  0  0  0  0  0  0
   27.2585  -17.0197  -18.5159 C   0  0  0  0  0  0  0  0  0  0  0  0
   26.7135  -17.8160  -17.5521 C   0  0  0  0  0  0  0  0  0  0  0  0
   26.2300  -20.9665  -14.4728 C   0  0  0  0  0  0  0  0  0  0  0  0
   25.9830  -22.2102  -14.6012 O   0  0  0  0  0  0  0  0  0  0  0  0
   25.9108  -20.2110  -13.3308 N   0  0  0  0  0  0  0  0  0  0  0  0
   25.2844  -20.9146  -12.1991 C   0  0  1  0  0  0  0  0  0  0  0  0
   25.7508  -20.3310  -10.9206 C   0  0  0  0  0  0  0  0  0  0  0  0
   27.0236  -20.7269  -10.3653 C   0  0  0  0  0  0  0  0  0  0  0  0
   28.0130  -21.4782  -10.9527 C   0  0  0  0  0  0  0  0  0  0  0  0
   29.0314  -21.6068  -10.0652 N   0  0  0  0  0  0  0  0  0  0  0  0
   28.7404  -20.9654   -8.9206 C   0  0  0  0  0  0  0  0  0  0  0  0
   29.4584  -20.7948   -7.7351 C   0  0  0  0  0  0  0  0  0  0  0  0
   28.9293  -20.0660   -6.7093 C   0  0  0  0  0  0  0  0  0  0  0  0
   27.6855  -19.5054   -6.8588 C   0  0  0  0  0  0  0  0  0  0  0  0
   26.9733  -19.6780   -8.0406 C   0  0  0  0  0  0  0  0  0  0  0  0
   27.4902  -20.4105   -9.0897 C   0  0  0  0  0  0  0  0  0  0  0  0
   23.8676  -21.0807  -12.4319 C   0  0  0  0  0  0  0  0  0  0  0  0
   23.0980  -20.0788  -12.6364 O   0  0  0  0  0  0  0  0  0  0  0  0
   23.2276  -22.3514  -12.4619 N   0  0  0  0  0  0  0  0  0  0  0  0
   21.8051  -22.4349  -12.7342 C   0  0  1  0  0  0  0  0  0  0  0  0
   21.4564  -23.9091  -13.0703 C   0  0  0  0  0  0  0  0  0  0  0  0
   22.5252  -24.4448  -14.4323 S   0  0  0  0  0  0  0  0  0  0  0  0
   20.9494  -22.0130  -11.6190 C   0  0  0  0  0  0  0  0  0  0  0  0
   21.5759  -21.6493  -10.4134 O   0  0  0  0  0  0  0  0  0  0  0  0
   19.7151  -21.9428  -11.6286 O   0  0  0  0  0  0  0  0  0  0  0  0
  2  1  1  6
  3  2  1  0
  3  4  1  0
  4  5  2  0
  4  9  1  0
  5  6  1  0
  6  7  2  0
  8  7  1  0
  9  8  2  0
 10  2  1  0
 11 10  2  0
 12 10  1  0
 13 12  1  0
 13 14  1  1
 15 23  1  0
 15 14  1  0
 16 15  2  0
 17 16  1  0
 17 18  1  0
 18 23  2  0
 19 18  1  0
 19 20  2  0
 20 21  1  0
 21 22  2  0
 23 22  1  0
 24 13  1  0
 24 26  1  0
 25 24  2  0
 27 26  1  0
 27 28  1  1
 28 29  1  0
 30 27  1  0
 31 30  1  0
 32 30  2  0
M  END
$$$$
