FWC.pdb
     RDKit          3D

 32 34  0  0  1  0  0  0  0  0999 V2000
   28.6034  -20.6828  -14.9083 N   0  0  0  0  0  0  0  0  0  0  0  0
   27.9175  -19.7151  -14.1144 C   0  0  1  0  0  0  0  0  0  0  0  0
   26.9399  -18.9122  -14.9203 C   0  0  0  0  0  0  0  0  0  0  0  0
   27.6517  -17.9331  -15.8079 C   0  0  0  0  0  0  0  0  0  0  0  0
   28.1035  -16.7276  -15.3205 C   0  0  0  0  0  0  0  0  0  0  0  0
   28.7517  -15.8378  -16.1328 C   0  0  0  0  0  0  0  0  0  0  0  0
   28.9431  -16.1819  -17.4641 C   0  0  0  0  0  0  0  0  0  0  0  0
   28.5024  -17.3773  -17.9747 C   0  0  0  0  0  0  0  0  0  0  0  0
   27.8604  -18.2386  -17.1346 C   0  0  0  0  0  0  0  0  0  0  0  0
   27.2302  -20.2830  -12.9212 C   0  0  0  0  0  0  0  0  0  0  0  0
   26.7247  -21.4368  -13.1146 O   0  0  0  0  0  0  0  0  0  0  0  0
   27.1616  -19.5841  -11.7030 N   0  0  0  0  0  0  0  0  0  0  0  0
   26.4138  -20.2078  -10.5985 C   0  0  1  0  0  0  0  0  0  0  0  0
   26.8081  -19.5928   -9.3106 C   0  0  0  0  0  0  0  0  0  0  0  0
   26.4105  -20.2039   -8.0642 C   0  0  0  0  0  0  0  0  0  0  0  0
   25.3100  -20.9873   -7.8122 C   0  0  0  0  0  0  0  0  0  0  0  0
   25.3317  -21.3404   -6.5021 N   0  0  0  0  0  0  0  0  0  0  0  0
   26.4078  -20.8149   -5.8920 C   0  0  0  0  0  0  0  0  0  0  0  0
   26.8736  -20.9011   -4.5785 C   0  0  0  0  0  0  0  0  0  0  0  0
   28.0304  -20.2733   -4.2164 C   0  0  0  0  0  0  0  0  0  0  0  0
   28.7266  -19.5581   -5.1583 C   0  0  0  0  0  0  0  0  0  0  0  0
   28.2592  -19.4741   -6.4653 C   0  0  0  0  0  0  0  0  0  0  0  0
   27.0926  -20.1017   -6.8521 C   0  0  0  0  0  0  0  0  0  0  0  0
   25.0128  -20.3161  -10.9373 C   0  0  0  0  0  0  0  0  0  0  0  0
   24.3407  -19.3073  -11.3478 O   0  0  0  0  0  0  0  0  0  0  0  0
   24.2837  -21.5352  -10.8526 N   0  0  0  0  0  0  0  0  0  0  0  0
   22.8960  -21.5750  -11.2739 C   0  0  1  0  0  0  0  0  0  0  0  0
   22.6118  -22.9693  -11.8929 C   0  0  0  0  0  0  0  0  0  0  0  0
   23.6601  -23.1594  -13.3590 S   0  0  0  0  0  0  0  0  0  0  0  0
   21.9285  -21.3572  -10.1922 C   0  0  0  0  0  0  0  0  0  0  0  0
   20.5622  -21.3531  -10.5258 O   0  0  0  0  0  0  0  0  0  0  0  0
   22.1933  -21.1738   -8.9985 O   0  0  0  0  0  0  0  0  0  0  0  0
  2  1  1  6
  3  2  1  0
  3  4  1  0
  4  5  2  0
  4  9  1  0
  5  6  1  0
  6  7  2  0
  8  7  1  0
  9  8  2  0
 10  2  1  0
 11 10  2  0
 12 10  1  0
 13 12  1  0
 13 14  1  1
 15 23  1  0
 15 14  1  0
 16 15  2  0
 17 16  1  0
 17 18  1  0
 18 23  2  0
 19 18  1  0
 19 20  2  0
 20 21  1  0
 21 22  2  0
 23 22  1  0
 24 13  1  0
 24 26  1  0
 25 24  2  0
 27 26  1  0
 27 28  1  1
 28 29  1  0
 30 27  1  0
 31 30  1  0
 32 30  2  0
M  END
$$$$
