INE.pdb
     RDKit          3D

 26 25  0  0  1  0  0  0  0  0999 V2000
    6.3607  -11.6708   27.1700 C   0  0  0  0  0  0  0  0  0  0  0  0
    5.9560  -12.8947   26.4335 C   0  0  0  0  0  0  0  0  0  0  0  0
    7.0617  -13.5604   25.6846 C   0  0  2  0  0  0  0  0  0  0  0  0
    7.7259  -12.5527   24.7628 C   0  0  0  0  0  0  0  0  0  0  0  0
    6.5789  -14.7743   24.9377 C   0  0  2  0  0  0  0  0  0  0  0  0
    6.0070  -15.6611   25.9738 N   0  0  0  0  0  0  0  0  0  0  0  0
    7.6399  -15.5523   24.2749 C   0  0  0  0  0  0  0  0  0  0  0  0
    8.3422  -16.3476   24.9868 O   0  0  0  0  0  0  0  0  0  0  0  0
   10.8253  -17.8315   20.7065 N   0  0  0  0  0  0  0  0  0  0  0  0
    9.8573  -17.0203   20.0678 C   0  0  0  0  0  0  0  0  0  0  0  0
    9.7956  -17.0334   18.8206 O   0  0  0  0  0  0  0  0  0  0  0  0
    8.9591  -16.1938   20.8559 C   0  0  0  0  0  0  0  0  0  0  0  0
    9.0206  -16.3846   22.3457 C   0  0  2  0  0  0  0  0  0  0  0  0
    7.9821  -15.5269   22.9041 N   0  0  0  0  0  0  0  0  0  0  0  0
   10.3333  -16.2438   22.9573 C   0  0  0  0  0  0  0  0  0  0  0  0
   11.0421  -15.2049   22.7056 O   0  0  0  0  0  0  0  0  0  0  0  0
   10.9333  -17.1791   23.8379 N   0  0  0  0  0  0  0  0  0  0  0  0
   12.2269  -16.9353   24.5176 C   0  0  1  0  0  0  0  0  0  0  0  0
   12.1244  -17.2709   25.9414 C   0  0  0  0  0  0  0  0  0  0  0  0
   11.5723  -18.6028   26.2663 C   0  0  0  0  0  0  0  0  0  0  0  0
   11.5874  -19.0041   27.6842 C   0  0  0  0  0  0  0  0  0  0  0  0
   12.3798  -18.5354   28.5462 O   0  0  0  0  0  0  0  0  0  0  0  0
   13.3296  -17.5114   23.7863 C   0  0  0  0  0  0  0  0  0  0  0  0
   14.5527  -17.3344   23.9706 O   0  0  0  0  0  0  0  0  0  0  0  0
   10.6712  -19.9678   28.1573 O   0  0  0  0  0  0  0  0  0  0  0  0
   13.0110  -18.3887   22.7241 O   0  0  0  0  0  0  0  0  0  0  0  0
  2  1  1  0
  3  4  1  6
  3  2  1  0
  5  3  1  0
  5  6  1  1
  7  5  1  0
  7  8  2  0
  9 10  1  0
 10 12  1  0
 10 11  2  0
 13 12  1  6
 13 15  1  0
 13 14  1  0
 14  7  1  0
 15 16  2  0
 17 15  1  0
 17 18  1  0
 18 19  1  1
 19 20  1  0
 20 21  1  0
 21 25  1  0
 21 22  2  0
 23 18  1  0
 24 23  2  0
 26 23  1  0
M  END
$$$$
