INE.pdb
     RDKit          3D

 26 25  0  0  1  0  0  0  0  0999 V2000
    6.4266  -11.7012   27.3373 C   0  0  0  0  0  0  0  0  0  0  0  0
    5.9286  -12.7647   26.4288 C   0  0  0  0  0  0  0  0  0  0  0  0
    6.9997  -13.5327   25.7294 C   0  0  2  0  0  0  0  0  0  0  0  0
    7.9217  -12.5682   25.0043 C   0  0  0  0  0  0  0  0  0  0  0  0
    6.4279  -14.5705   24.8017 C   0  0  2  0  0  0  0  0  0  0  0  0
    5.5989  -15.4413   25.6628 N   0  0  0  0  0  0  0  0  0  0  0  0
    7.4269  -15.4513   24.1718 C   0  0  0  0  0  0  0  0  0  0  0  0
    7.7961  -16.4980   24.8048 O   0  0  0  0  0  0  0  0  0  0  0  0
   10.9360  -16.1720   19.1912 N   0  0  0  0  0  0  0  0  0  0  0  0
   10.0610  -16.7286   20.1544 C   0  0  0  0  0  0  0  0  0  0  0  0
   10.0677  -17.9658   20.3236 O   0  0  0  0  0  0  0  0  0  0  0  0
    9.1779  -15.8696   20.9246 C   0  0  0  0  0  0  0  0  0  0  0  0
    8.9994  -16.2323   22.3725 C   0  0  2  0  0  0  0  0  0  0  0  0
    8.0416  -15.2745   22.9118 N   0  0  0  0  0  0  0  0  0  0  0  0
   10.2193  -16.3906   23.1497 C   0  0  0  0  0  0  0  0  0  0  0  0
   10.8685  -15.3519   23.5297 O   0  0  0  0  0  0  0  0  0  0  0  0
   10.7869  -17.6289   23.5433 N   0  0  0  0  0  0  0  0  0  0  0  0
   11.9270  -17.7333   24.4835 C   0  0  1  0  0  0  0  0  0  0  0  0
   11.5356  -18.4931   25.6751 C   0  0  0  0  0  0  0  0  0  0  0  0
   12.1590  -18.0843   26.9513 C   0  0  0  0  0  0  0  0  0  0  0  0
   11.8567  -18.9072   28.1358 C   0  0  0  0  0  0  0  0  0  0  0  0
   11.1521  -18.5206   29.1078 O   0  0  0  0  0  0  0  0  0  0  0  0
   13.1357  -18.1455   23.8113 C   0  0  0  0  0  0  0  0  0  0  0  0
   13.2464  -18.7075   22.7008 O   0  0  0  0  0  0  0  0  0  0  0  0
   12.3611  -20.2218   28.2324 O   0  0  0  0  0  0  0  0  0  0  0  0
   14.3599  -17.8924   24.4722 O   0  0  0  0  0  0  0  0  0  0  0  0
  2  1  1  0
  3  4  1  6
  3  2  1  0
  5  3  1  0
  5  6  1  1
  7  5  1  0
  7  8  2  0
  9 10  1  0
 10 12  1  0
 10 11  2  0
 13 12  1  6
 13 15  1  0
 13 14  1  0
 14  7  1  0
 15 16  2  0
 17 15  1  0
 17 18  1  0
 18 19  1  1
 19 20  1  0
 20 21  1  0
 21 25  1  0
 21 22  2  0
 23 18  1  0
 24 23  2  0
 26 23  1  0
M  END
$$$$
