INE.pdb
     RDKit          3D

 26 25  0  0  1  0  0  0  0  0999 V2000
    5.3842  -11.4370   26.7393 C   0  0  0  0  0  0  0  0  0  0  0  0
    6.7176  -11.9308   26.3122 C   0  0  0  0  0  0  0  0  0  0  0  0
    6.7054  -13.2874   25.6909 C   0  0  2  0  0  0  0  0  0  0  0  0
    5.9522  -14.2493   26.5929 C   0  0  0  0  0  0  0  0  0  0  0  0
    8.0960  -13.7741   25.3847 C   0  0  2  0  0  0  0  0  0  0  0  0
    8.7544  -12.6459   24.6912 N   0  0  0  0  0  0  0  0  0  0  0  0
    8.1586  -14.9163   24.4563 C   0  0  0  0  0  0  0  0  0  0  0  0
    7.5571  -15.9953   24.7825 O   0  0  0  0  0  0  0  0  0  0  0  0
    6.8353  -14.9464   21.1102 N   0  0  0  0  0  0  0  0  0  0  0  0
    8.0562  -15.0981   20.4105 C   0  0  0  0  0  0  0  0  0  0  0  0
    8.1505  -14.6171   19.2620 O   0  0  0  0  0  0  0  0  0  0  0  0
    9.1699  -15.8005   21.0248 C   0  0  0  0  0  0  0  0  0  0  0  0
    8.9868  -16.2029   22.4616 C   0  0  2  0  0  0  0  0  0  0  0  0
    8.8205  -14.9620   23.2087 N   0  0  0  0  0  0  0  0  0  0  0  0
    9.9773  -17.1215   23.0021 C   0  0  0  0  0  0  0  0  0  0  0  0
   10.2927  -18.1746   22.3415 O   0  0  0  0  0  0  0  0  0  0  0  0
   10.6551  -16.9642   24.2375 N   0  0  0  0  0  0  0  0  0  0  0  0
   11.4895  -18.0279   24.8433 C   0  0  1  0  0  0  0  0  0  0  0  0
   11.4386  -17.9427   26.3064 C   0  0  0  0  0  0  0  0  0  0  0  0
   12.1862  -18.9763   27.0528 C   0  0  0  0  0  0  0  0  0  0  0  0
   12.1387  -18.9030   28.5239 C   0  0  0  0  0  0  0  0  0  0  0  0
   12.6944  -19.7327   29.2943 O   0  0  0  0  0  0  0  0  0  0  0  0
   11.2212  -19.3168   24.2522 C   0  0  0  0  0  0  0  0  0  0  0  0
   10.1156  -19.8770   24.0944 O   0  0  0  0  0  0  0  0  0  0  0  0
   11.4434  -17.8515   29.1586 O   0  0  0  0  0  0  0  0  0  0  0  0
   12.3325  -20.0565   23.7860 O   0  0  0  0  0  0  0  0  0  0  0  0
  2  1  1  0
  3  4  1  1
  3  2  1  0
  5  3  1  0
  5  6  1  6
  7  5  1  0
  7  8  2  0
  9 10  1  0
 10 12  1  0
 10 11  2  0
 13 12  1  6
 13 15  1  0
 13 14  1  0
 14  7  1  0
 15 16  2  0
 17 15  1  0
 17 18  1  0
 18 19  1  1
 19 20  1  0
 20 21  1  0
 21 25  1  0
 21 22  2  0
 23 18  1  0
 24 23  2  0
 26 23  1  0
M  END
$$$$
