INE.pdb
     RDKit          3D

 26 25  0  0  1  0  0  0  0  0999 V2000
    8.1478  -12.1605   19.4059 C   0  0  0  0  0  0  0  0  0  0  0  0
    7.5138  -13.4861   19.6177 C   0  0  0  0  0  0  0  0  0  0  0  0
    7.8452  -14.1292   20.9227 C   0  0  2  0  0  0  0  0  0  0  0  0
    9.3537  -14.2177   21.0737 C   0  0  0  0  0  0  0  0  0  0  0  0
    7.1848  -15.4737   21.0665 C   0  0  2  0  0  0  0  0  0  0  0  0
    5.7735  -15.2520   20.6842 N   0  0  0  0  0  0  0  0  0  0  0  0
    7.1570  -16.0027   22.4413 C   0  0  0  0  0  0  0  0  0  0  0  0
    6.6415  -15.2778   23.3586 O   0  0  0  0  0  0  0  0  0  0  0  0
    6.0426  -18.5593   22.5152 N   0  0  0  0  0  0  0  0  0  0  0  0
    5.9237  -18.8637   23.8923 C   0  0  0  0  0  0  0  0  0  0  0  0
    4.9906  -19.6070   24.2616 O   0  0  0  0  0  0  0  0  0  0  0  0
    6.8726  -18.3177   24.8476 C   0  0  0  0  0  0  0  0  0  0  0  0
    7.9994  -17.5068   24.2712 C   0  0  2  0  0  0  0  0  0  0  0  0
    7.6430  -17.2549   22.8801 N   0  0  0  0  0  0  0  0  0  0  0  0
    9.3403  -18.0315   24.4802 C   0  0  0  0  0  0  0  0  0  0  0  0
    9.7413  -19.0385   23.7946 O   0  0  0  0  0  0  0  0  0  0  0  0
   10.2863  -17.5220   25.4054 N   0  0  0  0  0  0  0  0  0  0  0  0
   11.6217  -18.1287   25.6135 C   0  0  1  0  0  0  0  0  0  0  0  0
   12.6743  -17.1965   25.1971 C   0  0  0  0  0  0  0  0  0  0  0  0
   12.9204  -17.0870   23.7439 C   0  0  0  0  0  0  0  0  0  0  0  0
   14.0266  -16.2114   23.3181 C   0  0  0  0  0  0  0  0  0  0  0  0
   14.9043  -15.7473   24.0959 O   0  0  0  0  0  0  0  0  0  0  0  0
   11.7436  -18.7097   26.9289 C   0  0  0  0  0  0  0  0  0  0  0  0
   10.9352  -18.6417   27.8792 O   0  0  0  0  0  0  0  0  0  0  0  0
   14.1579  -15.8451   21.9615 O   0  0  0  0  0  0  0  0  0  0  0  0
   12.9154  -19.4534   27.1996 O   0  0  0  0  0  0  0  0  0  0  0  0
  2  1  1  0
  3  4  1  6
  3  2  1  0
  5  3  1  0
  5  6  1  1
  7  5  1  0
  7  8  2  0
  9 10  1  0
 10 12  1  0
 10 11  2  0
 13 12  1  6
 13 15  1  0
 13 14  1  0
 14  7  1  0
 15 16  2  0
 17 15  1  0
 17 18  1  0
 18 19  1  1
 19 20  1  0
 20 21  1  0
 21 25  1  0
 21 22  2  0
 23 18  1  0
 24 23  2  0
 26 23  1  0
M  END
$$$$
