INE.pdb
     RDKit          3D

 26 25  0  0  1  0  0  0  0  0999 V2000
    7.2517  -11.8292   19.7046 C   0  0  0  0  0  0  0  0  0  0  0  0
    7.7220  -13.2373   19.6967 C   0  0  0  0  0  0  0  0  0  0  0  0
    7.5590  -13.9516   20.9966 C   0  0  2  0  0  0  0  0  0  0  0  0
    8.2641  -13.1726   22.0930 C   0  0  0  0  0  0  0  0  0  0  0  0
    8.0422  -15.3744   20.9166 C   0  0  2  0  0  0  0  0  0  0  0  0
    7.3865  -15.9364   19.7160 N   0  0  0  0  0  0  0  0  0  0  0  0
    7.6309  -16.2291   22.0439 C   0  0  0  0  0  0  0  0  0  0  0  0
    6.6687  -15.8323   22.7851 O   0  0  0  0  0  0  0  0  0  0  0  0
    6.2095  -19.3437   25.6232 N   0  0  0  0  0  0  0  0  0  0  0  0
    6.2822  -19.9442   24.3437 C   0  0  0  0  0  0  0  0  0  0  0  0
    5.5670  -20.9409   24.1098 O   0  0  0  0  0  0  0  0  0  0  0  0
    7.1733  -19.4045   23.3310 C   0  0  0  0  0  0  0  0  0  0  0  0
    7.8732  -18.1212   23.6815 C   0  0  2  0  0  0  0  0  0  0  0  0
    8.1869  -17.4747   22.4129 N   0  0  0  0  0  0  0  0  0  0  0  0
    8.9871  -18.2308   24.6113 C   0  0  0  0  0  0  0  0  0  0  0  0
    8.8285  -18.8553   25.7201 O   0  0  0  0  0  0  0  0  0  0  0  0
   10.2828  -17.6923   24.4073 N   0  0  0  0  0  0  0  0  0  0  0  0
   11.4000  -17.8905   25.3597 C   0  0  1  0  0  0  0  0  0  0  0  0
   12.6034  -17.2018   24.8823 C   0  0  0  0  0  0  0  0  0  0  0  0
   12.6714  -16.9229   23.4325 C   0  0  0  0  0  0  0  0  0  0  0  0
   13.8518  -16.1847   22.9492 C   0  0  0  0  0  0  0  0  0  0  0  0
   14.0863  -15.9377   21.7348 O   0  0  0  0  0  0  0  0  0  0  0  0
   10.9928  -17.6314   26.7197 C   0  0  0  0  0  0  0  0  0  0  0  0
    9.9307  -17.1087   27.1197 O   0  0  0  0  0  0  0  0  0  0  0  0
   14.8071  -15.6976   23.8667 O   0  0  0  0  0  0  0  0  0  0  0  0
   11.8912  -18.0073   27.7449 O   0  0  0  0  0  0  0  0  0  0  0  0
  2  1  1  0
  3  4  1  1
  3  2  1  0
  5  3  1  0
  5  6  1  6
  7  5  1  0
  7  8  2  0
  9 10  1  0
 10 12  1  0
 10 11  2  0
 13 12  1  6
 13 15  1  0
 13 14  1  0
 14  7  1  0
 15 16  2  0
 17 15  1  0
 17 18  1  0
 18 19  1  6
 19 20  1  0
 20 21  1  0
 21 25  1  0
 21 22  2  0
 23 18  1  0
 24 23  2  0
 26 23  1  0
M  END
$$$$
