INE.pdb
     RDKit          3D

 26 25  0  0  1  0  0  0  0  0999 V2000
    8.0630  -11.2849   25.9309 C   0  0  0  0  0  0  0  0  0  0  0  0
    8.0141  -12.7543   26.1370 C   0  0  0  0  0  0  0  0  0  0  0  0
    6.6903  -13.3768   25.8428 C   0  0  2  0  0  0  0  0  0  0  0  0
    5.6645  -12.8808   26.8468 C   0  0  0  0  0  0  0  0  0  0  0  0
    6.7728  -14.8791   25.8173 C   0  0  2  0  0  0  0  0  0  0  0  0
    7.6786  -15.2336   26.9312 N   0  0  0  0  0  0  0  0  0  0  0  0
    7.3828  -15.4421   24.6002 C   0  0  0  0  0  0  0  0  0  0  0  0
    6.8224  -16.4519   24.0534 O   0  0  0  0  0  0  0  0  0  0  0  0
    6.8477  -15.8022   21.3614 N   0  0  0  0  0  0  0  0  0  0  0  0
    7.9317  -15.0244   20.8892 C   0  0  0  0  0  0  0  0  0  0  0  0
    7.8054  -14.4201   19.8036 O   0  0  0  0  0  0  0  0  0  0  0  0
    9.1609  -14.9375   21.6590 C   0  0  0  0  0  0  0  0  0  0  0  0
    9.2170  -15.7664   22.9117 C   0  0  2  0  0  0  0  0  0  0  0  0
    8.5463  -14.9833   23.9425 N   0  0  0  0  0  0  0  0  0  0  0  0
   10.5261  -16.2827   23.2818 C   0  0  0  0  0  0  0  0  0  0  0  0
   11.3886  -15.4991   23.8175 O   0  0  0  0  0  0  0  0  0  0  0  0
   10.9629  -17.6193   23.1000 N   0  0  0  0  0  0  0  0  0  0  0  0
   12.1515  -18.1815   23.7824 C   0  0  1  0  0  0  0  0  0  0  0  0
   12.0366  -18.0031   25.2334 C   0  0  0  0  0  0  0  0  0  0  0  0
   10.9356  -18.7284   25.9013 C   0  0  0  0  0  0  0  0  0  0  0  0
   11.1878  -19.2109   27.2707 C   0  0  0  0  0  0  0  0  0  0  0  0
   12.3104  -19.1657   27.8438 O   0  0  0  0  0  0  0  0  0  0  0  0
   12.4599  -19.5090   23.3078 C   0  0  0  0  0  0  0  0  0  0  0  0
   11.7408  -20.2698   22.6257 O   0  0  0  0  0  0  0  0  0  0  0  0
   10.1354  -19.7624   28.0324 O   0  0  0  0  0  0  0  0  0  0  0  0
   13.7283  -20.0359   23.6441 O   0  0  0  0  0  0  0  0  0  0  0  0
  2  1  1  0
  3  4  1  1
  3  2  1  0
  5  3  1  0
  5  6  1  1
  7  5  1  0
  7  8  2  0
  9 10  1  0
 10 12  1  0
 10 11  2  0
 13 12  1  6
 13 15  1  0
 13 14  1  0
 14  7  1  0
 15 16  2  0
 17 15  1  0
 17 18  1  0
 18 19  1  1
 19 20  1  0
 20 21  1  0
 21 25  1  0
 21 22  2  0
 23 18  1  0
 24 23  2  0
 26 23  1  0
M  END
$$$$
