INE.pdb
     RDKit          3D

 26 25  0  0  1  0  0  0  0  0999 V2000
    6.4028  -12.8517   20.4962 C   0  0  0  0  0  0  0  0  0  0  0  0
    7.1666  -13.4073   19.3507 C   0  0  0  0  0  0  0  0  0  0  0  0
    8.6171  -13.6275   19.6226 C   0  0  2  0  0  0  0  0  0  0  0  0
    9.2554  -12.3178   20.0507 C   0  0  0  0  0  0  0  0  0  0  0  0
    9.3208  -14.2371   18.4403 C   0  0  2  0  0  0  0  0  0  0  0  0
    8.4869  -15.3949   18.0514 N   0  0  0  0  0  0  0  0  0  0  0  0
   10.6597  -14.7782   18.7319 C   0  0  0  0  0  0  0  0  0  0  0  0
   10.7529  -15.9986   19.0986 O   0  0  0  0  0  0  0  0  0  0  0  0
   16.6206  -13.7108   17.9339 N   0  0  0  0  0  0  0  0  0  0  0  0
   15.5358  -14.5960   18.1404 C   0  0  0  0  0  0  0  0  0  0  0  0
   15.7819  -15.7846   18.4341 O   0  0  0  0  0  0  0  0  0  0  0  0
   14.1685  -14.1216   18.0112 C   0  0  0  0  0  0  0  0  0  0  0  0
   13.1642  -14.7349   18.9465 C   0  0  2  0  0  0  0  0  0  0  0  0
   11.8910  -14.0900   18.6485 N   0  0  0  0  0  0  0  0  0  0  0  0
   13.5298  -14.7594   20.3546 C   0  0  0  0  0  0  0  0  0  0  0  0
   13.8176  -13.6628   20.9543 O   0  0  0  0  0  0  0  0  0  0  0  0
   13.6052  -15.9217   21.1631 N   0  0  0  0  0  0  0  0  0  0  0  0
   14.1438  -15.9133   22.5432 C   0  0  1  0  0  0  0  0  0  0  0  0
   13.5719  -17.0185   23.3190 C   0  0  0  0  0  0  0  0  0  0  0  0
   12.0967  -17.0937   23.3695 C   0  0  0  0  0  0  0  0  0  0  0  0
   11.5107  -18.1838   24.1696 C   0  0  0  0  0  0  0  0  0  0  0  0
   11.9092  -18.5133   25.3200 O   0  0  0  0  0  0  0  0  0  0  0  0
   15.5808  -15.7804   22.5533 C   0  0  0  0  0  0  0  0  0  0  0  0
   16.3623  -15.7896   21.5784 O   0  0  0  0  0  0  0  0  0  0  0  0
   10.4281  -18.9328   23.6608 O   0  0  0  0  0  0  0  0  0  0  0  0
   16.2048  -15.6183   23.8118 O   0  0  0  0  0  0  0  0  0  0  0  0
  2  1  1  0
  3  4  1  6
  3  2  1  0
  5  3  1  0
  5  6  1  1
  7  5  1  0
  7  8  2  0
  9 10  1  0
 10 12  1  0
 10 11  2  0
 13 12  1  6
 13 15  1  0
 13 14  1  0
 14  7  1  0
 15 16  2  0
 17 15  1  0
 17 18  1  0
 18 19  1  6
 19 20  1  0
 20 21  1  0
 21 25  1  0
 21 22  2  0
 23 18  1  0
 24 23  2  0
 26 23  1  0
M  END
$$$$
