AQM.pdb
     RDKit          3D

 23 22  0  0  1  0  0  0  0  0999 V2000
   17.8114  -12.3591  -15.8249 C   0  0  0  0  0  0  0  0  0  0  0  0
   16.7751  -11.2523  -15.6034 C   0  0  2  0  0  0  0  0  0  0  0  0
   15.5774  -11.5091  -16.3210 N   0  0  0  0  0  0  0  0  0  0  0  0
   17.4367   -9.9819  -15.9505 C   0  0  0  0  0  0  0  0  0  0  0  0
   18.3214   -9.9952  -16.8371 O   0  0  0  0  0  0  0  0  0  0  0  0
   14.9083   -4.4862  -14.8563 N   0  0  0  0  0  0  0  0  0  0  0  0
   14.6952   -5.2451  -16.0291 C   0  0  0  0  0  0  0  0  0  0  0  0
   13.7014   -5.0110  -16.7313 O   0  0  0  0  0  0  0  0  0  0  0  0
   15.7102   -6.3044  -16.3482 C   0  0  0  0  0  0  0  0  0  0  0  0
   16.7883   -6.3662  -15.3364 C   0  0  0  0  0  0  0  0  0  0  0  0
   17.7655   -7.4791  -15.6566 C   0  0  2  0  0  0  0  0  0  0  0  0
   17.1052   -8.7623  -15.3189 N   0  0  0  0  0  0  0  0  0  0  0  0
   19.0264   -7.4281  -14.8983 C   0  0  0  0  0  0  0  0  0  0  0  0
   19.2531   -8.3036  -14.0011 O   0  0  0  0  0  0  0  0  0  0  0  0
   25.5974   -9.9885  -14.5693 C   0  0  0  0  0  0  0  0  0  0  0  0
   23.8647   -9.7411  -15.0413 S   0  0  0  0  0  0  0  0  0  0  0  0
   23.3357   -8.1269  -14.3916 C   0  0  0  0  0  0  0  0  0  0  0  0
   21.9186   -7.9006  -14.8143 C   0  0  0  0  0  0  0  0  0  0  0  0
   21.3417   -6.5731  -14.3827 C   0  0  2  0  0  0  0  0  0  0  0  0
   20.0505   -6.4727  -15.0781 N   0  0  0  0  0  0  0  0  0  0  0  0
   22.1667   -5.4125  -14.7099 C   0  0  0  0  0  0  0  0  0  0  0  0
   21.9936   -4.8354  -15.8312 O   0  0  0  0  0  0  0  0  0  0  0  0
   23.1462   -4.8986  -13.8442 O   0  0  0  0  0  0  0  0  0  0  0  0
  2  1  1  6
  2  3  1  0
  4  2  1  0
  5  4  2  0
  6  7  1  0
  7  8  2  0
  9  7  1  0
  9 10  1  0
 11 10  1  1
 11 13  1  0
 11 12  1  0
 12  4  1  0
 13 20  1  0
 14 13  2  0
 16 17  1  0
 16 15  1  0
 19 18  1  6
 18 17  1  0
 20 19  1  0
 21 23  1  0
 21 19  1  0
 22 21  2  0
M  END
$$$$
