AQM.pdb
     RDKit          3D

 23 22  0  0  1  0  0  0  0  0999 V2000
   18.8952  -21.1450   -9.6244 C   0  0  0  0  0  0  0  0  0  0  0  0
   18.9642  -22.3616  -10.5534 C   0  0  2  0  0  0  0  0  0  0  0  0
   18.4727  -22.0555  -11.8497 N   0  0  0  0  0  0  0  0  0  0  0  0
   18.2488  -23.4536   -9.8693 C   0  0  0  0  0  0  0  0  0  0  0  0
   17.0006  -23.4973   -9.9635 O   0  0  0  0  0  0  0  0  0  0  0  0
   19.9637  -29.1689  -10.0004 N   0  0  0  0  0  0  0  0  0  0  0  0
   18.9194  -29.3320   -9.0626 C   0  0  0  0  0  0  0  0  0  0  0  0
   18.5881  -30.4747   -8.7157 O   0  0  0  0  0  0  0  0  0  0  0  0
   18.2711  -28.0821   -8.5416 C   0  0  0  0  0  0  0  0  0  0  0  0
   18.8959  -26.8589   -9.0923 C   0  0  0  0  0  0  0  0  0  0  0  0
   18.2322  -25.6162   -8.5345 C   0  0  2  0  0  0  0  0  0  0  0  0
   18.9234  -24.4422   -9.1183 N   0  0  0  0  0  0  0  0  0  0  0  0
   18.3105  -25.4810   -7.0706 C   0  0  0  0  0  0  0  0  0  0  0  0
   19.3669  -25.0047   -6.5415 O   0  0  0  0  0  0  0  0  0  0  0  0
   14.1193  -25.2322   -0.4085 C   0  0  0  0  0  0  0  0  0  0  0  0
   14.2174  -25.2881   -2.2178 S   0  0  0  0  0  0  0  0  0  0  0  0
   15.9622  -25.5232   -2.6737 C   0  0  0  0  0  0  0  0  0  0  0  0
   16.0520  -25.5350   -4.1670 C   0  0  0  0  0  0  0  0  0  0  0  0
   17.4540  -25.6864   -4.7080 C   0  0  2  0  0  0  0  0  0  0  0  0
   17.2896  -25.8346   -6.1612 N   0  0  0  0  0  0  0  0  0  0  0  0
   18.1935  -26.8301   -4.1788 C   0  0  0  0  0  0  0  0  0  0  0  0
   18.1295  -27.9400   -4.7989 O   0  0  0  0  0  0  0  0  0  0  0  0
   18.9759  -26.7657   -3.0141 O   0  0  0  0  0  0  0  0  0  0  0  0
  2  1  1  1
  2  3  1  0
  4  2  1  0
  5  4  2  0
  6  7  1  0
  7  8  2  0
  9  7  1  0
  9 10  1  0
 11 10  1  1
 11 13  1  0
 11 12  1  0
 12  4  1  0
 13 20  1  0
 14 13  2  0
 16 17  1  0
 16 15  1  0
 19 18  1  1
 18 17  1  0
 20 19  1  0
 21 23  1  0
 21 19  1  0
 22 21  2  0
M  END
$$$$
