AQM.pdb
     RDKit          3D

 23 22  0  0  1  0  0  0  0  0999 V2000
   16.2991  -12.0626  -11.4278 C   0  0  0  0  0  0  0  0  0  0  0  0
   15.3233  -11.2171  -10.6025 C   0  0  2  0  0  0  0  0  0  0  0  0
   13.9801  -11.6338  -10.7971 N   0  0  0  0  0  0  0  0  0  0  0  0
   15.5851   -9.8101  -10.9543 C   0  0  0  0  0  0  0  0  0  0  0  0
   15.2137   -9.3992  -12.0778 O   0  0  0  0  0  0  0  0  0  0  0  0
   14.8216   -5.2002   -7.1805 N   0  0  0  0  0  0  0  0  0  0  0  0
   15.4565   -4.4671   -8.2080 C   0  0  0  0  0  0  0  0  0  0  0  0
   15.4889   -3.2301   -8.1402 O   0  0  0  0  0  0  0  0  0  0  0  0
   16.0602   -5.2559   -9.3339 C   0  0  0  0  0  0  0  0  0  0  0  0
   15.8878   -6.7139   -9.1480 C   0  0  0  0  0  0  0  0  0  0  0  0
   16.3914   -7.4751  -10.3576 C   0  0  2  0  0  0  0  0  0  0  0  0
   16.2361   -8.9208  -10.0702 N   0  0  0  0  0  0  0  0  0  0  0  0
   17.8096   -7.2479  -10.6811 C   0  0  0  0  0  0  0  0  0  0  0  0
   18.7085   -7.8665  -10.0239 O   0  0  0  0  0  0  0  0  0  0  0  0
   22.8916  -10.3044  -12.7696 C   0  0  0  0  0  0  0  0  0  0  0  0
   21.5897   -9.5518  -13.7820 S   0  0  0  0  0  0  0  0  0  0  0  0
   21.3829   -7.8303  -13.2332 C   0  0  0  0  0  0  0  0  0  0  0  0
   19.9952   -7.6805  -12.6947 C   0  0  0  0  0  0  0  0  0  0  0  0
   19.7102   -6.3374  -12.0653 C   0  0  2  0  0  0  0  0  0  0  0  0
   18.2898   -6.3842  -11.6899 N   0  0  0  0  0  0  0  0  0  0  0  0
   19.9494   -5.1901  -12.9379 C   0  0  0  0  0  0  0  0  0  0  0  0
   18.9652   -4.6841  -13.5669 O   0  0  0  0  0  0  0  0  0  0  0  0
   21.2178   -4.6142  -13.1181 O   0  0  0  0  0  0  0  0  0  0  0  0
  2  1  1  6
  2  3  1  0
  4  2  1  0
  5  4  2  0
  6  7  1  0
  7  8  2  0
  9  7  1  0
  9 10  1  0
 11 10  1  1
 11 13  1  0
 11 12  1  0
 12  4  1  0
 13 20  1  0
 14 13  2  0
 16 17  1  0
 16 15  1  0
 19 18  1  6
 18 17  1  0
 20 19  1  0
 21 23  1  0
 21 19  1  0
 22 21  2  0
M  END
$$$$
