AQM.pdb
     RDKit          3D

 23 22  0  0  1  0  0  0  0  0999 V2000
   13.8243  -11.9262  -13.8636 C   0  0  0  0  0  0  0  0  0  0  0  0
   15.1863  -11.8401  -13.1668 C   0  0  2  0  0  0  0  0  0  0  0  0
   15.1931  -12.5641  -11.9456 N   0  0  0  0  0  0  0  0  0  0  0  0
   15.4985  -10.4062  -13.0305 C   0  0  0  0  0  0  0  0  0  0  0  0
   15.7082   -9.7419  -14.0715 O   0  0  0  0  0  0  0  0  0  0  0  0
   15.0610   -6.5998   -7.6207 N   0  0  0  0  0  0  0  0  0  0  0  0
   14.5626   -6.0116   -8.8048 C   0  0  0  0  0  0  0  0  0  0  0  0
   13.6432   -5.1840   -8.7311 O   0  0  0  0  0  0  0  0  0  0  0  0
   15.1961   -6.4404  -10.0967 C   0  0  0  0  0  0  0  0  0  0  0  0
   15.0770   -7.8987  -10.3188 C   0  0  0  0  0  0  0  0  0  0  0  0
   15.7277   -8.2999  -11.6271 C   0  0  2  0  0  0  0  0  0  0  0  0
   15.5675   -9.7662  -11.7728 N   0  0  0  0  0  0  0  0  0  0  0  0
   17.1689   -8.0113  -11.7117 C   0  0  0  0  0  0  0  0  0  0  0  0
   17.9965   -8.7770  -11.1188 O   0  0  0  0  0  0  0  0  0  0  0  0
   23.0005   -9.8248  -15.1638 C   0  0  0  0  0  0  0  0  0  0  0  0
   21.2372   -9.6853  -14.7670 S   0  0  0  0  0  0  0  0  0  0  0  0
   20.9957   -8.1398  -13.8393 C   0  0  0  0  0  0  0  0  0  0  0  0
   19.5629   -8.0752  -13.4139 C   0  0  0  0  0  0  0  0  0  0  0  0
   19.1965   -6.8326  -12.6374 C   0  0  2  0  0  0  0  0  0  0  0  0
   17.7467   -6.9328  -12.4167 N   0  0  0  0  0  0  0  0  0  0  0  0
   19.5038   -5.5752  -13.3151 C   0  0  0  0  0  0  0  0  0  0  0  0
   18.6214   -5.0565  -14.0719 O   0  0  0  0  0  0  0  0  0  0  0  0
   20.7307   -4.9063  -13.1724 O   0  0  0  0  0  0  0  0  0  0  0  0
  2  1  1  1
  2  3  1  0
  4  2  1  0
  5  4  2  0
  6  7  1  0
  7  8  2  0
  9  7  1  0
  9 10  1  0
 11 10  1  1
 11 13  1  0
 11 12  1  0
 12  4  1  0
 13 20  1  0
 14 13  2  0
 16 17  1  0
 16 15  1  0
 19 18  1  6
 18 17  1  0
 20 19  1  0
 21 23  1  0
 21 19  1  0
 22 21  2  0
M  END
$$$$
