AQM.pdb
     RDKit          3D

 23 22  0  0  1  0  0  0  0  0999 V2000
   15.3977  -15.3433  -13.0429 C   0  0  0  0  0  0  0  0  0  0  0  0
   14.6182  -14.0248  -13.0873 C   0  0  2  0  0  0  0  0  0  0  0  0
   13.9546  -13.8539  -14.3307 N   0  0  0  0  0  0  0  0  0  0  0  0
   15.5784  -12.9576  -12.7537 C   0  0  0  0  0  0  0  0  0  0  0  0
   16.0816  -12.9479  -11.6067 O   0  0  0  0  0  0  0  0  0  0  0  0
   19.1515  -10.0161  -16.8694 N   0  0  0  0  0  0  0  0  0  0  0  0
   19.3986   -9.1865  -15.7526 C   0  0  0  0  0  0  0  0  0  0  0  0
   20.2137   -8.2586  -15.8542 O   0  0  0  0  0  0  0  0  0  0  0  0
   18.6394   -9.4947  -14.4945 C   0  0  0  0  0  0  0  0  0  0  0  0
   17.7001  -10.6242  -14.6728 C   0  0  0  0  0  0  0  0  0  0  0  0
   16.9625  -10.9212  -13.3830 C   0  0  2  0  0  0  0  0  0  0  0  0
   15.9438  -11.9559  -13.6807 N   0  0  0  0  0  0  0  0  0  0  0  0
   16.2531   -9.7701  -12.8006 C   0  0  0  0  0  0  0  0  0  0  0  0
   15.0952   -9.4635  -13.2343 O   0  0  0  0  0  0  0  0  0  0  0  0
   14.0199   -6.2644   -6.3884 C   0  0  0  0  0  0  0  0  0  0  0  0
   14.8117   -7.6027   -7.3202 S   0  0  0  0  0  0  0  0  0  0  0  0
   15.0698   -7.0187   -9.0230 C   0  0  0  0  0  0  0  0  0  0  0  0
   15.7636   -8.1041   -9.7836 C   0  0  0  0  0  0  0  0  0  0  0  0
   15.9786   -7.8025  -11.2479 C   0  0  2  0  0  0  0  0  0  0  0  0
   16.7451   -8.9450  -11.7655 N   0  0  0  0  0  0  0  0  0  0  0  0
   16.7039   -6.5629  -11.5168 C   0  0  0  0  0  0  0  0  0  0  0  0
   17.9362   -6.6305  -11.8285 O   0  0  0  0  0  0  0  0  0  0  0  0
   16.1061   -5.2937  -11.4486 O   0  0  0  0  0  0  0  0  0  0  0  0
  2  1  1  6
  2  3  1  0
  4  2  1  0
  5  4  2  0
  6  7  1  0
  7  8  2  0
  9  7  1  0
  9 10  1  0
 11 10  1  6
 11 13  1  0
 11 12  1  0
 12  4  1  0
 13 20  1  0
 14 13  2  0
 16 17  1  0
 16 15  1  0
 19 18  1  1
 18 17  1  0
 20 19  1  0
 21 23  1  0
 21 19  1  0
 22 21  2  0
M  END
$$$$
