AQM.pdb
     RDKit          3D

 23 22  0  0  1  0  0  0  0  0999 V2000
   14.3482  -10.0767  -13.6410 C   0  0  0  0  0  0  0  0  0  0  0  0
   15.8378  -10.4345  -13.6706 C   0  0  2  0  0  0  0  0  0  0  0  0
   16.0348  -11.8390  -13.7367 N   0  0  0  0  0  0  0  0  0  0  0  0
   16.4494   -9.7848  -12.4975 C   0  0  0  0  0  0  0  0  0  0  0  0
   16.1138  -10.1795  -11.3571 O   0  0  0  0  0  0  0  0  0  0  0  0
   21.5466   -6.2164  -12.7052 N   0  0  0  0  0  0  0  0  0  0  0  0
   21.5486   -7.6286  -12.6563 C   0  0  0  0  0  0  0  0  0  0  0  0
   22.5778   -8.2452  -12.9667 O   0  0  0  0  0  0  0  0  0  0  0  0
   20.2760   -8.2965  -12.2223 C   0  0  0  0  0  0  0  0  0  0  0  0
   19.2119   -7.3174  -11.9076 C   0  0  0  0  0  0  0  0  0  0  0  0
   17.9497   -8.0206  -11.4511 C   0  0  2  0  0  0  0  0  0  0  0  0
   17.3932   -8.7407  -12.6210 N   0  0  0  0  0  0  0  0  0  0  0  0
   16.8931   -7.1255  -10.9509 C   0  0  0  0  0  0  0  0  0  0  0  0
   16.1249   -6.5390  -11.7806 O   0  0  0  0  0  0  0  0  0  0  0  0
   11.6906   -5.7845   -5.3668 C   0  0  0  0  0  0  0  0  0  0  0  0
   12.9506   -6.7988   -6.1854 S   0  0  0  0  0  0  0  0  0  0  0  0
   13.9379   -5.7062   -7.2525 C   0  0  0  0  0  0  0  0  0  0  0  0
   14.9885   -6.5372   -7.9187 C   0  0  0  0  0  0  0  0  0  0  0  0
   15.5666   -5.9264   -9.1733 C   0  0  2  0  0  0  0  0  0  0  0  0
   16.6334   -6.8474   -9.5910 N   0  0  0  0  0  0  0  0  0  0  0  0
   16.1170   -4.5837   -9.0021 C   0  0  0  0  0  0  0  0  0  0  0  0
   17.3519   -4.4602   -8.7191 O   0  0  0  0  0  0  0  0  0  0  0  0
   15.3476   -3.4162   -9.1353 O   0  0  0  0  0  0  0  0  0  0  0  0
  2  1  1  1
  2  3  1  0
  4  2  1  0
  5  4  2  0
  6  7  1  0
  7  8  2  0
  9  7  1  0
  9 10  1  0
 11 10  1  6
 11 13  1  0
 11 12  1  0
 12  4  1  0
 13 20  1  0
 14 13  2  0
 16 17  1  0
 16 15  1  0
 19 18  1  1
 18 17  1  0
 20 19  1  0
 21 23  1  0
 21 19  1  0
 22 21  2  0
M  END
$$$$
