AQM.pdb
     RDKit          3D

 23 22  0  0  1  0  0  0  0  0999 V2000
   21.0794  -12.7913  -17.9073 C   0  0  0  0  0  0  0  0  0  0  0  0
   20.1263  -12.4672  -16.7521 C   0  0  2  0  0  0  0  0  0  0  0  0
   18.9550  -13.2678  -16.8032 N   0  0  0  0  0  0  0  0  0  0  0  0
   19.8787  -11.0154  -16.8066 C   0  0  0  0  0  0  0  0  0  0  0  0
   19.7621  -10.4739  -17.9301 O   0  0  0  0  0  0  0  0  0  0  0  0
   15.6653   -7.9817  -15.6086 N   0  0  0  0  0  0  0  0  0  0  0  0
   16.4237   -6.8988  -15.1099 C   0  0  0  0  0  0  0  0  0  0  0  0
   15.9226   -5.7656  -15.0889 O   0  0  0  0  0  0  0  0  0  0  0  0
   17.8131   -7.2046  -14.6302 C   0  0  0  0  0  0  0  0  0  0  0  0
   18.1581   -8.6340  -14.7964 C   0  0  0  0  0  0  0  0  0  0  0  0
   19.3825   -8.7949  -15.6744 C   0  0  2  0  0  0  0  0  0  0  0  0
   19.7701  -10.2251  -15.6405 N   0  0  0  0  0  0  0  0  0  0  0  0
   20.5561   -8.0179  -15.2424 C   0  0  0  0  0  0  0  0  0  0  0  0
   21.2425   -8.4214  -14.2481 O   0  0  0  0  0  0  0  0  0  0  0  0
   25.9320   -2.7068  -17.3933 C   0  0  0  0  0  0  0  0  0  0  0  0
   24.5082   -3.7626  -17.7732 S   0  0  0  0  0  0  0  0  0  0  0  0
   23.9260   -4.4947  -16.2136 C   0  0  0  0  0  0  0  0  0  0  0  0
   22.7626   -5.3820  -16.5257 C   0  0  0  0  0  0  0  0  0  0  0  0
   22.1724   -6.0845  -15.3259 C   0  0  2  0  0  0  0  0  0  0  0  0
   21.0170   -6.8283  -15.8479 N   0  0  0  0  0  0  0  0  0  0  0  0
   21.7387   -5.1966  -14.2496 C   0  0  0  0  0  0  0  0  0  0  0  0
   20.5580   -4.7221  -14.2863 O   0  0  0  0  0  0  0  0  0  0  0  0
   22.5636   -4.8386  -13.1706 O   0  0  0  0  0  0  0  0  0  0  0  0
  2  1  1  6
  2  3  1  0
  4  2  1  0
  5  4  2  0
  6  7  1  0
  7  8  2  0
  9  7  1  0
  9 10  1  0
 11 10  1  1
 11 13  1  0
 11 12  1  0
 12  4  1  0
 13 20  1  0
 14 13  2  0
 16 17  1  0
 16 15  1  0
 19 18  1  6
 18 17  1  0
 20 19  1  0
 21 23  1  0
 21 19  1  0
 22 21  2  0
M  END
$$$$
