AQM.pdb
     RDKit          3D

 23 22  0  0  1  0  0  0  0  0999 V2000
   28.7075  -19.2843  -16.6320 C   0  0  0  0  0  0  0  0  0  0  0  0
   28.7190  -20.3026  -15.4871 C   0  0  2  0  0  0  0  0  0  0  0  0
   28.4384  -21.6138  -15.9536 N   0  0  0  0  0  0  0  0  0  0  0  0
   27.7791  -19.8006  -14.4689 C   0  0  0  0  0  0  0  0  0  0  0  0
   27.9608  -18.6501  -14.0080 O   0  0  0  0  0  0  0  0  0  0  0  0
   21.8294  -20.8378  -14.6572 N   0  0  0  0  0  0  0  0  0  0  0  0
   21.8579  -20.0901  -13.4586 C   0  0  0  0  0  0  0  0  0  0  0  0
   20.7902  -19.7384  -12.9371 O   0  0  0  0  0  0  0  0  0  0  0  0
   23.2092  -19.7676  -12.8894 C   0  0  0  0  0  0  0  0  0  0  0  0
   24.3082  -20.2453  -13.7577 C   0  0  0  0  0  0  0  0  0  0  0  0
   25.6532  -20.0270  -13.0949 C   0  0  2  0  0  0  0  0  0  0  0  0
   26.6907  -20.5714  -14.0027 N   0  0  0  0  0  0  0  0  0  0  0  0
   25.8164  -20.7019  -11.7967 C   0  0  0  0  0  0  0  0  0  0  0  0
   26.0005  -21.9620  -11.7651 O   0  0  0  0  0  0  0  0  0  0  0  0
   29.7222  -19.4508   -5.9116 C   0  0  0  0  0  0  0  0  0  0  0  0
   28.0437  -19.0427   -6.4615 S   0  0  0  0  0  0  0  0  0  0  0  0
   27.5376  -20.2937   -7.6806 C   0  0  0  0  0  0  0  0  0  0  0  0
   26.1928  -19.9062   -8.2093 C   0  0  0  0  0  0  0  0  0  0  0  0
   25.6554  -20.8222   -9.2833 C   0  0  2  0  0  0  0  0  0  0  0  0
   25.7945  -20.0659  -10.5361 N   0  0  0  0  0  0  0  0  0  0  0  0
   24.2618  -21.2228   -9.1042 C   0  0  0  0  0  0  0  0  0  0  0  0
   23.3540  -20.5667   -9.7091 O   0  0  0  0  0  0  0  0  0  0  0  0
   23.8715  -22.3017   -8.2939 O   0  0  0  0  0  0  0  0  0  0  0  0
  2  1  1  6
  2  3  1  0
  4  2  1  0
  5  4  2  0
  6  7  1  0
  7  8  2  0
  9  7  1  0
  9 10  1  0
 11 10  1  6
 11 13  1  0
 11 12  1  0
 12  4  1  0
 13 20  1  0
 14 13  2  0
 16 17  1  0
 16 15  1  0
 19 18  1  1
 18 17  1  0
 20 19  1  0
 21 23  1  0
 21 19  1  0
 22 21  2  0
M  END
$$$$
