AQM.pdb
     RDKit          3D

 23 22  0  0  1  0  0  0  0  0999 V2000
   25.7666  -21.1515  -11.8735 C   0  0  0  0  0  0  0  0  0  0  0  0
   25.9643  -22.0704  -13.0837 C   0  0  2  0  0  0  0  0  0  0  0  0
   27.1872  -21.7968  -13.7509 N   0  0  0  0  0  0  0  0  0  0  0  0
   24.7621  -21.9235  -13.9235 C   0  0  0  0  0  0  0  0  0  0  0  0
   24.7835  -21.0805  -14.8498 O   0  0  0  0  0  0  0  0  0  0  0  0
   20.5955  -26.4363  -14.8148 N   0  0  0  0  0  0  0  0  0  0  0  0
   19.9489  -25.4020  -15.5280 C   0  0  0  0  0  0  0  0  0  0  0  0
   18.9137  -25.6557  -16.1602 O   0  0  0  0  0  0  0  0  0  0  0  0
   20.5757  -24.0390  -15.4680 C   0  0  0  0  0  0  0  0  0  0  0  0
   21.7846  -24.0185  -14.6147 C   0  0  0  0  0  0  0  0  0  0  0  0
   22.4294  -22.6473  -14.6256 C   0  0  2  0  0  0  0  0  0  0  0  0
   23.5987  -22.6978  -13.7162 N   0  0  0  0  0  0  0  0  0  0  0  0
   21.5614  -21.5553  -14.1547 C   0  0  0  0  0  0  0  0  0  0  0  0
   21.3395  -21.4258  -12.9070 O   0  0  0  0  0  0  0  0  0  0  0  0
   19.6763  -17.1577  -19.3216 C   0  0  0  0  0  0  0  0  0  0  0  0
   20.1164  -16.9093  -17.5807 S   0  0  0  0  0  0  0  0  0  0  0  0
   19.7407  -18.4476  -16.6864 C   0  0  0  0  0  0  0  0  0  0  0  0
   20.3200  -18.3362  -15.3116 C   0  0  0  0  0  0  0  0  0  0  0  0
   20.0743  -19.5378  -14.4301 C   0  0  2  0  0  0  0  0  0  0  0  0
   20.9321  -20.5975  -14.9798 N   0  0  0  0  0  0  0  0  0  0  0  0
   18.6878  -19.9976  -14.3956 C   0  0  0  0  0  0  0  0  0  0  0  0
   17.8451  -19.3479  -13.6969 O   0  0  0  0  0  0  0  0  0  0  0  0
   18.2358  -21.1264  -15.0987 O   0  0  0  0  0  0  0  0  0  0  0  0
  2  1  1  1
  2  3  1  0
  4  2  1  0
  5  4  2  0
  6  7  1  0
  7  8  2  0
  9  7  1  0
  9 10  1  0
 11 10  1  1
 11 13  1  0
 11 12  1  0
 12  4  1  0
 13 20  1  0
 14 13  2  0
 16 17  1  0
 16 15  1  0
 19 18  1  6
 18 17  1  0
 20 19  1  0
 21 23  1  0
 21 19  1  0
 22 21  2  0
M  END
$$$$
