HSY.pdb
     RDKit          3D

 29 30  0  0  1  0  0  0  0  0999 V2000
    8.7084  -16.4836   20.1642 N   0  0  0  0  0  0  0  0  0  0  0  0
    8.8198  -15.4656   21.1918 C   0  0  1  0  0  0  0  0  0  0  0  0
    7.6194  -14.5324   20.9882 C   0  0  0  0  0  0  0  0  0  0  0  0
    7.7666  -13.8806   19.6702 C   0  0  0  0  0  0  0  0  0  0  0  0
    8.6493  -12.8391   19.3935 C   0  0  0  0  0  0  0  0  0  0  0  0
    8.5014  -12.5087   18.0967 N   0  0  0  0  0  0  0  0  0  0  0  0
    7.5664  -13.2947   17.5461 C   0  0  0  0  0  0  0  0  0  0  0  0
    7.1265  -14.1259   18.5142 N   0  0  0  0  0  0  0  0  0  0  0  0
    8.6705  -16.0354   22.5513 C   0  0  0  0  0  0  0  0  0  0  0  0
    7.5143  -16.2836   22.9713 O   0  0  0  0  0  0  0  0  0  0  0  0
   11.6674  -17.8559   24.0824 O   0  0  0  0  0  0  0  0  0  0  0  0
   10.4892  -18.1918   24.7345 C   0  0  0  0  0  0  0  0  0  0  0  0
    9.6105  -16.9442   24.7119 C   0  0  2  0  0  0  0  0  0  0  0  0
    9.7645  -16.3174   23.4082 N   0  0  0  0  0  0  0  0  0  0  0  0
   10.1863  -16.0100   25.7123 C   0  0  0  0  0  0  0  0  0  0  0  0
   11.1336  -15.2224   25.4469 O   0  0  0  0  0  0  0  0  0  0  0  0
    6.0275  -11.6699   24.6842 O   0  0  0  0  0  0  0  0  0  0  0  0
    6.7907  -12.3147   25.6461 C   0  0  0  0  0  0  0  0  0  0  0  0
    8.1543  -12.1008   25.6877 C   0  0  0  0  0  0  0  0  0  0  0  0
    8.8874  -12.7676   26.6699 C   0  0  0  0  0  0  0  0  0  0  0  0
    8.2871  -13.6111   27.5715 C   0  0  0  0  0  0  0  0  0  0  0  0
    9.1048  -14.2891   28.5823 C   0  0  0  0  0  0  0  0  0  0  0  0
   10.2562  -15.0838   28.0291 C   0  0  2  0  0  0  0  0  0  0  0  0
    9.6686  -15.9837   27.0224 N   0  0  0  0  0  0  0  0  0  0  0  0
   10.9143  -15.9553   29.0229 C   0  0  0  0  0  0  0  0  0  0  0  0
   11.5101  -15.4210   29.9921 O   0  0  0  0  0  0  0  0  0  0  0  0
    6.9221  -13.7895   27.4858 C   0  0  0  0  0  0  0  0  0  0  0  0
    6.1509  -13.1541   26.5337 C   0  0  0  0  0  0  0  0  0  0  0  0
   10.9294  -17.3419   28.9742 O   0  0  0  0  0  0  0  0  0  0  0  0
  2  1  1  6
  2  3  1  0
  4  3  1  0
  4  8  1  0
  5  6  1  0
  5  4  2  0
  6  7  1  0
  7  8  2  0
  9  2  1  0
 10  9  2  0
 11 12  1  0
 13 12  1  6
 13 14  1  0
 14  9  1  0
 15 13  1  0
 15 24  1  0
 16 15  2  0
 18 17  1  0
 19 18  2  0
 20 19  1  0
 21 27  1  0
 21 20  2  0
 22 21  1  0
 23 22  1  1
 23 24  1  0
 23 25  1  0
 25 29  1  0
 26 25  2  0
 27 28  2  0
 28 18  1  0
M  END
$$$$
