HSY.pdb
     RDKit          3D

 29 30  0  0  1  0  0  0  0  0999 V2000
    7.0927  -16.8639   20.6744 N   0  0  0  0  0  0  0  0  0  0  0  0
    8.1314  -16.1982   21.4378 C   0  0  1  0  0  0  0  0  0  0  0  0
    7.5978  -14.7902   21.7312 C   0  0  0  0  0  0  0  0  0  0  0  0
    7.9600  -13.9189   20.5940 C   0  0  0  0  0  0  0  0  0  0  0  0
    8.6574  -14.3378   19.4632 C   0  0  0  0  0  0  0  0  0  0  0  0
    8.8003  -13.2737   18.6508 N   0  0  0  0  0  0  0  0  0  0  0  0
    8.2247  -12.2057   19.2193 C   0  0  0  0  0  0  0  0  0  0  0  0
    7.7166  -12.6112   20.4020 N   0  0  0  0  0  0  0  0  0  0  0  0
    8.3437  -16.8395   22.7565 C   0  0  0  0  0  0  0  0  0  0  0  0
    7.3661  -17.3927   23.3160 O   0  0  0  0  0  0  0  0  0  0  0  0
   11.8581  -17.9358   23.6122 O   0  0  0  0  0  0  0  0  0  0  0  0
   10.9542  -18.5587   24.4614 C   0  0  0  0  0  0  0  0  0  0  0  0
    9.8109  -17.5710   24.6773 C   0  0  2  0  0  0  0  0  0  0  0  0
    9.5940  -16.8636   23.4248 N   0  0  0  0  0  0  0  0  0  0  0  0
   10.3026  -16.5718   25.6595 C   0  0  0  0  0  0  0  0  0  0  0  0
   11.0212  -15.5889   25.3341 O   0  0  0  0  0  0  0  0  0  0  0  0
    5.7929  -12.4677   25.1411 O   0  0  0  0  0  0  0  0  0  0  0  0
    6.6500  -13.1254   26.0107 C   0  0  0  0  0  0  0  0  0  0  0  0
    7.7157  -12.4415   26.5617 C   0  0  0  0  0  0  0  0  0  0  0  0
    8.5552  -13.1378   27.4319 C   0  0  0  0  0  0  0  0  0  0  0  0
    8.3415  -14.4586   27.7394 C   0  0  0  0  0  0  0  0  0  0  0  0
    9.2560  -15.1440   28.6582 C   0  0  0  0  0  0  0  0  0  0  0  0
   10.4749  -15.7367   28.0055 C   0  0  2  0  0  0  0  0  0  0  0  0
    9.9650  -16.7057   27.0208 N   0  0  0  0  0  0  0  0  0  0  0  0
   11.3345  -16.5047   28.9284 C   0  0  0  0  0  0  0  0  0  0  0  0
   11.9046  -15.8953   29.8683 O   0  0  0  0  0  0  0  0  0  0  0  0
    7.2625  -15.0945   27.1615 C   0  0  0  0  0  0  0  0  0  0  0  0
    6.4019  -14.4519   26.2946 C   0  0  0  0  0  0  0  0  0  0  0  0
   11.5691  -17.8694   28.8419 O   0  0  0  0  0  0  0  0  0  0  0  0
  2  1  1  6
  2  3  1  0
  4  3  1  0
  4  8  1  0
  5  6  1  0
  5  4  2  0
  6  7  1  0
  7  8  2  0
  9  2  1  0
 10  9  2  0
 11 12  1  0
 13 12  1  6
 13 14  1  0
 14  9  1  0
 15 13  1  0
 15 24  1  0
 16 15  2  0
 18 17  1  0
 19 18  2  0
 20 19  1  0
 21 27  1  0
 21 20  2  0
 22 21  1  0
 23 22  1  1
 23 24  1  0
 23 25  1  0
 25 29  1  0
 26 25  2  0
 27 28  2  0
 28 18  1  0
M  END
$$$$
