HSY.pdb
     RDKit          3D

 29 30  0  0  1  0  0  0  0  0999 V2000
    9.9422  -17.4999   17.3293 N   0  0  0  0  0  0  0  0  0  0  0  0
    9.6265  -18.0535   18.6327 C   0  0  1  0  0  0  0  0  0  0  0  0
   10.9296  -18.6765   19.1494 C   0  0  0  0  0  0  0  0  0  0  0  0
   10.9978  -20.0674   18.6554 C   0  0  0  0  0  0  0  0  0  0  0  0
    9.9244  -20.9550   18.6308 C   0  0  0  0  0  0  0  0  0  0  0  0
   10.3653  -22.1190   18.1175 N   0  0  0  0  0  0  0  0  0  0  0  0
   11.6662  -22.0034   17.8185 C   0  0  0  0  0  0  0  0  0  0  0  0
   12.0398  -20.7498   18.1506 N   0  0  0  0  0  0  0  0  0  0  0  0
    9.2616  -16.9984   19.6066 C   0  0  0  0  0  0  0  0  0  0  0  0
   10.1671  -16.2433   20.0365 O   0  0  0  0  0  0  0  0  0  0  0  0
    5.6376  -17.0779   21.2241 O   0  0  0  0  0  0  0  0  0  0  0  0
    6.0957  -15.7680   21.2398 C   0  0  0  0  0  0  0  0  0  0  0  0
    7.6163  -15.8392   21.1320 C   0  0  2  0  0  0  0  0  0  0  0  0
    7.9419  -16.7925   20.0826 N   0  0  0  0  0  0  0  0  0  0  0  0
    8.0985  -16.4209   22.4103 C   0  0  0  0  0  0  0  0  0  0  0  0
    8.5655  -17.5882   22.4976 O   0  0  0  0  0  0  0  0  0  0  0  0
    5.1991  -11.3379   27.2379 O   0  0  0  0  0  0  0  0  0  0  0  0
    6.1698  -12.2403   26.8297 C   0  0  0  0  0  0  0  0  0  0  0  0
    6.8107  -12.0490   25.6215 C   0  0  0  0  0  0  0  0  0  0  0  0
    7.7812  -12.9785   25.2460 C   0  0  0  0  0  0  0  0  0  0  0  0
    8.0990  -14.0520   26.0404 C   0  0  0  0  0  0  0  0  0  0  0  0
    9.1254  -15.0008   25.5969 C   0  0  0  0  0  0  0  0  0  0  0  0
    8.5970  -16.1921   24.8454 C   0  0  2  0  0  0  0  0  0  0  0  0
    8.0423  -15.6550   23.5915 N   0  0  0  0  0  0  0  0  0  0  0  0
    7.4816  -16.8815   25.5243 C   0  0  0  0  0  0  0  0  0  0  0  0
    6.3079  -16.6557   25.1356 O   0  0  0  0  0  0  0  0  0  0  0  0
    7.4288  -14.1963   27.2372 C   0  0  0  0  0  0  0  0  0  0  0  0
    6.4607  -13.3058   27.6555 C   0  0  0  0  0  0  0  0  0  0  0  0
    7.6251  -17.7751   26.5760 O   0  0  0  0  0  0  0  0  0  0  0  0
  2  1  1  6
  2  3  1  0
  4  3  1  0
  4  8  1  0
  5  6  1  0
  5  4  2  0
  6  7  1  0
  7  8  2  0
  9  2  1  0
 10  9  2  0
 11 12  1  0
 13 12  1  1
 13 14  1  0
 14  9  1  0
 15 13  1  0
 15 24  1  0
 16 15  2  0
 18 17  1  0
 19 18  2  0
 20 19  1  0
 21 27  1  0
 21 20  2  0
 22 21  1  0
 23 22  1  1
 23 24  1  0
 23 25  1  0
 25 29  1  0
 26 25  2  0
 27 28  2  0
 28 18  1  0
M  END
$$$$
