HSY.pdb
     RDKit          3D

 29 30  0  0  1  0  0  0  0  0999 V2000
    9.4654  -18.4176   18.4887 N   0  0  0  0  0  0  0  0  0  0  0  0
   10.3951  -17.3792   18.8915 C   0  0  1  0  0  0  0  0  0  0  0  0
   10.7685  -16.6303   17.6058 C   0  0  0  0  0  0  0  0  0  0  0  0
   11.4479  -17.5832   16.7036 C   0  0  0  0  0  0  0  0  0  0  0  0
   10.8459  -18.2170   15.6190 C   0  0  0  0  0  0  0  0  0  0  0  0
   11.7702  -19.0056   15.0389 N   0  0  0  0  0  0  0  0  0  0  0  0
   12.9251  -18.8963   15.7092 C   0  0  0  0  0  0  0  0  0  0  0  0
   12.7162  -18.0274   16.7206 N   0  0  0  0  0  0  0  0  0  0  0  0
    9.7551  -16.3791   19.7777 C   0  0  0  0  0  0  0  0  0  0  0  0
   10.4191  -15.3696   20.1166 O   0  0  0  0  0  0  0  0  0  0  0  0
    6.0951  -17.1094   21.3296 O   0  0  0  0  0  0  0  0  0  0  0  0
    6.3365  -15.7496   21.1920 C   0  0  0  0  0  0  0  0  0  0  0  0
    7.8520  -15.5726   21.2286 C   0  0  2  0  0  0  0  0  0  0  0  0
    8.4295  -16.4985   20.2666 N   0  0  0  0  0  0  0  0  0  0  0  0
    8.2917  -16.0174   22.5754 C   0  0  0  0  0  0  0  0  0  0  0  0
    8.8793  -17.1141   22.7756 O   0  0  0  0  0  0  0  0  0  0  0  0
   10.6722  -15.3205   31.0135 O   0  0  0  0  0  0  0  0  0  0  0  0
   10.2698  -15.1061   29.7038 C   0  0  0  0  0  0  0  0  0  0  0  0
   10.6551  -15.9954   28.7201 C   0  0  0  0  0  0  0  0  0  0  0  0
   10.2302  -15.7454   27.4148 C   0  0  0  0  0  0  0  0  0  0  0  0
    9.4547  -14.6560   27.1038 C   0  0  0  0  0  0  0  0  0  0  0  0
    9.0375  -14.4387   25.7149 C   0  0  0  0  0  0  0  0  0  0  0  0
    8.4503  -15.6475   25.0388 C   0  0  2  0  0  0  0  0  0  0  0  0
    8.0533  -15.1956   23.6947 N   0  0  0  0  0  0  0  0  0  0  0  0
    7.2205  -16.1538   25.6804 C   0  0  0  0  0  0  0  0  0  0  0  0
    6.1218  -15.6224   25.3802 O   0  0  0  0  0  0  0  0  0  0  0  0
    9.0980  -13.7991   28.1240 C   0  0  0  0  0  0  0  0  0  0  0  0
    9.4916  -14.0007   29.4315 C   0  0  0  0  0  0  0  0  0  0  0  0
    7.1770  -17.1875   26.6048 O   0  0  0  0  0  0  0  0  0  0  0  0
  2  1  1  6
  2  3  1  0
  4  3  1  0
  4  8  1  0
  5  6  1  0
  5  4  2  0
  6  7  1  0
  7  8  2  0
  9  2  1  0
 10  9  2  0
 11 12  1  0
 13 12  1  1
 13 14  1  0
 14  9  1  0
 15 13  1  0
 15 24  1  0
 16 15  2  0
 18 17  1  0
 19 18  2  0
 20 19  1  0
 21 27  1  0
 21 20  2  0
 22 21  1  0
 23 22  1  1
 23 24  1  0
 23 25  1  0
 25 29  1  0
 26 25  2  0
 27 28  2  0
 28 18  1  0
M  END
$$$$
