IEY.pdb
     RDKit          3D

 30 30  0  0  1  0  0  0  0  0999 V2000
    6.8198  -11.8285   20.0480 C   0  0  0  0  0  0  0  0  0  0  0  0
    7.3937  -13.1654   19.7430 C   0  0  0  0  0  0  0  0  0  0  0  0
    7.8471  -13.9214   20.9799 C   0  0  2  0  0  0  0  0  0  0  0  0
    8.7823  -13.0664   21.7524 C   0  0  0  0  0  0  0  0  0  0  0  0
    8.4310  -15.2207   20.4710 C   0  0  2  0  0  0  0  0  0  0  0  0
    7.3125  -15.8568   19.7456 N   0  0  0  0  0  0  0  0  0  0  0  0
    8.9111  -16.1238   21.5092 C   0  0  0  0  0  0  0  0  0  0  0  0
    8.1089  -16.9205   22.0518 O   0  0  0  0  0  0  0  0  0  0  0  0
   10.2551  -16.1397   21.9319 N   0  0  0  0  0  0  0  0  0  0  0  0
   10.6833  -17.1597   22.8944 C   0  0  1  0  0  0  0  0  0  0  0  0
   12.0838  -17.5547   22.5749 C   0  0  0  0  0  0  0  0  0  0  0  0
   12.2405  -18.3024   21.2866 C   0  0  0  0  0  0  0  0  0  0  0  0
   13.4440  -19.1873   21.4944 C   0  0  0  0  0  0  0  0  0  0  0  0
   13.4024  -20.1105   22.3191 O   0  0  0  0  0  0  0  0  0  0  0  0
   10.4933  -16.6688   24.2705 C   0  0  0  0  0  0  0  0  0  0  0  0
   11.1114  -15.5999   24.6242 O   0  0  0  0  0  0  0  0  0  0  0  0
   14.5802  -18.9477   20.7569 O   0  0  0  0  0  0  0  0  0  0  0  0
    6.1907  -11.4260   25.5098 O   0  0  0  0  0  0  0  0  0  0  0  0
    6.6986  -12.6733   25.8827 C   0  0  0  0  0  0  0  0  0  0  0  0
    7.9425  -12.8646   26.4036 C   0  0  0  0  0  0  0  0  0  0  0  0
    8.3888  -14.1201   26.7522 C   0  0  0  0  0  0  0  0  0  0  0  0
    7.5933  -15.2270   26.5877 C   0  0  0  0  0  0  0  0  0  0  0  0
    8.1118  -16.5603   26.9501 C   0  0  0  0  0  0  0  0  0  0  0  0
    9.5904  -16.6396   26.6133 C   0  0  2  0  0  0  0  0  0  0  0  0
    9.6863  -17.2456   25.2703 N   0  0  0  0  0  0  0  0  0  0  0  0
   10.2732  -17.5117   27.5629 C   0  0  0  0  0  0  0  0  0  0  0  0
   10.5160  -17.1085   28.8741 O   0  0  0  0  0  0  0  0  0  0  0  0
    6.3351  -15.0483   26.0632 C   0  0  0  0  0  0  0  0  0  0  0  0
    5.8941  -13.7862   25.7149 C   0  0  0  0  0  0  0  0  0  0  0  0
   10.6605  -18.6435   27.2282 O   0  0  0  0  0  0  0  0  0  0  0  0
  2  1  1  0
  2  3  1  0
  3  5  1  0
  3  4  1  6
  5  6  1  1
  7  8  2  0
  7  5  1  0
  9  7  1  0
 10  9  1  0
 10 11  1  6
 12 13  1  0
 12 11  1  0
 13 14  2  0
 15 16  2  0
 15 10  1  0
 17 13  1  0
 18 19  1  0
 19 20  2  0
 20 21  1  0
 22 23  1  0
 22 21  2  0
 24 23  1  1
 24 25  1  0
 25 15  1  0
 26 24  1  0
 27 26  1  0
 28 22  1  0
 29 28  2  0
 29 19  1  0
 30 26  2  0
M  END
$$$$
