IEY.pdb
     RDKit          3D

 30 30  0  0  1  0  0  0  0  0999 V2000
    5.8214  -11.7519   26.6630 C   0  0  0  0  0  0  0  0  0  0  0  0
    5.6496  -13.0340   25.9306 C   0  0  0  0  0  0  0  0  0  0  0  0
    6.9574  -13.6168   25.4237 C   0  0  2  0  0  0  0  0  0  0  0  0
    7.5950  -12.6432   24.5029 C   0  0  0  0  0  0  0  0  0  0  0  0
    6.5962  -14.9491   24.8052 C   0  0  2  0  0  0  0  0  0  0  0  0
    5.8687  -15.6572   25.8782 N   0  0  0  0  0  0  0  0  0  0  0  0
    7.7337  -15.7540   24.3784 C   0  0  0  0  0  0  0  0  0  0  0  0
    8.4048  -16.3759   25.2360 O   0  0  0  0  0  0  0  0  0  0  0  0
    8.1138  -15.8645   23.0261 N   0  0  0  0  0  0  0  0  0  0  0  0
    9.1817  -16.8019   22.6644 C   0  0  1  0  0  0  0  0  0  0  0  0
    9.1275  -17.0377   21.1943 C   0  0  0  0  0  0  0  0  0  0  0  0
   10.4589  -17.0012   20.5092 C   0  0  0  0  0  0  0  0  0  0  0  0
   10.1588  -17.2925   19.0602 C   0  0  0  0  0  0  0  0  0  0  0  0
    9.4284  -18.2453   18.7555 O   0  0  0  0  0  0  0  0  0  0  0  0
   10.4802  -16.3014   23.1483 C   0  0  0  0  0  0  0  0  0  0  0  0
   10.9123  -15.1855   22.6817 O   0  0  0  0  0  0  0  0  0  0  0  0
   10.7111  -16.4863   18.0921 O   0  0  0  0  0  0  0  0  0  0  0  0
   11.0483  -16.2626   31.2526 O   0  0  0  0  0  0  0  0  0  0  0  0
   11.1229  -15.9514   29.8924 C   0  0  0  0  0  0  0  0  0  0  0  0
   11.7170  -14.8294   29.3990 C   0  0  0  0  0  0  0  0  0  0  0  0
   11.7588  -14.5758   28.0459 C   0  0  0  0  0  0  0  0  0  0  0  0
   11.2025  -15.4478   27.1430 C   0  0  0  0  0  0  0  0  0  0  0  0
   11.2448  -15.1335   25.7017 C   0  0  0  0  0  0  0  0  0  0  0  0
   12.1699  -16.1089   24.9955 C   0  0  2  0  0  0  0  0  0  0  0  0
   11.3244  -16.9159   24.0933 N   0  0  0  0  0  0  0  0  0  0  0  0
   12.7907  -17.0021   25.9678 C   0  0  0  0  0  0  0  0  0  0  0  0
   12.3954  -18.3327   26.0872 O   0  0  0  0  0  0  0  0  0  0  0  0
   10.5998  -16.5847   27.6272 C   0  0  0  0  0  0  0  0  0  0  0  0
   10.5608  -16.8324   28.9859 C   0  0  0  0  0  0  0  0  0  0  0  0
   13.6926  -16.6003   26.7214 O   0  0  0  0  0  0  0  0  0  0  0  0
  2  1  1  0
  2  3  1  0
  3  5  1  0
  3  4  1  6
  5  6  1  1
  7  8  2  0
  7  5  1  0
  9  7  1  0
 10  9  1  0
 10 11  1  6
 12 13  1  0
 12 11  1  0
 13 14  2  0
 15 16  2  0
 15 10  1  0
 17 13  1  0
 18 19  1  0
 19 20  2  0
 20 21  1  0
 22 23  1  0
 22 21  2  0
 24 23  1  1
 24 25  1  0
 25 15  1  0
 26 24  1  0
 27 26  1  0
 28 22  1  0
 29 28  2  0
 29 19  1  0
 30 26  2  0
M  END
$$$$
