IEY.pdb
     RDKit          3D

 30 30  0  0  1  0  0  0  0  0999 V2000
    7.0022  -11.9094   20.0567 C   0  0  0  0  0  0  0  0  0  0  0  0
    7.5021  -13.2939   19.8498 C   0  0  0  0  0  0  0  0  0  0  0  0
    7.7941  -14.0278   21.1471 C   0  0  2  0  0  0  0  0  0  0  0  0
    8.6805  -13.1864   21.9888 C   0  0  0  0  0  0  0  0  0  0  0  0
    8.3715  -15.3644   20.7370 C   0  0  2  0  0  0  0  0  0  0  0  0
    7.2909  -15.9968   19.9533 N   0  0  0  0  0  0  0  0  0  0  0  0
    8.7411  -16.2369   21.8443 C   0  0  0  0  0  0  0  0  0  0  0  0
    7.8451  -16.8536   22.4683 O   0  0  0  0  0  0  0  0  0  0  0  0
   10.0794  -16.4191   22.2461 N   0  0  0  0  0  0  0  0  0  0  0  0
   10.3773  -17.4004   23.2940 C   0  0  1  0  0  0  0  0  0  0  0  0
   11.6954  -18.0274   22.9953 C   0  0  0  0  0  0  0  0  0  0  0  0
   12.1274  -19.0673   23.9829 C   0  0  0  0  0  0  0  0  0  0  0  0
   13.4498  -19.5724   23.4625 C   0  0  0  0  0  0  0  0  0  0  0  0
   14.5097  -19.0914   23.8861 O   0  0  0  0  0  0  0  0  0  0  0  0
   10.2979  -16.7645   24.6207 C   0  0  0  0  0  0  0  0  0  0  0  0
   10.9181  -15.6540   24.7993 O   0  0  0  0  0  0  0  0  0  0  0  0
   13.4539  -20.5680   22.5134 O   0  0  0  0  0  0  0  0  0  0  0  0
    6.5008  -11.5452   25.0714 O   0  0  0  0  0  0  0  0  0  0  0  0
    6.9839  -12.6926   25.7061 C   0  0  0  0  0  0  0  0  0  0  0  0
    8.1127  -12.7238   26.4678 C   0  0  0  0  0  0  0  0  0  0  0  0
    8.5405  -13.8869   27.0688 C   0  0  0  0  0  0  0  0  0  0  0  0
    7.8419  -15.0598   26.9223 C   0  0  0  0  0  0  0  0  0  0  0  0
    8.3414  -16.2928   27.5612 C   0  0  0  0  0  0  0  0  0  0  0  0
    9.7448  -16.5907   27.0638 C   0  0  2  0  0  0  0  0  0  0  0  0
    9.5974  -17.2402   25.7460 N   0  0  0  0  0  0  0  0  0  0  0  0
   10.4075  -17.5250   27.9672 C   0  0  0  0  0  0  0  0  0  0  0  0
   10.7398  -17.1626   29.2708 O   0  0  0  0  0  0  0  0  0  0  0  0
    6.7004  -15.0426   26.1563 C   0  0  0  0  0  0  0  0  0  0  0  0
    6.2775  -13.8725   25.5556 C   0  0  0  0  0  0  0  0  0  0  0  0
   10.6970  -18.6754   27.5987 O   0  0  0  0  0  0  0  0  0  0  0  0
  2  1  1  0
  2  3  1  0
  3  5  1  0
  3  4  1  1
  5  6  1  6
  7  8  2  0
  7  5  1  0
  9  7  1  0
 10  9  1  0
 10 11  1  6
 12 13  1  0
 12 11  1  0
 13 14  2  0
 15 16  2  0
 15 10  1  0
 17 13  1  0
 18 19  1  0
 19 20  2  0
 20 21  1  0
 22 23  1  0
 22 21  2  0
 24 23  1  1
 24 25  1  0
 25 15  1  0
 26 24  1  0
 27 26  1  0
 28 22  1  0
 29 28  2  0
 29 19  1  0
 30 26  2  0
M  END
$$$$
