IEY.pdb
     RDKit          3D

 30 30  0  0  1  0  0  0  0  0999 V2000
    6.9916  -11.8414   19.8097 C   0  0  0  0  0  0  0  0  0  0  0  0
    7.2205  -13.2958   19.6050 C   0  0  0  0  0  0  0  0  0  0  0  0
    7.7150  -14.0080   20.8521 C   0  0  2  0  0  0  0  0  0  0  0  0
    8.9067  -13.2946   21.3749 C   0  0  0  0  0  0  0  0  0  0  0  0
    7.9531  -15.4420   20.4339 C   0  0  2  0  0  0  0  0  0  0  0  0
    6.6133  -15.9306   20.0487 N   0  0  0  0  0  0  0  0  0  0  0  0
    8.5005  -16.3006   21.4766 C   0  0  0  0  0  0  0  0  0  0  0  0
    7.7204  -16.9573   22.2065 O   0  0  0  0  0  0  0  0  0  0  0  0
    9.8862  -16.4255   21.6998 N   0  0  0  0  0  0  0  0  0  0  0  0
   10.3605  -17.4089   22.6786 C   0  0  1  0  0  0  0  0  0  0  0  0
   11.7561  -17.7932   22.3263 C   0  0  0  0  0  0  0  0  0  0  0  0
   12.3972  -18.7517   23.2820 C   0  0  0  0  0  0  0  0  0  0  0  0
   13.7307  -19.0860   22.6618 C   0  0  0  0  0  0  0  0  0  0  0  0
   13.8623  -20.1166   21.9874 O   0  0  0  0  0  0  0  0  0  0  0  0
   10.2066  -16.8786   24.0445 C   0  0  0  0  0  0  0  0  0  0  0  0
   10.8784  -15.8329   24.3686 O   0  0  0  0  0  0  0  0  0  0  0  0
   14.7895  -18.2308   22.8614 O   0  0  0  0  0  0  0  0  0  0  0  0
    7.1756  -10.9849   25.9113 O   0  0  0  0  0  0  0  0  0  0  0  0
    7.3576  -12.3528   26.1315 C   0  0  0  0  0  0  0  0  0  0  0  0
    6.3736  -13.2843   25.9929 C   0  0  0  0  0  0  0  0  0  0  0  0
    6.6131  -14.6206   26.2250 C   0  0  0  0  0  0  0  0  0  0  0  0
    7.8561  -15.0632   26.6046 C   0  0  0  0  0  0  0  0  0  0  0  0
    8.0719  -16.4993   26.8677 C   0  0  0  0  0  0  0  0  0  0  0  0
    9.4785  -16.8875   26.4475 C   0  0  2  0  0  0  0  0  0  0  0  0
    9.3820  -17.3932   25.0637 N   0  0  0  0  0  0  0  0  0  0  0  0
    9.9752  -17.9634   27.2984 C   0  0  0  0  0  0  0  0  0  0  0  0
   10.4352  -17.7143   28.5897 O   0  0  0  0  0  0  0  0  0  0  0  0
    8.8588  -14.1337   26.7481 C   0  0  0  0  0  0  0  0  0  0  0  0
    8.6114  -12.7947   26.5144 C   0  0  0  0  0  0  0  0  0  0  0  0
   10.0037  -19.1376   26.8943 O   0  0  0  0  0  0  0  0  0  0  0  0
  2  1  1  0
  2  3  1  0
  3  5  1  0
  3  4  1  6
  5  6  1  1
  7  8  2  0
  7  5  1  0
  9  7  1  0
 10  9  1  0
 10 11  1  6
 12 13  1  0
 12 11  1  0
 13 14  2  0
 15 16  2  0
 15 10  1  0
 17 13  1  0
 18 19  1  0
 19 20  2  0
 20 21  1  0
 22 23  1  0
 22 21  2  0
 24 23  1  1
 24 25  1  0
 25 15  1  0
 26 24  1  0
 27 26  1  0
 28 22  1  0
 29 28  2  0
 29 19  1  0
 30 26  2  0
M  END
$$$$
