IEY.pdb
     RDKit          3D

 30 30  0  0  1  0  0  0  0  0999 V2000
    7.0812  -11.7849   19.5340 C   0  0  0  0  0  0  0  0  0  0  0  0
    7.5911  -13.1536   19.2577 C   0  0  0  0  0  0  0  0  0  0  0  0
    7.9113  -13.9412   20.5163 C   0  0  2  0  0  0  0  0  0  0  0  0
    8.8084  -13.1313   21.3775 C   0  0  0  0  0  0  0  0  0  0  0  0
    8.4888  -15.2549   20.0380 C   0  0  2  0  0  0  0  0  0  0  0  0
    7.3853  -15.8760   19.2773 N   0  0  0  0  0  0  0  0  0  0  0  0
    8.9145  -16.1586   21.0991 C   0  0  0  0  0  0  0  0  0  0  0  0
    8.0694  -16.9035   21.6500 O   0  0  0  0  0  0  0  0  0  0  0  0
   10.2524  -16.2317   21.5353 N   0  0  0  0  0  0  0  0  0  0  0  0
   10.6095  -17.2126   22.5650 C   0  0  1  0  0  0  0  0  0  0  0  0
   12.0289  -17.6172   22.3622 C   0  0  0  0  0  0  0  0  0  0  0  0
   12.5500  -18.5874   23.3773 C   0  0  0  0  0  0  0  0  0  0  0  0
   13.9835  -18.8347   22.9790 C   0  0  0  0  0  0  0  0  0  0  0  0
   14.3485  -19.9691   22.6412 O   0  0  0  0  0  0  0  0  0  0  0  0
   10.3220  -16.6688   23.9038 C   0  0  0  0  0  0  0  0  0  0  0  0
   10.7632  -15.4971   24.1903 O   0  0  0  0  0  0  0  0  0  0  0  0
   14.8702  -17.7832   23.0013 O   0  0  0  0  0  0  0  0  0  0  0  0
    5.9031  -11.2923   25.6295 O   0  0  0  0  0  0  0  0  0  0  0  0
    6.4054  -12.5815   25.8250 C   0  0  0  0  0  0  0  0  0  0  0  0
    7.6833  -12.8507   26.2119 C   0  0  0  0  0  0  0  0  0  0  0  0
    8.1220  -14.1443   26.3880 C   0  0  0  0  0  0  0  0  0  0  0  0
    7.2843  -15.2121   26.1803 C   0  0  0  0  0  0  0  0  0  0  0  0
    7.7939  -16.5860   26.3556 C   0  0  0  0  0  0  0  0  0  0  0  0
    9.3042  -16.5921   26.1979 C   0  0  2  0  0  0  0  0  0  0  0  0
    9.5945  -17.2968   24.9332 N   0  0  0  0  0  0  0  0  0  0  0  0
    9.9180  -17.3365   27.2922 C   0  0  0  0  0  0  0  0  0  0  0  0
   10.7112  -18.4566   27.0534 O   0  0  0  0  0  0  0  0  0  0  0  0
    5.9915  -14.9549   25.7897 C   0  0  0  0  0  0  0  0  0  0  0  0
    5.5583  -13.6548   25.6142 C   0  0  0  0  0  0  0  0  0  0  0  0
    9.7497  -16.9924   28.4739 O   0  0  0  0  0  0  0  0  0  0  0  0
  2  1  1  0
  2  3  1  0
  3  5  1  0
  3  4  1  1
  5  6  1  1
  7  8  2  0
  7  5  1  0
  9  7  1  0
 10  9  1  0
 10 11  1  1
 12 13  1  0
 12 11  1  0
 13 14  2  0
 15 16  2  0
 15 10  1  0
 17 13  1  0
 18 19  1  0
 19 20  2  0
 20 21  1  0
 22 23  1  0
 22 21  2  0
 24 23  1  1
 24 25  1  0
 25 15  1  0
 26 24  1  0
 27 26  1  0
 28 22  1  0
 29 28  2  0
 29 19  1  0
 30 26  2  0
M  END
$$$$
