IEY.pdb
     RDKit          3D

 30 30  0  0  1  0  0  0  0  0999 V2000
    8.1127  -12.1916   18.8971 C   0  0  0  0  0  0  0  0  0  0  0  0
    7.2100  -13.3256   19.2273 C   0  0  0  0  0  0  0  0  0  0  0  0
    7.7766  -14.2568   20.2849 C   0  0  2  0  0  0  0  0  0  0  0  0
    8.5240  -13.4541   21.2846 C   0  0  0  0  0  0  0  0  0  0  0  0
    8.6002  -15.2765   19.5298 C   0  0  2  0  0  0  0  0  0  0  0  0
    7.6394  -15.8880   18.5891 N   0  0  0  0  0  0  0  0  0  0  0  0
    9.1958  -16.3168   20.3586 C   0  0  0  0  0  0  0  0  0  0  0  0
    8.4667  -16.9783   21.1355 O   0  0  0  0  0  0  0  0  0  0  0  0
   10.5726  -16.6143   20.3211 N   0  0  0  0  0  0  0  0  0  0  0  0
   11.1082  -17.6096   21.2553 C   0  0  1  0  0  0  0  0  0  0  0  0
   12.3631  -18.1712   20.6814 C   0  0  0  0  0  0  0  0  0  0  0  0
   12.6368  -17.7633   19.2664 C   0  0  0  0  0  0  0  0  0  0  0  0
   13.1408  -19.0143   18.5915 C   0  0  0  0  0  0  0  0  0  0  0  0
   14.3306  -19.3421   18.6974 O   0  0  0  0  0  0  0  0  0  0  0  0
   11.2699  -17.0132   22.5928 C   0  0  0  0  0  0  0  0  0  0  0  0
   11.9705  -15.9419   22.6987 O   0  0  0  0  0  0  0  0  0  0  0  0
   12.2594  -19.7757   17.8597 O   0  0  0  0  0  0  0  0  0  0  0  0
   10.4620  -13.7575   30.6065 O   0  0  0  0  0  0  0  0  0  0  0  0
   10.3089  -14.2366   29.3028 C   0  0  0  0  0  0  0  0  0  0  0  0
    9.2591  -13.9220   28.4939 C   0  0  0  0  0  0  0  0  0  0  0  0
    9.1619  -14.4265   27.2161 C   0  0  0  0  0  0  0  0  0  0  0  0
   10.1229  -15.2663   26.7098 C   0  0  0  0  0  0  0  0  0  0  0  0
    9.9754  -15.8072   25.3446 C   0  0  0  0  0  0  0  0  0  0  0  0
   11.0556  -16.8434   25.0888 C   0  0  2  0  0  0  0  0  0  0  0  0
   10.7265  -17.4884   23.8020 N   0  0  0  0  0  0  0  0  0  0  0  0
   11.0303  -17.8603   26.1345 C   0  0  0  0  0  0  0  0  0  0  0  0
   10.4862  -19.1225   25.9068 O   0  0  0  0  0  0  0  0  0  0  0  0
   11.1883  -15.5920   27.5154 C   0  0  0  0  0  0  0  0  0  0  0  0
   11.2791  -15.0829   28.7965 C   0  0  0  0  0  0  0  0  0  0  0  0
   11.4941  -17.6292   27.2634 O   0  0  0  0  0  0  0  0  0  0  0  0
  2  1  1  0
  2  3  1  0
  3  5  1  0
  3  4  1  1
  5  6  1  6
  7  8  2  0
  7  5  1  0
  9  7  1  0
 10  9  1  0
 10 11  1  6
 12 13  1  0
 12 11  1  0
 13 14  2  0
 15 16  2  0
 15 10  1  0
 17 13  1  0
 18 19  1  0
 19 20  2  0
 20 21  1  0
 22 23  1  0
 22 21  2  0
 24 23  1  1
 24 25  1  0
 25 15  1  0
 26 24  1  0
 27 26  1  0
 28 22  1  0
 29 28  2  0
 29 19  1  0
 30 26  2  0
M  END
$$$$
