PHQ.pdb
     RDKit          3D

 27 28  0  0  1  0  0  0  0  0999 V2000
   32.5534  -37.2279   -3.4532 N   0  0  0  0  0  0  0  0  0  0  0  0
   33.1141  -37.1751   -4.7810 C   0  0  0  0  0  0  0  0  0  0  0  0
   34.2564  -36.1763   -4.7115 C   0  0  0  0  0  0  0  0  0  0  0  0
   33.9314  -35.2787   -3.5538 C   0  0  0  0  0  0  0  0  0  0  0  0
   32.9734  -36.0741   -2.7349 C   0  0  1  0  0  0  0  0  0  0  0  0
   31.7960  -35.2532   -2.2726 C   0  0  0  0  0  0  0  0  0  0  0  0
   32.0904  -34.1616   -1.7605 O   0  0  0  0  0  0  0  0  0  0  0  0
   30.5044  -35.7249   -2.4298 N   0  0  0  0  0  0  0  0  0  0  0  0
   29.2994  -35.0780   -2.0967 C   0  0  1  0  0  0  0  0  0  0  0  0
   28.1562  -35.4575   -3.0337 C   0  0  0  0  0  0  0  0  0  0  0  0
   28.4230  -34.9762   -4.4061 C   0  0  0  0  0  0  0  0  0  0  0  0
   29.5467  -34.3142   -4.8449 C   0  0  0  0  0  0  0  0  0  0  0  0
   29.3745  -34.0647   -6.1529 N   0  0  0  0  0  0  0  0  0  0  0  0
   28.1792  -34.5454   -6.5617 C   0  0  0  0  0  0  0  0  0  0  0  0
   27.6184  -35.0946   -5.4851 N   0  0  0  0  0  0  0  0  0  0  0  0
   28.9768  -35.1934   -0.6853 C   0  0  0  0  0  0  0  0  0  0  0  0
   29.2495  -36.2785   -0.0690 O   0  0  0  0  0  0  0  0  0  0  0  0
   30.2275  -31.3450    3.4946 N   0  0  0  0  0  0  0  0  0  0  0  0
   29.3040  -32.0661    4.2827 C   0  0  0  0  0  0  0  0  0  0  0  0
   29.1775  -31.7822    5.5211 O   0  0  0  0  0  0  0  0  0  0  0  0
   28.4991  -33.1320    3.6485 C   0  0  0  0  0  0  0  0  0  0  0  0
   28.7173  -33.2563    2.1876 C   0  0  0  0  0  0  0  0  0  0  0  0
   27.9596  -34.2931    1.4525 C   0  0  2  0  0  0  0  0  0  0  0  0
   28.3741  -34.1614    0.0419 N   0  0  0  0  0  0  0  0  0  0  0  0
   26.5268  -34.3891    1.5963 C   0  0  0  0  0  0  0  0  0  0  0  0
   25.7698  -34.0125    0.6485 O   0  0  0  0  0  0  0  0  0  0  0  0
   25.9076  -34.8934    2.7467 O   0  0  0  0  0  0  0  0  0  0  0  0
  2  1  1  0
  3  4  1  0
  3  2  1  0
  4  5  1  0
  5  6  1  6
  5  1  1  0
  6  8  1  0
  7  6  2  0
  8  9  1  0
  9 10  1  6
 10 11  1  0
 11 12  2  0
 11 15  1  0
 12 13  1  0
 13 14  1  0
 15 14  2  0
 16  9  1  0
 16 17  2  0
 18 19  1  0
 19 21  1  0
 20 19  2  0
 21 22  1  0
 23 24  1  0
 23 22  1  1
 24 16  1  0
 25 23  1  0
 26 25  2  0
 27 25  1  0
M  END
$$$$
