PHQ.pdb
     RDKit          3D

 27 28  0  0  1  0  0  0  0  0999 V2000
   24.6944  -12.1702  -15.2518 N   0  0  0  0  0  0  0  0  0  0  0  0
   24.6894  -13.6125  -15.2665 C   0  0  0  0  0  0  0  0  0  0  0  0
   24.8096  -14.0148  -16.7263 C   0  0  0  0  0  0  0  0  0  0  0  0
   24.2842  -12.8457  -17.5066 C   0  0  0  0  0  0  0  0  0  0  0  0
   24.3875  -11.7001  -16.5589 C   0  0  1  0  0  0  0  0  0  0  0  0
   23.1471  -10.8427  -16.5596 C   0  0  0  0  0  0  0  0  0  0  0  0
   22.8330  -10.3811  -17.6681 O   0  0  0  0  0  0  0  0  0  0  0  0
   22.4469  -10.6173  -15.3872 N   0  0  0  0  0  0  0  0  0  0  0  0
   21.2727   -9.8613  -15.2113 C   0  0  1  0  0  0  0  0  0  0  0  0
   20.2432  -10.5782  -14.3423 C   0  0  0  0  0  0  0  0  0  0  0  0
   19.6573  -11.7271  -15.0653 C   0  0  0  0  0  0  0  0  0  0  0  0
   18.7185  -11.6782  -16.0703 C   0  0  0  0  0  0  0  0  0  0  0  0
   18.4690  -12.9441  -16.4419 N   0  0  0  0  0  0  0  0  0  0  0  0
   19.2172  -13.7973  -15.7075 C   0  0  0  0  0  0  0  0  0  0  0  0
   19.9310  -13.0369  -14.8783 N   0  0  0  0  0  0  0  0  0  0  0  0
   21.5460   -8.4936  -14.8063 C   0  0  0  0  0  0  0  0  0  0  0  0
   22.4286   -8.2723  -13.9099 O   0  0  0  0  0  0  0  0  0  0  0  0
   22.9106   -4.4228  -18.5690 N   0  0  0  0  0  0  0  0  0  0  0  0
   22.7996   -3.5209  -17.4882 C   0  0  0  0  0  0  0  0  0  0  0  0
   23.1375   -2.3003  -17.6505 O   0  0  0  0  0  0  0  0  0  0  0  0
   22.2868   -4.0146  -16.1923 C   0  0  0  0  0  0  0  0  0  0  0  0
   21.8682   -5.4364  -16.2180 C   0  0  0  0  0  0  0  0  0  0  0  0
   21.2054   -5.9926  -15.0177 C   0  0  2  0  0  0  0  0  0  0  0  0
   20.8816   -7.3924  -15.3567 N   0  0  0  0  0  0  0  0  0  0  0  0
   20.0908   -5.3027  -14.4141 C   0  0  0  0  0  0  0  0  0  0  0  0
   20.2832   -4.2098  -13.7964 O   0  0  0  0  0  0  0  0  0  0  0  0
   18.7747   -5.7771  -14.4784 O   0  0  0  0  0  0  0  0  0  0  0  0
  2  1  1  0
  3  4  1  0
  3  2  1  0
  4  5  1  0
  5  6  1  1
  5  1  1  0
  6  8  1  0
  7  6  2  0
  8  9  1  0
  9 10  1  1
 10 11  1  0
 11 12  2  0
 11 15  1  0
 12 13  1  0
 13 14  1  0
 15 14  2  0
 16  9  1  0
 16 17  2  0
 18 19  1  0
 19 21  1  0
 20 19  2  0
 21 22  1  0
 23 24  1  0
 23 22  1  6
 24 16  1  0
 25 23  1  0
 26 25  2  0
 27 25  1  0
M  END
$$$$
