PHQ.pdb
     RDKit          3D

 27 28  0  0  1  0  0  0  0  0999 V2000
   18.7819  -12.8580  -17.2769 N   0  0  0  0  0  0  0  0  0  0  0  0
   19.0648  -14.2696  -17.1878 C   0  0  0  0  0  0  0  0  0  0  0  0
   18.8122  -14.6546  -15.7403 C   0  0  0  0  0  0  0  0  0  0  0  0
   18.9804  -13.3868  -14.9554 C   0  0  0  0  0  0  0  0  0  0  0  0
   18.7966  -12.3067  -15.9656 C   0  0  1  0  0  0  0  0  0  0  0  0
   19.8331  -11.2191  -15.8362 C   0  0  0  0  0  0  0  0  0  0  0  0
   19.8857  -10.6792  -14.7198 O   0  0  0  0  0  0  0  0  0  0  0  0
   20.6402  -10.8849  -16.9097 N   0  0  0  0  0  0  0  0  0  0  0  0
   21.6412   -9.8969  -16.9663 C   0  0  1  0  0  0  0  0  0  0  0  0
   22.8718  -10.3584  -17.7419 C   0  0  0  0  0  0  0  0  0  0  0  0
   23.8944   -9.2914  -17.7836 C   0  0  0  0  0  0  0  0  0  0  0  0
   24.2552   -8.5359  -18.8757 C   0  0  0  0  0  0  0  0  0  0  0  0
   25.2156   -7.6889  -18.4722 N   0  0  0  0  0  0  0  0  0  0  0  0
   25.4786   -7.8794  -17.1601 C   0  0  0  0  0  0  0  0  0  0  0  0
   24.6652   -8.8569  -16.7624 N   0  0  0  0  0  0  0  0  0  0  0  0
   21.1252   -8.6042  -17.3811 C   0  0  0  0  0  0  0  0  0  0  0  0
   20.4370   -8.5214  -18.4540 O   0  0  0  0  0  0  0  0  0  0  0  0
   17.3670   -5.3039  -14.9559 N   0  0  0  0  0  0  0  0  0  0  0  0
   17.8041   -4.2734  -15.8169 C   0  0  0  0  0  0  0  0  0  0  0  0
   17.1278   -3.1936  -15.8993 O   0  0  0  0  0  0  0  0  0  0  0  0
   19.0429   -4.4705  -16.5996 C   0  0  0  0  0  0  0  0  0  0  0  0
   19.6647   -5.8025  -16.4086 C   0  0  0  0  0  0  0  0  0  0  0  0
   20.9301   -6.0925  -17.1187 C   0  0  2  0  0  0  0  0  0  0  0  0
   21.3477   -7.4299  -16.6540 N   0  0  0  0  0  0  0  0  0  0  0  0
   22.0145   -5.1405  -17.0952 C   0  0  0  0  0  0  0  0  0  0  0  0
   23.1032   -5.4369  -16.5121 O   0  0  0  0  0  0  0  0  0  0  0  0
   21.9362   -3.8799  -17.7001 O   0  0  0  0  0  0  0  0  0  0  0  0
  2  1  1  0
  3  4  1  0
  3  2  1  0
  4  5  1  0
  5  6  1  6
  5  1  1  0
  6  8  1  0
  7  6  2  0
  8  9  1  0
  9 10  1  6
 10 11  1  0
 11 12  2  0
 11 15  1  0
 12 13  1  0
 13 14  1  0
 15 14  2  0
 16  9  1  0
 16 17  2  0
 18 19  1  0
 19 21  1  0
 20 19  2  0
 21 22  1  0
 23 24  1  0
 23 22  1  1
 24 16  1  0
 25 23  1  0
 26 25  2  0
 27 25  1  0
M  END
$$$$
