PHQ.pdb
     RDKit          3D

 27 28  0  0  1  0  0  0  0  0999 V2000
   28.1426  -19.3513  -17.2289 N   0  0  0  0  0  0  0  0  0  0  0  0
   28.2653  -18.6953  -18.5076 C   0  0  0  0  0  0  0  0  0  0  0  0
   28.8348  -17.3177  -18.2162 C   0  0  0  0  0  0  0  0  0  0  0  0
   28.4586  -17.0234  -16.7937 C   0  0  0  0  0  0  0  0  0  0  0  0
   28.1863  -18.3650  -16.2047 C   0  0  1  0  0  0  0  0  0  0  0  0
   26.9301  -18.3800  -15.3706 C   0  0  0  0  0  0  0  0  0  0  0  0
   26.9001  -17.5392  -14.4581 O   0  0  0  0  0  0  0  0  0  0  0  0
   25.9162  -19.2823  -15.6417 N   0  0  0  0  0  0  0  0  0  0  0  0
   24.6635  -19.3933  -15.0095 C   0  0  1  0  0  0  0  0  0  0  0  0
   23.5313  -19.6473  -16.0007 C   0  0  0  0  0  0  0  0  0  0  0  0
   22.2252  -19.6707  -15.3082 C   0  0  0  0  0  0  0  0  0  0  0  0
   21.4684  -20.7808  -15.0105 C   0  0  0  0  0  0  0  0  0  0  0  0
   20.3631  -20.3502  -14.3816 N   0  0  0  0  0  0  0  0  0  0  0  0
   20.3905  -19.0035  -14.2687 C   0  0  0  0  0  0  0  0  0  0  0  0
   21.5297  -18.6120  -14.8379 N   0  0  0  0  0  0  0  0  0  0  0  0
   24.6871  -20.3102  -13.8834 C   0  0  0  0  0  0  0  0  0  0  0  0
   25.2150  -21.4642  -14.0286 O   0  0  0  0  0  0  0  0  0  0  0  0
   26.4288  -18.8543   -8.5374 N   0  0  0  0  0  0  0  0  0  0  0  0
   26.1789  -20.2174   -8.2665 C   0  0  0  0  0  0  0  0  0  0  0  0
   26.6028  -20.7299   -7.1765 O   0  0  0  0  0  0  0  0  0  0  0  0
   25.4240  -21.0180   -9.2542 C   0  0  0  0  0  0  0  0  0  0  0  0
   25.1465  -20.2981  -10.5198 C   0  0  0  0  0  0  0  0  0  0  0  0
   24.1867  -20.9003  -11.4715 C   0  0  2  0  0  0  0  0  0  0  0  0
   24.1531  -19.9876  -12.6312 N   0  0  0  0  0  0  0  0  0  0  0  0
   22.8649  -21.2788  -11.0332 C   0  0  0  0  0  0  0  0  0  0  0  0
   21.8613  -20.5790  -11.3740 O   0  0  0  0  0  0  0  0  0  0  0  0
   22.6179  -22.4063  -10.2400 O   0  0  0  0  0  0  0  0  0  0  0  0
  2  1  1  0
  3  4  1  0
  3  2  1  0
  4  5  1  0
  5  6  1  6
  5  1  1  0
  6  8  1  0
  7  6  2  0
  8  9  1  0
  9 10  1  6
 10 11  1  0
 11 12  2  0
 11 15  1  0
 12 13  1  0
 13 14  1  0
 15 14  2  0
 16  9  1  0
 16 17  2  0
 18 19  1  0
 19 21  1  0
 20 19  2  0
 21 22  1  0
 23 24  1  0
 23 22  1  1
 24 16  1  0
 25 23  1  0
 26 25  2  0
 27 25  1  0
M  END
$$$$
