PHQ.pdb
     RDKit          3D

 27 28  0  0  1  0  0  0  0  0999 V2000
   21.2181  -31.2245  -11.5414 N   0  0  0  0  0  0  0  0  0  0  0  0
   21.0500  -31.0699  -12.9655 C   0  0  0  0  0  0  0  0  0  0  0  0
   20.3778  -32.3443  -13.4465 C   0  0  0  0  0  0  0  0  0  0  0  0
   20.7270  -33.3885  -12.4270 C   0  0  0  0  0  0  0  0  0  0  0  0
   21.0977  -32.6040  -11.2154 C   0  0  1  0  0  0  0  0  0  0  0  0
   22.3492  -33.1261  -10.5558 C   0  0  0  0  0  0  0  0  0  0  0  0
   22.3163  -34.3298  -10.2544 O   0  0  0  0  0  0  0  0  0  0  0  0
   23.4256  -32.2873  -10.3256 N   0  0  0  0  0  0  0  0  0  0  0  0
   24.6347  -32.5893   -9.6712 C   0  0  1  0  0  0  0  0  0  0  0  0
   25.8472  -32.0003  -10.3867 C   0  0  0  0  0  0  0  0  0  0  0  0
   26.1627  -32.7750  -11.6058 C   0  0  0  0  0  0  0  0  0  0  0  0
   25.5572  -33.9375  -12.0249 C   0  0  0  0  0  0  0  0  0  0  0  0
   26.1477  -34.2999  -13.1750 N   0  0  0  0  0  0  0  0  0  0  0  0
   27.1086  -33.4075  -13.5024 C   0  0  0  0  0  0  0  0  0  0  0  0
   27.1004  -32.4903  -12.5360 N   0  0  0  0  0  0  0  0  0  0  0  0
   24.5848  -32.3028   -8.2482 C   0  0  0  0  0  0  0  0  0  0  0  0
   24.2379  -31.1372   -7.8577 O   0  0  0  0  0  0  0  0  0  0  0  0
   20.4098  -33.7076   -5.5877 N   0  0  0  0  0  0  0  0  0  0  0  0
   21.0483  -33.3462   -4.3811 C   0  0  0  0  0  0  0  0  0  0  0  0
   20.3649  -33.2740   -3.3050 O   0  0  0  0  0  0  0  0  0  0  0  0
   22.4999  -33.0654   -4.3945 C   0  0  0  0  0  0  0  0  0  0  0  0
   23.1193  -33.1853   -5.7359 C   0  0  0  0  0  0  0  0  0  0  0  0
   24.5918  -33.0828   -5.8384 C   0  0  2  0  0  0  0  0  0  0  0  0
   24.9020  -33.2529   -7.2716 N   0  0  0  0  0  0  0  0  0  0  0  0
   25.4399  -33.8898   -4.9944 C   0  0  0  0  0  0  0  0  0  0  0  0
   25.9826  -34.9387   -5.4617 O   0  0  0  0  0  0  0  0  0  0  0  0
   25.7119  -33.5707   -3.6582 O   0  0  0  0  0  0  0  0  0  0  0  0
  2  1  1  0
  3  4  1  0
  3  2  1  0
  4  5  1  0
  5  6  1  6
  5  1  1  0
  6  8  1  0
  7  6  2  0
  8  9  1  0
  9 10  1  6
 10 11  1  0
 11 12  2  0
 11 15  1  0
 12 13  1  0
 13 14  1  0
 15 14  2  0
 16  9  1  0
 16 17  2  0
 18 19  1  0
 19 21  1  0
 20 19  2  0
 21 22  1  0
 23 24  1  0
 23 22  1  6
 24 16  1  0
 25 23  1  0
 26 25  2  0
 27 25  1  0
M  END
$$$$
