PHQ.pdb
     RDKit          3D

 27 28  0  0  1  0  0  0  0  0999 V2000
   27.0949  -20.5406  -15.8493 N   0  0  0  0  0  0  0  0  0  0  0  0
   27.8549  -20.3477  -17.0600 C   0  0  0  0  0  0  0  0  0  0  0  0
   28.6539  -19.0728  -16.8517 C   0  0  0  0  0  0  0  0  0  0  0  0
   27.8927  -18.2886  -15.8235 C   0  0  0  0  0  0  0  0  0  0  0  0
   27.0501  -19.3092  -15.1384 C   0  0  1  0  0  0  0  0  0  0  0  0
   25.6313  -18.8395  -14.9378 C   0  0  0  0  0  0  0  0  0  0  0  0
   25.5190  -17.7684  -14.3208 O   0  0  0  0  0  0  0  0  0  0  0  0
   24.5690  -19.5818  -15.4236 N   0  0  0  0  0  0  0  0  0  0  0  0
   23.1932  -19.3186  -15.2852 C   0  0  1  0  0  0  0  0  0  0  0  0
   22.5092  -19.0735  -16.6272 C   0  0  0  0  0  0  0  0  0  0  0  0
   23.0728  -17.8788  -17.2913 C   0  0  0  0  0  0  0  0  0  0  0  0
   24.3294  -17.7539  -17.8382 C   0  0  0  0  0  0  0  0  0  0  0  0
   24.4243  -16.5099  -18.3341 N   0  0  0  0  0  0  0  0  0  0  0  0
   23.2707  -15.8383  -18.1214 C   0  0  0  0  0  0  0  0  0  0  0  0
   22.4644  -16.6884  -17.4870 N   0  0  0  0  0  0  0  0  0  0  0  0
   22.5216  -20.2925  -14.4427 C   0  0  0  0  0  0  0  0  0  0  0  0
   22.6048  -21.5333  -14.7342 O   0  0  0  0  0  0  0  0  0  0  0  0
   23.1431  -20.8980   -8.6491 N   0  0  0  0  0  0  0  0  0  0  0  0
   23.9652  -21.1383   -9.7718 C   0  0  0  0  0  0  0  0  0  0  0  0
   25.2091  -21.3710   -9.6022 O   0  0  0  0  0  0  0  0  0  0  0  0
   23.3596  -21.1201  -11.1207 C   0  0  0  0  0  0  0  0  0  0  0  0
   21.9156  -20.7853  -11.1227 C   0  0  0  0  0  0  0  0  0  0  0  0
   21.1690  -20.9150  -12.3936 C   0  0  2  0  0  0  0  0  0  0  0  0
   21.7784  -19.9339  -13.3131 N   0  0  0  0  0  0  0  0  0  0  0  0
   19.7272  -20.8526  -12.4024 C   0  0  0  0  0  0  0  0  0  0  0  0
   19.0482  -21.9257  -12.4247 O   0  0  0  0  0  0  0  0  0  0  0  0
   19.0157  -19.6466  -12.3796 O   0  0  0  0  0  0  0  0  0  0  0  0
  2  1  1  0
  3  4  1  0
  3  2  1  0
  4  5  1  0
  5  6  1  6
  5  1  1  0
  6  8  1  0
  7  6  2  0
  8  9  1  0
  9 10  1  6
 10 11  1  0
 11 12  2  0
 11 15  1  0
 12 13  1  0
 13 14  1  0
 15 14  2  0
 16  9  1  0
 16 17  2  0
 18 19  1  0
 19 21  1  0
 20 19  2  0
 21 22  1  0
 23 24  1  0
 23 22  1  1
 24 16  1  0
 25 23  1  0
 26 25  2  0
 27 25  1  0
M  END
$$$$
