PHQ.pdb
     RDKit          3D

 27 28  0  0  1  0  0  0  0  0999 V2000
   26.4411  -21.0064  -13.1518 N   0  0  0  0  0  0  0  0  0  0  0  0
   27.7312  -21.4383  -13.6308 C   0  0  0  0  0  0  0  0  0  0  0  0
   28.6311  -20.2165  -13.5635 C   0  0  0  0  0  0  0  0  0  0  0  0
   27.7066  -19.0364  -13.6271 C   0  0  0  0  0  0  0  0  0  0  0  0
   26.3861  -19.5860  -13.2086 C   0  0  1  0  0  0  0  0  0  0  0  0
   25.2617  -19.1126  -14.0949 C   0  0  0  0  0  0  0  0  0  0  0  0
   25.1113  -17.8811  -14.1333 O   0  0  0  0  0  0  0  0  0  0  0  0
   24.4849  -20.0215  -14.7920 N   0  0  0  0  0  0  0  0  0  0  0  0
   23.4243  -19.7544  -15.6781 C   0  0  1  0  0  0  0  0  0  0  0  0
   23.7573  -20.1374  -17.1173 C   0  0  0  0  0  0  0  0  0  0  0  0
   25.1085  -19.6636  -17.4856 C   0  0  0  0  0  0  0  0  0  0  0  0
   26.2369  -20.4337  -17.6509 C   0  0  0  0  0  0  0  0  0  0  0  0
   27.2386  -19.6036  -17.9828 N   0  0  0  0  0  0  0  0  0  0  0  0
   26.7863  -18.3309  -18.0343 C   0  0  0  0  0  0  0  0  0  0  0  0
   25.4907  -18.3906  -17.7291 N   0  0  0  0  0  0  0  0  0  0  0  0
   22.1551  -20.2748  -15.2010 C   0  0  0  0  0  0  0  0  0  0  0  0
   22.0454  -21.5232  -14.9538 O   0  0  0  0  0  0  0  0  0  0  0  0
   21.9037  -21.2519  -11.3992 N   0  0  0  0  0  0  0  0  0  0  0  0
   20.6848  -21.6279  -12.0048 C   0  0  0  0  0  0  0  0  0  0  0  0
   20.5683  -22.7934  -12.5131 O   0  0  0  0  0  0  0  0  0  0  0  0
   19.5677  -20.6595  -12.0291 C   0  0  0  0  0  0  0  0  0  0  0  0
   19.7283  -19.5876  -13.0403 C   0  0  0  0  0  0  0  0  0  0  0  0
   19.7493  -19.9711  -14.4693 C   0  0  2  0  0  0  0  0  0  0  0  0
   21.0323  -19.4659  -14.9962 N   0  0  0  0  0  0  0  0  0  0  0  0
   18.6369  -19.6445  -15.3287 C   0  0  0  0  0  0  0  0  0  0  0  0
   18.7402  -18.6913  -16.1616 O   0  0  0  0  0  0  0  0  0  0  0  0
   17.4221  -20.3408  -15.3018 O   0  0  0  0  0  0  0  0  0  0  0  0
  2  1  1  0
  3  4  1  0
  3  2  1  0
  4  5  1  0
  5  6  1  6
  5  1  1  0
  6  8  1  0
  7  6  2  0
  8  9  1  0
  9 10  1  6
 10 11  1  0
 11 12  2  0
 11 15  1  0
 12 13  1  0
 13 14  1  0
 15 14  2  0
 16  9  1  0
 16 17  2  0
 18 19  1  0
 19 21  1  0
 20 19  2  0
 21 22  1  0
 23 24  1  0
 23 22  1  1
 24 16  1  0
 25 23  1  0
 26 25  2  0
 27 25  1  0
M  END
$$$$
