PHQ.pdb
     RDKit          3D

 27 28  0  0  1  0  0  0  0  0999 V2000
   18.5807  -10.4072  -13.8525 N   0  0  0  0  0  0  0  0  0  0  0  0
   18.4405  -11.6658  -14.5429 C   0  0  0  0  0  0  0  0  0  0  0  0
   17.6751  -11.3585  -15.8184 C   0  0  0  0  0  0  0  0  0  0  0  0
   16.9059  -10.1030  -15.5290 C   0  0  0  0  0  0  0  0  0  0  0  0
   17.6296   -9.4899  -14.3795 C   0  0  1  0  0  0  0  0  0  0  0  0
   16.6897   -8.9945  -13.3095 C   0  0  0  0  0  0  0  0  0  0  0  0
   15.8820   -8.1298  -13.6846 O   0  0  0  0  0  0  0  0  0  0  0  0
   16.7619   -9.4968  -12.0219 N   0  0  0  0  0  0  0  0  0  0  0  0
   15.9536   -9.1683  -10.9173 C   0  0  1  0  0  0  0  0  0  0  0  0
   15.7262  -10.3572   -9.9879 C   0  0  0  0  0  0  0  0  0  0  0  0
   14.6653  -11.2401  -10.5178 C   0  0  0  0  0  0  0  0  0  0  0  0
   13.9730  -11.0832  -11.6967 C   0  0  0  0  0  0  0  0  0  0  0  0
   13.1072  -12.1054  -11.7873 N   0  0  0  0  0  0  0  0  0  0  0  0
   13.2246  -12.9078  -10.7059 C   0  0  0  0  0  0  0  0  0  0  0  0
   14.1762  -12.3637   -9.9485 N   0  0  0  0  0  0  0  0  0  0  0  0
   16.3956   -7.9603  -10.2430 C   0  0  0  0  0  0  0  0  0  0  0  0
   17.5651   -7.9235   -9.7305 O   0  0  0  0  0  0  0  0  0  0  0  0
   16.0568   -2.6216  -12.4571 N   0  0  0  0  0  0  0  0  0  0  0  0
   16.3822   -2.1777  -11.1567 C   0  0  0  0  0  0  0  0  0  0  0  0
   16.6798   -0.9506  -10.9671 O   0  0  0  0  0  0  0  0  0  0  0  0
   16.3638   -3.1491  -10.0421 C   0  0  0  0  0  0  0  0  0  0  0  0
   16.0334   -4.5322  -10.4606 C   0  0  0  0  0  0  0  0  0  0  0  0
   16.0207   -5.5917   -9.4277 C   0  0  2  0  0  0  0  0  0  0  0  0
   15.5934   -6.8203  -10.1255 N   0  0  0  0  0  0  0  0  0  0  0  0
   15.3127   -5.3918   -8.1861 C   0  0  0  0  0  0  0  0  0  0  0  0
   14.2447   -6.0396   -7.9561 O   0  0  0  0  0  0  0  0  0  0  0  0
   15.7506   -4.5080   -7.1920 O   0  0  0  0  0  0  0  0  0  0  0  0
  2  1  1  0
  3  4  1  0
  3  2  1  0
  4  5  1  0
  5  6  1  1
  5  1  1  0
  6  8  1  0
  7  6  2  0
  8  9  1  0
  9 10  1  1
 10 11  1  0
 11 12  2  0
 11 15  1  0
 12 13  1  0
 13 14  1  0
 15 14  2  0
 16  9  1  0
 16 17  2  0
 18 19  1  0
 19 21  1  0
 20 19  2  0
 21 22  1  0
 23 24  1  0
 23 22  1  6
 24 16  1  0
 25 23  1  0
 26 25  2  0
 27 25  1  0
M  END
$$$$
