ERL.pdb
     RDKit          3D

 29 28  0  0  1  0  0  0  0  0999 V2000
   17.5622  -18.4933  -15.5714 N   0  0  0  0  0  0  0  0  0  0  0  0
   17.3688  -17.6593  -16.7285 C   0  0  1  0  0  0  0  0  0  0  0  0
   15.9613  -17.1841  -16.8726 C   0  0  0  0  0  0  0  0  0  0  0  0
   14.9603  -18.3175  -16.9136 C   0  0  0  0  0  0  0  0  0  0  0  0
   14.6649  -18.6220  -18.3488 C   0  0  0  0  0  0  0  0  0  0  0  0
   14.1280  -19.6992  -18.7129 O   0  0  0  0  0  0  0  0  0  0  0  0
   18.3765  -16.5861  -16.7693 C   0  0  0  0  0  0  0  0  0  0  0  0
   18.8236  -16.0077  -15.7475 O   0  0  0  0  0  0  0  0  0  0  0  0
   14.9764  -17.7110  -19.3625 O   0  0  0  0  0  0  0  0  0  0  0  0
   23.5724  -18.4730  -21.0020 N   0  0  0  0  0  0  0  0  0  0  0  0
   23.4544  -18.7393  -19.6193 C   0  0  0  0  0  0  0  0  0  0  0  0
   23.4967  -19.9362  -19.1441 N   0  0  0  0  0  0  0  0  0  0  0  0
   23.2813  -17.6675  -18.6866 N   0  0  0  0  0  0  0  0  0  0  0  0
   22.7698  -16.3977  -19.1570 C   0  0  0  0  0  0  0  0  0  0  0  0
   21.3302  -16.5054  -19.6008 C   0  0  0  0  0  0  0  0  0  0  0  0
   20.5849  -15.2282  -19.4052 C   0  0  0  0  0  0  0  0  0  0  0  0
   19.8971  -15.1176  -18.0708 C   0  0  2  0  0  0  0  0  0  0  0  0
   18.8899  -16.1604  -18.0234 N   0  0  0  0  0  0  0  0  0  0  0  0
   19.2356  -13.7981  -17.8937 C   0  0  0  0  0  0  0  0  0  0  0  0
   18.0063  -13.6398  -18.0968 O   0  0  0  0  0  0  0  0  0  0  0  0
   23.3088  -20.1451  -18.1611 C   0  0  0  0  0  0  0  0  0  0  0  0
   16.4886  -10.0806  -16.7761 C   0  0  2  0  0  0  0  0  0  0  0  0
   17.5557  -10.4137  -15.6888 C   0  0  0  0  0  0  0  0  0  0  0  0
   16.7487  -10.7418  -14.4500 C   0  0  0  0  0  0  0  0  0  0  0  0
   18.3359  -11.5338  -16.2405 C   0  0  1  0  0  0  0  0  0  0  0  0
   19.3517  -11.3327  -17.2898 N   0  0  0  0  0  0  0  0  0  0  0  0
   19.9877  -12.6664  -17.4842 C   0  0  0  0  0  0  0  0  0  0  0  0
   20.4022  -10.3533  -17.0237 O   0  0  0  0  0  0  0  0  0  0  0  0
   21.4818  -10.7757  -16.4870 O   0  0  0  0  0  0  0  0  0  0  0  0
  2  1  1  1
  2  7  1  0
  2  3  1  0
  3  4  1  0
  4  5  1  0
  5  6  2  0
  7  8  2  0
  9  5  1  0
 11 13  1  0
 11 10  1  0
 12 11  2  0
 14 15  1  0
 14 13  1  0
 17 16  1  6
 16 15  1  0
 18 17  1  0
 18  7  1  0
 19 20  2  0
 19 17  1  0
 22 21  1  1
 22 24  1  0
 23 22  1  0
 25 24  1  6
 25 27  1  0
 25 26  1  0
 26 19  1  0
 27 29  1  0
 28 27  2  0
M  END
$$$$
