ERL.pdb
     RDKit          3D

 29 28  0  0  1  0  0  0  0  0999 V2000
   15.8701  -32.4357  -10.3330 N   0  0  0  0  0  0  0  0  0  0  0  0
   16.9752  -31.5824   -9.9835 C   0  0  1  0  0  0  0  0  0  0  0  0
   16.5430  -30.3086   -9.3369 C   0  0  0  0  0  0  0  0  0  0  0  0
   15.8246  -29.3801  -10.2909 C   0  0  0  0  0  0  0  0  0  0  0  0
   15.5622  -28.0928   -9.5741 C   0  0  0  0  0  0  0  0  0  0  0  0
   14.4027  -27.7173   -9.2650 O   0  0  0  0  0  0  0  0  0  0  0  0
   17.9901  -32.3320   -9.2241 C   0  0  0  0  0  0  0  0  0  0  0  0
   17.7198  -33.2699   -8.4329 O   0  0  0  0  0  0  0  0  0  0  0  0
   16.6079  -27.2388   -9.2111 O   0  0  0  0  0  0  0  0  0  0  0  0
   26.8485  -32.2507  -10.0978 N   0  0  0  0  0  0  0  0  0  0  0  0
   26.6277  -32.9354   -8.8817 C   0  0  0  0  0  0  0  0  0  0  0  0
   27.5962  -33.3200   -8.1240 N   0  0  0  0  0  0  0  0  0  0  0  0
   25.2961  -33.2283   -8.4458 N   0  0  0  0  0  0  0  0  0  0  0  0
   24.1763  -32.6633   -9.1684 C   0  0  0  0  0  0  0  0  0  0  0  0
   22.8577  -33.0264   -8.5279 C   0  0  0  0  0  0  0  0  0  0  0  0
   21.7014  -32.3899   -9.2225 C   0  0  0  0  0  0  0  0  0  0  0  0
   20.3651  -32.7084   -8.6070 C   0  0  2  0  0  0  0  0  0  0  0  0
   19.3619  -31.9961   -9.3754 N   0  0  0  0  0  0  0  0  0  0  0  0
   20.2877  -32.2712   -7.1882 C   0  0  0  0  0  0  0  0  0  0  0  0
   20.0659  -31.0757   -6.8737 O   0  0  0  0  0  0  0  0  0  0  0  0
   27.4544  -33.9317   -7.3171 C   0  0  0  0  0  0  0  0  0  0  0  0
   17.1667  -32.7437   -2.8958 C   0  0  2  0  0  0  0  0  0  0  0  0
   18.3960  -31.8674   -3.2869 C   0  0  0  0  0  0  0  0  0  0  0  0
   19.3320  -31.9720   -2.1009 C   0  0  0  0  0  0  0  0  0  0  0  0
   18.9064  -32.4508   -4.5386 C   0  0  1  0  0  0  0  0  0  0  0  0
   20.3251  -32.8146   -4.7063 N   0  0  0  0  0  0  0  0  0  0  0  0
   20.4652  -33.2079   -6.1370 C   0  0  0  0  0  0  0  0  0  0  0  0
   20.8392  -33.9002   -3.8752 O   0  0  0  0  0  0  0  0  0  0  0  0
   20.7459  -35.0895   -4.3324 O   0  0  0  0  0  0  0  0  0  0  0  0
  2  1  1  1
  2  7  1  0
  2  3  1  0
  3  4  1  0
  4  5  1  0
  5  6  2  0
  7  8  2  0
  9  5  1  0
 11 13  1  0
 11 10  1  0
 12 11  2  0
 14 15  1  0
 14 13  1  0
 17 16  1  6
 16 15  1  0
 18 17  1  0
 18  7  1  0
 19 20  2  0
 19 17  1  0
 22 21  1  1
 22 24  1  0
 23 22  1  0
 25 24  1  6
 25 27  1  0
 25 26  1  0
 26 19  1  0
 27 29  1  0
 28 27  2  0
M  END
$$$$
