ERL.pdb
     RDKit          3D

 29 28  0  0  1  0  0  0  0  0999 V2000
   31.0149  -24.5400  -15.4363 N   0  0  0  0  0  0  0  0  0  0  0  0
   31.2094  -24.0829  -16.7872 C   0  0  1  0  0  0  0  0  0  0  0  0
   31.8451  -25.1115  -17.6620 C   0  0  0  0  0  0  0  0  0  0  0  0
   32.9915  -25.8303  -16.9856 C   0  0  0  0  0  0  0  0  0  0  0  0
   33.5604  -26.8135  -17.9599 C   0  0  0  0  0  0  0  0  0  0  0  0
   33.3454  -28.0494  -17.8740 O   0  0  0  0  0  0  0  0  0  0  0  0
   29.9624  -23.5162  -17.3281 C   0  0  0  0  0  0  0  0  0  0  0  0
   29.8293  -23.1245  -18.5144 O   0  0  0  0  0  0  0  0  0  0  0  0
   34.3669  -26.3969  -19.0233 O   0  0  0  0  0  0  0  0  0  0  0  0
   27.3756  -27.0571  -17.9993 N   0  0  0  0  0  0  0  0  0  0  0  0
   26.3726  -27.7580  -17.2926 C   0  0  0  0  0  0  0  0  0  0  0  0
   26.3169  -29.0451  -17.2743 N   0  0  0  0  0  0  0  0  0  0  0  0
   25.3689  -27.0462  -16.5613 N   0  0  0  0  0  0  0  0  0  0  0  0
   25.2992  -25.6051  -16.6776 C   0  0  0  0  0  0  0  0  0  0  0  0
   26.5333  -24.9391  -16.1169 C   0  0  0  0  0  0  0  0  0  0  0  0
   26.4663  -23.4527  -16.2213 C   0  0  0  0  0  0  0  0  0  0  0  0
   27.5948  -22.8417  -17.0081 C   0  0  2  0  0  0  0  0  0  0  0  0
   28.8285  -23.3934  -16.4813 N   0  0  0  0  0  0  0  0  0  0  0  0
   27.6302  -21.3617  -16.8722 C   0  0  0  0  0  0  0  0  0  0  0  0
   27.7377  -20.8007  -15.7536 O   0  0  0  0  0  0  0  0  0  0  0  0
   25.6486  -29.5590  -16.6959 C   0  0  0  0  0  0  0  0  0  0  0  0
   31.1967  -18.3105  -18.9324 C   0  0  1  0  0  0  0  0  0  0  0  0
   30.1459  -18.8783  -17.9298 C   0  0  0  0  0  0  0  0  0  0  0  0
   30.3902  -18.1123  -16.6464 C   0  0  0  0  0  0  0  0  0  0  0  0
   28.8376  -18.6382  -18.5609 C   0  0  2  0  0  0  0  0  0  0  0  0
   27.5758  -19.0459  -17.9167 N   0  0  0  0  0  0  0  0  0  0  0  0
   27.5421  -20.5323  -18.0204 C   0  0  0  0  0  0  0  0  0  0  0  0
   26.3367  -18.5145  -18.4785 O   0  0  0  0  0  0  0  0  0  0  0  0
   25.6025  -19.3140  -19.1521 O   0  0  0  0  0  0  0  0  0  0  0  0
  2  1  1  1
  2  7  1  0
  2  3  1  0
  3  4  1  0
  4  5  1  0
  5  6  2  0
  7  8  2  0
  9  5  1  0
 11 13  1  0
 11 10  1  0
 12 11  2  0
 14 15  1  0
 14 13  1  0
 17 16  1  1
 16 15  1  0
 18 17  1  0
 18  7  1  0
 19 20  2  0
 19 17  1  0
 22 21  1  1
 22 24  1  0
 23 22  1  0
 25 24  1  1
 25 27  1  0
 25 26  1  0
 26 19  1  0
 27 29  1  0
 28 27  2  0
M  END
$$$$
