ERL.pdb
     RDKit          3D

 29 28  0  0  1  0  0  0  0  0999 V2000
   24.4346  -12.3574  -16.0897 N   0  0  0  0  0  0  0  0  0  0  0  0
   24.5070  -11.5674  -17.2906 C   0  0  1  0  0  0  0  0  0  0  0  0
   24.4360  -12.3918  -18.5327 C   0  0  0  0  0  0  0  0  0  0  0  0
   25.5401  -13.4224  -18.6173 C   0  0  0  0  0  0  0  0  0  0  0  0
   24.9127  -14.7793  -18.5480 C   0  0  0  0  0  0  0  0  0  0  0  0
   23.6821  -14.9438  -18.3487 O   0  0  0  0  0  0  0  0  0  0  0  0
   23.5368  -10.4605  -17.2432 C   0  0  0  0  0  0  0  0  0  0  0  0
   23.4539   -9.5655  -18.1210 O   0  0  0  0  0  0  0  0  0  0  0  0
   25.6762  -15.9401  -18.7037 O   0  0  0  0  0  0  0  0  0  0  0  0
   15.2966  -10.1507  -14.9792 N   0  0  0  0  0  0  0  0  0  0  0  0
   15.6302   -8.7782  -15.0171 C   0  0  0  0  0  0  0  0  0  0  0  0
   14.7334   -7.8530  -15.0173 N   0  0  0  0  0  0  0  0  0  0  0  0
   17.0002   -8.3656  -15.0570 N   0  0  0  0  0  0  0  0  0  0  0  0
   18.0322   -9.3619  -15.2511 C   0  0  0  0  0  0  0  0  0  0  0  0
   19.4143   -8.7676  -15.1182 C   0  0  0  0  0  0  0  0  0  0  0  0
   20.4854   -9.7871  -15.3133 C   0  0  0  0  0  0  0  0  0  0  0  0
   21.6680   -9.2912  -16.1017 C   0  0  2  0  0  0  0  0  0  0  0  0
   22.6302  -10.3754  -16.1530 N   0  0  0  0  0  0  0  0  0  0  0  0
   22.3052   -8.1089  -15.4644 C   0  0  0  0  0  0  0  0  0  0  0  0
   23.0587   -8.2194  -14.4656 O   0  0  0  0  0  0  0  0  0  0  0  0
   14.9689   -6.8581  -15.0297 C   0  0  0  0  0  0  0  0  0  0  0  0
   23.1724   -3.4010  -18.4122 C   0  0  2  0  0  0  0  0  0  0  0  0
   23.5523   -4.6235  -17.5216 C   0  0  0  0  0  0  0  0  0  0  0  0
   25.0211   -4.4265  -17.2094 C   0  0  0  0  0  0  0  0  0  0  0  0
   22.6518   -4.5518  -16.3590 C   0  0  2  0  0  0  0  0  0  0  0  0
   22.6413   -5.5945  -15.3170 N   0  0  0  0  0  0  0  0  0  0  0  0
   22.0750   -6.8054  -15.9761 C   0  0  0  0  0  0  0  0  0  0  0  0
   21.8693   -5.3223  -14.1072 O   0  0  0  0  0  0  0  0  0  0  0  0
   20.6761   -5.7755  -14.0530 O   0  0  0  0  0  0  0  0  0  0  0  0
  2  1  1  1
  2  7  1  0
  2  3  1  0
  3  4  1  0
  4  5  1  0
  5  6  2  0
  7  8  2  0
  9  5  1  0
 11 13  1  0
 11 10  1  0
 12 11  2  0
 14 15  1  0
 14 13  1  0
 17 16  1  1
 16 15  1  0
 18 17  1  0
 18  7  1  0
 19 20  2  0
 19 17  1  0
 22 21  1  6
 22 24  1  0
 23 22  1  0
 25 24  1  6
 25 27  1  0
 25 26  1  0
 26 19  1  0
 27 29  1  0
 28 27  2  0
M  END
$$$$
