ERL.pdb
     RDKit          3D

 29 28  0  0  1  0  0  0  0  0999 V2000
   24.3454  -27.2483  -15.6853 N   0  0  0  0  0  0  0  0  0  0  0  0
   24.0507  -25.9275  -16.1755 C   0  0  1  0  0  0  0  0  0  0  0  0
   22.6045  -25.7343  -16.4894 C   0  0  0  0  0  0  0  0  0  0  0  0
   21.7037  -26.0233  -15.3089 C   0  0  0  0  0  0  0  0  0  0  0  0
   20.2880  -25.8074  -15.7435 C   0  0  0  0  0  0  0  0  0  0  0  0
   19.6702  -24.7353  -15.5205 O   0  0  0  0  0  0  0  0  0  0  0  0
   24.6175  -24.9036  -15.2816 C   0  0  0  0  0  0  0  0  0  0  0  0
   24.9602  -25.1251  -14.0933 O   0  0  0  0  0  0  0  0  0  0  0  0
   19.5794  -26.8009  -16.4258 O   0  0  0  0  0  0  0  0  0  0  0  0
   26.1654  -20.0145  -18.6018 N   0  0  0  0  0  0  0  0  0  0  0  0
   27.5143  -19.8860  -18.2008 C   0  0  0  0  0  0  0  0  0  0  0  0
   28.4948  -20.1132  -19.0053 N   0  0  0  0  0  0  0  0  0  0  0  0
   27.8389  -19.4920  -16.8636 N   0  0  0  0  0  0  0  0  0  0  0  0
   26.7709  -19.1383  -15.9528 C   0  0  0  0  0  0  0  0  0  0  0  0
   26.4150  -20.2853  -15.0371 C   0  0  0  0  0  0  0  0  0  0  0  0
   25.8183  -21.4329  -15.7798 C   0  0  0  0  0  0  0  0  0  0  0  0
   25.3795  -22.5721  -14.8990 C   0  0  2  0  0  0  0  0  0  0  0  0
   24.7981  -23.5801  -15.7649 N   0  0  0  0  0  0  0  0  0  0  0  0
   24.3619  -22.1451  -13.9029 C   0  0  0  0  0  0  0  0  0  0  0  0
   23.1423  -22.0661  -14.1927 O   0  0  0  0  0  0  0  0  0  0  0  0
   29.4725  -20.0121  -18.7238 C   0  0  0  0  0  0  0  0  0  0  0  0
   24.9287  -20.4826   -8.0618 C   0  0  2  0  0  0  0  0  0  0  0  0
   23.8222  -21.0367   -9.0108 C   0  0  0  0  0  0  0  0  0  0  0  0
   22.7653  -19.9524   -9.0388 C   0  0  0  0  0  0  0  0  0  0  0  0
   24.4991  -21.2822  -10.2950 C   0  0  1  0  0  0  0  0  0  0  0  0
   23.7556  -21.3529  -11.5659 N   0  0  0  0  0  0  0  0  0  0  0  0
   24.7483  -21.8107  -12.5790 C   0  0  0  0  0  0  0  0  0  0  0  0
   23.1375  -20.1202  -12.0477 O   0  0  0  0  0  0  0  0  0  0  0  0
   23.8742  -19.3052  -12.6995 O   0  0  0  0  0  0  0  0  0  0  0  0
  2  1  1  1
  2  7  1  0
  2  3  1  0
  3  4  1  0
  4  5  1  0
  5  6  2  0
  7  8  2  0
  9  5  1  0
 11 13  1  0
 11 10  1  0
 12 11  2  0
 14 15  1  0
 14 13  1  0
 17 16  1  6
 16 15  1  0
 18 17  1  0
 18  7  1  0
 19 20  2  0
 19 17  1  0
 22 21  1  1
 22 24  1  0
 23 22  1  0
 25 24  1  1
 25 27  1  0
 25 26  1  0
 26 19  1  0
 27 29  1  0
 28 27  2  0
M  END
$$$$
