ERL.pdb
     RDKit          3D

 29 28  0  0  1  0  0  0  0  0999 V2000
   30.1214  -24.1784  -16.7482 N   0  0  0  0  0  0  0  0  0  0  0  0
   28.9927  -23.3826  -17.1535 C   0  0  1  0  0  0  0  0  0  0  0  0
   27.8144  -24.2073  -17.5523 C   0  0  0  0  0  0  0  0  0  0  0  0
   27.6002  -25.4010  -16.6482 C   0  0  0  0  0  0  0  0  0  0  0  0
   27.8508  -26.6395  -17.4501 C   0  0  0  0  0  0  0  0  0  0  0  0
   28.1574  -26.6031  -18.6689 O   0  0  0  0  0  0  0  0  0  0  0  0
   28.6956  -22.3515  -16.1450 C   0  0  0  0  0  0  0  0  0  0  0  0
   29.1808  -22.3467  -14.9860 O   0  0  0  0  0  0  0  0  0  0  0  0
   27.7541  -27.9092  -16.8727 O   0  0  0  0  0  0  0  0  0  0  0  0
   25.9449  -14.4746  -17.9215 N   0  0  0  0  0  0  0  0  0  0  0  0
   26.6274  -15.6285  -18.3678 C   0  0  0  0  0  0  0  0  0  0  0  0
   27.0972  -15.7295  -19.5633 N   0  0  0  0  0  0  0  0  0  0  0  0
   26.8215  -16.7416  -17.4890 N   0  0  0  0  0  0  0  0  0  0  0  0
   26.2890  -16.6809  -16.1444 C   0  0  0  0  0  0  0  0  0  0  0  0
   26.6269  -17.9222  -15.3533 C   0  0  0  0  0  0  0  0  0  0  0  0
   27.0346  -19.0555  -16.2331 C   0  0  0  0  0  0  0  0  0  0  0  0
   27.5107  -20.2721  -15.4852 C   0  0  2  0  0  0  0  0  0  0  0  0
   27.8123  -21.2890  -16.4746 N   0  0  0  0  0  0  0  0  0  0  0  0
   26.4749  -20.7942  -14.5554 C   0  0  0  0  0  0  0  0  0  0  0  0
   25.5641  -21.5671  -14.9436 O   0  0  0  0  0  0  0  0  0  0  0  0
   27.5567  -16.5768  -19.9044 C   0  0  0  0  0  0  0  0  0  0  0  0
   26.2963  -20.6131   -8.4832 C   0  0  2  0  0  0  0  0  0  0  0  0
   25.3981  -21.1382   -9.6449 C   0  0  0  0  0  0  0  0  0  0  0  0
   24.0486  -20.4941   -9.4049 C   0  0  0  0  0  0  0  0  0  0  0  0
   26.0787  -20.7198  -10.8816 C   0  0  1  0  0  0  0  0  0  0  0  0
   25.5079  -20.9894  -12.2138 N   0  0  0  0  0  0  0  0  0  0  0  0
   26.4889  -20.4272  -13.1847 C   0  0  0  0  0  0  0  0  0  0  0  0
   24.1930  -20.4235  -12.5041 O   0  0  0  0  0  0  0  0  0  0  0  0
   23.1780  -21.1877  -12.3704 O   0  0  0  0  0  0  0  0  0  0  0  0
  2  1  1  1
  2  7  1  0
  2  3  1  0
  3  4  1  0
  4  5  1  0
  5  6  2  0
  7  8  2  0
  9  5  1  0
 11 13  1  0
 11 10  1  0
 12 11  2  0
 14 15  1  0
 14 13  1  0
 17 16  1  6
 16 15  1  0
 18 17  1  0
 18  7  1  0
 19 20  2  0
 19 17  1  0
 22 21  1  1
 22 24  1  0
 23 22  1  0
 25 24  1  6
 25 27  1  0
 25 26  1  0
 26 19  1  0
 27 29  1  0
 28 27  2  0
M  END
$$$$
