ERL.pdb
     RDKit          3D

 29 28  0  0  1  0  0  0  0  0999 V2000
   16.6360  -23.6529  -18.0824 N   0  0  0  0  0  0  0  0  0  0  0  0
   15.7772  -22.5464  -17.7508 C   0  0  1  0  0  0  0  0  0  0  0  0
   14.3275  -22.8867  -17.8507 C   0  0  0  0  0  0  0  0  0  0  0  0
   14.0779  -24.1797  -18.5952 C   0  0  0  0  0  0  0  0  0  0  0  0
   12.9056  -24.8600  -17.9606 C   0  0  0  0  0  0  0  0  0  0  0  0
   12.2881  -24.3670  -16.9825 O   0  0  0  0  0  0  0  0  0  0  0  0
   16.1713  -21.9514  -16.4626 C   0  0  0  0  0  0  0  0  0  0  0  0
   15.5890  -20.9688  -15.9392 O   0  0  0  0  0  0  0  0  0  0  0  0
   12.4381  -26.0901  -18.4328 O   0  0  0  0  0  0  0  0  0  0  0  0
   18.2252  -25.0244   -9.0210 N   0  0  0  0  0  0  0  0  0  0  0  0
   18.1180  -23.6210   -8.8959 C   0  0  0  0  0  0  0  0  0  0  0  0
   18.7766  -22.9580   -8.0088 N   0  0  0  0  0  0  0  0  0  0  0  0
   17.2586  -22.8789   -9.7673 N   0  0  0  0  0  0  0  0  0  0  0  0
   17.0064  -23.3771  -11.1027 C   0  0  0  0  0  0  0  0  0  0  0  0
   18.0091  -22.8419  -12.0972 C   0  0  0  0  0  0  0  0  0  0  0  0
   17.6433  -23.1823  -13.5026 C   0  0  0  0  0  0  0  0  0  0  0  0
   17.5928  -21.9960  -14.4278 C   0  0  2  0  0  0  0  0  0  0  0  0
   17.2701  -22.5003  -15.7491 N   0  0  0  0  0  0  0  0  0  0  0  0
   18.8950  -21.2815  -14.4878 C   0  0  0  0  0  0  0  0  0  0  0  0
   19.9697  -21.8810  -14.7391 O   0  0  0  0  0  0  0  0  0  0  0  0
   18.7046  -21.9424   -7.9149 C   0  0  0  0  0  0  0  0  0  0  0  0
   19.9041  -17.0295  -17.4063 C   0  0  2  0  0  0  0  0  0  0  0  0
   20.0774  -18.4059  -16.6939 C   0  0  0  0  0  0  0  0  0  0  0  0
   21.3543  -18.9776  -17.2736 C   0  0  0  0  0  0  0  0  0  0  0  0
   20.1289  -18.0950  -15.2557 C   0  0  2  0  0  0  0  0  0  0  0  0
   20.2565  -19.1510  -14.2350 N   0  0  0  0  0  0  0  0  0  0  0  0
   18.9581  -19.8823  -14.2594 C   0  0  0  0  0  0  0  0  0  0  0  0
   20.5225  -18.7255  -12.8632 O   0  0  0  0  0  0  0  0  0  0  0  0
   19.5523  -18.7666  -12.0331 O   0  0  0  0  0  0  0  0  0  0  0  0
  2  1  1  1
  2  7  1  0
  2  3  1  0
  3  4  1  0
  4  5  1  0
  5  6  2  0
  7  8  2  0
  9  5  1  0
 11 13  1  0
 11 10  1  0
 12 11  2  0
 14 15  1  0
 14 13  1  0
 17 16  1  1
 16 15  1  0
 18 17  1  0
 18  7  1  0
 19 20  2  0
 19 17  1  0
 22 21  1  6
 22 24  1  0
 23 22  1  0
 25 24  1  6
 25 27  1  0
 25 26  1  0
 26 19  1  0
 27 29  1  0
 28 27  2  0
M  END
$$$$
