PTQ.pdb
     RDKit          3D

 24 24  0  0  1  0  0  0  0  0999 V2000
   27.9098  -20.8768   -6.9996 N   0  0  0  0  0  0  0  0  0  0  0  0
   29.1368  -20.1966   -6.7389 C   0  0  0  0  0  0  0  0  0  0  0  0
   28.6612  -19.0465   -5.8372 C   0  0  0  0  0  0  0  0  0  0  0  0
   27.4334  -18.6043   -6.6421 C   0  0  0  0  0  0  0  0  0  0  0  0
   26.9112  -19.8959   -7.2318 C   0  0  1  0  0  0  0  0  0  0  0  0
   26.4556  -19.7501   -8.6125 C   0  0  0  0  0  0  0  0  0  0  0  0
   26.2452  -18.5554   -9.0179 O   0  0  0  0  0  0  0  0  0  0  0  0
   25.8545  -22.8480  -11.7798 C   0  0  0  0  0  0  0  0  0  0  0  0
   26.7415  -21.5948  -11.8253 C   0  0  1  0  0  0  0  0  0  0  0  0
   26.6422  -21.1493  -13.1576 O   0  0  0  0  0  0  0  0  0  0  0  0
   26.0787  -20.5767  -10.9614 C   0  0  2  0  0  0  0  0  0  0  0  0
   26.2197  -20.7668   -9.5516 N   0  0  0  0  0  0  0  0  0  0  0  0
   24.6397  -20.4833  -11.3085 C   0  0  0  0  0  0  0  0  0  0  0  0
   23.7369  -20.9290  -10.5487 O   0  0  0  0  0  0  0  0  0  0  0  0
   22.8715  -17.7511  -16.7381 N   0  0  0  0  0  0  0  0  0  0  0  0
   21.6442  -17.8347  -16.0327 C   0  0  0  0  0  0  0  0  0  0  0  0
   20.5975  -17.4357  -16.5933 O   0  0  0  0  0  0  0  0  0  0  0  0
   21.5388  -18.3774  -14.6489 C   0  0  0  0  0  0  0  0  0  0  0  0
   22.8809  -18.7867  -14.1582 C   0  0  0  0  0  0  0  0  0  0  0  0
   22.8932  -19.6420  -12.9418 C   0  0  2  0  0  0  0  0  0  0  0  0
   24.2773  -19.8735  -12.5341 N   0  0  0  0  0  0  0  0  0  0  0  0
   22.1864  -20.9341  -13.0734 C   0  0  0  0  0  0  0  0  0  0  0  0
   22.7208  -21.9435  -13.5939 O   0  0  0  0  0  0  0  0  0  0  0  0
   20.8923  -21.0434  -12.6087 O   0  0  0  0  0  0  0  0  0  0  0  0
  1  2  1  0
  3  2  1  0
  4  5  1  0
  4  3  1  0
  5  1  1  0
  5  6  1  6
  7  6  2  0
  9  8  1  6
  9 11  1  0
 10  9  1  0
 11 13  1  0
 11 12  1  1
 12  6  1  0
 13 21  1  0
 14 13  2  0
 16 15  1  0
 17 16  2  0
 18 16  1  0
 19 18  1  0
 20 19  1  6
 21 20  1  0
 22 24  1  0
 22 20  1  0
 23 22  2  0
M  END
$$$$
