PTQ.pdb
     RDKit          3D

 24 24  0  0  1  0  0  0  0  0999 V2000
   30.1309  -23.6211  -18.7792 N   0  0  0  0  0  0  0  0  0  0  0  0
   31.4272  -24.2064  -18.6648 C   0  0  0  0  0  0  0  0  0  0  0  0
   31.0845  -25.5983  -18.1106 C   0  0  0  0  0  0  0  0  0  0  0  0
   30.0842  -25.1834  -17.0252 C   0  0  0  0  0  0  0  0  0  0  0  0
   29.3898  -23.9798  -17.6235 C   0  0  1  0  0  0  0  0  0  0  0  0
   29.1521  -22.9156  -16.6507 C   0  0  0  0  0  0  0  0  0  0  0  0
   30.0434  -22.7638  -15.7460 O   0  0  0  0  0  0  0  0  0  0  0  0
   28.5787  -19.2140  -16.9539 C   0  0  0  0  0  0  0  0  0  0  0  0
   27.4446  -19.7021  -16.0401 C   0  0  1  0  0  0  0  0  0  0  0  0
   26.3451  -19.8565  -16.9064 O   0  0  0  0  0  0  0  0  0  0  0  0
   27.8378  -21.0603  -15.5679 C   0  0  2  0  0  0  0  0  0  0  0  0
   28.0593  -22.0364  -16.5885 N   0  0  0  0  0  0  0  0  0  0  0  0
   26.8307  -21.5683  -14.6047 C   0  0  0  0  0  0  0  0  0  0  0  0
   26.0102  -22.4764  -14.9100 O   0  0  0  0  0  0  0  0  0  0  0  0
   23.5089  -20.0482   -8.9266 N   0  0  0  0  0  0  0  0  0  0  0  0
   24.9008  -20.1896   -9.1576 C   0  0  0  0  0  0  0  0  0  0  0  0
   25.6663  -19.2569   -8.8211 O   0  0  0  0  0  0  0  0  0  0  0  0
   25.5005  -21.4010   -9.7849 C   0  0  0  0  0  0  0  0  0  0  0  0
   26.3435  -21.0100  -10.9451 C   0  0  0  0  0  0  0  0  0  0  0  0
   25.8265  -21.4015  -12.2833 C   0  0  2  0  0  0  0  0  0  0  0  0
   26.7965  -21.0100  -13.3039 N   0  0  0  0  0  0  0  0  0  0  0  0
   24.4931  -20.8621  -12.6256 C   0  0  0  0  0  0  0  0  0  0  0  0
   24.3379  -19.7291  -13.1429 O   0  0  0  0  0  0  0  0  0  0  0  0
   23.3729  -21.6260  -12.3715 O   0  0  0  0  0  0  0  0  0  0  0  0
  1  2  1  0
  3  2  1  0
  4  5  1  0
  4  3  1  0
  5  1  1  0
  5  6  1  1
  7  6  2  0
  9  8  1  6
  9 11  1  0
 10  9  1  0
 11 13  1  0
 11 12  1  6
 12  6  1  0
 13 21  1  0
 14 13  2  0
 16 15  1  0
 17 16  2  0
 18 16  1  0
 19 18  1  0
 20 19  1  1
 21 20  1  0
 22 24  1  0
 22 20  1  0
 23 22  2  0
M  END
$$$$
