PTQ.pdb
     RDKit          3D

 24 24  0  0  1  0  0  0  0  0999 V2000
   16.7611  -10.6697  -15.9455 N   0  0  0  0  0  0  0  0  0  0  0  0
   17.7815  -11.0845  -16.8526 C   0  0  0  0  0  0  0  0  0  0  0  0
   17.9009  -12.5787  -16.5131 C   0  0  0  0  0  0  0  0  0  0  0  0
   17.9155  -12.4754  -14.9834 C   0  0  0  0  0  0  0  0  0  0  0  0
   17.0077  -11.2993  -14.6981 C   0  0  1  0  0  0  0  0  0  0  0  0
   17.5063  -10.4400  -13.6265 C   0  0  0  0  0  0  0  0  0  0  0  0
   17.7095  -11.0022  -12.4958 O   0  0  0  0  0  0  0  0  0  0  0  0
   20.5141   -8.2820  -13.4824 C   0  0  0  0  0  0  0  0  0  0  0  0
   19.4191   -7.3810  -12.8920 C   0  0  1  0  0  0  0  0  0  0  0  0
   19.0518   -6.5388  -13.9593 O   0  0  0  0  0  0  0  0  0  0  0  0
   18.2562   -8.2666  -12.5988 C   0  0  2  0  0  0  0  0  0  0  0  0
   17.7901   -9.0664  -13.6881 N   0  0  0  0  0  0  0  0  0  0  0  0
   17.1344   -7.4604  -12.0588 C   0  0  0  0  0  0  0  0  0  0  0  0
   16.0369   -7.3458  -12.6697 O   0  0  0  0  0  0  0  0  0  0  0  0
   13.5182   -9.6327   -8.7875 N   0  0  0  0  0  0  0  0  0  0  0  0
   13.7125   -8.2505   -8.5371 C   0  0  0  0  0  0  0  0  0  0  0  0
   12.7341   -7.5604   -8.1690 O   0  0  0  0  0  0  0  0  0  0  0  0
   15.0320   -7.5754   -8.6914 C   0  0  0  0  0  0  0  0  0  0  0  0
   15.0657   -6.8066   -9.9632 C   0  0  0  0  0  0  0  0  0  0  0  0
   16.2802   -5.9785  -10.1881 C   0  0  2  0  0  0  0  0  0  0  0  0
   17.3104   -6.8019  -10.8176 N   0  0  0  0  0  0  0  0  0  0  0  0
   16.8290   -5.3249   -8.9806 C   0  0  0  0  0  0  0  0  0  0  0  0
   16.2474   -4.3711   -8.4084 O   0  0  0  0  0  0  0  0  0  0  0  0
   18.0230   -5.7744   -8.4563 O   0  0  0  0  0  0  0  0  0  0  0  0
  1  2  1  0
  3  2  1  0
  4  5  1  0
  4  3  1  0
  5  1  1  0
  5  6  1  1
  7  6  2  0
  9  8  1  6
  9 11  1  0
 10  9  1  0
 11 13  1  0
 11 12  1  6
 12  6  1  0
 13 21  1  0
 14 13  2  0
 16 15  1  0
 17 16  2  0
 18 16  1  0
 19 18  1  0
 20 19  1  1
 21 20  1  0
 22 24  1  0
 22 20  1  0
 23 22  2  0
M  END
$$$$
