PTQ.pdb
     RDKit          3D

 24 24  0  0  1  0  0  0  0  0999 V2000
   15.1136  -15.0912  -14.4894 N   0  0  0  0  0  0  0  0  0  0  0  0
   14.4780  -15.8756  -13.4811 C   0  0  0  0  0  0  0  0  0  0  0  0
   13.0700  -15.2598  -13.4593 C   0  0  0  0  0  0  0  0  0  0  0  0
   13.4582  -13.7765  -13.4645 C   0  0  0  0  0  0  0  0  0  0  0  0
   14.7168  -13.7417  -14.3033 C   0  0  1  0  0  0  0  0  0  0  0  0
   15.7325  -12.8357  -13.7712 C   0  0  0  0  0  0  0  0  0  0  0  0
   16.4752  -13.2998  -12.8391 O   0  0  0  0  0  0  0  0  0  0  0  0
   18.5136  -11.2253  -15.4786 C   0  0  0  0  0  0  0  0  0  0  0  0
   17.9445  -10.0685  -14.6436 C   0  0  1  0  0  0  0  0  0  0  0  0
   17.1474   -9.3459  -15.5522 O   0  0  0  0  0  0  0  0  0  0  0  0
   17.0325  -10.6830  -13.6371 C   0  0  2  0  0  0  0  0  0  0  0  0
   15.9924  -11.5122  -14.1608 N   0  0  0  0  0  0  0  0  0  0  0  0
   16.4413   -9.6247  -12.7825 C   0  0  0  0  0  0  0  0  0  0  0  0
   15.2723   -9.7146  -12.3171 O   0  0  0  0  0  0  0  0  0  0  0  0
   14.1173   -8.3754   -8.9236 N   0  0  0  0  0  0  0  0  0  0  0  0
   15.0167   -7.3780   -8.4684 C   0  0  0  0  0  0  0  0  0  0  0  0
   14.6638   -6.6316   -7.5265 O   0  0  0  0  0  0  0  0  0  0  0  0
   16.3691   -7.1738   -9.0599 C   0  0  0  0  0  0  0  0  0  0  0  0
   16.5700   -8.1001  -10.2049 C   0  0  0  0  0  0  0  0  0  0  0  0
   16.8178   -7.4575  -11.5229 C   0  0  2  0  0  0  0  0  0  0  0  0
   17.2209   -8.4805  -12.4854 N   0  0  0  0  0  0  0  0  0  0  0  0
   17.8095   -6.3608  -11.5120 C   0  0  0  0  0  0  0  0  0  0  0  0
   19.0443   -6.5690  -11.5982 O   0  0  0  0  0  0  0  0  0  0  0  0
   17.3701   -5.0576  -11.4046 O   0  0  0  0  0  0  0  0  0  0  0  0
  1  2  1  0
  3  2  1  0
  4  5  1  0
  4  3  1  0
  5  1  1  0
  5  6  1  1
  7  6  2  0
  9  8  1  6
  9 11  1  0
 10  9  1  0
 11 13  1  0
 11 12  1  6
 12  6  1  0
 13 21  1  0
 14 13  2  0
 16 15  1  0
 17 16  2  0
 18 16  1  0
 19 18  1  0
 20 19  1  1
 21 20  1  0
 22 24  1  0
 22 20  1  0
 23 22  2  0
M  END
$$$$
