PTQ.pdb
     RDKit          3D

 24 24  0  0  1  0  0  0  0  0999 V2000
   31.1267  -23.0540  -11.5307 N   0  0  0  0  0  0  0  0  0  0  0  0
   32.4994  -22.6854  -11.6573 C   0  0  0  0  0  0  0  0  0  0  0  0
   32.8112  -22.1826  -10.2389 C   0  0  0  0  0  0  0  0  0  0  0  0
   31.5676  -21.3143  -10.0146 C   0  0  0  0  0  0  0  0  0  0  0  0
   30.4787  -22.0543  -10.7600 C   0  0  1  0  0  0  0  0  0  0  0  0
   29.5753  -21.1627  -11.4842 C   0  0  0  0  0  0  0  0  0  0  0  0
   28.9454  -20.2994  -10.7815 O   0  0  0  0  0  0  0  0  0  0  0  0
   28.5990  -21.0669  -15.7941 C   0  0  0  0  0  0  0  0  0  0  0  0
   28.8144  -19.8326  -14.9057 C   0  0  1  0  0  0  0  0  0  0  0  0
   27.8568  -18.9065  -15.3627 O   0  0  0  0  0  0  0  0  0  0  0  0
   28.4260  -20.2341  -13.5235 C   0  0  2  0  0  0  0  0  0  0  0  0
   29.3140  -21.1393  -12.8634 N   0  0  0  0  0  0  0  0  0  0  0  0
   27.0550  -20.8002  -13.5314 C   0  0  0  0  0  0  0  0  0  0  0  0
   26.8263  -21.9971  -13.8572 O   0  0  0  0  0  0  0  0  0  0  0  0
   23.8498  -20.6491   -8.7766 N   0  0  0  0  0  0  0  0  0  0  0  0
   22.8132  -21.0335   -9.6646 C   0  0  0  0  0  0  0  0  0  0  0  0
   21.7293  -21.4408   -9.1868 O   0  0  0  0  0  0  0  0  0  0  0  0
   22.9516  -20.9759  -11.1472 C   0  0  0  0  0  0  0  0  0  0  0  0
   24.3056  -20.4842  -11.5141 C   0  0  0  0  0  0  0  0  0  0  0  0
   24.6089  -20.4455  -12.9694 C   0  0  2  0  0  0  0  0  0  0  0  0
   25.9750  -19.9630  -13.1604 N   0  0  0  0  0  0  0  0  0  0  0  0
   23.6743  -19.6419  -13.7861 C   0  0  0  0  0  0  0  0  0  0  0  0
   23.9743  -18.5074  -14.2314 O   0  0  0  0  0  0  0  0  0  0  0  0
   22.4252  -20.1505  -14.0751 O   0  0  0  0  0  0  0  0  0  0  0  0
  1  2  1  0
  3  2  1  0
  4  5  1  0
  4  3  1  0
  5  1  1  0
  5  6  1  6
  7  6  2  0
  9  8  1  6
  9 11  1  0
 10  9  1  0
 11 13  1  0
 11 12  1  6
 12  6  1  0
 13 21  1  0
 14 13  2  0
 16 15  1  0
 17 16  2  0
 18 16  1  0
 19 18  1  0
 20 19  1  1
 21 20  1  0
 22 24  1  0
 22 20  1  0
 23 22  2  0
M  END
$$$$
