AVG.pdb
     RDKit          3D

 17 16  0  0  1  0  0  0  0  0999 V2000
   17.1364  -10.7625  -16.8588 C   0  0  0  0  0  0  0  0  0  0  0  0
   18.3528  -11.5750  -16.4219 C   0  0  2  0  0  0  0  0  0  0  0  0
   17.7849  -12.7006  -15.6655 N   0  0  0  0  0  0  0  0  0  0  0  0
   19.1737  -10.7816  -15.4455 C   0  0  0  0  0  0  0  0  0  0  0  0
   18.8170  -10.6387  -14.2480 O   0  0  0  0  0  0  0  0  0  0  0  0
   23.2613   -9.9285  -16.1925 C   0  0  0  0  0  0  0  0  0  0  0  0
   22.6098   -9.8983  -14.8017 C   0  0  2  0  0  0  0  0  0  0  0  0
   22.5567  -11.3337  -14.3515 C   0  0  0  0  0  0  0  0  0  0  0  0
   21.1803   -9.4040  -14.9145 C   0  0  2  0  0  0  0  0  0  0  0  0
   20.4011  -10.1573  -15.8425 N   0  0  0  0  0  0  0  0  0  0  0  0
   21.1119   -7.9641  -15.1934 C   0  0  0  0  0  0  0  0  0  0  0  0
   21.2378   -7.5153  -16.3746 O   0  0  0  0  0  0  0  0  0  0  0  0
   20.9013   -6.9726  -14.1879 N   0  0  0  0  0  0  0  0  0  0  0  0
   20.8706   -5.5478  -14.4447 C   0  0  0  0  0  0  0  0  0  0  0  0
   21.8807   -4.9145  -13.5632 C   0  0  0  0  0  0  0  0  0  0  0  0
   22.5405   -5.5728  -12.7176 O   0  0  0  0  0  0  0  0  0  0  0  0
   22.1568   -3.5398  -13.6204 O   0  0  0  0  0  0  0  0  0  0  0  0
  2  4  1  0
  2  1  1  1
  3  2  1  0
  4  5  2  0
  7  6  1  6
  7  8  1  0
  7  9  1  0
  9 10  1  6
 10  4  1  0
 11  9  1  0
 12 11  2  0
 13 11  1  0
 14 13  1  0
 14 15  1  0
 15 17  1  0
 16 15  2  0
M  END
$$$$
