AVG.pdb
     RDKit          3D

 17 16  0  0  1  0  0  0  0  0999 V2000
   28.4441   -9.3786  -17.5182 C   0  0  0  0  0  0  0  0  0  0  0  0
   27.8030  -10.7431  -17.2779 C   0  0  2  0  0  0  0  0  0  0  0  0
   28.2650  -11.5650  -18.4061 N   0  0  0  0  0  0  0  0  0  0  0  0
   26.3108  -10.6380  -17.4154 C   0  0  0  0  0  0  0  0  0  0  0  0
   25.7573  -10.5516  -18.5413 O   0  0  0  0  0  0  0  0  0  0  0  0
   21.7873  -11.4293  -15.8336 C   0  0  0  0  0  0  0  0  0  0  0  0
   23.2919  -11.7328  -15.8962 C   0  0  2  0  0  0  0  0  0  0  0  0
   23.7135  -11.9713  -14.4710 C   0  0  0  0  0  0  0  0  0  0  0  0
   24.0420  -10.5121  -16.3939 C   0  0  2  0  0  0  0  0  0  0  0  0
   25.4575  -10.6356  -16.2639 N   0  0  0  0  0  0  0  0  0  0  0  0
   23.5484   -9.2711  -15.7839 C   0  0  0  0  0  0  0  0  0  0  0  0
   23.7725   -9.0029  -14.5630 O   0  0  0  0  0  0  0  0  0  0  0  0
   22.7970   -8.2855  -16.4925 N   0  0  0  0  0  0  0  0  0  0  0  0
   22.3171   -7.0517  -15.9057 C   0  0  0  0  0  0  0  0  0  0  0  0
   20.8733   -7.2276  -15.6172 C   0  0  0  0  0  0  0  0  0  0  0  0
   20.2363   -8.2506  -15.9800 O   0  0  0  0  0  0  0  0  0  0  0  0
   20.1326   -6.2586  -14.9232 O   0  0  0  0  0  0  0  0  0  0  0  0
  2  4  1  0
  2  1  1  6
  3  2  1  0
  4  5  2  0
  7  6  1  1
  7  8  1  0
  7  9  1  0
  9 10  1  1
 10  4  1  0
 11  9  1  0
 12 11  2  0
 13 11  1  0
 14 13  1  0
 14 15  1  0
 15 17  1  0
 16 15  2  0
M  END
$$$$
