AVG.pdb
     RDKit          3D

 17 16  0  0  1  0  0  0  0  0999 V2000
   25.0192  -11.9712  -15.6040 C   0  0  0  0  0  0  0  0  0  0  0  0
   23.5321  -11.9740  -15.9492 C   0  0  2  0  0  0  0  0  0  0  0  0
   23.4514  -12.7418  -17.2004 N   0  0  0  0  0  0  0  0  0  0  0  0
   23.0814  -10.5796  -16.2797 C   0  0  0  0  0  0  0  0  0  0  0  0
   23.3786  -10.0328  -17.3725 O   0  0  0  0  0  0  0  0  0  0  0  0
   19.5543   -8.9767  -14.6634 C   0  0  0  0  0  0  0  0  0  0  0  0
   20.2779   -8.5375  -15.9453 C   0  0  2  0  0  0  0  0  0  0  0  0
   19.9808   -9.6076  -16.9613 C   0  0  0  0  0  0  0  0  0  0  0  0
   21.7769   -8.5341  -15.7138 C   0  0  2  0  0  0  0  0  0  0  0  0
   22.2897   -9.8176  -15.3598 N   0  0  0  0  0  0  0  0  0  0  0  0
   22.1871   -7.5030  -14.7523 C   0  0  0  0  0  0  0  0  0  0  0  0
   22.3124   -7.7673  -13.5165 O   0  0  0  0  0  0  0  0  0  0  0  0
   22.4747   -6.1524  -15.1150 N   0  0  0  0  0  0  0  0  0  0  0  0
   22.7917   -5.1055  -14.1661 C   0  0  0  0  0  0  0  0  0  0  0  0
   21.5114   -4.5010  -13.7255 C   0  0  0  0  0  0  0  0  0  0  0  0
   20.3970   -4.9124  -14.1410 O   0  0  0  0  0  0  0  0  0  0  0  0
   21.4703   -3.4304  -12.8193 O   0  0  0  0  0  0  0  0  0  0  0  0
  2  4  1  0
  2  1  1  6
  3  2  1  0
  4  5  2  0
  7  6  1  1
  7  8  1  0
  7  9  1  0
  9 10  1  1
 10  4  1  0
 11  9  1  0
 12 11  2  0
 13 11  1  0
 14 13  1  0
 14 15  1  0
 15 17  1  0
 16 15  2  0
M  END
$$$$
