AVG.pdb
     RDKit          3D

 17 16  0  0  1  0  0  0  0  0999 V2000
   22.1132  -21.3982  -15.3760 C   0  0  0  0  0  0  0  0  0  0  0  0
   21.7189  -21.2680  -13.9069 C   0  0  2  0  0  0  0  0  0  0  0  0
   20.5848  -20.3324  -13.9170 N   0  0  0  0  0  0  0  0  0  0  0  0
   22.8187  -20.5899  -13.1406 C   0  0  0  0  0  0  0  0  0  0  0  0
   22.8714  -19.3381  -13.0322 O   0  0  0  0  0  0  0  0  0  0  0  0
   24.0349  -20.7035   -9.4695 C   0  0  0  0  0  0  0  0  0  0  0  0
   25.1289  -21.2416  -10.4040 C   0  0  2  0  0  0  0  0  0  0  0  0
   26.4193  -20.6646   -9.8864 C   0  0  0  0  0  0  0  0  0  0  0  0
   24.9191  -20.7012  -11.8055 C   0  0  2  0  0  0  0  0  0  0  0  0
   23.8524  -21.3472  -12.4988 N   0  0  0  0  0  0  0  0  0  0  0  0
   26.1583  -20.7064  -12.5931 C   0  0  0  0  0  0  0  0  0  0  0  0
   27.1529  -19.9902  -12.2607 O   0  0  0  0  0  0  0  0  0  0  0  0
   26.3467  -21.4975  -13.7665 N   0  0  0  0  0  0  0  0  0  0  0  0
   27.6199  -21.6713  -14.4342 C   0  0  0  0  0  0  0  0  0  0  0  0
   27.6141  -20.8041  -15.6370 C   0  0  0  0  0  0  0  0  0  0  0  0
   26.6394  -20.0617  -15.9243 O   0  0  0  0  0  0  0  0  0  0  0  0
   28.6981  -20.7643  -16.5273 O   0  0  0  0  0  0  0  0  0  0  0  0
  2  4  1  0
  2  1  1  6
  3  2  1  0
  4  5  2  0
  7  6  1  1
  7  8  1  0
  7  9  1  0
  9 10  1  6
 10  4  1  0
 11  9  1  0
 12 11  2  0
 13 11  1  0
 14 13  1  0
 14 15  1  0
 15 17  1  0
 16 15  2  0
M  END
$$$$
