AVG.pdb
     RDKit          3D

 17 16  0  0  1  0  0  0  0  0999 V2000
   20.9315   -9.2599  -19.8561 C   0  0  0  0  0  0  0  0  0  0  0  0
   22.1026  -10.2336  -19.7502 C   0  0  2  0  0  0  0  0  0  0  0  0
   21.5272  -11.5350  -20.1203 N   0  0  0  0  0  0  0  0  0  0  0  0
   22.5375  -10.3563  -18.3176 C   0  0  0  0  0  0  0  0  0  0  0  0
   21.8583  -10.9976  -17.4755 O   0  0  0  0  0  0  0  0  0  0  0  0
   25.9347  -10.3463  -14.8210 C   0  0  0  0  0  0  0  0  0  0  0  0
   25.6086  -10.1938  -16.3144 C   0  0  2  0  0  0  0  0  0  0  0  0
   26.4195   -9.0160  -16.7846 C   0  0  0  0  0  0  0  0  0  0  0  0
   24.1448   -9.8358  -16.4868 C   0  0  2  0  0  0  0  0  0  0  0  0
   23.7494   -9.7474  -17.8548 N   0  0  0  0  0  0  0  0  0  0  0  0
   23.7775   -8.6276  -15.7377 C   0  0  0  0  0  0  0  0  0  0  0  0
   23.8094   -8.6044  -14.4684 O   0  0  0  0  0  0  0  0  0  0  0  0
   23.3667   -7.4079  -16.3557 N   0  0  0  0  0  0  0  0  0  0  0  0
   23.1613   -6.1642  -15.6430 C   0  0  0  0  0  0  0  0  0  0  0  0
   21.7273   -6.0946  -15.2727 C   0  0  0  0  0  0  0  0  0  0  0  0
   20.9032   -6.9840  -15.6097 O   0  0  0  0  0  0  0  0  0  0  0  0
   21.2056   -5.0276  -14.5251 O   0  0  0  0  0  0  0  0  0  0  0  0
  2  4  1  0
  2  1  1  1
  3  2  1  0
  4  5  2  0
  7  6  1  1
  7  8  1  0
  7  9  1  0
  9 10  1  6
 10  4  1  0
 11  9  1  0
 12 11  2  0
 13 11  1  0
 14 13  1  0
 14 15  1  0
 15 17  1  0
 16 15  2  0
M  END
$$$$
