LKD.pdb
     RDKit          3D

 26 25  0  0  1  0  0  0  0  0999 V2000
    7.3810  -12.5749   27.9606 C   0  0  0  0  0  0  0  0  0  0  0  0
    6.5573  -13.3945   27.0008 C   0  0  1  0  0  0  0  0  0  0  0  0
    5.9927  -12.5579   25.8748 C   0  0  0  0  0  0  0  0  0  0  0  0
    7.3732  -14.5065   26.3634 C   0  0  0  0  0  0  0  0  0  0  0  0
    6.4749  -15.1201   25.3127 C   0  0  2  0  0  0  0  0  0  0  0  0
    6.0711  -16.4170   25.8802 N   0  0  0  0  0  0  0  0  0  0  0  0
    7.1453  -15.3538   24.0350 C   0  0  0  0  0  0  0  0  0  0  0  0
    7.5340  -16.5216   23.7557 O   0  0  0  0  0  0  0  0  0  0  0  0
    7.3595  -14.3036   23.1241 N   0  0  0  0  0  0  0  0  0  0  0  0
    8.0793  -14.5036   21.8235 C   0  0  1  0  0  0  0  0  0  0  0  0
    7.9590  -13.2422   21.0383 C   0  0  0  0  0  0  0  0  0  0  0  0
    7.3082  -13.3844   19.7015 C   0  0  0  0  0  0  0  0  0  0  0  0
    8.3247  -13.9146   18.7060 C   0  0  0  0  0  0  0  0  0  0  0  0
    7.6233  -14.1603   17.3753 C   0  0  0  0  0  0  0  0  0  0  0  0
    8.5976  -14.7465   16.4630 N   0  0  0  0  0  0  0  0  0  0  0  0
    9.4776  -14.8825   22.1493 C   0  0  0  0  0  0  0  0  0  0  0  0
   10.0321  -14.3624   23.1771 O   0  0  0  0  0  0  0  0  0  0  0  0
   10.2716  -15.7867   21.4196 N   0  0  0  0  0  0  0  0  0  0  0  0
   11.5792  -16.2563   21.9766 C   0  0  1  0  0  0  0  0  0  0  0  0
   11.2902  -16.9295   23.2769 C   0  0  0  0  0  0  0  0  0  0  0  0
   12.4285  -17.5662   23.9327 C   0  0  0  0  0  0  0  0  0  0  0  0
   13.5706  -17.6373   23.4353 O   0  0  0  0  0  0  0  0  0  0  0  0
   12.1800  -17.1554   20.9663 C   0  0  0  0  0  0  0  0  0  0  0  0
   13.5284  -17.3265   20.8702 O   0  0  0  0  0  0  0  0  0  0  0  0
   12.2667  -18.1448   25.2023 O   0  0  0  0  0  0  0  0  0  0  0  0
   11.4478  -17.7862   20.1661 O   0  0  0  0  0  0  0  0  0  0  0  0
  2  1  1  1
  2  3  1  0
  4  2  1  0
  5  4  1  0
  5  6  1  1
  7  5  1  0
  8  7  2  0
  9  7  1  0
 10  9  1  0
 11 12  1  0
 10 11  1  6
 13 14  1  0
 13 12  1  0
 14 15  1  0
 16 18  1  0
 16 10  1  0
 17 16  2  0
 19 20  1  1
 19 18  1  0
 20 21  1  0
 21 22  2  0
 21 25  1  0
 23 24  1  0
 23 19  1  0
 26 23  2  0
M  END
$$$$
