LKD.pdb
     RDKit          3D

 26 25  0  0  1  0  0  0  0  0999 V2000
    5.7031  -11.2986   26.6228 C   0  0  0  0  0  0  0  0  0  0  0  0
    6.7572  -12.3720   26.5334 C   0  0  1  0  0  0  0  0  0  0  0  0
    7.6471  -12.4012   27.7556 C   0  0  0  0  0  0  0  0  0  0  0  0
    6.1442  -13.7554   26.3959 C   0  0  0  0  0  0  0  0  0  0  0  0
    7.2697  -14.6562   25.9386 C   0  0  2  0  0  0  0  0  0  0  0  0
    8.4815  -13.8298   26.0637 N   0  0  0  0  0  0  0  0  0  0  0  0
    7.1402  -15.0941   24.5501 C   0  0  0  0  0  0  0  0  0  0  0  0
    6.2238  -15.9088   24.2513 O   0  0  0  0  0  0  0  0  0  0  0  0
    8.0154  -14.6228   23.5549 N   0  0  0  0  0  0  0  0  0  0  0  0
    8.0570  -15.2139   22.1771 C   0  0  1  0  0  0  0  0  0  0  0  0
    7.9670  -14.0933   21.1983 C   0  0  0  0  0  0  0  0  0  0  0  0
    7.8378  -14.5058   19.7687 C   0  0  0  0  0  0  0  0  0  0  0  0
    8.1352  -13.3134   18.8769 C   0  0  0  0  0  0  0  0  0  0  0  0
    7.9821  -13.7410   17.4220 C   0  0  0  0  0  0  0  0  0  0  0  0
    8.3202  -12.5956   16.5860 N   0  0  0  0  0  0  0  0  0  0  0  0
    9.3090  -16.0059   22.0767 C   0  0  0  0  0  0  0  0  0  0  0  0
    9.5812  -16.5884   20.9717 O   0  0  0  0  0  0  0  0  0  0  0  0
   10.2532  -16.1783   23.1058 N   0  0  0  0  0  0  0  0  0  0  0  0
   11.5225  -16.9267   22.8425 C   0  0  1  0  0  0  0  0  0  0  0  0
   12.5842  -15.9144   22.5676 C   0  0  0  0  0  0  0  0  0  0  0  0
   13.0547  -15.8418   21.1875 C   0  0  0  0  0  0  0  0  0  0  0  0
   12.5772  -16.5138   20.2510 O   0  0  0  0  0  0  0  0  0  0  0  0
   11.7910  -17.7544   24.0395 C   0  0  0  0  0  0  0  0  0  0  0  0
   12.8401  -18.6226   24.0903 O   0  0  0  0  0  0  0  0  0  0  0  0
   14.1074  -14.9733   20.8554 O   0  0  0  0  0  0  0  0  0  0  0  0
   11.0457  -17.6720   25.0455 O   0  0  0  0  0  0  0  0  0  0  0  0
  2  1  1  1
  2  3  1  0
  4  2  1  0
  5  4  1  0
  5  6  1  6
  7  5  1  0
  8  7  2  0
  9  7  1  0
 10  9  1  0
 11 12  1  0
 10 11  1  6
 13 14  1  0
 13 12  1  0
 14 15  1  0
 16 18  1  0
 16 10  1  0
 17 16  2  0
 19 20  1  1
 19 18  1  0
 20 21  1  0
 21 22  2  0
 21 25  1  0
 23 24  1  0
 23 19  1  0
 26 23  2  0
M  END
$$$$
