LKD.pdb
     RDKit          3D

 26 25  0  0  1  0  0  0  0  0999 V2000
    6.8376  -11.9822   19.4852 C   0  0  0  0  0  0  0  0  0  0  0  0
    7.4279  -13.3661   19.5727 C   0  0  1  0  0  0  0  0  0  0  0  0
    8.2830  -13.6988   18.3707 C   0  0  0  0  0  0  0  0  0  0  0  0
    8.3055  -13.5291   20.8022 C   0  0  0  0  0  0  0  0  0  0  0  0
    8.6797  -14.9939   20.8445 C   0  0  2  0  0  0  0  0  0  0  0  0
    7.4296  -15.7061   20.5326 N   0  0  0  0  0  0  0  0  0  0  0  0
    9.1597  -15.4368   22.1522 C   0  0  0  0  0  0  0  0  0  0  0  0
   10.1414  -14.8402   22.6747 O   0  0  0  0  0  0  0  0  0  0  0  0
    8.5464  -16.5080   22.8266 N   0  0  0  0  0  0  0  0  0  0  0  0
    9.0550  -17.0269   24.1388 C   0  0  1  0  0  0  0  0  0  0  0  0
    8.1403  -18.1172   24.5822 C   0  0  0  0  0  0  0  0  0  0  0  0
    8.6225  -18.9181   25.7470 C   0  0  0  0  0  0  0  0  0  0  0  0
    7.4754  -19.1228   26.7204 C   0  0  0  0  0  0  0  0  0  0  0  0
    8.0005  -19.8604   27.9465 C   0  0  0  0  0  0  0  0  0  0  0  0
    6.8712  -20.0997   28.8366 N   0  0  0  0  0  0  0  0  0  0  0  0
   10.4578  -17.4637   23.9243 C   0  0  0  0  0  0  0  0  0  0  0  0
   10.7210  -18.2194   22.9273 O   0  0  0  0  0  0  0  0  0  0  0  0
   11.5565  -17.1134   24.7308 N   0  0  0  0  0  0  0  0  0  0  0  0
   12.9239  -17.6248   24.4002 C   0  0  1  0  0  0  0  0  0  0  0  0
   13.6480  -16.5275   23.6939 C   0  0  0  0  0  0  0  0  0  0  0  0
   15.0711  -16.7512   23.4568 C   0  0  0  0  0  0  0  0  0  0  0  0
   15.5488  -17.8259   23.0400 O   0  0  0  0  0  0  0  0  0  0  0  0
   13.5557  -18.0229   25.6779 C   0  0  0  0  0  0  0  0  0  0  0  0
   14.6788  -18.7938   25.7128 O   0  0  0  0  0  0  0  0  0  0  0  0
   15.9890  -15.7166   23.7012 O   0  0  0  0  0  0  0  0  0  0  0  0
   13.0608  -17.6534   26.7701 O   0  0  0  0  0  0  0  0  0  0  0  0
  2  1  1  6
  2  3  1  0
  4  2  1  0
  5  4  1  0
  5  6  1  1
  7  5  1  0
  8  7  2  0
  9  7  1  0
 10  9  1  0
 11 12  1  0
 10 11  1  6
 13 14  1  0
 13 12  1  0
 14 15  1  0
 16 18  1  0
 16 10  1  0
 17 16  2  0
 19 20  1  1
 19 18  1  0
 20 21  1  0
 21 22  2  0
 21 25  1  0
 23 24  1  0
 23 19  1  0
 26 23  2  0
M  END
$$$$
