LKD.pdb
     RDKit          3D

 26 25  0  0  1  0  0  0  0  0999 V2000
    7.7605  -12.1633   19.7991 C   0  0  0  0  0  0  0  0  0  0  0  0
    7.4509  -13.6308   19.9471 C   0  0  1  0  0  0  0  0  0  0  0  0
    8.3507  -14.4930   19.0906 C   0  0  0  0  0  0  0  0  0  0  0  0
    7.6178  -14.1013   21.3821 C   0  0  0  0  0  0  0  0  0  0  0  0
    6.9526  -15.4580   21.4461 C   0  0  2  0  0  0  0  0  0  0  0  0
    5.5391  -15.1943   21.1308 N   0  0  0  0  0  0  0  0  0  0  0  0
    7.0315  -16.0859   22.7637 C   0  0  0  0  0  0  0  0  0  0  0  0
    6.4927  -15.5074   23.7474 O   0  0  0  0  0  0  0  0  0  0  0  0
    7.6937  -17.3136   22.9451 N   0  0  0  0  0  0  0  0  0  0  0  0
    7.8658  -17.9407   24.2966 C   0  0  1  0  0  0  0  0  0  0  0  0
    7.1006  -19.2199   24.3054 C   0  0  0  0  0  0  0  0  0  0  0  0
    7.2206  -20.0247   25.5579 C   0  0  0  0  0  0  0  0  0  0  0  0
    6.3950  -21.2912   25.4177 C   0  0  0  0  0  0  0  0  0  0  0  0
    6.4449  -22.0556   26.7354 C   0  0  0  0  0  0  0  0  0  0  0  0
    7.8182  -22.5008   26.9373 N   0  0  0  0  0  0  0  0  0  0  0  0
    9.3242  -18.1064   24.5213 C   0  0  0  0  0  0  0  0  0  0  0  0
   10.0564  -18.4934   23.5474 O   0  0  0  0  0  0  0  0  0  0  0  0
    9.9978  -17.8678   25.7336 N   0  0  0  0  0  0  0  0  0  0  0  0
   11.4699  -18.1188   25.8366 C   0  0  1  0  0  0  0  0  0  0  0  0
   12.1633  -16.9159   25.2892 C   0  0  0  0  0  0  0  0  0  0  0  0
   13.3170  -17.1784   24.4339 C   0  0  0  0  0  0  0  0  0  0  0  0
   13.8060  -18.3115   24.2498 O   0  0  0  0  0  0  0  0  0  0  0  0
   11.7650  -18.3723   27.2644 C   0  0  0  0  0  0  0  0  0  0  0  0
   10.8027  -18.2730   28.2241 O   0  0  0  0  0  0  0  0  0  0  0  0
   13.9410  -16.1155   23.7605 O   0  0  0  0  0  0  0  0  0  0  0  0
   12.9251  -18.6873   27.6241 O   0  0  0  0  0  0  0  0  0  0  0  0
  2  1  1  1
  2  3  1  0
  4  2  1  0
  5  4  1  0
  5  6  1  1
  7  5  1  0
  8  7  2  0
  9  7  1  0
 10  9  1  0
 11 12  1  0
 10 11  1  6
 13 14  1  0
 13 12  1  0
 14 15  1  0
 16 18  1  0
 16 10  1  0
 17 16  2  0
 19 20  1  1
 19 18  1  0
 20 21  1  0
 21 22  2  0
 21 25  1  0
 23 24  1  0
 23 19  1  0
 26 23  2  0
M  END
$$$$
