LKD.pdb
     RDKit          3D

 26 25  0  0  1  0  0  0  0  0999 V2000
    7.6722  -12.0393   20.7705 C   0  0  0  0  0  0  0  0  0  0  0  0
    8.0356  -13.3113   20.0485 C   0  0  1  0  0  0  0  0  0  0  0  0
    9.0844  -13.0831   18.9833 C   0  0  0  0  0  0  0  0  0  0  0  0
    8.5864  -14.3619   20.9977 C   0  0  0  0  0  0  0  0  0  0  0  0
    8.8165  -15.5946   20.1521 C   0  0  2  0  0  0  0  0  0  0  0  0
    7.5484  -15.7930   19.4313 N   0  0  0  0  0  0  0  0  0  0  0  0
    9.1053  -16.7947   20.9350 C   0  0  0  0  0  0  0  0  0  0  0  0
    8.1620  -17.3595   21.5545 O   0  0  0  0  0  0  0  0  0  0  0  0
   10.4080  -17.3207   21.0046 N   0  0  0  0  0  0  0  0  0  0  0  0
   10.7080  -18.6377   21.6567 C   0  0  1  0  0  0  0  0  0  0  0  0
   11.2945  -19.5351   20.6211 C   0  0  0  0  0  0  0  0  0  0  0  0
   10.3040  -20.2193   19.7370 C   0  0  0  0  0  0  0  0  0  0  0  0
   11.0467  -21.0165   18.6796 C   0  0  0  0  0  0  0  0  0  0  0  0
   10.0320  -21.5907   17.6979 C   0  0  0  0  0  0  0  0  0  0  0  0
   10.7701  -22.3205   16.6744 N   0  0  0  0  0  0  0  0  0  0  0  0
   11.6118  -18.3644   22.8027 C   0  0  0  0  0  0  0  0  0  0  0  0
   12.4784  -17.4310   22.6934 O   0  0  0  0  0  0  0  0  0  0  0  0
   11.6039  -19.0484   24.0325 N   0  0  0  0  0  0  0  0  0  0  0  0
   12.5907  -18.6877   25.0986 C   0  0  1  0  0  0  0  0  0  0  0  0
   12.1146  -19.3070   26.3703 C   0  0  0  0  0  0  0  0  0  0  0  0
   13.0039  -19.1683   27.5198 C   0  0  0  0  0  0  0  0  0  0  0  0
   14.0732  -18.5256   27.5014 O   0  0  0  0  0  0  0  0  0  0  0  0
   13.9092  -19.1912   24.6536 C   0  0  0  0  0  0  0  0  0  0  0  0
   15.0566  -18.4905   24.8757 O   0  0  0  0  0  0  0  0  0  0  0  0
   12.6684  -19.7815   28.7380 O   0  0  0  0  0  0  0  0  0  0  0  0
   13.9968  -20.2894   24.0530 O   0  0  0  0  0  0  0  0  0  0  0  0
  2  1  1  1
  2  3  1  0
  4  2  1  0
  5  4  1  0
  5  6  1  1
  7  5  1  0
  8  7  2  0
  9  7  1  0
 10  9  1  0
 11 12  1  0
 10 11  1  6
 13 14  1  0
 13 12  1  0
 14 15  1  0
 16 18  1  0
 16 10  1  0
 17 16  2  0
 19 20  1  1
 19 18  1  0
 20 21  1  0
 21 22  2  0
 21 25  1  0
 23 24  1  0
 23 19  1  0
 26 23  2  0
M  END
$$$$
