LRT.pdb
     RDKit          3D

 27 26  0  0  1  0  0  0  0  0999 V2000
   24.6225  -16.3153  -19.4542 C   0  0  0  0  0  0  0  0  0  0  0  0
   25.2075  -17.3527  -18.5128 C   0  0  1  0  0  0  0  0  0  0  0  0
   26.1093  -16.5527  -17.5507 C   0  0  0  0  0  0  0  0  0  0  0  0
   24.1654  -18.0160  -17.6806 C   0  0  0  0  0  0  0  0  0  0  0  0
   24.7259  -18.9924  -16.6580 C   0  0  2  0  0  0  0  0  0  0  0  0
   25.4092  -20.0330  -17.4665 N   0  0  0  0  0  0  0  0  0  0  0  0
   23.6760  -19.7044  -15.8996 C   0  0  0  0  0  0  0  0  0  0  0  0
   23.0753  -20.6550  -16.4580 O   0  0  0  0  0  0  0  0  0  0  0  0
   19.1880  -20.0448  -10.1806 N   0  0  0  0  0  0  0  0  0  0  0  0
   19.5950  -21.1516   -9.4142 C   0  0  0  0  0  0  0  0  0  0  0  0
   18.7454  -21.8535   -8.7690 N   0  0  0  0  0  0  0  0  0  0  0  0
   20.9704  -21.5049   -9.3484 N   0  0  0  0  0  0  0  0  0  0  0  0
   21.9834  -20.7547  -10.0568 C   0  0  0  0  0  0  0  0  0  0  0  0
   21.6835  -20.7888  -11.5299 C   0  0  0  0  0  0  0  0  0  0  0  0
   22.6205  -19.9626  -12.3547 C   0  0  0  0  0  0  0  0  0  0  0  0
   22.2689  -20.0574  -13.8168 C   0  0  2  0  0  0  0  0  0  0  0  0
   23.3113  -19.3719  -14.5679 N   0  0  0  0  0  0  0  0  0  0  0  0
   20.9321  -19.4813  -14.0970 C   0  0  0  0  0  0  0  0  0  0  0  0
   20.6211  -18.3979  -13.5550 O   0  0  0  0  0  0  0  0  0  0  0  0
   19.0184  -22.7130   -8.2594 C   0  0  0  0  0  0  0  0  0  0  0  0
   19.1721  -18.6461  -17.3986 C   0  0  2  0  0  0  0  0  0  0  0  0
   18.2799  -19.5978  -16.6497 O   0  0  0  0  0  0  0  0  0  0  0  0
   18.5787  -20.8899  -17.1146 C   0  0  2  0  0  0  0  0  0  0  0  0
   18.6659  -19.5583  -15.1880 N   0  0  0  0  0  0  0  0  0  0  0  0
   19.9879  -20.1020  -14.9521 C   0  0  0  0  0  0  0  0  0  0  0  0
   17.6593  -20.2407  -14.3424 O   0  0  0  0  0  0  0  0  0  0  0  0
   17.9931  -21.2803  -13.7207 O   0  0  0  0  0  0  0  0  0  0  0  0
  2  1  1  6
  3  2  1  0
  4  2  1  0
  5  4  1  0
  5  6  1  6
  7  5  1  0
  7  8  2  0
  9 10  1  0
 10 12  1  0
 11 10  2  0
 12 13  1  0
 13 14  1  0
 14 15  1  0
 16 17  1  0
 16 15  1  1
 17  7  1  0
 18 16  1  0
 19 18  2  0
 21 20  1  6
 21 23  1  0
 22 21  1  0
 23 24  1  1
 24 18  1  0
 25 23  1  0
 25 27  1  0
 26 25  2  0
M  END
$$$$
