LRT.pdb
     RDKit          3D

 27 26  0  0  1  0  0  0  0  0999 V2000
   28.0049  -19.9012  -22.5759 C   0  0  0  0  0  0  0  0  0  0  0  0
   27.4163  -18.7956  -21.7181 C   0  0  1  0  0  0  0  0  0  0  0  0
   26.1484  -18.3417  -22.4700 C   0  0  0  0  0  0  0  0  0  0  0  0
   26.9767  -19.2864  -20.3824 C   0  0  0  0  0  0  0  0  0  0  0  0
   26.2021  -18.2567  -19.5743 C   0  0  2  0  0  0  0  0  0  0  0  0
   27.2186  -17.2530  -19.1708 N   0  0  0  0  0  0  0  0  0  0  0  0
   25.6575  -18.7999  -18.3123 C   0  0  0  0  0  0  0  0  0  0  0  0
   24.7915  -19.7068  -18.3758 O   0  0  0  0  0  0  0  0  0  0  0  0
   26.5947  -21.8886  -11.5419 N   0  0  0  0  0  0  0  0  0  0  0  0
   25.9726  -20.9136  -10.7419 C   0  0  0  0  0  0  0  0  0  0  0  0
   25.4072  -21.2284   -9.6410 N   0  0  0  0  0  0  0  0  0  0  0  0
   25.9659  -19.5529  -11.1537 N   0  0  0  0  0  0  0  0  0  0  0  0
   26.6610  -19.1148  -12.3436 C   0  0  0  0  0  0  0  0  0  0  0  0
   25.6616  -18.5751  -13.3290 C   0  0  0  0  0  0  0  0  0  0  0  0
   26.2600  -18.1971  -14.6480 C   0  0  0  0  0  0  0  0  0  0  0  0
   25.5316  -18.8770  -15.7783 C   0  0  2  0  0  0  0  0  0  0  0  0
   26.0648  -18.3521  -17.0276 N   0  0  0  0  0  0  0  0  0  0  0  0
   24.0662  -18.6724  -15.6870 C   0  0  0  0  0  0  0  0  0  0  0  0
   23.6253  -17.5024  -15.6589 O   0  0  0  0  0  0  0  0  0  0  0  0
   24.9162  -20.5280   -9.0568 C   0  0  0  0  0  0  0  0  0  0  0  0
   21.3308  -19.3768  -17.8978 C   0  0  2  0  0  0  0  0  0  0  0  0
   20.9311  -20.1141  -16.6491 O   0  0  0  0  0  0  0  0  0  0  0  0
   21.3561  -21.4444  -16.8059 C   0  0  2  0  0  0  0  0  0  0  0  0
   21.7121  -19.5389  -15.4888 N   0  0  0  0  0  0  0  0  0  0  0  0
   23.1395  -19.7429  -15.6300 C   0  0  0  0  0  0  0  0  0  0  0  0
   21.2313  -20.0726  -14.1934 O   0  0  0  0  0  0  0  0  0  0  0  0
   22.0258  -20.7295  -13.4751 O   0  0  0  0  0  0  0  0  0  0  0  0
  2  1  1  6
  3  2  1  0
  4  2  1  0
  5  4  1  0
  5  6  1  1
  7  5  1  0
  7  8  2  0
  9 10  1  0
 10 12  1  0
 11 10  2  0
 12 13  1  0
 13 14  1  0
 14 15  1  0
 16 17  1  0
 16 15  1  1
 17  7  1  0
 18 16  1  0
 19 18  2  0
 21 20  1  6
 21 23  1  0
 22 21  1  0
 23 24  1  1
 24 18  1  0
 25 23  1  0
 25 27  1  0
 26 25  2  0
M  END
$$$$
