LRT.pdb
     RDKit          3D

 27 26  0  0  1  0  0  0  0  0999 V2000
   22.3324  -21.0137   -6.6902 C   0  0  0  0  0  0  0  0  0  0  0  0
   23.7860  -21.0508   -7.1265 C   0  0  1  0  0  0  0  0  0  0  0  0
   24.1724  -22.5437   -7.0949 C   0  0  0  0  0  0  0  0  0  0  0  0
   23.9699  -20.5843   -8.5290 C   0  0  0  0  0  0  0  0  0  0  0  0
   25.4054  -20.6756   -9.0233 C   0  0  2  0  0  0  0  0  0  0  0  0
   26.1379  -19.6463   -8.2438 N   0  0  0  0  0  0  0  0  0  0  0  0
   25.5571  -20.2834  -10.4401 C   0  0  0  0  0  0  0  0  0  0  0  0
   25.5071  -19.0632  -10.7317 O   0  0  0  0  0  0  0  0  0  0  0  0
   26.6935  -23.9757  -17.3418 N   0  0  0  0  0  0  0  0  0  0  0  0
   27.2873  -22.8377  -17.9165 C   0  0  0  0  0  0  0  0  0  0  0  0
   27.1733  -22.5955  -19.1651 N   0  0  0  0  0  0  0  0  0  0  0  0
   28.0285  -21.9351  -17.1060 N   0  0  0  0  0  0  0  0  0  0  0  0
   28.1524  -22.1215  -15.6774 C   0  0  0  0  0  0  0  0  0  0  0  0
   27.0728  -21.3394  -14.9818 C   0  0  0  0  0  0  0  0  0  0  0  0
   26.9186  -21.6829  -13.5329 C   0  0  0  0  0  0  0  0  0  0  0  0
   25.8368  -20.8471  -12.8992 C   0  0  2  0  0  0  0  0  0  0  0  0
   25.7602  -21.2154  -11.4924 N   0  0  0  0  0  0  0  0  0  0  0  0
   24.5326  -21.0325  -13.5789 C   0  0  0  0  0  0  0  0  0  0  0  0
   23.9393  -22.1257  -13.4489 O   0  0  0  0  0  0  0  0  0  0  0  0
   27.6768  -21.8129  -19.6201 C   0  0  0  0  0  0  0  0  0  0  0  0
   22.4783  -17.8423  -15.7211 C   0  0  2  0  0  0  0  0  0  0  0  0
   21.8222  -18.8181  -14.7831 O   0  0  0  0  0  0  0  0  0  0  0  0
   20.5278  -19.0532  -15.2774 C   0  0  1  0  0  0  0  0  0  0  0  0
   22.5681  -20.1309  -14.8673 N   0  0  0  0  0  0  0  0  0  0  0  0
   23.9252  -20.0267  -14.3711 C   0  0  0  0  0  0  0  0  0  0  0  0
   22.5533  -20.6761  -16.2444 O   0  0  0  0  0  0  0  0  0  0  0  0
   21.4561  -21.0259  -16.7471 O   0  0  0  0  0  0  0  0  0  0  0  0
  2  1  1  6
  3  2  1  0
  4  2  1  0
  5  4  1  0
  5  6  1  1
  7  5  1  0
  7  8  2  0
  9 10  1  0
 10 12  1  0
 11 10  2  0
 12 13  1  0
 13 14  1  0
 14 15  1  0
 16 17  1  0
 16 15  1  6
 17  7  1  0
 18 16  1  0
 19 18  2  0
 21 20  1  1
 21 23  1  0
 22 21  1  0
 23 24  1  1
 24 18  1  0
 25 23  1  0
 25 27  1  0
 26 25  2  0
M  END
$$$$
