LRT.pdb
     RDKit          3D

 27 26  0  0  1  0  0  0  0  0999 V2000
   25.1790  -13.5671  -16.4183 C   0  0  0  0  0  0  0  0  0  0  0  0
   26.3157  -14.5365  -16.6886 C   0  0  1  0  0  0  0  0  0  0  0  0
   27.4864  -14.0274  -15.8229 C   0  0  0  0  0  0  0  0  0  0  0  0
   26.0046  -15.9185  -16.2288 C   0  0  0  0  0  0  0  0  0  0  0  0
   27.1796  -16.8789  -16.3316 C   0  0  2  0  0  0  0  0  0  0  0  0
   27.2605  -17.2214  -17.7737 N   0  0  0  0  0  0  0  0  0  0  0  0
   26.9452  -18.1594  -15.6318 C   0  0  0  0  0  0  0  0  0  0  0  0
   26.1341  -18.9757  -16.1339 O   0  0  0  0  0  0  0  0  0  0  0  0
   31.7185  -21.7902   -9.4050 N   0  0  0  0  0  0  0  0  0  0  0  0
   31.4755  -22.4498  -10.6231 C   0  0  0  0  0  0  0  0  0  0  0  0
   32.3292  -23.2638  -11.1123 N   0  0  0  0  0  0  0  0  0  0  0  0
   30.2649  -22.2155  -11.3306 N   0  0  0  0  0  0  0  0  0  0  0  0
   29.2139  -21.3851  -10.7859 C   0  0  0  0  0  0  0  0  0  0  0  0
   28.1701  -21.1527  -11.8430 C   0  0  0  0  0  0  0  0  0  0  0  0
   28.4177  -19.9342  -12.6765 C   0  0  0  0  0  0  0  0  0  0  0  0
   27.3112  -19.7414  -13.6808 C   0  0  2  0  0  0  0  0  0  0  0  0
   27.5924  -18.5184  -14.4197 N   0  0  0  0  0  0  0  0  0  0  0  0
   25.9819  -19.6851  -13.0270 C   0  0  0  0  0  0  0  0  0  0  0  0
   25.7824  -18.8171  -12.1491 O   0  0  0  0  0  0  0  0  0  0  0  0
   32.1627  -23.7620  -12.0051 C   0  0  0  0  0  0  0  0  0  0  0  0
   22.5434  -19.3230  -14.5305 C   0  0  2  0  0  0  0  0  0  0  0  0
   22.4869  -20.5668  -13.6865 O   0  0  0  0  0  0  0  0  0  0  0  0
   22.7316  -21.6537  -14.5432 C   0  0  2  0  0  0  0  0  0  0  0  0
   23.6314  -20.5216  -12.6990 N   0  0  0  0  0  0  0  0  0  0  0  0
   24.9243  -20.5709  -13.3510 C   0  0  0  0  0  0  0  0  0  0  0  0
   23.5146  -21.5936  -11.6835 O   0  0  0  0  0  0  0  0  0  0  0  0
   24.4315  -22.4481  -11.5947 O   0  0  0  0  0  0  0  0  0  0  0  0
  2  1  1  1
  3  2  1  0
  4  2  1  0
  5  4  1  0
  5  6  1  6
  7  5  1  0
  7  8  2  0
  9 10  1  0
 10 12  1  0
 11 10  2  0
 12 13  1  0
 13 14  1  0
 14 15  1  0
 16 17  1  0
 16 15  1  1
 17  7  1  0
 18 16  1  0
 19 18  2  0
 21 20  1  6
 21 23  1  0
 22 21  1  0
 23 24  1  1
 24 18  1  0
 25 23  1  0
 25 27  1  0
 26 25  2  0
M  END
$$$$
