LRT.pdb
     RDKit          3D

 27 26  0  0  1  0  0  0  0  0999 V2000
   31.2697  -21.4972   -8.3889 C   0  0  0  0  0  0  0  0  0  0  0  0
   31.1175  -21.6682   -9.8896 C   0  0  1  0  0  0  0  0  0  0  0  0
   31.0677  -23.1936  -10.1128 C   0  0  0  0  0  0  0  0  0  0  0  0
   29.8319  -21.1130  -10.3968 C   0  0  0  0  0  0  0  0  0  0  0  0
   29.6466  -21.2667  -11.8986 C   0  0  2  0  0  0  0  0  0  0  0  0
   30.8442  -20.6222  -12.4934 N   0  0  0  0  0  0  0  0  0  0  0  0
   28.4885  -20.5113  -12.4205 C   0  0  0  0  0  0  0  0  0  0  0  0
   28.5662  -19.2593  -12.4746 O   0  0  0  0  0  0  0  0  0  0  0  0
   23.0233  -20.9076  -18.0183 N   0  0  0  0  0  0  0  0  0  0  0  0
   23.2561  -19.5373  -18.2327 C   0  0  0  0  0  0  0  0  0  0  0  0
   22.3680  -18.7954  -18.7726 N   0  0  0  0  0  0  0  0  0  0  0  0
   24.4952  -18.9567  -17.8469 N   0  0  0  0  0  0  0  0  0  0  0  0
   25.5461  -19.7413  -17.2380 C   0  0  0  0  0  0  0  0  0  0  0  0
   25.3736  -19.7235  -15.7443 C   0  0  0  0  0  0  0  0  0  0  0  0
   26.4687  -20.4249  -15.0030 C   0  0  0  0  0  0  0  0  0  0  0  0
   26.2029  -20.4103  -13.5200 C   0  0  2  0  0  0  0  0  0  0  0  0
   27.2900  -21.1276  -12.8685 N   0  0  0  0  0  0  0  0  0  0  0  0
   24.8869  -21.0097  -13.1936 C   0  0  0  0  0  0  0  0  0  0  0  0
   24.7808  -22.2558  -13.1891 O   0  0  0  0  0  0  0  0  0  0  0  0
   22.5569  -17.8085  -19.0240 C   0  0  0  0  0  0  0  0  0  0  0  0
   22.9294  -21.0317  -10.2511 C   0  0  2  0  0  0  0  0  0  0  0  0
   21.9272  -20.5163  -11.2474 O   0  0  0  0  0  0  0  0  0  0  0  0
   21.9067  -19.1169  -11.1202 C   0  0  2  0  0  0  0  0  0  0  0  0
   22.4401  -20.8221  -12.6368 N   0  0  0  0  0  0  0  0  0  0  0  0
   23.7410  -20.2350  -12.8858 C   0  0  0  0  0  0  0  0  0  0  0  0
   21.4699  -20.4083  -13.6767 O   0  0  0  0  0  0  0  0  0  0  0  0
   21.8003  -19.5119  -14.4929 O   0  0  0  0  0  0  0  0  0  0  0  0
  2  1  1  1
  3  2  1  0
  4  2  1  0
  5  4  1  0
  5  6  1  6
  7  5  1  0
  7  8  2  0
  9 10  1  0
 10 12  1  0
 11 10  2  0
 12 13  1  0
 13 14  1  0
 14 15  1  0
 16 17  1  0
 16 15  1  6
 17  7  1  0
 18 16  1  0
 19 18  2  0
 21 20  1  1
 21 23  1  0
 22 21  1  0
 23 24  1  6
 24 18  1  0
 25 23  1  0
 25 27  1  0
 26 25  2  0
M  END
$$$$
