LRT.pdb
     RDKit          3D

 27 26  0  0  1  0  0  0  0  0999 V2000
   28.6108  -18.4506   -5.6843 C   0  0  0  0  0  0  0  0  0  0  0  0
   27.8404  -19.5935   -6.3206 C   0  0  1  0  0  0  0  0  0  0  0  0
   26.8639  -20.0721   -5.2268 C   0  0  0  0  0  0  0  0  0  0  0  0
   27.0133  -19.1468   -7.4759 C   0  0  0  0  0  0  0  0  0  0  0  0
   26.0065  -20.1846   -7.9479 C   0  0  2  0  0  0  0  0  0  0  0  0
   26.7411  -21.4733   -7.8937 N   0  0  0  0  0  0  0  0  0  0  0  0
   25.6137  -20.0104   -9.3620 C   0  0  0  0  0  0  0  0  0  0  0  0
   25.0741  -18.9296   -9.7042 O   0  0  0  0  0  0  0  0  0  0  0  0
   26.9839  -23.5025  -16.5867 N   0  0  0  0  0  0  0  0  0  0  0  0
   26.2733  -22.3743  -17.0341 C   0  0  0  0  0  0  0  0  0  0  0  0
   25.5933  -22.4107  -18.1143 N   0  0  0  0  0  0  0  0  0  0  0  0
   26.3044  -21.1686  -16.2815 N   0  0  0  0  0  0  0  0  0  0  0  0
   26.8090  -21.1301  -14.9270 C   0  0  0  0  0  0  0  0  0  0  0  0
   25.8053  -21.7691  -14.0076 C   0  0  0  0  0  0  0  0  0  0  0  0
   26.2359  -21.8008  -12.5743 C   0  0  0  0  0  0  0  0  0  0  0  0
   25.4061  -20.8532  -11.7473 C   0  0  2  0  0  0  0  0  0  0  0  0
   25.8172  -21.0019  -10.3582 N   0  0  0  0  0  0  0  0  0  0  0  0
   23.9553  -21.1087  -11.9125 C   0  0  0  0  0  0  0  0  0  0  0  0
   23.4682  -22.1445  -11.4088 O   0  0  0  0  0  0  0  0  0  0  0  0
   25.0693  -21.5869  -18.4604 C   0  0  0  0  0  0  0  0  0  0  0  0
   20.7336  -18.9623  -11.2947 C   0  0  2  0  0  0  0  0  0  0  0  0
   20.8046  -19.3368  -12.7498 O   0  0  0  0  0  0  0  0  0  0  0  0
   21.4455  -18.2770  -13.4139 C   0  0  2  0  0  0  0  0  0  0  0  0
   21.7036  -20.5454  -12.8847 N   0  0  0  0  0  0  0  0  0  0  0  0
   23.0924  -20.2321  -12.6162 C   0  0  0  0  0  0  0  0  0  0  0  0
   21.5571  -21.1852  -14.2125 O   0  0  0  0  0  0  0  0  0  0  0  0
   22.5620  -21.2633  -14.9628 O   0  0  0  0  0  0  0  0  0  0  0  0
  2  1  1  1
  3  2  1  0
  4  2  1  0
  5  4  1  0
  5  6  1  6
  7  5  1  0
  7  8  2  0
  9 10  1  0
 10 12  1  0
 11 10  2  0
 12 13  1  0
 13 14  1  0
 14 15  1  0
 16 17  1  0
 16 15  1  6
 17  7  1  0
 18 16  1  0
 19 18  2  0
 21 20  1  6
 21 23  1  0
 22 21  1  0
 23 24  1  6
 24 18  1  0
 25 23  1  0
 25 27  1  0
 26 25  2  0
M  END
$$$$
