LRT.pdb
     RDKit          3D

 27 26  0  0  1  0  0  0  0  0999 V2000
   37.7333  -10.6842  -17.2422 C   0  0  0  0  0  0  0  0  0  0  0  0
   36.5605  -11.6035  -17.5321 C   0  0  1  0  0  0  0  0  0  0  0  0
   36.2267  -12.2609  -16.1773 C   0  0  0  0  0  0  0  0  0  0  0  0
   35.3464  -10.8562  -17.9630 C   0  0  0  0  0  0  0  0  0  0  0  0
   34.1056  -11.7257  -18.0971 C   0  0  2  0  0  0  0  0  0  0  0  0
   34.4206  -12.6626  -19.2046 N   0  0  0  0  0  0  0  0  0  0  0  0
   32.9143  -10.9720  -18.5411 C   0  0  0  0  0  0  0  0  0  0  0  0
   32.9235  -10.4598  -19.6873 O   0  0  0  0  0  0  0  0  0  0  0  0
   27.0727  -11.9424  -15.2541 N   0  0  0  0  0  0  0  0  0  0  0  0
   26.2964  -11.8500  -16.4232 C   0  0  0  0  0  0  0  0  0  0  0  0
   25.1328  -11.3247  -16.4007 N   0  0  0  0  0  0  0  0  0  0  0  0
   26.8035  -12.3453  -17.6556 N   0  0  0  0  0  0  0  0  0  0  0  0
   28.0866  -13.0066  -17.7395 C   0  0  0  0  0  0  0  0  0  0  0  0
   29.0740  -12.0866  -18.4026 C   0  0  0  0  0  0  0  0  0  0  0  0
   29.3661  -10.8477  -17.6148 C   0  0  0  0  0  0  0  0  0  0  0  0
   30.5504  -10.1161  -18.1915 C   0  0  2  0  0  0  0  0  0  0  0  0
   31.7549  -10.7982  -17.7395 N   0  0  0  0  0  0  0  0  0  0  0  0
   30.5569   -8.6874  -17.7964 C   0  0  0  0  0  0  0  0  0  0  0  0
   30.6463   -8.4021  -16.5820 O   0  0  0  0  0  0  0  0  0  0  0  0
   24.5912  -11.1543  -17.2671 C   0  0  0  0  0  0  0  0  0  0  0  0
   32.8322   -5.9501  -18.0121 C   0  0  2  0  0  0  0  0  0  0  0  0
   31.6461   -5.4693  -18.8024 O   0  0  0  0  0  0  0  0  0  0  0  0
   31.8708   -5.8352  -20.1405 C   0  0  2  0  0  0  0  0  0  0  0  0
   30.4263   -6.2336  -18.3385 N   0  0  0  0  0  0  0  0  0  0  0  0
   30.4663   -7.6272  -18.7323 C   0  0  0  0  0  0  0  0  0  0  0  0
   29.1748   -5.5925  -18.8039 O   0  0  0  0  0  0  0  0  0  0  0  0
   28.9195   -4.4193  -18.4333 O   0  0  0  0  0  0  0  0  0  0  0  0
  2  1  1  1
  3  2  1  0
  4  2  1  0
  5  4  1  0
  5  6  1  6
  7  5  1  0
  7  8  2  0
  9 10  1  0
 10 12  1  0
 11 10  2  0
 12 13  1  0
 13 14  1  0
 14 15  1  0
 16 17  1  0
 16 15  1  1
 17  7  1  0
 18 16  1  0
 19 18  2  0
 21 20  1  6
 21 23  1  0
 22 21  1  0
 23 24  1  1
 24 18  1  0
 25 23  1  0
 25 27  1  0
 26 25  2  0
M  END
$$$$
