WWT.pdb
     RDKit          3D

 36 39  0  0  1  0  0  0  0  0999 V2000
   27.6628  -21.8587  -14.8860 N   0  0  0  0  0  0  0  0  0  0  0  0
   26.9613  -20.8126  -14.2338 C   0  0  1  0  0  0  0  0  0  0  0  0
   26.1374  -20.0198  -15.1837 C   0  0  0  0  0  0  0  0  0  0  0  0
   27.0095  -19.3947  -16.2116 C   0  0  0  0  0  0  0  0  0  0  0  0
   28.1283  -18.5852  -15.9477 C   0  0  0  0  0  0  0  0  0  0  0  0
   28.7053  -18.2174  -17.0949 N   0  0  0  0  0  0  0  0  0  0  0  0
   28.0196  -18.7461  -18.1192 C   0  0  0  0  0  0  0  0  0  0  0  0
   28.1662  -18.6857  -19.4913 C   0  0  0  0  0  0  0  0  0  0  0  0
   27.3071  -19.3221  -20.3531 C   0  0  0  0  0  0  0  0  0  0  0  0
   26.2802  -20.0314  -19.7829 C   0  0  0  0  0  0  0  0  0  0  0  0
   26.0862  -20.1255  -18.4114 C   0  0  0  0  0  0  0  0  0  0  0  0
   26.9659  -19.4775  -17.5889 C   0  0  0  0  0  0  0  0  0  0  0  0
   26.1559  -21.2794  -13.0488 C   0  0  0  0  0  0  0  0  0  0  0  0
   25.5752  -22.3603  -13.1642 O   0  0  0  0  0  0  0  0  0  0  0  0
   26.0605  -20.5291  -11.8582 N   0  0  0  0  0  0  0  0  0  0  0  0
   25.1097  -20.6565  -10.8011 C   0  0  1  0  0  0  0  0  0  0  0  0
   25.5272  -20.0999   -9.4853 C   0  0  0  0  0  0  0  0  0  0  0  0
   26.8870  -20.4874   -9.0765 C   0  0  0  0  0  0  0  0  0  0  0  0
   27.7924  -21.2994   -9.7599 C   0  0  0  0  0  0  0  0  0  0  0  0
   28.9299  -21.3824   -9.0557 N   0  0  0  0  0  0  0  0  0  0  0  0
   28.7904  -20.6494   -7.9353 C   0  0  0  0  0  0  0  0  0  0  0  0
   29.6394  -20.3993   -6.8773 C   0  0  0  0  0  0  0  0  0  0  0  0
   29.2686  -19.6044   -5.8118 C   0  0  0  0  0  0  0  0  0  0  0  0
   28.0122  -19.0357   -5.7907 C   0  0  0  0  0  0  0  0  0  0  0  0
   27.1783  -19.2976   -6.8573 C   0  0  0  0  0  0  0  0  0  0  0  0
   27.5299  -20.0877   -7.9312 C   0  0  0  0  0  0  0  0  0  0  0  0
   23.6932  -20.3360  -11.1754 C   0  0  0  0  0  0  0  0  0  0  0  0
   23.3664  -19.1271  -11.2444 O   0  0  0  0  0  0  0  0  0  0  0  0
   22.1732  -20.7411  -14.2992 C   0  0  0  0  0  0  0  0  0  0  0  0
   21.2545  -21.4238  -13.3574 C   0  0  1  0  0  0  0  0  0  0  0  0
   21.4617  -22.8183  -13.4705 O   0  0  0  0  0  0  0  0  0  0  0  0
   21.4257  -21.0553  -11.9048 C   0  0  2  0  0  0  0  0  0  0  0  0
   22.7613  -21.3779  -11.4420 N   0  0  0  0  0  0  0  0  0  0  0  0
   20.4533  -21.6420  -10.9975 C   0  0  0  0  0  0  0  0  0  0  0  0
   19.0828  -21.4507  -11.0163 O   0  0  0  0  0  0  0  0  0  0  0  0
   20.8668  -22.4179  -10.0761 O   0  0  0  0  0  0  0  0  0  0  0  0
  2  3  1  0
  2  1  1  6
  4 12  1  0
  4  3  1  0
  5  4  2  0
  6  5  1  0
  6  7  1  0
  7  8  1  0
  7 12  2  0
  8  9  2  0
  9 10  1  0
 11 10  2  0
 12 11  1  0
 13  2  1  0
 14 13  2  0
 15 13  1  0
 16 15  1  0
 16 17  1  1
 18 17  1  0
 19 18  2  0
 20 19  1  0
 21 20  1  0
 21 26  2  0
 22 21  1  0
 23 22  2  0
 23 24  1  0
 24 25  2  0
 25 26  1  0
 26 18  1  0
 27 16  1  0
 27 28  2  0
 30 32  1  0
 30 29  1  6
 31 30  1  0
 32 33  1  1
 33 27  1  0
 34 32  1  0
 35 34  1  0
 36 34  2  0
M  END
$$$$
