WWT.pdb
     RDKit          3D

 36 39  0  0  1  0  0  0  0  0999 V2000
   27.3754  -21.1850  -15.7377 N   0  0  0  0  0  0  0  0  0  0  0  0
   27.5083  -20.3587  -14.5925 C   0  0  1  0  0  0  0  0  0  0  0  0
   26.9257  -19.0088  -14.8108 C   0  0  0  0  0  0  0  0  0  0  0  0
   27.5489  -18.3742  -16.0011 C   0  0  0  0  0  0  0  0  0  0  0  0
   26.8656  -17.9758  -17.1634 C   0  0  0  0  0  0  0  0  0  0  0  0
   27.7184  -17.4100  -18.0219 N   0  0  0  0  0  0  0  0  0  0  0  0
   28.9472  -17.4124  -17.4843 C   0  0  0  0  0  0  0  0  0  0  0  0
   30.1781  -16.9699  -17.9279 C   0  0  0  0  0  0  0  0  0  0  0  0
   31.3211  -17.0964  -17.1774 C   0  0  0  0  0  0  0  0  0  0  0  0
   31.1852  -17.6914  -15.9485 C   0  0  0  0  0  0  0  0  0  0  0  0
   29.9733  -18.1538  -15.4536 C   0  0  0  0  0  0  0  0  0  0  0  0
   28.8593  -18.0067  -16.2331 C   0  0  0  0  0  0  0  0  0  0  0  0
   26.9869  -20.9960  -13.3304 C   0  0  0  0  0  0  0  0  0  0  0  0
   26.1362  -21.8775  -13.4649 O   0  0  0  0  0  0  0  0  0  0  0  0
   27.4393  -20.6149  -12.0499 N   0  0  0  0  0  0  0  0  0  0  0  0
   26.8389  -20.8755  -10.7812 C   0  0  1  0  0  0  0  0  0  0  0  0
   27.7387  -20.7504   -9.6022 C   0  0  0  0  0  0  0  0  0  0  0  0
   27.0359  -20.7688   -8.3091 C   0  0  0  0  0  0  0  0  0  0  0  0
   25.7126  -21.1294   -8.0540 C   0  0  0  0  0  0  0  0  0  0  0  0
   25.4739  -21.0312   -6.7388 N   0  0  0  0  0  0  0  0  0  0  0  0
   26.6019  -20.6171   -6.1320 C   0  0  0  0  0  0  0  0  0  0  0  0
   26.9030  -20.3518   -4.8122 C   0  0  0  0  0  0  0  0  0  0  0  0
   28.1536  -19.9219   -4.4176 C   0  0  0  0  0  0  0  0  0  0  0  0
   29.1435  -19.7474   -5.3621 C   0  0  0  0  0  0  0  0  0  0  0  0
   28.8230  -20.0178   -6.6758 C   0  0  0  0  0  0  0  0  0  0  0  0
   27.5806  -20.4489   -7.0902 C   0  0  0  0  0  0  0  0  0  0  0  0
   25.4837  -20.2655  -10.5798 C   0  0  0  0  0  0  0  0  0  0  0  0
   25.4311  -19.0802  -10.1731 O   0  0  0  0  0  0  0  0  0  0  0  0
   23.4120  -19.4120  -13.2343 C   0  0  0  0  0  0  0  0  0  0  0  0
   22.5528  -20.2333  -12.3486 C   0  0  1  0  0  0  0  0  0  0  0  0
   22.4898  -21.5412  -12.8830 O   0  0  0  0  0  0  0  0  0  0  0  0
   23.0202  -20.3485  -10.9191 C   0  0  2  0  0  0  0  0  0  0  0  0
   24.3048  -21.0167  -10.8459 N   0  0  0  0  0  0  0  0  0  0  0  0
   22.0908  -21.0039  -10.0139 C   0  0  0  0  0  0  0  0  0  0  0  0
   20.8699  -20.5145   -9.5835 O   0  0  0  0  0  0  0  0  0  0  0  0
   22.3964  -22.1487   -9.5468 O   0  0  0  0  0  0  0  0  0  0  0  0
  2  3  1  0
  2  1  1  6
  4 12  1  0
  4  3  1  0
  5  4  2  0
  6  5  1  0
  6  7  1  0
  7  8  1  0
  7 12  2  0
  8  9  2  0
  9 10  1  0
 11 10  2  0
 12 11  1  0
 13  2  1  0
 14 13  2  0
 15 13  1  0
 16 15  1  0
 16 17  1  1
 18 17  1  0
 19 18  2  0
 20 19  1  0
 21 20  1  0
 21 26  2  0
 22 21  1  0
 23 22  2  0
 23 24  1  0
 24 25  2  0
 25 26  1  0
 26 18  1  0
 27 16  1  0
 27 28  2  0
 30 32  1  0
 30 29  1  6
 31 30  1  0
 32 33  1  6
 33 27  1  0
 34 32  1  0
 35 34  1  0
 36 34  2  0
M  END
$$$$
