WWT.pdb
     RDKit          3D

 36 39  0  0  1  0  0  0  0  0999 V2000
   25.0822  -19.0753  -12.0015 N   0  0  0  0  0  0  0  0  0  0  0  0
   25.8453  -20.2586  -12.1722 C   0  0  1  0  0  0  0  0  0  0  0  0
   25.2434  -21.4154  -11.4587 C   0  0  0  0  0  0  0  0  0  0  0  0
   25.0901  -21.0967  -10.0155 C   0  0  0  0  0  0  0  0  0  0  0  0
   23.8704  -21.0423   -9.3184 C   0  0  0  0  0  0  0  0  0  0  0  0
   24.0933  -20.7631   -8.0312 N   0  0  0  0  0  0  0  0  0  0  0  0
   25.4131  -20.6271   -7.8349 C   0  0  0  0  0  0  0  0  0  0  0  0
   26.1826  -20.3375   -6.7250 C   0  0  0  0  0  0  0  0  0  0  0  0
   27.5513  -20.2414   -6.7818 C   0  0  0  0  0  0  0  0  0  0  0  0
   28.1303  -20.4484   -8.0084 C   0  0  0  0  0  0  0  0  0  0  0  0
   27.4054  -20.7423   -9.1553 C   0  0  0  0  0  0  0  0  0  0  0  0
   26.0444  -20.8300   -9.0541 C   0  0  0  0  0  0  0  0  0  0  0  0
   26.1361  -20.5808  -13.6154 C   0  0  0  0  0  0  0  0  0  0  0  0
   25.4790  -19.9729  -14.4624 O   0  0  0  0  0  0  0  0  0  0  0  0
   27.1091  -21.5284  -13.9958 N   0  0  0  0  0  0  0  0  0  0  0  0
   28.0938  -21.4271  -15.0244 C   0  0  1  0  0  0  0  0  0  0  0  0
   29.4944  -21.7115  -14.6088 C   0  0  0  0  0  0  0  0  0  0  0  0
   29.9043  -21.0202  -13.3758 C   0  0  0  0  0  0  0  0  0  0  0  0
   29.4428  -19.8011  -12.8788 C   0  0  0  0  0  0  0  0  0  0  0  0
   30.0544  -19.5387  -11.7153 N   0  0  0  0  0  0  0  0  0  0  0  0
   30.8995  -20.5501  -11.4418 C   0  0  0  0  0  0  0  0  0  0  0  0
   31.7640  -20.7801  -10.3917 C   0  0  0  0  0  0  0  0  0  0  0  0
   32.5544  -21.9095  -10.3268 C   0  0  0  0  0  0  0  0  0  0  0  0
   32.4886  -22.8464  -11.3369 C   0  0  0  0  0  0  0  0  0  0  0  0
   31.6185  -22.5984  -12.3777 C   0  0  0  0  0  0  0  0  0  0  0  0
   30.8200  -21.4774  -12.4607 C   0  0  0  0  0  0  0  0  0  0  0  0
   27.7112  -22.0448  -16.3364 C   0  0  0  0  0  0  0  0  0  0  0  0
   27.3239  -23.2376  -16.3298 O   0  0  0  0  0  0  0  0  0  0  0  0
   25.1269  -20.5617  -18.9282 C   0  0  0  0  0  0  0  0  0  0  0  0
   26.4493  -20.8544  -19.5304 C   0  0  1  0  0  0  0  0  0  0  0  0
   27.1809  -19.6459  -19.5988 O   0  0  0  0  0  0  0  0  0  0  0  0
   27.2939  -21.8552  -18.7820 C   0  0  2  0  0  0  0  0  0  0  0  0
   27.7885  -21.2914  -17.5412 N   0  0  0  0  0  0  0  0  0  0  0  0
   28.4099  -22.4081  -19.5314 C   0  0  0  0  0  0  0  0  0  0  0  0
   29.7541  -22.1512  -19.3251 O   0  0  0  0  0  0  0  0  0  0  0  0
   28.1659  -23.2166  -20.4847 O   0  0  0  0  0  0  0  0  0  0  0  0
  2  3  1  0
  2  1  1  6
  4 12  1  0
  4  3  1  0
  5  4  2  0
  6  5  1  0
  6  7  1  0
  7  8  1  0
  7 12  2  0
  8  9  2  0
  9 10  1  0
 11 10  2  0
 12 11  1  0
 13  2  1  0
 14 13  2  0
 15 13  1  0
 16 15  1  0
 16 17  1  1
 18 17  1  0
 19 18  2  0
 20 19  1  0
 21 20  1  0
 21 26  2  0
 22 21  1  0
 23 22  2  0
 23 24  1  0
 24 25  2  0
 25 26  1  0
 26 18  1  0
 27 16  1  0
 27 28  2  0
 30 32  1  0
 30 29  1  1
 31 30  1  0
 32 33  1  1
 33 27  1  0
 34 32  1  0
 35 34  1  0
 36 34  2  0
M  END
$$$$
