WWT.pdb
     RDKit          3D

 36 39  0  0  1  0  0  0  0  0999 V2000
   26.1264  -20.9439  -16.1840 N   0  0  0  0  0  0  0  0  0  0  0  0
   25.0889  -20.2475  -15.5129 C   0  0  1  0  0  0  0  0  0  0  0  0
   23.8804  -20.0954  -16.3650 C   0  0  0  0  0  0  0  0  0  0  0  0
   24.1810  -19.2058  -17.5166 C   0  0  0  0  0  0  0  0  0  0  0  0
   24.5504  -17.8524  -17.4257 C   0  0  0  0  0  0  0  0  0  0  0  0
   24.7811  -17.3601  -18.6460 N   0  0  0  0  0  0  0  0  0  0  0  0
   24.5812  -18.3274  -19.5533 C   0  0  0  0  0  0  0  0  0  0  0  0
   24.6682  -18.3688  -20.9312 C   0  0  0  0  0  0  0  0  0  0  0  0
   24.3985  -19.5055  -21.6529 C   0  0  0  0  0  0  0  0  0  0  0  0
   24.0326  -20.6158  -20.9344 C   0  0  0  0  0  0  0  0  0  0  0  0
   23.9296  -20.6299  -19.5500 C   0  0  0  0  0  0  0  0  0  0  0  0
   24.2084  -19.4765  -18.8701 C   0  0  0  0  0  0  0  0  0  0  0  0
   24.7529  -20.8286  -14.1637 C   0  0  0  0  0  0  0  0  0  0  0  0
   24.3480  -21.9924  -14.1464 O   0  0  0  0  0  0  0  0  0  0  0  0
   24.8896  -20.0911  -12.9691 N   0  0  0  0  0  0  0  0  0  0  0  0
   24.4252  -20.4241  -11.6610 C   0  0  1  0  0  0  0  0  0  0  0  0
   25.1212  -19.7434  -10.5351 C   0  0  0  0  0  0  0  0  0  0  0  0
   26.4432  -20.3085  -10.2202 C   0  0  0  0  0  0  0  0  0  0  0  0
   27.2756  -21.0630  -11.0472 C   0  0  0  0  0  0  0  0  0  0  0  0
   28.4023  -21.3618  -10.3854 N   0  0  0  0  0  0  0  0  0  0  0  0
   28.3266  -20.8246   -9.1534 C   0  0  0  0  0  0  0  0  0  0  0  0
   29.1947  -20.8334   -8.0814 C   0  0  0  0  0  0  0  0  0  0  0  0
   28.8938  -20.2066   -6.8893 C   0  0  0  0  0  0  0  0  0  0  0  0
   27.6904  -19.5468   -6.7511 C   0  0  0  0  0  0  0  0  0  0  0  0
   26.8365  -19.5492   -7.8339 C   0  0  0  0  0  0  0  0  0  0  0  0
   27.1187  -20.1684   -9.0332 C   0  0  0  0  0  0  0  0  0  0  0  0
   22.9342  -20.4814  -11.5090 C   0  0  0  0  0  0  0  0  0  0  0  0
   22.2805  -19.4421  -11.7645 O   0  0  0  0  0  0  0  0  0  0  0  0
   20.5286  -21.8933  -13.4817 C   0  0  0  0  0  0  0  0  0  0  0  0
   20.2467  -22.4731  -12.1471 C   0  0  1  0  0  0  0  0  0  0  0  0
   20.7534  -23.7934  -12.1228 O   0  0  0  0  0  0  0  0  0  0  0  0
   20.8501  -21.7332  -10.9794 C   0  0  2  0  0  0  0  0  0  0  0  0
   22.2949  -21.6814  -11.0892 N   0  0  0  0  0  0  0  0  0  0  0  0
   20.4908  -22.2462   -9.6677 C   0  0  0  0  0  0  0  0  0  0  0  0
   21.3521  -22.7687   -8.7187 O   0  0  0  0  0  0  0  0  0  0  0  0
   19.2660  -22.2305   -9.3193 O   0  0  0  0  0  0  0  0  0  0  0  0
  2  3  1  0
  2  1  1  6
  4 12  1  0
  4  3  1  0
  5  4  2  0
  6  5  1  0
  6  7  1  0
  7  8  1  0
  7 12  2  0
  8  9  2  0
  9 10  1  0
 11 10  2  0
 12 11  1  0
 13  2  1  0
 14 13  2  0
 15 13  1  0
 16 15  1  0
 16 17  1  1
 18 17  1  0
 19 18  2  0
 20 19  1  0
 21 20  1  0
 21 26  2  0
 22 21  1  0
 23 22  2  0
 23 24  1  0
 24 25  2  0
 25 26  1  0
 26 18  1  0
 27 16  1  0
 27 28  2  0
 30 32  1  0
 30 29  1  6
 31 30  1  0
 32 33  1  6
 33 27  1  0
 34 32  1  0
 35 34  1  0
 36 34  2  0
M  END
$$$$
