WWT.pdb
     RDKit          3D

 36 39  0  0  1  0  0  0  0  0999 V2000
   24.8687  -20.7366  -13.5138 N   0  0  0  0  0  0  0  0  0  0  0  0
   23.9465  -20.3487  -12.5083 C   0  0  1  0  0  0  0  0  0  0  0  0
   22.5385  -20.4734  -12.9682 C   0  0  0  0  0  0  0  0  0  0  0  0
   22.3061  -19.5848  -14.1361 C   0  0  0  0  0  0  0  0  0  0  0  0
   22.9345  -19.7039  -15.3881 C   0  0  0  0  0  0  0  0  0  0  0  0
   22.4725  -18.7670  -16.2208 N   0  0  0  0  0  0  0  0  0  0  0  0
   21.5597  -18.0227  -15.5793 C   0  0  0  0  0  0  0  0  0  0  0  0
   20.7873  -16.9395  -15.9508 C   0  0  0  0  0  0  0  0  0  0  0  0
   19.9096  -16.3297  -15.0886 C   0  0  0  0  0  0  0  0  0  0  0  0
   19.8322  -16.8512  -13.8218 C   0  0  0  0  0  0  0  0  0  0  0  0
   20.5845  -17.9374  -13.3957 C   0  0  0  0  0  0  0  0  0  0  0  0
   21.4455  -18.5159  -14.2870 C   0  0  0  0  0  0  0  0  0  0  0  0
   24.1689  -21.0454  -11.1907 C   0  0  0  0  0  0  0  0  0  0  0  0
   24.2416  -22.2753  -11.2192 O   0  0  0  0  0  0  0  0  0  0  0  0
   24.2904  -20.3402   -9.9752 N   0  0  0  0  0  0  0  0  0  0  0  0
   24.0765  -20.8161   -8.6465 C   0  0  1  0  0  0  0  0  0  0  0  0
   24.9128  -20.1831   -7.5905 C   0  0  0  0  0  0  0  0  0  0  0  0
   26.3585  -20.3978   -7.7640 C   0  0  0  0  0  0  0  0  0  0  0  0
   27.0163  -21.0008   -8.8364 C   0  0  0  0  0  0  0  0  0  0  0  0
   28.3379  -20.9752   -8.6146 N   0  0  0  0  0  0  0  0  0  0  0  0
   28.5584  -20.3744   -7.4303 C   0  0  0  0  0  0  0  0  0  0  0  0
   29.7145  -20.0956   -6.7314 C   0  0  0  0  0  0  0  0  0  0  0  0
   29.6951  -19.4634   -5.5047 C   0  0  0  0  0  0  0  0  0  0  0  0
   28.4887  -19.0933   -4.9478 C   0  0  0  0  0  0  0  0  0  0  0  0
   27.3446  -19.3807   -5.6620 C   0  0  0  0  0  0  0  0  0  0  0  0
   27.3426  -20.0102   -6.8887 C   0  0  0  0  0  0  0  0  0  0  0  0
   22.6393  -20.9967   -8.2575 C   0  0  0  0  0  0  0  0  0  0  0  0
   21.8042  -20.1780   -8.7105 O   0  0  0  0  0  0  0  0  0  0  0  0
   20.1763  -21.2937   -9.3687 C   0  0  0  0  0  0  0  0  0  0  0  0
   20.0855  -22.4572   -8.4549 C   0  0  1  0  0  0  0  0  0  0  0  0
   20.5952  -23.5905   -9.1305 O   0  0  0  0  0  0  0  0  0  0  0  0
   20.8435  -22.3222   -7.1579 C   0  0  2  0  0  0  0  0  0  0  0  0
   22.2493  -22.0659   -7.4033 N   0  0  0  0  0  0  0  0  0  0  0  0
   20.7172  -23.4470   -6.2460 C   0  0  0  0  0  0  0  0  0  0  0  0
   19.5606  -23.8817   -5.6226 O   0  0  0  0  0  0  0  0  0  0  0  0
   21.7568  -24.1277   -5.9666 O   0  0  0  0  0  0  0  0  0  0  0  0
  2  3  1  0
  2  1  1  6
  4 12  1  0
  4  3  1  0
  5  4  2  0
  6  5  1  0
  6  7  1  0
  7  8  1  0
  7 12  2  0
  8  9  2  0
  9 10  1  0
 11 10  2  0
 12 11  1  0
 13  2  1  0
 14 13  2  0
 15 13  1  0
 16 15  1  0
 16 17  1  1
 18 17  1  0
 19 18  2  0
 20 19  1  0
 21 20  1  0
 21 26  2  0
 22 21  1  0
 23 22  2  0
 23 24  1  0
 24 25  2  0
 25 26  1  0
 26 18  1  0
 27 16  1  0
 27 28  2  0
 30 32  1  0
 30 29  1  6
 31 30  1  0
 32 33  1  6
 33 27  1  0
 34 32  1  0
 35 34  1  0
 36 34  2  0
M  END
$$$$
