WWT.pdb
     RDKit          3D

 36 39  0  0  1  0  0  0  0  0999 V2000
   26.4174  -18.8588   -9.9644 N   0  0  0  0  0  0  0  0  0  0  0  0
   26.5205  -20.1003  -10.6425 C   0  0  1  0  0  0  0  0  0  0  0  0
   26.2655  -21.2509   -9.7366 C   0  0  0  0  0  0  0  0  0  0  0  0
   26.7032  -20.9163   -8.3567 C   0  0  0  0  0  0  0  0  0  0  0  0
   25.8482  -20.6657   -7.2691 C   0  0  0  0  0  0  0  0  0  0  0  0
   26.5679  -20.4310   -6.1684 N   0  0  0  0  0  0  0  0  0  0  0  0
   27.8717  -20.5131   -6.4720 C   0  0  0  0  0  0  0  0  0  0  0  0
   29.0295  -20.3568   -5.7350 C   0  0  0  0  0  0  0  0  0  0  0  0
   30.2791  -20.4855   -6.2896 C   0  0  0  0  0  0  0  0  0  0  0  0
   30.3285  -20.7802   -7.6287 C   0  0  0  0  0  0  0  0  0  0  0  0
   29.1975  -20.9478   -8.4161 C   0  0  0  0  0  0  0  0  0  0  0  0
   27.9724  -20.8124   -7.8235 C   0  0  0  0  0  0  0  0  0  0  0  0
   25.6787  -20.1729  -11.8903 C   0  0  0  0  0  0  0  0  0  0  0  0
   24.5096  -19.7952  -11.7932 O   0  0  0  0  0  0  0  0  0  0  0  0
   26.1875  -20.6468  -13.1175 N   0  0  0  0  0  0  0  0  0  0  0  0
   25.5353  -20.7079  -14.3858 C   0  0  1  0  0  0  0  0  0  0  0  0
   26.4304  -20.8434  -15.5673 C   0  0  0  0  0  0  0  0  0  0  0  0
   25.7645  -20.5865  -16.8545 C   0  0  0  0  0  0  0  0  0  0  0  0
   25.1382  -19.4150  -17.2806 C   0  0  0  0  0  0  0  0  0  0  0  0
   24.6796  -19.5881  -18.5281 N   0  0  0  0  0  0  0  0  0  0  0  0
   24.9884  -20.8368  -18.9249 C   0  0  0  0  0  0  0  0  0  0  0  0
   24.7512  -21.5243  -20.0970 C   0  0  0  0  0  0  0  0  0  0  0  0
   25.1645  -22.8285  -20.2785 C   0  0  0  0  0  0  0  0  0  0  0  0
   25.8369  -23.4776  -19.2642 C   0  0  0  0  0  0  0  0  0  0  0  0
   26.0644  -22.7735  -18.1005 C   0  0  0  0  0  0  0  0  0  0  0  0
   25.6608  -21.4704  -17.8999 C   0  0  0  0  0  0  0  0  0  0  0  0
   24.3223  -21.5885  -14.4374 C   0  0  0  0  0  0  0  0  0  0  0  0
   24.3895  -22.7089  -13.8778 O   0  0  0  0  0  0  0  0  0  0  0  0
   19.6693  -21.8117  -13.7755 C   0  0  0  0  0  0  0  0  0  0  0  0
   21.0742  -21.3413  -13.8220 C   0  0  1  0  0  0  0  0  0  0  0  0
   21.7016  -21.7023  -12.6070 O   0  0  0  0  0  0  0  0  0  0  0  0
   21.9073  -21.9015  -14.9477 C   0  0  2  0  0  0  0  0  0  0  0  0
   23.1406  -21.1550  -15.1012 N   0  0  0  0  0  0  0  0  0  0  0  0
   21.2366  -21.9820  -16.2348 C   0  0  0  0  0  0  0  0  0  0  0  0
   20.7543  -20.9234  -16.9846 O   0  0  0  0  0  0  0  0  0  0  0  0
   21.0552  -23.1282  -16.7594 O   0  0  0  0  0  0  0  0  0  0  0  0
  2  3  1  0
  2  1  1  1
  4 12  1  0
  4  3  1  0
  5  4  2  0
  6  5  1  0
  6  7  1  0
  7  8  1  0
  7 12  2  0
  8  9  2  0
  9 10  1  0
 11 10  2  0
 12 11  1  0
 13  2  1  0
 14 13  2  0
 15 13  1  0
 16 15  1  0
 16 17  1  6
 18 17  1  0
 19 18  2  0
 20 19  1  0
 21 20  1  0
 21 26  2  0
 22 21  1  0
 23 22  2  0
 23 24  1  0
 24 25  2  0
 25 26  1  0
 26 18  1  0
 27 16  1  0
 27 28  2  0
 30 32  1  0
 30 29  1  1
 31 30  1  0
 32 33  1  6
 33 27  1  0
 34 32  1  0
 35 34  1  0
 36 34  2  0
M  END
$$$$
