WWT.pdb
     RDKit          3D

 36 39  0  0  1  0  0  0  0  0999 V2000
   24.8059  -21.0773   -8.7550 N   0  0  0  0  0  0  0  0  0  0  0  0
   25.7642  -20.4986   -9.6260 C   0  0  1  0  0  0  0  0  0  0  0  0
   27.1541  -20.8567   -9.2394 C   0  0  0  0  0  0  0  0  0  0  0  0
   27.5149  -20.1840   -7.9646 C   0  0  0  0  0  0  0  0  0  0  0  0
   26.7519  -19.1934   -7.3219 C   0  0  0  0  0  0  0  0  0  0  0  0
   27.3456  -18.8287   -6.1822 N   0  0  0  0  0  0  0  0  0  0  0  0
   28.4770  -19.5335   -6.0330 C   0  0  0  0  0  0  0  0  0  0  0  0
   29.4606  -19.5554   -5.0634 C   0  0  0  0  0  0  0  0  0  0  0  0
   30.5553  -20.3807   -5.1426 C   0  0  0  0  0  0  0  0  0  0  0  0
   30.6309  -21.1951   -6.2443 C   0  0  0  0  0  0  0  0  0  0  0  0
   29.6716  -21.2138   -7.2476 C   0  0  0  0  0  0  0  0  0  0  0  0
   28.5966  -20.3769   -7.1287 C   0  0  0  0  0  0  0  0  0  0  0  0
   25.4978  -20.7810  -11.0821 C   0  0  0  0  0  0  0  0  0  0  0  0
   25.7262  -21.9263  -11.4756 O   0  0  0  0  0  0  0  0  0  0  0  0
   25.0108  -19.7949  -11.9653 N   0  0  0  0  0  0  0  0  0  0  0  0
   24.8138  -19.8848  -13.3763 C   0  0  1  0  0  0  0  0  0  0  0  0
   23.7528  -19.0052  -13.9384 C   0  0  0  0  0  0  0  0  0  0  0  0
   23.3722  -19.3360  -15.3211 C   0  0  0  0  0  0  0  0  0  0  0  0
   22.6118  -20.4163  -15.7692 C   0  0  0  0  0  0  0  0  0  0  0  0
   22.4750  -20.3381  -17.1003 N   0  0  0  0  0  0  0  0  0  0  0  0
   23.1240  -19.2400  -17.5303 C   0  0  0  0  0  0  0  0  0  0  0  0
   23.3031  -18.6992  -18.7867 C   0  0  0  0  0  0  0  0  0  0  0  0
   24.0289  -17.5433  -18.9906 C   0  0  0  0  0  0  0  0  0  0  0  0
   24.5992  -16.8977  -17.9134 C   0  0  0  0  0  0  0  0  0  0  0  0
   24.4088  -17.4538  -16.6659 C   0  0  0  0  0  0  0  0  0  0  0  0
   23.6867  -18.6067  -16.4410 C   0  0  0  0  0  0  0  0  0  0  0  0
   26.0703  -19.9215  -14.1945 C   0  0  0  0  0  0  0  0  0  0  0  0
   26.9063  -19.0025  -14.0229 O   0  0  0  0  0  0  0  0  0  0  0  0
   28.8619  -22.1051  -14.0833 C   0  0  0  0  0  0  0  0  0  0  0  0
   28.4018  -22.1407  -15.4919 C   0  0  1  0  0  0  0  0  0  0  0  0
   27.6741  -23.3374  -15.6890 O   0  0  0  0  0  0  0  0  0  0  0  0
   27.5152  -20.9952  -15.9121 C   0  0  2  0  0  0  0  0  0  0  0  0
   26.2947  -20.9701  -15.1299 N   0  0  0  0  0  0  0  0  0  0  0  0
   27.1754  -20.9601  -17.3250 C   0  0  0  0  0  0  0  0  0  0  0  0
   28.0600  -20.9167  -18.3885 O   0  0  0  0  0  0  0  0  0  0  0  0
   25.9464  -20.9686  -17.6590 O   0  0  0  0  0  0  0  0  0  0  0  0
  2  3  1  0
  2  1  1  1
  4 12  1  0
  4  3  1  0
  5  4  2  0
  6  5  1  0
  6  7  1  0
  7  8  1  0
  7 12  2  0
  8  9  2  0
  9 10  1  0
 11 10  2  0
 12 11  1  0
 13  2  1  0
 14 13  2  0
 15 13  1  0
 16 15  1  0
 16 17  1  6
 18 17  1  0
 19 18  2  0
 20 19  1  0
 21 20  1  0
 21 26  2  0
 22 21  1  0
 23 22  2  0
 23 24  1  0
 24 25  2  0
 25 26  1  0
 26 18  1  0
 27 16  1  0
 27 28  2  0
 30 32  1  0
 30 29  1  1
 31 30  1  0
 32 33  1  1
 33 27  1  0
 34 32  1  0
 35 34  1  0
 36 34  2  0
M  END
$$$$
