WWT.pdb
     RDKit          3D

 36 39  0  0  1  0  0  0  0  0999 V2000
   24.8001  -18.8449  -15.3956 N   0  0  0  0  0  0  0  0  0  0  0  0
   24.0594  -19.3134  -14.2803 C   0  0  1  0  0  0  0  0  0  0  0  0
   22.7546  -19.8984  -14.6863 C   0  0  0  0  0  0  0  0  0  0  0  0
   21.8341  -18.8218  -15.1353 C   0  0  0  0  0  0  0  0  0  0  0  0
   21.7202  -18.3444  -16.4527 C   0  0  0  0  0  0  0  0  0  0  0  0
   20.7766  -17.4009  -16.5154 N   0  0  0  0  0  0  0  0  0  0  0  0
   20.2521  -17.2243  -15.2937 C   0  0  0  0  0  0  0  0  0  0  0  0
   19.2712  -16.3904  -14.7935 C   0  0  0  0  0  0  0  0  0  0  0  0
   18.9090  -16.3902  -13.4688 C   0  0  0  0  0  0  0  0  0  0  0  0
   19.5747  -17.2680  -12.6509 C   0  0  0  0  0  0  0  0  0  0  0  0
   20.5677  -18.1277  -13.1005 C   0  0  0  0  0  0  0  0  0  0  0  0
   20.8967  -18.0964  -14.4276 C   0  0  0  0  0  0  0  0  0  0  0  0
   24.8401  -20.2480  -13.3927 C   0  0  0  0  0  0  0  0  0  0  0  0
   25.7193  -20.9212  -13.9336 O   0  0  0  0  0  0  0  0  0  0  0  0
   24.5903  -20.3594  -12.0090 N   0  0  0  0  0  0  0  0  0  0  0  0
   25.4970  -20.7252  -10.9688 C   0  0  1  0  0  0  0  0  0  0  0  0
   26.8310  -20.0665  -11.0127 C   0  0  0  0  0  0  0  0  0  0  0  0
   27.8114  -20.6386  -10.0758 C   0  0  0  0  0  0  0  0  0  0  0  0
   28.6754  -21.7138  -10.2848 C   0  0  0  0  0  0  0  0  0  0  0  0
   29.4231  -21.8990   -9.1879 N   0  0  0  0  0  0  0  0  0  0  0  0
   29.0705  -20.9771   -8.2726 C   0  0  0  0  0  0  0  0  0  0  0  0
   29.5119  -20.7252   -6.9902 C   0  0  0  0  0  0  0  0  0  0  0  0
   28.9863  -19.7074   -6.2206 C   0  0  0  0  0  0  0  0  0  0  0  0
   27.9872  -18.9089   -6.7370 C   0  0  0  0  0  0  0  0  0  0  0  0
   27.5597  -19.1765   -8.0205 C   0  0  0  0  0  0  0  0  0  0  0  0
   28.0723  -20.1874   -8.8057 C   0  0  0  0  0  0  0  0  0  0  0  0
   24.8977  -20.7947   -9.5958 C   0  0  0  0  0  0  0  0  0  0  0  0
   25.0222  -19.7922   -8.8525 O   0  0  0  0  0  0  0  0  0  0  0  0
   21.4610  -22.8676   -9.8556 C   0  0  0  0  0  0  0  0  0  0  0  0
   21.7942  -21.7366   -8.9574 C   0  0  1  0  0  0  0  0  0  0  0  0
   20.7748  -21.6312   -7.9827 O   0  0  0  0  0  0  0  0  0  0  0  0
   23.1094  -21.8548   -8.2285 C   0  0  2  0  0  0  0  0  0  0  0  0
   24.2123  -21.9644   -9.1634 N   0  0  0  0  0  0  0  0  0  0  0  0
   23.1903  -22.9427   -7.2679 C   0  0  0  0  0  0  0  0  0  0  0  0
   22.4388  -23.0865   -6.1147 O   0  0  0  0  0  0  0  0  0  0  0  0
   24.0280  -23.8797   -7.4740 O   0  0  0  0  0  0  0  0  0  0  0  0
  2  3  1  0
  2  1  1  6
  4 12  1  0
  4  3  1  0
  5  4  2  0
  6  5  1  0
  6  7  1  0
  7  8  1  0
  7 12  2  0
  8  9  2  0
  9 10  1  0
 11 10  2  0
 12 11  1  0
 13  2  1  0
 14 13  2  0
 15 13  1  0
 16 15  1  0
 16 17  1  1
 18 17  1  0
 19 18  2  0
 20 19  1  0
 21 20  1  0
 21 26  2  0
 22 21  1  0
 23 22  2  0
 23 24  1  0
 24 25  2  0
 25 26  1  0
 26 18  1  0
 27 16  1  0
 27 28  2  0
 30 32  1  0
 30 29  1  1
 31 30  1  0
 32 33  1  6
 33 27  1  0
 34 32  1  0
 35 34  1  0
 36 34  2  0
M  END
$$$$
