WWT.pdb
     RDKit          3D

 36 39  0  0  1  0  0  0  0  0999 V2000
   26.6477  -20.8406  -13.1326 N   0  0  0  0  0  0  0  0  0  0  0  0
   25.4283  -20.6281  -12.4399 C   0  0  1  0  0  0  0  0  0  0  0  0
   24.2644  -21.1787  -13.1827 C   0  0  0  0  0  0  0  0  0  0  0  0
   24.0756  -20.4332  -14.4540 C   0  0  0  0  0  0  0  0  0  0  0  0
   24.7692  -20.6774  -15.6523 C   0  0  0  0  0  0  0  0  0  0  0  0
   24.3332  -19.8517  -16.6076 N   0  0  0  0  0  0  0  0  0  0  0  0
   23.3752  -19.0620  -16.1000 C   0  0  0  0  0  0  0  0  0  0  0  0
   22.6030  -18.0465  -16.6295 C   0  0  0  0  0  0  0  0  0  0  0  0
   21.6713  -17.3648  -15.8859 C   0  0  0  0  0  0  0  0  0  0  0  0
   21.5390  -17.7420  -14.5733 C   0  0  0  0  0  0  0  0  0  0  0  0
   22.2884  -18.7549  -13.9904 C   0  0  0  0  0  0  0  0  0  0  0  0
   23.2043  -19.4091  -14.7672 C   0  0  0  0  0  0  0  0  0  0  0  0
   25.4592  -21.1083  -11.0119 C   0  0  0  0  0  0  0  0  0  0  0  0
   25.5914  -22.3210  -10.8375 O   0  0  0  0  0  0  0  0  0  0  0  0
   25.3440  -20.2269   -9.9167 N   0  0  0  0  0  0  0  0  0  0  0  0
   24.9797  -20.5265   -8.5693 C   0  0  1  0  0  0  0  0  0  0  0  0
   25.6733  -19.7310   -7.5199 C   0  0  0  0  0  0  0  0  0  0  0  0
   27.0985  -20.0628   -7.3623 C   0  0  0  0  0  0  0  0  0  0  0  0
   27.9310  -20.7306   -8.2608 C   0  0  0  0  0  0  0  0  0  0  0  0
   29.1657  -20.8078   -7.7450 N   0  0  0  0  0  0  0  0  0  0  0  0
   29.1603  -20.2109   -6.5385 C   0  0  0  0  0  0  0  0  0  0  0  0
   30.1468  -20.0162   -5.5942 C   0  0  0  0  0  0  0  0  0  0  0  0
   29.9014  -19.3683   -4.4006 C   0  0  0  0  0  0  0  0  0  0  0  0
   28.6343  -18.8957   -4.1297 C   0  0  0  0  0  0  0  0  0  0  0  0
   27.6621  -19.1001   -5.0861 C   0  0  0  0  0  0  0  0  0  0  0  0
   27.8870  -19.7436   -6.2846 C   0  0  0  0  0  0  0  0  0  0  0  0
   23.5092  -20.6990   -8.3296 C   0  0  0  0  0  0  0  0  0  0  0  0
   22.7453  -19.7737   -8.6947 O   0  0  0  0  0  0  0  0  0  0  0  0
   21.1007  -22.7793   -9.8578 C   0  0  0  0  0  0  0  0  0  0  0  0
   21.0120  -23.0849   -8.4102 C   0  0  1  0  0  0  0  0  0  0  0  0
   21.7111  -24.2906   -8.1694 O   0  0  0  0  0  0  0  0  0  0  0  0
   21.5856  -22.0357   -7.4909 C   0  0  2  0  0  0  0  0  0  0  0  0
   23.0103  -21.8782   -7.7088 N   0  0  0  0  0  0  0  0  0  0  0  0
   21.3422  -22.2525   -6.0743 C   0  0  0  0  0  0  0  0  0  0  0  0
   20.1103  -22.3355   -5.4491 O   0  0  0  0  0  0  0  0  0  0  0  0
   22.3410  -22.3842   -5.2952 O   0  0  0  0  0  0  0  0  0  0  0  0
  2  3  1  0
  2  1  1  6
  4 12  1  0
  4  3  1  0
  5  4  2  0
  6  5  1  0
  6  7  1  0
  7  8  1  0
  7 12  2  0
  8  9  2  0
  9 10  1  0
 11 10  2  0
 12 11  1  0
 13  2  1  0
 14 13  2  0
 15 13  1  0
 16 15  1  0
 16 17  1  1
 18 17  1  0
 19 18  2  0
 20 19  1  0
 21 20  1  0
 21 26  2  0
 22 21  1  0
 23 22  2  0
 23 24  1  0
 24 25  2  0
 25 26  1  0
 26 18  1  0
 27 16  1  0
 27 28  2  0
 30 32  1  0
 30 29  1  6
 31 30  1  0
 32 33  1  1
 33 27  1  0
 34 32  1  0
 35 34  1  0
 36 34  2  0
M  END
$$$$
