RHL.pdb
     RDKit          3D

 30 30  0  0  1  0  0  0  0  0999 V2000
   31.3929  -24.2056  -15.6003 N   0  0  0  0  0  0  0  0  0  0  0  0
   31.0869  -23.9979  -16.9726 C   0  0  0  0  0  0  0  0  0  0  0  0
   31.6742  -24.6672  -17.9147 N   0  0  0  0  0  0  0  0  0  0  0  0
   30.1086  -23.0308  -17.3567 N   0  0  0  0  0  0  0  0  0  0  0  0
   29.2252  -22.3872  -16.4027 C   0  0  0  0  0  0  0  0  0  0  0  0
   29.2454  -20.9063  -16.6960 C   0  0  0  0  0  0  0  0  0  0  0  0
   28.4802  -20.1118  -15.6582 C   0  0  0  0  0  0  0  0  0  0  0  0
   27.0236  -20.4735  -15.8101 C   0  0  2  0  0  0  0  0  0  0  0  0
   26.5541  -19.9013  -17.0571 N   0  0  0  0  0  0  0  0  0  0  0  0
   26.1940  -20.0718  -14.6686 C   0  0  0  0  0  0  0  0  0  0  0  0
   26.0552  -18.8680  -14.3890 O   0  0  0  0  0  0  0  0  0  0  0  0
   31.4392  -24.5677  -18.9084 N   0  0  0  0  0  0  0  0  0  0  0  0
   25.5541  -21.0541  -13.8889 C   0  0  2  0  0  0  0  0  0  0  0  0
   24.8427  -20.6818  -12.6907 C   0  0  0  0  0  0  0  0  0  0  0  0
   23.4899  -21.3648  -12.7320 C   0  0  0  0  0  0  0  0  0  0  0  0
   22.5626  -20.6849  -13.6611 C   0  0  0  0  0  0  0  0  0  0  0  0
   22.8795  -19.5719  -14.4119 N   0  0  0  0  0  0  0  0  0  0  0  0
   21.7988  -19.2391  -15.1298 C   0  0  0  0  0  0  0  0  0  0  0  0
   20.8240  -20.1209  -14.8386 N   0  0  0  0  0  0  0  0  0  0  0  0
   21.2996  -20.9896  -13.9492 C   0  0  0  0  0  0  0  0  0  0  0  0
   25.6135  -21.0717  -11.4773 O   0  0  0  0  0  0  0  0  0  0  0  0
   26.8141  -21.4311  -11.5740 C   0  0  0  0  0  0  0  0  0  0  0  0
   28.3113  -19.0504   -7.2869 C   0  0  1  0  0  0  0  0  0  0  0  0
   27.7015  -20.4086   -7.6006 C   0  0  0  0  0  0  0  0  0  0  0  0
   28.8388  -21.4055   -7.6501 C   0  0  0  0  0  0  0  0  0  0  0  0
   26.9388  -20.3390   -8.8875 C   0  0  2  0  0  0  0  0  0  0  0  0
   25.7361  -21.2103   -8.9436 N   0  0  0  0  0  0  0  0  0  0  0  0
   25.0055  -21.0434  -10.1963 C   0  0  0  0  0  0  0  0  0  0  0  0
   24.8345  -21.1156   -7.7821 O   0  0  0  0  0  0  0  0  0  0  0  0
   25.0277  -21.8381   -6.7423 O   0  0  0  0  0  0  0  0  0  0  0  0
  2  3  2  0
  2  1  1  0
  4  2  1  0
  5  4  1  0
  6  5  1  0
  7  6  1  0
  8  9  1  6
  8  7  1  0
 10 11  2  0
 10  8  1  0
 12 10  1  0
 13 12  1  0
 13 20  1  0
 13 14  1  6
 15 19  1  0
 15 14  1  0
 16 15  2  0
 17 16  1  0
 17 18  1  0
 18 19  2  0
 20 27  1  0
 21 20  2  0
 23 22  1  1
 23 25  1  0
 24 23  1  0
 26 25  1  6
 26 28  1  0
 27 26  1  0
 28 29  2  0
 28 30  1  0
M  END
$$$$
