RHL.pdb
     RDKit          3D

 30 30  0  0  1  0  0  0  0  0999 V2000
   14.0400  -21.1225  -16.1087 N   0  0  0  0  0  0  0  0  0  0  0  0
   14.6976  -20.1551  -15.3016 C   0  0  0  0  0  0  0  0  0  0  0  0
   14.1493  -19.6666  -14.2334 N   0  0  0  0  0  0  0  0  0  0  0  0
   16.0011  -19.6876  -15.6514 N   0  0  0  0  0  0  0  0  0  0  0  0
   17.1804  -20.5301  -15.5857 C   0  0  0  0  0  0  0  0  0  0  0  0
   17.5699  -20.6495  -14.1319 C   0  0  0  0  0  0  0  0  0  0  0  0
   19.0727  -20.6385  -13.9444 C   0  0  0  0  0  0  0  0  0  0  0  0
   19.6239  -21.8075  -14.7225 C   0  0  2  0  0  0  0  0  0  0  0  0
   19.1039  -23.0214  -14.1235 N   0  0  0  0  0  0  0  0  0  0  0  0
   21.0882  -21.8173  -14.8139 C   0  0  0  0  0  0  0  0  0  0  0  0
   21.7579  -22.5331  -14.0485 O   0  0  0  0  0  0  0  0  0  0  0  0
   14.5995  -18.9610  -13.6401 N   0  0  0  0  0  0  0  0  0  0  0  0
   21.7347  -21.0132  -15.7718 C   0  0  2  0  0  0  0  0  0  0  0  0
   23.1687  -21.0667  -15.9177 C   0  0  0  0  0  0  0  0  0  0  0  0
   23.5324  -20.2654  -17.1522 C   0  0  0  0  0  0  0  0  0  0  0  0
   24.9851  -20.3076  -17.4228 C   0  0  0  0  0  0  0  0  0  0  0  0
   25.9181  -20.9140  -16.6075 N   0  0  0  0  0  0  0  0  0  0  0  0
   27.1229  -20.7511  -17.1698 C   0  0  0  0  0  0  0  0  0  0  0  0
   26.9535  -20.0587  -18.3119 N   0  0  0  0  0  0  0  0  0  0  0  0
   25.6559  -19.7971  -18.4524 C   0  0  0  0  0  0  0  0  0  0  0  0
   23.8426  -20.5314  -14.7021 O   0  0  0  0  0  0  0  0  0  0  0  0
   23.2024  -19.8363  -13.8733 C   0  0  0  0  0  0  0  0  0  0  0  0
   27.2424  -21.1276  -10.6439 C   0  0  1  0  0  0  0  0  0  0  0  0
   25.9335  -20.3606  -10.7596 C   0  0  0  0  0  0  0  0  0  0  0  0
   25.1232  -20.6754   -9.5210 C   0  0  0  0  0  0  0  0  0  0  0  0
   25.2283  -20.7451  -12.0236 C   0  0  2  0  0  0  0  0  0  0  0  0
   25.9344  -20.3540  -13.2714 N   0  0  0  0  0  0  0  0  0  0  0  0
   25.2148  -20.7974  -14.4615 C   0  0  0  0  0  0  0  0  0  0  0  0
   27.3572  -20.7316  -13.3353 O   0  0  0  0  0  0  0  0  0  0  0  0
   28.2754  -19.8618  -13.1330 O   0  0  0  0  0  0  0  0  0  0  0  0
  2  3  2  0
  2  1  1  0
  4  2  1  0
  5  4  1  0
  6  5  1  0
  7  6  1  0
  8  9  1  1
  8  7  1  0
 10 11  2  0
 10  8  1  0
 12 10  1  0
 13 12  1  0
 13 20  1  0
 13 14  1  6
 15 19  1  0
 15 14  1  0
 16 15  2  0
 17 16  1  0
 17 18  1  0
 18 19  2  0
 20 27  1  0
 21 20  2  0
 23 22  1  1
 23 25  1  0
 24 23  1  0
 26 25  1  6
 26 28  1  0
 27 26  1  0
 28 29  2  0
 28 30  1  0
M  END
$$$$
