RHL.pdb
     RDKit          3D

 30 30  0  0  1  0  0  0  0  0999 V2000
   20.0949  -14.1193  -15.4788 N   0  0  0  0  0  0  0  0  0  0  0  0
   19.8235  -15.4989  -15.6860 C   0  0  0  0  0  0  0  0  0  0  0  0
   18.6412  -15.9246  -16.0042 N   0  0  0  0  0  0  0  0  0  0  0  0
   20.8626  -16.4689  -15.5471 N   0  0  0  0  0  0  0  0  0  0  0  0
   22.2159  -16.1184  -15.1591 C   0  0  0  0  0  0  0  0  0  0  0  0
   23.0233  -17.3938  -15.1340 C   0  0  0  0  0  0  0  0  0  0  0  0
   24.4684  -17.1432  -14.7560 C   0  0  0  0  0  0  0  0  0  0  0  0
   25.2850  -18.2527  -15.3708 C   0  0  2  0  0  0  0  0  0  0  0  0
   24.7656  -18.4975  -16.7025 N   0  0  0  0  0  0  0  0  0  0  0  0
   25.3270  -19.4738  -14.5587 C   0  0  0  0  0  0  0  0  0  0  0  0
   24.3592  -20.2548  -14.5529 O   0  0  0  0  0  0  0  0  0  0  0  0
   18.4312  -16.9079  -16.2080 N   0  0  0  0  0  0  0  0  0  0  0  0
   26.4676  -19.7601  -13.7845 C   0  0  1  0  0  0  0  0  0  0  0  0
   26.5639  -21.0066  -13.0650 C   0  0  0  0  0  0  0  0  0  0  0  0
   27.6877  -21.8091  -13.6904 C   0  0  0  0  0  0  0  0  0  0  0  0
   27.3735  -22.1973  -15.0818 C   0  0  0  0  0  0  0  0  0  0  0  0
   26.6217  -23.2974  -15.4391 N   0  0  0  0  0  0  0  0  0  0  0  0
   26.5490  -23.3287  -16.7762 C   0  0  0  0  0  0  0  0  0  0  0  0
   27.2381  -22.2740  -17.2505 N   0  0  0  0  0  0  0  0  0  0  0  0
   27.7314  -21.5984  -16.2149 C   0  0  0  0  0  0  0  0  0  0  0  0
   26.8094  -20.7616  -11.6165 O   0  0  0  0  0  0  0  0  0  0  0  0
   27.9037  -20.2799  -11.2289 C   0  0  0  0  0  0  0  0  0  0  0  0
   27.1802  -18.4320   -6.8011 C   0  0  1  0  0  0  0  0  0  0  0  0
   27.0158  -19.8742   -7.2571 C   0  0  0  0  0  0  0  0  0  0  0  0
   28.2661  -20.6174   -6.8395 C   0  0  0  0  0  0  0  0  0  0  0  0
   26.7860  -19.9173   -8.7363 C   0  0  2  0  0  0  0  0  0  0  0  0
   26.0593  -21.1216   -9.2162 N   0  0  0  0  0  0  0  0  0  0  0  0
   25.8136  -21.0675  -10.6541 C   0  0  0  0  0  0  0  0  0  0  0  0
   24.8291  -21.4522   -8.4757 O   0  0  0  0  0  0  0  0  0  0  0  0
   24.8763  -21.7695   -7.2357 O   0  0  0  0  0  0  0  0  0  0  0  0
  2  3  2  0
  2  1  1  0
  4  2  1  0
  5  4  1  0
  6  5  1  0
  7  6  1  0
  8  9  1  6
  8  7  1  0
 10 11  2  0
 10  8  1  0
 12 10  1  0
 13 12  1  0
 13 20  1  0
 13 14  1  1
 15 19  1  0
 15 14  1  0
 16 15  2  0
 17 16  1  0
 17 18  1  0
 18 19  2  0
 20 27  1  0
 21 20  2  0
 23 22  1  1
 23 25  1  0
 24 23  1  0
 26 25  1  6
 26 28  1  0
 27 26  1  0
 28 29  2  0
 28 30  1  0
M  END
$$$$
