RHL.pdb
     RDKit          3D

 30 30  0  0  1  0  0  0  0  0999 V2000
   24.4748  -26.6709  -15.6887 N   0  0  0  0  0  0  0  0  0  0  0  0
   24.2328  -25.3901  -16.2552 C   0  0  0  0  0  0  0  0  0  0  0  0
   23.1325  -24.7407  -16.0365 N   0  0  0  0  0  0  0  0  0  0  0  0
   25.2111  -24.7743  -17.0941 N   0  0  0  0  0  0  0  0  0  0  0  0
   26.5306  -25.3392  -17.3055 C   0  0  0  0  0  0  0  0  0  0  0  0
   27.4616  -24.6996  -16.3037 C   0  0  0  0  0  0  0  0  0  0  0  0
   28.7202  -24.1683  -16.9575 C   0  0  0  0  0  0  0  0  0  0  0  0
   28.3030  -23.0407  -17.8687 C   0  0  2  0  0  0  0  0  0  0  0  0
   29.4862  -22.5763  -18.5668 N   0  0  0  0  0  0  0  0  0  0  0  0
   27.6036  -21.9519  -17.1775 C   0  0  0  0  0  0  0  0  0  0  0  0
   28.2306  -21.1809  -16.4298 O   0  0  0  0  0  0  0  0  0  0  0  0
   22.9000  -23.8534  -16.4962 N   0  0  0  0  0  0  0  0  0  0  0  0
   26.2184  -21.7814  -17.3629 C   0  0  2  0  0  0  0  0  0  0  0  0
   25.5297  -20.6836  -16.7298 C   0  0  0  0  0  0  0  0  0  0  0  0
   24.4226  -20.2388  -17.6651 C   0  0  0  0  0  0  0  0  0  0  0  0
   24.8720  -19.1592  -18.5695 C   0  0  0  0  0  0  0  0  0  0  0  0
   26.1359  -18.6066  -18.5649 N   0  0  0  0  0  0  0  0  0  0  0  0
   26.1754  -17.6632  -19.5149 C   0  0  0  0  0  0  0  0  0  0  0  0
   24.9657  -17.6220  -20.1042 N   0  0  0  0  0  0  0  0  0  0  0  0
   24.1874  -18.5319  -19.5227 C   0  0  0  0  0  0  0  0  0  0  0  0
   24.9909  -21.0940  -15.4033 O   0  0  0  0  0  0  0  0  0  0  0  0
   24.5226  -22.2483  -15.2359 C   0  0  0  0  0  0  0  0  0  0  0  0
   25.6859  -19.6364   -9.5083 C   0  0  1  0  0  0  0  0  0  0  0  0
   24.8823  -20.4351  -10.5238 C   0  0  0  0  0  0  0  0  0  0  0  0
   24.9976  -21.8927  -10.1343 C   0  0  0  0  0  0  0  0  0  0  0  0
   25.3949  -20.1646  -11.9047 C   0  0  2  0  0  0  0  0  0  0  0  0
   24.4421  -20.4960  -12.9960 N   0  0  0  0  0  0  0  0  0  0  0  0
   24.9979  -20.1899  -14.3106 C   0  0  0  0  0  0  0  0  0  0  0  0
   23.0888  -19.9337  -12.8435 O   0  0  0  0  0  0  0  0  0  0  0  0
   22.0936  -20.6889  -12.5610 O   0  0  0  0  0  0  0  0  0  0  0  0
  2  3  2  0
  2  1  1  0
  4  2  1  0
  5  4  1  0
  6  5  1  0
  7  6  1  0
  8  9  1  1
  8  7  1  0
 10 11  2  0
 10  8  1  0
 12 10  1  0
 13 12  1  0
 13 20  1  0
 13 14  1  6
 15 19  1  0
 15 14  1  0
 16 15  2  0
 17 16  1  0
 17 18  1  0
 18 19  2  0
 20 27  1  0
 21 20  2  0
 23 22  1  1
 23 25  1  0
 24 23  1  0
 26 25  1  6
 26 28  1  0
 27 26  1  0
 28 29  2  0
 28 30  1  0
M  END
$$$$
