RHL.pdb
     RDKit          3D

 30 30  0  0  1  0  0  0  0  0999 V2000
   23.1154  -32.2688  -13.0952 N   0  0  0  0  0  0  0  0  0  0  0  0
   23.1949  -33.6266  -12.6831 C   0  0  0  0  0  0  0  0  0  0  0  0
   23.7682  -34.5318  -13.4126 N   0  0  0  0  0  0  0  0  0  0  0  0
   22.6363  -34.0368  -11.4343 N   0  0  0  0  0  0  0  0  0  0  0  0
   22.1708  -33.0932  -10.4354 C   0  0  0  0  0  0  0  0  0  0  0  0
   23.0584  -33.2437   -9.2235 C   0  0  0  0  0  0  0  0  0  0  0  0
   22.6259  -32.3399   -8.0877 C   0  0  0  0  0  0  0  0  0  0  0  0
   23.5801  -32.5795   -6.9441 C   0  0  2  0  0  0  0  0  0  0  0  0
   24.6276  -33.4621   -7.4204 N   0  0  0  0  0  0  0  0  0  0  0  0
   22.9313  -33.0922   -5.7321 C   0  0  0  0  0  0  0  0  0  0  0  0
   22.8640  -34.3173   -5.5292 O   0  0  0  0  0  0  0  0  0  0  0  0
   23.8452  -35.5161  -13.1336 N   0  0  0  0  0  0  0  0  0  0  0  0
   22.3842  -32.1924   -4.7976 C   0  0  1  0  0  0  0  0  0  0  0  0
   21.7013  -32.6859   -3.6269 C   0  0  0  0  0  0  0  0  0  0  0  0
   22.6380  -33.6483   -2.9236 C   0  0  0  0  0  0  0  0  0  0  0  0
   22.0449  -34.1750   -1.6761 C   0  0  0  0  0  0  0  0  0  0  0  0
   20.7716  -33.8874   -1.2299 N   0  0  0  0  0  0  0  0  0  0  0  0
   20.5846  -34.5379   -0.0741 C   0  0  0  0  0  0  0  0  0  0  0  0
   21.7125  -35.2191    0.2018 N   0  0  0  0  0  0  0  0  0  0  0  0
   22.5872  -34.9906   -0.7753 C   0  0  0  0  0  0  0  0  0  0  0  0
   21.3046  -31.5611   -2.7347 O   0  0  0  0  0  0  0  0  0  0  0  0
   22.1342  -30.6674   -2.4298 C   0  0  0  0  0  0  0  0  0  0  0  0
   18.5634  -26.9077   -2.6951 C   0  0  1  0  0  0  0  0  0  0  0  0
   19.1227  -27.8330   -1.6245 C   0  0  0  0  0  0  0  0  0  0  0  0
   20.1542  -27.0428   -0.8491 C   0  0  0  0  0  0  0  0  0  0  0  0
   19.6961  -29.0609   -2.2620 C   0  0  2  0  0  0  0  0  0  0  0  0
   19.4584  -30.3195   -1.5084 N   0  0  0  0  0  0  0  0  0  0  0  0
   19.9868  -31.4816   -2.2164 C   0  0  0  0  0  0  0  0  0  0  0  0
   18.0672  -30.5431   -1.0775 O   0  0  0  0  0  0  0  0  0  0  0  0
   17.3464  -31.4447   -1.6327 O   0  0  0  0  0  0  0  0  0  0  0  0
  2  3  2  0
  2  1  1  0
  4  2  1  0
  5  4  1  0
  6  5  1  0
  7  6  1  0
  8  9  1  6
  8  7  1  0
 10 11  2  0
 10  8  1  0
 12 10  1  0
 13 12  1  0
 13 20  1  0
 13 14  1  6
 15 19  1  0
 15 14  1  0
 16 15  2  0
 17 16  1  0
 17 18  1  0
 18 19  2  0
 20 27  1  0
 21 20  2  0
 23 22  1  1
 23 25  1  0
 24 23  1  0
 26 25  1  1
 26 28  1  0
 27 26  1  0
 28 29  2  0
 28 30  1  0
M  END
$$$$
