RHL.pdb
     RDKit          3D

 30 30  0  0  1  0  0  0  0  0999 V2000
   21.3619  -24.9948  -19.1862 N   0  0  0  0  0  0  0  0  0  0  0  0
   21.7038  -24.4383  -17.9240 C   0  0  0  0  0  0  0  0  0  0  0  0
   22.4403  -23.3767  -17.8198 N   0  0  0  0  0  0  0  0  0  0  0  0
   21.2375  -25.0433  -16.7171 N   0  0  0  0  0  0  0  0  0  0  0  0
   20.4253  -26.2453  -16.7052 C   0  0  0  0  0  0  0  0  0  0  0  0
   20.0657  -26.5334  -15.2675 C   0  0  0  0  0  0  0  0  0  0  0  0
   21.2733  -26.9473  -14.4525 C   0  0  0  0  0  0  0  0  0  0  0  0
   20.7950  -27.1819  -13.0412 C   0  0  2  0  0  0  0  0  0  0  0  0
   20.7131  -28.6151  -12.8352 N   0  0  0  0  0  0  0  0  0  0  0  0
   19.5332  -26.5032  -12.7255 C   0  0  0  0  0  0  0  0  0  0  0  0
   18.4545  -27.1161  -12.8122 O   0  0  0  0  0  0  0  0  0  0  0  0
   22.7513  -22.9915  -16.9212 N   0  0  0  0  0  0  0  0  0  0  0  0
   19.5462  -25.1540  -12.3235 C   0  0  2  0  0  0  0  0  0  0  0  0
   18.3130  -24.4807  -11.9969 C   0  0  0  0  0  0  0  0  0  0  0  0
   18.5688  -23.6300  -10.7685 C   0  0  0  0  0  0  0  0  0  0  0  0
   18.4978  -24.4283   -9.5263 C   0  0  0  0  0  0  0  0  0  0  0  0
   18.1738  -25.7681   -9.4718 N   0  0  0  0  0  0  0  0  0  0  0  0
   18.2100  -26.1477   -8.1878 C   0  0  0  0  0  0  0  0  0  0  0  0
   18.5486  -25.0733   -7.4506 N   0  0  0  0  0  0  0  0  0  0  0  0
   18.7196  -24.0405   -8.2729 C   0  0  0  0  0  0  0  0  0  0  0  0
   17.8436  -23.6548  -13.1441 O   0  0  0  0  0  0  0  0  0  0  0  0
   18.6585  -22.9656  -13.8079 C   0  0  0  0  0  0  0  0  0  0  0  0
   13.6148  -25.2797  -16.0709 C   0  0  1  0  0  0  0  0  0  0  0  0
   14.6668  -24.1886  -16.2032 C   0  0  0  0  0  0  0  0  0  0  0  0
   16.0081  -24.8776  -16.3290 C   0  0  0  0  0  0  0  0  0  0  0  0
   14.5986  -23.2699  -15.0224 C   0  0  2  0  0  0  0  0  0  0  0  0
   15.9160  -22.7744  -14.5452 N   0  0  0  0  0  0  0  0  0  0  0  0
   16.4720  -23.6335  -13.5042 C   0  0  0  0  0  0  0  0  0  0  0  0
   15.9482  -21.3574  -14.1427 O   0  0  0  0  0  0  0  0  0  0  0  0
   15.6371  -20.4333  -14.9733 O   0  0  0  0  0  0  0  0  0  0  0  0
  2  3  2  0
  2  1  1  0
  4  2  1  0
  5  4  1  0
  6  5  1  0
  7  6  1  0
  8  9  1  6
  8  7  1  0
 10 11  2  0
 10  8  1  0
 12 10  1  0
 13 12  1  0
 13 20  1  0
 13 14  1  1
 15 19  1  0
 15 14  1  0
 16 15  2  0
 17 16  1  0
 17 18  1  0
 18 19  2  0
 20 27  1  0
 21 20  2  0
 23 22  1  6
 23 25  1  0
 24 23  1  0
 26 25  1  6
 26 28  1  0
 27 26  1  0
 28 29  2  0
 28 30  1  0
M  END
$$$$
