RHL.pdb
     RDKit          3D

 30 30  0  0  1  0  0  0  0  0999 V2000
   36.2635  -36.0728  -17.0381 N   0  0  0  0  0  0  0  0  0  0  0  0
   34.9601  -36.4300  -17.4778 C   0  0  0  0  0  0  0  0  0  0  0  0
   34.6706  -37.6357  -17.8555 N   0  0  0  0  0  0  0  0  0  0  0  0
   33.9175  -35.4545  -17.5159 N   0  0  0  0  0  0  0  0  0  0  0  0
   34.1448  -34.0517  -17.2242 C   0  0  0  0  0  0  0  0  0  0  0  0
   32.8497  -33.3206  -17.4836 C   0  0  0  0  0  0  0  0  0  0  0  0
   32.9798  -31.8316  -17.2392 C   0  0  0  0  0  0  0  0  0  0  0  0
   32.9974  -31.1616  -18.5907 C   0  0  2  0  0  0  0  0  0  0  0  0
   33.9809  -30.0969  -18.5430 N   0  0  0  0  0  0  0  0  0  0  0  0
   31.6818  -30.6821  -19.0286 C   0  0  0  0  0  0  0  0  0  0  0  0
   31.4809  -29.4652  -19.1884 O   0  0  0  0  0  0  0  0  0  0  0  0
   33.7519  -37.9067  -18.2232 N   0  0  0  0  0  0  0  0  0  0  0  0
   30.6453  -31.6043  -19.2679 C   0  0  2  0  0  0  0  0  0  0  0  0
   29.4132  -31.1708  -19.8800 C   0  0  0  0  0  0  0  0  0  0  0  0
   29.7703  -30.4548  -21.1676 C   0  0  0  0  0  0  0  0  0  0  0  0
   30.1431  -29.0452  -20.9239 C   0  0  0  0  0  0  0  0  0  0  0  0
   30.1658  -28.4425  -19.6832 N   0  0  0  0  0  0  0  0  0  0  0  0
   30.5490  -27.1702  -19.8515 C   0  0  0  0  0  0  0  0  0  0  0  0
   30.7628  -26.9753  -21.1662 N   0  0  0  0  0  0  0  0  0  0  0  0
   30.5135  -28.1174  -21.8030 C   0  0  0  0  0  0  0  0  0  0  0  0
   28.5134  -32.3305  -20.1323 O   0  0  0  0  0  0  0  0  0  0  0  0
   28.9511  -33.3650  -20.6962 C   0  0  0  0  0  0  0  0  0  0  0  0
   25.9599  -36.5186  -18.9321 C   0  0  1  0  0  0  0  0  0  0  0  0
   25.0180  -35.3260  -19.0052 C   0  0  0  0  0  0  0  0  0  0  0  0
   24.3522  -35.3685  -20.3634 C   0  0  0  0  0  0  0  0  0  0  0  0
   25.7827  -34.0587  -18.7770 C   0  0  1  0  0  0  0  0  0  0  0  0
   26.1880  -33.3469  -20.0170 N   0  0  0  0  0  0  0  0  0  0  0  0
   27.1509  -32.2853  -19.7408 C   0  0  0  0  0  0  0  0  0  0  0  0
   25.0786  -32.8580  -20.8543 O   0  0  0  0  0  0  0  0  0  0  0  0
   24.5233  -33.6234  -21.7182 O   0  0  0  0  0  0  0  0  0  0  0  0
  2  3  2  0
  2  1  1  0
  4  2  1  0
  5  4  1  0
  6  5  1  0
  7  6  1  0
  8  9  1  1
  8  7  1  0
 10 11  2  0
 10  8  1  0
 12 10  1  0
 13 12  1  0
 13 20  1  0
 13 14  1  1
 15 19  1  0
 15 14  1  0
 16 15  2  0
 17 16  1  0
 17 18  1  0
 18 19  2  0
 20 27  1  0
 21 20  2  0
 23 22  1  1
 23 25  1  0
 24 23  1  0
 26 25  1  6
 26 28  1  0
 27 26  1  0
 28 29  2  0
 28 30  1  0
M  END
$$$$
