YFA.pdb
     RDKit          3D

 29 30  0  0  1  0  0  0  0  0999 V2000
   20.9932  -19.3922  -16.1378 O   0  0  0  0  0  0  0  0  0  0  0  0
   21.6915  -19.8150  -14.9964 C   0  0  0  0  0  0  0  0  0  0  0  0
   22.2305  -18.8821  -14.1655 C   0  0  0  0  0  0  0  0  0  0  0  0
   22.9160  -19.2883  -13.0453 C   0  0  0  0  0  0  0  0  0  0  0  0
   23.0655  -20.6438  -12.7506 C   0  0  0  0  0  0  0  0  0  0  0  0
   23.8093  -21.0027  -11.5381 C   0  0  0  0  0  0  0  0  0  0  0  0
   25.2826  -20.6866  -11.7259 C   0  0  2  0  0  0  0  0  0  0  0  0
   25.8961  -21.5883  -12.6828 N   0  0  0  0  0  0  0  0  0  0  0  0
   25.9307  -20.9326  -10.3986 C   0  0  0  0  0  0  0  0  0  0  0  0
   25.9191  -22.0697   -9.8598 O   0  0  0  0  0  0  0  0  0  0  0  0
   22.5192  -21.5748  -13.5933 C   0  0  0  0  0  0  0  0  0  0  0  0
   21.8320  -21.1557  -14.7167 C   0  0  0  0  0  0  0  0  0  0  0  0
   26.5843  -19.8822   -9.6997 N   0  0  0  0  0  0  0  0  0  0  0  0
   27.0129  -20.0799   -8.3512 C   0  0  1  0  0  0  0  0  0  0  0  0
   27.9585  -18.9953   -7.8745 C   0  0  0  0  0  0  0  0  0  0  0  0
   28.4852  -19.2573   -6.5322 C   0  0  0  0  0  0  0  0  0  0  0  0
   28.1141  -18.5407   -5.4123 C   0  0  0  0  0  0  0  0  0  0  0  0
   28.6263  -18.8099   -4.1637 C   0  0  0  0  0  0  0  0  0  0  0  0
   29.5494  -19.8315   -3.9958 C   0  0  0  0  0  0  0  0  0  0  0  0
   29.9343  -20.5597   -5.0992 C   0  0  0  0  0  0  0  0  0  0  0  0
   29.4052  -20.2707   -6.3464 C   0  0  0  0  0  0  0  0  0  0  0  0
   25.8596  -20.2301   -7.4157 C   0  0  0  0  0  0  0  0  0  0  0  0
   24.8631  -19.4741   -7.5432 O   0  0  0  0  0  0  0  0  0  0  0  0
   24.3163  -22.8538   -5.6162 C   0  0  0  0  0  0  0  0  0  0  0  0
   24.8044  -21.4102   -5.4582 C   0  0  2  0  0  0  0  0  0  0  0  0
   25.8788  -21.2129   -6.3904 N   0  0  0  0  0  0  0  0  0  0  0  0
   25.2442  -21.2782   -4.0467 C   0  0  0  0  0  0  0  0  0  0  0  0
   24.4731  -21.2949   -3.0563 O   0  0  0  0  0  0  0  0  0  0  0  0
   26.6018  -21.1258   -3.8058 O   0  0  0  0  0  0  0  0  0  0  0  0
  2  1  1  0
  3  2  2  0
  4  3  1  0
  5 11  1  0
  5  4  2  0
  6  5  1  0
  7  6  1  0
  7  8  1  6
  9  7  1  0
  9 10  2  0
 11 12  2  0
 12  2  1  0
 13  9  1  0
 14 13  1  0
 14 15  1  1
 16 15  1  0
 16 17  2  0
 18 17  1  0
 19 18  2  0
 20 21  2  0
 20 19  1  0
 21 16  1  0
 22 14  1  0
 23 22  2  0
 25 24  1  1
 25 27  1  0
 25 26  1  0
 26 22  1  0
 27 29  1  0
 28 27  2  0
M  END
$$$$
