YFA.pdb
     RDKit          3D

 29 30  0  0  1  0  0  0  0  0999 V2000
   21.2615  -19.3997  -16.0045 O   0  0  0  0  0  0  0  0  0  0  0  0
   21.9652  -19.7431  -14.8400 C   0  0  0  0  0  0  0  0  0  0  0  0
   21.9034  -21.0225  -14.3811 C   0  0  0  0  0  0  0  0  0  0  0  0
   22.5900  -21.3668  -13.2409 C   0  0  0  0  0  0  0  0  0  0  0  0
   23.3483  -20.4213  -12.5498 C   0  0  0  0  0  0  0  0  0  0  0  0
   24.0542  -20.8610  -11.3412 C   0  0  0  0  0  0  0  0  0  0  0  0
   25.5453  -20.6232  -11.5011 C   0  0  2  0  0  0  0  0  0  0  0  0
   26.1318  -21.5685  -12.4325 N   0  0  0  0  0  0  0  0  0  0  0  0
   26.1519  -20.8831  -10.1568 C   0  0  0  0  0  0  0  0  0  0  0  0
   26.2720  -22.0503   -9.7022 O   0  0  0  0  0  0  0  0  0  0  0  0
   23.4040  -19.1364  -13.0200 C   0  0  0  0  0  0  0  0  0  0  0  0
   22.7100  -18.8009  -14.1670 C   0  0  0  0  0  0  0  0  0  0  0  0
   26.6147  -19.8122   -9.3457 N   0  0  0  0  0  0  0  0  0  0  0  0
   27.1345  -20.0771   -8.0415 C   0  0  1  0  0  0  0  0  0  0  0  0
   28.0635  -18.9845   -7.5506 C   0  0  0  0  0  0  0  0  0  0  0  0
   28.5739  -19.2432   -6.2014 C   0  0  0  0  0  0  0  0  0  0  0  0
   28.2754  -18.4559   -5.1075 C   0  0  0  0  0  0  0  0  0  0  0  0
   28.7700  -18.7238   -3.8515 C   0  0  0  0  0  0  0  0  0  0  0  0
   29.5998  -19.8168   -3.6491 C   0  0  0  0  0  0  0  0  0  0  0  0
   29.9110  -20.6161   -4.7261 C   0  0  0  0  0  0  0  0  0  0  0  0
   29.4014  -20.3269   -5.9814 C   0  0  0  0  0  0  0  0  0  0  0  0
   26.0491  -20.3383   -7.0509 C   0  0  0  0  0  0  0  0  0  0  0  0
   25.1297  -19.4923   -6.9101 O   0  0  0  0  0  0  0  0  0  0  0  0
   25.0967  -23.3076   -4.9846 C   0  0  0  0  0  0  0  0  0  0  0  0
   25.0869  -21.7968   -5.2384 C   0  0  2  0  0  0  0  0  0  0  0  0
   26.0465  -21.5260   -6.2719 N   0  0  0  0  0  0  0  0  0  0  0  0
   25.4475  -21.1616   -3.9462 C   0  0  0  0  0  0  0  0  0  0  0  0
   24.6276  -20.8786   -3.0388 O   0  0  0  0  0  0  0  0  0  0  0  0
   26.7836  -20.8600   -3.7266 O   0  0  0  0  0  0  0  0  0  0  0  0
  2  1  1  0
  3  2  2  0
  4  3  1  0
  5 11  1  0
  5  4  2  0
  6  5  1  0
  7  6  1  0
  7  8  1  6
  9  7  1  0
  9 10  2  0
 11 12  2  0
 12  2  1  0
 13  9  1  0
 14 13  1  0
 14 15  1  1
 16 15  1  0
 16 17  2  0
 18 17  1  0
 19 18  2  0
 20 21  2  0
 20 19  1  0
 21 16  1  0
 22 14  1  0
 23 22  2  0
 25 24  1  1
 25 27  1  0
 25 26  1  0
 26 22  1  0
 27 29  1  0
 28 27  2  0
M  END
$$$$
