YFA.pdb
     RDKit          3D

 29 30  0  0  1  0  0  0  0  0999 V2000
   25.4319  -15.8779  -22.9635 O   0  0  0  0  0  0  0  0  0  0  0  0
   25.1426  -16.6757  -21.8459 C   0  0  0  0  0  0  0  0  0  0  0  0
   25.5758  -16.2794  -20.6185 C   0  0  0  0  0  0  0  0  0  0  0  0
   25.2963  -17.0555  -19.5187 C   0  0  0  0  0  0  0  0  0  0  0  0
   24.5747  -18.2429  -19.6459 C   0  0  0  0  0  0  0  0  0  0  0  0
   24.3141  -19.0191  -18.4287 C   0  0  0  0  0  0  0  0  0  0  0  0
   25.5108  -19.8990  -18.1135 C   0  0  2  0  0  0  0  0  0  0  0  0
   25.6307  -20.9854  -19.0676 N   0  0  0  0  0  0  0  0  0  0  0  0
   25.2349  -20.5076  -16.7733 C   0  0  0  0  0  0  0  0  0  0  0  0
   24.5675  -21.5678  -16.6555 O   0  0  0  0  0  0  0  0  0  0  0  0
   24.1433  -18.6328  -20.8857 C   0  0  0  0  0  0  0  0  0  0  0  0
   24.4296  -17.8452  -21.9846 C   0  0  0  0  0  0  0  0  0  0  0  0
   25.7214  -19.9029  -15.5831 N   0  0  0  0  0  0  0  0  0  0  0  0
   25.3418  -20.4266  -14.3092 C   0  0  1  0  0  0  0  0  0  0  0  0
   26.2453  -19.9496  -13.1894 C   0  0  0  0  0  0  0  0  0  0  0  0
   25.8101  -20.4252  -11.8733 C   0  0  0  0  0  0  0  0  0  0  0  0
   25.0545  -19.6699  -10.9993 C   0  0  0  0  0  0  0  0  0  0  0  0
   24.6605  -20.1436   -9.7688 C   0  0  0  0  0  0  0  0  0  0  0  0
   25.0213  -21.4214   -9.3671 C   0  0  0  0  0  0  0  0  0  0  0  0
   25.7751  -22.1928  -10.2229 C   0  0  0  0  0  0  0  0  0  0  0  0
   26.1602  -21.6948  -11.4569 C   0  0  0  0  0  0  0  0  0  0  0  0
   23.9100  -20.1457  -13.9948 C   0  0  0  0  0  0  0  0  0  0  0  0
   23.5065  -18.9550  -13.9816 O   0  0  0  0  0  0  0  0  0  0  0  0
   20.8412  -22.2266  -13.7285 C   0  0  0  0  0  0  0  0  0  0  0  0
   21.6490  -21.0005  -13.2911 C   0  0  2  0  0  0  0  0  0  0  0  0
   23.0066  -21.2047  -13.7125 N   0  0  0  0  0  0  0  0  0  0  0  0
   21.5164  -20.9276  -11.8145 C   0  0  0  0  0  0  0  0  0  0  0  0
   22.3214  -21.4435  -11.0011 O   0  0  0  0  0  0  0  0  0  0  0  0
   20.4270  -20.2416  -11.2980 O   0  0  0  0  0  0  0  0  0  0  0  0
  2  1  1  0
  3  2  2  0
  4  3  1  0
  5 11  1  0
  5  4  2  0
  6  5  1  0
  7  6  1  0
  7  8  1  6
  9  7  1  0
  9 10  2  0
 11 12  2  0
 12  2  1  0
 13  9  1  0
 14 13  1  0
 14 15  1  1
 16 15  1  0
 16 17  2  0
 18 17  1  0
 19 18  2  0
 20 21  2  0
 20 19  1  0
 21 16  1  0
 22 14  1  0
 23 22  2  0
 25 24  1  1
 25 27  1  0
 25 26  1  0
 26 22  1  0
 27 29  1  0
 28 27  2  0
M  END
$$$$
