YFA.pdb
     RDKit          3D

 29 30  0  0  1  0  0  0  0  0999 V2000
   18.1292  -22.5612  -10.8417 O   0  0  0  0  0  0  0  0  0  0  0  0
   19.3524  -21.8848  -10.9668 C   0  0  0  0  0  0  0  0  0  0  0  0
   20.1273  -22.1131  -12.0616 C   0  0  0  0  0  0  0  0  0  0  0  0
   21.3269  -21.4542  -12.1914 C   0  0  0  0  0  0  0  0  0  0  0  0
   21.7586  -20.5556  -11.2154 C   0  0  0  0  0  0  0  0  0  0  0  0
   23.0493  -19.8893  -11.4213 C   0  0  0  0  0  0  0  0  0  0  0  0
   24.1809  -20.8503  -11.1024 C   0  0  2  0  0  0  0  0  0  0  0  0
   24.4674  -20.8719   -9.6803 N   0  0  0  0  0  0  0  0  0  0  0  0
   25.3921  -20.3073  -11.7957 C   0  0  0  0  0  0  0  0  0  0  0  0
   26.1681  -19.4953  -11.2282 O   0  0  0  0  0  0  0  0  0  0  0  0
   20.9712  -20.3328  -10.1173 C   0  0  0  0  0  0  0  0  0  0  0  0
   19.7672  -21.0004   -9.9966 C   0  0  0  0  0  0  0  0  0  0  0  0
   25.7063  -20.6943  -13.1262 N   0  0  0  0  0  0  0  0  0  0  0  0
   26.9113  -20.2320  -13.7389 C   0  0  1  0  0  0  0  0  0  0  0  0
   27.9169  -21.3443  -13.9615 C   0  0  0  0  0  0  0  0  0  0  0  0
   27.3559  -22.4678  -14.7168 C   0  0  0  0  0  0  0  0  0  0  0  0
   26.4553  -23.3704  -14.1880 C   0  0  0  0  0  0  0  0  0  0  0  0
   25.9453  -24.4167  -14.9222 C   0  0  0  0  0  0  0  0  0  0  0  0
   26.3327  -24.5943  -16.2422 C   0  0  0  0  0  0  0  0  0  0  0  0
   27.2303  -23.7058  -16.7907 C   0  0  0  0  0  0  0  0  0  0  0  0
   27.7304  -22.6600  -16.0323 C   0  0  0  0  0  0  0  0  0  0  0  0
   26.6440  -19.4936  -15.0082 C   0  0  0  0  0  0  0  0  0  0  0  0
   25.6863  -19.8545  -15.7384 O   0  0  0  0  0  0  0  0  0  0  0  0
   28.2397  -16.4765  -16.5950 C   0  0  0  0  0  0  0  0  0  0  0  0
   27.2932  -17.6806  -16.6298 C   0  0  2  0  0  0  0  0  0  0  0  0
   27.4569  -18.3948  -15.3947 N   0  0  0  0  0  0  0  0  0  0  0  0
   27.6965  -18.4852  -17.8102 C   0  0  0  0  0  0  0  0  0  0  0  0
   28.5746  -19.3821  -17.7940 O   0  0  0  0  0  0  0  0  0  0  0  0
   27.0584  -18.2276  -19.0147 O   0  0  0  0  0  0  0  0  0  0  0  0
  2  1  1  0
  3  2  2  0
  4  3  1  0
  5 11  1  0
  5  4  2  0
  6  5  1  0
  7  6  1  0
  7  8  1  1
  9  7  1  0
  9 10  2  0
 11 12  2  0
 12  2  1  0
 13  9  1  0
 14 13  1  0
 14 15  1  6
 16 15  1  0
 16 17  2  0
 18 17  1  0
 19 18  2  0
 20 21  2  0
 20 19  1  0
 21 16  1  0
 22 14  1  0
 23 22  2  0
 25 24  1  1
 25 27  1  0
 25 26  1  0
 26 22  1  0
 27 29  1  0
 28 27  2  0
M  END
$$$$
