YFA.pdb
     RDKit          3D

 29 30  0  0  1  0  0  0  0  0999 V2000
   35.7557  -25.5605  -22.9613 O   0  0  0  0  0  0  0  0  0  0  0  0
   35.4908  -26.4446  -21.9043 C   0  0  0  0  0  0  0  0  0  0  0  0
   35.9100  -26.1234  -20.6504 C   0  0  0  0  0  0  0  0  0  0  0  0
   35.6543  -26.9843  -19.6095 C   0  0  0  0  0  0  0  0  0  0  0  0
   34.9709  -28.1818  -19.8233 C   0  0  0  0  0  0  0  0  0  0  0  0
   34.7338  -29.0506  -18.6652 C   0  0  0  0  0  0  0  0  0  0  0  0
   33.2456  -29.1233  -18.3727 C   0  0  2  0  0  0  0  0  0  0  0  0
   32.7738  -27.9055  -17.7406 N   0  0  0  0  0  0  0  0  0  0  0  0
   33.0720  -30.2367  -17.3865 C   0  0  0  0  0  0  0  0  0  0  0  0
   33.1176  -30.0316  -16.1458 O   0  0  0  0  0  0  0  0  0  0  0  0
   34.5531  -28.4957  -21.0891 C   0  0  0  0  0  0  0  0  0  0  0  0
   34.8154  -27.6233  -22.1282 C   0  0  0  0  0  0  0  0  0  0  0  0
   32.8486  -31.5702  -17.8232 N   0  0  0  0  0  0  0  0  0  0  0  0
   32.5662  -32.5961  -16.8698 C   0  0  1  0  0  0  0  0  0  0  0  0
   31.2734  -33.3296  -17.1675 C   0  0  0  0  0  0  0  0  0  0  0  0
   30.0888  -32.4964  -16.9439 C   0  0  0  0  0  0  0  0  0  0  0  0
   29.5176  -31.7029  -17.9184 C   0  0  0  0  0  0  0  0  0  0  0  0
   28.4043  -30.9304  -17.6787 C   0  0  0  0  0  0  0  0  0  0  0  0
   27.8149  -30.9300  -16.4230 C   0  0  0  0  0  0  0  0  0  0  0  0
   28.3677  -31.7141  -15.4355 C   0  0  0  0  0  0  0  0  0  0  0  0
   29.4888  -32.4837  -15.6999 C   0  0  0  0  0  0  0  0  0  0  0  0
   33.7019  -33.5542  -16.7286 C   0  0  0  0  0  0  0  0  0  0  0  0
   34.3857  -33.8495  -17.7416 O   0  0  0  0  0  0  0  0  0  0  0  0
   34.9545  -35.6173  -13.8441 C   0  0  0  0  0  0  0  0  0  0  0  0
   35.0925  -35.0563  -15.2631 C   0  0  2  0  0  0  0  0  0  0  0  0
   34.0140  -34.1306  -15.4686 N   0  0  0  0  0  0  0  0  0  0  0  0
   35.0206  -36.2253  -16.1749 C   0  0  0  0  0  0  0  0  0  0  0  0
   33.9573  -36.6921  -16.6515 O   0  0  0  0  0  0  0  0  0  0  0  0
   36.2116  -36.8448  -16.5244 O   0  0  0  0  0  0  0  0  0  0  0  0
  2  1  1  0
  3  2  2  0
  4  3  1  0
  5 11  1  0
  5  4  2  0
  6  5  1  0
  7  6  1  0
  7  8  1  1
  9  7  1  0
  9 10  2  0
 11 12  2  0
 12  2  1  0
 13  9  1  0
 14 13  1  0
 14 15  1  6
 16 15  1  0
 16 17  2  0
 18 17  1  0
 19 18  2  0
 20 21  2  0
 20 19  1  0
 21 16  1  0
 22 14  1  0
 23 22  2  0
 25 24  1  1
 25 27  1  0
 25 26  1  0
 26 22  1  0
 27 29  1  0
 28 27  2  0
M  END
$$$$
