YFA.pdb
     RDKit          3D

 29 30  0  0  1  0  0  0  0  0999 V2000
   19.9412    2.5529  -19.7320 O   0  0  0  0  0  0  0  0  0  0  0  0
   20.2481    1.1908  -19.5919 C   0  0  0  0  0  0  0  0  0  0  0  0
   20.2830    0.6438  -18.3466 C   0  0  0  0  0  0  0  0  0  0  0  0
   20.5829   -0.6899  -18.2010 C   0  0  0  0  0  0  0  0  0  0  0  0
   20.8514   -1.4882  -19.3133 C   0  0  0  0  0  0  0  0  0  0  0  0
   21.1635   -2.9028  -19.0812 C   0  0  0  0  0  0  0  0  0  0  0  0
   22.6609   -3.0758  -18.8979 C   0  0  2  0  0  0  0  0  0  0  0  0
   23.3696   -2.8847  -20.1494 N   0  0  0  0  0  0  0  0  0  0  0  0
   22.8644   -4.4994  -18.4801 C   0  0  0  0  0  0  0  0  0  0  0  0
   23.0800   -5.4092  -19.3222 O   0  0  0  0  0  0  0  0  0  0  0  0
   20.8137   -0.9280  -20.5623 C   0  0  0  0  0  0  0  0  0  0  0  0
   20.5113    0.4137  -20.6974 C   0  0  0  0  0  0  0  0  0  0  0  0
   22.8203   -4.8711  -17.1095 N   0  0  0  0  0  0  0  0  0  0  0  0
   23.0826   -6.2225  -16.7271 C   0  0  1  0  0  0  0  0  0  0  0  0
   23.8414   -6.3220  -15.4186 C   0  0  0  0  0  0  0  0  0  0  0  0
   24.1401   -7.7071  -15.0446 C   0  0  0  0  0  0  0  0  0  0  0  0
   23.4177   -8.4185  -14.1078 C   0  0  0  0  0  0  0  0  0  0  0  0
   23.7221   -9.7191  -13.7768 C   0  0  0  0  0  0  0  0  0  0  0  0
   24.7869  -10.3623  -14.3906 C   0  0  0  0  0  0  0  0  0  0  0  0
   25.5216   -9.6720  -15.3284 C   0  0  0  0  0  0  0  0  0  0  0  0
   25.1966   -8.3632  -15.6456 C   0  0  0  0  0  0  0  0  0  0  0  0
   21.8358   -7.0418  -16.6835 C   0  0  0  0  0  0  0  0  0  0  0  0
   20.8627   -6.6428  -15.9946 O   0  0  0  0  0  0  0  0  0  0  0  0
   20.7605  -10.1428  -18.5158 C   0  0  0  0  0  0  0  0  0  0  0  0
   20.5663   -9.0860  -17.4238 C   0  0  2  0  0  0  0  0  0  0  0  0
   21.7406   -8.2595  -17.4086 N   0  0  0  0  0  0  0  0  0  0  0  0
   20.3817   -9.8356  -16.1560 C   0  0  0  0  0  0  0  0  0  0  0  0
   19.2701  -10.0626  -15.6187 O   0  0  0  0  0  0  0  0  0  0  0  0
   21.5166  -10.3186  -15.5212 O   0  0  0  0  0  0  0  0  0  0  0  0
  2  1  1  0
  3  2  2  0
  4  3  1  0
  5 11  1  0
  5  4  2  0
  6  5  1  0
  7  6  1  0
  7  8  1  6
  9  7  1  0
  9 10  2  0
 11 12  2  0
 12  2  1  0
 13  9  1  0
 14 13  1  0
 14 15  1  1
 16 15  1  0
 16 17  2  0
 18 17  1  0
 19 18  2  0
 20 21  2  0
 20 19  1  0
 21 16  1  0
 22 14  1  0
 23 22  2  0
 25 24  1  6
 25 27  1  0
 25 26  1  0
 26 22  1  0
 27 29  1  0
 28 27  2  0
M  END
$$$$
