ALR.pdb
     RDKit          3D

 25 24  0  0  1  0  0  0  0  0999 V2000
    8.1650  -18.2289   21.7979 C   0  0  0  0  0  0  0  0  0  0  0  0
    8.8819  -16.9145   21.7181 C   0  0  2  0  0  0  0  0  0  0  0  0
    9.9950  -16.9292   20.7929 N   0  0  0  0  0  0  0  0  0  0  0  0
    9.4179  -16.5245   23.0527 C   0  0  0  0  0  0  0  0  0  0  0  0
   10.5831  -16.9141   23.3744 O   0  0  0  0  0  0  0  0  0  0  0  0
    8.5715  -12.4465   27.7285 C   0  0  0  0  0  0  0  0  0  0  0  0
    9.1089  -13.7187   27.1965 C   0  0  1  0  0  0  0  0  0  0  0  0
    8.7737  -14.7957   28.2457 C   0  0  0  0  0  0  0  0  0  0  0  0
    8.5907  -14.2173   25.9115 C   0  0  0  0  0  0  0  0  0  0  0  0
    9.1765  -15.4271   25.3088 C   0  0  2  0  0  0  0  0  0  0  0  0
    8.6967  -15.7390   23.9886 N   0  0  0  0  0  0  0  0  0  0  0  0
    9.1274  -16.5744   26.2257 C   0  0  0  0  0  0  0  0  0  0  0  0
    7.9886  -17.0272   26.5400 O   0  0  0  0  0  0  0  0  0  0  0  0
   14.9226  -22.1348   26.4405 N   0  0  0  0  0  0  0  0  0  0  0  0
   15.0353  -21.1408   25.4391 C   0  0  0  0  0  0  0  0  0  0  0  0
   16.0925  -20.9724   24.7382 N   0  0  0  0  0  0  0  0  0  0  0  0
   13.8945  -20.2751   25.1973 N   0  0  0  0  0  0  0  0  0  0  0  0
   12.7836  -20.4042   26.0785 C   0  0  0  0  0  0  0  0  0  0  0  0
   11.6193  -19.5280   25.9191 C   0  0  0  0  0  0  0  0  0  0  0  0
   10.4645  -19.6455   26.8407 C   0  0  0  0  0  0  0  0  0  0  0  0
   10.1346  -18.4482   27.6175 C   0  0  2  0  0  0  0  0  0  0  0  0
   10.2413  -17.2153   26.7898 N   0  0  0  0  0  0  0  0  0  0  0  0
   11.0907  -18.2410   28.7158 C   0  0  0  0  0  0  0  0  0  0  0  0
   11.8483  -17.1964   28.7102 O   0  0  0  0  0  0  0  0  0  0  0  0
   11.2792  -19.0636   29.7894 O   0  0  0  0  0  0  0  0  0  0  0  0
  2  1  1  1
  2  4  1  0
  2  3  1  0
  4  5  2  0
  7  6  1  1
  7  8  1  0
  9  7  1  0
 10  9  1  1
 10 12  1  0
 11 10  1  0
 11  4  1  0
 12 13  2  0
 14 15  1  0
 15 16  2  0
 17 18  1  0
 17 15  1  0
 19 20  1  0
 19 18  1  0
 21 20  1  6
 21 23  1  0
 22 21  1  0
 22 12  1  0
 23 24  2  0
 23 25  1  0
M  END
$$$$
