ALR.pdb
     RDKit          3D

 25 24  0  0  1  0  0  0  0  0999 V2000
    5.9914  -16.1319   19.5293 C   0  0  0  0  0  0  0  0  0  0  0  0
    6.3819  -16.9302   20.7369 C   0  0  2  0  0  0  0  0  0  0  0  0
    5.2470  -17.4895   21.4401 N   0  0  0  0  0  0  0  0  0  0  0  0
    7.1337  -16.0850   21.7070 C   0  0  0  0  0  0  0  0  0  0  0  0
    8.2481  -15.5946   21.3457 O   0  0  0  0  0  0  0  0  0  0  0  0
    7.7987  -12.1560   25.5743 C   0  0  0  0  0  0  0  0  0  0  0  0
    7.2372  -13.4627   25.9839 C   0  0  1  0  0  0  0  0  0  0  0  0
    6.1578  -13.1520   27.0382 C   0  0  0  0  0  0  0  0  0  0  0  0
    6.5879  -14.2998   24.9611 C   0  0  0  0  0  0  0  0  0  0  0  0
    7.4130  -15.0130   23.9709 C   0  0  2  0  0  0  0  0  0  0  0  0
    6.6728  -15.7961   23.0174 N   0  0  0  0  0  0  0  0  0  0  0  0
    8.5062  -15.7616   24.6065 C   0  0  0  0  0  0  0  0  0  0  0  0
    8.1970  -16.6369   25.4662 O   0  0  0  0  0  0  0  0  0  0  0  0
   14.4408  -14.1786   21.2106 N   0  0  0  0  0  0  0  0  0  0  0  0
   13.7299  -14.9074   20.2272 C   0  0  0  0  0  0  0  0  0  0  0  0
   13.4315  -14.4251   19.0802 N   0  0  0  0  0  0  0  0  0  0  0  0
   13.3240  -16.2669   20.5377 N   0  0  0  0  0  0  0  0  0  0  0  0
   13.2267  -16.6167   21.9145 C   0  0  0  0  0  0  0  0  0  0  0  0
   12.2983  -15.8931   22.7881 C   0  0  0  0  0  0  0  0  0  0  0  0
   12.2310  -16.2122   24.2339 C   0  0  0  0  0  0  0  0  0  0  0  0
   10.9103  -16.5747   24.7538 C   0  0  2  0  0  0  0  0  0  0  0  0
    9.8737  -15.5879   24.3435 N   0  0  0  0  0  0  0  0  0  0  0  0
   10.8866  -16.5474   26.2242 C   0  0  0  0  0  0  0  0  0  0  0  0
   10.8875  -15.4127   26.8387 O   0  0  0  0  0  0  0  0  0  0  0  0
   10.8635  -17.6328   27.0525 O   0  0  0  0  0  0  0  0  0  0  0  0
  2  1  1  6
  2  4  1  0
  2  3  1  0
  4  5  2  0
  7  6  1  6
  7  8  1  0
  9  7  1  0
 10  9  1  1
 10 12  1  0
 11 10  1  0
 11  4  1  0
 12 13  2  0
 14 15  1  0
 15 16  2  0
 17 18  1  0
 17 15  1  0
 19 20  1  0
 19 18  1  0
 21 20  1  6
 21 23  1  0
 22 21  1  0
 22 12  1  0
 23 24  2  0
 23 25  1  0
M  END
$$$$
