ALR.pdb
     RDKit          3D

 25 24  0  0  1  0  0  0  0  0999 V2000
    7.8670  -12.9674   19.6305 C   0  0  0  0  0  0  0  0  0  0  0  0
    7.6785  -14.2248   20.4252 C   0  0  2  0  0  0  0  0  0  0  0  0
    6.2912  -14.6211   20.5418 N   0  0  0  0  0  0  0  0  0  0  0  0
    8.2116  -14.0601   21.8069 C   0  0  0  0  0  0  0  0  0  0  0  0
    9.4653  -13.9267   21.9600 O   0  0  0  0  0  0  0  0  0  0  0  0
    8.7777  -11.8821   26.6797 C   0  0  0  0  0  0  0  0  0  0  0  0
    7.5948  -12.7625   26.5525 C   0  0  1  0  0  0  0  0  0  0  0  0
    6.4451  -12.0405   27.2805 C   0  0  0  0  0  0  0  0  0  0  0  0
    7.0965  -13.0788   25.2034 C   0  0  0  0  0  0  0  0  0  0  0  0
    7.9070  -13.9188   24.3049 C   0  0  2  0  0  0  0  0  0  0  0  0
    7.3940  -14.0438   22.9664 N   0  0  0  0  0  0  0  0  0  0  0  0
    8.2403  -15.2124   24.9173 C   0  0  0  0  0  0  0  0  0  0  0  0
    7.2826  -15.9659   25.2574 O   0  0  0  0  0  0  0  0  0  0  0  0
   13.0133  -19.2986   21.3225 N   0  0  0  0  0  0  0  0  0  0  0  0
   11.8668  -19.0111   20.5438 C   0  0  0  0  0  0  0  0  0  0  0  0
   11.6875  -19.4779   19.3660 N   0  0  0  0  0  0  0  0  0  0  0  0
   10.8473  -18.1474   21.1130 N   0  0  0  0  0  0  0  0  0  0  0  0
   11.1141  -17.5851   22.3936 C   0  0  0  0  0  0  0  0  0  0  0  0
   10.5797  -18.2263   23.5986 C   0  0  0  0  0  0  0  0  0  0  0  0
   10.9142  -17.6916   24.9399 C   0  0  0  0  0  0  0  0  0  0  0  0
    9.8162  -17.0582   25.6740 C   0  0  2  0  0  0  0  0  0  0  0  0
    9.5378  -15.6880   25.1623 N   0  0  0  0  0  0  0  0  0  0  0  0
   10.1608  -16.8618   27.0903 C   0  0  0  0  0  0  0  0  0  0  0  0
   10.5014  -15.6881   27.5047 O   0  0  0  0  0  0  0  0  0  0  0  0
   10.1632  -17.8211   28.0622 O   0  0  0  0  0  0  0  0  0  0  0  0
  2  1  1  6
  2  4  1  0
  2  3  1  0
  4  5  2  0
  7  6  1  6
  7  8  1  0
  9  7  1  0
 10  9  1  1
 10 12  1  0
 11 10  1  0
 11  4  1  0
 12 13  2  0
 14 15  1  0
 15 16  2  0
 17 18  1  0
 17 15  1  0
 19 20  1  0
 19 18  1  0
 21 20  1  6
 21 23  1  0
 22 21  1  0
 22 12  1  0
 23 24  2  0
 23 25  1  0
M  END
$$$$
