ALR.pdb
     RDKit          3D

 25 24  0  0  1  0  0  0  0  0999 V2000
    7.6181  -12.8969   20.1807 C   0  0  0  0  0  0  0  0  0  0  0  0
    7.5418  -14.2563   20.8087 C   0  0  2  0  0  0  0  0  0  0  0  0
    6.1839  -14.7251   20.9862 N   0  0  0  0  0  0  0  0  0  0  0  0
    8.1908  -14.2545   22.1500 C   0  0  0  0  0  0  0  0  0  0  0  0
    9.4577  -14.1892   22.2094 O   0  0  0  0  0  0  0  0  0  0  0  0
    5.9865  -11.8139   26.7217 C   0  0  0  0  0  0  0  0  0  0  0  0
    6.9529  -12.3322   25.7277 C   0  0  1  0  0  0  0  0  0  0  0  0
    8.2713  -11.5763   25.9798 C   0  0  0  0  0  0  0  0  0  0  0  0
    7.2864  -13.7662   25.7539 C   0  0  0  0  0  0  0  0  0  0  0  0
    8.0931  -14.3474   24.6669 C   0  0  2  0  0  0  0  0  0  0  0  0
    7.4699  -14.3220   23.3702 N   0  0  0  0  0  0  0  0  0  0  0  0
    8.6232  -15.6702   25.0256 C   0  0  0  0  0  0  0  0  0  0  0  0
    8.1150  -16.2557   26.0253 O   0  0  0  0  0  0  0  0  0  0  0  0
    8.1855  -20.1548   20.4850 N   0  0  0  0  0  0  0  0  0  0  0  0
    9.1244  -19.8029   19.4859 C   0  0  0  0  0  0  0  0  0  0  0  0
    9.0359  -20.2008   18.2731 N   0  0  0  0  0  0  0  0  0  0  0  0
   10.2378  -18.9479   19.8585 N   0  0  0  0  0  0  0  0  0  0  0  0
   10.7580  -19.0969   21.1755 C   0  0  0  0  0  0  0  0  0  0  0  0
   10.3370  -18.1763   22.2357 C   0  0  0  0  0  0  0  0  0  0  0  0
   10.8667  -18.3293   23.6115 C   0  0  0  0  0  0  0  0  0  0  0  0
   10.0606  -17.7388   24.6826 C   0  0  2  0  0  0  0  0  0  0  0  0
    9.6535  -16.3452   24.3528 N   0  0  0  0  0  0  0  0  0  0  0  0
   10.8323  -17.6144   25.9285 C   0  0  0  0  0  0  0  0  0  0  0  0
   11.4240  -16.5005   26.2009 O   0  0  0  0  0  0  0  0  0  0  0  0
   11.0040  -18.5854   26.8733 O   0  0  0  0  0  0  0  0  0  0  0  0
  2  1  1  1
  2  4  1  0
  2  3  1  0
  4  5  2  0
  7  6  1  1
  7  8  1  0
  9  7  1  0
 10  9  1  1
 10 12  1  0
 11 10  1  0
 11  4  1  0
 12 13  2  0
 14 15  1  0
 15 16  2  0
 17 18  1  0
 17 15  1  0
 19 20  1  0
 19 18  1  0
 21 20  1  6
 21 23  1  0
 22 21  1  0
 22 12  1  0
 23 24  2  0
 23 25  1  0
M  END
$$$$
