ALR.pdb
     RDKit          3D

 25 24  0  0  1  0  0  0  0  0999 V2000
    7.9409  -14.5924   20.4101 C   0  0  0  0  0  0  0  0  0  0  0  0
    8.0117  -15.5778   21.5379 C   0  0  2  0  0  0  0  0  0  0  0  0
    6.7091  -16.0054   22.0020 N   0  0  0  0  0  0  0  0  0  0  0  0
    8.7297  -14.9924   22.7051 C   0  0  0  0  0  0  0  0  0  0  0  0
    9.9622  -14.7131   22.5796 O   0  0  0  0  0  0  0  0  0  0  0  0
    5.6566  -12.3513   26.3578 C   0  0  0  0  0  0  0  0  0  0  0  0
    6.7438  -12.6972   25.4149 C   0  0  1  0  0  0  0  0  0  0  0  0
    7.1730  -11.3734   24.7542 C   0  0  0  0  0  0  0  0  0  0  0  0
    7.9711  -13.3088   25.9518 C   0  0  0  0  0  0  0  0  0  0  0  0
    8.8001  -14.1629   25.0841 C   0  0  2  0  0  0  0  0  0  0  0  0
    8.1112  -14.7282   23.9544 N   0  0  0  0  0  0  0  0  0  0  0  0
    9.5545  -15.1598   25.8566 C   0  0  0  0  0  0  0  0  0  0  0  0
   10.0486  -14.7951   26.9627 O   0  0  0  0  0  0  0  0  0  0  0  0
   11.8827  -21.4053   29.2234 N   0  0  0  0  0  0  0  0  0  0  0  0
   10.9192  -21.2887   30.2536 C   0  0  0  0  0  0  0  0  0  0  0  0
   11.1104  -21.7247   31.4413 N   0  0  0  0  0  0  0  0  0  0  0  0
    9.6565  -20.6410   29.9447 N   0  0  0  0  0  0  0  0  0  0  0  0
    9.4467  -20.2383   28.5952 C   0  0  0  0  0  0  0  0  0  0  0  0
   10.1503  -19.0668   28.0649 C   0  0  0  0  0  0  0  0  0  0  0  0
    9.8981  -18.6088   26.6780 C   0  0  0  0  0  0  0  0  0  0  0  0
   10.6429  -17.4243   26.2443 C   0  0  2  0  0  0  0  0  0  0  0  0
    9.7787  -16.4904   25.4710 N   0  0  0  0  0  0  0  0  0  0  0  0
   11.7259  -17.7818   25.3155 C   0  0  0  0  0  0  0  0  0  0  0  0
   11.4756  -17.8748   24.0530 O   0  0  0  0  0  0  0  0  0  0  0  0
   13.0247  -18.0396   25.6493 O   0  0  0  0  0  0  0  0  0  0  0  0
  2  1  1  6
  2  4  1  0
  2  3  1  0
  4  5  2  0
  7  6  1  1
  7  8  1  0
  9  7  1  0
 10  9  1  1
 10 12  1  0
 11 10  1  0
 11  4  1  0
 12 13  2  0
 14 15  1  0
 15 16  2  0
 17 18  1  0
 17 15  1  0
 19 20  1  0
 19 18  1  0
 21 20  1  6
 21 23  1  0
 22 21  1  0
 22 12  1  0
 23 24  2  0
 23 25  1  0
M  END
$$$$
