ALR.pdb
     RDKit          3D

 25 24  0  0  1  0  0  0  0  0999 V2000
    6.8151  -16.1438   21.0807 C   0  0  0  0  0  0  0  0  0  0  0  0
    7.1768  -14.6944   21.2090 C   0  0  2  0  0  0  0  0  0  0  0  0
    8.0261  -14.2232   20.1357 N   0  0  0  0  0  0  0  0  0  0  0  0
    7.8964  -14.4420   22.4892 C   0  0  0  0  0  0  0  0  0  0  0  0
    9.1560  -14.2835   22.4544 O   0  0  0  0  0  0  0  0  0  0  0  0
    5.6442  -11.5137   26.6536 C   0  0  0  0  0  0  0  0  0  0  0  0
    6.5086  -12.1693   25.6468 C   0  0  1  0  0  0  0  0  0  0  0  0
    7.6194  -11.1556   25.3128 C   0  0  0  0  0  0  0  0  0  0  0  0
    7.1889  -13.4225   26.0145 C   0  0  0  0  0  0  0  0  0  0  0  0
    7.9462  -14.1678   24.9942 C   0  0  2  0  0  0  0  0  0  0  0  0
    7.2508  -14.3684   23.7505 N   0  0  0  0  0  0  0  0  0  0  0  0
    8.5248  -15.4049   25.5368 C   0  0  0  0  0  0  0  0  0  0  0  0
    9.2044  -15.3187   26.6004 O   0  0  0  0  0  0  0  0  0  0  0  0
   14.8476  -21.1446   24.8671 N   0  0  0  0  0  0  0  0  0  0  0  0
   14.2310  -20.3689   23.8563 C   0  0  0  0  0  0  0  0  0  0  0  0
   14.7915  -19.3539   23.3153 N   0  0  0  0  0  0  0  0  0  0  0  0
   12.9006  -20.7478   23.4135 N   0  0  0  0  0  0  0  0  0  0  0  0
   11.9605  -19.6977   23.2111 C   0  0  0  0  0  0  0  0  0  0  0  0
   11.1375  -19.2285   24.3296 C   0  0  0  0  0  0  0  0  0  0  0  0
   10.0699  -18.2259   24.1021 C   0  0  0  0  0  0  0  0  0  0  0  0
    9.3142  -17.8084   25.2855 C   0  0  2  0  0  0  0  0  0  0  0  0
    8.3907  -16.6831   24.9730 N   0  0  0  0  0  0  0  0  0  0  0  0
   10.2033  -17.2787   26.3305 C   0  0  0  0  0  0  0  0  0  0  0  0
   10.6629  -16.0775   26.2250 O   0  0  0  0  0  0  0  0  0  0  0  0
   10.6189  -17.9408   27.4502 O   0  0  0  0  0  0  0  0  0  0  0  0
  2  1  1  6
  2  4  1  0
  2  3  1  0
  4  5  2  0
  7  6  1  1
  7  8  1  0
  9  7  1  0
 10  9  1  1
 10 12  1  0
 11 10  1  0
 11  4  1  0
 12 13  2  0
 14 15  1  0
 15 16  2  0
 17 18  1  0
 17 15  1  0
 19 20  1  0
 19 18  1  0
 21 20  1  6
 21 23  1  0
 22 21  1  0
 22 12  1  0
 23 24  2  0
 23 25  1  0
M  END
$$$$
