ALR.pdb
     RDKit          3D

 25 24  0  0  1  0  0  0  0  0999 V2000
    7.3878  -16.2486   20.3918 C   0  0  0  0  0  0  0  0  0  0  0  0
    7.4494  -14.7516   20.4469 C   0  0  2  0  0  0  0  0  0  0  0  0
    8.3469  -14.1829   19.4640 N   0  0  0  0  0  0  0  0  0  0  0  0
    7.9093  -14.2920   21.7877 C   0  0  0  0  0  0  0  0  0  0  0  0
    9.1482  -14.0726   21.9603 O   0  0  0  0  0  0  0  0  0  0  0  0
    7.7896  -11.6411   26.5964 C   0  0  0  0  0  0  0  0  0  0  0  0
    6.7908  -12.7226   26.4436 C   0  0  1  0  0  0  0  0  0  0  0  0
    5.4892  -12.1940   27.0757 C   0  0  0  0  0  0  0  0  0  0  0  0
    6.4400  -13.1679   25.0846 C   0  0  0  0  0  0  0  0  0  0  0  0
    7.4849  -13.7206   24.2057 C   0  0  2  0  0  0  0  0  0  0  0  0
    7.0371  -14.0848   22.8876 N   0  0  0  0  0  0  0  0  0  0  0  0
    8.2511  -14.7852   24.8684 C   0  0  0  0  0  0  0  0  0  0  0  0
    8.7460  -14.5327   26.0050 O   0  0  0  0  0  0  0  0  0  0  0  0
   11.0600  -22.6272   22.9314 N   0  0  0  0  0  0  0  0  0  0  0  0
   11.4040  -22.5090   24.2993 C   0  0  0  0  0  0  0  0  0  0  0  0
   11.5894  -23.5190   25.0627 N   0  0  0  0  0  0  0  0  0  0  0  0
   11.5551  -21.1770   24.8583 N   0  0  0  0  0  0  0  0  0  0  0  0
   11.2748  -20.0770   23.9988 C   0  0  0  0  0  0  0  0  0  0  0  0
   11.2027  -18.7202   24.5488 C   0  0  0  0  0  0  0  0  0  0  0  0
   10.2244  -17.7464   24.0088 C   0  0  0  0  0  0  0  0  0  0  0  0
    9.3923  -17.0533   24.9952 C   0  0  2  0  0  0  0  0  0  0  0  0
    8.4860  -16.0664   24.3461 N   0  0  0  0  0  0  0  0  0  0  0  0
   10.2101  -16.2533   25.9196 C   0  0  0  0  0  0  0  0  0  0  0  0
   10.2369  -16.5604   27.1726 O   0  0  0  0  0  0  0  0  0  0  0  0
   10.9786  -15.1734   25.5911 O   0  0  0  0  0  0  0  0  0  0  0  0
  2  1  1  1
  2  4  1  0
  2  3  1  0
  4  5  2  0
  7  6  1  6
  7  8  1  0
  9  7  1  0
 10  9  1  1
 10 12  1  0
 11 10  1  0
 11  4  1  0
 12 13  2  0
 14 15  1  0
 15 16  2  0
 17 18  1  0
 17 15  1  0
 19 20  1  0
 19 18  1  0
 21 20  1  6
 21 23  1  0
 22 21  1  0
 22 12  1  0
 23 24  2  0
 23 25  1  0
M  END
$$$$
