SAL.pdb
     RDKit          3D

 20 19  0  0  1  0  0  0  0  0999 V2000
   10.6256  -13.2439   19.8165 O   0  0  0  0  0  0  0  0  0  0  0  0
    9.5718  -12.6415   19.1632 C   0  0  0  0  0  0  0  0  0  0  0  0
    8.4610  -13.6739   18.9575 C   0  0  2  0  0  0  0  0  0  0  0  0
    7.3549  -13.0645   18.2294 N   0  0  0  0  0  0  0  0  0  0  0  0
    7.9941  -14.2567   20.2423 C   0  0  0  0  0  0  0  0  0  0  0  0
    7.1462  -13.5566   20.9053 O   0  0  0  0  0  0  0  0  0  0  0  0
    8.0801  -17.5451   21.9369 C   0  0  0  0  0  0  0  0  0  0  0  0
    7.8824  -16.0228   21.9411 C   0  0  2  0  0  0  0  0  0  0  0  0
    8.4420  -15.5060   20.7253 N   0  0  0  0  0  0  0  0  0  0  0  0
    8.6111  -15.5329   23.1460 C   0  0  0  0  0  0  0  0  0  0  0  0
    9.6049  -14.7851   22.9614 O   0  0  0  0  0  0  0  0  0  0  0  0
    6.4051  -13.7467   26.9719 C   0  0  0  0  0  0  0  0  0  0  0  0
    7.0890  -13.4486   25.5706 C   0  0  1  0  0  0  0  0  0  0  0  0
    6.8219  -11.9729   25.3492 C   0  0  0  0  0  0  0  0  0  0  0  0
    8.5173  -13.8339   25.6979 C   0  0  0  0  0  0  0  0  0  0  0  0
    8.8509  -15.2646   25.6643 C   0  0  2  0  0  0  0  0  0  0  0  0
    8.2368  -15.8684   24.4483 N   0  0  0  0  0  0  0  0  0  0  0  0
    8.4035  -16.0565   26.7936 C   0  0  0  0  0  0  0  0  0  0  0  0
    7.5011  -16.9276   26.8145 O   0  0  0  0  0  0  0  0  0  0  0  0
    9.0403  -15.8520   28.0515 O   0  0  0  0  0  0  0  0  0  0  0  0
  2  1  1  0
  3  2  1  0
  3  5  1  0
  3  4  1  1
  5  6  2  0
  8  7  1  6
  9  8  1  0
  9  5  1  0
 10  8  1  0
 10 11  2  0
 13 12  1  1
 13 14  1  0
 13 15  1  0
 16 15  1  1
 16 17  1  0
 16 18  1  0
 17 10  1  0
 18 19  2  0
 18 20  1  0
M  END
$$$$
