SAL.pdb
     RDKit          3D

 20 19  0  0  1  0  0  0  0  0999 V2000
   11.3428  -12.7132   18.8419 O   0  0  0  0  0  0  0  0  0  0  0  0
   10.3068  -12.8214   19.7448 C   0  0  0  0  0  0  0  0  0  0  0  0
    9.3331  -13.8957   19.2552 C   0  0  2  0  0  0  0  0  0  0  0  0
    8.4192  -13.3190   18.2768 N   0  0  0  0  0  0  0  0  0  0  0  0
    8.5850  -14.5248   20.3746 C   0  0  0  0  0  0  0  0  0  0  0  0
    7.4559  -13.9897   20.6708 O   0  0  0  0  0  0  0  0  0  0  0  0
    8.5662  -17.6746   22.2644 C   0  0  0  0  0  0  0  0  0  0  0  0
    8.2905  -16.1672   22.1727 C   0  0  2  0  0  0  0  0  0  0  0  0
    9.0673  -15.6462   21.0847 N   0  0  0  0  0  0  0  0  0  0  0  0
    8.7188  -15.6064   23.4860 C   0  0  0  0  0  0  0  0  0  0  0  0
    9.9383  -15.3388   23.6350 O   0  0  0  0  0  0  0  0  0  0  0  0
    7.5541  -12.1002   25.1271 C   0  0  0  0  0  0  0  0  0  0  0  0
    7.3007  -12.6540   26.5932 C   0  0  1  0  0  0  0  0  0  0  0  0
    6.0697  -11.8983   27.0530 C   0  0  0  0  0  0  0  0  0  0  0  0
    7.1480  -14.1264   26.4768 C   0  0  0  0  0  0  0  0  0  0  0  0
    8.2542  -14.8892   25.8821 C   0  0  2  0  0  0  0  0  0  0  0  0
    7.8310  -15.3718   24.5374 N   0  0  0  0  0  0  0  0  0  0  0  0
    8.7029  -16.0539   26.6202 C   0  0  0  0  0  0  0  0  0  0  0  0
    8.3223  -17.2421   26.4902 O   0  0  0  0  0  0  0  0  0  0  0  0
    9.6967  -15.8706   27.6244 O   0  0  0  0  0  0  0  0  0  0  0  0
  2  1  1  0
  3  2  1  0
  3  5  1  0
  3  4  1  6
  5  6  2  0
  8  7  1  1
  9  8  1  0
  9  5  1  0
 10  8  1  0
 10 11  2  0
 13 12  1  6
 13 14  1  0
 13 15  1  0
 16 15  1  1
 16 17  1  0
 16 18  1  0
 17 10  1  0
 18 19  2  0
 18 20  1  0
M  END
$$$$
