SAL.pdb
     RDKit          3D

 20 19  0  0  1  0  0  0  0  0999 V2000
    5.9633  -18.1809   23.3324 O   0  0  0  0  0  0  0  0  0  0  0  0
    5.0602  -17.7316   22.3928 C   0  0  0  0  0  0  0  0  0  0  0  0
    5.7814  -17.5622   21.0537 C   0  0  2  0  0  0  0  0  0  0  0  0
    6.1290  -18.8717   20.5157 N   0  0  0  0  0  0  0  0  0  0  0  0
    6.9859  -16.6998   21.1722 C   0  0  0  0  0  0  0  0  0  0  0  0
    8.0987  -17.3081   21.3729 O   0  0  0  0  0  0  0  0  0  0  0  0
    7.8548  -13.1124   20.6746 C   0  0  0  0  0  0  0  0  0  0  0  0
    8.1567  -14.5446   21.1378 C   0  0  2  0  0  0  0  0  0  0  0  0
    6.9339  -15.2920   21.0722 N   0  0  0  0  0  0  0  0  0  0  0  0
    8.6575  -14.4106   22.5356 C   0  0  0  0  0  0  0  0  0  0  0  0
    9.7803  -13.8699   22.7026 O   0  0  0  0  0  0  0  0  0  0  0  0
    5.3393  -12.5952   26.4079 C   0  0  0  0  0  0  0  0  0  0  0  0
    6.7354  -12.7310   25.6645 C   0  0  1  0  0  0  0  0  0  0  0  0
    7.6100  -11.7039   26.3560 C   0  0  0  0  0  0  0  0  0  0  0  0
    7.1640  -14.1454   25.8082 C   0  0  0  0  0  0  0  0  0  0  0  0
    8.3450  -14.5878   25.0541 C   0  0  2  0  0  0  0  0  0  0  0  0
    7.9379  -14.8557   23.6459 N   0  0  0  0  0  0  0  0  0  0  0  0
    9.0020  -15.7883   25.5331 C   0  0  0  0  0  0  0  0  0  0  0  0
    9.0790  -16.9037   24.9643 O   0  0  0  0  0  0  0  0  0  0  0  0
    9.6522  -15.7381   26.7998 O   0  0  0  0  0  0  0  0  0  0  0  0
  2  1  1  0
  3  2  1  0
  3  5  1  0
  3  4  1  1
  5  6  2  0
  8  7  1  1
  9  8  1  0
  9  5  1  0
 10  8  1  0
 10 11  2  0
 13 12  1  1
 13 14  1  0
 13 15  1  0
 16 15  1  1
 16 17  1  0
 16 18  1  0
 17 10  1  0
 18 19  2  0
 18 20  1  0
M  END
$$$$
