SAL.pdb
     RDKit          3D

 20 19  0  0  1  0  0  0  0  0999 V2000
    6.3536  -17.7325   23.6628 O   0  0  0  0  0  0  0  0  0  0  0  0
    5.5450  -18.3235   22.7156 C   0  0  0  0  0  0  0  0  0  0  0  0
    6.0351  -17.9184   21.3235 C   0  0  2  0  0  0  0  0  0  0  0  0
    6.3966  -19.1101   20.5658 N   0  0  0  0  0  0  0  0  0  0  0  0
    7.1722  -16.9638   21.3866 C   0  0  0  0  0  0  0  0  0  0  0  0
    8.3420  -17.4842   21.4839 O   0  0  0  0  0  0  0  0  0  0  0  0
    7.7261  -13.3249   20.8707 C   0  0  0  0  0  0  0  0  0  0  0  0
    8.1613  -14.7195   21.3424 C   0  0  2  0  0  0  0  0  0  0  0  0
    7.0005  -15.5627   21.3427 N   0  0  0  0  0  0  0  0  0  0  0  0
    8.7090  -14.5195   22.7145 C   0  0  0  0  0  0  0  0  0  0  0  0
    9.8004  -13.9044   22.8218 O   0  0  0  0  0  0  0  0  0  0  0  0
    5.6772  -12.4718   26.5241 C   0  0  0  0  0  0  0  0  0  0  0  0
    7.0114  -12.7409   25.7070 C   0  0  1  0  0  0  0  0  0  0  0  0
    7.9458  -11.6436   26.1769 C   0  0  0  0  0  0  0  0  0  0  0  0
    7.4361  -14.1287   26.0212 C   0  0  0  0  0  0  0  0  0  0  0  0
    8.5453  -14.7021   25.2466 C   0  0  2  0  0  0  0  0  0  0  0  0
    8.0658  -14.9821   23.8638 N   0  0  0  0  0  0  0  0  0  0  0  0
    9.1099  -15.9392   25.7499 C   0  0  0  0  0  0  0  0  0  0  0  0
    9.6353  -16.1469   26.8699 O   0  0  0  0  0  0  0  0  0  0  0  0
    9.0846  -17.0831   24.9010 O   0  0  0  0  0  0  0  0  0  0  0  0
  2  1  1  0
  3  2  1  0
  3  5  1  0
  3  4  1  1
  5  6  2  0
  8  7  1  1
  9  8  1  0
  9  5  1  0
 10  8  1  0
 10 11  2  0
 13 12  1  1
 13 14  1  0
 13 15  1  0
 16 15  1  1
 16 17  1  0
 16 18  1  0
 17 10  1  0
 18 19  2  0
 18 20  1  0
M  END
$$$$
