SAL.pdb
     RDKit          3D

 20 19  0  0  1  0  0  0  0  0999 V2000
    6.5789  -18.2597   24.2574 O   0  0  0  0  0  0  0  0  0  0  0  0
    5.4589  -18.0509   23.4814 C   0  0  0  0  0  0  0  0  0  0  0  0
    5.8774  -18.0023   22.0102 C   0  0  2  0  0  0  0  0  0  0  0  0
    6.1460  -19.3531   21.5326 N   0  0  0  0  0  0  0  0  0  0  0  0
    7.0517  -17.1182   21.7916 C   0  0  0  0  0  0  0  0  0  0  0  0
    8.1986  -17.6955   21.7777 O   0  0  0  0  0  0  0  0  0  0  0  0
    7.7529  -13.5362   21.0496 C   0  0  0  0  0  0  0  0  0  0  0  0
    8.1286  -14.9236   21.5886 C   0  0  2  0  0  0  0  0  0  0  0  0
    6.9373  -15.7228   21.6067 N   0  0  0  0  0  0  0  0  0  0  0  0
    8.6634  -14.6836   22.9594 C   0  0  0  0  0  0  0  0  0  0  0  0
    9.7521  -14.0626   23.0592 O   0  0  0  0  0  0  0  0  0  0  0  0
    5.5726  -12.5976   26.5811 C   0  0  0  0  0  0  0  0  0  0  0  0
    6.9321  -12.8745   25.8095 C   0  0  1  0  0  0  0  0  0  0  0  0
    7.8029  -11.6915   26.1838 C   0  0  0  0  0  0  0  0  0  0  0  0
    7.4198  -14.2029   26.2594 C   0  0  0  0  0  0  0  0  0  0  0  0
    8.5029  -14.8351   25.4937 C   0  0  2  0  0  0  0  0  0  0  0  0
    8.0109  -15.1154   24.1154 N   0  0  0  0  0  0  0  0  0  0  0  0
    9.0142  -16.0874   26.0160 C   0  0  0  0  0  0  0  0  0  0  0  0
    8.9605  -17.2228   25.4852 O   0  0  0  0  0  0  0  0  0  0  0  0
    9.6647  -16.0708   27.2834 O   0  0  0  0  0  0  0  0  0  0  0  0
  2  1  1  0
  3  2  1  0
  3  5  1  0
  3  4  1  1
  5  6  2  0
  8  7  1  1
  9  8  1  0
  9  5  1  0
 10  8  1  0
 10 11  2  0
 13 12  1  1
 13 14  1  0
 13 15  1  0
 16 15  1  1
 16 17  1  0
 16 18  1  0
 17 10  1  0
 18 19  2  0
 18 20  1  0
M  END
$$$$
