SAL.pdb
     RDKit          3D

 20 19  0  0  1  0  0  0  0  0999 V2000
    6.3764  -18.1447   24.5412 O   0  0  0  0  0  0  0  0  0  0  0  0
    5.3264  -18.1567   23.6481 C   0  0  0  0  0  0  0  0  0  0  0  0
    5.8760  -18.3987   22.2405 C   0  0  2  0  0  0  0  0  0  0  0  0
    6.2516  -19.7997   22.0957 N   0  0  0  0  0  0  0  0  0  0  0  0
    7.0219  -17.5062   21.9263 C   0  0  0  0  0  0  0  0  0  0  0  0
    8.1902  -18.0283   22.0326 O   0  0  0  0  0  0  0  0  0  0  0  0
    7.6228  -14.0724   20.6277 C   0  0  0  0  0  0  0  0  0  0  0  0
    8.0189  -15.3210   21.4281 C   0  0  2  0  0  0  0  0  0  0  0  0
    6.8597  -16.1601   21.5312 N   0  0  0  0  0  0  0  0  0  0  0  0
    8.4634  -14.8136   22.7576 C   0  0  0  0  0  0  0  0  0  0  0  0
    9.5048  -14.1100   22.7939 O   0  0  0  0  0  0  0  0  0  0  0  0
    7.7845  -11.5267   25.7270 C   0  0  0  0  0  0  0  0  0  0  0  0
    7.0349  -12.6056   26.6182 C   0  0  1  0  0  0  0  0  0  0  0  0
    5.7451  -11.9120   27.0097 C   0  0  0  0  0  0  0  0  0  0  0  0
    6.8846  -13.8243   25.7833 C   0  0  0  0  0  0  0  0  0  0  0  0
    8.1030  -14.4485   25.2493 C   0  0  2  0  0  0  0  0  0  0  0  0
    7.7777  -15.0864   23.9425 N   0  0  0  0  0  0  0  0  0  0  0  0
    8.7147  -15.4737   26.0722 C   0  0  0  0  0  0  0  0  0  0  0  0
    9.2996  -15.3311   27.1727 O   0  0  0  0  0  0  0  0  0  0  0  0
    8.6676  -16.8211   25.6117 O   0  0  0  0  0  0  0  0  0  0  0  0
  2  1  1  0
  3  2  1  0
  3  5  1  0
  3  4  1  1
  5  6  2  0
  8  7  1  6
  9  8  1  0
  9  5  1  0
 10  8  1  0
 10 11  2  0
 13 12  1  6
 13 14  1  0
 13 15  1  0
 16 15  1  1
 16 17  1  0
 16 18  1  0
 17 10  1  0
 18 19  2  0
 18 20  1  0
M  END
$$$$
