SAL.pdb
     RDKit          3D

 20 19  0  0  1  0  0  0  0  0999 V2000
   14.1021  -14.3334   19.1832 O   0  0  0  0  0  0  0  0  0  0  0  0
   13.1918  -14.3703   20.2178 C   0  0  0  0  0  0  0  0  0  0  0  0
   12.0531  -15.3212   19.8423 C   0  0  2  0  0  0  0  0  0  0  0  0
   11.2202  -14.7064   18.8159 N   0  0  0  0  0  0  0  0  0  0  0  0
   11.2393  -15.7130   21.0224 C   0  0  0  0  0  0  0  0  0  0  0  0
   10.3553  -14.8644   21.4060 O   0  0  0  0  0  0  0  0  0  0  0  0
   10.4607  -18.8350   22.8252 C   0  0  0  0  0  0  0  0  0  0  0  0
   10.4805  -17.3030   22.7292 C   0  0  2  0  0  0  0  0  0  0  0  0
   11.4098  -16.9416   21.6977 N   0  0  0  0  0  0  0  0  0  0  0  0
   10.9214  -16.8286   24.0721 C   0  0  0  0  0  0  0  0  0  0  0  0
   12.1543  -16.6635   24.2554 O   0  0  0  0  0  0  0  0  0  0  0  0
   10.9163  -13.5657   28.2440 C   0  0  0  0  0  0  0  0  0  0  0  0
    9.6568  -14.5308   28.2938 C   0  0  1  0  0  0  0  0  0  0  0  0
    8.5389  -13.6343   28.7883 C   0  0  0  0  0  0  0  0  0  0  0  0
    9.4838  -15.0838   26.9266 C   0  0  0  0  0  0  0  0  0  0  0  0
   10.4549  -16.0825   26.4590 C   0  0  2  0  0  0  0  0  0  0  0  0
   10.0311  -16.5657   25.1146 N   0  0  0  0  0  0  0  0  0  0  0  0
   10.6200  -17.2585   27.2910 C   0  0  0  0  0  0  0  0  0  0  0  0
    9.8556  -18.2485   27.3862 O   0  0  0  0  0  0  0  0  0  0  0  0
   11.7785  -17.3399   28.1162 O   0  0  0  0  0  0  0  0  0  0  0  0
  2  1  1  0
  3  2  1  0
  3  5  1  0
  3  4  1  6
  5  6  2  0
  8  7  1  1
  9  8  1  0
  9  5  1  0
 10  8  1  0
 10 11  2  0
 13 12  1  6
 13 14  1  0
 13 15  1  0
 16 15  1  1
 16 17  1  0
 16 18  1  0
 17 10  1  0
 18 19  2  0
 18 20  1  0
M  END
$$$$
