SAL.pdb
     RDKit          3D

 20 19  0  0  1  0  0  0  0  0999 V2000
    5.4728  -19.7220   20.4603 O   0  0  0  0  0  0  0  0  0  0  0  0
    6.1643  -20.1414   21.5766 C   0  0  0  0  0  0  0  0  0  0  0  0
    6.1685  -19.0127   22.6100 C   0  0  2  0  0  0  0  0  0  0  0  0
    4.8207  -18.4768   22.7553 N   0  0  0  0  0  0  0  0  0  0  0  0
    7.1328  -17.9374   22.2600 C   0  0  0  0  0  0  0  0  0  0  0  0
    8.3766  -18.2321   22.3827 O   0  0  0  0  0  0  0  0  0  0  0  0
    7.0666  -14.5895   20.6503 C   0  0  0  0  0  0  0  0  0  0  0  0
    7.7311  -15.6843   21.4966 C   0  0  2  0  0  0  0  0  0  0  0  0
    6.7282  -16.6595   21.8154 N   0  0  0  0  0  0  0  0  0  0  0  0
    8.2425  -14.9886   22.7120 C   0  0  0  0  0  0  0  0  0  0  0  0
    9.1949  -14.1813   22.5633 O   0  0  0  0  0  0  0  0  0  0  0  0
    8.1297  -11.5553   26.4711 C   0  0  0  0  0  0  0  0  0  0  0  0
    7.1804  -12.7692   26.8525 C   0  0  1  0  0  0  0  0  0  0  0  0
    5.9289  -12.0933   27.3766 C   0  0  0  0  0  0  0  0  0  0  0  0
    7.0075  -13.5834   25.6229 C   0  0  0  0  0  0  0  0  0  0  0  0
    8.1309  -14.4261   25.1904 C   0  0  2  0  0  0  0  0  0  0  0  0
    7.7119  -15.1971   23.9862 N   0  0  0  0  0  0  0  0  0  0  0  0
    8.6189  -15.3928   26.1548 C   0  0  0  0  0  0  0  0  0  0  0  0
    8.1779  -16.5451   26.3813 O   0  0  0  0  0  0  0  0  0  0  0  0
    9.7341  -15.0301   26.9638 O   0  0  0  0  0  0  0  0  0  0  0  0
  2  1  1  0
  3  2  1  0
  3  5  1  0
  3  4  1  6
  5  6  2  0
  8  7  1  6
  9  8  1  0
  9  5  1  0
 10  8  1  0
 10 11  2  0
 13 12  1  6
 13 14  1  0
 13 15  1  0
 16 15  1  1
 16 17  1  0
 16 18  1  0
 17 10  1  0
 18 19  2  0
 18 20  1  0
M  END
$$$$
