SAL.pdb
     RDKit          3D

 20 19  0  0  1  0  0  0  0  0999 V2000
    6.8443  -18.7873   19.1607 O   0  0  0  0  0  0  0  0  0  0  0  0
    7.6259  -19.5079   20.0383 C   0  0  0  0  0  0  0  0  0  0  0  0
    7.5392  -18.8629   21.4233 C   0  0  2  0  0  0  0  0  0  0  0  0
    6.1426  -18.7564   21.8274 N   0  0  0  0  0  0  0  0  0  0  0  0
    8.2069  -17.5359   21.4653 C   0  0  0  0  0  0  0  0  0  0  0  0
    9.4854  -17.5428   21.3458 O   0  0  0  0  0  0  0  0  0  0  0  0
    7.2417  -13.9862   21.1555 C   0  0  0  0  0  0  0  0  0  0  0  0
    8.2201  -15.0862   21.5909 C   0  0  2  0  0  0  0  0  0  0  0  0
    7.4976  -16.3252   21.6252 N   0  0  0  0  0  0  0  0  0  0  0  0
    8.6973  -14.6781   22.9431 C   0  0  0  0  0  0  0  0  0  0  0  0
    9.5355  -13.7431   23.0070 O   0  0  0  0  0  0  0  0  0  0  0  0
    5.8047  -12.6893   26.6475 C   0  0  0  0  0  0  0  0  0  0  0  0
    7.1331  -12.9695   25.8245 C   0  0  1  0  0  0  0  0  0  0  0  0
    8.0373  -11.8124   26.2004 C   0  0  0  0  0  0  0  0  0  0  0  0
    7.6105  -14.3177   26.2236 C   0  0  0  0  0  0  0  0  0  0  0  0
    8.7342  -14.9000   25.4770 C   0  0  2  0  0  0  0  0  0  0  0  0
    8.2552  -15.2854   24.1196 N   0  0  0  0  0  0  0  0  0  0  0  0
    9.3466  -16.0813   26.0533 C   0  0  0  0  0  0  0  0  0  0  0  0
    9.3588  -17.2469   25.5898 O   0  0  0  0  0  0  0  0  0  0  0  0
   10.0284  -15.9454   27.2969 O   0  0  0  0  0  0  0  0  0  0  0  0
  2  1  1  0
  3  2  1  0
  3  5  1  0
  3  4  1  6
  5  6  2  0
  8  7  1  1
  9  8  1  0
  9  5  1  0
 10  8  1  0
 10 11  2  0
 13 12  1  1
 13 14  1  0
 13 15  1  0
 16 15  1  1
 16 17  1  0
 16 18  1  0
 17 10  1  0
 18 19  2  0
 18 20  1  0
M  END
$$$$
