SAL.pdb
     RDKit          3D

 20 19  0  0  1  0  0  0  0  0999 V2000
    6.1692  -17.9957   24.8757 O   0  0  0  0  0  0  0  0  0  0  0  0
    6.1764  -19.0896   24.0369 C   0  0  0  0  0  0  0  0  0  0  0  0
    5.9150  -18.6176   22.6048 C   0  0  2  0  0  0  0  0  0  0  0  0
    5.9380  -19.7608   21.7006 N   0  0  0  0  0  0  0  0  0  0  0  0
    6.8855  -17.5787   22.1723 C   0  0  0  0  0  0  0  0  0  0  0  0
    8.1002  -17.9674   22.0231 O   0  0  0  0  0  0  0  0  0  0  0  0
    6.7694  -14.1019   20.8669 C   0  0  0  0  0  0  0  0  0  0  0  0
    7.5052  -15.3205   21.4417 C   0  0  2  0  0  0  0  0  0  0  0  0
    6.5163  -16.2368   21.9324 N   0  0  0  0  0  0  0  0  0  0  0  0
    8.3638  -14.7837   22.5359 C   0  0  0  0  0  0  0  0  0  0  0  0
    9.3340  -14.0534   22.2097 O   0  0  0  0  0  0  0  0  0  0  0  0
    7.7535  -12.2444   27.5581 C   0  0  0  0  0  0  0  0  0  0  0  0
    7.2805  -13.1564   26.3479 C   0  0  1  0  0  0  0  0  0  0  0  0
    6.0036  -12.4896   25.8757 C   0  0  0  0  0  0  0  0  0  0  0  0
    8.3954  -13.1830   25.3674 C   0  0  0  0  0  0  0  0  0  0  0  0
    8.9530  -14.4900   24.9932 C   0  0  2  0  0  0  0  0  0  0  0  0
    8.1340  -15.0576   23.8853 N   0  0  0  0  0  0  0  0  0  0  0  0
    8.9943  -15.4951   26.0375 C   0  0  0  0  0  0  0  0  0  0  0  0
    9.5266  -15.4080   27.1700 O   0  0  0  0  0  0  0  0  0  0  0  0
    8.3650  -16.7487   25.7881 O   0  0  0  0  0  0  0  0  0  0  0  0
  2  1  1  0
  3  2  1  0
  3  5  1  0
  3  4  1  6
  5  6  2  0
  8  7  1  1
  9  8  1  0
  9  5  1  0
 10  8  1  0
 10 11  2  0
 13 12  1  1
 13 14  1  0
 13 15  1  0
 16 15  1  1
 16 17  1  0
 16 18  1  0
 17 10  1  0
 18 19  2  0
 18 20  1  0
M  END
$$$$
