ELS.pdb
     RDKit          3D

 24 23  0  0  1  0  0  0  0  0999 V2000
   17.2407  -10.8962  -18.6873 N   0  0  0  0  0  0  0  0  0  0  0  0
   16.9849  -10.0796  -17.5544 C   0  0  1  0  0  0  0  0  0  0  0  0
   17.0609  -10.7088  -16.2191 C   0  0  0  0  0  0  0  0  0  0  0  0
   17.6845  -12.0452  -16.2325 C   0  0  0  0  0  0  0  0  0  0  0  0
   17.7280  -12.8009  -14.9853 C   0  0  0  0  0  0  0  0  0  0  0  0
   18.2860  -13.9173  -14.9207 O   0  0  0  0  0  0  0  0  0  0  0  0
   17.8681   -8.8638  -17.6610 C   0  0  0  0  0  0  0  0  0  0  0  0
   18.9173   -8.8780  -18.3661 O   0  0  0  0  0  0  0  0  0  0  0  0
   17.1441  -12.3073  -13.8015 O   0  0  0  0  0  0  0  0  0  0  0  0
   17.7106   -4.2665  -18.9875 C   0  0  0  0  0  0  0  0  0  0  0  0
   16.7279   -4.8760  -17.9768 C   0  0  2  0  0  0  0  0  0  0  0  0
   15.7077   -3.8197  -17.6818 C   0  0  0  0  0  0  0  0  0  0  0  0
   17.5326   -5.2983  -16.8050 C   0  0  0  0  0  0  0  0  0  0  0  0
   18.4200   -6.4779  -16.9977 C   0  0  2  0  0  0  0  0  0  0  0  0
   17.5723   -7.6556  -16.9840 N   0  0  0  0  0  0  0  0  0  0  0  0
   19.4290   -6.6300  -15.9141 C   0  0  0  0  0  0  0  0  0  0  0  0
   19.0544   -7.0826  -14.8057 O   0  0  0  0  0  0  0  0  0  0  0  0
   23.2855   -7.6831  -16.3480 O   0  0  0  0  0  0  0  0  0  0  0  0
   23.1778   -6.5821  -15.5064 C   0  0  0  0  0  0  0  0  0  0  0  0
   21.7685   -6.3938  -14.9922 C   0  0  2  0  0  0  0  0  0  0  0  0
   20.8003   -6.2944  -16.0511 N   0  0  0  0  0  0  0  0  0  0  0  0
   21.7013   -5.2601  -14.0484 C   0  0  0  0  0  0  0  0  0  0  0  0
   22.2747   -5.2459  -12.7849 O   0  0  0  0  0  0  0  0  0  0  0  0
   21.0831   -4.2239  -14.3994 O   0  0  0  0  0  0  0  0  0  0  0  0
  2  1  1  6
  2  3  1  0
  3  4  1  0
  4  5  1  0
  5  6  2  0
  5  9  1  0
  7  2  1  0
  7  8  2  0
 11 10  1  6
 11 13  1  0
 11 12  1  0
 14 13  1  1
 14 15  1  0
 14 16  1  0
 15  7  1  0
 16 21  1  0
 17 16  2  0
 19 18  1  0
 20 19  1  6
 20 22  1  0
 21 20  1  0
 22 24  2  0
 22 23  1  0
M  END
$$$$
