ELS.pdb
     RDKit          3D

 24 23  0  0  1  0  0  0  0  0999 V2000
   25.8785  -20.7033  -14.9162 N   0  0  0  0  0  0  0  0  0  0  0  0
   25.2814  -19.8304  -13.9688 C   0  0  1  0  0  0  0  0  0  0  0  0
   23.9687  -19.2406  -14.3059 C   0  0  0  0  0  0  0  0  0  0  0  0
   23.5420  -19.5067  -15.6923 C   0  0  0  0  0  0  0  0  0  0  0  0
   23.9678  -18.5815  -16.7369 C   0  0  0  0  0  0  0  0  0  0  0  0
   23.9919  -17.3474  -16.5419 O   0  0  0  0  0  0  0  0  0  0  0  0
   25.2601  -20.5445  -12.6424 C   0  0  0  0  0  0  0  0  0  0  0  0
   24.9937  -21.7780  -12.5684 O   0  0  0  0  0  0  0  0  0  0  0  0
   24.3692  -19.0370  -18.0087 O   0  0  0  0  0  0  0  0  0  0  0  0
   27.0788  -19.0115   -7.0009 C   0  0  0  0  0  0  0  0  0  0  0  0
   26.3946  -20.1374   -7.7902 C   0  0  2  0  0  0  0  0  0  0  0  0
   27.2348  -21.3631   -7.6024 C   0  0  0  0  0  0  0  0  0  0  0  0
   26.2936  -19.6699   -9.1939 C   0  0  0  0  0  0  0  0  0  0  0  0
   25.4704  -20.5013  -10.1144 C   0  0  2  0  0  0  0  0  0  0  0  0
   25.5339  -19.8779  -11.4232 N   0  0  0  0  0  0  0  0  0  0  0  0
   24.0392  -20.5715   -9.7120 C   0  0  0  0  0  0  0  0  0  0  0  0
   23.3916  -19.5017   -9.6120 O   0  0  0  0  0  0  0  0  0  0  0  0
   19.7939  -22.7117   -9.6000 O   0  0  0  0  0  0  0  0  0  0  0  0
   21.1244  -22.6489   -9.9974 C   0  0  0  0  0  0  0  0  0  0  0  0
   21.9703  -21.8504   -9.0316 C   0  0  2  0  0  0  0  0  0  0  0  0
   23.3502  -21.7790   -9.4307 N   0  0  0  0  0  0  0  0  0  0  0  0
   21.7998  -22.3460   -7.6510 C   0  0  0  0  0  0  0  0  0  0  0  0
   22.8253  -22.8270   -6.8495 O   0  0  0  0  0  0  0  0  0  0  0  0
   20.6476  -22.3388   -7.1496 O   0  0  0  0  0  0  0  0  0  0  0  0
  2  1  1  6
  2  3  1  0
  3  4  1  0
  4  5  1  0
  5  6  2  0
  5  9  1  0
  7  2  1  0
  7  8  2  0
 11 10  1  1
 11 13  1  0
 11 12  1  0
 14 13  1  1
 14 15  1  0
 14 16  1  0
 15  7  1  0
 16 21  1  0
 17 16  2  0
 19 18  1  0
 20 19  1  6
 20 22  1  0
 21 20  1  0
 22 24  2  0
 22 23  1  0
M  END
$$$$
