ELS.pdb
     RDKit          3D

 24 23  0  0  1  0  0  0  0  0999 V2000
   18.9122  -11.0443  -18.7197 N   0  0  0  0  0  0  0  0  0  0  0  0
   19.7477   -9.9019  -18.8330 C   0  0  1  0  0  0  0  0  0  0  0  0
   19.3327   -8.8335  -19.7663 C   0  0  0  0  0  0  0  0  0  0  0  0
   19.3487   -9.2488  -21.1814 C   0  0  0  0  0  0  0  0  0  0  0  0
   20.6163   -9.2013  -21.9020 C   0  0  0  0  0  0  0  0  0  0  0  0
   21.5785   -8.5240  -21.4810 O   0  0  0  0  0  0  0  0  0  0  0  0
   19.9929   -9.3779  -17.4420 C   0  0  0  0  0  0  0  0  0  0  0  0
   19.0778   -9.3856  -16.5698 O   0  0  0  0  0  0  0  0  0  0  0  0
   20.8115   -9.9145  -23.1018 O   0  0  0  0  0  0  0  0  0  0  0  0
   21.7315  -10.8118  -14.0462 C   0  0  0  0  0  0  0  0  0  0  0  0
   22.7814  -10.5197  -15.1284 C   0  0  2  0  0  0  0  0  0  0  0  0
   24.0650  -11.1290  -14.6546 C   0  0  0  0  0  0  0  0  0  0  0  0
   22.8232   -9.0464  -15.2916 C   0  0  0  0  0  0  0  0  0  0  0  0
   21.5544   -8.3866  -15.7052 C   0  0  2  0  0  0  0  0  0  0  0  0
   21.2475   -8.8549  -17.0439 N   0  0  0  0  0  0  0  0  0  0  0  0
   21.6594   -6.9028  -15.7543 C   0  0  0  0  0  0  0  0  0  0  0  0
   22.3202   -6.3792  -16.6833 O   0  0  0  0  0  0  0  0  0  0  0  0
   19.8842   -2.5491  -14.5980 O   0  0  0  0  0  0  0  0  0  0  0  0
   19.7974   -3.9361  -14.5712 C   0  0  0  0  0  0  0  0  0  0  0  0
   21.1229   -4.5958  -14.8776 C   0  0  2  0  0  0  0  0  0  0  0  0
   21.0566   -6.0309  -14.8118 N   0  0  0  0  0  0  0  0  0  0  0  0
   22.1962   -4.0341  -14.0331 C   0  0  0  0  0  0  0  0  0  0  0  0
   22.9475   -2.9112  -14.3492 O   0  0  0  0  0  0  0  0  0  0  0  0
   22.4618   -4.6027  -12.9445 O   0  0  0  0  0  0  0  0  0  0  0  0
  2  1  1  1
  2  3  1  0
  3  4  1  0
  4  5  1  0
  5  6  2  0
  5  9  1  0
  7  2  1  0
  7  8  2  0
 11 10  1  1
 11 13  1  0
 11 12  1  0
 14 13  1  6
 14 15  1  0
 14 16  1  0
 15  7  1  0
 16 21  1  0
 17 16  2  0
 19 18  1  0
 20 19  1  1
 20 22  1  0
 21 20  1  0
 22 24  2  0
 22 23  1  0
M  END
$$$$
