ELS.pdb
     RDKit          3D

 24 23  0  0  1  0  0  0  0  0999 V2000
   27.9867  -22.1961  -15.7814 N   0  0  0  0  0  0  0  0  0  0  0  0
   27.5265  -21.0083  -15.1542 C   0  0  1  0  0  0  0  0  0  0  0  0
   27.3549  -19.8056  -15.9960 C   0  0  0  0  0  0  0  0  0  0  0  0
   26.4185  -20.0011  -17.1185 C   0  0  0  0  0  0  0  0  0  0  0  0
   26.2537  -18.9155  -18.0791 C   0  0  0  0  0  0  0  0  0  0  0  0
   25.3946  -18.9736  -18.9847 O   0  0  0  0  0  0  0  0  0  0  0  0
   26.2732  -21.3524  -14.3922 C   0  0  0  0  0  0  0  0  0  0  0  0
   25.5110  -22.2855  -14.7751 O   0  0  0  0  0  0  0  0  0  0  0  0
   27.0541  -17.7566  -18.0289 O   0  0  0  0  0  0  0  0  0  0  0  0
   25.9227  -22.2715   -9.8921 C   0  0  0  0  0  0  0  0  0  0  0  0
   26.1682  -20.8089  -10.2914 C   0  0  2  0  0  0  0  0  0  0  0  0
   26.4006  -20.0518   -9.0200 C   0  0  0  0  0  0  0  0  0  0  0  0
   24.9760  -20.3730  -11.0579 C   0  0  0  0  0  0  0  0  0  0  0  0
   24.7624  -21.0208  -12.3811 C   0  0  2  0  0  0  0  0  0  0  0  0
   25.8881  -20.6557  -13.2209 N   0  0  0  0  0  0  0  0  0  0  0  0
   23.5198  -20.5620  -13.0597 C   0  0  0  0  0  0  0  0  0  0  0  0
   23.4743  -19.3866  -13.4959 O   0  0  0  0  0  0  0  0  0  0  0  0
   20.4287  -23.2261  -14.3554 O   0  0  0  0  0  0  0  0  0  0  0  0
   20.7725  -22.0383  -14.9903 C   0  0  0  0  0  0  0  0  0  0  0  0
   21.2168  -20.9763  -14.0102 C   0  0  2  0  0  0  0  0  0  0  0  0
   22.3710  -21.3721  -13.2488 N   0  0  0  0  0  0  0  0  0  0  0  0
   20.0907  -20.5448  -13.1579 C   0  0  0  0  0  0  0  0  0  0  0  0
   18.8979  -20.0152  -13.6292 O   0  0  0  0  0  0  0  0  0  0  0  0
   20.2044  -20.6585  -11.9117 O   0  0  0  0  0  0  0  0  0  0  0  0
  2  1  1  6
  2  3  1  0
  3  4  1  0
  4  5  1  0
  5  6  2  0
  5  9  1  0
  7  2  1  0
  7  8  2  0
 11 10  1  1
 11 13  1  0
 11 12  1  0
 14 13  1  1
 14 15  1  0
 14 16  1  0
 15  7  1  0
 16 21  1  0
 17 16  2  0
 19 18  1  0
 20 19  1  1
 20 22  1  0
 21 20  1  0
 22 24  2  0
 22 23  1  0
M  END
$$$$
