ELS.pdb
     RDKit          3D

 24 23  0  0  1  0  0  0  0  0999 V2000
   14.6307  -10.8487  -13.2736 N   0  0  0  0  0  0  0  0  0  0  0  0
   15.5332   -9.7662  -13.4454 C   0  0  1  0  0  0  0  0  0  0  0  0
   15.9785   -9.4506  -14.8190 C   0  0  0  0  0  0  0  0  0  0  0  0
   17.2997  -10.0142  -15.1538 C   0  0  0  0  0  0  0  0  0  0  0  0
   18.4772   -9.4519  -14.5014 C   0  0  0  0  0  0  0  0  0  0  0  0
   18.6481   -8.2165  -14.4209 O   0  0  0  0  0  0  0  0  0  0  0  0
   14.9434   -8.5673  -12.7494 C   0  0  0  0  0  0  0  0  0  0  0  0
   13.7199   -8.2750  -12.8750 O   0  0  0  0  0  0  0  0  0  0  0  0
   19.4717  -10.2743  -13.9350 O   0  0  0  0  0  0  0  0  0  0  0  0
   13.3544   -6.6090   -9.0602 C   0  0  0  0  0  0  0  0  0  0  0  0
   14.7402   -7.2688   -9.0052 C   0  0  2  0  0  0  0  0  0  0  0  0
   15.1622   -7.2583   -7.5680 C   0  0  0  0  0  0  0  0  0  0  0  0
   15.6178   -6.4874   -9.9097 C   0  0  0  0  0  0  0  0  0  0  0  0
   15.2434   -6.4721  -11.3504 C   0  0  2  0  0  0  0  0  0  0  0  0
   15.7207   -7.7148  -11.9279 N   0  0  0  0  0  0  0  0  0  0  0  0
   15.8690   -5.3503  -12.1023 C   0  0  0  0  0  0  0  0  0  0  0  0
   17.1206   -5.3001  -12.1723 O   0  0  0  0  0  0  0  0  0  0  0  0
   13.5924   -2.5116  -14.2768 O   0  0  0  0  0  0  0  0  0  0  0  0
   14.9199   -2.7417  -14.6187 C   0  0  0  0  0  0  0  0  0  0  0  0
   15.7394   -3.2105  -13.4378 C   0  0  2  0  0  0  0  0  0  0  0  0
   15.1383   -4.3227  -12.7520 N   0  0  0  0  0  0  0  0  0  0  0  0
   16.0515   -2.0840  -12.5353 C   0  0  0  0  0  0  0  0  0  0  0  0
   16.7830   -0.9607  -12.8939 O   0  0  0  0  0  0  0  0  0  0  0  0
   15.6314   -2.1300  -11.3520 O   0  0  0  0  0  0  0  0  0  0  0  0
  2  1  1  6
  2  3  1  0
  3  4  1  0
  4  5  1  0
  5  6  2  0
  5  9  1  0
  7  2  1  0
  7  8  2  0
 11 10  1  1
 11 13  1  0
 11 12  1  0
 14 13  1  1
 14 15  1  0
 14 16  1  0
 15  7  1  0
 16 21  1  0
 17 16  2  0
 19 18  1  0
 20 19  1  6
 20 22  1  0
 21 20  1  0
 22 24  2  0
 22 23  1  0
M  END
$$$$
