ELS.pdb
     RDKit          3D

 24 23  0  0  1  0  0  0  0  0999 V2000
   17.9064  -11.5251  -16.8011 N   0  0  0  0  0  0  0  0  0  0  0  0
   18.9456  -10.7285  -17.3500 C   0  0  1  0  0  0  0  0  0  0  0  0
   18.6803  -10.0326  -18.6267 C   0  0  0  0  0  0  0  0  0  0  0  0
   17.3821   -9.3334  -18.6576 C   0  0  0  0  0  0  0  0  0  0  0  0
   17.0687   -8.5072  -19.8185 C   0  0  0  0  0  0  0  0  0  0  0  0
   17.8764   -8.3809  -20.7636 O   0  0  0  0  0  0  0  0  0  0  0  0
   19.4113   -9.7832  -16.2734 C   0  0  0  0  0  0  0  0  0  0  0  0
   18.7083   -9.5661  -15.2454 O   0  0  0  0  0  0  0  0  0  0  0  0
   15.8449   -7.8164  -19.9251 O   0  0  0  0  0  0  0  0  0  0  0  0
   22.2568   -9.9379  -13.1794 C   0  0  0  0  0  0  0  0  0  0  0  0
   22.8665   -9.8869  -14.5881 C   0  0  2  0  0  0  0  0  0  0  0  0
   24.3226  -10.2035  -14.4357 C   0  0  0  0  0  0  0  0  0  0  0  0
   22.5841   -8.5331  -15.1233 C   0  0  0  0  0  0  0  0  0  0  0  0
   21.1522   -8.1896  -15.3423 C   0  0  2  0  0  0  0  0  0  0  0  0
   20.6470   -9.0962  -16.3565 N   0  0  0  0  0  0  0  0  0  0  0  0
   20.9563   -6.7991  -15.8355 C   0  0  0  0  0  0  0  0  0  0  0  0
   21.3726   -5.8488  -15.1301 O   0  0  0  0  0  0  0  0  0  0  0  0
   20.6202   -5.7754  -19.8362 O   0  0  0  0  0  0  0  0  0  0  0  0
   19.7348   -5.0948  -19.0086 C   0  0  0  0  0  0  0  0  0  0  0  0
   20.1660   -5.1317  -17.5600 C   0  0  2  0  0  0  0  0  0  0  0  0
   20.3239   -6.4717  -17.0622 N   0  0  0  0  0  0  0  0  0  0  0  0
   19.2650   -4.3138  -16.7232 C   0  0  0  0  0  0  0  0  0  0  0  0
   19.4116   -2.9527  -16.4975 O   0  0  0  0  0  0  0  0  0  0  0  0
   18.2886   -4.8764  -16.1673 O   0  0  0  0  0  0  0  0  0  0  0  0
  2  1  1  1
  2  3  1  0
  3  4  1  0
  4  5  1  0
  5  6  2  0
  5  9  1  0
  7  2  1  0
  7  8  2  0
 11 10  1  1
 11 13  1  0
 11 12  1  0
 14 13  1  6
 14 15  1  0
 14 16  1  0
 15  7  1  0
 16 21  1  0
 17 16  2  0
 19 18  1  0
 20 19  1  6
 20 22  1  0
 21 20  1  0
 22 24  2  0
 22 23  1  0
M  END
$$$$
