ELS.pdb
     RDKit          3D

 24 23  0  0  1  0  0  0  0  0999 V2000
   27.8458  -19.0155  -15.4358 N   0  0  0  0  0  0  0  0  0  0  0  0
   26.6387  -18.4133  -14.9928 C   0  0  1  0  0  0  0  0  0  0  0  0
   25.9801  -17.4442  -15.8937 C   0  0  0  0  0  0  0  0  0  0  0  0
   26.8369  -16.2993  -16.2547 C   0  0  0  0  0  0  0  0  0  0  0  0
   27.5706  -16.3544  -17.5145 C   0  0  0  0  0  0  0  0  0  0  0  0
   28.8140  -16.2337  -17.5486 O   0  0  0  0  0  0  0  0  0  0  0  0
   25.7075  -19.5190  -14.5687 C   0  0  0  0  0  0  0  0  0  0  0  0
   25.5053  -20.5232  -15.3094 O   0  0  0  0  0  0  0  0  0  0  0  0
   26.9117  -16.5450  -18.7456 O   0  0  0  0  0  0  0  0  0  0  0  0
   26.2127  -22.3304  -11.4036 C   0  0  0  0  0  0  0  0  0  0  0  0
   25.8510  -20.9045  -10.9625 C   0  0  2  0  0  0  0  0  0  0  0  0
   26.0874  -20.8408   -9.4848 C   0  0  0  0  0  0  0  0  0  0  0  0
   24.4432  -20.6790  -11.3705 C   0  0  0  0  0  0  0  0  0  0  0  0
   24.1839  -20.5679  -12.8322 C   0  0  2  0  0  0  0  0  0  0  0  0
   25.0176  -19.4906  -13.3322 N   0  0  0  0  0  0  0  0  0  0  0  0
   22.7685  -20.2331  -13.1482 C   0  0  0  0  0  0  0  0  0  0  0  0
   22.3249  -19.1133  -12.7972 O   0  0  0  0  0  0  0  0  0  0  0  0
   20.6862  -21.3059  -16.4297 O   0  0  0  0  0  0  0  0  0  0  0  0
   19.9482  -21.5538  -15.2781 C   0  0  0  0  0  0  0  0  0  0  0  0
   20.4930  -20.8083  -14.0809 C   0  0  2  0  0  0  0  0  0  0  0  0
   21.8774  -21.1035  -13.8265 N   0  0  0  0  0  0  0  0  0  0  0  0
   19.6367  -21.0201  -12.8966 C   0  0  0  0  0  0  0  0  0  0  0  0
   18.3060  -20.6384  -12.8025 O   0  0  0  0  0  0  0  0  0  0  0  0
   20.1339  -21.5864  -11.8911 O   0  0  0  0  0  0  0  0  0  0  0  0
  2  1  1  6
  2  3  1  0
  3  4  1  0
  4  5  1  0
  5  6  2  0
  5  9  1  0
  7  2  1  0
  7  8  2  0
 11 10  1  1
 11 13  1  0
 11 12  1  0
 14 13  1  1
 14 15  1  0
 14 16  1  0
 15  7  1  0
 16 21  1  0
 17 16  2  0
 19 18  1  0
 20 19  1  6
 20 22  1  0
 21 20  1  0
 22 24  2  0
 22 23  1  0
M  END
$$$$
