MPF.pdb
     RDKit          3D

 27 28  0  0  1  0  0  0  0  0999 V2000
   21.6514  -15.4136  -14.6280 C   0  0  0  0  0  0  0  0  0  0  0  0
   21.9707  -16.2181  -16.2091 S   0  0  0  0  0  0  0  0  0  0  0  0
   23.2927  -17.4181  -16.0853 C   0  0  0  0  0  0  0  0  0  0  0  0
   23.3808  -18.0321  -14.7310 C   0  0  0  0  0  0  0  0  0  0  0  0
   23.0134  -19.4702  -14.7313 C   0  0  2  0  0  0  0  0  0  0  0  0
   21.6671  -19.6978  -15.1239 N   0  0  0  0  0  0  0  0  0  0  0  0
   23.4507  -20.1581  -13.4993 C   0  0  0  0  0  0  0  0  0  0  0  0
   22.6696  -20.0267  -12.4931 O   0  0  0  0  0  0  0  0  0  0  0  0
   24.6111  -20.9227  -13.3247 N   0  0  0  0  0  0  0  0  0  0  0  0
   25.7072  -21.1592  -14.2259 C   0  0  0  0  0  0  0  0  0  0  0  0
   25.8520  -22.6840  -14.0428 C   0  0  0  0  0  0  0  0  0  0  0  0
   25.8777  -22.7795  -12.5469 C   0  0  0  0  0  0  0  0  0  0  0  0
   24.9846  -21.6557  -12.0832 C   0  0  1  0  0  0  0  0  0  0  0  0
   25.7700  -20.7157  -11.2286 C   0  0  0  0  0  0  0  0  0  0  0  0
   26.5039  -19.8133  -11.7450 O   0  0  0  0  0  0  0  0  0  0  0  0
   25.7252  -20.7960   -9.8305 N   0  0  0  0  0  0  0  0  0  0  0  0
   26.7656  -20.1890   -8.9722 C   0  0  1  0  0  0  0  0  0  0  0  0
   26.2438  -20.2125   -7.5579 C   0  0  0  0  0  0  0  0  0  0  0  0
   27.2511  -19.7035   -6.6098 C   0  0  0  0  0  0  0  0  0  0  0  0
   27.5277  -18.3412   -6.4619 C   0  0  0  0  0  0  0  0  0  0  0  0
   28.4653  -17.8726   -5.5656 C   0  0  0  0  0  0  0  0  0  0  0  0
   29.1642  -18.7644   -4.7799 C   0  0  0  0  0  0  0  0  0  0  0  0
   28.9069  -20.0971   -4.9117 C   0  0  0  0  0  0  0  0  0  0  0  0
   27.9797  -20.5681   -5.7971 C   0  0  0  0  0  0  0  0  0  0  0  0
   27.9848  -21.0077   -9.0482 C   0  0  0  0  0  0  0  0  0  0  0  0
   27.9610  -22.2560   -9.0250 O   0  0  0  0  0  0  0  0  0  0  0  0
   29.2136  -20.3777   -9.1498 O   0  0  0  0  0  0  0  0  0  0  0  0
  2  1  1  0
  3  2  1  0
  4  3  1  0
  4  5  1  0
  5  7  1  0
  5  6  1  1
  7  8  2  0
  9 13  1  0
  9  7  1  0
 10  9  1  0
 11 10  1  0
 11 12  1  0
 12 13  1  0
 14 15  2  0
 13 14  1  1
 16 14  1  0
 17 16  1  0
 17 25  1  0
 17 18  1  1
 19 18  1  0
 20 19  2  0
 21 20  1  0
 22 21  2  0
 22 23  1  0
 23 24  2  0
 24 19  1  0
 25 27  1  0
 26 25  2  0
M  END
$$$$
