MPF.pdb
     RDKit          3D

 27 28  0  0  1  0  0  0  0  0999 V2000
   11.4195  -18.3074   -2.3635 C   0  0  0  0  0  0  0  0  0  0  0  0
   10.2386  -18.6023   -3.6931 S   0  0  0  0  0  0  0  0  0  0  0  0
   10.4857  -20.2032   -4.4538 C   0  0  0  0  0  0  0  0  0  0  0  0
   11.0092  -21.2159   -3.4949 C   0  0  0  0  0  0  0  0  0  0  0  0
   11.1213  -22.5678   -4.0972 C   0  0  2  0  0  0  0  0  0  0  0  0
    9.8832  -23.0581   -4.5922 N   0  0  0  0  0  0  0  0  0  0  0  0
   11.8874  -23.4977   -3.2423 C   0  0  0  0  0  0  0  0  0  0  0  0
   11.1860  -24.2010   -2.4340 O   0  0  0  0  0  0  0  0  0  0  0  0
   13.2756  -23.6822   -3.2265 N   0  0  0  0  0  0  0  0  0  0  0  0
   14.3080  -22.9980   -3.9584 C   0  0  0  0  0  0  0  0  0  0  0  0
   15.1349  -24.2171   -4.4157 C   0  0  0  0  0  0  0  0  0  0  0  0
   15.2851  -24.9499   -3.1165 C   0  0  0  0  0  0  0  0  0  0  0  0
   14.0087  -24.6544   -2.3688 C   0  0  1  0  0  0  0  0  0  0  0  0
   14.3324  -23.9623   -1.0854 C   0  0  0  0  0  0  0  0  0  0  0  0
   14.6197  -22.7227   -1.0600 O   0  0  0  0  0  0  0  0  0  0  0  0
   14.3306  -24.6542    0.1330 N   0  0  0  0  0  0  0  0  0  0  0  0
   14.6385  -23.9893    1.4178 C   0  0  1  0  0  0  0  0  0  0  0  0
   13.6676  -24.5254    2.4390 C   0  0  0  0  0  0  0  0  0  0  0  0
   12.2856  -24.1205    2.1245 C   0  0  0  0  0  0  0  0  0  0  0  0
   11.7492  -22.8932    2.5253 C   0  0  0  0  0  0  0  0  0  0  0  0
   10.4581  -22.5180    2.2188 C   0  0  0  0  0  0  0  0  0  0  0  0
    9.6535  -23.3704    1.4928 C   0  0  0  0  0  0  0  0  0  0  0  0
   10.1609  -24.5717    1.0941 C   0  0  0  0  0  0  0  0  0  0  0  0
   11.4387  -24.9497    1.3939 C   0  0  0  0  0  0  0  0  0  0  0  0
   16.0069  -24.3438    1.8231 C   0  0  0  0  0  0  0  0  0  0  0  0
   16.7207  -25.1323    1.1690 O   0  0  0  0  0  0  0  0  0  0  0  0
   16.5337  -23.7855    2.9755 O   0  0  0  0  0  0  0  0  0  0  0  0
  2  1  1  0
  3  2  1  0
  4  3  1  0
  4  5  1  0
  5  7  1  0
  5  6  1  1
  7  8  2  0
  9 13  1  0
  9  7  1  0
 10  9  1  0
 11 10  1  0
 11 12  1  0
 12 13  1  0
 14 15  2  0
 13 14  1  1
 16 14  1  0
 17 16  1  0
 17 25  1  0
 17 18  1  1
 19 18  1  0
 20 19  2  0
 21 20  1  0
 22 21  2  0
 22 23  1  0
 23 24  2  0
 24 19  1  0
 25 27  1  0
 26 25  2  0
M  END
$$$$
