MPF.pdb
     RDKit          3D

 27 28  0  0  1  0  0  0  0  0999 V2000
   21.2435  -21.5063  -15.7994 C   0  0  0  0  0  0  0  0  0  0  0  0
   21.9394  -20.2769  -16.9191 S   0  0  0  0  0  0  0  0  0  0  0  0
   23.7282  -20.3313  -16.9314 C   0  0  0  0  0  0  0  0  0  0  0  0
   24.2874  -20.9879  -15.7169 C   0  0  0  0  0  0  0  0  0  0  0  0
   25.7137  -21.3659  -15.8779 C   0  0  2  0  0  0  0  0  0  0  0  0
   25.9114  -22.3787  -16.8545 N   0  0  0  0  0  0  0  0  0  0  0  0
   26.3835  -21.5830  -14.5792 C   0  0  0  0  0  0  0  0  0  0  0  0
   26.2717  -22.7641  -14.0971 O   0  0  0  0  0  0  0  0  0  0  0  0
   27.1121  -20.6452  -13.8369 N   0  0  0  0  0  0  0  0  0  0  0  0
   27.3184  -19.2405  -14.0689 C   0  0  0  0  0  0  0  0  0  0  0  0
   28.8375  -19.1687  -13.8111 C   0  0  0  0  0  0  0  0  0  0  0  0
   28.9275  -19.8888  -12.4992 C   0  0  0  0  0  0  0  0  0  0  0  0
   27.8298  -20.9216  -12.5615 C   0  0  1  0  0  0  0  0  0  0  0  0
   26.8639  -20.6893  -11.4461 C   0  0  0  0  0  0  0  0  0  0  0  0
   25.8498  -19.9358  -11.5995 O   0  0  0  0  0  0  0  0  0  0  0  0
   27.0419  -21.2929  -10.1942 N   0  0  0  0  0  0  0  0  0  0  0  0
   25.9731  -21.3183   -9.1721 C   0  0  1  0  0  0  0  0  0  0  0  0
   26.5715  -21.9040   -7.9184 C   0  0  0  0  0  0  0  0  0  0  0  0
   27.3772  -20.9038   -7.1949 C   0  0  0  0  0  0  0  0  0  0  0  0
   26.8449  -19.6956   -6.7352 C   0  0  0  0  0  0  0  0  0  0  0  0
   27.6033  -18.7692   -6.0509 C   0  0  0  0  0  0  0  0  0  0  0  0
   28.9350  -19.0264   -5.8026 C   0  0  0  0  0  0  0  0  0  0  0  0
   29.4703  -20.2001   -6.2445 C   0  0  0  0  0  0  0  0  0  0  0  0
   28.7251  -21.1221   -6.9226 C   0  0  0  0  0  0  0  0  0  0  0  0
   25.5403  -19.9396   -8.8993 C   0  0  0  0  0  0  0  0  0  0  0  0
   24.4261  -19.6682   -8.4053 O   0  0  0  0  0  0  0  0  0  0  0  0
   26.3964  -18.8934   -9.1991 O   0  0  0  0  0  0  0  0  0  0  0  0
  2  1  1  0
  3  2  1  0
  4  3  1  0
  4  5  1  0
  5  7  1  0
  5  6  1  6
  7  8  2  0
  9 13  1  0
  9  7  1  0
 10  9  1  0
 11 10  1  0
 11 12  1  0
 12 13  1  0
 14 15  2  0
 13 14  1  1
 16 14  1  0
 17 16  1  0
 17 25  1  0
 17 18  1  1
 19 18  1  0
 20 19  2  0
 21 20  1  0
 22 21  2  0
 22 23  1  0
 23 24  2  0
 24 19  1  0
 25 27  1  0
 26 25  2  0
M  END
$$$$
