MPF.pdb
     RDKit          3D

 27 28  0  0  1  0  0  0  0  0999 V2000
   20.3463  -19.3307  -15.2292 C   0  0  0  0  0  0  0  0  0  0  0  0
   20.7084  -18.6689  -16.8663 S   0  0  0  0  0  0  0  0  0  0  0  0
   22.4119  -18.1374  -17.0026 C   0  0  0  0  0  0  0  0  0  0  0  0
   23.2931  -18.7804  -15.9882 C   0  0  0  0  0  0  0  0  0  0  0  0
   24.3340  -19.6429  -16.6011 C   0  0  2  0  0  0  0  0  0  0  0  0
   23.8079  -20.5494  -17.5602 N   0  0  0  0  0  0  0  0  0  0  0  0
   25.2403  -20.2271  -15.5912 C   0  0  0  0  0  0  0  0  0  0  0  0
   25.1312  -21.4921  -15.4253 O   0  0  0  0  0  0  0  0  0  0  0  0
   26.1862  -19.5494  -14.8117 N   0  0  0  0  0  0  0  0  0  0  0  0
   26.5355  -18.1541  -14.7868 C   0  0  0  0  0  0  0  0  0  0  0  0
   28.0724  -18.2849  -14.7862 C   0  0  0  0  0  0  0  0  0  0  0  0
   28.2625  -19.2819  -13.6829 C   0  0  0  0  0  0  0  0  0  0  0  0
   27.0435  -20.1670  -13.7621 C   0  0  1  0  0  0  0  0  0  0  0  0
   26.2923  -20.0963  -12.4731 C   0  0  0  0  0  0  0  0  0  0  0  0
   25.2534  -19.3707  -12.3554 O   0  0  0  0  0  0  0  0  0  0  0  0
   26.7061  -20.8261  -11.3508 N   0  0  0  0  0  0  0  0  0  0  0  0
   25.7638  -21.2414  -10.2892 C   0  0  1  0  0  0  0  0  0  0  0  0
   26.5651  -21.9830   -9.2495 C   0  0  0  0  0  0  0  0  0  0  0  0
   27.4238  -21.0627   -8.4823 C   0  0  0  0  0  0  0  0  0  0  0  0
   26.9150  -20.1690   -7.5352 C   0  0  0  0  0  0  0  0  0  0  0  0
   27.7264  -19.3178   -6.8148 C   0  0  0  0  0  0  0  0  0  0  0  0
   29.0893  -19.3346   -7.0228 C   0  0  0  0  0  0  0  0  0  0  0  0
   29.6021  -20.2001   -7.9434 C   0  0  0  0  0  0  0  0  0  0  0  0
   28.8046  -21.0460   -8.6603 C   0  0  0  0  0  0  0  0  0  0  0  0
   25.1755  -20.0410   -9.6764 C   0  0  0  0  0  0  0  0  0  0  0  0
   25.7035  -18.9127   -9.7623 O   0  0  0  0  0  0  0  0  0  0  0  0
   23.9881  -20.1568   -8.9738 O   0  0  0  0  0  0  0  0  0  0  0  0
  2  1  1  0
  3  2  1  0
  4  3  1  0
  4  5  1  0
  5  7  1  0
  5  6  1  1
  7  8  2  0
  9 13  1  0
  9  7  1  0
 10  9  1  0
 11 10  1  0
 11 12  1  0
 12 13  1  0
 14 15  2  0
 13 14  1  1
 16 14  1  0
 17 16  1  0
 17 25  1  0
 17 18  1  1
 19 18  1  0
 20 19  2  0
 21 20  1  0
 22 21  2  0
 22 23  1  0
 23 24  2  0
 24 19  1  0
 25 27  1  0
 26 25  2  0
M  END
$$$$
