MPF.pdb
     RDKit          3D

 27 28  0  0  1  0  0  0  0  0999 V2000
   26.9200  -19.7282  -15.8740 C   0  0  0  0  0  0  0  0  0  0  0  0
   27.6850  -18.7087  -17.1485 S   0  0  0  0  0  0  0  0  0  0  0  0
   29.1110  -19.5131  -17.8712 C   0  0  0  0  0  0  0  0  0  0  0  0
   28.8720  -20.9571  -18.1485 C   0  0  0  0  0  0  0  0  0  0  0  0
   30.0365  -21.6151  -18.7919 C   0  0  2  0  0  0  0  0  0  0  0  0
   30.3841  -21.0299  -20.0390 N   0  0  0  0  0  0  0  0  0  0  0  0
   29.9217  -23.0879  -18.7806 C   0  0  0  0  0  0  0  0  0  0  0  0
   29.4778  -23.6100  -19.8623 O   0  0  0  0  0  0  0  0  0  0  0  0
   30.2417  -23.9524  -17.7262 N   0  0  0  0  0  0  0  0  0  0  0  0
   30.6616  -23.6566  -16.3825 C   0  0  0  0  0  0  0  0  0  0  0  0
   31.8284  -24.6584  -16.2628 C   0  0  0  0  0  0  0  0  0  0  0  0
   31.1635  -25.9129  -16.7443 C   0  0  0  0  0  0  0  0  0  0  0  0
   30.1694  -25.4392  -17.7753 C   0  0  1  0  0  0  0  0  0  0  0  0
   28.7911  -25.8334  -17.3558 C   0  0  0  0  0  0  0  0  0  0  0  0
   28.1041  -25.0976  -16.5772 O   0  0  0  0  0  0  0  0  0  0  0  0
   28.2087  -27.0259  -17.8054 N   0  0  0  0  0  0  0  0  0  0  0  0
   26.8361  -27.4250  -17.4258 C   0  0  1  0  0  0  0  0  0  0  0  0
   26.3642  -28.4236  -18.4519 C   0  0  0  0  0  0  0  0  0  0  0  0
   25.0424  -28.9699  -18.0954 C   0  0  0  0  0  0  0  0  0  0  0  0
   23.8468  -28.3150  -18.4054 C   0  0  0  0  0  0  0  0  0  0  0  0
   22.6137  -28.8376  -18.0764 C   0  0  0  0  0  0  0  0  0  0  0  0
   22.5380  -30.0468  -17.4184 C   0  0  0  0  0  0  0  0  0  0  0  0
   23.6948  -30.6988  -17.1081 C   0  0  0  0  0  0  0  0  0  0  0  0
   24.9194  -30.1873  -17.4309 C   0  0  0  0  0  0  0  0  0  0  0  0
   26.8748  -28.0734  -16.1065 C   0  0  0  0  0  0  0  0  0  0  0  0
   27.8203  -28.8029  -15.7416 O   0  0  0  0  0  0  0  0  0  0  0  0
   25.8248  -27.8728  -15.2265 O   0  0  0  0  0  0  0  0  0  0  0  0
  2  1  1  0
  3  2  1  0
  4  3  1  0
  4  5  1  0
  5  7  1  0
  5  6  1  6
  7  8  2  0
  9 13  1  0
  9  7  1  0
 10  9  1  0
 11 10  1  0
 11 12  1  0
 12 13  1  0
 14 15  2  0
 13 14  1  1
 16 14  1  0
 17 16  1  0
 17 25  1  0
 17 18  1  6
 19 18  1  0
 20 19  2  0
 21 20  1  0
 22 21  2  0
 22 23  1  0
 23 24  2  0
 24 19  1  0
 25 27  1  0
 26 25  2  0
M  END
$$$$
