RCC.pdb
     RDKit          3D

 24 23  0  0  1  0  0  0  0  0999 V2000
   25.5095  -21.1181   -6.7581 N   0  0  0  0  0  0  0  0  0  0  0  0
   24.6916  -20.7544   -7.8552 C   0  0  0  0  0  0  0  0  0  0  0  0
   23.4512  -21.1094   -7.8936 N   0  0  0  0  0  0  0  0  0  0  0  0
   25.2404  -20.0028   -8.9206 N   0  0  0  0  0  0  0  0  0  0  0  0
   24.6089  -19.9114  -10.1977 C   0  0  0  0  0  0  0  0  0  0  0  0
   24.4152  -21.2275  -10.8875 C   0  0  0  0  0  0  0  0  0  0  0  0
   23.7372  -21.0992  -12.1956 C   0  0  0  0  0  0  0  0  0  0  0  0
   24.6595  -21.3346  -13.3980 C   0  0  2  0  0  0  0  0  0  0  0  0
   25.9762  -21.6913  -12.8881 N   0  0  0  0  0  0  0  0  0  0  0  0
   24.7039  -20.2141  -14.3340 C   0  0  0  0  0  0  0  0  0  0  0  0
   25.5362  -19.3033  -14.1823 O   0  0  0  0  0  0  0  0  0  0  0  0
   22.8892  -20.9525   -8.7382 N   0  0  0  0  0  0  0  0  0  0  0  0
   23.8354  -20.0738  -15.4541 C   0  0  1  0  0  0  0  0  0  0  0  0
   23.8917  -19.0045  -16.3822 C   0  0  0  0  0  0  0  0  0  0  0  0
   24.5932  -19.3228  -17.6707 S   0  0  0  0  0  0  0  0  0  0  0  0
   24.4420  -18.0558  -18.9271 C   0  0  0  0  0  0  0  0  0  0  0  0
   22.5298  -18.4543  -16.6722 O   0  0  0  0  0  0  0  0  0  0  0  0
   21.6202  -19.2701  -16.9720 N   0  0  0  0  0  0  0  0  0  0  0  0
   22.2291  -17.0733  -16.6234 C   0  0  1  0  0  0  0  0  0  0  0  0
   20.9014  -16.5340  -16.9219 C   0  0  0  0  0  0  0  0  0  0  0  0
   20.7840  -15.1067  -16.4225 S   0  0  0  0  0  0  0  0  0  0  0  0
   20.1157  -15.0436  -14.7430 C   0  0  0  0  0  0  0  0  0  0  0  0
   20.7419  -16.4984  -18.3956 O   0  0  0  0  0  0  0  0  0  0  0  0
   19.4823  -16.6621  -18.9904 O   0  0  0  0  0  0  0  0  0  0  0  0
  1  2  1  0
  2  4  1  0
  3  2  2  0
  4  5  1  0
  6  7  1  0
  6  5  1  0
  7  8  1  0
  8 10  1  0
  8  9  1  1
 10 12  1  0
 11 10  2  0
 12 13  1  0
 13 16  1  0
 13 14  1  6
 14 15  1  0
 16 18  1  0
 16 17  2  0
 18 19  1  0
 19 22  1  0
 19 20  1  6
 21 20  1  0
 22 23  1  0
 24 22  2  0
M  END
$$$$
