RCC.pdb
     RDKit          3D

 24 23  0  0  1  0  0  0  0  0999 V2000
   31.6577  -22.7067  -10.7887 N   0  0  0  0  0  0  0  0  0  0  0  0
   30.5533  -21.9869  -10.2720 C   0  0  0  0  0  0  0  0  0  0  0  0
   30.3916  -21.8610   -8.9976 N   0  0  0  0  0  0  0  0  0  0  0  0
   29.6160  -21.4081  -11.1595 N   0  0  0  0  0  0  0  0  0  0  0  0
   29.7248  -21.5350  -12.5773 C   0  0  0  0  0  0  0  0  0  0  0  0
   29.5834  -20.2450  -13.3264 C   0  0  0  0  0  0  0  0  0  0  0  0
   28.2062  -19.7069  -13.2941 C   0  0  0  0  0  0  0  0  0  0  0  0
   27.3681  -20.0730  -14.5251 C   0  0  2  0  0  0  0  0  0  0  0  0
   28.0901  -19.6228  -15.7071 N   0  0  0  0  0  0  0  0  0  0  0  0
   25.9987  -19.5672  -14.4765 C   0  0  0  0  0  0  0  0  0  0  0  0
   25.7758  -18.3495  -14.5908 O   0  0  0  0  0  0  0  0  0  0  0  0
   29.6181  -21.3000   -8.6224 N   0  0  0  0  0  0  0  0  0  0  0  0
   24.8489  -20.3895  -14.3019 C   0  0  2  0  0  0  0  0  0  0  0  0
   23.5580  -19.9030  -13.9783 C   0  0  0  0  0  0  0  0  0  0  0  0
   22.6074  -19.8148  -15.1369 S   0  0  0  0  0  0  0  0  0  0  0  0
   20.9716  -19.2264  -14.7076 C   0  0  0  0  0  0  0  0  0  0  0  0
   22.9323  -20.6943  -12.8720 O   0  0  0  0  0  0  0  0  0  0  0  0
   22.6516  -21.8993  -13.1000 N   0  0  0  0  0  0  0  0  0  0  0  0
   22.6481  -20.1490  -11.5984 C   0  0  2  0  0  0  0  0  0  0  0  0
   22.0373  -20.9230  -10.5165 C   0  0  0  0  0  0  0  0  0  0  0  0
   21.9456  -20.0884   -9.2535 S   0  0  0  0  0  0  0  0  0  0  0  0
   20.2343  -19.9158   -8.6941 C   0  0  0  0  0  0  0  0  0  0  0  0
   20.6517  -21.2617  -10.9209 O   0  0  0  0  0  0  0  0  0  0  0  0
   19.9036  -20.3963  -11.7326 O   0  0  0  0  0  0  0  0  0  0  0  0
  1  2  1  0
  2  4  1  0
  3  2  2  0
  4  5  1  0
  6  7  1  0
  6  5  1  0
  7  8  1  0
  8 10  1  0
  8  9  1  6
 10 12  1  0
 11 10  2  0
 12 13  1  0
 13 16  1  0
 13 14  1  1
 14 15  1  0
 16 18  1  0
 16 17  2  0
 18 19  1  0
 19 22  1  0
 19 20  1  6
 21 20  1  0
 22 23  1  0
 24 22  2  0
M  END
$$$$
