RCC.pdb
     RDKit          3D

 24 23  0  0  1  0  0  0  0  0999 V2000
   10.9856  -17.8370    0.0290 N   0  0  0  0  0  0  0  0  0  0  0  0
   10.2301  -18.0420   -1.1508 C   0  0  0  0  0  0  0  0  0  0  0  0
    9.4964  -17.0951   -1.6317 N   0  0  0  0  0  0  0  0  0  0  0  0
   10.2740  -19.2966   -1.8028 N   0  0  0  0  0  0  0  0  0  0  0  0
   10.4066  -20.5259   -1.0890 C   0  0  0  0  0  0  0  0  0  0  0  0
   11.7891  -20.7993   -0.5798 C   0  0  0  0  0  0  0  0  0  0  0  0
   12.7346  -21.1785   -1.6520 C   0  0  0  0  0  0  0  0  0  0  0  0
   13.2435  -22.6214   -1.5486 C   0  0  2  0  0  0  0  0  0  0  0  0
   12.2666  -23.4872   -2.1945 N   0  0  0  0  0  0  0  0  0  0  0  0
   13.5504  -23.0408   -0.1835 C   0  0  0  0  0  0  0  0  0  0  0  0
   13.1869  -24.1568    0.2261 O   0  0  0  0  0  0  0  0  0  0  0  0
    8.8468  -17.2795   -2.4049 N   0  0  0  0  0  0  0  0  0  0  0  0
   14.2626  -22.2423    0.7567 C   0  0  2  0  0  0  0  0  0  0  0  0
   14.7824  -22.7228    1.9842 C   0  0  0  0  0  0  0  0  0  0  0  0
   15.7023  -23.9029    1.8620 S   0  0  0  0  0  0  0  0  0  0  0  0
   16.6744  -24.2371    3.3282 C   0  0  0  0  0  0  0  0  0  0  0  0
   15.4582  -21.6349    2.7598 O   0  0  0  0  0  0  0  0  0  0  0  0
   16.3969  -21.0124    2.1994 N   0  0  0  0  0  0  0  0  0  0  0  0
   15.0889  -21.2841    4.0791 C   0  0  1  0  0  0  0  0  0  0  0  0
   15.7871  -20.2606    4.8585 C   0  0  0  0  0  0  0  0  0  0  0  0
   15.2185  -18.8866    4.5600 S   0  0  0  0  0  0  0  0  0  0  0  0
   15.8809  -17.6349    5.6850 C   0  0  0  0  0  0  0  0  0  0  0  0
   15.5445  -20.5338    6.2954 O   0  0  0  0  0  0  0  0  0  0  0  0
   16.4101  -20.0381    7.2816 O   0  0  0  0  0  0  0  0  0  0  0  0
  1  2  1  0
  2  4  1  0
  3  2  2  0
  4  5  1  0
  6  7  1  0
  6  5  1  0
  7  8  1  0
  8 10  1  0
  8  9  1  1
 10 12  1  0
 11 10  2  0
 12 13  1  0
 13 16  1  0
 13 14  1  6
 14 15  1  0
 16 18  1  0
 16 17  2  0
 18 19  1  0
 19 22  1  0
 19 20  1  1
 21 20  1  0
 22 23  1  0
 24 22  2  0
M  END
$$$$
