RCC.pdb
     RDKit          3D

 24 23  0  0  1  0  0  0  0  0999 V2000
   18.8120  -24.2050   -6.9239 N   0  0  0  0  0  0  0  0  0  0  0  0
   17.9398  -25.0005   -7.7056 C   0  0  0  0  0  0  0  0  0  0  0  0
   17.5528  -26.1572   -7.2832 N   0  0  0  0  0  0  0  0  0  0  0  0
   17.4956  -24.5271   -8.9625 N   0  0  0  0  0  0  0  0  0  0  0  0
   18.3923  -24.2648  -10.0420 C   0  0  0  0  0  0  0  0  0  0  0  0
   19.6261  -23.5096   -9.6515 C   0  0  0  0  0  0  0  0  0  0  0  0
   20.5328  -23.2559  -10.7922 C   0  0  0  0  0  0  0  0  0  0  0  0
   19.8428  -22.6143  -12.0022 C   0  0  2  0  0  0  0  0  0  0  0  0
   18.8729  -23.5686  -12.5214 N   0  0  0  0  0  0  0  0  0  0  0  0
   20.7706  -22.1421  -13.0268 C   0  0  0  0  0  0  0  0  0  0  0  0
   21.1848  -22.9198  -13.9037 O   0  0  0  0  0  0  0  0  0  0  0  0
   16.9324  -26.7412   -7.8557 N   0  0  0  0  0  0  0  0  0  0  0  0
   21.2601  -20.8070  -13.1073 C   0  0  1  0  0  0  0  0  0  0  0  0
   22.1633  -20.3433  -14.0959 C   0  0  0  0  0  0  0  0  0  0  0  0
   21.6861  -19.1553  -14.8799 S   0  0  0  0  0  0  0  0  0  0  0  0
   20.0542  -19.3465  -15.5917 C   0  0  0  0  0  0  0  0  0  0  0  0
   23.5138  -20.0560  -13.5171 O   0  0  0  0  0  0  0  0  0  0  0  0
   23.6610  -18.9822  -12.8785 N   0  0  0  0  0  0  0  0  0  0  0  0
   24.6157  -20.9314  -13.6577 C   0  0  1  0  0  0  0  0  0  0  0  0
   25.9476  -20.6297  -13.1310 C   0  0  0  0  0  0  0  0  0  0  0  0
   26.2076  -21.4191  -11.8622 S   0  0  0  0  0  0  0  0  0  0  0  0
   24.9250  -21.1239  -10.6217 C   0  0  0  0  0  0  0  0  0  0  0  0
   26.9474  -21.0684  -14.1341 O   0  0  0  0  0  0  0  0  0  0  0  0
   28.3145  -20.8139  -13.9510 O   0  0  0  0  0  0  0  0  0  0  0  0
  1  2  1  0
  2  4  1  0
  3  2  2  0
  4  5  1  0
  6  7  1  0
  6  5  1  0
  7  8  1  0
  8 10  1  0
  8  9  1  6
 10 12  1  0
 11 10  2  0
 12 13  1  0
 13 16  1  0
 13 14  1  6
 14 15  1  0
 16 18  1  0
 16 17  2  0
 18 19  1  0
 19 22  1  0
 19 20  1  6
 21 20  1  0
 22 23  1  0
 24 22  2  0
M  END
$$$$
