RCC.pdb
     RDKit          3D

 24 23  0  0  1  0  0  0  0  0999 V2000
   18.2438  -26.0846   -8.4082 N   0  0  0  0  0  0  0  0  0  0  0  0
   18.3359  -24.8619   -7.7003 C   0  0  0  0  0  0  0  0  0  0  0  0
   17.2821  -24.3206   -7.1878 N   0  0  0  0  0  0  0  0  0  0  0  0
   19.5913  -24.2251   -7.5605 N   0  0  0  0  0  0  0  0  0  0  0  0
   20.1288  -23.3640   -8.5644 C   0  0  0  0  0  0  0  0  0  0  0  0
   19.8002  -21.9142   -8.3763 C   0  0  0  0  0  0  0  0  0  0  0  0
   20.2556  -21.0685   -9.5010 C   0  0  0  0  0  0  0  0  0  0  0  0
   21.4998  -21.6069  -10.2177 C   0  0  2  0  0  0  0  0  0  0  0  0
   22.6511  -21.3600   -9.3606 N   0  0  0  0  0  0  0  0  0  0  0  0
   21.6787  -21.0749  -11.5662 C   0  0  0  0  0  0  0  0  0  0  0  0
   22.3029  -20.0147  -11.7441 O   0  0  0  0  0  0  0  0  0  0  0  0
   17.3441  -23.4232   -6.6934 N   0  0  0  0  0  0  0  0  0  0  0  0
   21.1757  -21.6978  -12.7442 C   0  0  2  0  0  0  0  0  0  0  0  0
   21.3448  -21.1868  -14.0550 C   0  0  0  0  0  0  0  0  0  0  0  0
   21.6173  -22.2230  -15.1066 S   0  0  0  0  0  0  0  0  0  0  0  0
   21.9961  -21.5532  -16.7235 C   0  0  0  0  0  0  0  0  0  0  0  0
   20.1819  -20.3403  -14.4707 O   0  0  0  0  0  0  0  0  0  0  0  0
   19.0259  -20.7737  -14.2288 N   0  0  0  0  0  0  0  0  0  0  0  0
   20.3290  -19.0903  -15.1156 C   0  0  1  0  0  0  0  0  0  0  0  0
   19.1928  -18.2510  -15.4991 C   0  0  0  0  0  0  0  0  0  0  0  0
   19.5665  -16.7832  -15.4188 S   0  0  0  0  0  0  0  0  0  0  0  0
   20.1206  -16.3287  -13.7583 C   0  0  0  0  0  0  0  0  0  0  0  0
   18.8637  -18.5439  -16.9148 O   0  0  0  0  0  0  0  0  0  0  0  0
   19.6203  -19.4621  -17.6576 O   0  0  0  0  0  0  0  0  0  0  0  0
  1  2  1  0
  2  4  1  0
  3  2  2  0
  4  5  1  0
  6  7  1  0
  6  5  1  0
  7  8  1  0
  8 10  1  0
  8  9  1  1
 10 12  1  0
 11 10  2  0
 12 13  1  0
 13 16  1  0
 13 14  1  1
 14 15  1  0
 16 18  1  0
 16 17  2  0
 18 19  1  0
 19 22  1  0
 19 20  1  6
 21 20  1  0
 22 23  1  0
 24 22  2  0
M  END
$$$$
