RCC.pdb
     RDKit          3D

 24 23  0  0  1  0  0  0  0  0999 V2000
   29.8180  -22.9224  -18.3384 N   0  0  0  0  0  0  0  0  0  0  0  0
   29.3738  -23.3699  -17.0706 C   0  0  0  0  0  0  0  0  0  0  0  0
   29.9910  -24.3250  -16.4599 N   0  0  0  0  0  0  0  0  0  0  0  0
   28.2404  -22.7707  -16.4727 N   0  0  0  0  0  0  0  0  0  0  0  0
   27.5636  -21.6588  -17.0591 C   0  0  0  0  0  0  0  0  0  0  0  0
   28.3356  -20.3751  -17.0220 C   0  0  0  0  0  0  0  0  0  0  0  0
   27.6132  -19.2872  -16.3276 C   0  0  0  0  0  0  0  0  0  0  0  0
   26.0971  -19.3038  -16.5575 C   0  0  2  0  0  0  0  0  0  0  0  0
   25.7766  -18.2418  -17.5012 N   0  0  0  0  0  0  0  0  0  0  0  0
   25.3143  -19.2176  -15.3273 C   0  0  0  0  0  0  0  0  0  0  0  0
   24.9926  -18.1092  -14.8654 O   0  0  0  0  0  0  0  0  0  0  0  0
   29.6874  -24.6309  -15.5282 N   0  0  0  0  0  0  0  0  0  0  0  0
   24.8701  -20.3472  -14.5821 C   0  0  2  0  0  0  0  0  0  0  0  0
   24.1950  -20.2712  -13.3386 C   0  0  0  0  0  0  0  0  0  0  0  0
   22.9291  -21.0741  -13.2569 S   0  0  0  0  0  0  0  0  0  0  0  0
   22.1119  -21.0058  -11.6651 C   0  0  0  0  0  0  0  0  0  0  0  0
   25.0962  -20.6338  -12.1993 O   0  0  0  0  0  0  0  0  0  0  0  0
   25.6000  -21.7866  -12.1949 N   0  0  0  0  0  0  0  0  0  0  0  0
   25.3998  -19.7444  -11.1424 C   0  0  2  0  0  0  0  0  0  0  0  0
   26.1731  -20.1390   -9.9639 C   0  0  0  0  0  0  0  0  0  0  0  0
   26.5197  -18.9235   -9.1255 S   0  0  0  0  0  0  0  0  0  0  0  0
   27.0250  -19.3922   -7.4533 C   0  0  0  0  0  0  0  0  0  0  0  0
   25.3203  -21.0194   -9.1298 O   0  0  0  0  0  0  0  0  0  0  0  0
   25.8346  -22.1919   -8.5569 O   0  0  0  0  0  0  0  0  0  0  0  0
  1  2  1  0
  2  4  1  0
  3  2  2  0
  4  5  1  0
  6  7  1  0
  6  5  1  0
  7  8  1  0
  8 10  1  0
  8  9  1  6
 10 12  1  0
 11 10  2  0
 12 13  1  0
 13 16  1  0
 13 14  1  6
 14 15  1  0
 16 18  1  0
 16 17  2  0
 18 19  1  0
 19 22  1  0
 19 20  1  1
 21 20  1  0
 22 23  1  0
 24 22  2  0
M  END
$$$$
