RCC.pdb
     RDKit          3D

 24 23  0  0  1  0  0  0  0  0999 V2000
   21.0627  -17.2307  -14.6917 N   0  0  0  0  0  0  0  0  0  0  0  0
   20.0799  -18.0632  -15.2797 C   0  0  0  0  0  0  0  0  0  0  0  0
   20.2099  -19.3472  -15.2565 N   0  0  0  0  0  0  0  0  0  0  0  0
   18.9509  -17.4826  -15.9038 N   0  0  0  0  0  0  0  0  0  0  0  0
   18.7227  -16.0734  -15.9149 C   0  0  0  0  0  0  0  0  0  0  0  0
   17.4656  -15.6560  -16.6156 C   0  0  0  0  0  0  0  0  0  0  0  0
   17.1778  -14.2122  -16.4734 C   0  0  0  0  0  0  0  0  0  0  0  0
   15.8406  -13.9110  -15.7857 C   0  0  2  0  0  0  0  0  0  0  0  0
   14.8174  -14.7307  -16.4200 N   0  0  0  0  0  0  0  0  0  0  0  0
   15.4937  -12.4923  -15.7690 C   0  0  0  0  0  0  0  0  0  0  0  0
   14.9553  -11.9670  -16.7587 O   0  0  0  0  0  0  0  0  0  0  0  0
   19.5410  -19.9486  -15.7512 N   0  0  0  0  0  0  0  0  0  0  0  0
   15.7313  -11.6245  -14.6649 C   0  0  1  0  0  0  0  0  0  0  0  0
   15.2885  -10.2804  -14.5928 C   0  0  0  0  0  0  0  0  0  0  0  0
   14.2650  -10.0087  -13.5287 S   0  0  0  0  0  0  0  0  0  0  0  0
   12.9272  -11.1975  -13.4693 C   0  0  0  0  0  0  0  0  0  0  0  0
   16.4354   -9.3297  -14.4436 O   0  0  0  0  0  0  0  0  0  0  0  0
   17.3115   -9.5994  -13.5819 N   0  0  0  0  0  0  0  0  0  0  0  0
   16.5716   -8.1566  -15.2217 C   0  0  1  0  0  0  0  0  0  0  0  0
   17.7225   -7.2584  -15.1176 C   0  0  0  0  0  0  0  0  0  0  0  0
   18.6241   -7.4089  -16.3280 S   0  0  0  0  0  0  0  0  0  0  0  0
   17.6698   -7.4750  -17.8629 C   0  0  0  0  0  0  0  0  0  0  0  0
   17.2175   -5.8644  -15.1166 O   0  0  0  0  0  0  0  0  0  0  0  0
   18.0808   -4.7830  -14.8868 O   0  0  0  0  0  0  0  0  0  0  0  0
  1  2  1  0
  2  4  1  0
  3  2  2  0
  4  5  1  0
  6  7  1  0
  6  5  1  0
  7  8  1  0
  8 10  1  0
  8  9  1  6
 10 12  1  0
 11 10  2  0
 12 13  1  0
 13 16  1  0
 13 14  1  6
 14 15  1  0
 16 18  1  0
 16 17  2  0
 18 19  1  0
 19 22  1  0
 19 20  1  1
 21 20  1  0
 22 23  1  0
 24 22  2  0
M  END
$$$$
