RCC.pdb
     RDKit          3D

 24 23  0  0  1  0  0  0  0  0999 V2000
   17.6337  -25.3915  -10.2365 N   0  0  0  0  0  0  0  0  0  0  0  0
   18.1876  -24.6308   -9.1785 C   0  0  0  0  0  0  0  0  0  0  0  0
   18.2541  -25.1191   -7.9855 N   0  0  0  0  0  0  0  0  0  0  0  0
   18.6646  -23.3229   -9.4297 N   0  0  0  0  0  0  0  0  0  0  0  0
   18.6335  -22.7334  -10.7296 C   0  0  0  0  0  0  0  0  0  0  0  0
   19.1770  -23.6078  -11.8183 C   0  0  0  0  0  0  0  0  0  0  0  0
   20.3751  -23.0380  -12.4721 C   0  0  0  0  0  0  0  0  0  0  0  0
   20.0933  -22.4053  -13.8403 C   0  0  2  0  0  0  0  0  0  0  0  0
   19.1998  -23.2953  -14.5688 N   0  0  0  0  0  0  0  0  0  0  0  0
   21.2991  -22.0771  -14.5966 C   0  0  0  0  0  0  0  0  0  0  0  0
   21.7971  -22.9093  -15.3743 O   0  0  0  0  0  0  0  0  0  0  0  0
   18.6313  -24.5589   -7.2124 N   0  0  0  0  0  0  0  0  0  0  0  0
   21.9798  -20.8288  -14.5130 C   0  0  2  0  0  0  0  0  0  0  0  0
   23.1818  -20.5245  -15.1989 C   0  0  0  0  0  0  0  0  0  0  0  0
   23.0441  -19.5063  -16.2935 S   0  0  0  0  0  0  0  0  0  0  0  0
   22.2856  -17.9676  -15.7804 C   0  0  0  0  0  0  0  0  0  0  0  0
   24.2645  -20.1052  -14.2536 O   0  0  0  0  0  0  0  0  0  0  0  0
   23.9791  -19.2458  -13.3803 N   0  0  0  0  0  0  0  0  0  0  0  0
   25.5772  -20.6291  -14.3026 C   0  0  2  0  0  0  0  0  0  0  0  0
   26.7160  -19.9937  -13.6379 C   0  0  0  0  0  0  0  0  0  0  0  0
   27.8865  -20.9549  -13.5562 S   0  0  0  0  0  0  0  0  0  0  0  0
   28.3063  -21.6299  -15.1807 C   0  0  0  0  0  0  0  0  0  0  0  0
   27.1486  -18.8442  -14.4685 O   0  0  0  0  0  0  0  0  0  0  0  0
   27.9946  -17.8540  -13.9477 O   0  0  0  0  0  0  0  0  0  0  0  0
  1  2  1  0
  2  4  1  0
  3  2  2  0
  4  5  1  0
  6  7  1  0
  6  5  1  0
  7  8  1  0
  8 10  1  0
  8  9  1  6
 10 12  1  0
 11 10  2  0
 12 13  1  0
 13 16  1  0
 13 14  1  6
 14 15  1  0
 16 18  1  0
 16 17  2  0
 18 19  1  0
 19 22  1  0
 19 20  1  6
 21 20  1  0
 22 23  1  0
 24 22  2  0
M  END
$$$$
