RCC.pdb
     RDKit          3D

 24 23  0  0  1  0  0  0  0  0999 V2000
   18.6666  -23.5705  -13.4508 N   0  0  0  0  0  0  0  0  0  0  0  0
   17.5447  -23.1032  -12.7243 C   0  0  0  0  0  0  0  0  0  0  0  0
   16.9796  -21.9861  -13.0388 N   0  0  0  0  0  0  0  0  0  0  0  0
   17.0445  -23.8629  -11.6409 N   0  0  0  0  0  0  0  0  0  0  0  0
   17.9006  -24.4888  -10.6851 C   0  0  0  0  0  0  0  0  0  0  0  0
   18.1283  -25.9507  -10.9227 C   0  0  0  0  0  0  0  0  0  0  0  0
   19.0026  -26.5716   -9.9041 C   0  0  0  0  0  0  0  0  0  0  0  0
   18.2464  -27.4065   -8.8634 C   0  0  2  0  0  0  0  0  0  0  0  0
   16.9587  -27.7743   -9.4357 N   0  0  0  0  0  0  0  0  0  0  0  0
   18.1177  -26.7515   -7.5642 C   0  0  0  0  0  0  0  0  0  0  0  0
   19.1117  -26.2438   -7.0170 O   0  0  0  0  0  0  0  0  0  0  0  0
   16.1685  -21.6446  -12.5104 N   0  0  0  0  0  0  0  0  0  0  0  0
   16.8947  -26.6418   -6.8425 C   0  0  1  0  0  0  0  0  0  0  0  0
   16.7757  -26.0726   -5.5502 C   0  0  0  0  0  0  0  0  0  0  0  0
   15.4810  -25.3580   -5.2916 S   0  0  0  0  0  0  0  0  0  0  0  0
   15.3195  -24.6975   -3.6350 C   0  0  0  0  0  0  0  0  0  0  0  0
   17.0140  -27.0885   -4.4766 O   0  0  0  0  0  0  0  0  0  0  0  0
   16.2246  -28.0658   -4.4094 N   0  0  0  0  0  0  0  0  0  0  0  0
   18.0763  -26.9949   -3.5478 C   0  0  1  0  0  0  0  0  0  0  0  0
   18.2727  -27.9541   -2.4598 C   0  0  0  0  0  0  0  0  0  0  0  0
   19.6338  -27.7588   -1.8195 S   0  0  0  0  0  0  0  0  0  0  0  0
   19.8541  -28.8382   -0.3851 C   0  0  0  0  0  0  0  0  0  0  0  0
   17.2538  -27.6806   -1.4180 O   0  0  0  0  0  0  0  0  0  0  0  0
   16.8345  -26.3706   -1.1434 O   0  0  0  0  0  0  0  0  0  0  0  0
  1  2  1  0
  2  4  1  0
  3  2  2  0
  4  5  1  0
  6  7  1  0
  6  5  1  0
  7  8  1  0
  8 10  1  0
  8  9  1  6
 10 12  1  0
 11 10  2  0
 12 13  1  0
 13 16  1  0
 13 14  1  1
 14 15  1  0
 16 18  1  0
 16 17  2  0
 18 19  1  0
 19 22  1  0
 19 20  1  1
 21 20  1  0
 22 23  1  0
 24 22  2  0
M  END
$$$$
