GSD.pdb
     RDKit          3D

 19 18  0  0  1  0  0  0  0  0999 V2000
   18.8059  -13.2693  -15.5139 N   0  0  0  0  0  0  0  0  0  0  0  0
   19.7312  -12.2440  -15.9401 C   0  0  0  0  0  0  0  0  0  0  0  0
   18.9656  -10.9672  -16.0880 C   0  0  0  0  0  0  0  0  0  0  0  0
   17.9884  -10.8941  -16.8711 O   0  0  0  0  0  0  0  0  0  0  0  0
   16.3668   -7.5886  -14.9847 O   0  0  0  0  0  0  0  0  0  0  0  0
   17.0999   -8.7889  -14.9165 C   0  0  0  0  0  0  0  0  0  0  0  0
   18.4983   -8.6270  -15.4515 C   0  0  2  0  0  0  0  0  0  0  0  0
   19.2956   -9.7975  -15.3674 N   0  0  0  0  0  0  0  0  0  0  0  0
   19.1316   -7.4748  -14.7590 C   0  0  0  0  0  0  0  0  0  0  0  0
   19.5993   -7.6735  -13.6107 O   0  0  0  0  0  0  0  0  0  0  0  0
   19.2326   -6.1859  -15.3178 N   0  0  0  0  0  0  0  0  0  0  0  0
   19.8536   -5.0539  -14.5915 C   0  0  1  0  0  0  0  0  0  0  0  0
   21.2257   -4.8045  -15.1233 C   0  0  0  0  0  0  0  0  0  0  0  0
   22.2376   -5.5326  -14.3533 C   0  0  0  0  0  0  0  0  0  0  0  0
   22.6776   -5.1701  -13.2428 O   0  0  0  0  0  0  0  0  0  0  0  0
   18.9924   -3.8651  -14.7436 C   0  0  0  0  0  0  0  0  0  0  0  0
   18.0196   -3.7498  -15.4907 O   0  0  0  0  0  0  0  0  0  0  0  0
   22.8046   -6.7385  -14.8333 O   0  0  0  0  0  0  0  0  0  0  0  0
   19.2950   -2.7275  -13.9603 O   0  0  0  0  0  0  0  0  0  0  0  0
  1  2  1  0
  3  4  2  0
  3  2  1  0
  5  6  1  0
  7  6  1  1
  7  8  1  0
  8  3  1  0
  9 11  1  0
  9  7  1  0
 10  9  2  0
 12 11  1  0
 12 16  1  0
 13 14  1  0
 12 13  1  6
 14 15  2  0
 16 19  1  0
 17 16  2  0
 18 14  1  0
M  END
$$$$
