GSD.pdb
     RDKit          3D

 19 18  0  0  1  0  0  0  0  0999 V2000
   16.0114  -10.2660   -9.8964 N   0  0  0  0  0  0  0  0  0  0  0  0
   14.8873  -10.0108  -10.7683 C   0  0  0  0  0  0  0  0  0  0  0  0
   15.4237   -9.7005  -12.1300 C   0  0  0  0  0  0  0  0  0  0  0  0
   15.7155  -10.6229  -12.9283 O   0  0  0  0  0  0  0  0  0  0  0  0
   13.8827   -7.4302  -14.6956 O   0  0  0  0  0  0  0  0  0  0  0  0
   15.2427   -7.0715  -14.6284 C   0  0  0  0  0  0  0  0  0  0  0  0
   16.0637   -8.1051  -13.9034 C   0  0  2  0  0  0  0  0  0  0  0  0
   15.6264   -8.3770  -12.5815 N   0  0  0  0  0  0  0  0  0  0  0  0
   17.4868   -7.6785  -13.9391 C   0  0  0  0  0  0  0  0  0  0  0  0
   17.8619   -6.8369  -13.0860 O   0  0  0  0  0  0  0  0  0  0  0  0
   18.4255   -8.1639  -14.8702 N   0  0  0  0  0  0  0  0  0  0  0  0
   19.8537   -7.7723  -14.8328 C   0  0  1  0  0  0  0  0  0  0  0  0
   20.6979   -8.8916  -15.3446 C   0  0  0  0  0  0  0  0  0  0  0  0
   22.1199   -8.5387  -15.3290 C   0  0  0  0  0  0  0  0  0  0  0  0
   22.5824   -7.4872  -14.8404 O   0  0  0  0  0  0  0  0  0  0  0  0
   20.0304   -6.5506  -15.6418 C   0  0  0  0  0  0  0  0  0  0  0  0
   21.0011   -5.7921  -15.6297 O   0  0  0  0  0  0  0  0  0  0  0  0
   23.0999   -9.3961  -15.8863 O   0  0  0  0  0  0  0  0  0  0  0  0
   18.9911   -6.1932  -16.5314 O   0  0  0  0  0  0  0  0  0  0  0  0
  1  2  1  0
  3  4  2  0
  3  2  1  0
  5  6  1  0
  7  6  1  1
  7  8  1  0
  8  3  1  0
  9 11  1  0
  9  7  1  0
 10  9  2  0
 12 11  1  0
 12 16  1  0
 13 14  1  0
 12 13  1  6
 14 15  2  0
 16 19  1  0
 17 16  2  0
 18 14  1  0
M  END
$$$$
