GSD.pdb
     RDKit          3D

 19 18  0  0  1  0  0  0  0  0999 V2000
   19.0144  -13.6445  -16.4073 N   0  0  0  0  0  0  0  0  0  0  0  0
   18.3538  -12.7445  -15.4894 C   0  0  0  0  0  0  0  0  0  0  0  0
   18.3905  -11.3726  -16.0852 C   0  0  0  0  0  0  0  0  0  0  0  0
   18.9594  -11.1672  -17.1841 O   0  0  0  0  0  0  0  0  0  0  0  0
   15.7681   -8.2188  -15.1179 O   0  0  0  0  0  0  0  0  0  0  0  0
   16.5582   -8.3009  -16.2805 C   0  0  0  0  0  0  0  0  0  0  0  0
   17.8880   -8.9555  -16.0140 C   0  0  2  0  0  0  0  0  0  0  0  0
   17.7977  -10.2560  -15.4542 N   0  0  0  0  0  0  0  0  0  0  0  0
   18.6950   -8.0418  -15.1642 C   0  0  0  0  0  0  0  0  0  0  0  0
   18.8751   -8.3713  -13.9660 O   0  0  0  0  0  0  0  0  0  0  0  0
   19.2615   -6.8387  -15.6284 N   0  0  0  0  0  0  0  0  0  0  0  0
   20.0504   -5.9438  -14.7502 C   0  0  1  0  0  0  0  0  0  0  0  0
   21.5078   -6.1931  -14.9532 C   0  0  0  0  0  0  0  0  0  0  0  0
   22.3234   -5.2546  -14.1782 C   0  0  0  0  0  0  0  0  0  0  0  0
   22.0910   -4.9236  -12.9973 O   0  0  0  0  0  0  0  0  0  0  0  0
   19.6948   -4.5450  -15.0586 C   0  0  0  0  0  0  0  0  0  0  0  0
   20.1529   -3.5331  -14.5258 O   0  0  0  0  0  0  0  0  0  0  0  0
   23.4704   -4.6381  -14.7355 O   0  0  0  0  0  0  0  0  0  0  0  0
   18.7309   -4.3171  -16.0676 O   0  0  0  0  0  0  0  0  0  0  0  0
  1  2  1  0
  3  4  2  0
  3  2  1  0
  5  6  1  0
  7  6  1  1
  7  8  1  0
  8  3  1  0
  9 11  1  0
  9  7  1  0
 10  9  2  0
 12 11  1  0
 12 16  1  0
 13 14  1  0
 12 13  1  6
 14 15  2  0
 16 19  1  0
 17 16  2  0
 18 14  1  0
M  END
$$$$
