GSD.pdb
     RDKit          3D

 19 18  0  0  1  0  0  0  0  0999 V2000
   14.3823  -14.0557  -13.9123 N   0  0  0  0  0  0  0  0  0  0  0  0
   14.4808  -12.6144  -13.8692 C   0  0  0  0  0  0  0  0  0  0  0  0
   15.7369  -12.2185  -14.5791 C   0  0  0  0  0  0  0  0  0  0  0  0
   16.3571  -13.0445  -15.2908 O   0  0  0  0  0  0  0  0  0  0  0  0
   16.2559   -9.5347  -17.1069 O   0  0  0  0  0  0  0  0  0  0  0  0
   17.1980  -10.5118  -16.7320 C   0  0  0  0  0  0  0  0  0  0  0  0
   17.4211  -10.5385  -15.2429 C   0  0  2  0  0  0  0  0  0  0  0  0
   16.2816  -10.9180  -14.4877 N   0  0  0  0  0  0  0  0  0  0  0  0
   17.9445   -9.2115  -14.8264 C   0  0  0  0  0  0  0  0  0  0  0  0
   17.1200   -8.3768  -14.3791 O   0  0  0  0  0  0  0  0  0  0  0  0
   19.3024   -8.8460  -14.9071 N   0  0  0  0  0  0  0  0  0  0  0  0
   19.7731   -7.4749  -14.6025 C   0  0  1  0  0  0  0  0  0  0  0  0
   21.2464   -7.4880  -14.3639 C   0  0  0  0  0  0  0  0  0  0  0  0
   21.7547   -6.1422  -14.0862 C   0  0  0  0  0  0  0  0  0  0  0  0
   21.4305   -5.4539  -13.0965 O   0  0  0  0  0  0  0  0  0  0  0  0
   19.4178   -6.5916  -15.7301 C   0  0  0  0  0  0  0  0  0  0  0  0
   19.3192   -6.9123  -16.9155 O   0  0  0  0  0  0  0  0  0  0  0  0
   22.6801   -5.5090  -14.9516 O   0  0  0  0  0  0  0  0  0  0  0  0
   19.1581   -5.2311  -15.4453 O   0  0  0  0  0  0  0  0  0  0  0  0
  1  2  1  0
  3  4  2  0
  3  2  1  0
  5  6  1  0
  7  6  1  6
  7  8  1  0
  8  3  1  0
  9 11  1  0
  9  7  1  0
 10  9  2  0
 12 11  1  0
 12 16  1  0
 13 14  1  0
 12 13  1  6
 14 15  2  0
 16 19  1  0
 17 16  2  0
 18 14  1  0
M  END
$$$$
