GSD.pdb
     RDKit          3D

 19 18  0  0  1  0  0  0  0  0999 V2000
   24.7174  -10.9516  -19.1317 N   0  0  0  0  0  0  0  0  0  0  0  0
   24.5343  -10.8311  -17.7031 C   0  0  0  0  0  0  0  0  0  0  0  0
   23.5463   -9.7348  -17.4577 C   0  0  0  0  0  0  0  0  0  0  0  0
   23.3001   -8.8845  -18.3464 O   0  0  0  0  0  0  0  0  0  0  0  0
   21.7016   -8.8683  -13.6243 O   0  0  0  0  0  0  0  0  0  0  0  0
   21.0229   -8.7181  -14.8489 C   0  0  0  0  0  0  0  0  0  0  0  0
   21.9731   -8.5114  -15.9989 C   0  0  2  0  0  0  0  0  0  0  0  0
   22.8507   -9.6008  -16.2352 N   0  0  0  0  0  0  0  0  0  0  0  0
   22.7136   -7.2436  -15.7692 C   0  0  0  0  0  0  0  0  0  0  0  0
   23.9659   -7.2794  -15.8542 O   0  0  0  0  0  0  0  0  0  0  0  0
   22.0901   -6.0180  -15.4643 N   0  0  0  0  0  0  0  0  0  0  0  0
   22.8440   -4.7459  -15.3764 C   0  0  1  0  0  0  0  0  0  0  0  0
   23.5042   -4.4587  -16.6837 C   0  0  0  0  0  0  0  0  0  0  0  0
   24.1618   -3.1494  -16.6739 C   0  0  0  0  0  0  0  0  0  0  0  0
   23.5601   -2.0557  -16.6712 O   0  0  0  0  0  0  0  0  0  0  0  0
   21.9103   -3.6682  -14.9960 C   0  0  0  0  0  0  0  0  0  0  0  0
   22.1989   -2.5981  -14.4580 O   0  0  0  0  0  0  0  0  0  0  0  0
   25.5733   -3.0317  -16.6666 O   0  0  0  0  0  0  0  0  0  0  0  0
   20.5361   -3.8603  -15.2678 O   0  0  0  0  0  0  0  0  0  0  0  0
  1  2  1  0
  3  4  2  0
  3  2  1  0
  5  6  1  0
  7  6  1  1
  7  8  1  0
  8  3  1  0
  9 11  1  0
  9  7  1  0
 10  9  2  0
 12 11  1  0
 12 16  1  0
 13 14  1  0
 12 13  1  6
 14 15  2  0
 16 19  1  0
 17 16  2  0
 18 14  1  0
M  END
$$$$
