GSD.pdb
     RDKit          3D

 19 18  0  0  1  0  0  0  0  0999 V2000
   28.6195   -8.7480  -18.5843 N   0  0  0  0  0  0  0  0  0  0  0  0
   28.2371   -9.4572  -17.3845 C   0  0  0  0  0  0  0  0  0  0  0  0
   26.7432   -9.4493  -17.3030 C   0  0  0  0  0  0  0  0  0  0  0  0
   26.0669   -8.6796  -18.0266 O   0  0  0  0  0  0  0  0  0  0  0  0
   22.5822  -11.4128  -15.7362 O   0  0  0  0  0  0  0  0  0  0  0  0
   23.9890  -11.4646  -15.7078 C   0  0  0  0  0  0  0  0  0  0  0  0
   24.6113  -10.2522  -16.3488 C   0  0  2  0  0  0  0  0  0  0  0  0
   26.0275  -10.2924  -16.4235 N   0  0  0  0  0  0  0  0  0  0  0  0
   24.1288   -9.0452  -15.6287 C   0  0  0  0  0  0  0  0  0  0  0  0
   24.8500   -8.5932  -14.7055 O   0  0  0  0  0  0  0  0  0  0  0  0
   22.9179   -8.3897  -15.9250 N   0  0  0  0  0  0  0  0  0  0  0  0
   22.4503   -7.2075  -15.1647 C   0  0  1  0  0  0  0  0  0  0  0  0
   23.3535   -6.0487  -15.4272 C   0  0  0  0  0  0  0  0  0  0  0  0
   22.9043   -4.8493  -14.7154 C   0  0  0  0  0  0  0  0  0  0  0  0
   22.3855   -3.8546  -15.2629 O   0  0  0  0  0  0  0  0  0  0  0  0
   21.0609   -6.9087  -15.5625 C   0  0  0  0  0  0  0  0  0  0  0  0
   20.2943   -6.1104  -15.0214 O   0  0  0  0  0  0  0  0  0  0  0  0
   23.0327   -4.7332  -13.3096 O   0  0  0  0  0  0  0  0  0  0  0  0
   20.5322   -7.5973  -16.6786 O   0  0  0  0  0  0  0  0  0  0  0  0
  1  2  1  0
  3  4  2  0
  3  2  1  0
  5  6  1  0
  7  6  1  1
  7  8  1  0
  8  3  1  0
  9 11  1  0
  9  7  1  0
 10  9  2  0
 12 11  1  0
 12 16  1  0
 13 14  1  0
 12 13  1  6
 14 15  2  0
 16 19  1  0
 17 16  2  0
 18 14  1  0
M  END
$$$$
