GSD.pdb
     RDKit          3D

 19 18  0  0  1  0  0  0  0  0999 V2000
   21.3444   -7.5685  -16.9545 N   0  0  0  0  0  0  0  0  0  0  0  0
   21.4655   -7.0682  -15.6040 C   0  0  0  0  0  0  0  0  0  0  0  0
   20.1000   -7.0619  -14.9926 C   0  0  0  0  0  0  0  0  0  0  0  0
   19.3987   -6.0220  -15.0037 O   0  0  0  0  0  0  0  0  0  0  0  0
   18.3075  -10.4664  -13.0498 O   0  0  0  0  0  0  0  0  0  0  0  0
   17.5611   -9.5535  -13.8195 C   0  0  0  0  0  0  0  0  0  0  0  0
   18.2127   -8.1970  -13.8748 C   0  0  2  0  0  0  0  0  0  0  0  0
   19.5378   -8.2051  -14.3814 N   0  0  0  0  0  0  0  0  0  0  0  0
   18.1415   -7.5904  -12.5201 C   0  0  0  0  0  0  0  0  0  0  0  0
   19.1520   -7.6974  -11.7825 O   0  0  0  0  0  0  0  0  0  0  0  0
   17.0115   -6.9098  -12.0264 N   0  0  0  0  0  0  0  0  0  0  0  0
   17.0055   -6.2382  -10.7061 C   0  0  1  0  0  0  0  0  0  0  0  0
   16.0925   -5.0581  -10.7438 C   0  0  0  0  0  0  0  0  0  0  0  0
   16.1096   -4.3286   -9.4732 C   0  0  0  0  0  0  0  0  0  0  0  0
   17.1051   -4.2321   -8.7263 O   0  0  0  0  0  0  0  0  0  0  0  0
   16.5837   -7.2132   -9.6816 C   0  0  0  0  0  0  0  0  0  0  0  0
   16.0701   -8.3154   -9.8796 O   0  0  0  0  0  0  0  0  0  0  0  0
   14.9581   -3.6604   -8.9897 O   0  0  0  0  0  0  0  0  0  0  0  0
   16.7799   -6.8695   -8.3241 O   0  0  0  0  0  0  0  0  0  0  0  0
  1  2  1  0
  3  4  2  0
  3  2  1  0
  5  6  1  0
  7  6  1  1
  7  8  1  0
  8  3  1  0
  9 11  1  0
  9  7  1  0
 10  9  2  0
 12 11  1  0
 12 16  1  0
 13 14  1  0
 12 13  1  6
 14 15  2  0
 16 19  1  0
 17 16  2  0
 18 14  1  0
M  END
$$$$
