GSD.pdb
     RDKit          3D

 19 18  0  0  1  0  0  0  0  0999 V2000
   20.4558  -14.3757  -15.7246 N   0  0  0  0  0  0  0  0  0  0  0  0
   19.3772  -13.5234  -16.1710 C   0  0  0  0  0  0  0  0  0  0  0  0
   19.9688  -12.2132  -16.5854 C   0  0  0  0  0  0  0  0  0  0  0  0
   21.1565  -11.9284  -16.2995 O   0  0  0  0  0  0  0  0  0  0  0  0
   17.8032   -9.0609  -18.6283 O   0  0  0  0  0  0  0  0  0  0  0  0
   19.1602   -9.3489  -18.8697 C   0  0  0  0  0  0  0  0  0  0  0  0
   19.8168  -10.0069  -17.6849 C   0  0  2  0  0  0  0  0  0  0  0  0
   19.2357  -11.2448  -17.3072 N   0  0  0  0  0  0  0  0  0  0  0  0
   19.8298   -9.0354  -16.5605 C   0  0  0  0  0  0  0  0  0  0  0  0
   18.9844   -9.1949  -15.6459 O   0  0  0  0  0  0  0  0  0  0  0  0
   20.7312   -7.9570  -16.4692 N   0  0  0  0  0  0  0  0  0  0  0  0
   20.7693   -7.0535  -15.2959 C   0  0  1  0  0  0  0  0  0  0  0  0
   22.1828   -6.6900  -14.9840 C   0  0  0  0  0  0  0  0  0  0  0  0
   22.2624   -5.8068  -13.8176 C   0  0  0  0  0  0  0  0  0  0  0  0
   21.5822   -5.9427  -12.7797 O   0  0  0  0  0  0  0  0  0  0  0  0
   19.9584   -5.8570  -15.5940 C   0  0  0  0  0  0  0  0  0  0  0  0
   19.5206   -5.5183  -16.6947 O   0  0  0  0  0  0  0  0  0  0  0  0
   23.1470   -4.7011  -13.7873 O   0  0  0  0  0  0  0  0  0  0  0  0
   19.6369   -4.9944  -14.5207 O   0  0  0  0  0  0  0  0  0  0  0  0
  1  2  1  0
  3  4  2  0
  3  2  1  0
  5  6  1  0
  7  6  1  6
  7  8  1  0
  8  3  1  0
  9 11  1  0
  9  7  1  0
 10  9  2  0
 12 11  1  0
 12 16  1  0
 13 14  1  0
 12 13  1  6
 14 15  2  0
 16 19  1  0
 17 16  2  0
 18 14  1  0
M  END
$$$$
