LSH.pdb
     RDKit          3D

 25 25  0  0  1  0  0  0  0  0999 V2000
   26.6217  -14.7154  -16.9015 C   0  0  0  0  0  0  0  0  0  0  0  0
   27.2808  -13.5490  -16.1727 C   0  0  2  0  0  0  0  0  0  0  0  0
   27.8018  -14.1229  -14.8564 C   0  0  0  0  0  0  0  0  0  0  0  0
   26.2305  -12.5416  -15.8362 C   0  0  0  0  0  0  0  0  0  0  0  0
   25.5594  -11.9480  -17.0398 C   0  0  2  0  0  0  0  0  0  0  0  0
   26.4767  -11.5662  -18.0791 N   0  0  0  0  0  0  0  0  0  0  0  0
   24.8596  -10.6961  -16.5664 C   0  0  0  0  0  0  0  0  0  0  0  0
   24.0758  -10.7529  -15.5883 O   0  0  0  0  0  0  0  0  0  0  0  0
   24.8972   -7.0282  -18.9074 O   0  0  0  0  0  0  0  0  0  0  0  0
   25.0159   -7.0326  -17.5239 C   0  0  0  0  0  0  0  0  0  0  0  0
   24.3839   -8.2328  -16.8899 C   0  0  2  0  0  0  0  0  0  0  0  0
   25.0745   -9.4561  -17.2104 N   0  0  0  0  0  0  0  0  0  0  0  0
   22.9183   -8.2974  -17.0425 C   0  0  0  0  0  0  0  0  0  0  0  0
   22.4040   -9.1128  -17.8287 O   0  0  0  0  0  0  0  0  0  0  0  0
   22.1139   -7.4205  -16.2826 N   0  0  0  0  0  0  0  0  0  0  0  0
   20.6898   -7.3508  -16.4243 C   0  0  1  0  0  0  0  0  0  0  0  0
   20.0099   -8.6693  -16.1096 C   0  0  0  0  0  0  0  0  0  0  0  0
   18.5511   -8.6173  -16.3325 C   0  0  0  0  0  0  0  0  0  0  0  0
   17.8326   -7.5149  -16.7555 C   0  0  0  0  0  0  0  0  0  0  0  0
   16.5419   -7.8260  -16.8488 N   0  0  0  0  0  0  0  0  0  0  0  0
   16.4329   -9.1193  -16.4881 C   0  0  0  0  0  0  0  0  0  0  0  0
   17.6467   -9.6026  -16.1747 N   0  0  0  0  0  0  0  0  0  0  0  0
   20.1175   -6.3104  -15.5465 C   0  0  0  0  0  0  0  0  0  0  0  0
   18.8888   -6.0549  -15.4904 O   0  0  0  0  0  0  0  0  0  0  0  0
   20.9686   -5.5703  -14.7377 O   0  0  0  0  0  0  0  0  0  0  0  0
  2  1  1  6
  2  3  1  0
  4  2  1  0
  4  5  1  0
  5  7  1  0
  5  6  1  6
  7  8  2  0
  9 10  1  0
 11 10  1  6
 12 11  1  0
 12  7  1  0
 13 11  1  0
 14 13  2  0
 15 13  1  0
 16 17  1  1
 16 15  1  0
 18 17  1  0
 19 18  2  0
 20 19  1  0
 21 20  1  0
 21 22  2  0
 22 18  1  0
 23 25  1  0
 23 16  1  0
 24 23  2  0
M  END
$$$$
