LSH.pdb
     RDKit          3D

 25 25  0  0  1  0  0  0  0  0999 V2000
   16.3895  -15.4383  -18.2836 C   0  0  0  0  0  0  0  0  0  0  0  0
   16.0401  -13.9558  -18.3611 C   0  0  2  0  0  0  0  0  0  0  0  0
   16.6987  -13.4402  -19.6393 C   0  0  0  0  0  0  0  0  0  0  0  0
   16.6847  -13.2526  -17.2116 C   0  0  0  0  0  0  0  0  0  0  0  0
   18.0446  -13.7851  -16.8674 C   0  0  2  0  0  0  0  0  0  0  0  0
   18.0208  -14.8183  -15.8677 N   0  0  0  0  0  0  0  0  0  0  0  0
   18.8297  -12.6240  -16.3049 C   0  0  0  0  0  0  0  0  0  0  0  0
   18.4352  -12.0541  -15.2590 O   0  0  0  0  0  0  0  0  0  0  0  0
   22.8963  -12.1656  -16.4933 O   0  0  0  0  0  0  0  0  0  0  0  0
   22.1952  -11.0797  -17.0006 C   0  0  0  0  0  0  0  0  0  0  0  0
   20.7786  -11.0256  -16.5189 C   0  0  2  0  0  0  0  0  0  0  0  0
   20.0068  -12.1670  -16.9405 N   0  0  0  0  0  0  0  0  0  0  0  0
   20.1161   -9.7249  -16.7301 C   0  0  0  0  0  0  0  0  0  0  0  0
   19.2379   -9.6016  -17.6024 O   0  0  0  0  0  0  0  0  0  0  0  0
   20.4957   -8.6275  -15.9269 N   0  0  0  0  0  0  0  0  0  0  0  0
   19.8537   -7.3487  -16.0024 C   0  0  1  0  0  0  0  0  0  0  0  0
   18.3747   -7.4214  -15.6757 C   0  0  0  0  0  0  0  0  0  0  0  0
   17.7039   -6.1129  -15.8103 C   0  0  0  0  0  0  0  0  0  0  0  0
   17.9860   -5.1490  -16.7600 C   0  0  0  0  0  0  0  0  0  0  0  0
   17.1893   -4.0972  -16.5860 N   0  0  0  0  0  0  0  0  0  0  0  0
   16.4013   -4.3841  -15.5319 C   0  0  0  0  0  0  0  0  0  0  0  0
   16.7091   -5.6034  -15.0589 N   0  0  0  0  0  0  0  0  0  0  0  0
   20.4865   -6.3802  -15.0847 C   0  0  0  0  0  0  0  0  0  0  0  0
   20.0975   -5.1920  -14.9610 O   0  0  0  0  0  0  0  0  0  0  0  0
   21.5658   -6.7899  -14.3144 O   0  0  0  0  0  0  0  0  0  0  0  0
  2  1  1  1
  2  3  1  0
  4  2  1  0
  4  5  1  0
  5  7  1  0
  5  6  1  1
  7  8  2  0
  9 10  1  0
 11 10  1  6
 12 11  1  0
 12  7  1  0
 13 11  1  0
 14 13  2  0
 15 13  1  0
 16 17  1  1
 16 15  1  0
 18 17  1  0
 19 18  2  0
 20 19  1  0
 21 20  1  0
 21 22  2  0
 22 18  1  0
 23 25  1  0
 23 16  1  0
 24 23  2  0
M  END
$$$$
