LSH.pdb
     RDKit          3D

 25 25  0  0  1  0  0  0  0  0999 V2000
   26.7460  -14.5621  -14.6706 C   0  0  0  0  0  0  0  0  0  0  0  0
   26.9861  -14.1768  -16.1266 C   0  0  2  0  0  0  0  0  0  0  0  0
   28.3650  -13.5202  -16.1605 C   0  0  0  0  0  0  0  0  0  0  0  0
   25.9868  -13.1373  -16.5164 C   0  0  0  0  0  0  0  0  0  0  0  0
   24.5735  -13.6410  -16.5394 C   0  0  2  0  0  0  0  0  0  0  0  0
   24.3592  -14.7079  -17.4792 N   0  0  0  0  0  0  0  0  0  0  0  0
   23.7107  -12.4771  -16.9660 C   0  0  0  0  0  0  0  0  0  0  0  0
   23.7898  -12.0406  -18.1396 O   0  0  0  0  0  0  0  0  0  0  0  0
   19.6409  -10.0804  -16.5606 O   0  0  0  0  0  0  0  0  0  0  0  0
   20.4964  -11.0888  -16.1372 C   0  0  0  0  0  0  0  0  0  0  0  0
   21.9384  -10.7691  -16.3824 C   0  0  2  0  0  0  0  0  0  0  0  0
   22.8116  -11.8690  -16.0602 N   0  0  0  0  0  0  0  0  0  0  0  0
   22.3699   -9.4652  -15.8446 C   0  0  0  0  0  0  0  0  0  0  0  0
   22.8265   -9.3818  -14.6906 O   0  0  0  0  0  0  0  0  0  0  0  0
   22.2555   -8.3188  -16.6610 N   0  0  0  0  0  0  0  0  0  0  0  0
   22.6754   -7.0162  -16.2369 C   0  0  1  0  0  0  0  0  0  0  0  0
   23.6480   -6.3751  -17.2078 C   0  0  0  0  0  0  0  0  0  0  0  0
   24.9309   -7.1024  -17.2815 C   0  0  0  0  0  0  0  0  0  0  0  0
   25.3210   -8.1469  -16.4645 C   0  0  0  0  0  0  0  0  0  0  0  0
   26.5363   -8.5627  -16.8128 N   0  0  0  0  0  0  0  0  0  0  0  0
   26.9235   -7.7905  -17.8463 C   0  0  0  0  0  0  0  0  0  0  0  0
   25.9549   -6.9050  -18.1337 N   0  0  0  0  0  0  0  0  0  0  0  0
   21.5197   -6.1122  -16.0700 C   0  0  0  0  0  0  0  0  0  0  0  0
   20.3518   -6.4143  -16.4206 O   0  0  0  0  0  0  0  0  0  0  0  0
   21.7199   -4.8634  -15.4986 O   0  0  0  0  0  0  0  0  0  0  0  0
  2  1  1  1
  2  3  1  0
  4  2  1  0
  4  5  1  0
  5  7  1  0
  5  6  1  6
  7  8  2  0
  9 10  1  0
 11 10  1  1
 12 11  1  0
 12  7  1  0
 13 11  1  0
 14 13  2  0
 15 13  1  0
 16 17  1  6
 16 15  1  0
 18 17  1  0
 19 18  2  0
 20 19  1  0
 21 20  1  0
 21 22  2  0
 22 18  1  0
 23 25  1  0
 23 16  1  0
 24 23  2  0
M  END
$$$$
