LSH.pdb
     RDKit          3D

 25 25  0  0  1  0  0  0  0  0999 V2000
   17.6671  -16.3887  -13.6348 C   0  0  0  0  0  0  0  0  0  0  0  0
   19.1589  -16.2519  -13.9209 C   0  0  2  0  0  0  0  0  0  0  0  0
   19.8325  -16.1143  -12.5568 C   0  0  0  0  0  0  0  0  0  0  0  0
   19.3877  -14.9756  -14.6627 C   0  0  0  0  0  0  0  0  0  0  0  0
   18.7902  -14.9651  -16.0391 C   0  0  2  0  0  0  0  0  0  0  0  0
   19.5392  -15.7334  -16.9963 N   0  0  0  0  0  0  0  0  0  0  0  0
   18.8009  -13.5269  -16.4999 C   0  0  0  0  0  0  0  0  0  0  0  0
   19.8870  -12.9802  -16.8094 O   0  0  0  0  0  0  0  0  0  0  0  0
   15.2124  -11.1064  -16.3734 O   0  0  0  0  0  0  0  0  0  0  0  0
   16.1361  -11.0059  -17.4052 C   0  0  0  0  0  0  0  0  0  0  0  0
   17.5186  -11.4018  -16.9886 C   0  0  2  0  0  0  0  0  0  0  0  0
   17.6017  -12.7835  -16.5884 N   0  0  0  0  0  0  0  0  0  0  0  0
   18.1669  -10.4545  -16.0623 C   0  0  0  0  0  0  0  0  0  0  0  0
   18.3859  -10.7806  -14.8821 O   0  0  0  0  0  0  0  0  0  0  0  0
   18.5325   -9.1766  -16.5386 N   0  0  0  0  0  0  0  0  0  0  0  0
   19.0836   -8.1593  -15.6934 C   0  0  1  0  0  0  0  0  0  0  0  0
   20.4782   -7.7432  -16.1194 C   0  0  0  0  0  0  0  0  0  0  0  0
   21.0276   -6.6663  -15.2715 C   0  0  0  0  0  0  0  0  0  0  0  0
   21.7754   -6.8387  -14.1219 C   0  0  0  0  0  0  0  0  0  0  0  0
   22.1031   -5.6528  -13.6146 N   0  0  0  0  0  0  0  0  0  0  0  0
   21.5693   -4.7256  -14.4330 C   0  0  0  0  0  0  0  0  0  0  0  0
   20.9172   -5.3344  -15.4376 N   0  0  0  0  0  0  0  0  0  0  0  0
   18.2242   -6.9585  -15.6758 C   0  0  0  0  0  0  0  0  0  0  0  0
   17.5211   -6.5995  -16.6530 O   0  0  0  0  0  0  0  0  0  0  0  0
   18.1820   -6.1786  -14.5286 O   0  0  0  0  0  0  0  0  0  0  0  0
  2  1  1  1
  2  3  1  0
  4  2  1  0
  4  5  1  0
  5  7  1  0
  5  6  1  6
  7  8  2  0
  9 10  1  0
 11 10  1  1
 12 11  1  0
 12  7  1  0
 13 11  1  0
 14 13  2  0
 15 13  1  0
 16 17  1  6
 16 15  1  0
 18 17  1  0
 19 18  2  0
 20 19  1  0
 21 20  1  0
 21 22  2  0
 22 18  1  0
 23 25  1  0
 23 16  1  0
 24 23  2  0
M  END
$$$$
