LSH.pdb
     RDKit          3D

 25 25  0  0  1  0  0  0  0  0999 V2000
   25.1294   -9.4619  -13.8464 C   0  0  0  0  0  0  0  0  0  0  0  0
   24.9902   -9.0796  -15.3163 C   0  0  2  0  0  0  0  0  0  0  0  0
   23.4928   -8.8988  -15.5584 C   0  0  0  0  0  0  0  0  0  0  0  0
   25.4423  -10.2308  -16.1539 C   0  0  0  0  0  0  0  0  0  0  0  0
   26.8958  -10.5627  -15.9850 C   0  0  2  0  0  0  0  0  0  0  0  0
   27.7782   -9.5041  -16.3952 N   0  0  0  0  0  0  0  0  0  0  0  0
   27.1692  -11.7540  -16.8722 C   0  0  0  0  0  0  0  0  0  0  0  0
   27.5536  -11.5757  -18.0531 O   0  0  0  0  0  0  0  0  0  0  0  0
   27.1425  -16.6638  -17.1429 O   0  0  0  0  0  0  0  0  0  0  0  0
   26.8875  -15.5141  -16.4072 C   0  0  0  0  0  0  0  0  0  0  0  0
   27.0784  -14.2602  -17.2028 C   0  0  2  0  0  0  0  0  0  0  0  0
   26.9983  -13.0723  -16.3913 N   0  0  0  0  0  0  0  0  0  0  0  0
   26.2899  -14.2069  -18.4482 C   0  0  0  0  0  0  0  0  0  0  0  0
   25.3042  -13.4532  -18.5357 O   0  0  0  0  0  0  0  0  0  0  0  0
   26.6736  -15.0237  -19.5341 N   0  0  0  0  0  0  0  0  0  0  0  0
   26.0050  -14.9987  -20.8011 C   0  0  1  0  0  0  0  0  0  0  0  0
   26.1269  -13.6560  -21.4954 C   0  0  0  0  0  0  0  0  0  0  0  0
   25.0109  -12.7478  -21.1637 C   0  0  0  0  0  0  0  0  0  0  0  0
   23.9368  -13.0452  -20.3461 C   0  0  0  0  0  0  0  0  0  0  0  0
   23.1233  -11.9946  -20.2696 N   0  0  0  0  0  0  0  0  0  0  0  0
   23.6716  -11.0296  -21.0329 C   0  0  0  0  0  0  0  0  0  0  0  0
   24.8145  -11.4810  -21.5763 N   0  0  0  0  0  0  0  0  0  0  0  0
   26.5356  -16.0399  -21.7039 C   0  0  0  0  0  0  0  0  0  0  0  0
   27.3921  -16.8881  -21.3501 O   0  0  0  0  0  0  0  0  0  0  0  0
   26.0736  -16.0953  -23.0114 O   0  0  0  0  0  0  0  0  0  0  0  0
  2  1  1  1
  2  3  1  0
  4  2  1  0
  4  5  1  0
  5  7  1  0
  5  6  1  6
  7  8  2  0
  9 10  1  0
 11 10  1  1
 12 11  1  0
 12  7  1  0
 13 11  1  0
 14 13  2  0
 15 13  1  0
 16 17  1  6
 16 15  1  0
 18 17  1  0
 19 18  2  0
 20 19  1  0
 21 20  1  0
 21 22  2  0
 22 18  1  0
 23 25  1  0
 23 16  1  0
 24 23  2  0
M  END
$$$$
