LSH.pdb
     RDKit          3D

 25 25  0  0  1  0  0  0  0  0999 V2000
   38.6775  -11.5144   -5.9935 C   0  0  0  0  0  0  0  0  0  0  0  0
   38.4453  -10.0650   -6.4074 C   0  0  2  0  0  0  0  0  0  0  0  0
   36.9700   -9.9745   -6.7932 C   0  0  0  0  0  0  0  0  0  0  0  0
   39.2464   -9.7853   -7.6367 C   0  0  0  0  0  0  0  0  0  0  0  0
   40.7273   -9.9114   -7.4306 C   0  0  2  0  0  0  0  0  0  0  0  0
   41.2057   -9.2205   -6.2638 N   0  0  0  0  0  0  0  0  0  0  0  0
   41.3829   -9.2796   -8.6356 C   0  0  0  0  0  0  0  0  0  0  0  0
   41.5380   -8.0353   -8.6794 O   0  0  0  0  0  0  0  0  0  0  0  0
   41.9402  -11.7599  -11.9257 O   0  0  0  0  0  0  0  0  0  0  0  0
   42.7393  -10.6244  -11.9187 C   0  0  0  0  0  0  0  0  0  0  0  0
   42.2236   -9.5559  -11.0054 C   0  0  2  0  0  0  0  0  0  0  0  0
   41.8266  -10.0711   -9.7197 N   0  0  0  0  0  0  0  0  0  0  0  0
   41.2461   -8.6449  -11.6300 C   0  0  0  0  0  0  0  0  0  0  0  0
   40.1290   -8.4710  -11.1111 O   0  0  0  0  0  0  0  0  0  0  0  0
   41.6009   -7.9769  -12.8222 N   0  0  0  0  0  0  0  0  0  0  0  0
   40.8700   -6.8554  -13.3330 C   0  0  1  0  0  0  0  0  0  0  0  0
   40.8957   -5.6677  -12.3905 C   0  0  0  0  0  0  0  0  0  0  0  0
   39.7455   -5.6594  -11.4645 C   0  0  0  0  0  0  0  0  0  0  0  0
   38.7653   -6.6301  -11.3776 C   0  0  0  0  0  0  0  0  0  0  0  0
   37.8849   -6.2995  -10.4359 N   0  0  0  0  0  0  0  0  0  0  0  0
   38.2972   -5.1246   -9.9220 C   0  0  0  0  0  0  0  0  0  0  0  0
   39.4233   -4.7331  -10.5416 N   0  0  0  0  0  0  0  0  0  0  0  0
   41.4026   -6.4237  -14.6410 C   0  0  0  0  0  0  0  0  0  0  0  0
   42.5051   -5.8372  -14.7769 O   0  0  0  0  0  0  0  0  0  0  0  0
   40.6579   -6.6722  -15.7854 O   0  0  0  0  0  0  0  0  0  0  0  0
  2  1  1  6
  2  3  1  0
  4  2  1  0
  4  5  1  0
  5  7  1  0
  5  6  1  1
  7  8  2  0
  9 10  1  0
 11 10  1  6
 12 11  1  0
 12  7  1  0
 13 11  1  0
 14 13  2  0
 15 13  1  0
 16 17  1  1
 16 15  1  0
 18 17  1  0
 19 18  2  0
 20 19  1  0
 21 20  1  0
 21 22  2  0
 22 18  1  0
 23 25  1  0
 23 16  1  0
 24 23  2  0
M  END
$$$$
