LSH.pdb
     RDKit          3D

 25 25  0  0  1  0  0  0  0  0999 V2000
   33.8373  -33.1827   -6.5581 C   0  0  0  0  0  0  0  0  0  0  0  0
   32.4281  -33.7337   -6.3667 C   0  0  2  0  0  0  0  0  0  0  0  0
   31.5016  -32.5193   -6.3830 C   0  0  0  0  0  0  0  0  0  0  0  0
   32.3360  -34.3474   -5.0079 C   0  0  0  0  0  0  0  0  0  0  0  0
   33.2476  -35.5238   -4.8168 C   0  0  2  0  0  0  0  0  0  0  0  0
   33.1489  -36.5033   -5.8648 N   0  0  0  0  0  0  0  0  0  0  0  0
   32.8240  -36.1893   -3.5289 C   0  0  0  0  0  0  0  0  0  0  0  0
   31.7318  -36.8044   -3.4758 O   0  0  0  0  0  0  0  0  0  0  0  0
   34.7890  -35.3808    0.1880 O   0  0  0  0  0  0  0  0  0  0  0  0
   34.4842  -36.6920   -0.1525 C   0  0  0  0  0  0  0  0  0  0  0  0
   33.3543  -36.7913   -1.1299 C   0  0  2  0  0  0  0  0  0  0  0  0
   33.6419  -36.1301   -2.3773 N   0  0  0  0  0  0  0  0  0  0  0  0
   32.0307  -36.4772   -0.5597 C   0  0  0  0  0  0  0  0  0  0  0  0
   31.3825  -35.5012   -0.9775 O   0  0  0  0  0  0  0  0  0  0  0  0
   31.5158  -37.3018    0.4642 N   0  0  0  0  0  0  0  0  0  0  0  0
   30.2297  -37.0916    1.0599 C   0  0  1  0  0  0  0  0  0  0  0  0
   29.3505  -38.3254    0.9933 C   0  0  0  0  0  0  0  0  0  0  0  0
   28.0546  -38.1301    1.6735 C   0  0  0  0  0  0  0  0  0  0  0  0
   26.9432  -37.5047    1.1404 C   0  0  0  0  0  0  0  0  0  0  0  0
   25.9535  -37.5073    2.0302 N   0  0  0  0  0  0  0  0  0  0  0  0
   26.4265  -38.1301    3.1269 C   0  0  0  0  0  0  0  0  0  0  0  0
   27.6981  -38.5089    2.9157 N   0  0  0  0  0  0  0  0  0  0  0  0
   30.3577  -36.6866    2.4742 C   0  0  0  0  0  0  0  0  0  0  0  0
   31.4068  -36.8495    3.1458 O   0  0  0  0  0  0  0  0  0  0  0  0
   29.2722  -36.0953    3.1052 O   0  0  0  0  0  0  0  0  0  0  0  0
  2  1  1  1
  2  3  1  0
  4  2  1  0
  4  5  1  0
  5  7  1  0
  5  6  1  6
  7  8  2  0
  9 10  1  0
 11 10  1  1
 12 11  1  0
 12  7  1  0
 13 11  1  0
 14 13  2  0
 15 13  1  0
 16 17  1  1
 16 15  1  0
 18 17  1  0
 19 18  2  0
 20 19  1  0
 21 20  1  0
 21 22  2  0
 22 18  1  0
 23 25  1  0
 23 16  1  0
 24 23  2  0
M  END
$$$$
