LSH.pdb
     RDKit          3D

 25 25  0  0  1  0  0  0  0  0999 V2000
   17.5744  -10.8326  -20.4862 C   0  0  0  0  0  0  0  0  0  0  0  0
   17.5316  -11.3512  -19.0526 C   0  0  2  0  0  0  0  0  0  0  0  0
   16.1307  -11.0287  -18.5359 C   0  0  0  0  0  0  0  0  0  0  0  0
   18.5020  -10.5665  -18.2318 C   0  0  0  0  0  0  0  0  0  0  0  0
   19.9287  -10.7323  -18.6663 C   0  0  2  0  0  0  0  0  0  0  0  0
   20.4570  -12.0456  -18.4139 N   0  0  0  0  0  0  0  0  0  0  0  0
   20.7405   -9.7504  -17.8551 C   0  0  0  0  0  0  0  0  0  0  0  0
   20.8596   -9.9140  -16.6169 O   0  0  0  0  0  0  0  0  0  0  0  0
   22.3767   -6.0870  -19.5786 O   0  0  0  0  0  0  0  0  0  0  0  0
   23.0817   -6.9167  -18.7169 C   0  0  0  0  0  0  0  0  0  0  0  0
   22.1913   -7.6793  -17.7856 C   0  0  2  0  0  0  0  0  0  0  0  0
   21.3709   -8.6452  -18.4713 N   0  0  0  0  0  0  0  0  0  0  0  0
   21.4667   -6.8376  -16.8150 C   0  0  0  0  0  0  0  0  0  0  0  0
   20.2884   -6.5024  -17.0309 O   0  0  0  0  0  0  0  0  0  0  0  0
   22.1328   -6.4217  -15.6416 N   0  0  0  0  0  0  0  0  0  0  0  0
   21.5738   -5.4743  -14.7235 C   0  0  1  0  0  0  0  0  0  0  0  0
   21.6267   -5.9572  -13.2870 C   0  0  0  0  0  0  0  0  0  0  0  0
   20.6133   -6.9933  -13.0042 C   0  0  0  0  0  0  0  0  0  0  0  0
   19.6938   -7.4978  -13.9046 C   0  0  0  0  0  0  0  0  0  0  0  0
   18.9367   -8.4165  -13.3095 N   0  0  0  0  0  0  0  0  0  0  0  0
   19.3673   -8.5010  -12.0360 C   0  0  0  0  0  0  0  0  0  0  0  0
   20.3822   -7.6413  -11.8464 N   0  0  0  0  0  0  0  0  0  0  0  0
   22.2743   -4.1768  -14.8049 C   0  0  0  0  0  0  0  0  0  0  0  0
   23.2949   -3.9874  -15.5124 O   0  0  0  0  0  0  0  0  0  0  0  0
   21.7914   -3.1046  -14.0678 O   0  0  0  0  0  0  0  0  0  0  0  0
  2  1  1  6
  2  3  1  0
  4  2  1  0
  4  5  1  0
  5  7  1  0
  5  6  1  1
  7  8  2  0
  9 10  1  0
 11 10  1  6
 12 11  1  0
 12  7  1  0
 13 11  1  0
 14 13  2  0
 15 13  1  0
 16 17  1  1
 16 15  1  0
 18 17  1  0
 19 18  2  0
 20 19  1  0
 21 20  1  0
 21 22  2  0
 22 18  1  0
 23 25  1  0
 23 16  1  0
 24 23  2  0
M  END
$$$$
