LSH.pdb
     RDKit          3D

 25 25  0  0  1  0  0  0  0  0999 V2000
   18.1409  -14.9762  -18.9386 C   0  0  0  0  0  0  0  0  0  0  0  0
   17.9656  -14.6054  -17.4696 C   0  0  2  0  0  0  0  0  0  0  0  0
   16.4861  -14.2645  -17.3010 C   0  0  0  0  0  0  0  0  0  0  0  0
   18.7448  -13.3609  -17.1950 C   0  0  0  0  0  0  0  0  0  0  0  0
   20.2286  -13.5387  -17.3301 C   0  0  2  0  0  0  0  0  0  0  0  0
   20.7849  -14.4645  -16.3809 N   0  0  0  0  0  0  0  0  0  0  0  0
   20.8479  -12.1869  -17.0657 C   0  0  0  0  0  0  0  0  0  0  0  0
   20.6809  -11.6324  -15.9526 O   0  0  0  0  0  0  0  0  0  0  0  0
   24.0078   -8.8021  -18.6342 O   0  0  0  0  0  0  0  0  0  0  0  0
   23.3806  -10.0262  -18.8245 C   0  0  0  0  0  0  0  0  0  0  0  0
   22.2166  -10.2323  -17.9056 C   0  0  2  0  0  0  0  0  0  0  0  0
   21.6162  -11.5335  -18.0563 N   0  0  0  0  0  0  0  0  0  0  0  0
   21.2569   -9.1125  -17.8829 C   0  0  0  0  0  0  0  0  0  0  0  0
   20.3798   -9.0192  -18.7601 O   0  0  0  0  0  0  0  0  0  0  0  0
   21.3520   -8.1532  -16.8514 N   0  0  0  0  0  0  0  0  0  0  0  0
   20.4242   -7.0709  -16.7070 C   0  0  1  0  0  0  0  0  0  0  0  0
   19.0055   -7.5504  -16.4685 C   0  0  0  0  0  0  0  0  0  0  0  0
   18.0450   -6.4340  -16.3606 C   0  0  0  0  0  0  0  0  0  0  0  0
   17.2708   -6.1320  -15.2561 C   0  0  0  0  0  0  0  0  0  0  0  0
   16.5210   -5.0621  -15.5094 N   0  0  0  0  0  0  0  0  0  0  0  0
   16.8119   -4.6801  -16.7679 C   0  0  0  0  0  0  0  0  0  0  0  0
   17.7341   -5.5077  -17.2874 N   0  0  0  0  0  0  0  0  0  0  0  0
   20.8100   -6.1841  -15.5910 C   0  0  0  0  0  0  0  0  0  0  0  0
   21.7081   -6.4713  -14.7608 O   0  0  0  0  0  0  0  0  0  0  0  0
   20.1556   -4.9695  -15.4401 O   0  0  0  0  0  0  0  0  0  0  0  0
  2  1  1  6
  2  3  1  0
  4  2  1  0
  4  5  1  0
  5  7  1  0
  5  6  1  1
  7  8  2  0
  9 10  1  0
 11 10  1  6
 12 11  1  0
 12  7  1  0
 13 11  1  0
 14 13  2  0
 15 13  1  0
 16 17  1  1
 16 15  1  0
 18 17  1  0
 19 18  2  0
 20 19  1  0
 21 20  1  0
 21 22  2  0
 22 18  1  0
 23 25  1  0
 23 16  1  0
 24 23  2  0
M  END
$$$$
