LSH.pdb
     RDKit          3D

 25 25  0  0  1  0  0  0  0  0999 V2000
   17.4700  -10.1792  -20.1197 C   0  0  0  0  0  0  0  0  0  0  0  0
   16.4911  -10.1158  -18.9519 C   0  0  2  0  0  0  0  0  0  0  0  0
   15.4165   -9.1117  -19.3647 C   0  0  0  0  0  0  0  0  0  0  0  0
   17.1996   -9.5490  -17.7653 C   0  0  0  0  0  0  0  0  0  0  0  0
   18.3696  -10.3730  -17.3137 C   0  0  2  0  0  0  0  0  0  0  0  0
   17.9941  -11.6325  -16.7307 N   0  0  0  0  0  0  0  0  0  0  0  0
   19.0741   -9.5685  -16.2472 C   0  0  0  0  0  0  0  0  0  0  0  0
   18.4602   -9.2498  -15.2004 O   0  0  0  0  0  0  0  0  0  0  0  0
   23.3159   -9.4416  -16.0474 O   0  0  0  0  0  0  0  0  0  0  0  0
   22.4168   -9.2648  -15.0042 C   0  0  0  0  0  0  0  0  0  0  0  0
   21.2022   -8.4884  -15.4086 C   0  0  2  0  0  0  0  0  0  0  0  0
   20.4197   -9.1670  -16.4102 N   0  0  0  0  0  0  0  0  0  0  0  0
   21.4603   -7.0642  -15.6924 C   0  0  0  0  0  0  0  0  0  0  0  0
   21.8219   -6.7054  -16.8273 O   0  0  0  0  0  0  0  0  0  0  0  0
   21.2897   -6.1202  -14.6564 N   0  0  0  0  0  0  0  0  0  0  0  0
   21.5395   -4.7200  -14.8303 C   0  0  1  0  0  0  0  0  0  0  0  0
   20.2676   -3.8949  -14.7971 C   0  0  0  0  0  0  0  0  0  0  0  0
   19.3952   -4.1592  -15.9589 C   0  0  0  0  0  0  0  0  0  0  0  0
   19.7908   -4.1839  -17.2831 C   0  0  0  0  0  0  0  0  0  0  0  0
   18.7453   -4.4526  -18.0615 N   0  0  0  0  0  0  0  0  0  0  0  0
   17.6860   -4.5994  -17.2425 C   0  0  0  0  0  0  0  0  0  0  0  0
   18.0746   -4.4226  -15.9685 N   0  0  0  0  0  0  0  0  0  0  0  0
   22.4536   -4.2089  -13.7893 C   0  0  0  0  0  0  0  0  0  0  0  0
   22.8617   -4.9061  -12.8272 O   0  0  0  0  0  0  0  0  0  0  0  0
   22.8915   -2.8941  -13.8655 O   0  0  0  0  0  0  0  0  0  0  0  0
  2  1  1  6
  2  3  1  0
  4  2  1  0
  4  5  1  0
  5  7  1  0
  5  6  1  1
  7  8  2  0
  9 10  1  0
 11 10  1  6
 12 11  1  0
 12  7  1  0
 13 11  1  0
 14 13  2  0
 15 13  1  0
 16 17  1  1
 16 15  1  0
 18 17  1  0
 19 18  2  0
 20 19  1  0
 21 20  1  0
 21 22  2  0
 22 18  1  0
 23 25  1  0
 23 16  1  0
 24 23  2  0
M  END
$$$$
