LSH.pdb
     RDKit          3D

 25 25  0  0  1  0  0  0  0  0999 V2000
   19.3959  -15.0002  -17.1463 C   0  0  0  0  0  0  0  0  0  0  0  0
   18.5106  -14.3533  -18.2063 C   0  0  2  0  0  0  0  0  0  0  0  0
   19.2902  -14.4537  -19.5162 C   0  0  0  0  0  0  0  0  0  0  0  0
   18.3631  -12.9021  -17.8845 C   0  0  0  0  0  0  0  0  0  0  0  0
   17.6090  -12.6420  -16.6136 C   0  0  2  0  0  0  0  0  0  0  0  0
   16.2401  -13.0795  -16.6581 N   0  0  0  0  0  0  0  0  0  0  0  0
   17.6032  -11.1444  -16.4176 C   0  0  0  0  0  0  0  0  0  0  0  0
   17.0363  -10.4083  -17.2608 O   0  0  0  0  0  0  0  0  0  0  0  0
   19.5576   -9.4364  -13.0138 O   0  0  0  0  0  0  0  0  0  0  0  0
   18.4219   -8.8493  -13.5557 C   0  0  0  0  0  0  0  0  0  0  0  0
   18.2550   -9.1432  -15.0143 C   0  0  2  0  0  0  0  0  0  0  0  0
   18.2290  -10.5563  -15.2946 N   0  0  0  0  0  0  0  0  0  0  0  0
   19.1404   -8.3590  -15.8956 C   0  0  0  0  0  0  0  0  0  0  0  0
   19.8827   -8.9332  -16.7120 O   0  0  0  0  0  0  0  0  0  0  0  0
   19.1291   -6.9506  -15.7955 N   0  0  0  0  0  0  0  0  0  0  0  0
   19.9385   -6.1051  -16.6219 C   0  0  1  0  0  0  0  0  0  0  0  0
   19.7878   -6.4196  -18.0977 C   0  0  0  0  0  0  0  0  0  0  0  0
   20.6255   -5.5491  -18.9468 C   0  0  0  0  0  0  0  0  0  0  0  0
   21.9005   -5.1066  -18.6483 C   0  0  0  0  0  0  0  0  0  0  0  0
   22.3556   -4.3409  -19.6372 N   0  0  0  0  0  0  0  0  0  0  0  0
   21.3793   -4.2923  -20.5640 C   0  0  0  0  0  0  0  0  0  0  0  0
   20.3299   -5.0223  -20.1504 N   0  0  0  0  0  0  0  0  0  0  0  0
   19.6073   -4.6813  -16.4128 C   0  0  0  0  0  0  0  0  0  0  0  0
   20.1626   -3.7450  -17.0399 O   0  0  0  0  0  0  0  0  0  0  0  0
   18.6358   -4.3469  -15.4798 O   0  0  0  0  0  0  0  0  0  0  0  0
  2  1  1  1
  2  3  1  0
  4  2  1  0
  4  5  1  0
  5  7  1  0
  5  6  1  6
  7  8  2  0
  9 10  1  0
 11 10  1  1
 12 11  1  0
 12  7  1  0
 13 11  1  0
 14 13  2  0
 15 13  1  0
 16 17  1  6
 16 15  1  0
 18 17  1  0
 19 18  2  0
 20 19  1  0
 21 20  1  0
 21 22  2  0
 22 18  1  0
 23 25  1  0
 23 16  1  0
 24 23  2  0
M  END
$$$$
