GIS.pdb
     RDKit          3D

 19 18  0  0  1  0  0  0  0  0999 V2000
   27.3353  -23.5460  -15.6481 N   0  0  0  0  0  0  0  0  0  0  0  0
   27.0295  -22.1970  -15.2926 C   0  0  0  0  0  0  0  0  0  0  0  0
   25.8752  -22.1327  -14.3735 C   0  0  0  0  0  0  0  0  0  0  0  0
   25.0347  -23.0943  -14.4296 O   0  0  0  0  0  0  0  0  0  0  0  0
   26.3976  -20.4207   -9.3194 C   0  0  0  0  0  0  0  0  0  0  0  0
   25.9123  -21.1779  -10.5201 C   0  0  0  0  0  0  0  0  0  0  0  0
   24.7710  -20.5140  -11.2487 C   0  0  2  0  0  0  0  0  0  0  0  0
   23.4857  -20.5752  -10.4534 C   0  0  0  0  0  0  0  0  0  0  0  0
   24.5181  -21.1022  -12.5985 C   0  0  2  0  0  0  0  0  0  0  0  0
   25.6755  -21.0670  -13.4557 N   0  0  0  0  0  0  0  0  0  0  0  0
   23.3576  -20.4296  -13.2577 C   0  0  0  0  0  0  0  0  0  0  0  0
   23.3555  -19.2391  -13.6422 O   0  0  0  0  0  0  0  0  0  0  0  0
   20.4145  -22.7062  -14.9109 O   0  0  0  0  0  0  0  0  0  0  0  0
   20.5750  -21.4143  -15.3659 C   0  0  0  0  0  0  0  0  0  0  0  0
   21.0345  -20.5517  -14.1912 C   0  0  2  0  0  0  0  0  0  0  0  0
   22.1384  -21.1650  -13.4855 N   0  0  0  0  0  0  0  0  0  0  0  0
   19.9032  -20.2988  -13.2757 C   0  0  0  0  0  0  0  0  0  0  0  0
   19.9071  -20.7534  -12.1144 O   0  0  0  0  0  0  0  0  0  0  0  0
   18.8078  -19.5501  -13.6824 O   0  0  0  0  0  0  0  0  0  0  0  0
  2  3  1  0
  2  1  1  0
  3  4  2  0
  5  6  1  0
  6  7  1  0
  7  8  1  1
  9  7  1  0
 10  3  1  0
  9 10  1  6
 11 16  1  0
 11  9  1  0
 12 11  2  0
 13 14  1  0
 15 16  1  0
 15 14  1  6
 17 19  1  0
 17 15  1  0
 18 17  2  0
M  END
$$$$
