GIS.pdb
     RDKit          3D

 19 18  0  0  1  0  0  0  0  0999 V2000
   12.2378  -11.8961  -13.6120 N   0  0  0  0  0  0  0  0  0  0  0  0
   13.0709  -11.6910  -14.7537 C   0  0  0  0  0  0  0  0  0  0  0  0
   14.5013  -11.7233  -14.3870 C   0  0  0  0  0  0  0  0  0  0  0  0
   14.7832  -11.6406  -13.1428 O   0  0  0  0  0  0  0  0  0  0  0  0
   17.6079  -15.2991  -16.2024 C   0  0  0  0  0  0  0  0  0  0  0  0
   17.2638  -14.2695  -15.1670 C   0  0  0  0  0  0  0  0  0  0  0  0
   17.7546  -12.8808  -15.4903 C   0  0  2  0  0  0  0  0  0  0  0  0
   19.1836  -12.6713  -15.0403 C   0  0  0  0  0  0  0  0  0  0  0  0
   16.9088  -11.8068  -14.8878 C   0  0  2  0  0  0  0  0  0  0  0  0
   15.5432  -11.8399  -15.3454 N   0  0  0  0  0  0  0  0  0  0  0  0
   17.5111  -10.4611  -15.1337 C   0  0  0  0  0  0  0  0  0  0  0  0
   18.6420  -10.1085  -14.7314 O   0  0  0  0  0  0  0  0  0  0  0  0
   15.2259   -7.3913  -16.8667 O   0  0  0  0  0  0  0  0  0  0  0  0
   16.5735   -7.3825  -17.1591 C   0  0  0  0  0  0  0  0  0  0  0  0
   17.3042   -8.1369  -16.0492 C   0  0  2  0  0  0  0  0  0  0  0  0
   16.7739   -9.4721  -15.8803 N   0  0  0  0  0  0  0  0  0  0  0  0
   17.2256   -7.3780  -14.7844 C   0  0  0  0  0  0  0  0  0  0  0  0
   16.6627   -7.8623  -13.7826 O   0  0  0  0  0  0  0  0  0  0  0  0
   17.7749   -6.1081  -14.6771 O   0  0  0  0  0  0  0  0  0  0  0  0
  2  3  1  0
  2  1  1  0
  3  4  2  0
  5  6  1  0
  6  7  1  0
  7  8  1  1
  9  7  1  0
 10  3  1  0
  9 10  1  6
 11 16  1  0
 11  9  1  0
 12 11  2  0
 13 14  1  0
 15 16  1  0
 15 14  1  6
 17 19  1  0
 17 15  1  0
 18 17  2  0
M  END
$$$$
