GIS.pdb
     RDKit          3D

 19 18  0  0  1  0  0  0  0  0999 V2000
   12.2553  -13.7420  -12.3354 N   0  0  0  0  0  0  0  0  0  0  0  0
   12.7313  -13.2549  -13.5907 C   0  0  0  0  0  0  0  0  0  0  0  0
   14.0896  -12.6882  -13.4662 C   0  0  0  0  0  0  0  0  0  0  0  0
   14.5621  -12.5683  -12.2845 O   0  0  0  0  0  0  0  0  0  0  0  0
   16.4829  -14.5498  -15.8365 C   0  0  0  0  0  0  0  0  0  0  0  0
   17.4605  -13.6814  -15.1012 C   0  0  0  0  0  0  0  0  0  0  0  0
   17.2160  -12.2022  -15.2637 C   0  0  2  0  0  0  0  0  0  0  0  0
   18.4758  -11.3965  -15.0354 C   0  0  0  0  0  0  0  0  0  0  0  0
   16.1526  -11.6819  -14.3525 C   0  0  2  0  0  0  0  0  0  0  0  0
   14.8647  -12.2839  -14.5859 N   0  0  0  0  0  0  0  0  0  0  0  0
   16.0595  -10.1931  -14.4468 C   0  0  0  0  0  0  0  0  0  0  0  0
   15.6039   -9.5744  -15.4341 O   0  0  0  0  0  0  0  0  0  0  0  0
   17.7392   -7.9394  -11.4949 O   0  0  0  0  0  0  0  0  0  0  0  0
   16.6251   -7.3147  -12.0148 C   0  0  0  0  0  0  0  0  0  0  0  0
   16.3209   -7.9427  -13.3742 C   0  0  2  0  0  0  0  0  0  0  0  0
   16.5139   -9.3762  -13.3490 N   0  0  0  0  0  0  0  0  0  0  0  0
   17.1588   -7.3195  -14.4189 C   0  0  0  0  0  0  0  0  0  0  0  0
   16.9865   -6.1298  -14.7507 O   0  0  0  0  0  0  0  0  0  0  0  0
   18.1582   -8.0396  -15.0580 O   0  0  0  0  0  0  0  0  0  0  0  0
  2  3  1  0
  2  1  1  0
  3  4  2  0
  5  6  1  0
  6  7  1  0
  7  8  1  1
  9  7  1  0
 10  3  1  0
  9 10  1  6
 11 16  1  0
 11  9  1  0
 12 11  2  0
 13 14  1  0
 15 16  1  0
 15 14  1  1
 17 19  1  0
 17 15  1  0
 18 17  2  0
M  END
$$$$
