GIS.pdb
     RDKit          3D

 19 18  0  0  1  0  0  0  0  0999 V2000
   21.3306  -14.7562  -17.8597 N   0  0  0  0  0  0  0  0  0  0  0  0
   21.0024  -13.4138  -18.2201 C   0  0  0  0  0  0  0  0  0  0  0  0
   21.1966  -12.4904  -17.0839 C   0  0  0  0  0  0  0  0  0  0  0  0
   20.5004  -12.7079  -16.0340 O   0  0  0  0  0  0  0  0  0  0  0  0
   25.8071  -11.1271  -15.0674 C   0  0  0  0  0  0  0  0  0  0  0  0
   24.3332  -11.3796  -15.1868 C   0  0  0  0  0  0  0  0  0  0  0  0
   23.5261  -10.1607  -15.5570 C   0  0  2  0  0  0  0  0  0  0  0  0
   23.4374   -9.1768  -14.4114 C   0  0  0  0  0  0  0  0  0  0  0  0
   22.1390  -10.4912  -16.0025 C   0  0  2  0  0  0  0  0  0  0  0  0
   22.1061  -11.3998  -17.1200 N   0  0  0  0  0  0  0  0  0  0  0  0
   21.3756   -9.2455  -16.3178 C   0  0  0  0  0  0  0  0  0  0  0  0
   21.5649   -8.5379  -17.3320 O   0  0  0  0  0  0  0  0  0  0  0  0
   18.1837   -8.0941  -13.8834 O   0  0  0  0  0  0  0  0  0  0  0  0
   18.1150   -7.7714  -15.2223 C   0  0  0  0  0  0  0  0  0  0  0  0
   19.5423   -7.6331  -15.7503 C   0  0  2  0  0  0  0  0  0  0  0  0
   20.3424   -8.7921  -15.4201 N   0  0  0  0  0  0  0  0  0  0  0  0
   20.1610   -6.4009  -15.2204 C   0  0  0  0  0  0  0  0  0  0  0  0
   21.1020   -6.4586  -14.4040 O   0  0  0  0  0  0  0  0  0  0  0  0
   19.7128   -5.1485  -15.6159 O   0  0  0  0  0  0  0  0  0  0  0  0
  2  3  1  0
  2  1  1  0
  3  4  2  0
  5  6  1  0
  6  7  1  0
  7  8  1  1
  9  7  1  0
 10  3  1  0
  9 10  1  6
 11 16  1  0
 11  9  1  0
 12 11  2  0
 13 14  1  0
 15 16  1  0
 15 14  1  1
 17 19  1  0
 17 15  1  0
 18 17  2  0
M  END
$$$$
