GIS.pdb
     RDKit          3D

 19 18  0  0  1  0  0  0  0  0999 V2000
   17.9752  -24.1570   -6.9478 N   0  0  0  0  0  0  0  0  0  0  0  0
   19.1093  -24.8371   -7.4872 C   0  0  0  0  0  0  0  0  0  0  0  0
   18.7070  -25.8229   -8.5108 C   0  0  0  0  0  0  0  0  0  0  0  0
   17.4544  -26.0380   -8.6485 O   0  0  0  0  0  0  0  0  0  0  0  0
   21.4378  -26.5090  -13.2065 C   0  0  0  0  0  0  0  0  0  0  0  0
   20.4003  -26.3745  -12.1314 C   0  0  0  0  0  0  0  0  0  0  0  0
   20.0512  -27.6710  -11.4448 C   0  0  2  0  0  0  0  0  0  0  0  0
   19.4035  -28.6532  -12.3956 C   0  0  0  0  0  0  0  0  0  0  0  0
   19.1464  -27.4855  -10.2706 C   0  0  2  0  0  0  0  0  0  0  0  0
   19.6411  -26.5194   -9.3234 N   0  0  0  0  0  0  0  0  0  0  0  0
   18.8831  -28.7930   -9.5960 C   0  0  0  0  0  0  0  0  0  0  0  0
   19.7544  -29.4756   -9.0128 O   0  0  0  0  0  0  0  0  0  0  0  0
   15.5239  -30.2723   -7.5082 O   0  0  0  0  0  0  0  0  0  0  0  0
   15.8073  -30.8455   -8.7301 C   0  0  0  0  0  0  0  0  0  0  0  0
   17.2949  -30.6430   -9.0148 C   0  0  2  0  0  0  0  0  0  0  0  0
   17.5498  -29.3417   -9.5930 N   0  0  0  0  0  0  0  0  0  0  0  0
   17.7916  -31.7161   -9.9001 C   0  0  0  0  0  0  0  0  0  0  0  0
   17.7398  -31.5964  -11.1404 O   0  0  0  0  0  0  0  0  0  0  0  0
   18.3283  -32.8839   -9.3766 O   0  0  0  0  0  0  0  0  0  0  0  0
  2  3  1  0
  2  1  1  0
  3  4  2  0
  5  6  1  0
  6  7  1  0
  7  8  1  6
  9  7  1  0
 10  3  1  0
  9 10  1  1
 11 16  1  0
 11  9  1  0
 12 11  2  0
 13 14  1  0
 15 16  1  0
 15 14  1  6
 17 19  1  0
 17 15  1  0
 18 17  2  0
M  END
$$$$
