GIS.pdb
     RDKit          3D

 19 18  0  0  1  0  0  0  0  0999 V2000
   17.8488  -11.0652  -17.4325 N   0  0  0  0  0  0  0  0  0  0  0  0
   17.3467  -10.1840  -16.4270 C   0  0  0  0  0  0  0  0  0  0  0  0
   18.4463   -9.5294  -15.6895 C   0  0  0  0  0  0  0  0  0  0  0  0
   18.1272   -8.8509  -14.6541 O   0  0  0  0  0  0  0  0  0  0  0  0
   23.2317  -11.9300  -14.7827 C   0  0  0  0  0  0  0  0  0  0  0  0
   21.9624  -11.1317  -14.7376 C   0  0  0  0  0  0  0  0  0  0  0  0
   22.1047   -9.7171  -15.2403 C   0  0  2  0  0  0  0  0  0  0  0  0
   23.0858   -8.9214  -14.4080 C   0  0  0  0  0  0  0  0  0  0  0  0
   20.8079   -8.9762  -15.2761 C   0  0  2  0  0  0  0  0  0  0  0  0
   19.8077   -9.6272  -16.0831 N   0  0  0  0  0  0  0  0  0  0  0  0
   21.0170   -7.5693  -15.7353 C   0  0  0  0  0  0  0  0  0  0  0  0
   21.4024   -7.2497  -16.8817 O   0  0  0  0  0  0  0  0  0  0  0  0
   18.9742   -4.5440  -14.0711 O   0  0  0  0  0  0  0  0  0  0  0  0
   19.5744   -4.3807  -15.3018 C   0  0  0  0  0  0  0  0  0  0  0  0
   20.9183   -5.1075  -15.2739 C   0  0  2  0  0  0  0  0  0  0  0  0
   20.7697   -6.4758  -14.8286 N   0  0  0  0  0  0  0  0  0  0  0  0
   21.8712   -4.3770  -14.4137 C   0  0  0  0  0  0  0  0  0  0  0  0
   22.3247   -4.8988  -13.3757 O   0  0  0  0  0  0  0  0  0  0  0  0
   22.2869   -3.0929  -14.7365 O   0  0  0  0  0  0  0  0  0  0  0  0
  2  3  1  0
  2  1  1  0
  3  4  2  0
  5  6  1  0
  6  7  1  0
  7  8  1  1
  9  7  1  0
 10  3  1  0
  9 10  1  6
 11 16  1  0
 11  9  1  0
 12 11  2  0
 13 14  1  0
 15 16  1  0
 15 14  1  1
 17 19  1  0
 17 15  1  0
 18 17  2  0
M  END
$$$$
