GIS.pdb
     RDKit          3D

 19 18  0  0  1  0  0  0  0  0999 V2000
   18.6487  -12.0918  -18.7673 N   0  0  0  0  0  0  0  0  0  0  0  0
   19.1566  -10.7583  -18.8242 C   0  0  0  0  0  0  0  0  0  0  0  0
   19.7789  -10.3660  -17.5434 C   0  0  0  0  0  0  0  0  0  0  0  0
   19.0121  -10.2969  -16.5230 O   0  0  0  0  0  0  0  0  0  0  0  0
   21.9895  -11.9809  -14.1726 C   0  0  0  0  0  0  0  0  0  0  0  0
   22.7354  -11.6511  -15.4317 C   0  0  0  0  0  0  0  0  0  0  0  0
   22.8943  -10.1732  -15.6859 C   0  0  2  0  0  0  0  0  0  0  0  0
   23.3659   -9.4385  -14.4505 C   0  0  0  0  0  0  0  0  0  0  0  0
   21.6381   -9.5246  -16.1687 C   0  0  2  0  0  0  0  0  0  0  0  0
   21.1626  -10.0716  -17.4137 N   0  0  0  0  0  0  0  0  0  0  0  0
   21.8181   -8.0452  -16.2815 C   0  0  0  0  0  0  0  0  0  0  0  0
   22.4938   -7.4810  -17.1704 O   0  0  0  0  0  0  0  0  0  0  0  0
   20.3440   -3.6447  -15.6052 O   0  0  0  0  0  0  0  0  0  0  0  0
   20.0694   -4.9949  -15.5477 C   0  0  0  0  0  0  0  0  0  0  0  0
   21.3933   -5.7414  -15.3897 C   0  0  2  0  0  0  0  0  0  0  0  0
   21.1884   -7.1719  -15.3224 N   0  0  0  0  0  0  0  0  0  0  0  0
   22.1076   -5.2575  -14.1908 C   0  0  0  0  0  0  0  0  0  0  0  0
   21.9386   -5.8037  -13.0824 O   0  0  0  0  0  0  0  0  0  0  0  0
   22.9842   -4.1842  -14.2652 O   0  0  0  0  0  0  0  0  0  0  0  0
  2  3  1  0
  2  1  1  0
  3  4  2  0
  5  6  1  0
  6  7  1  0
  7  8  1  1
  9  7  1  0
 10  3  1  0
  9 10  1  6
 11 16  1  0
 11  9  1  0
 12 11  2  0
 13 14  1  0
 15 16  1  0
 15 14  1  1
 17 19  1  0
 17 15  1  0
 18 17  2  0
M  END
$$$$
