GIS.pdb
     RDKit          3D

 19 18  0  0  1  0  0  0  0  0999 V2000
   27.8708   -9.0444  -21.6392 N   0  0  0  0  0  0  0  0  0  0  0  0
   27.6882   -8.1557  -20.5362 C   0  0  0  0  0  0  0  0  0  0  0  0
   26.6785   -8.6739  -19.5911 C   0  0  0  0  0  0  0  0  0  0  0  0
   25.6155   -9.1746  -20.0947 O   0  0  0  0  0  0  0  0  0  0  0  0
   27.9437  -11.7895  -15.6509 C   0  0  0  0  0  0  0  0  0  0  0  0
   27.0410  -11.1943  -16.6908 C   0  0  0  0  0  0  0  0  0  0  0  0
   26.2716   -9.9852  -16.2214 C   0  0  2  0  0  0  0  0  0  0  0  0
   25.0856  -10.3717  -15.3657 C   0  0  0  0  0  0  0  0  0  0  0  0
   25.7831   -9.1306  -17.3452 C   0  0  2  0  0  0  0  0  0  0  0  0
   26.8465   -8.6347  -18.1811 N   0  0  0  0  0  0  0  0  0  0  0  0
   24.9543   -8.0002  -16.8263 C   0  0  0  0  0  0  0  0  0  0  0  0
   25.4184   -6.9826  -16.2657 O   0  0  0  0  0  0  0  0  0  0  0  0
   21.0978   -5.3507  -17.2995 O   0  0  0  0  0  0  0  0  0  0  0  0
   21.8392   -6.4276  -17.7382 C   0  0  0  0  0  0  0  0  0  0  0  0
   22.7135   -6.9046  -16.5793 C   0  0  2  0  0  0  0  0  0  0  0  0
   23.5194   -8.0441  -16.9597 N   0  0  0  0  0  0  0  0  0  0  0  0
   21.8718   -7.2254  -15.4086 C   0  0  0  0  0  0  0  0  0  0  0  0
   21.4509   -8.3846  -15.2228 O   0  0  0  0  0  0  0  0  0  0  0  0
   21.5273   -6.2477  -14.4860 O   0  0  0  0  0  0  0  0  0  0  0  0
  2  3  1  0
  2  1  1  0
  3  4  2  0
  5  6  1  0
  6  7  1  0
  7  8  1  6
  9  7  1  0
 10  3  1  0
  9 10  1  1
 11 16  1  0
 11  9  1  0
 12 11  2  0
 13 14  1  0
 15 16  1  0
 15 14  1  6
 17 19  1  0
 17 15  1  0
 18 17  2  0
M  END
$$$$
