GIS.pdb
     RDKit          3D

 19 18  0  0  1  0  0  0  0  0999 V2000
   22.1894  -12.5560  -19.9901 N   0  0  0  0  0  0  0  0  0  0  0  0
   22.5316  -11.1722  -19.9028 C   0  0  0  0  0  0  0  0  0  0  0  0
   22.6559  -10.7379  -18.4966 C   0  0  0  0  0  0  0  0  0  0  0  0
   21.8621  -11.2755  -17.6510 O   0  0  0  0  0  0  0  0  0  0  0  0
   26.9776  -11.1083  -15.7797 C   0  0  0  0  0  0  0  0  0  0  0  0
   25.5668  -10.9541  -16.2659 C   0  0  0  0  0  0  0  0  0  0  0  0
   24.9896   -9.5764  -16.0586 C   0  0  2  0  0  0  0  0  0  0  0  0
   24.8940   -9.2226  -14.5909 C   0  0  0  0  0  0  0  0  0  0  0  0
   23.6376   -9.4106  -16.6721 C   0  0  2  0  0  0  0  0  0  0  0  0
   23.6024   -9.7697  -18.0668 N   0  0  0  0  0  0  0  0  0  0  0  0
   23.1378   -8.0155  -16.4777 C   0  0  0  0  0  0  0  0  0  0  0  0
   23.5530   -7.0209  -17.1129 O   0  0  0  0  0  0  0  0  0  0  0  0
   19.7414   -5.0712  -14.8425 O   0  0  0  0  0  0  0  0  0  0  0  0
   20.1367   -6.3866  -14.9657 C   0  0  0  0  0  0  0  0  0  0  0  0
   21.6302   -6.4045  -15.2882 C   0  0  2  0  0  0  0  0  0  0  0  0
   22.1082   -7.7528  -15.5030 N   0  0  0  0  0  0  0  0  0  0  0  0
   22.3898   -5.7454  -14.2063 C   0  0  0  0  0  0  0  0  0  0  0  0
   22.7107   -6.3726  -13.1772 O   0  0  0  0  0  0  0  0  0  0  0  0
   22.7661   -4.4134  -14.3055 O   0  0  0  0  0  0  0  0  0  0  0  0
  2  3  1  0
  2  1  1  0
  3  4  2  0
  5  6  1  0
  6  7  1  0
  7  8  1  1
  9  7  1  0
 10  3  1  0
  9 10  1  6
 11 16  1  0
 11  9  1  0
 12 11  2  0
 13 14  1  0
 15 16  1  0
 15 14  1  1
 17 19  1  0
 17 15  1  0
 18 17  2  0
M  END
$$$$
