VAS.pdb
     RDKit          3D

 19 18  0  0  1  0  0  0  0  0999 V2000
   19.2785  -11.5180  -18.8663 C   0  0  0  0  0  0  0  0  0  0  0  0
   20.2144  -12.0080  -17.7825 C   0  0  2  0  0  0  0  0  0  0  0  0
   20.1200  -13.5125  -17.6488 C   0  0  0  0  0  0  0  0  0  0  0  0
   19.9311  -11.3176  -16.4599 C   0  0  2  0  0  0  0  0  0  0  0  0
   18.5958  -11.6010  -15.9867 N   0  0  0  0  0  0  0  0  0  0  0  0
   20.1125   -9.8654  -16.6724 C   0  0  0  0  0  0  0  0  0  0  0  0
   21.2873   -9.4464  -16.8928 O   0  0  0  0  0  0  0  0  0  0  0  0
   18.0345   -6.7728  -16.9662 C   0  0  0  0  0  0  0  0  0  0  0  0
   19.3171   -7.5383  -16.6879 C   0  0  2  0  0  0  0  0  0  0  0  0
   19.0358   -8.9368  -16.6390 N   0  0  0  0  0  0  0  0  0  0  0  0
   19.8563   -7.0118  -15.4062 C   0  0  0  0  0  0  0  0  0  0  0  0
   20.0715   -7.6979  -14.3950 O   0  0  0  0  0  0  0  0  0  0  0  0
   23.0805   -4.8185  -13.4358 O   0  0  0  0  0  0  0  0  0  0  0  0
   22.3161   -5.4719  -14.3997 C   0  0  0  0  0  0  0  0  0  0  0  0
   20.8639   -5.0026  -14.2655 C   0  0  2  0  0  0  0  0  0  0  0  0
   20.1404   -5.6193  -15.3524 N   0  0  0  0  0  0  0  0  0  0  0  0
   20.8516   -3.5392  -14.4549 C   0  0  0  0  0  0  0  0  0  0  0  0
   20.8447   -3.0135  -15.5955 O   0  0  0  0  0  0  0  0  0  0  0  0
   20.8477   -2.7168  -13.3451 O   0  0  0  0  0  0  0  0  0  0  0  0
  2  4  1  0
  2  1  1  6
  3  2  1  0
  4  5  1  6
  6  4  1  0
  7  6  2  0
  9  8  1  1
  9 11  1  0
  9 10  1  0
 10  6  1  0
 11 12  2  0
 14 13  1  0
 15 14  1  6
 16 11  1  0
 16 15  1  0
 17 19  1  0
 17 15  1  0
 18 17  2  0
M  END
$$$$
