VAS.pdb
     RDKit          3D

 19 18  0  0  1  0  0  0  0  0999 V2000
   18.0679  -13.0126  -16.6927 C   0  0  0  0  0  0  0  0  0  0  0  0
   18.9607  -11.8504  -16.3147 C   0  0  2  0  0  0  0  0  0  0  0  0
   18.2066  -10.5450  -16.4477 C   0  0  0  0  0  0  0  0  0  0  0  0
   20.2307  -11.8412  -17.1472 C   0  0  2  0  0  0  0  0  0  0  0  0
   21.0140  -13.0368  -16.9369 N   0  0  0  0  0  0  0  0  0  0  0  0
   21.0010  -10.6383  -16.7639 C   0  0  0  0  0  0  0  0  0  0  0  0
   21.5147  -10.6141  -15.6064 O   0  0  0  0  0  0  0  0  0  0  0  0
   22.3847   -7.5689  -18.3517 C   0  0  0  0  0  0  0  0  0  0  0  0
   21.9054   -8.3867  -17.1643 C   0  0  2  0  0  0  0  0  0  0  0  0
   21.1837   -9.5262  -17.6313 N   0  0  0  0  0  0  0  0  0  0  0  0
   21.0749   -7.4781  -16.3304 C   0  0  0  0  0  0  0  0  0  0  0  0
   19.8383   -7.3966  -16.3907 O   0  0  0  0  0  0  0  0  0  0  0  0
   22.4059   -6.3101  -12.6534 O   0  0  0  0  0  0  0  0  0  0  0  0
   22.1387   -5.2488  -13.5151 C   0  0  0  0  0  0  0  0  0  0  0  0
   21.0935   -5.7067  -14.5374 C   0  0  2  0  0  0  0  0  0  0  0  0
   21.7633   -6.6496  -15.4018 N   0  0  0  0  0  0  0  0  0  0  0  0
   20.7037   -4.5258  -15.3319 C   0  0  0  0  0  0  0  0  0  0  0  0
   21.2154   -4.2754  -16.4512 O   0  0  0  0  0  0  0  0  0  0  0  0
   19.7455   -3.6652  -14.8329 O   0  0  0  0  0  0  0  0  0  0  0  0
  2  4  1  0
  2  1  1  6
  3  2  1  0
  4  5  1  1
  6  4  1  0
  7  6  2  0
  9  8  1  6
  9 11  1  0
  9 10  1  0
 10  6  1  0
 11 12  2  0
 14 13  1  0
 15 14  1  1
 16 11  1  0
 16 15  1  0
 17 19  1  0
 17 15  1  0
 18 17  2  0
M  END
$$$$
