VAS.pdb
     RDKit          3D

 19 18  0  0  1  0  0  0  0  0999 V2000
   18.1087  -11.3631  -18.2672 C   0  0  0  0  0  0  0  0  0  0  0  0
   18.7066  -11.9887  -17.0255 C   0  0  2  0  0  0  0  0  0  0  0  0
   18.3277  -13.4515  -16.9409 C   0  0  0  0  0  0  0  0  0  0  0  0
   18.2854  -11.2365  -15.7754 C   0  0  2  0  0  0  0  0  0  0  0  0
   16.8535  -11.2751  -15.5877 N   0  0  0  0  0  0  0  0  0  0  0  0
   18.7556   -9.8418  -15.9201 C   0  0  0  0  0  0  0  0  0  0  0  0
   20.0059   -9.6460  -15.9721 O   0  0  0  0  0  0  0  0  0  0  0  0
   17.2796   -6.4257  -16.3617 C   0  0  0  0  0  0  0  0  0  0  0  0
   18.4115   -7.4180  -16.1543 C   0  0  2  0  0  0  0  0  0  0  0  0
   17.8717   -8.7306  -16.0017 N   0  0  0  0  0  0  0  0  0  0  0  0
   19.1642   -6.9595  -14.9568 C   0  0  0  0  0  0  0  0  0  0  0  0
   18.8781   -7.2550  -13.7862 O   0  0  0  0  0  0  0  0  0  0  0  0
   22.1993   -7.7919  -13.6804 O   0  0  0  0  0  0  0  0  0  0  0  0
   22.4447   -6.5558  -14.2739 C   0  0  0  0  0  0  0  0  0  0  0  0
   21.1848   -5.6949  -14.1376 C   0  0  2  0  0  0  0  0  0  0  0  0
   20.2905   -6.1225  -15.1876 N   0  0  0  0  0  0  0  0  0  0  0  0
   21.5762   -4.2939  -14.3863 C   0  0  0  0  0  0  0  0  0  0  0  0
   21.2880   -3.6997  -15.4546 O   0  0  0  0  0  0  0  0  0  0  0  0
   22.2824   -3.6100  -13.4161 O   0  0  0  0  0  0  0  0  0  0  0  0
  2  4  1  0
  2  1  1  6
  3  2  1  0
  4  5  1  6
  6  4  1  0
  7  6  2  0
  9  8  1  1
  9 11  1  0
  9 10  1  0
 10  6  1  0
 11 12  2  0
 14 13  1  0
 15 14  1  6
 16 11  1  0
 16 15  1  0
 17 19  1  0
 17 15  1  0
 18 17  2  0
M  END
$$$$
