VAS.pdb
     RDKit          3D

 19 18  0  0  1  0  0  0  0  0999 V2000
   16.6800  -11.0478  -17.9121 C   0  0  0  0  0  0  0  0  0  0  0  0
   17.7623  -11.9813  -17.4142 C   0  0  2  0  0  0  0  0  0  0  0  0
   17.2280  -13.3932  -17.3061 C   0  0  0  0  0  0  0  0  0  0  0  0
   18.3316  -11.5040  -16.0898 C   0  0  2  0  0  0  0  0  0  0  0  0
   17.3406  -11.5428  -15.0393 N   0  0  0  0  0  0  0  0  0  0  0  0
   18.8236  -10.1241  -16.2926 C   0  0  0  0  0  0  0  0  0  0  0  0
   19.7845   -9.9561  -17.1006 O   0  0  0  0  0  0  0  0  0  0  0  0
   17.7078   -6.6588  -15.5289 C   0  0  0  0  0  0  0  0  0  0  0  0
   18.7409   -7.6903  -15.9500 C   0  0  2  0  0  0  0  0  0  0  0  0
   18.2680   -8.9974  -15.6259 N   0  0  0  0  0  0  0  0  0  0  0  0
   20.0023   -7.3403  -15.2448 C   0  0  0  0  0  0  0  0  0  0  0  0
   20.3685   -7.8316  -14.1658 O   0  0  0  0  0  0  0  0  0  0  0  0
   23.9137   -4.4993  -15.7896 O   0  0  0  0  0  0  0  0  0  0  0  0
   22.7433   -5.0244  -16.3325 C   0  0  0  0  0  0  0  0  0  0  0  0
   22.0471   -5.8667  -15.2587 C   0  0  2  0  0  0  0  0  0  0  0  0
   20.8377   -6.3710  -15.8653 N   0  0  0  0  0  0  0  0  0  0  0  0
   21.6831   -4.9610  -14.1520 C   0  0  0  0  0  0  0  0  0  0  0  0
   20.6173   -4.2966  -14.1559 O   0  0  0  0  0  0  0  0  0  0  0  0
   22.5388   -4.8365  -13.0749 O   0  0  0  0  0  0  0  0  0  0  0  0
  2  4  1  0
  2  1  1  1
  3  2  1  0
  4  5  1  1
  6  4  1  0
  7  6  2  0
  9  8  1  1
  9 11  1  0
  9 10  1  0
 10  6  1  0
 11 12  2  0
 14 13  1  0
 15 14  1  6
 16 11  1  0
 16 15  1  0
 17 19  1  0
 17 15  1  0
 18 17  2  0
M  END
$$$$
