VAS.pdb
     RDKit          3D

 19 18  0  0  1  0  0  0  0  0999 V2000
   16.8713  -16.9212  -14.2976 C   0  0  0  0  0  0  0  0  0  0  0  0
   16.1433  -16.4135  -13.0717 C   0  0  2  0  0  0  0  0  0  0  0  0
   15.4061  -17.5475  -12.3925 C   0  0  0  0  0  0  0  0  0  0  0  0
   15.2010  -15.2763  -13.4252 C   0  0  2  0  0  0  0  0  0  0  0  0
   14.1985  -15.6923  -14.3786 N   0  0  0  0  0  0  0  0  0  0  0  0
   16.0229  -14.1778  -13.9776 C   0  0  0  0  0  0  0  0  0  0  0  0
   16.8761  -13.6402  -13.2113 O   0  0  0  0  0  0  0  0  0  0  0  0
   16.6461  -12.5567  -17.2883 C   0  0  0  0  0  0  0  0  0  0  0  0
   16.7533  -12.6687  -15.7768 C   0  0  2  0  0  0  0  0  0  0  0  0
   15.8935  -13.7100  -15.3145 N   0  0  0  0  0  0  0  0  0  0  0  0
   16.3945  -11.3352  -15.2256 C   0  0  0  0  0  0  0  0  0  0  0  0
   15.2971  -11.0508  -14.7214 O   0  0  0  0  0  0  0  0  0  0  0  0
   17.4559   -7.5622  -12.9782 O   0  0  0  0  0  0  0  0  0  0  0  0
   17.6605   -8.8643  -13.4287 C   0  0  0  0  0  0  0  0  0  0  0  0
   17.1623   -8.9602  -14.8743 C   0  0  2  0  0  0  0  0  0  0  0  0
   17.3927  -10.3241  -15.2889 N   0  0  0  0  0  0  0  0  0  0  0  0
   18.0025   -8.0651  -15.6930 C   0  0  0  0  0  0  0  0  0  0  0  0
   17.9348   -6.8145  -15.5987 O   0  0  0  0  0  0  0  0  0  0  0  0
   18.8937   -8.6155  -16.5934 O   0  0  0  0  0  0  0  0  0  0  0  0
  2  4  1  0
  2  1  1  6
  3  2  1  0
  4  5  1  6
  6  4  1  0
  7  6  2  0
  9  8  1  6
  9 11  1  0
  9 10  1  0
 10  6  1  0
 11 12  2  0
 14 13  1  0
 15 14  1  1
 16 11  1  0
 16 15  1  0
 17 19  1  0
 17 15  1  0
 18 17  2  0
M  END
$$$$
