VAS.pdb
     RDKit          3D

 19 18  0  0  1  0  0  0  0  0999 V2000
   17.3339  -11.2414  -12.8311 C   0  0  0  0  0  0  0  0  0  0  0  0
   16.9110   -9.9230  -12.2197 C   0  0  2  0  0  0  0  0  0  0  0  0
   18.1271   -9.0910  -11.8743 C   0  0  0  0  0  0  0  0  0  0  0  0
   16.0280  -10.1408  -11.0035 C   0  0  2  0  0  0  0  0  0  0  0  0
   14.9030  -10.9944  -11.3082 N   0  0  0  0  0  0  0  0  0  0  0  0
   15.5665   -8.8111  -10.5495 C   0  0  0  0  0  0  0  0  0  0  0  0
   14.9763   -8.0744  -11.3940 O   0  0  0  0  0  0  0  0  0  0  0  0
   15.3048   -6.8720   -7.3666 C   0  0  0  0  0  0  0  0  0  0  0  0
   15.3096   -7.0252   -8.8783 C   0  0  2  0  0  0  0  0  0  0  0  0
   15.7572   -8.3361   -9.2225 N   0  0  0  0  0  0  0  0  0  0  0  0
   16.1928   -5.9542   -9.4109 C   0  0  0  0  0  0  0  0  0  0  0  0
   17.4287   -6.0315   -9.4899 O   0  0  0  0  0  0  0  0  0  0  0  0
   16.8783   -3.3046  -12.8749 O   0  0  0  0  0  0  0  0  0  0  0  0
   16.2881   -4.2767  -12.0706 C   0  0  0  0  0  0  0  0  0  0  0  0
   16.2379   -3.7501  -10.6327 C   0  0  2  0  0  0  0  0  0  0  0  0
   15.5593   -4.7619   -9.8578 N   0  0  0  0  0  0  0  0  0  0  0  0
   15.4169   -2.5238  -10.6382 C   0  0  0  0  0  0  0  0  0  0  0  0
   15.9169   -1.3863  -10.8211 O   0  0  0  0  0  0  0  0  0  0  0  0
   14.0543   -2.6252  -10.4361 O   0  0  0  0  0  0  0  0  0  0  0  0
  2  4  1  0
  2  1  1  1
  3  2  1  0
  4  5  1  6
  6  4  1  0
  7  6  2  0
  9  8  1  1
  9 11  1  0
  9 10  1  0
 10  6  1  0
 11 12  2  0
 14 13  1  0
 15 14  1  6
 16 11  1  0
 16 15  1  0
 17 19  1  0
 17 15  1  0
 18 17  2  0
M  END
$$$$
