VAS.pdb
     RDKit          3D

 19 18  0  0  1  0  0  0  0  0999 V2000
   23.1611   -9.8295  -13.5314 C   0  0  0  0  0  0  0  0  0  0  0  0
   22.1051  -10.3002  -14.5080 C   0  0  2  0  0  0  0  0  0  0  0  0
   22.5191  -11.6139  -15.1352 C   0  0  0  0  0  0  0  0  0  0  0  0
   21.8282   -9.2467  -15.5661 C   0  0  2  0  0  0  0  0  0  0  0  0
   23.0236   -8.9029  -16.3009 N   0  0  0  0  0  0  0  0  0  0  0  0
   21.2810   -8.0596  -14.8744 C   0  0  0  0  0  0  0  0  0  0  0  0
   20.1523   -8.1764  -14.3114 O   0  0  0  0  0  0  0  0  0  0  0  0
   22.3554   -4.8393  -13.4976 C   0  0  0  0  0  0  0  0  0  0  0  0
   21.3200   -5.6916  -14.2120 C   0  0  2  0  0  0  0  0  0  0  0  0
   21.9627   -6.8127  -14.8182 N   0  0  0  0  0  0  0  0  0  0  0  0
   20.6493   -4.8057  -15.1999 C   0  0  0  0  0  0  0  0  0  0  0  0
   21.0354   -4.6268  -16.3655 O   0  0  0  0  0  0  0  0  0  0  0  0
   16.8367   -4.5994  -15.5086 O   0  0  0  0  0  0  0  0  0  0  0  0
   17.2804   -3.3210  -15.1778 C   0  0  0  0  0  0  0  0  0  0  0  0
   18.7498   -3.1962  -15.5931 C   0  0  2  0  0  0  0  0  0  0  0  0
   19.4824   -4.1214  -14.7611 N   0  0  0  0  0  0  0  0  0  0  0  0
   19.1850   -1.8224  -15.2753 C   0  0  0  0  0  0  0  0  0  0  0  0
   18.7437   -0.8223  -15.8937 O   0  0  0  0  0  0  0  0  0  0  0  0
   20.1071   -1.6249  -14.2662 O   0  0  0  0  0  0  0  0  0  0  0  0
  2  4  1  0
  2  1  1  1
  3  2  1  0
  4  5  1  1
  6  4  1  0
  7  6  2  0
  9  8  1  6
  9 11  1  0
  9 10  1  0
 10  6  1  0
 11 12  2  0
 14 13  1  0
 15 14  1  1
 16 11  1  0
 16 15  1  0
 17 19  1  0
 17 15  1  0
 18 17  2  0
M  END
$$$$
