VAS.pdb
     RDKit          3D

 19 18  0  0  1  0  0  0  0  0999 V2000
   17.8696  -11.4915  -14.4634 C   0  0  0  0  0  0  0  0  0  0  0  0
   16.9696  -11.4769  -15.6802 C   0  0  2  0  0  0  0  0  0  0  0  0
   16.1384  -12.7406  -15.7328 C   0  0  0  0  0  0  0  0  0  0  0  0
   17.7740  -11.2922  -16.9549 C   0  0  2  0  0  0  0  0  0  0  0  0
   18.6763  -12.3977  -17.1802 N   0  0  0  0  0  0  0  0  0  0  0  0
   18.5242  -10.0244  -16.8235 C   0  0  0  0  0  0  0  0  0  0  0  0
   19.6950  -10.0819  -16.3439 O   0  0  0  0  0  0  0  0  0  0  0  0
   18.0585   -6.4078  -17.6943 C   0  0  0  0  0  0  0  0  0  0  0  0
   18.8225   -7.6062  -17.1568 C   0  0  2  0  0  0  0  0  0  0  0  0
   17.9895   -8.7641  -17.2088 N   0  0  0  0  0  0  0  0  0  0  0  0
   19.2415   -7.2570  -15.7736 C   0  0  0  0  0  0  0  0  0  0  0  0
   18.6875   -7.6681  -14.7423 O   0  0  0  0  0  0  0  0  0  0  0  0
   22.4232   -7.0200  -12.7618 O   0  0  0  0  0  0  0  0  0  0  0  0
   21.7009   -7.3253  -13.9131 C   0  0  0  0  0  0  0  0  0  0  0  0
   20.9608   -6.0637  -14.3689 C   0  0  2  0  0  0  0  0  0  0  0  0
   20.3596   -6.3882  -15.6410 N   0  0  0  0  0  0  0  0  0  0  0  0
   21.9706   -5.0075  -14.5748 C   0  0  0  0  0  0  0  0  0  0  0  0
   22.3482   -4.2540  -13.6436 O   0  0  0  0  0  0  0  0  0  0  0  0
   22.5212   -4.8382  -15.8302 O   0  0  0  0  0  0  0  0  0  0  0  0
  2  4  1  0
  2  1  1  1
  3  2  1  0
  4  5  1  1
  6  4  1  0
  7  6  2  0
  9  8  1  1
  9 11  1  0
  9 10  1  0
 10  6  1  0
 11 12  2  0
 14 13  1  0
 15 14  1  6
 16 11  1  0
 16 15  1  0
 17 19  1  0
 17 15  1  0
 18 17  2  0
M  END
$$$$
