VAS.pdb
     RDKit          3D

 19 18  0  0  1  0  0  0  0  0999 V2000
   20.9519  -13.0837  -17.7138 C   0  0  0  0  0  0  0  0  0  0  0  0
   20.0269  -12.7917  -16.5519 C   0  0  2  0  0  0  0  0  0  0  0  0
   19.0410  -13.9253  -16.3688 C   0  0  0  0  0  0  0  0  0  0  0  0
   19.3131  -11.4645  -16.7394 C   0  0  2  0  0  0  0  0  0  0  0  0
   18.5636  -11.4328  -17.9741 N   0  0  0  0  0  0  0  0  0  0  0  0
   20.3434  -10.4036  -16.7267 C   0  0  0  0  0  0  0  0  0  0  0  0
   21.0077  -10.2430  -15.6603 O   0  0  0  0  0  0  0  0  0  0  0  0
   21.7793   -7.8605  -19.0746 C   0  0  0  0  0  0  0  0  0  0  0  0
   21.5535   -8.5058  -17.7177 C   0  0  2  0  0  0  0  0  0  0  0  0
   20.6120   -9.5707  -17.8478 N   0  0  0  0  0  0  0  0  0  0  0  0
   21.0848   -7.4276  -16.8074 C   0  0  0  0  0  0  0  0  0  0  0  0
   19.9016   -7.0775  -16.6769 O   0  0  0  0  0  0  0  0  0  0  0  0
   21.8164   -5.3976  -12.7169 O   0  0  0  0  0  0  0  0  0  0  0  0
   21.9793   -6.3800  -13.6910 C   0  0  0  0  0  0  0  0  0  0  0  0
   21.7671   -5.7381  -15.0658 C   0  0  2  0  0  0  0  0  0  0  0  0
   22.0770   -6.7596  -16.0382 N   0  0  0  0  0  0  0  0  0  0  0  0
   22.7454   -4.6413  -15.1987 C   0  0  0  0  0  0  0  0  0  0  0  0
   22.5974   -3.5400  -14.6136 O   0  0  0  0  0  0  0  0  0  0  0  0
   23.8615   -4.8273  -15.9910 O   0  0  0  0  0  0  0  0  0  0  0  0
  2  4  1  0
  2  1  1  6
  3  2  1  0
  4  5  1  6
  6  4  1  0
  7  6  2  0
  9  8  1  6
  9 11  1  0
  9 10  1  0
 10  6  1  0
 11 12  2  0
 14 13  1  0
 15 14  1  1
 16 11  1  0
 16 15  1  0
 17 19  1  0
 17 15  1  0
 18 17  2  0
M  END
$$$$
