VAS.pdb
     RDKit          3D

 19 18  0  0  1  0  0  0  0  0999 V2000
   18.9824  -10.4567  -18.3993 C   0  0  0  0  0  0  0  0  0  0  0  0
   20.0411  -11.2606  -17.6757 C   0  0  2  0  0  0  0  0  0  0  0  0
   19.4766  -11.8393  -16.3962 C   0  0  0  0  0  0  0  0  0  0  0  0
   21.2767  -10.4209  -17.4034 C   0  0  2  0  0  0  0  0  0  0  0  0
   22.3454  -11.2132  -16.8402 N   0  0  0  0  0  0  0  0  0  0  0  0
   20.8806   -9.3417  -16.4730 C   0  0  0  0  0  0  0  0  0  0  0  0
   20.0548   -8.4780  -16.8929 O   0  0  0  0  0  0  0  0  0  0  0  0
   21.3157   -8.3934  -12.8942 C   0  0  0  0  0  0  0  0  0  0  0  0
   21.0521   -8.0944  -14.3605 C   0  0  2  0  0  0  0  0  0  0  0  0
   21.3835   -9.2387  -15.1466 N   0  0  0  0  0  0  0  0  0  0  0  0
   21.8691   -6.9006  -14.7040 C   0  0  0  0  0  0  0  0  0  0  0  0
   22.8628   -6.9141  -15.4468 O   0  0  0  0  0  0  0  0  0  0  0  0
   21.6569   -3.0641  -16.6185 O   0  0  0  0  0  0  0  0  0  0  0  0
   21.3240   -4.3055  -16.0814 C   0  0  0  0  0  0  0  0  0  0  0  0
   21.8795   -4.3805  -14.6555 C   0  0  2  0  0  0  0  0  0  0  0  0
   21.4690   -5.6618  -14.1314 N   0  0  0  0  0  0  0  0  0  0  0  0
   21.2294   -3.3139  -13.8698 C   0  0  0  0  0  0  0  0  0  0  0  0
   20.1027   -3.4692  -13.3372 O   0  0  0  0  0  0  0  0  0  0  0  0
   21.8769   -2.1040  -13.7123 O   0  0  0  0  0  0  0  0  0  0  0  0
  2  4  1  0
  2  1  1  1
  3  2  1  0
  4  5  1  1
  6  4  1  0
  7  6  2  0
  9  8  1  1
  9 11  1  0
  9 10  1  0
 10  6  1  0
 11 12  2  0
 14 13  1  0
 15 14  1  6
 16 11  1  0
 16 15  1  0
 17 19  1  0
 17 15  1  0
 18 17  2  0
M  END
$$$$
