VAS.pdb
     RDKit          3D

 19 18  0  0  1  0  0  0  0  0999 V2000
   16.6412   -8.4311  -16.9050 C   0  0  0  0  0  0  0  0  0  0  0  0
   17.0978   -9.0609  -18.2033 C   0  0  2  0  0  0  0  0  0  0  0  0
   15.9032   -9.5097  -19.0170 C   0  0  0  0  0  0  0  0  0  0  0  0
   18.0550  -10.2118  -17.9477 C   0  0  2  0  0  0  0  0  0  0  0  0
   17.4132  -11.2888  -17.2300 N   0  0  0  0  0  0  0  0  0  0  0  0
   19.1944   -9.6743  -17.1730 C   0  0  0  0  0  0  0  0  0  0  0  0
   19.1378   -9.7580  -15.9105 O   0  0  0  0  0  0  0  0  0  0  0  0
   22.6130   -8.3079  -17.7738 C   0  0  0  0  0  0  0  0  0  0  0  0
   21.3470   -8.5049  -16.9569 C   0  0  2  0  0  0  0  0  0  0  0  0
   20.3324   -9.0769  -17.7820 N   0  0  0  0  0  0  0  0  0  0  0  0
   20.9734   -7.1682  -16.4238 C   0  0  0  0  0  0  0  0  0  0  0  0
   20.1118   -6.4253  -16.9191 O   0  0  0  0  0  0  0  0  0  0  0  0
   21.4414   -6.3201  -12.5007 O   0  0  0  0  0  0  0  0  0  0  0  0
   22.1569   -5.4464  -13.3161 C   0  0  0  0  0  0  0  0  0  0  0  0
   21.4851   -5.4092  -14.6925 C   0  0  2  0  0  0  0  0  0  0  0  0
   21.6629   -6.7242  -15.2619 N   0  0  0  0  0  0  0  0  0  0  0  0
   22.2186   -4.4297  -15.5174 C   0  0  0  0  0  0  0  0  0  0  0  0
   23.0536   -4.7815  -16.3870 O   0  0  0  0  0  0  0  0  0  0  0  0
   21.9825   -3.0817  -15.3308 O   0  0  0  0  0  0  0  0  0  0  0  0
  2  4  1  0
  2  1  1  1
  3  2  1  0
  4  5  1  1
  6  4  1  0
  7  6  2  0
  9  8  1  6
  9 11  1  0
  9 10  1  0
 10  6  1  0
 11 12  2  0
 14 13  1  0
 15 14  1  1
 16 11  1  0
 16 15  1  0
 17 19  1  0
 17 15  1  0
 18 17  2  0
M  END
$$$$
