DEL.pdb
     RDKit          3D

 26 25  0  0  1  0  0  0  0  0999 V2000
   17.1375  -13.5599  -17.4859 N   0  0  0  0  0  0  0  0  0  0  0  0
   16.8396  -12.4273  -16.6778 C   0  0  1  0  0  0  0  0  0  0  0  0
   16.7346  -12.8018  -15.2130 C   0  0  0  0  0  0  0  0  0  0  0  0
   15.5028  -13.5759  -15.0048 C   0  0  0  0  0  0  0  0  0  0  0  0
   15.4837  -14.5356  -14.2207 O   0  0  0  0  0  0  0  0  0  0  0  0
   17.6740  -11.2358  -16.8849 C   0  0  0  0  0  0  0  0  0  0  0  0
   18.9135  -11.4883  -17.1234 O   0  0  0  0  0  0  0  0  0  0  0  0
   14.3492  -13.2351  -15.6878 O   0  0  0  0  0  0  0  0  0  0  0  0
   17.2883   -9.8945  -16.8543 N   0  0  0  0  0  0  0  0  0  0  0  0
   18.2196   -8.8308  -17.2399 C   0  0  1  0  0  0  0  0  0  0  0  0
   17.4830   -7.6167  -17.7371 C   0  0  0  0  0  0  0  0  0  0  0  0
   18.3675   -6.5059  -18.1681 C   0  0  0  0  0  0  0  0  0  0  0  0
   17.5465   -5.3786  -18.6568 C   0  0  0  0  0  0  0  0  0  0  0  0
   17.4798   -5.1774  -19.8907 O   0  0  0  0  0  0  0  0  0  0  0  0
   19.1095   -8.5055  -16.0877 C   0  0  0  0  0  0  0  0  0  0  0  0
   18.6085   -8.3515  -14.9213 O   0  0  0  0  0  0  0  0  0  0  0  0
   16.8378   -4.5204  -17.8281 O   0  0  0  0  0  0  0  0  0  0  0  0
   22.3820  -10.9342  -14.0490 C   0  0  0  0  0  0  0  0  0  0  0  0
   22.8210  -10.1566  -15.2266 C   0  0  2  0  0  0  0  0  0  0  0  0
   24.2791  -10.5576  -15.5600 C   0  0  0  0  0  0  0  0  0  0  0  0
   22.6823   -8.6967  -15.2318 C   0  0  0  0  0  0  0  0  0  0  0  0
   21.3834   -8.0334  -15.0473 C   0  0  2  0  0  0  0  0  0  0  0  0
   20.4952   -8.3533  -16.2015 N   0  0  0  0  0  0  0  0  0  0  0  0
   21.3265   -6.5969  -14.8158 C   0  0  0  0  0  0  0  0  0  0  0  0
   20.7247   -5.6595  -15.6307 O   0  0  0  0  0  0  0  0  0  0  0  0
   21.8964   -6.1337  -13.7465 O   0  0  0  0  0  0  0  0  0  0  0  0
  2  1  1  6
  2  3  1  0
  3  4  1  0
  4  8  1  0
  5  4  2  0
  6  7  2  0
  6  2  1  0
  9  6  1  0
 10  9  1  0
 10 11  1  1
 12 13  1  0
 12 11  1  0
 13 14  2  0
 15 10  1  0
 16 15  2  0
 17 13  1  0
 19 18  1  1
 19 21  1  0
 20 19  1  0
 22 21  1  6
 22 24  1  0
 22 23  1  0
 23 15  1  0
 24 25  1  0
 26 24  2  0
M  END
$$$$
