DEL.pdb
     RDKit          3D

 26 25  0  0  1  0  0  0  0  0999 V2000
   16.6449  -13.9248  -17.9375 N   0  0  0  0  0  0  0  0  0  0  0  0
   16.4195  -12.8947  -16.9823 C   0  0  1  0  0  0  0  0  0  0  0  0
   16.5263  -13.4186  -15.5642 C   0  0  0  0  0  0  0  0  0  0  0  0
   15.4522  -14.3946  -15.3331 C   0  0  0  0  0  0  0  0  0  0  0  0
   15.7164  -15.5604  -15.0056 O   0  0  0  0  0  0  0  0  0  0  0  0
   17.1760  -11.6491  -17.1695 C   0  0  0  0  0  0  0  0  0  0  0  0
   18.4011  -11.8185  -17.5266 O   0  0  0  0  0  0  0  0  0  0  0  0
   14.1303  -14.0146  -15.4806 O   0  0  0  0  0  0  0  0  0  0  0  0
   16.7316  -10.3356  -17.0094 N   0  0  0  0  0  0  0  0  0  0  0  0
   17.6099   -9.1992  -17.3008 C   0  0  1  0  0  0  0  0  0  0  0  0
   16.8161   -7.9391  -17.5150 C   0  0  0  0  0  0  0  0  0  0  0  0
   15.7965   -7.6802  -16.4683 C   0  0  0  0  0  0  0  0  0  0  0  0
   15.9723   -6.3148  -15.9312 C   0  0  0  0  0  0  0  0  0  0  0  0
   15.2985   -5.9729  -14.9329 O   0  0  0  0  0  0  0  0  0  0  0  0
   18.6072   -9.0456  -16.2021 C   0  0  0  0  0  0  0  0  0  0  0  0
   18.2976   -9.3892  -15.0099 O   0  0  0  0  0  0  0  0  0  0  0  0
   16.8445   -5.3781  -16.4673 O   0  0  0  0  0  0  0  0  0  0  0  0
   24.2995  -10.3815  -15.0903 C   0  0  0  0  0  0  0  0  0  0  0  0
   23.1388   -9.5680  -14.6719 C   0  0  2  0  0  0  0  0  0  0  0  0
   22.6697  -10.0657  -13.2826 C   0  0  0  0  0  0  0  0  0  0  0  0
   21.9904   -9.4160  -15.5709 C   0  0  0  0  0  0  0  0  0  0  0  0
   20.9144   -8.4489  -15.3095 C   0  0  2  0  0  0  0  0  0  0  0  0
   19.8954   -8.5360  -16.3946 N   0  0  0  0  0  0  0  0  0  0  0  0
   21.2342   -7.0439  -15.0994 C   0  0  0  0  0  0  0  0  0  0  0  0
   21.5675   -6.4508  -13.8986 O   0  0  0  0  0  0  0  0  0  0  0  0
   21.2028   -6.2561  -16.1295 O   0  0  0  0  0  0  0  0  0  0  0  0
  2  1  1  6
  2  3  1  0
  3  4  1  0
  4  8  1  0
  5  4  2  0
  6  7  2  0
  6  2  1  0
  9  6  1  0
 10  9  1  0
 10 11  1  1
 12 13  1  0
 12 11  1  0
 13 14  2  0
 15 10  1  0
 16 15  2  0
 17 13  1  0
 19 18  1  6
 19 21  1  0
 20 19  1  0
 22 21  1  6
 22 24  1  0
 22 23  1  0
 23 15  1  0
 24 25  1  0
 26 24  2  0
M  END
$$$$
