DEL.pdb
     RDKit          3D

 26 25  0  0  1  0  0  0  0  0999 V2000
   27.0138  -19.5341  -16.0557 N   0  0  0  0  0  0  0  0  0  0  0  0
   26.8750  -20.5901  -15.1123 C   0  0  1  0  0  0  0  0  0  0  0  0
   28.1808  -21.3334  -14.9141 C   0  0  0  0  0  0  0  0  0  0  0  0
   28.4492  -22.1538  -16.1034 C   0  0  0  0  0  0  0  0  0  0  0  0
   27.6576  -22.1635  -17.0570 O   0  0  0  0  0  0  0  0  0  0  0  0
   26.2341  -20.2489  -13.8350 C   0  0  0  0  0  0  0  0  0  0  0  0
   26.5800  -19.1061  -13.3539 O   0  0  0  0  0  0  0  0  0  0  0  0
   29.5956  -22.9254  -16.1658 O   0  0  0  0  0  0  0  0  0  0  0  0
   25.3158  -21.0013  -13.1006 N   0  0  0  0  0  0  0  0  0  0  0  0
   24.6581  -20.4446  -11.9152 C   0  0  1  0  0  0  0  0  0  0  0  0
   23.1983  -20.8071  -11.8825 C   0  0  0  0  0  0  0  0  0  0  0  0
   22.3457  -19.9666  -12.7594 C   0  0  0  0  0  0  0  0  0  0  0  0
   20.9287  -20.3494  -12.5885 C   0  0  0  0  0  0  0  0  0  0  0  0
   20.4682  -21.2724  -13.2980 O   0  0  0  0  0  0  0  0  0  0  0  0
   25.3707  -20.9042  -10.6879 C   0  0  0  0  0  0  0  0  0  0  0  0
   25.5262  -22.1553  -10.4740 O   0  0  0  0  0  0  0  0  0  0  0  0
   20.0672  -19.7458  -11.6835 O   0  0  0  0  0  0  0  0  0  0  0  0
   28.1416  -18.3466   -5.6984 C   0  0  0  0  0  0  0  0  0  0  0  0
   27.8860  -19.5551   -6.5097 C   0  0  2  0  0  0  0  0  0  0  0  0
   29.2009  -20.3676   -6.6024 C   0  0  0  0  0  0  0  0  0  0  0  0
   27.2727  -19.4291   -7.8358 C   0  0  0  0  0  0  0  0  0  0  0  0
   26.4291  -20.4865   -8.4116 C   0  0  2  0  0  0  0  0  0  0  0  0
   25.8950  -20.0326   -9.7277 N   0  0  0  0  0  0  0  0  0  0  0  0
   25.3242  -21.0371   -7.6393 C   0  0  0  0  0  0  0  0  0  0  0  0
   23.9965  -20.6729   -7.7353 O   0  0  0  0  0  0  0  0  0  0  0  0
   25.5962  -21.9578   -6.7668 O   0  0  0  0  0  0  0  0  0  0  0  0
  2  1  1  1
  2  3  1  0
  3  4  1  0
  4  8  1  0
  5  4  2  0
  6  7  2  0
  6  2  1  0
  9  6  1  0
 10  9  1  0
 10 11  1  1
 12 13  1  0
 12 11  1  0
 13 14  2  0
 15 10  1  0
 16 15  2  0
 17 13  1  0
 19 18  1  6
 19 21  1  0
 20 19  1  0
 22 21  1  1
 22 24  1  0
 22 23  1  0
 23 15  1  0
 24 25  1  0
 26 24  2  0
M  END
$$$$
