DEL.pdb
     RDKit          3D

 26 25  0  0  1  0  0  0  0  0999 V2000
   27.5134  -23.4693  -18.0457 N   0  0  0  0  0  0  0  0  0  0  0  0
   26.4477  -23.8000  -17.1629 C   0  0  1  0  0  0  0  0  0  0  0  0
   26.7874  -25.0044  -16.3081 C   0  0  0  0  0  0  0  0  0  0  0  0
   26.3976  -26.2257  -17.0266 C   0  0  0  0  0  0  0  0  0  0  0  0
   25.9164  -26.1625  -18.1670 O   0  0  0  0  0  0  0  0  0  0  0  0
   25.8885  -22.6983  -16.3677 C   0  0  0  0  0  0  0  0  0  0  0  0
   26.7063  -22.1889  -15.5140 O   0  0  0  0  0  0  0  0  0  0  0  0
   26.5668  -27.4620  -16.4295 O   0  0  0  0  0  0  0  0  0  0  0  0
   24.6051  -22.1527  -16.4291 N   0  0  0  0  0  0  0  0  0  0  0  0
   24.2367  -20.9925  -15.6130 C   0  0  1  0  0  0  0  0  0  0  0  0
   23.1587  -20.1801  -16.2776 C   0  0  0  0  0  0  0  0  0  0  0  0
   22.5945  -19.1069  -15.4220 C   0  0  0  0  0  0  0  0  0  0  0  0
   21.4838  -18.4388  -16.1316 C   0  0  0  0  0  0  0  0  0  0  0  0
   21.6439  -18.1246  -17.3329 O   0  0  0  0  0  0  0  0  0  0  0  0
   23.8270  -21.4496  -14.2533 C   0  0  0  0  0  0  0  0  0  0  0  0
   22.9004  -22.3218  -14.1282 O   0  0  0  0  0  0  0  0  0  0  0  0
   20.2630  -18.1342  -15.5465 O   0  0  0  0  0  0  0  0  0  0  0  0
   27.1864  -20.3851   -9.7392 C   0  0  0  0  0  0  0  0  0  0  0  0
   25.8474  -20.2812  -10.3559 C   0  0  2  0  0  0  0  0  0  0  0  0
   24.9253  -19.4966   -9.3905 C   0  0  0  0  0  0  0  0  0  0  0  0
   25.1685  -21.4886  -10.8373 C   0  0  0  0  0  0  0  0  0  0  0  0
   23.9899  -21.4269  -11.7138 C   0  0  2  0  0  0  0  0  0  0  0  0
   24.4057  -20.9737  -13.0721 N   0  0  0  0  0  0  0  0  0  0  0  0
   22.8252  -20.6499  -11.3133 C   0  0  0  0  0  0  0  0  0  0  0  0
   21.8563  -21.0342  -10.4087 O   0  0  0  0  0  0  0  0  0  0  0  0
   22.6631  -19.4816  -11.8532 O   0  0  0  0  0  0  0  0  0  0  0  0
  2  1  1  1
  2  3  1  0
  3  4  1  0
  4  8  1  0
  5  4  2  0
  6  7  2  0
  6  2  1  0
  9  6  1  0
 10  9  1  0
 10 11  1  6
 12 13  1  0
 12 11  1  0
 13 14  2  0
 15 10  1  0
 16 15  2  0
 17 13  1  0
 19 18  1  1
 19 21  1  0
 20 19  1  0
 22 21  1  1
 22 24  1  0
 22 23  1  0
 23 15  1  0
 24 25  1  0
 26 24  2  0
M  END
$$$$
