DEL.pdb
     RDKit          3D

 26 25  0  0  1  0  0  0  0  0999 V2000
   26.3788  -22.8772  -16.0568 N   0  0  0  0  0  0  0  0  0  0  0  0
   26.2462  -23.1233  -17.4519 C   0  0  1  0  0  0  0  0  0  0  0  0
   25.8770  -21.8617  -18.2062 C   0  0  0  0  0  0  0  0  0  0  0  0
   24.7463  -21.2129  -17.5279 C   0  0  0  0  0  0  0  0  0  0  0  0
   24.9253  -20.2181  -16.8105 O   0  0  0  0  0  0  0  0  0  0  0  0
   27.3476  -23.8507  -18.0974 C   0  0  0  0  0  0  0  0  0  0  0  0
   27.1167  -24.1946  -19.3162 O   0  0  0  0  0  0  0  0  0  0  0  0
   23.4663  -21.7124  -17.6875 O   0  0  0  0  0  0  0  0  0  0  0  0
   28.5850  -24.2033  -17.5562 N   0  0  0  0  0  0  0  0  0  0  0  0
   29.5816  -24.9236  -18.3534 C   0  0  1  0  0  0  0  0  0  0  0  0
   30.9249  -24.2495  -18.2831 C   0  0  0  0  0  0  0  0  0  0  0  0
   31.9886  -24.9366  -19.0568 C   0  0  0  0  0  0  0  0  0  0  0  0
   33.2617  -24.2004  -18.9124 C   0  0  0  0  0  0  0  0  0  0  0  0
   33.8725  -23.8520  -19.9482 O   0  0  0  0  0  0  0  0  0  0  0  0
   29.6500  -26.3435  -17.9012 C   0  0  0  0  0  0  0  0  0  0  0  0
   29.6308  -26.6143  -16.6516 O   0  0  0  0  0  0  0  0  0  0  0  0
   33.8293  -23.8673  -17.6908 O   0  0  0  0  0  0  0  0  0  0  0  0
   27.7900  -31.8830  -19.7213 C   0  0  0  0  0  0  0  0  0  0  0  0
   28.6935  -31.0982  -18.8543 C   0  0  2  0  0  0  0  0  0  0  0  0
   28.3369  -31.4001  -17.3779 C   0  0  0  0  0  0  0  0  0  0  0  0
   28.8290  -29.6523  -19.0582 C   0  0  0  0  0  0  0  0  0  0  0  0
   29.8160  -28.8475  -18.3237 C   0  0  2  0  0  0  0  0  0  0  0  0
   29.7361  -27.4296  -18.7783 N   0  0  0  0  0  0  0  0  0  0  0  0
   31.2173  -29.2433  -18.3167 C   0  0  0  0  0  0  0  0  0  0  0  0
   31.8165  -30.1184  -17.4336 O   0  0  0  0  0  0  0  0  0  0  0  0
   31.9952  -28.7291  -19.2185 O   0  0  0  0  0  0  0  0  0  0  0  0
  2  1  1  1
  2  3  1  0
  3  4  1  0
  4  8  1  0
  5  4  2  0
  6  7  2  0
  6  2  1  0
  9  6  1  0
 10  9  1  0
 10 11  1  1
 12 13  1  0
 12 11  1  0
 13 14  2  0
 15 10  1  0
 16 15  2  0
 17 13  1  0
 19 18  1  6
 19 21  1  0
 20 19  1  0
 22 21  1  6
 22 24  1  0
 22 23  1  0
 23 15  1  0
 24 25  1  0
 26 24  2  0
M  END
$$$$
