DEL.pdb
     RDKit          3D

 26 25  0  0  1  0  0  0  0  0999 V2000
   27.7654  -23.0106  -17.6497 N   0  0  0  0  0  0  0  0  0  0  0  0
   26.6459  -23.2713  -16.8111 C   0  0  1  0  0  0  0  0  0  0  0  0
   26.7536  -24.6290  -16.1464 C   0  0  0  0  0  0  0  0  0  0  0  0
   26.5156  -25.6738  -17.1521 C   0  0  0  0  0  0  0  0  0  0  0  0
   25.6205  -25.5441  -17.9995 O   0  0  0  0  0  0  0  0  0  0  0  0
   26.2817  -22.2159  -15.8560 C   0  0  0  0  0  0  0  0  0  0  0  0
   27.1477  -21.2692  -15.7523 O   0  0  0  0  0  0  0  0  0  0  0  0
   27.2952  -26.8165  -17.1587 O   0  0  0  0  0  0  0  0  0  0  0  0
   25.1335  -22.1224  -15.0675 N   0  0  0  0  0  0  0  0  0  0  0  0
   24.8470  -20.9143  -14.2891 C   0  0  1  0  0  0  0  0  0  0  0  0
   23.6034  -20.2289  -14.7866 C   0  0  0  0  0  0  0  0  0  0  0  0
   23.8653  -19.0580  -15.6598 C   0  0  0  0  0  0  0  0  0  0  0  0
   22.8139  -18.0402  -15.4539 C   0  0  0  0  0  0  0  0  0  0  0  0
   21.6468  -18.4251  -15.2147 O   0  0  0  0  0  0  0  0  0  0  0  0
   24.7450  -21.2658  -12.8429 C   0  0  0  0  0  0  0  0  0  0  0  0
   24.0067  -22.2436  -12.4769 O   0  0  0  0  0  0  0  0  0  0  0  0
   23.0391  -16.6721  -15.5091 O   0  0  0  0  0  0  0  0  0  0  0  0
   25.4053  -20.2857   -7.2797 C   0  0  0  0  0  0  0  0  0  0  0  0
   26.5529  -20.4807   -8.1902 C   0  0  2  0  0  0  0  0  0  0  0  0
   27.7389  -19.6324   -7.6688 C   0  0  0  0  0  0  0  0  0  0  0  0
   26.3830  -20.2827   -9.6333 C   0  0  0  0  0  0  0  0  0  0  0  0
   25.2751  -20.8936  -10.3819 C   0  0  2  0  0  0  0  0  0  0  0  0
   25.4226  -20.5771  -11.8315 N   0  0  0  0  0  0  0  0  0  0  0  0
   23.8980  -20.6201   -9.9958 C   0  0  0  0  0  0  0  0  0  0  0  0
   23.1239  -21.3723   -9.1358 O   0  0  0  0  0  0  0  0  0  0  0  0
   23.3240  -19.5737  -10.5042 O   0  0  0  0  0  0  0  0  0  0  0  0
  2  1  1  1
  2  3  1  0
  3  4  1  0
  4  8  1  0
  5  4  2  0
  6  7  2  0
  6  2  1  0
  9  6  1  0
 10  9  1  0
 10 11  1  6
 12 13  1  0
 12 11  1  0
 13 14  2  0
 15 10  1  0
 16 15  2  0
 17 13  1  0
 19 18  1  1
 19 21  1  0
 20 19  1  0
 22 21  1  1
 22 24  1  0
 22 23  1  0
 23 15  1  0
 24 25  1  0
 26 24  2  0
M  END
$$$$
