DEL.pdb
     RDKit          3D

 26 25  0  0  1  0  0  0  0  0999 V2000
   20.2573  -11.1507  -16.4943 N   0  0  0  0  0  0  0  0  0  0  0  0
   19.0723  -10.4972  -16.0547 C   0  0  1  0  0  0  0  0  0  0  0  0
   18.2338  -11.4007  -15.1731 C   0  0  0  0  0  0  0  0  0  0  0  0
   17.9202  -12.6320  -15.9116 C   0  0  0  0  0  0  0  0  0  0  0  0
   18.3601  -12.8126  -17.0561 O   0  0  0  0  0  0  0  0  0  0  0  0
   19.2386   -9.1579  -15.4737 C   0  0  0  0  0  0  0  0  0  0  0  0
   18.5873   -8.9672  -14.3799 O   0  0  0  0  0  0  0  0  0  0  0  0
   17.1264  -13.6036  -15.3290 O   0  0  0  0  0  0  0  0  0  0  0  0
   20.0023   -8.0944  -15.9579 N   0  0  0  0  0  0  0  0  0  0  0  0
   20.1846   -6.8733  -15.1685 C   0  0  1  0  0  0  0  0  0  0  0  0
   21.6441   -6.5767  -14.9547 C   0  0  0  0  0  0  0  0  0  0  0  0
   22.4457   -6.5484  -16.2032 C   0  0  0  0  0  0  0  0  0  0  0  0
   23.8554   -6.2440  -15.8812 C   0  0  0  0  0  0  0  0  0  0  0  0
   24.7330   -7.0848  -16.1818 O   0  0  0  0  0  0  0  0  0  0  0  0
   19.4806   -5.7393  -15.8347 C   0  0  0  0  0  0  0  0  0  0  0  0
   19.4805   -5.6528  -17.1105 O   0  0  0  0  0  0  0  0  0  0  0  0
   24.2731   -5.0750  -15.2612 O   0  0  0  0  0  0  0  0  0  0  0  0
   14.7344   -1.9359  -15.0359 C   0  0  0  0  0  0  0  0  0  0  0  0
   15.9107   -2.3452  -15.8315 C   0  0  2  0  0  0  0  0  0  0  0  0
   15.4395   -2.6582  -17.2730 C   0  0  0  0  0  0  0  0  0  0  0  0
   16.7892   -3.4123  -15.3417 C   0  0  0  0  0  0  0  0  0  0  0  0
   18.1796   -3.5525  -15.7981 C   0  0  2  0  0  0  0  0  0  0  0  0
   18.8013   -4.7355  -15.1367 N   0  0  0  0  0  0  0  0  0  0  0  0
   19.1007   -2.4309  -15.6803 C   0  0  0  0  0  0  0  0  0  0  0  0
   19.3319   -1.4579  -16.6314 O   0  0  0  0  0  0  0  0  0  0  0  0
   19.7836   -2.3221  -14.5828 O   0  0  0  0  0  0  0  0  0  0  0  0
  2  1  1  1
  2  3  1  0
  3  4  1  0
  4  8  1  0
  5  4  2  0
  6  7  2  0
  6  2  1  0
  9  6  1  0
 10  9  1  0
 10 11  1  6
 12 13  1  0
 12 11  1  0
 13 14  2  0
 15 10  1  0
 16 15  2  0
 17 13  1  0
 19 18  1  1
 19 21  1  0
 20 19  1  0
 22 21  1  1
 22 24  1  0
 22 23  1  0
 23 15  1  0
 24 25  1  0
 26 24  2  0
M  END
$$$$
