DAK.pdb
     RDKit          3D

 23 22  0  0  1  0  0  0  0  0999 V2000
    7.6492  -17.0319   17.0698 N   0  0  0  0  0  0  0  0  0  0  0  0
    8.8036  -17.4711   17.8235 C   0  0  1  0  0  0  0  0  0  0  0  0
   10.0413  -17.5456   16.9505 C   0  0  0  0  0  0  0  0  0  0  0  0
    9.8448  -18.4846   15.8230 C   0  0  0  0  0  0  0  0  0  0  0  0
    8.6927  -18.7846   15.4583 O   0  0  0  0  0  0  0  0  0  0  0  0
    9.0398  -16.6200   19.0153 C   0  0  0  0  0  0  0  0  0  0  0  0
   10.1394  -16.6642   19.6213 O   0  0  0  0  0  0  0  0  0  0  0  0
   10.9293  -19.0368   15.1648 O   0  0  0  0  0  0  0  0  0  0  0  0
    7.1623  -13.9825   20.9967 C   0  0  0  0  0  0  0  0  0  0  0  0
    8.2936  -14.9261   20.6663 C   0  0  2  0  0  0  0  0  0  0  0  0
    8.0506  -15.7311   19.5176 N   0  0  0  0  0  0  0  0  0  0  0  0
    8.5961  -15.7160   21.8870 C   0  0  0  0  0  0  0  0  0  0  0  0
    7.8320  -16.6698   22.1641 O   0  0  0  0  0  0  0  0  0  0  0  0
    9.6736  -15.4609   22.7381 N   0  0  0  0  0  0  0  0  0  0  0  0
   10.0957  -16.2644   23.8476 C   0  0  1  0  0  0  0  0  0  0  0  0
   11.5449  -16.5305   23.9407 C   0  0  0  0  0  0  0  0  0  0  0  0
   11.9962  -17.4002   25.0804 C   0  0  0  0  0  0  0  0  0  0  0  0
   13.4642  -17.7459   25.0501 C   0  0  0  0  0  0  0  0  0  0  0  0
   13.7636  -18.6231   26.2571 C   0  0  0  0  0  0  0  0  0  0  0  0
   15.1698  -18.9957   26.1581 N   0  0  0  0  0  0  0  0  0  0  0  0
    9.4662  -15.8025   25.0912 C   0  0  0  0  0  0  0  0  0  0  0  0
    8.9549  -14.6637   25.2413 O   0  0  0  0  0  0  0  0  0  0  0  0
    9.4186  -16.6586   26.1932 O   0  0  0  0  0  0  0  0  0  0  0  0
  2  1  1  6
  2  3  1  0
  3  4  1  0
  4  5  2  0
  6 11  1  0
  6  2  1  0
  7  6  2  0
  8  4  1  0
 10  9  1  1
 10 12  1  0
 10 11  1  0
 12 14  1  0
 13 12  2  0
 14 15  1  0
 15 21  1  0
 15 16  1  1
 16 17  1  0
 18 19  1  0
 18 17  1  0
 20 19  1  0
 21 23  1  0
 22 21  2  0
M  END
$$$$
