DAK.pdb
     RDKit          3D

 23 22  0  0  1  0  0  0  0  0999 V2000
   11.1452  -14.1917   18.2327 N   0  0  0  0  0  0  0  0  0  0  0  0
   11.5384  -15.0527   19.3272 C   0  0  1  0  0  0  0  0  0  0  0  0
   12.8356  -14.5884   19.9607 C   0  0  0  0  0  0  0  0  0  0  0  0
   13.9782  -14.7752   19.0381 C   0  0  0  0  0  0  0  0  0  0  0  0
   14.0000  -15.7523   18.2666 O   0  0  0  0  0  0  0  0  0  0  0  0
   10.4633  -15.1804   20.3412 C   0  0  0  0  0  0  0  0  0  0  0  0
    9.8783  -14.1592   20.7810 O   0  0  0  0  0  0  0  0  0  0  0  0
   15.0282  -13.8744   19.0207 O   0  0  0  0  0  0  0  0  0  0  0  0
    8.2735  -17.8858   21.7381 C   0  0  0  0  0  0  0  0  0  0  0  0
    8.9759  -16.5500   21.7779 C   0  0  2  0  0  0  0  0  0  0  0  0
   10.0526  -16.4415   20.8530 N   0  0  0  0  0  0  0  0  0  0  0  0
    9.3778  -16.2911   23.1840 C   0  0  0  0  0  0  0  0  0  0  0  0
   10.5868  -16.4399   23.4779 O   0  0  0  0  0  0  0  0  0  0  0  0
    8.4948  -15.8944   24.1908 N   0  0  0  0  0  0  0  0  0  0  0  0
    8.8336  -15.5635   25.5437 C   0  0  1  0  0  0  0  0  0  0  0  0
    7.7992  -14.8443   26.3133 C   0  0  0  0  0  0  0  0  0  0  0  0
    7.4328  -13.4707   25.8257 C   0  0  0  0  0  0  0  0  0  0  0  0
    6.3084  -12.8218   26.5940 C   0  0  0  0  0  0  0  0  0  0  0  0
    6.0639  -11.4453   25.9929 C   0  0  0  0  0  0  0  0  0  0  0  0
    4.9491  -10.8643   26.7314 N   0  0  0  0  0  0  0  0  0  0  0  0
    9.4270  -16.7197   26.2271 C   0  0  0  0  0  0  0  0  0  0  0  0
    9.0949  -17.9129   26.0105 O   0  0  0  0  0  0  0  0  0  0  0  0
   10.4235  -16.5126   27.1830 O   0  0  0  0  0  0  0  0  0  0  0  0
  2  1  1  6
  2  3  1  0
  3  4  1  0
  4  5  2  0
  6 11  1  0
  6  2  1  0
  7  6  2  0
  8  4  1  0
 10  9  1  1
 10 12  1  0
 10 11  1  0
 12 14  1  0
 13 12  2  0
 14 15  1  0
 15 21  1  0
 15 16  1  1
 16 17  1  0
 18 19  1  0
 18 17  1  0
 20 19  1  0
 21 23  1  0
 22 21  2  0
M  END
$$$$
