DAK.pdb
     RDKit          3D

 23 22  0  0  1  0  0  0  0  0999 V2000
    9.1274  -14.5971   14.7959 N   0  0  0  0  0  0  0  0  0  0  0  0
    8.4377  -15.4476   15.7417 C   0  0  1  0  0  0  0  0  0  0  0  0
    8.6673  -16.9157   15.4388 C   0  0  0  0  0  0  0  0  0  0  0  0
    7.9189  -17.7794   16.3798 C   0  0  0  0  0  0  0  0  0  0  0  0
    6.7980  -17.4252   16.7903 O   0  0  0  0  0  0  0  0  0  0  0  0
    8.8061  -15.1262   17.1422 C   0  0  0  0  0  0  0  0  0  0  0  0
    9.9121  -15.4952   17.6103 O   0  0  0  0  0  0  0  0  0  0  0  0
    8.4501  -18.9816   16.8119 O   0  0  0  0  0  0  0  0  0  0  0  0
    7.3754  -13.0699   19.9911 C   0  0  0  0  0  0  0  0  0  0  0  0
    8.3710  -13.9609   19.2881 C   0  0  2  0  0  0  0  0  0  0  0  0
    7.9404  -14.3988   18.0039 N   0  0  0  0  0  0  0  0  0  0  0  0
    8.7102  -15.0760   20.2085 C   0  0  0  0  0  0  0  0  0  0  0  0
    8.0794  -16.1504   20.0743 O   0  0  0  0  0  0  0  0  0  0  0  0
    9.6832  -14.9989   21.2074 N   0  0  0  0  0  0  0  0  0  0  0  0
   10.3353  -16.1003   21.8527 C   0  0  1  0  0  0  0  0  0  0  0  0
   10.9121  -17.1250   20.9601 C   0  0  0  0  0  0  0  0  0  0  0  0
   11.5720  -18.3004   21.6249 C   0  0  0  0  0  0  0  0  0  0  0  0
   12.0740  -19.3511   20.6660 C   0  0  0  0  0  0  0  0  0  0  0  0
   12.5441  -20.5452   21.4840 C   0  0  0  0  0  0  0  0  0  0  0  0
   12.9242  -21.5774   20.5269 N   0  0  0  0  0  0  0  0  0  0  0  0
   11.2314  -15.6229   22.9135 C   0  0  0  0  0  0  0  0  0  0  0  0
   11.8019  -14.5025   22.9026 O   0  0  0  0  0  0  0  0  0  0  0  0
   11.4858  -16.4424   24.0149 O   0  0  0  0  0  0  0  0  0  0  0  0
  2  1  1  6
  2  3  1  0
  3  4  1  0
  4  5  2  0
  6 11  1  0
  6  2  1  0
  7  6  2  0
  8  4  1  0
 10  9  1  1
 10 12  1  0
 10 11  1  0
 12 14  1  0
 13 12  2  0
 14 15  1  0
 15 21  1  0
 15 16  1  6
 16 17  1  0
 18 19  1  0
 18 17  1  0
 20 19  1  0
 21 23  1  0
 22 21  2  0
M  END
$$$$
