DAK.pdb
     RDKit          3D

 23 22  0  0  1  0  0  0  0  0999 V2000
    7.4125  -17.7172   17.0430 N   0  0  0  0  0  0  0  0  0  0  0  0
    8.7660  -17.2183   16.9303 C   0  0  1  0  0  0  0  0  0  0  0  0
    8.9683  -16.4476   15.6401 C   0  0  0  0  0  0  0  0  0  0  0  0
    8.7515  -17.3144   14.4597 C   0  0  0  0  0  0  0  0  0  0  0  0
    7.5931  -17.5989   14.1025 O   0  0  0  0  0  0  0  0  0  0  0  0
    9.1519  -16.4021   18.1073 C   0  0  0  0  0  0  0  0  0  0  0  0
   10.3194  -15.9503   18.2136 O   0  0  0  0  0  0  0  0  0  0  0  0
    9.8239  -17.8159   13.7436 O   0  0  0  0  0  0  0  0  0  0  0  0
    7.4897  -14.9906   21.2123 C   0  0  0  0  0  0  0  0  0  0  0  0
    8.6296  -15.3317   20.2830 C   0  0  2  0  0  0  0  0  0  0  0  0
    8.2351  -16.0988   19.1506 N   0  0  0  0  0  0  0  0  0  0  0  0
    9.6952  -15.9778   21.0910 C   0  0  0  0  0  0  0  0  0  0  0  0
    9.5561  -17.1918   21.3689 O   0  0  0  0  0  0  0  0  0  0  0  0
   10.8348  -15.3176   21.5560 N   0  0  0  0  0  0  0  0  0  0  0  0
   11.9032  -15.8913   22.3201 C   0  0  1  0  0  0  0  0  0  0  0  0
   13.2530  -15.3587   22.0481 C   0  0  0  0  0  0  0  0  0  0  0  0
   13.6337  -15.2000   20.6028 C   0  0  0  0  0  0  0  0  0  0  0  0
   15.0106  -14.6232   20.3863 C   0  0  0  0  0  0  0  0  0  0  0  0
   15.2674  -14.5746   18.8871 C   0  0  0  0  0  0  0  0  0  0  0  0
   16.5538  -13.9115   18.7098 N   0  0  0  0  0  0  0  0  0  0  0  0
   11.5399  -15.9711   23.7406 C   0  0  0  0  0  0  0  0  0  0  0  0
   12.1875  -16.6242   24.5978 O   0  0  0  0  0  0  0  0  0  0  0  0
   10.4092  -15.2910   24.1972 O   0  0  0  0  0  0  0  0  0  0  0  0
  2  1  1  1
  2  3  1  0
  3  4  1  0
  4  5  2  0
  6 11  1  0
  6  2  1  0
  7  6  2  0
  8  4  1  0
 10  9  1  1
 10 12  1  0
 10 11  1  0
 12 14  1  0
 13 12  2  0
 14 15  1  0
 15 21  1  0
 15 16  1  1
 16 17  1  0
 18 19  1  0
 18 17  1  0
 20 19  1  0
 21 23  1  0
 22 21  2  0
M  END
$$$$
