DAK.pdb
     RDKit          3D

 23 22  0  0  1  0  0  0  0  0999 V2000
   10.3703  -16.3612   17.4302 N   0  0  0  0  0  0  0  0  0  0  0  0
   10.5173  -17.0881   18.6726 C   0  0  1  0  0  0  0  0  0  0  0  0
   11.9372  -17.5866   18.8597 C   0  0  0  0  0  0  0  0  0  0  0  0
   12.3140  -18.5410   17.7927 C   0  0  0  0  0  0  0  0  0  0  0  0
   11.5179  -19.4347   17.4494 O   0  0  0  0  0  0  0  0  0  0  0  0
   10.0747  -16.2833   19.8374 C   0  0  0  0  0  0  0  0  0  0  0  0
   10.9153  -15.6837   20.5533 O   0  0  0  0  0  0  0  0  0  0  0  0
   13.5452  -18.4535   17.1676 O   0  0  0  0  0  0  0  0  0  0  0  0
    6.8005  -15.2440   21.4486 C   0  0  0  0  0  0  0  0  0  0  0  0
    8.2981  -15.3793   21.3134 C   0  0  2  0  0  0  0  0  0  0  0  0
    8.7038  -16.1556   20.1912 N   0  0  0  0  0  0  0  0  0  0  0  0
    8.8255  -15.8888   22.6048 C   0  0  0  0  0  0  0  0  0  0  0  0
    9.1921  -17.0863   22.6490 O   0  0  0  0  0  0  0  0  0  0  0  0
    8.9364  -15.1184   23.7644 N   0  0  0  0  0  0  0  0  0  0  0  0
    9.2819  -15.5886   25.0737 C   0  0  1  0  0  0  0  0  0  0  0  0
    9.5034  -14.5488   26.0980 C   0  0  0  0  0  0  0  0  0  0  0  0
    9.8611  -15.0294   27.4765 C   0  0  0  0  0  0  0  0  0  0  0  0
   10.1240  -13.9232   28.4677 C   0  0  0  0  0  0  0  0  0  0  0  0
   10.4057  -14.5629   29.8194 C   0  0  0  0  0  0  0  0  0  0  0  0
   10.6499  -13.4685   30.7514 N   0  0  0  0  0  0  0  0  0  0  0  0
    8.3949  -16.6855   25.4813 C   0  0  0  0  0  0  0  0  0  0  0  0
    7.1514  -16.6921   25.2954 O   0  0  0  0  0  0  0  0  0  0  0  0
    8.9369  -17.8034   26.1183 O   0  0  0  0  0  0  0  0  0  0  0  0
  2  1  1  6
  2  3  1  0
  3  4  1  0
  4  5  2  0
  6 11  1  0
  6  2  1  0
  7  6  2  0
  8  4  1  0
 10  9  1  1
 10 12  1  0
 10 11  1  0
 12 14  1  0
 13 12  2  0
 14 15  1  0
 15 21  1  0
 15 16  1  1
 16 17  1  0
 18 19  1  0
 18 17  1  0
 20 19  1  0
 21 23  1  0
 22 21  2  0
M  END
$$$$
