DAK.pdb
     RDKit          3D

 23 22  0  0  1  0  0  0  0  0999 V2000
    8.2305  -16.8296   16.4201 N   0  0  0  0  0  0  0  0  0  0  0  0
    7.9514  -17.4647   17.6899 C   0  0  1  0  0  0  0  0  0  0  0  0
    8.4376  -18.9009   17.7114 C   0  0  0  0  0  0  0  0  0  0  0  0
    7.8010  -19.6970   16.6378 C   0  0  0  0  0  0  0  0  0  0  0  0
    8.4733  -20.5282   15.9992 O   0  0  0  0  0  0  0  0  0  0  0  0
    8.5114  -16.6932   18.8265 C   0  0  0  0  0  0  0  0  0  0  0  0
    9.7546  -16.6042   18.9846 O   0  0  0  0  0  0  0  0  0  0  0  0
    6.4620  -19.5299   16.3321 O   0  0  0  0  0  0  0  0  0  0  0  0
    7.2093  -14.5100   21.6426 C   0  0  0  0  0  0  0  0  0  0  0  0
    8.2379  -15.2664   20.8369 C   0  0  2  0  0  0  0  0  0  0  0  0
    7.6821  -16.0307   19.7722 N   0  0  0  0  0  0  0  0  0  0  0  0
    9.0493  -16.0747   21.7823 C   0  0  0  0  0  0  0  0  0  0  0  0
    8.6858  -17.2548   21.9957 O   0  0  0  0  0  0  0  0  0  0  0  0
   10.1852  -15.6012   22.4429 N   0  0  0  0  0  0  0  0  0  0  0  0
   11.0279  -16.3434   23.3336 C   0  0  1  0  0  0  0  0  0  0  0  0
   12.4758  -16.0739   23.2309 C   0  0  0  0  0  0  0  0  0  0  0  0
   13.3783  -16.9161   24.0885 C   0  0  0  0  0  0  0  0  0  0  0  0
   14.8467  -16.6132   23.9236 C   0  0  0  0  0  0  0  0  0  0  0  0
   15.6281  -17.6111   24.7659 C   0  0  0  0  0  0  0  0  0  0  0  0
   17.0320  -17.2326   24.6582 N   0  0  0  0  0  0  0  0  0  0  0  0
   10.4859  -16.3224   24.6981 C   0  0  0  0  0  0  0  0  0  0  0  0
    9.7300  -15.4211   25.1421 O   0  0  0  0  0  0  0  0  0  0  0  0
   10.8136  -17.3534   25.5808 O   0  0  0  0  0  0  0  0  0  0  0  0
  2  1  1  6
  2  3  1  0
  3  4  1  0
  4  5  2  0
  6 11  1  0
  6  2  1  0
  7  6  2  0
  8  4  1  0
 10  9  1  1
 10 12  1  0
 10 11  1  0
 12 14  1  0
 13 12  2  0
 14 15  1  0
 15 21  1  0
 15 16  1  1
 16 17  1  0
 18 19  1  0
 18 17  1  0
 20 19  1  0
 21 23  1  0
 22 21  2  0
M  END
$$$$
