DAK.pdb
     RDKit          3D

 23 22  0  0  1  0  0  0  0  0999 V2000
   12.8837  -17.5636   18.9601 N   0  0  0  0  0  0  0  0  0  0  0  0
   12.6615  -17.7884   20.3721 C   0  0  1  0  0  0  0  0  0  0  0  0
   13.8169  -17.2692   21.2058 C   0  0  0  0  0  0  0  0  0  0  0  0
   15.0800  -17.9582   20.8572 C   0  0  0  0  0  0  0  0  0  0  0  0
   15.0874  -19.1913   20.6841 O   0  0  0  0  0  0  0  0  0  0  0  0
   11.3725  -17.2110   20.8256 C   0  0  0  0  0  0  0  0  0  0  0  0
   11.1743  -15.9718   20.7670 O   0  0  0  0  0  0  0  0  0  0  0  0
   16.2591  -17.2475   20.7199 O   0  0  0  0  0  0  0  0  0  0  0  0
    7.9629  -18.4689   21.8595 C   0  0  0  0  0  0  0  0  0  0  0  0
    9.0709  -17.4532   21.7179 C   0  0  2  0  0  0  0  0  0  0  0  0
   10.3209  -18.0188   21.3383 N   0  0  0  0  0  0  0  0  0  0  0  0
    9.1352  -16.6738   22.9804 C   0  0  0  0  0  0  0  0  0  0  0  0
   10.0774  -16.9231   23.7681 O   0  0  0  0  0  0  0  0  0  0  0  0
    8.2148  -15.6866   23.3394 N   0  0  0  0  0  0  0  0  0  0  0  0
    8.2030  -14.9306   24.5572 C   0  0  1  0  0  0  0  0  0  0  0  0
    7.1659  -13.8852   24.6609 C   0  0  0  0  0  0  0  0  0  0  0  0
    7.1475  -13.0808   25.9304 C   0  0  0  0  0  0  0  0  0  0  0  0
    6.0504  -12.0474   25.9913 C   0  0  0  0  0  0  0  0  0  0  0  0
    6.1249  -11.3649   27.3494 C   0  0  0  0  0  0  0  0  0  0  0  0
    4.9793  -10.4659   27.4233 N   0  0  0  0  0  0  0  0  0  0  0  0
    8.3089  -15.8203   25.7206 C   0  0  0  0  0  0  0  0  0  0  0  0
    7.6047  -16.8484   25.8877 O   0  0  0  0  0  0  0  0  0  0  0  0
    9.2396  -15.5317   26.7205 O   0  0  0  0  0  0  0  0  0  0  0  0
  2  1  1  6
  2  3  1  0
  3  4  1  0
  4  5  2  0
  6 11  1  0
  6  2  1  0
  7  6  2  0
  8  4  1  0
 10  9  1  1
 10 12  1  0
 10 11  1  0
 12 14  1  0
 13 12  2  0
 14 15  1  0
 15 21  1  0
 15 16  1  1
 16 17  1  0
 18 19  1  0
 18 17  1  0
 20 19  1  0
 21 23  1  0
 22 21  2  0
M  END
$$$$
