DAK.pdb
     RDKit          3D

 23 22  0  0  1  0  0  0  0  0999 V2000
   13.4472  -18.3463   17.1551 N   0  0  0  0  0  0  0  0  0  0  0  0
   12.9137  -19.4262   17.9568 C   0  0  1  0  0  0  0  0  0  0  0  0
   13.7316  -20.6931   17.7970 C   0  0  0  0  0  0  0  0  0  0  0  0
   13.8255  -21.0933   16.3749 C   0  0  0  0  0  0  0  0  0  0  0  0
   12.7997  -21.1257   15.6699 O   0  0  0  0  0  0  0  0  0  0  0  0
   12.7923  -19.0440   19.3850 C   0  0  0  0  0  0  0  0  0  0  0  0
   13.7943  -18.6317   20.0210 O   0  0  0  0  0  0  0  0  0  0  0  0
   15.0439  -21.4336   15.8145 O   0  0  0  0  0  0  0  0  0  0  0  0
   10.0458  -18.3079   21.8412 C   0  0  0  0  0  0  0  0  0  0  0  0
   11.4482  -18.6977   21.4406 C   0  0  2  0  0  0  0  0  0  0  0  0
   11.5590  -19.1253   20.0873 N   0  0  0  0  0  0  0  0  0  0  0  0
   11.9361  -19.7031   22.4187 C   0  0  0  0  0  0  0  0  0  0  0  0
   11.9372  -20.9046   22.0630 O   0  0  0  0  0  0  0  0  0  0  0  0
   12.3903  -19.3912   23.7021 N   0  0  0  0  0  0  0  0  0  0  0  0
   13.3677  -20.1135   24.4621 C   0  0  1  0  0  0  0  0  0  0  0  0
   14.7072  -20.2288   23.8522 C   0  0  0  0  0  0  0  0  0  0  0  0
   15.7274  -21.0244   24.6172 C   0  0  0  0  0  0  0  0  0  0  0  0
   17.0795  -21.0969   23.9525 C   0  0  0  0  0  0  0  0  0  0  0  0
   18.0260  -21.8262   24.8950 C   0  0  0  0  0  0  0  0  0  0  0  0
   19.3433  -21.7842   24.2714 N   0  0  0  0  0  0  0  0  0  0  0  0
   13.3575  -19.6798   25.8650 C   0  0  0  0  0  0  0  0  0  0  0  0
   13.3620  -18.4768   26.2305 O   0  0  0  0  0  0  0  0  0  0  0  0
   13.3431  -20.6402   26.8783 O   0  0  0  0  0  0  0  0  0  0  0  0
  2  1  1  6
  2  3  1  0
  3  4  1  0
  4  5  2  0
  6 11  1  0
  6  2  1  0
  7  6  2  0
  8  4  1  0
 10  9  1  1
 10 12  1  0
 10 11  1  0
 12 14  1  0
 13 12  2  0
 14 15  1  0
 15 21  1  0
 15 16  1  6
 16 17  1  0
 18 19  1  0
 18 17  1  0
 20 19  1  0
 21 23  1  0
 22 21  2  0
M  END
$$$$
