DAK.pdb
     RDKit          3D

 23 22  0  0  1  0  0  0  0  0999 V2000
    8.6355  -15.3969   20.6042 N   0  0  0  0  0  0  0  0  0  0  0  0
    7.7223  -15.5329   21.7183 C   0  0  1  0  0  0  0  0  0  0  0  0
    7.4617  -16.9899   22.0481 C   0  0  0  0  0  0  0  0  0  0  0  0
    6.9825  -17.7300   20.8589 C   0  0  0  0  0  0  0  0  0  0  0  0
    6.0361  -17.2793   20.1867 O   0  0  0  0  0  0  0  0  0  0  0  0
    8.1955  -14.7904   22.9122 C   0  0  0  0  0  0  0  0  0  0  0  0
    9.3887  -14.8903   23.2925 O   0  0  0  0  0  0  0  0  0  0  0  0
    7.5746  -18.9221   20.4813 O   0  0  0  0  0  0  0  0  0  0  0  0
    6.8034  -12.3225   25.4319 C   0  0  0  0  0  0  0  0  0  0  0  0
    7.7718  -13.3406   24.8796 C   0  0  2  0  0  0  0  0  0  0  0  0
    7.3361  -13.9466   23.6674 N   0  0  0  0  0  0  0  0  0  0  0  0
    8.0631  -14.3201   25.9573 C   0  0  0  0  0  0  0  0  0  0  0  0
    7.2180  -15.2218   26.1648 O   0  0  0  0  0  0  0  0  0  0  0  0
    9.2146  -14.2963   26.7473 N   0  0  0  0  0  0  0  0  0  0  0  0
    9.5768  -15.2443   27.7596 C   0  0  1  0  0  0  0  0  0  0  0  0
   10.7740  -16.0625   27.4824 C   0  0  0  0  0  0  0  0  0  0  0  0
   10.5321  -17.4763   27.0332 C   0  0  0  0  0  0  0  0  0  0  0  0
   11.7803  -18.2155   26.6202 C   0  0  0  0  0  0  0  0  0  0  0  0
   11.3752  -19.6218   26.2029 C   0  0  0  0  0  0  0  0  0  0  0  0
   12.6040  -20.3116   25.8285 N   0  0  0  0  0  0  0  0  0  0  0  0
    9.5421  -14.6217   29.0890 C   0  0  0  0  0  0  0  0  0  0  0  0
    9.3364  -13.3975   29.2885 O   0  0  0  0  0  0  0  0  0  0  0  0
    9.7483  -15.4128   30.2209 O   0  0  0  0  0  0  0  0  0  0  0  0
  2  1  1  6
  2  3  1  0
  3  4  1  0
  4  5  2  0
  6 11  1  0
  6  2  1  0
  7  6  2  0
  8  4  1  0
 10  9  1  1
 10 12  1  0
 10 11  1  0
 12 14  1  0
 13 12  2  0
 14 15  1  0
 15 21  1  0
 15 16  1  6
 16 17  1  0
 18 19  1  0
 18 17  1  0
 20 19  1  0
 21 23  1  0
 22 21  2  0
M  END
$$$$
