MAV.pdb
     RDKit          3D

 21 20  0  0  1  0  0  0  0  0999 V2000
    8.7281  -12.2116   20.3529 C   0  0  0  0  0  0  0  0  0  0  0  0
    7.6324  -12.8481   19.0390 S   0  0  0  0  0  0  0  0  0  0  0  0
    7.3823  -14.6057   19.2913 C   0  0  0  0  0  0  0  0  0  0  0  0
    7.1423  -14.9050   20.7742 C   0  0  0  0  0  0  0  0  0  0  0  0
    6.8284  -16.3562   20.9902 C   0  0  2  0  0  0  0  0  0  0  0  0
    5.5634  -16.7162   20.3825 N   0  0  0  0  0  0  0  0  0  0  0  0
    6.7767  -16.5648   22.4746 C   0  0  0  0  0  0  0  0  0  0  0  0
    5.9158  -15.9957   23.1823 O   0  0  0  0  0  0  0  0  0  0  0  0
    8.0351  -19.0220   24.9616 C   0  0  0  0  0  0  0  0  0  0  0  0
    7.7863  -17.6063   24.5530 C   0  0  2  0  0  0  0  0  0  0  0  0
    7.7028  -17.4169   23.1361 N   0  0  0  0  0  0  0  0  0  0  0  0
    8.7514  -16.6555   25.1873 C   0  0  0  0  0  0  0  0  0  0  0  0
    9.7407  -16.2697   24.5171 O   0  0  0  0  0  0  0  0  0  0  0  0
    7.6801  -13.4519   26.8778 C   0  0  0  0  0  0  0  0  0  0  0  0
    8.6674  -14.1056   27.8232 C   0  0  2  0  0  0  0  0  0  0  0  0
    9.6017  -13.0828   28.4354 C   0  0  0  0  0  0  0  0  0  0  0  0
    9.4420  -15.2083   27.1505 C   0  0  2  0  0  0  0  0  0  0  0  0
    8.6086  -16.1698   26.4974 N   0  0  0  0  0  0  0  0  0  0  0  0
   10.3743  -15.8286   28.1317 C   0  0  0  0  0  0  0  0  0  0  0  0
   11.5592  -15.1498   28.3780 O   0  0  0  0  0  0  0  0  0  0  0  0
   10.1485  -16.8916   28.7218 O   0  0  0  0  0  0  0  0  0  0  0  0
  2  1  1  0
  3  2  1  0
  4  3  1  0
  5  4  1  0
  5  6  1  6
  5  7  1  0
  7  8  2  0
 10  9  1  6
 10 12  1  0
 11  7  1  0
 11 10  1  0
 12 13  2  0
 12 18  1  0
 15 16  1  6
 15 14  1  0
 17 15  1  0
 17 18  1  1
 19 17  1  0
 19 20  1  0
 21 19  2  0
M  END
$$$$
