MAV.pdb
     RDKit          3D

 21 20  0  0  1  0  0  0  0  0999 V2000
    6.9399  -11.0455   25.7357 C   0  0  0  0  0  0  0  0  0  0  0  0
    5.5427  -11.9719   26.4577 S   0  0  0  0  0  0  0  0  0  0  0  0
    5.3142  -13.4922   25.5346 C   0  0  0  0  0  0  0  0  0  0  0  0
    6.6197  -14.2921   25.4887 C   0  0  0  0  0  0  0  0  0  0  0  0
    6.4897  -15.4906   24.5955 C   0  0  2  0  0  0  0  0  0  0  0  0
    5.4263  -16.3668   25.0435 N   0  0  0  0  0  0  0  0  0  0  0  0
    7.8100  -16.2008   24.6403 C   0  0  0  0  0  0  0  0  0  0  0  0
    8.0811  -17.0139   25.5520 O   0  0  0  0  0  0  0  0  0  0  0  0
   10.8842  -16.3150   22.3911 C   0  0  0  0  0  0  0  0  0  0  0  0
   10.1164  -16.5539   23.6506 C   0  0  2  0  0  0  0  0  0  0  0  0
    8.8050  -15.9789   23.6493 N   0  0  0  0  0  0  0  0  0  0  0  0
   10.8934  -16.1690   24.8696 C   0  0  0  0  0  0  0  0  0  0  0  0
   11.8604  -15.3787   24.7391 O   0  0  0  0  0  0  0  0  0  0  0  0
   10.4772  -13.7991   27.0514 C   0  0  0  0  0  0  0  0  0  0  0  0
   10.4210  -15.0027   27.9703 C   0  0  2  0  0  0  0  0  0  0  0  0
   10.9444  -14.6649   29.3509 C   0  0  0  0  0  0  0  0  0  0  0  0
   11.1528  -16.1848   27.3911 C   0  0  2  0  0  0  0  0  0  0  0  0
   10.5971  -16.6465   26.1568 N   0  0  0  0  0  0  0  0  0  0  0  0
   11.2465  -17.2603   28.4166 C   0  0  0  0  0  0  0  0  0  0  0  0
   10.3513  -18.3135   28.2963 O   0  0  0  0  0  0  0  0  0  0  0  0
   12.0629  -17.2591   29.3455 O   0  0  0  0  0  0  0  0  0  0  0  0
  2  1  1  0
  3  2  1  0
  4  3  1  0
  5  4  1  0
  5  6  1  1
  5  7  1  0
  7  8  2  0
 10  9  1  6
 10 12  1  0
 11  7  1  0
 11 10  1  0
 12 13  2  0
 12 18  1  0
 15 16  1  1
 15 14  1  0
 17 15  1  0
 17 18  1  6
 19 17  1  0
 19 20  1  0
 21 19  2  0
M  END
$$$$
