MAV.pdb
     RDKit          3D

 21 20  0  0  1  0  0  0  0  0999 V2000
    9.1605  -11.7384   20.6781 C   0  0  0  0  0  0  0  0  0  0  0  0
    7.9319  -12.2124   19.4141 S   0  0  0  0  0  0  0  0  0  0  0  0
    7.7605  -13.9973   19.4105 C   0  0  0  0  0  0  0  0  0  0  0  0
    7.9143  -14.5529   20.8296 C   0  0  0  0  0  0  0  0  0  0  0  0
    7.8596  -16.0523   20.8334 C   0  0  2  0  0  0  0  0  0  0  0  0
    6.5847  -16.5328   20.3405 N   0  0  0  0  0  0  0  0  0  0  0  0
    8.0697  -16.4829   22.2547 C   0  0  0  0  0  0  0  0  0  0  0  0
    7.1692  -16.3538   23.1138 O   0  0  0  0  0  0  0  0  0  0  0  0
   10.4906  -18.7155   24.0390 C   0  0  0  0  0  0  0  0  0  0  0  0
    9.5728  -17.5368   24.0021 C   0  0  2  0  0  0  0  0  0  0  0  0
    9.2993  -17.0548   22.6818 N   0  0  0  0  0  0  0  0  0  0  0  0
   10.0222  -16.4400   24.9147 C   0  0  0  0  0  0  0  0  0  0  0  0
   10.6841  -15.4898   24.4291 O   0  0  0  0  0  0  0  0  0  0  0  0
    8.2819  -13.8842   26.3704 C   0  0  0  0  0  0  0  0  0  0  0  0
    8.9362  -14.4981   27.5914 C   0  0  2  0  0  0  0  0  0  0  0  0
    9.3670  -13.4329   28.5781 C   0  0  0  0  0  0  0  0  0  0  0  0
   10.0932  -15.3879   27.2198 C   0  0  2  0  0  0  0  0  0  0  0  0
    9.7417  -16.4168   26.2907 N   0  0  0  0  0  0  0  0  0  0  0  0
   10.7241  -15.9230   28.4578 C   0  0  0  0  0  0  0  0  0  0  0  0
   11.6686  -15.1142   29.0735 O   0  0  0  0  0  0  0  0  0  0  0  0
   10.4531  -17.0246   28.9500 O   0  0  0  0  0  0  0  0  0  0  0  0
  2  1  1  0
  3  2  1  0
  4  3  1  0
  5  4  1  0
  5  6  1  1
  5  7  1  0
  7  8  2  0
 10  9  1  6
 10 12  1  0
 11  7  1  0
 11 10  1  0
 12 13  2  0
 12 18  1  0
 15 16  1  1
 15 14  1  0
 17 15  1  0
 17 18  1  6
 19 17  1  0
 19 20  1  0
 21 19  2  0
M  END
$$$$
