MAV.pdb
     RDKit          3D

 21 20  0  0  1  0  0  0  0  0999 V2000
    7.2889  -11.9923   19.8183 C   0  0  0  0  0  0  0  0  0  0  0  0
    8.7851  -12.9133   19.3231 S   0  0  0  0  0  0  0  0  0  0  0  0
    8.7384  -14.5428   20.0700 C   0  0  0  0  0  0  0  0  0  0  0  0
    7.8777  -15.4921   19.2307 C   0  0  0  0  0  0  0  0  0  0  0  0
    7.8262  -16.8610   19.8429 C   0  0  2  0  0  0  0  0  0  0  0  0
    7.0251  -17.7647   19.0423 N   0  0  0  0  0  0  0  0  0  0  0  0
    7.2264  -16.6954   21.2075 C   0  0  0  0  0  0  0  0  0  0  0  0
    6.0606  -16.2662   21.3585 O   0  0  0  0  0  0  0  0  0  0  0  0
    7.5368  -18.2384   24.4701 C   0  0  0  0  0  0  0  0  0  0  0  0
    7.4486  -16.9493   23.7195 C   0  0  2  0  0  0  0  0  0  0  0  0
    7.9576  -17.0195   22.3829 N   0  0  0  0  0  0  0  0  0  0  0  0
    8.0408  -15.8073   24.4829 C   0  0  0  0  0  0  0  0  0  0  0  0
    9.2308  -15.4824   24.2482 O   0  0  0  0  0  0  0  0  0  0  0  0
    5.6451  -12.7341   25.8646 C   0  0  0  0  0  0  0  0  0  0  0  0
    6.7091  -13.1625   26.8547 C   0  0  2  0  0  0  0  0  0  0  0  0
    7.2705  -11.9738   27.6068 C   0  0  0  0  0  0  0  0  0  0  0  0
    7.8091  -13.9483   26.1907 C   0  0  2  0  0  0  0  0  0  0  0  0
    7.3334  -15.0768   25.4518 N   0  0  0  0  0  0  0  0  0  0  0  0
    8.8359  -14.3167   27.2040 C   0  0  0  0  0  0  0  0  0  0  0  0
    9.6838  -13.3029   27.6265 O   0  0  0  0  0  0  0  0  0  0  0  0
    8.9651  -15.4532   27.6742 O   0  0  0  0  0  0  0  0  0  0  0  0
  2  1  1  0
  3  2  1  0
  4  3  1  0
  5  4  1  0
  5  6  1  6
  5  7  1  0
  7  8  2  0
 10  9  1  1
 10 12  1  0
 11  7  1  0
 11 10  1  0
 12 13  2  0
 12 18  1  0
 15 16  1  6
 15 14  1  0
 17 15  1  0
 17 18  1  1
 19 17  1  0
 19 20  1  0
 21 19  2  0
M  END
$$$$
