MAV.pdb
     RDKit          3D

 21 20  0  0  1  0  0  0  0  0999 V2000
    8.0638  -11.7877   19.3942 C   0  0  0  0  0  0  0  0  0  0  0  0
    6.6611  -12.9229   19.6688 S   0  0  0  0  0  0  0  0  0  0  0  0
    7.2818  -14.4591   20.3545 C   0  0  0  0  0  0  0  0  0  0  0  0
    8.7802  -14.3459   20.6519 C   0  0  0  0  0  0  0  0  0  0  0  0
    9.3208  -15.6303   21.2080 C   0  0  2  0  0  0  0  0  0  0  0  0
    8.7055  -16.7780   20.5729 N   0  0  0  0  0  0  0  0  0  0  0  0
    9.0201  -15.6186   22.6774 C   0  0  0  0  0  0  0  0  0  0  0  0
    9.3777  -14.6673   23.4075 O   0  0  0  0  0  0  0  0  0  0  0  0
    7.1719  -17.9553   25.0590 C   0  0  0  0  0  0  0  0  0  0  0  0
    8.0188  -16.7788   24.6961 C   0  0  2  0  0  0  0  0  0  0  0  0
    8.3170  -16.6868   23.2986 N   0  0  0  0  0  0  0  0  0  0  0  0
    9.2526  -16.6876   25.5371 C   0  0  0  0  0  0  0  0  0  0  0  0
   10.3416  -17.0761   25.0476 O   0  0  0  0  0  0  0  0  0  0  0  0
    9.2313  -14.6655   29.4505 C   0  0  0  0  0  0  0  0  0  0  0  0
   10.3848  -14.7306   28.4700 C   0  0  2  0  0  0  0  0  0  0  0  0
   10.3749  -13.5428   27.5303 C   0  0  0  0  0  0  0  0  0  0  0  0
   10.3947  -16.0257   27.7012 C   0  0  2  0  0  0  0  0  0  0  0  0
    9.2569  -16.1887   26.8500 N   0  0  0  0  0  0  0  0  0  0  0  0
   10.5717  -17.1619   28.6471 C   0  0  0  0  0  0  0  0  0  0  0  0
    9.5273  -18.0718   28.7279 O   0  0  0  0  0  0  0  0  0  0  0  0
   11.5788  -17.3284   29.3452 O   0  0  0  0  0  0  0  0  0  0  0  0
  2  1  1  0
  3  2  1  0
  4  3  1  0
  5  4  1  0
  5  6  1  6
  5  7  1  0
  7  8  2  0
 10  9  1  6
 10 12  1  0
 11  7  1  0
 11 10  1  0
 12 13  2  0
 12 18  1  0
 15 16  1  6
 15 14  1  0
 17 15  1  0
 17 18  1  1
 19 17  1  0
 19 20  1  0
 21 19  2  0
M  END
$$$$
