YDL.pdb
     RDKit          3D

 29 29  0  0  1  0  0  0  0  0999 V2000
    7.2176  -12.0645   16.8764 O   0  0  0  0  0  0  0  0  0  0  0  0
    7.5377  -12.7812   18.0265 C   0  0  0  0  0  0  0  0  0  0  0  0
    6.5156  -13.4312   18.7027 C   0  0  0  0  0  0  0  0  0  0  0  0
    6.7953  -14.1477   19.8412 C   0  0  0  0  0  0  0  0  0  0  0  0
    8.0806  -14.2235   20.3126 C   0  0  0  0  0  0  0  0  0  0  0  0
    8.3306  -14.9964   21.5497 C   0  0  0  0  0  0  0  0  0  0  0  0
    8.7840  -16.4177   21.2994 C   0  0  2  0  0  0  0  0  0  0  0  0
    7.6415  -17.1474   20.7651 N   0  0  0  0  0  0  0  0  0  0  0  0
    9.2494  -17.0231   22.5647 C   0  0  0  0  0  0  0  0  0  0  0  0
    8.4049  -17.4520   23.3870 O   0  0  0  0  0  0  0  0  0  0  0  0
    9.0852  -13.5781   19.6394 C   0  0  0  0  0  0  0  0  0  0  0  0
    8.8207  -12.8573   18.4984 C   0  0  0  0  0  0  0  0  0  0  0  0
   10.6265  -17.1553   22.9229 N   0  0  0  0  0  0  0  0  0  0  0  0
   11.0351  -17.6437   24.2276 C   0  0  1  0  0  0  0  0  0  0  0  0
   12.5252  -17.9632   24.1010 C   0  0  0  0  0  0  0  0  0  0  0  0
   12.7873  -19.0331   23.1205 C   0  0  0  0  0  0  0  0  0  0  0  0
   12.0251  -20.0268   22.9914 O   0  0  0  0  0  0  0  0  0  0  0  0
   10.9166  -16.5987   25.2676 C   0  0  0  0  0  0  0  0  0  0  0  0
   11.5609  -15.5191   25.1333 O   0  0  0  0  0  0  0  0  0  0  0  0
   13.9045  -18.9505   22.3118 O   0  0  0  0  0  0  0  0  0  0  0  0
    9.8270  -12.8722   28.3576 C   0  0  0  0  0  0  0  0  0  0  0  0
    8.6423  -13.8471   28.3736 C   0  0  1  0  0  0  0  0  0  0  0  0
    7.3480  -13.0422   28.1586 C   0  0  0  0  0  0  0  0  0  0  0  0
    8.8225  -14.8327   27.2619 C   0  0  0  0  0  0  0  0  0  0  0  0
   10.0501  -15.6665   27.4678 C   0  0  2  0  0  0  0  0  0  0  0  0
   10.1197  -16.7178   26.4263 N   0  0  0  0  0  0  0  0  0  0  0  0
    9.9900  -16.3603   28.7572 C   0  0  0  0  0  0  0  0  0  0  0  0
   10.5880  -15.8314   29.9047 O   0  0  0  0  0  0  0  0  0  0  0  0
    9.4116  -17.4546   28.9229 O   0  0  0  0  0  0  0  0  0  0  0  0
  2  1  1  0
  2 12  2  0
  3  2  1  0
  4  3  2  0
  4  5  1  0
  5 11  2  0
  6  7  1  0
  6  5  1  0
  7  8  1  1
  9  7  1  0
  9 10  2  0
 11 12  1  0
 13  9  1  0
 14 13  1  0
 14 18  1  0
 14 15  1  6
 16 15  1  0
 16 17  2  0
 18 19  2  0
 20 16  1  0
 22 21  1  6
 22 24  1  0
 22 23  1  0
 25 24  1  6
 25 27  1  0
 26 18  1  0
 26 25  1  0
 27 29  2  0
 27 28  1  0
M  END
$$$$
