YDL.pdb
     RDKit          3D

 29 29  0  0  1  0  0  0  0  0999 V2000
    7.0841  -12.8050   16.6270 O   0  0  0  0  0  0  0  0  0  0  0  0
    7.3934  -13.4742   17.8082 C   0  0  0  0  0  0  0  0  0  0  0  0
    7.1707  -12.8218   19.0120 C   0  0  0  0  0  0  0  0  0  0  0  0
    7.4644  -13.4522   20.1969 C   0  0  0  0  0  0  0  0  0  0  0  0
    7.9769  -14.7239   20.1955 C   0  0  0  0  0  0  0  0  0  0  0  0
    8.2893  -15.3568   21.4963 C   0  0  0  0  0  0  0  0  0  0  0  0
    8.9312  -16.7208   21.3722 C   0  0  2  0  0  0  0  0  0  0  0  0
    8.0549  -17.5362   20.5413 N   0  0  0  0  0  0  0  0  0  0  0  0
    9.0919  -17.3206   22.7133 C   0  0  0  0  0  0  0  0  0  0  0  0
    8.9433  -18.5582   22.8540 O   0  0  0  0  0  0  0  0  0  0  0  0
    8.1947  -15.3621   19.0020 C   0  0  0  0  0  0  0  0  0  0  0  0
    7.9055  -14.7440   17.8080 C   0  0  0  0  0  0  0  0  0  0  0  0
    9.4116  -16.5696   23.8863 N   0  0  0  0  0  0  0  0  0  0  0  0
   10.5766  -16.8748   24.6973 C   0  0  1  0  0  0  0  0  0  0  0  0
   11.7845  -16.6442   23.7883 C   0  0  0  0  0  0  0  0  0  0  0  0
   12.5485  -17.8823   23.5474 C   0  0  0  0  0  0  0  0  0  0  0  0
   12.1665  -19.0016   23.9790 O   0  0  0  0  0  0  0  0  0  0  0  0
   10.7187  -15.9352   25.8308 C   0  0  0  0  0  0  0  0  0  0  0  0
   11.8173  -15.8828   26.4543 O   0  0  0  0  0  0  0  0  0  0  0  0
   13.7245  -17.8215   22.8247 O   0  0  0  0  0  0  0  0  0  0  0  0
    6.4997  -12.5873   26.6804 C   0  0  0  0  0  0  0  0  0  0  0  0
    7.8595  -13.2388   26.3962 C   0  0  1  0  0  0  0  0  0  0  0  0
    8.6719  -12.2932   25.4933 C   0  0  0  0  0  0  0  0  0  0  0  0
    8.5712  -13.4409   27.6970 C   0  0  0  0  0  0  0  0  0  0  0  0
    9.8090  -14.2656   27.5176 C   0  0  2  0  0  0  0  0  0  0  0  0
    9.6965  -15.0719   26.2799 N   0  0  0  0  0  0  0  0  0  0  0  0
    9.9578  -15.2165   28.6226 C   0  0  0  0  0  0  0  0  0  0  0  0
   10.4412  -14.8202   29.8730 O   0  0  0  0  0  0  0  0  0  0  0  0
    9.6697  -16.4281   28.5306 O   0  0  0  0  0  0  0  0  0  0  0  0
  2  1  1  0
  2 12  2  0
  3  2  1  0
  4  3  2  0
  4  5  1  0
  5 11  2  0
  6  7  1  0
  6  5  1  0
  7  8  1  6
  9  7  1  0
  9 10  2  0
 11 12  1  0
 13  9  1  0
 14 13  1  0
 14 18  1  0
 14 15  1  6
 16 15  1  0
 16 17  2  0
 18 19  2  0
 20 16  1  0
 22 21  1  1
 22 24  1  0
 22 23  1  0
 25 24  1  1
 25 27  1  0
 26 18  1  0
 26 25  1  0
 27 29  2  0
 27 28  1  0
M  END
$$$$
