YDL.pdb
     RDKit          3D

 29 29  0  0  1  0  0  0  0  0999 V2000
    8.1540  -12.1654   16.3630 O   0  0  0  0  0  0  0  0  0  0  0  0
    8.1242  -12.8914   17.5508 C   0  0  0  0  0  0  0  0  0  0  0  0
    6.8926  -13.1422   18.1383 C   0  0  0  0  0  0  0  0  0  0  0  0
    6.8259  -13.8555   19.3106 C   0  0  0  0  0  0  0  0  0  0  0  0
    7.9712  -14.3212   19.9033 C   0  0  0  0  0  0  0  0  0  0  0  0
    7.8496  -15.0736   21.1719 C   0  0  0  0  0  0  0  0  0  0  0  0
    8.3261  -16.5062   21.0791 C   0  0  2  0  0  0  0  0  0  0  0  0
    7.2207  -17.2954   20.5514 N   0  0  0  0  0  0  0  0  0  0  0  0
    8.7234  -16.9877   22.4187 C   0  0  0  0  0  0  0  0  0  0  0  0
    7.8360  -17.2329   23.2708 O   0  0  0  0  0  0  0  0  0  0  0  0
    9.1845  -14.0691   19.3172 C   0  0  0  0  0  0  0  0  0  0  0  0
    9.2672  -13.3567   18.1438 C   0  0  0  0  0  0  0  0  0  0  0  0
   10.0794  -17.1969   22.8179 N   0  0  0  0  0  0  0  0  0  0  0  0
   10.4319  -17.5362   24.1848 C   0  0  1  0  0  0  0  0  0  0  0  0
   11.8930  -17.9849   24.1355 C   0  0  0  0  0  0  0  0  0  0  0  0
   12.2602  -18.8248   25.2906 C   0  0  0  0  0  0  0  0  0  0  0  0
   11.9563  -18.5121   26.4717 O   0  0  0  0  0  0  0  0  0  0  0  0
   10.3852  -16.3551   25.0739 C   0  0  0  0  0  0  0  0  0  0  0  0
   11.2672  -15.4572   24.9532 O   0  0  0  0  0  0  0  0  0  0  0  0
   12.9614  -19.9964   25.0792 O   0  0  0  0  0  0  0  0  0  0  0  0
    9.4458  -12.0945   27.3208 C   0  0  0  0  0  0  0  0  0  0  0  0
    8.2091  -12.9402   27.6518 C   0  0  1  0  0  0  0  0  0  0  0  0
    6.9539  -12.0899   27.3855 C   0  0  0  0  0  0  0  0  0  0  0  0
    8.2071  -14.1466   26.7664 C   0  0  0  0  0  0  0  0  0  0  0  0
    9.4265  -14.9878   26.9901 C   0  0  2  0  0  0  0  0  0  0  0  0
    9.4074  -16.1491   26.0705 N   0  0  0  0  0  0  0  0  0  0  0  0
    9.4324  -15.5330   28.3503 C   0  0  0  0  0  0  0  0  0  0  0  0
   10.1936  -14.9549   29.3703 O   0  0  0  0  0  0  0  0  0  0  0  0
    8.7709  -16.5355   28.6920 O   0  0  0  0  0  0  0  0  0  0  0  0
  2  1  1  0
  2 12  2  0
  3  2  1  0
  4  3  2  0
  4  5  1  0
  5 11  2  0
  6  7  1  0
  6  5  1  0
  7  8  1  1
  9  7  1  0
  9 10  2  0
 11 12  1  0
 13  9  1  0
 14 13  1  0
 14 18  1  0
 14 15  1  6
 16 15  1  0
 16 17  2  0
 18 19  2  0
 20 16  1  0
 22 21  1  6
 22 24  1  0
 22 23  1  0
 25 24  1  1
 25 27  1  0
 26 18  1  0
 26 25  1  0
 27 29  2  0
 27 28  1  0
M  END
$$$$
