YDL.pdb
     RDKit          3D

 29 29  0  0  1  0  0  0  0  0999 V2000
    7.4575  -12.1118   16.5780 O   0  0  0  0  0  0  0  0  0  0  0  0
    7.6433  -12.8209   17.7619 C   0  0  0  0  0  0  0  0  0  0  0  0
    6.5209  -13.2291   18.4677 C   0  0  0  0  0  0  0  0  0  0  0  0
    6.6671  -13.9307   19.6399 C   0  0  0  0  0  0  0  0  0  0  0  0
    7.9176  -14.2297   20.1159 C   0  0  0  0  0  0  0  0  0  0  0  0
    8.0245  -14.9764   21.3892 C   0  0  0  0  0  0  0  0  0  0  0  0
    8.6786  -16.3329   21.2476 C   0  0  2  0  0  0  0  0  0  0  0  0
    7.7684  -17.1729   20.4800 N   0  0  0  0  0  0  0  0  0  0  0  0
    8.9249  -16.9103   22.5855 C   0  0  0  0  0  0  0  0  0  0  0  0
    7.9766  -17.4482   23.2058 O   0  0  0  0  0  0  0  0  0  0  0  0
    9.0220  -13.8227   19.4133 C   0  0  0  0  0  0  0  0  0  0  0  0
    8.8916  -13.1198   18.2384 C   0  0  0  0  0  0  0  0  0  0  0  0
   10.1979  -16.8965   23.2347 N   0  0  0  0  0  0  0  0  0  0  0  0
   10.3640  -17.3484   24.6044 C   0  0  1  0  0  0  0  0  0  0  0  0
   11.6872  -18.1147   24.6289 C   0  0  0  0  0  0  0  0  0  0  0  0
   11.9965  -18.6555   25.9655 C   0  0  0  0  0  0  0  0  0  0  0  0
   11.1059  -19.1214   26.7238 O   0  0  0  0  0  0  0  0  0  0  0  0
   10.5178  -16.2151   25.5424 C   0  0  0  0  0  0  0  0  0  0  0  0
   11.5218  -15.4546   25.4313 O   0  0  0  0  0  0  0  0  0  0  0  0
   13.3050  -18.6552   26.4090 O   0  0  0  0  0  0  0  0  0  0  0  0
    6.8719  -12.6335   26.3978 C   0  0  0  0  0  0  0  0  0  0  0  0
    8.2244  -13.3481   26.2778 C   0  0  1  0  0  0  0  0  0  0  0  0
    9.2930  -12.3055   25.9034 C   0  0  0  0  0  0  0  0  0  0  0  0
    8.5543  -13.9666   27.6000 C   0  0  0  0  0  0  0  0  0  0  0  0
    9.8060  -14.7860   27.5201 C   0  0  2  0  0  0  0  0  0  0  0  0
    9.6070  -15.9106   26.5765 N   0  0  0  0  0  0  0  0  0  0  0  0
   10.1132  -15.3837   28.8224 C   0  0  0  0  0  0  0  0  0  0  0  0
    9.9823  -16.7568   29.0499 O   0  0  0  0  0  0  0  0  0  0  0  0
   10.5064  -14.7231   29.8065 O   0  0  0  0  0  0  0  0  0  0  0  0
  2  1  1  0
  2 12  2  0
  3  2  1  0
  4  3  2  0
  4  5  1  0
  5 11  2  0
  6  7  1  0
  6  5  1  0
  7  8  1  6
  9  7  1  0
  9 10  2  0
 11 12  1  0
 13  9  1  0
 14 13  1  0
 14 18  1  0
 14 15  1  6
 16 15  1  0
 16 17  2  0
 18 19  2  0
 20 16  1  0
 22 21  1  1
 22 24  1  0
 22 23  1  0
 25 24  1  1
 25 27  1  0
 26 18  1  0
 26 25  1  0
 27 29  2  0
 27 28  1  0
M  END
$$$$
