YDL.pdb
     RDKit          3D

 29 29  0  0  1  0  0  0  0  0999 V2000
    8.2128  -22.1789   30.7197 O   0  0  0  0  0  0  0  0  0  0  0  0
    8.1240  -21.3556   29.6003 C   0  0  0  0  0  0  0  0  0  0  0  0
    9.1673  -20.4777   29.3445 C   0  0  0  0  0  0  0  0  0  0  0  0
    9.1130  -19.6508   28.2487 C   0  0  0  0  0  0  0  0  0  0  0  0
    8.0322  -19.6889   27.4060 C   0  0  0  0  0  0  0  0  0  0  0  0
    8.0132  -18.7701   26.2459 C   0  0  0  0  0  0  0  0  0  0  0  0
    7.9495  -19.4763   24.9098 C   0  0  2  0  0  0  0  0  0  0  0  0
    8.7803  -20.6691   25.0121 N   0  0  0  0  0  0  0  0  0  0  0  0
    8.4472  -18.5785   23.8466 C   0  0  0  0  0  0  0  0  0  0  0  0
    9.6828  -18.4033   23.7199 O   0  0  0  0  0  0  0  0  0  0  0  0
    7.0049  -20.5586   27.6655 C   0  0  0  0  0  0  0  0  0  0  0  0
    7.0450  -21.3925   28.7583 C   0  0  0  0  0  0  0  0  0  0  0  0
    7.5976  -17.8809   22.9336 N   0  0  0  0  0  0  0  0  0  0  0  0
    8.1039  -16.8361   22.0619 C   0  0  1  0  0  0  0  0  0  0  0  0
    7.0172  -16.6136   21.0093 C   0  0  0  0  0  0  0  0  0  0  0  0
    6.6943  -17.8470   20.2684 C   0  0  0  0  0  0  0  0  0  0  0  0
    5.6015  -18.4539   20.4185 O   0  0  0  0  0  0  0  0  0  0  0  0
    8.2637  -15.5520   22.7784 C   0  0  0  0  0  0  0  0  0  0  0  0
    8.7670  -14.5646   22.1698 O   0  0  0  0  0  0  0  0  0  0  0  0
    7.6162  -18.3614   19.3770 O   0  0  0  0  0  0  0  0  0  0  0  0
    7.5827  -11.0037   25.1320 C   0  0  0  0  0  0  0  0  0  0  0  0
    7.1387  -12.1716   26.0226 C   0  0  1  0  0  0  0  0  0  0  0  0
    5.8351  -11.7701   26.7360 C   0  0  0  0  0  0  0  0  0  0  0  0
    6.8996  -13.3672   25.1549 C   0  0  0  0  0  0  0  0  0  0  0  0
    8.1797  -14.0841   24.8518 C   0  0  2  0  0  0  0  0  0  0  0  0
    7.8878  -15.3399   24.1221 N   0  0  0  0  0  0  0  0  0  0  0  0
    8.8585  -14.4705   26.0917 C   0  0  0  0  0  0  0  0  0  0  0  0
    9.8459  -13.6674   26.6698 O   0  0  0  0  0  0  0  0  0  0  0  0
    8.6101  -15.5258   26.7114 O   0  0  0  0  0  0  0  0  0  0  0  0
  2  1  1  0
  2 12  2  0
  3  2  1  0
  4  3  2  0
  4  5  1  0
  5 11  2  0
  6  7  1  0
  6  5  1  0
  7  8  1  1
  9  7  1  0
  9 10  2  0
 11 12  1  0
 13  9  1  0
 14 13  1  0
 14 18  1  0
 14 15  1  6
 16 15  1  0
 16 17  2  0
 18 19  2  0
 20 16  1  0
 22 21  1  6
 22 24  1  0
 22 23  1  0
 25 24  1  1
 25 27  1  0
 26 18  1  0
 26 25  1  0
 27 29  2  0
 27 28  1  0
M  END
$$$$
