YDL.pdb
     RDKit          3D

 29 29  0  0  1  0  0  0  0  0999 V2000
    8.3122  -12.6933   17.7401 O   0  0  0  0  0  0  0  0  0  0  0  0
    8.1051  -13.7021   18.6772 C   0  0  0  0  0  0  0  0  0  0  0  0
    8.4647  -14.9986   18.3390 C   0  0  0  0  0  0  0  0  0  0  0  0
    8.2745  -16.0188   19.2394 C   0  0  0  0  0  0  0  0  0  0  0  0
    7.7307  -15.7617   20.4715 C   0  0  0  0  0  0  0  0  0  0  0  0
    7.5335  -16.8951   21.4025 C   0  0  0  0  0  0  0  0  0  0  0  0
    7.7758  -16.5417   22.8532 C   0  0  2  0  0  0  0  0  0  0  0  0
    7.8650  -15.0896   22.9346 N   0  0  0  0  0  0  0  0  0  0  0  0
    9.0292  -17.1722   23.3177 C   0  0  0  0  0  0  0  0  0  0  0  0
    9.0458  -18.4042   23.5532 O   0  0  0  0  0  0  0  0  0  0  0  0
    7.3774  -14.4783   20.7984 C   0  0  0  0  0  0  0  0  0  0  0  0
    7.5619  -13.4467   19.9078 C   0  0  0  0  0  0  0  0  0  0  0  0
   10.2499  -16.4578   23.5217 N   0  0  0  0  0  0  0  0  0  0  0  0
   11.4193  -17.0903   24.1050 C   0  0  1  0  0  0  0  0  0  0  0  0
   12.6213  -16.3150   23.5640 C   0  0  0  0  0  0  0  0  0  0  0  0
   12.8132  -16.5183   22.1161 C   0  0  0  0  0  0  0  0  0  0  0  0
   13.2766  -15.6183   21.3674 O   0  0  0  0  0  0  0  0  0  0  0  0
   11.4496  -16.9392   25.5761 C   0  0  0  0  0  0  0  0  0  0  0  0
   12.5055  -17.2367   26.2048 O   0  0  0  0  0  0  0  0  0  0  0  0
   12.4760  -17.7342   21.5533 O   0  0  0  0  0  0  0  0  0  0  0  0
   10.8417  -13.8821   27.6961 C   0  0  0  0  0  0  0  0  0  0  0  0
    9.5205  -14.1597   28.4252 C   0  0  1  0  0  0  0  0  0  0  0  0
    8.4080  -13.3444   27.7418 C   0  0  0  0  0  0  0  0  0  0  0  0
    9.2192  -15.6220   28.3232 C   0  0  0  0  0  0  0  0  0  0  0  0
   10.4072  -16.3890   27.8279 C   0  0  2  0  0  0  0  0  0  0  0  0
   10.3636  -16.4769   26.3497 N   0  0  0  0  0  0  0  0  0  0  0  0
   10.3753  -17.7658   28.3287 C   0  0  0  0  0  0  0  0  0  0  0  0
    9.8376  -18.8107   27.5716 O   0  0  0  0  0  0  0  0  0  0  0  0
   10.8173  -18.1009   29.4475 O   0  0  0  0  0  0  0  0  0  0  0  0
  2  1  1  0
  2 12  2  0
  3  2  1  0
  4  3  2  0
  4  5  1  0
  5 11  2  0
  6  7  1  0
  6  5  1  0
  7  8  1  6
  9  7  1  0
  9 10  2  0
 11 12  1  0
 13  9  1  0
 14 13  1  0
 14 18  1  0
 14 15  1  6
 16 15  1  0
 16 17  2  0
 18 19  2  0
 20 16  1  0
 22 21  1  6
 22 24  1  0
 22 23  1  0
 25 24  1  1
 25 27  1  0
 26 18  1  0
 26 25  1  0
 27 29  2  0
 27 28  1  0
M  END
$$$$
