YDL.pdb
     RDKit          3D

 29 29  0  0  1  0  0  0  0  0999 V2000
    7.8503  -12.2885   16.7068 O   0  0  0  0  0  0  0  0  0  0  0  0
    7.9558  -12.9522   17.9263 C   0  0  0  0  0  0  0  0  0  0  0  0
    6.9092  -12.8391   18.8299 C   0  0  0  0  0  0  0  0  0  0  0  0
    6.9796  -13.4808   20.0427 C   0  0  0  0  0  0  0  0  0  0  0  0
    8.0798  -14.2329   20.3647 C   0  0  0  0  0  0  0  0  0  0  0  0
    8.1154  -14.8949   21.6879 C   0  0  0  0  0  0  0  0  0  0  0  0
    8.3384  -16.3893   21.6162 C   0  0  2  0  0  0  0  0  0  0  0  0
    7.0696  -16.9973   21.2371 N   0  0  0  0  0  0  0  0  0  0  0  0
    8.7893  -16.8902   22.9315 C   0  0  0  0  0  0  0  0  0  0  0  0
    7.9378  -17.1368   23.8191 O   0  0  0  0  0  0  0  0  0  0  0  0
    9.1102  -14.3397   19.4669 C   0  0  0  0  0  0  0  0  0  0  0  0
    9.0541  -13.7034   18.2491 C   0  0  0  0  0  0  0  0  0  0  0  0
   10.1594  -17.1170   23.2682 N   0  0  0  0  0  0  0  0  0  0  0  0
   10.5580  -17.5790   24.5856 C   0  0  1  0  0  0  0  0  0  0  0  0
   11.9735  -18.1332   24.4182 C   0  0  0  0  0  0  0  0  0  0  0  0
   12.0035  -19.3503   23.5860 C   0  0  0  0  0  0  0  0  0  0  0  0
   12.9507  -19.5995   22.7950 O   0  0  0  0  0  0  0  0  0  0  0  0
   10.6553  -16.4642   25.5529 C   0  0  0  0  0  0  0  0  0  0  0  0
   11.5238  -15.5636   25.3706 O   0  0  0  0  0  0  0  0  0  0  0  0
   10.9613  -20.2534   23.6708 O   0  0  0  0  0  0  0  0  0  0  0  0
    6.9910  -13.0891   26.7629 C   0  0  0  0  0  0  0  0  0  0  0  0
    8.3808  -13.7161   26.5914 C   0  0  1  0  0  0  0  0  0  0  0  0
    9.4032  -12.5832   26.3898 C   0  0  0  0  0  0  0  0  0  0  0  0
    8.7104  -14.4881   27.8303 C   0  0  0  0  0  0  0  0  0  0  0  0
   10.0003  -15.2349   27.6790 C   0  0  2  0  0  0  0  0  0  0  0  0
    9.8324  -16.3261   26.6911 N   0  0  0  0  0  0  0  0  0  0  0  0
   10.3770  -15.8719   28.9438 C   0  0  0  0  0  0  0  0  0  0  0  0
   11.0011  -15.1562   29.9697 O   0  0  0  0  0  0  0  0  0  0  0  0
   10.1726  -17.0782   29.1938 O   0  0  0  0  0  0  0  0  0  0  0  0
  2  1  1  0
  2 12  2  0
  3  2  1  0
  4  3  2  0
  4  5  1  0
  5 11  2  0
  6  7  1  0
  6  5  1  0
  7  8  1  1
  9  7  1  0
  9 10  2  0
 11 12  1  0
 13  9  1  0
 14 13  1  0
 14 18  1  0
 14 15  1  6
 16 15  1  0
 16 17  2  0
 18 19  2  0
 20 16  1  0
 22 21  1  1
 22 24  1  0
 22 23  1  0
 25 24  1  1
 25 27  1  0
 26 18  1  0
 26 25  1  0
 27 29  2  0
 27 28  1  0
M  END
$$$$
