YDL.pdb
     RDKit          3D

 29 29  0  0  1  0  0  0  0  0999 V2000
    8.3031  -12.7956   16.1533 O   0  0  0  0  0  0  0  0  0  0  0  0
    7.8434  -13.4259   17.3067 C   0  0  0  0  0  0  0  0  0  0  0  0
    7.8158  -12.6986   18.4877 C   0  0  0  0  0  0  0  0  0  0  0  0
    7.3681  -13.2888   19.6448 C   0  0  0  0  0  0  0  0  0  0  0  0
    6.9482  -14.5939   19.6381 C   0  0  0  0  0  0  0  0  0  0  0  0
    6.4866  -15.1898   20.9118 C   0  0  0  0  0  0  0  0  0  0  0  0
    6.6994  -16.6850   20.9978 C   0  0  2  0  0  0  0  0  0  0  0  0
    5.3823  -17.3080   21.0159 N   0  0  0  0  0  0  0  0  0  0  0  0
    7.4525  -17.0119   22.2266 C   0  0  0  0  0  0  0  0  0  0  0  0
    6.8255  -17.2302   23.2910 O   0  0  0  0  0  0  0  0  0  0  0  0
    6.9788  -15.3064   18.4675 C   0  0  0  0  0  0  0  0  0  0  0  0
    7.4241  -14.7293   17.3013 C   0  0  0  0  0  0  0  0  0  0  0  0
    8.8777  -17.0975   22.2859 N   0  0  0  0  0  0  0  0  0  0  0  0
    9.5793  -17.3384   23.5340 C   0  0  1  0  0  0  0  0  0  0  0  0
   10.9955  -17.7578   23.1374 C   0  0  0  0  0  0  0  0  0  0  0  0
   11.8554  -18.0045   24.3097 C   0  0  0  0  0  0  0  0  0  0  0  0
   11.3967  -18.4361   25.3999 O   0  0  0  0  0  0  0  0  0  0  0  0
    9.7162  -16.1025   24.3350 C   0  0  0  0  0  0  0  0  0  0  0  0
   10.3394  -15.1168   23.8463 O   0  0  0  0  0  0  0  0  0  0  0  0
   13.2115  -17.7568   24.2178 O   0  0  0  0  0  0  0  0  0  0  0  0
    8.2549  -11.5765   26.4639 C   0  0  0  0  0  0  0  0  0  0  0  0
    7.8199  -12.8219   27.2475 C   0  0  1  0  0  0  0  0  0  0  0  0
    6.3760  -12.6084   27.7362 C   0  0  0  0  0  0  0  0  0  0  0  0
    7.8807  -14.0046   26.3326 C   0  0  0  0  0  0  0  0  0  0  0  0
    9.2345  -14.6457   26.3613 C   0  0  2  0  0  0  0  0  0  0  0  0
    9.1914  -15.9358   25.6344 N   0  0  0  0  0  0  0  0  0  0  0  0
    9.6272  -14.9560   27.7386 C   0  0  0  0  0  0  0  0  0  0  0  0
    9.3600  -16.2007   28.3161 O   0  0  0  0  0  0  0  0  0  0  0  0
   10.2178  -14.1468   28.4841 O   0  0  0  0  0  0  0  0  0  0  0  0
  2  1  1  0
  2 12  2  0
  3  2  1  0
  4  3  2  0
  4  5  1  0
  5 11  2  0
  6  7  1  0
  6  5  1  0
  7  8  1  1
  9  7  1  0
  9 10  2  0
 11 12  1  0
 13  9  1  0
 14 13  1  0
 14 18  1  0
 14 15  1  6
 16 15  1  0
 16 17  2  0
 18 19  2  0
 20 16  1  0
 22 21  1  6
 22 24  1  0
 22 23  1  0
 25 24  1  1
 25 27  1  0
 26 18  1  0
 26 25  1  0
 27 29  2  0
 27 28  1  0
M  END
$$$$
