YDL.pdb
     RDKit          3D

 29 29  0  0  1  0  0  0  0  0999 V2000
    7.1445  -12.2966   16.6625 O   0  0  0  0  0  0  0  0  0  0  0  0
    7.3243  -13.0295   17.8327 C   0  0  0  0  0  0  0  0  0  0  0  0
    6.7317  -14.2806   17.9235 C   0  0  0  0  0  0  0  0  0  0  0  0
    6.8883  -15.0312   19.0634 C   0  0  0  0  0  0  0  0  0  0  0  0
    7.6280  -14.5497   20.1127 C   0  0  0  0  0  0  0  0  0  0  0  0
    7.7577  -15.3893   21.3245 C   0  0  0  0  0  0  0  0  0  0  0  0
    8.9732  -16.2897   21.3152 C   0  0  2  0  0  0  0  0  0  0  0  0
    8.7836  -17.2597   20.2444 N   0  0  0  0  0  0  0  0  0  0  0  0
    9.1019  -16.9677   22.6220 C   0  0  0  0  0  0  0  0  0  0  0  0
    8.9429  -18.2103   22.6871 O   0  0  0  0  0  0  0  0  0  0  0  0
    8.2103  -13.3125   20.0159 C   0  0  0  0  0  0  0  0  0  0  0  0
    8.0625  -12.5496   18.8812 C   0  0  0  0  0  0  0  0  0  0  0  0
    9.4014  -16.2887   23.8432 N   0  0  0  0  0  0  0  0  0  0  0  0
   10.2646  -16.8740   24.8533 C   0  0  1  0  0  0  0  0  0  0  0  0
   11.5563  -17.2493   24.1257 C   0  0  0  0  0  0  0  0  0  0  0  0
   12.5785  -17.7883   25.0417 C   0  0  0  0  0  0  0  0  0  0  0  0
   12.4109  -18.8617   25.6779 O   0  0  0  0  0  0  0  0  0  0  0  0
   10.6388  -15.8911   25.8933 C   0  0  0  0  0  0  0  0  0  0  0  0
   11.6610  -16.1060   26.6056 O   0  0  0  0  0  0  0  0  0  0  0  0
   13.7636  -17.0991   25.2135 O   0  0  0  0  0  0  0  0  0  0  0  0
    6.2629  -12.8414   26.6136 C   0  0  0  0  0  0  0  0  0  0  0  0
    7.7251  -13.2473   26.3868 C   0  0  1  0  0  0  0  0  0  0  0  0
    8.5044  -12.0088   25.9091 C   0  0  0  0  0  0  0  0  0  0  0  0
    8.2890  -13.7379   27.6832 C   0  0  0  0  0  0  0  0  0  0  0  0
    9.7127  -14.1770   27.5258 C   0  0  2  0  0  0  0  0  0  0  0  0
    9.9244  -14.7028   26.1570 N   0  0  0  0  0  0  0  0  0  0  0  0
   10.0166  -15.2760   28.4462 C   0  0  0  0  0  0  0  0  0  0  0  0
    9.5116  -16.5639   28.2450 O   0  0  0  0  0  0  0  0  0  0  0  0
   10.7349  -15.1456   29.4594 O   0  0  0  0  0  0  0  0  0  0  0  0
  2  1  1  0
  2 12  2  0
  3  2  1  0
  4  3  2  0
  4  5  1  0
  5 11  2  0
  6  7  1  0
  6  5  1  0
  7  8  1  6
  9  7  1  0
  9 10  2  0
 11 12  1  0
 13  9  1  0
 14 13  1  0
 14 18  1  0
 14 15  1  6
 16 15  1  0
 16 17  2  0
 18 19  2  0
 20 16  1  0
 22 21  1  1
 22 24  1  0
 22 23  1  0
 25 24  1  6
 25 27  1  0
 26 18  1  0
 26 25  1  0
 27 29  2  0
 27 28  1  0
M  END
$$$$
