YDL.pdb
     RDKit          3D

 29 29  0  0  1  0  0  0  0  0999 V2000
    7.3928  -12.1561   17.6783 O   0  0  0  0  0  0  0  0  0  0  0  0
    7.4517  -12.9795   18.7997 C   0  0  0  0  0  0  0  0  0  0  0  0
    7.3065  -14.3474   18.6202 C   0  0  0  0  0  0  0  0  0  0  0  0
    7.3593  -15.1895   19.7044 C   0  0  0  0  0  0  0  0  0  0  0  0
    7.5549  -14.6843   20.9640 C   0  0  0  0  0  0  0  0  0  0  0  0
    7.5918  -15.6297   22.1020 C   0  0  0  0  0  0  0  0  0  0  0  0
    8.4206  -16.8675   21.8398 C   0  0  2  0  0  0  0  0  0  0  0  0
    7.5629  -17.8234   21.1513 N   0  0  0  0  0  0  0  0  0  0  0  0
    8.9057  -17.4237   23.1203 C   0  0  0  0  0  0  0  0  0  0  0  0
    8.8629  -18.6635   23.3063 O   0  0  0  0  0  0  0  0  0  0  0  0
    7.6971  -13.3315   21.1336 C   0  0  0  0  0  0  0  0  0  0  0  0
    7.6467  -12.4761   20.0579 C   0  0  0  0  0  0  0  0  0  0  0  0
    9.4312  -16.6273   24.1841 N   0  0  0  0  0  0  0  0  0  0  0  0
   10.4262  -17.1426   25.1072 C   0  0  1  0  0  0  0  0  0  0  0  0
   11.5982  -17.6005   24.2380 C   0  0  0  0  0  0  0  0  0  0  0  0
   12.7161  -18.1317   25.0398 C   0  0  0  0  0  0  0  0  0  0  0  0
   12.5380  -18.6832   26.1574 O   0  0  0  0  0  0  0  0  0  0  0  0
   10.9516  -16.0839   25.9965 C   0  0  0  0  0  0  0  0  0  0  0  0
   12.0347  -16.2818   26.6180 O   0  0  0  0  0  0  0  0  0  0  0  0
   14.0059  -18.0251   24.5560 O   0  0  0  0  0  0  0  0  0  0  0  0
    6.8023  -12.6954   26.2051 C   0  0  0  0  0  0  0  0  0  0  0  0
    8.2389  -13.2332   26.1710 C   0  0  1  0  0  0  0  0  0  0  0  0
    9.1824  -12.0749   25.8001 C   0  0  0  0  0  0  0  0  0  0  0  0
    8.5826  -13.7579   27.5297 C   0  0  0  0  0  0  0  0  0  0  0  0
    9.9644  -14.3364   27.5561 C   0  0  2  0  0  0  0  0  0  0  0  0
   10.3206  -14.8395   26.2089 N   0  0  0  0  0  0  0  0  0  0  0  0
   10.0223  -15.4882   28.4601 C   0  0  0  0  0  0  0  0  0  0  0  0
    9.2716  -16.6441   28.2266 O   0  0  0  0  0  0  0  0  0  0  0  0
   10.7327  -15.5215   29.4866 O   0  0  0  0  0  0  0  0  0  0  0  0
  2  1  1  0
  2 12  2  0
  3  2  1  0
  4  3  2  0
  4  5  1  0
  5 11  2  0
  6  7  1  0
  6  5  1  0
  7  8  1  1
  9  7  1  0
  9 10  2  0
 11 12  1  0
 13  9  1  0
 14 13  1  0
 14 18  1  0
 14 15  1  6
 16 15  1  0
 16 17  2  0
 18 19  2  0
 20 16  1  0
 22 21  1  1
 22 24  1  0
 22 23  1  0
 25 24  1  6
 25 27  1  0
 26 18  1  0
 26 25  1  0
 27 29  2  0
 27 28  1  0
M  END
$$$$
