YDL.pdb
     RDKit          3D

 29 29  0  0  1  0  0  0  0  0999 V2000
    8.0067  -12.6659   16.2540 O   0  0  0  0  0  0  0  0  0  0  0  0
    8.0155  -13.2236   17.5298 C   0  0  0  0  0  0  0  0  0  0  0  0
    6.8370  -13.2115   18.2616 C   0  0  0  0  0  0  0  0  0  0  0  0
    6.8094  -13.7532   19.5239 C   0  0  0  0  0  0  0  0  0  0  0  0
    7.9416  -14.3061   20.0644 C   0  0  0  0  0  0  0  0  0  0  0  0
    7.8658  -14.8658   21.4323 C   0  0  0  0  0  0  0  0  0  0  0  0
    8.3971  -16.2777   21.5437 C   0  0  2  0  0  0  0  0  0  0  0  0
    7.5213  -17.1320   20.7522 N   0  0  0  0  0  0  0  0  0  0  0  0
    8.4021  -16.6986   22.9603 C   0  0  0  0  0  0  0  0  0  0  0  0
    7.3552  -16.5768   23.6405 O   0  0  0  0  0  0  0  0  0  0  0  0
    9.1025  -14.3140   19.3355 C   0  0  0  0  0  0  0  0  0  0  0  0
    9.1456  -13.7757   18.0707 C   0  0  0  0  0  0  0  0  0  0  0  0
    9.5439  -17.2465   23.6223 N   0  0  0  0  0  0  0  0  0  0  0  0
    9.5048  -17.6367   25.0202 C   0  0  1  0  0  0  0  0  0  0  0  0
   10.3707  -18.8930   25.1228 C   0  0  0  0  0  0  0  0  0  0  0  0
   11.5013  -18.8726   24.1763 C   0  0  0  0  0  0  0  0  0  0  0  0
   11.6817  -17.9260   23.3661 O   0  0  0  0  0  0  0  0  0  0  0  0
   10.1338  -16.6209   25.8922 C   0  0  0  0  0  0  0  0  0  0  0  0
   11.2840  -16.1845   25.6003 O   0  0  0  0  0  0  0  0  0  0  0  0
   12.3983  -19.9236   24.1714 O   0  0  0  0  0  0  0  0  0  0  0  0
   10.3927  -13.0369   26.8618 C   0  0  0  0  0  0  0  0  0  0  0  0
    9.1777  -13.1783   27.7880 C   0  0  1  0  0  0  0  0  0  0  0  0
    7.9379  -13.4659   26.9223 C   0  0  0  0  0  0  0  0  0  0  0  0
    9.4237  -14.3196   28.7243 C   0  0  0  0  0  0  0  0  0  0  0  0
   10.2963  -15.3618   28.0942 C   0  0  2  0  0  0  0  0  0  0  0  0
    9.5331  -16.0889   27.0532 N   0  0  0  0  0  0  0  0  0  0  0  0
   10.7031  -16.3602   29.0867 C   0  0  0  0  0  0  0  0  0  0  0  0
   11.7226  -16.1064   30.0090 O   0  0  0  0  0  0  0  0  0  0  0  0
   10.1795  -17.4900   29.1799 O   0  0  0  0  0  0  0  0  0  0  0  0
  2  1  1  0
  2 12  2  0
  3  2  1  0
  4  3  2  0
  4  5  1  0
  5 11  2  0
  6  7  1  0
  6  5  1  0
  7  8  1  6
  9  7  1  0
  9 10  2  0
 11 12  1  0
 13  9  1  0
 14 13  1  0
 14 18  1  0
 14 15  1  6
 16 15  1  0
 16 17  2  0
 18 19  2  0
 20 16  1  0
 22 21  1  6
 22 24  1  0
 22 23  1  0
 25 24  1  1
 25 27  1  0
 26 18  1  0
 26 25  1  0
 27 29  2  0
 27 28  1  0
M  END
$$$$
