ETA.pdb
     RDKit          3D

 22 21  0  0  1  0  0  0  0  0999 V2000
   13.8850   -9.1177   -8.8330 N   0  0  0  0  0  0  0  0  0  0  0  0
   14.5920   -8.0513   -9.4361 C   0  0  1  0  0  0  0  0  0  0  0  0
   14.9155   -7.0436   -8.3388 C   0  0  0  0  0  0  0  0  0  0  0  0
   14.1302   -5.7906   -8.6437 C   0  0  0  0  0  0  0  0  0  0  0  0
   14.4627   -4.7109   -7.7051 C   0  0  0  0  0  0  0  0  0  0  0  0
   15.5915   -4.2310   -7.4876 O   0  0  0  0  0  0  0  0  0  0  0  0
   15.8682   -8.5364  -10.0581 C   0  0  0  0  0  0  0  0  0  0  0  0
   16.4474   -9.5936   -9.7263 O   0  0  0  0  0  0  0  0  0  0  0  0
   13.4015   -4.1539   -6.9703 O   0  0  0  0  0  0  0  0  0  0  0  0
   16.2179   -9.8811  -13.1344 C   0  0  0  0  0  0  0  0  0  0  0  0
   17.0708   -8.6123  -13.2055 C   0  0  1  0  0  0  0  0  0  0  0  0
   16.2349   -7.6186  -13.7164 O   0  0  0  0  0  0  0  0  0  0  0  0
   17.5631   -8.2259  -11.8266 C   0  0  2  0  0  0  0  0  0  0  0  0
   16.4456   -7.7524  -11.0763 N   0  0  0  0  0  0  0  0  0  0  0  0
   18.4845   -7.0382  -12.0392 C   0  0  0  0  0  0  0  0  0  0  0  0
   18.0137   -5.8890  -12.1155 O   0  0  0  0  0  0  0  0  0  0  0  0
   22.2623   -6.6223  -12.1867 C   0  0  0  0  0  0  0  0  0  0  0  0
   20.8399   -6.1860  -12.3226 C   0  0  2  0  0  0  0  0  0  0  0  0
   19.8785   -7.2215  -12.1528 N   0  0  0  0  0  0  0  0  0  0  0  0
   20.6413   -5.2345  -13.4170 C   0  0  0  0  0  0  0  0  0  0  0  0
   20.1567   -5.6863  -14.4936 O   0  0  0  0  0  0  0  0  0  0  0  0
   20.9531   -3.9143  -13.3308 O   0  0  0  0  0  0  0  0  0  0  0  0
  2  1  1  1
  2  3  1  0
  3  4  1  0
  4  5  1  0
  5  6  2  0
  5  9  1  0
  7 14  1  0
  7  2  1  0
  8  7  2  0
 11 10  1  1
 11 13  1  0
 12 11  1  0
 13 14  1  1
 13 15  1  0
 15 19  1  0
 16 15  2  0
 18 20  1  0
 18 17  1  6
 19 18  1  0
 20 22  1  0
 21 20  2  0
M  END
$$$$
