ETA.pdb
     RDKit          3D

 22 21  0  0  1  0  0  0  0  0999 V2000
   25.4381  -21.4764  -11.0443 N   0  0  0  0  0  0  0  0  0  0  0  0
   24.9489  -21.1656  -12.3345 C   0  0  1  0  0  0  0  0  0  0  0  0
   23.6624  -20.3684  -12.1519 C   0  0  0  0  0  0  0  0  0  0  0  0
   22.5179  -21.3491  -12.2407 C   0  0  0  0  0  0  0  0  0  0  0  0
   21.2217  -20.6691  -12.1186 C   0  0  0  0  0  0  0  0  0  0  0  0
   21.0311  -19.4576  -11.9003 O   0  0  0  0  0  0  0  0  0  0  0  0
   25.9405  -20.3413  -13.1012 C   0  0  0  0  0  0  0  0  0  0  0  0
   26.7049  -19.5033  -12.5752 O   0  0  0  0  0  0  0  0  0  0  0  0
   20.0690  -21.4609  -12.2622 O   0  0  0  0  0  0  0  0  0  0  0  0
   28.5688  -21.7873  -14.9619 C   0  0  0  0  0  0  0  0  0  0  0  0
   27.8312  -20.9155  -15.9808 C   0  0  1  0  0  0  0  0  0  0  0  0
   27.0019  -21.7811  -16.6948 O   0  0  0  0  0  0  0  0  0  0  0  0
   27.0052  -19.8597  -15.2763 C   0  0  2  0  0  0  0  0  0  0  0  0
   26.0127  -20.5245  -14.4962 N   0  0  0  0  0  0  0  0  0  0  0  0
   26.2722  -19.1128  -16.3761 C   0  0  0  0  0  0  0  0  0  0  0  0
   25.0297  -19.1465  -16.4322 O   0  0  0  0  0  0  0  0  0  0  0  0
   25.4637  -16.4780  -17.6954 C   0  0  0  0  0  0  0  0  0  0  0  0
   26.4180  -17.4676  -18.2804 C   0  0  2  0  0  0  0  0  0  0  0  0
   26.9866  -18.3753  -17.3434 N   0  0  0  0  0  0  0  0  0  0  0  0
   27.2991  -16.8768  -19.2889 C   0  0  0  0  0  0  0  0  0  0  0  0
   28.5428  -16.9240  -19.0674 O   0  0  0  0  0  0  0  0  0  0  0  0
   26.8486  -16.2872  -20.4278 O   0  0  0  0  0  0  0  0  0  0  0  0
  2  1  1  1
  2  3  1  0
  3  4  1  0
  4  5  1  0
  5  6  2  0
  5  9  1  0
  7 14  1  0
  7  2  1  0
  8  7  2  0
 11 10  1  1
 11 13  1  0
 12 11  1  0
 13 14  1  1
 13 15  1  0
 15 19  1  0
 16 15  2  0
 18 20  1  0
 18 17  1  1
 19 18  1  0
 20 22  1  0
 21 20  2  0
M  END
$$$$
