ETA.pdb
     RDKit          3D

 22 21  0  0  1  0  0  0  0  0999 V2000
   18.3790  -11.9823  -18.0282 N   0  0  0  0  0  0  0  0  0  0  0  0
   19.4699  -11.2509  -17.5032 C   0  0  1  0  0  0  0  0  0  0  0  0
   20.5435  -11.1992  -18.5842 C   0  0  0  0  0  0  0  0  0  0  0  0
   20.9238  -12.6262  -18.8985 C   0  0  0  0  0  0  0  0  0  0  0  0
   21.9137  -12.6885  -19.9817 C   0  0  0  0  0  0  0  0  0  0  0  0
   22.4270  -13.7145  -20.4669 O   0  0  0  0  0  0  0  0  0  0  0  0
   19.0574   -9.8538  -17.1444 C   0  0  0  0  0  0  0  0  0  0  0  0
   18.2846   -9.1558  -17.8366 O   0  0  0  0  0  0  0  0  0  0  0  0
   22.3320  -11.4660  -20.5357 O   0  0  0  0  0  0  0  0  0  0  0  0
   16.9728   -8.8204  -14.7070 C   0  0  0  0  0  0  0  0  0  0  0  0
   18.2900   -8.1460  -14.3161 C   0  0  1  0  0  0  0  0  0  0  0  0
   18.8855   -8.9875  -13.3758 O   0  0  0  0  0  0  0  0  0  0  0  0
   19.1874   -7.9934  -15.5263 C   0  0  2  0  0  0  0  0  0  0  0  0
   19.5725   -9.2980  -15.9568 N   0  0  0  0  0  0  0  0  0  0  0  0
   20.4443   -7.3090  -15.0196 C   0  0  0  0  0  0  0  0  0  0  0  0
   21.3617   -7.9823  -14.5164 O   0  0  0  0  0  0  0  0  0  0  0  0
   21.7737   -3.7634  -15.2913 C   0  0  0  0  0  0  0  0  0  0  0  0
   21.7630   -5.1725  -14.7949 C   0  0  2  0  0  0  0  0  0  0  0  0
   20.5871   -5.9087  -15.1121 N   0  0  0  0  0  0  0  0  0  0  0  0
   22.3132   -5.3016  -13.4447 C   0  0  0  0  0  0  0  0  0  0  0  0
   21.5060   -5.5998  -12.5187 O   0  0  0  0  0  0  0  0  0  0  0  0
   23.6262   -5.1140  -13.1473 O   0  0  0  0  0  0  0  0  0  0  0  0
  2  1  1  6
  2  3  1  0
  3  4  1  0
  4  5  1  0
  5  6  2  0
  5  9  1  0
  7 14  1  0
  7  2  1  0
  8  7  2  0
 11 10  1  6
 11 13  1  0
 12 11  1  0
 13 14  1  1
 13 15  1  0
 15 19  1  0
 16 15  2  0
 18 20  1  0
 18 17  1  1
 19 18  1  0
 20 22  1  0
 21 20  2  0
M  END
$$$$
