ETA.pdb
     RDKit          3D

 22 21  0  0  1  0  0  0  0  0999 V2000
   17.7455  -11.8086  -16.0560 N   0  0  0  0  0  0  0  0  0  0  0  0
   18.2236  -10.5216  -16.3960 C   0  0  1  0  0  0  0  0  0  0  0  0
   17.0186   -9.6851  -16.8110 C   0  0  0  0  0  0  0  0  0  0  0  0
   16.5298  -10.2369  -18.1287 C   0  0  0  0  0  0  0  0  0  0  0  0
   15.3226   -9.5361  -18.5858 C   0  0  0  0  0  0  0  0  0  0  0  0
   14.3533   -9.1840  -17.8872 O   0  0  0  0  0  0  0  0  0  0  0  0
   18.9001   -9.8728  -15.2246 C   0  0  0  0  0  0  0  0  0  0  0  0
   18.5675  -10.0634  -14.0344 O   0  0  0  0  0  0  0  0  0  0  0  0
   15.2441   -9.2255  -19.9545 O   0  0  0  0  0  0  0  0  0  0  0  0
   21.9816  -10.4504  -13.9072 C   0  0  0  0  0  0  0  0  0  0  0  0
   22.0681   -8.9893  -14.3545 C   0  0  1  0  0  0  0  0  0  0  0  0
   22.6470   -9.0123  -15.6239 O   0  0  0  0  0  0  0  0  0  0  0  0
   20.6871   -8.3715  -14.4189 C   0  0  2  0  0  0  0  0  0  0  0  0
   19.9732   -8.9978  -15.4838 N   0  0  0  0  0  0  0  0  0  0  0  0
   20.9046   -6.9253  -14.8264 C   0  0  0  0  0  0  0  0  0  0  0  0
   21.1189   -6.6383  -16.0180 O   0  0  0  0  0  0  0  0  0  0  0  0
   20.3034   -3.5676  -13.3062 C   0  0  0  0  0  0  0  0  0  0  0  0
   21.1261   -4.5174  -14.1144 C   0  0  2  0  0  0  0  0  0  0  0  0
   20.8670   -5.8942  -13.8646 N   0  0  0  0  0  0  0  0  0  0  0  0
   22.5205   -4.0911  -14.2431 C   0  0  0  0  0  0  0  0  0  0  0  0
   23.3576   -4.6085  -13.4496 O   0  0  0  0  0  0  0  0  0  0  0  0
   22.9461   -3.1785  -15.1561 O   0  0  0  0  0  0  0  0  0  0  0  0
  2  1  1  1
  2  3  1  0
  3  4  1  0
  4  5  1  0
  5  6  2  0
  5  9  1  0
  7 14  1  0
  7  2  1  0
  8  7  2  0
 11 10  1  6
 11 13  1  0
 12 11  1  0
 13 14  1  6
 13 15  1  0
 15 19  1  0
 16 15  2  0
 18 20  1  0
 18 17  1  1
 19 18  1  0
 20 22  1  0
 21 20  2  0
M  END
$$$$
