ETA.pdb
     RDKit          3D

 22 21  0  0  1  0  0  0  0  0999 V2000
   18.9992  -12.9538  -16.6021 N   0  0  0  0  0  0  0  0  0  0  0  0
   18.7439  -11.5813  -16.3747 C   0  0  1  0  0  0  0  0  0  0  0  0
   17.6378  -11.4928  -15.3294 C   0  0  0  0  0  0  0  0  0  0  0  0
   16.3657  -11.9667  -15.9904 C   0  0  0  0  0  0  0  0  0  0  0  0
   15.2245  -11.8887  -15.0690 C   0  0  0  0  0  0  0  0  0  0  0  0
   15.2461  -11.5078  -13.8832 O   0  0  0  0  0  0  0  0  0  0  0  0
   19.9697  -10.8844  -15.8622 C   0  0  0  0  0  0  0  0  0  0  0  0
   20.8340  -11.4325  -15.1440 O   0  0  0  0  0  0  0  0  0  0  0  0
   13.9714  -12.2831  -15.5695 O   0  0  0  0  0  0  0  0  0  0  0  0
   22.5923   -9.4440  -17.8717 C   0  0  0  0  0  0  0  0  0  0  0  0
   22.0046   -8.2923  -17.0529 C   0  0  1  0  0  0  0  0  0  0  0  0
   21.0746   -7.6680  -17.8850 O   0  0  0  0  0  0  0  0  0  0  0  0
   21.3232   -8.8201  -15.8078 C   0  0  2  0  0  0  0  0  0  0  0  0
   20.1553   -9.5326  -16.2129 N   0  0  0  0  0  0  0  0  0  0  0  0
   20.8487   -7.5932  -15.0500 C   0  0  0  0  0  0  0  0  0  0  0  0
   19.6407   -7.2952  -15.0389 O   0  0  0  0  0  0  0  0  0  0  0  0
   21.2585   -5.7200  -12.1938 C   0  0  0  0  0  0  0  0  0  0  0  0
   21.4506   -5.5727  -13.6681 C   0  0  2  0  0  0  0  0  0  0  0  0
   21.7663   -6.7796  -14.3530 N   0  0  0  0  0  0  0  0  0  0  0  0
   22.1947   -4.3637  -14.0243 C   0  0  0  0  0  0  0  0  0  0  0  0
   23.3678   -4.5182  -14.4694 O   0  0  0  0  0  0  0  0  0  0  0  0
   21.6926   -3.1071  -13.8959 O   0  0  0  0  0  0  0  0  0  0  0  0
  2  1  1  1
  2  3  1  0
  3  4  1  0
  4  5  1  0
  5  6  2  0
  5  9  1  0
  7 14  1  0
  7  2  1  0
  8  7  2  0
 11 10  1  6
 11 13  1  0
 12 11  1  0
 13 14  1  6
 13 15  1  0
 15 19  1  0
 16 15  2  0
 18 20  1  0
 18 17  1  1
 19 18  1  0
 20 22  1  0
 21 20  2  0
M  END
$$$$
