YYH.pdb
     RDKit          3D

 35 37  0  0  1  0  0  0  0  0999 V2000
    6.8757  -13.6981   15.3897 O   0  0  0  0  0  0  0  0  0  0  0  0
    7.5107  -13.7463   16.6294 C   0  0  0  0  0  0  0  0  0  0  0  0
    7.1012  -12.8599   17.6033 C   0  0  0  0  0  0  0  0  0  0  0  0
    7.6907  -12.8561   18.8544 C   0  0  0  0  0  0  0  0  0  0  0  0
    8.7009  -13.7413   19.1500 C   0  0  0  0  0  0  0  0  0  0  0  0
    9.3154  -13.7158   20.4983 C   0  0  0  0  0  0  0  0  0  0  0  0
    9.2199  -15.1245   21.0552 C   0  0  2  0  0  0  0  0  0  0  0  0
    7.8572  -15.5888   21.1252 N   0  0  0  0  0  0  0  0  0  0  0  0
    9.8508  -15.2557   22.3809 C   0  0  0  0  0  0  0  0  0  0  0  0
   11.0615  -14.9965   22.6051 O   0  0  0  0  0  0  0  0  0  0  0  0
    9.0979  -14.6260   18.1532 C   0  0  0  0  0  0  0  0  0  0  0  0
    8.5153  -14.6320   16.9120 C   0  0  0  0  0  0  0  0  0  0  0  0
   10.8550  -14.9088   30.9548 O   0  0  0  0  0  0  0  0  0  0  0  0
   10.2840  -15.0911   29.6885 C   0  0  0  0  0  0  0  0  0  0  0  0
    9.7980  -16.2925   29.2527 C   0  0  0  0  0  0  0  0  0  0  0  0
    9.2349  -16.4780   28.0072 C   0  0  0  0  0  0  0  0  0  0  0  0
    9.1744  -15.3723   27.1827 C   0  0  0  0  0  0  0  0  0  0  0  0
    8.5987  -15.4348   25.8316 C   0  0  0  0  0  0  0  0  0  0  0  0
    9.6468  -15.8171   24.8289 C   0  0  2  0  0  0  0  0  0  0  0  0
    9.0879  -15.6988   23.5093 N   0  0  0  0  0  0  0  0  0  0  0  0
   10.0372  -17.2340   25.1237 C   0  0  0  0  0  0  0  0  0  0  0  0
    9.1860  -18.1560   25.1349 O   0  0  0  0  0  0  0  0  0  0  0  0
    9.6634  -14.1336   27.6029 C   0  0  0  0  0  0  0  0  0  0  0  0
   10.2184  -13.9998   28.8605 C   0  0  0  0  0  0  0  0  0  0  0  0
   11.3799  -17.5855   25.4007 N   0  0  0  0  0  0  0  0  0  0  0  0
   11.7533  -18.9822   25.6895 C   0  0  1  0  0  0  0  0  0  0  0  0
   12.9569  -19.2780   24.8335 C   0  0  0  0  0  0  0  0  0  0  0  0
   12.5983  -19.1497   23.4133 C   0  0  0  0  0  0  0  0  0  0  0  0
   11.4887  -19.6691   22.7960 C   0  0  0  0  0  0  0  0  0  0  0  0
   11.5659  -19.3364   21.4747 N   0  0  0  0  0  0  0  0  0  0  0  0
   12.6901  -18.6311   21.2739 C   0  0  0  0  0  0  0  0  0  0  0  0
   13.3067  -18.5257   22.4596 N   0  0  0  0  0  0  0  0  0  0  0  0
   12.1119  -19.1392   27.1092 C   0  0  0  0  0  0  0  0  0  0  0  0
   12.4731  -20.2905   27.5007 O   0  0  0  0  0  0  0  0  0  0  0  0
   12.0985  -18.1543   28.0678 O   0  0  0  0  0  0  0  0  0  0  0  0
  2  1  1  0
  3  2  2  0
  4  3  1  0
  5 11  1  0
  5  4  2  0
  6  5  1  0
  7  6  1  0
  7  8  1  1
  9  7  1  0
  9 10  2  0
 11 12  2  0
 12  2  1  0
 13 14  1  0
 14 15  2  0
 15 16  1  0
 17 18  1  0
 17 16  2  0
 19 20  1  0
 19 18  1  1
 20  9  1  0
 21 19  1  0
 22 21  2  0
 23 17  1  0
 24 23  2  0
 24 14  1  0
 25 21  1  0
 26 25  1  0
 26 27  1  6
 27 28  1  0
 28 29  2  0
 29 30  1  0
 31 30  1  0
 32 28  1  0
 32 31  2  0
 33 26  1  0
 33 35  1  0
 34 33  2  0
M  END
$$$$
