YYH.pdb
     RDKit          3D

 35 37  0  0  1  0  0  0  0  0999 V2000
    6.9267  -13.7796   15.3220 O   0  0  0  0  0  0  0  0  0  0  0  0
    7.3814  -13.6712   16.6350 C   0  0  0  0  0  0  0  0  0  0  0  0
    8.0384  -14.7515   17.1856 C   0  0  0  0  0  0  0  0  0  0  0  0
    8.5144  -14.7081   18.4834 C   0  0  0  0  0  0  0  0  0  0  0  0
    8.3394  -13.5806   19.2510 C   0  0  0  0  0  0  0  0  0  0  0  0
    8.8590  -13.5607   20.6388 C   0  0  0  0  0  0  0  0  0  0  0  0
    9.1956  -14.9943   21.0064 C   0  0  2  0  0  0  0  0  0  0  0  0
    8.0337  -15.8469   20.9842 N   0  0  0  0  0  0  0  0  0  0  0  0
    9.8589  -15.1042   22.3180 C   0  0  0  0  0  0  0  0  0  0  0  0
   11.0524  -14.7645   22.5259 O   0  0  0  0  0  0  0  0  0  0  0  0
    7.6743  -12.5033   18.6758 C   0  0  0  0  0  0  0  0  0  0  0  0
    7.2014  -12.5434   17.3894 C   0  0  0  0  0  0  0  0  0  0  0  0
   10.8889  -15.4789   30.9586 O   0  0  0  0  0  0  0  0  0  0  0  0
   10.3634  -15.3815   29.6635 C   0  0  0  0  0  0  0  0  0  0  0  0
   10.4333  -14.2418   28.9114 C   0  0  0  0  0  0  0  0  0  0  0  0
    9.9178  -14.1401   27.6359 C   0  0  0  0  0  0  0  0  0  0  0  0
    9.3061  -15.2662   27.1223 C   0  0  0  0  0  0  0  0  0  0  0  0
    8.7163  -15.2905   25.7760 C   0  0  0  0  0  0  0  0  0  0  0  0
    9.7370  -15.7114   24.7606 C   0  0  2  0  0  0  0  0  0  0  0  0
    9.1501  -15.6197   23.4510 N   0  0  0  0  0  0  0  0  0  0  0  0
   10.1168  -17.1251   25.0831 C   0  0  0  0  0  0  0  0  0  0  0  0
    9.2490  -18.0252   25.1898 O   0  0  0  0  0  0  0  0  0  0  0  0
    9.2210  -16.4430   27.8691 C   0  0  0  0  0  0  0  0  0  0  0  0
    9.7533  -16.4939   29.1426 C   0  0  0  0  0  0  0  0  0  0  0  0
   11.4679  -17.4982   25.2794 N   0  0  0  0  0  0  0  0  0  0  0  0
   11.8243  -18.8726   25.6762 C   0  0  1  0  0  0  0  0  0  0  0  0
   13.0494  -19.2332   24.8773 C   0  0  0  0  0  0  0  0  0  0  0  0
   12.7439  -19.1578   23.4409 C   0  0  0  0  0  0  0  0  0  0  0  0
   11.7232  -19.7966   22.7834 C   0  0  0  0  0  0  0  0  0  0  0  0
   11.8251  -19.4715   21.4619 N   0  0  0  0  0  0  0  0  0  0  0  0
   12.8779  -18.6548   21.3001 C   0  0  0  0  0  0  0  0  0  0  0  0
   13.4261  -18.4733   22.5099 N   0  0  0  0  0  0  0  0  0  0  0  0
   12.1425  -18.9307   27.1129 C   0  0  0  0  0  0  0  0  0  0  0  0
   12.4554  -17.8454   27.6903 O   0  0  0  0  0  0  0  0  0  0  0  0
   12.1335  -20.0534   27.9058 O   0  0  0  0  0  0  0  0  0  0  0  0
  2  1  1  0
  3  2  2  0
  4  3  1  0
  5 11  1  0
  5  4  2  0
  6  5  1  0
  7  6  1  0
  7  8  1  1
  9  7  1  0
  9 10  2  0
 11 12  2  0
 12  2  1  0
 13 14  1  0
 14 15  2  0
 15 16  1  0
 17 18  1  0
 17 16  2  0
 19 20  1  0
 19 18  1  1
 20  9  1  0
 21 19  1  0
 22 21  2  0
 23 17  1  0
 24 23  2  0
 24 14  1  0
 25 21  1  0
 26 25  1  0
 26 27  1  6
 27 28  1  0
 28 29  2  0
 29 30  1  0
 31 30  1  0
 32 28  1  0
 32 31  2  0
 33 26  1  0
 33 35  1  0
 34 33  2  0
M  END
$$$$
