YYH.pdb
     RDKit          3D

 35 37  0  0  1  0  0  0  0  0999 V2000
    7.1280  -13.1083   15.5439 O   0  0  0  0  0  0  0  0  0  0  0  0
    7.7819  -13.6097   16.6680 C   0  0  0  0  0  0  0  0  0  0  0  0
    7.1291  -14.5551   17.4308 C   0  0  0  0  0  0  0  0  0  0  0  0
    7.7230  -15.0924   18.5584 C   0  0  0  0  0  0  0  0  0  0  0  0
    8.9816  -14.6905   18.9401 C   0  0  0  0  0  0  0  0  0  0  0  0
    9.5947  -15.2820   20.1527 C   0  0  0  0  0  0  0  0  0  0  0  0
    9.6114  -14.1976   21.2146 C   0  0  2  0  0  0  0  0  0  0  0  0
   10.3952  -13.0569   20.8124 N   0  0  0  0  0  0  0  0  0  0  0  0
   10.0920  -14.6868   22.5192 C   0  0  0  0  0  0  0  0  0  0  0  0
   10.9581  -14.0911   23.2108 O   0  0  0  0  0  0  0  0  0  0  0  0
    9.6213  -13.7363   18.1565 C   0  0  0  0  0  0  0  0  0  0  0  0
    9.0350  -13.2019   17.0380 C   0  0  0  0  0  0  0  0  0  0  0  0
    6.9278  -10.4945   26.9002 O   0  0  0  0  0  0  0  0  0  0  0  0
    7.1128  -11.7384   26.2827 C   0  0  0  0  0  0  0  0  0  0  0  0
    7.8093  -12.7640   26.8594 C   0  0  0  0  0  0  0  0  0  0  0  0
    7.9947  -13.9906   26.2563 C   0  0  0  0  0  0  0  0  0  0  0  0
    7.4346  -14.1580   25.0055 C   0  0  0  0  0  0  0  0  0  0  0  0
    7.5586  -15.4159   24.2551 C   0  0  0  0  0  0  0  0  0  0  0  0
    8.9508  -15.9626   24.3685 C   0  0  2  0  0  0  0  0  0  0  0  0
    9.5769  -15.9022   23.0754 N   0  0  0  0  0  0  0  0  0  0  0  0
    8.8265  -17.3796   24.8414 C   0  0  0  0  0  0  0  0  0  0  0  0
    8.1587  -17.6696   25.8635 O   0  0  0  0  0  0  0  0  0  0  0  0
    6.7184  -13.1270   24.3938 C   0  0  0  0  0  0  0  0  0  0  0  0
    6.5610  -11.9164   25.0399 C   0  0  0  0  0  0  0  0  0  0  0  0
    9.4572  -18.4436   24.1534 N   0  0  0  0  0  0  0  0  0  0  0  0
   10.6629  -19.0911   24.7017 C   0  0  1  0  0  0  0  0  0  0  0  0
   11.8317  -18.4824   23.9722 C   0  0  0  0  0  0  0  0  0  0  0  0
   11.8217  -18.9198   22.5683 C   0  0  0  0  0  0  0  0  0  0  0  0
   10.9769  -19.8395   22.0004 C   0  0  0  0  0  0  0  0  0  0  0  0
   11.3341  -19.9636   20.6891 N   0  0  0  0  0  0  0  0  0  0  0  0
   12.3706  -19.1461   20.4466 C   0  0  0  0  0  0  0  0  0  0  0  0
   12.6558  -18.5189   21.5966 N   0  0  0  0  0  0  0  0  0  0  0  0
   10.7885  -18.8158   26.1430 C   0  0  0  0  0  0  0  0  0  0  0  0
   11.7676  -19.3372   26.7581 O   0  0  0  0  0  0  0  0  0  0  0  0
    9.9451  -18.0399   26.9019 O   0  0  0  0  0  0  0  0  0  0  0  0
  2  1  1  0
  3  2  2  0
  4  3  1  0
  5 11  1  0
  5  4  2  0
  6  5  1  0
  7  6  1  0
  7  8  1  6
  9  7  1  0
  9 10  2  0
 11 12  2  0
 12  2  1  0
 13 14  1  0
 14 15  2  0
 15 16  1  0
 17 18  1  0
 17 16  2  0
 19 20  1  0
 19 18  1  6
 20  9  1  0
 21 19  1  0
 22 21  2  0
 23 17  1  0
 24 23  2  0
 24 14  1  0
 25 21  1  0
 26 25  1  0
 26 27  1  6
 27 28  1  0
 28 29  2  0
 29 30  1  0
 31 30  1  0
 32 28  1  0
 32 31  2  0
 33 26  1  0
 33 35  1  0
 34 33  2  0
M  END
$$$$
