YYH.pdb
     RDKit          3D

 35 37  0  0  1  0  0  0  0  0999 V2000
    7.8332  -14.9587   13.2272 O   0  0  0  0  0  0  0  0  0  0  0  0
    8.2523  -14.7445   14.5391 C   0  0  0  0  0  0  0  0  0  0  0  0
    7.4836  -13.9272   15.3408 C   0  0  0  0  0  0  0  0  0  0  0  0
    7.8444  -13.6743   16.6518 C   0  0  0  0  0  0  0  0  0  0  0  0
    8.9822  -14.2369   17.1809 C   0  0  0  0  0  0  0  0  0  0  0  0
    9.3460  -13.9494   18.5884 C   0  0  0  0  0  0  0  0  0  0  0  0
    9.3266  -15.2733   19.3303 C   0  0  2  0  0  0  0  0  0  0  0  0
    8.1510  -16.0492   19.0245 N   0  0  0  0  0  0  0  0  0  0  0  0
    9.4383  -15.1084   20.7908 C   0  0  0  0  0  0  0  0  0  0  0  0
   10.4790  -14.7002   21.3683 O   0  0  0  0  0  0  0  0  0  0  0  0
    9.7423  -15.0577   16.3547 C   0  0  0  0  0  0  0  0  0  0  0  0
    9.3871  -15.3101   15.0547 C   0  0  0  0  0  0  0  0  0  0  0  0
    7.0949  -12.3453   28.5562 O   0  0  0  0  0  0  0  0  0  0  0  0
    7.0374  -12.9847   27.3108 C   0  0  0  0  0  0  0  0  0  0  0  0
    6.5580  -14.2541   27.1429 C   0  0  0  0  0  0  0  0  0  0  0  0
    6.4990  -14.8886   25.9195 C   0  0  0  0  0  0  0  0  0  0  0  0
    6.9558  -14.1764   24.8284 C   0  0  0  0  0  0  0  0  0  0  0  0
    6.9477  -14.7369   23.4695 C   0  0  0  0  0  0  0  0  0  0  0  0
    8.3331  -15.1355   23.0551 C   0  0  2  0  0  0  0  0  0  0  0  0
    8.3302  -15.4158   21.6448 N   0  0  0  0  0  0  0  0  0  0  0  0
    8.6914  -16.3570   23.8466 C   0  0  0  0  0  0  0  0  0  0  0  0
    7.8200  -17.1954   24.1819 O   0  0  0  0  0  0  0  0  0  0  0  0
    7.4503  -12.8784   24.9720 C   0  0  0  0  0  0  0  0  0  0  0  0
    7.4884  -12.2870   26.2197 C   0  0  0  0  0  0  0  0  0  0  0  0
   10.0254  -16.6109   24.2456 N   0  0  0  0  0  0  0  0  0  0  0  0
   10.4107  -16.5741   25.6682 C   0  0  1  0  0  0  0  0  0  0  0  0
   10.0345  -15.2036   26.1671 C   0  0  0  0  0  0  0  0  0  0  0  0
   10.4404  -15.0595   27.5731 C   0  0  0  0  0  0  0  0  0  0  0  0
   11.1097  -15.9843   28.3338 C   0  0  0  0  0  0  0  0  0  0  0  0
   11.2564  -15.4534   29.5825 N   0  0  0  0  0  0  0  0  0  0  0  0
   10.6951  -14.2343   29.6000 C   0  0  0  0  0  0  0  0  0  0  0  0
   10.2037  -14.0086   28.3733 N   0  0  0  0  0  0  0  0  0  0  0  0
    9.6705  -17.5930   26.4316 C   0  0  0  0  0  0  0  0  0  0  0  0
    8.4118  -17.6410   26.2816 O   0  0  0  0  0  0  0  0  0  0  0  0
   10.2086  -18.5123   27.3002 O   0  0  0  0  0  0  0  0  0  0  0  0
  2  1  1  0
  3  2  2  0
  4  3  1  0
  5 11  1  0
  5  4  2  0
  6  5  1  0
  7  6  1  0
  7  8  1  1
  9  7  1  0
  9 10  2  0
 11 12  2  0
 12  2  1  0
 13 14  1  0
 14 15  2  0
 15 16  1  0
 17 18  1  0
 17 16  2  0
 19 20  1  0
 19 18  1  1
 20  9  1  0
 21 19  1  0
 22 21  2  0
 23 17  1  0
 24 23  2  0
 24 14  1  0
 25 21  1  0
 26 25  1  0
 26 27  1  1
 27 28  1  0
 28 29  2  0
 29 30  1  0
 31 30  1  0
 32 28  1  0
 32 31  2  0
 33 26  1  0
 33 35  1  0
 34 33  2  0
M  END
$$$$
