YYH.pdb
     RDKit          3D

 35 37  0  0  1  0  0  0  0  0999 V2000
    8.6210  -18.3192   13.3361 O   0  0  0  0  0  0  0  0  0  0  0  0
    8.8882  -18.1383   14.6919 C   0  0  0  0  0  0  0  0  0  0  0  0
    7.8302  -17.8543   15.5297 C   0  0  0  0  0  0  0  0  0  0  0  0
    8.0280  -17.6637   16.8852 C   0  0  0  0  0  0  0  0  0  0  0  0
    9.2903  -17.7546   17.4234 C   0  0  0  0  0  0  0  0  0  0  0  0
    9.4744  -17.5457   18.8789 C   0  0  0  0  0  0  0  0  0  0  0  0
    9.5590  -16.0471   19.1041 C   0  0  2  0  0  0  0  0  0  0  0  0
   10.6817  -15.4582   18.4185 N   0  0  0  0  0  0  0  0  0  0  0  0
    9.6148  -15.6891   20.5329 C   0  0  0  0  0  0  0  0  0  0  0  0
   10.5752  -15.9875   21.2890 O   0  0  0  0  0  0  0  0  0  0  0  0
   10.3422  -18.0418   16.5604 C   0  0  0  0  0  0  0  0  0  0  0  0
   10.1491  -18.2313   15.2162 C   0  0  0  0  0  0  0  0  0  0  0  0
    6.9527  -12.4204   28.2647 O   0  0  0  0  0  0  0  0  0  0  0  0
    7.0684  -12.7480   26.9074 C   0  0  0  0  0  0  0  0  0  0  0  0
    7.9629  -12.1467   26.0661 C   0  0  0  0  0  0  0  0  0  0  0  0
    8.0813  -12.4651   24.7292 C   0  0  0  0  0  0  0  0  0  0  0  0
    7.2376  -13.4463   24.2479 C   0  0  0  0  0  0  0  0  0  0  0  0
    7.2620  -13.8787   22.8432 C   0  0  0  0  0  0  0  0  0  0  0  0
    8.5470  -14.5868   22.5315 C   0  0  2  0  0  0  0  0  0  0  0  0
    8.5424  -14.9616   21.1432 N   0  0  0  0  0  0  0  0  0  0  0  0
    8.6052  -15.7956   23.4159 C   0  0  0  0  0  0  0  0  0  0  0  0
    7.8536  -16.7818   23.2225 O   0  0  0  0  0  0  0  0  0  0  0  0
    6.3149  -14.0764   25.0855 C   0  0  0  0  0  0  0  0  0  0  0  0
    6.2355  -13.7214   26.4179 C   0  0  0  0  0  0  0  0  0  0  0  0
    9.5096  -15.8707   24.5020 N   0  0  0  0  0  0  0  0  0  0  0  0
    9.5948  -17.0845   25.3344 C   0  0  1  0  0  0  0  0  0  0  0  0
   10.7571  -17.8780   24.7975 C   0  0  0  0  0  0  0  0  0  0  0  0
   10.9510  -19.0862   25.6129 C   0  0  0  0  0  0  0  0  0  0  0  0
   10.2479  -19.4407   26.7364 C   0  0  0  0  0  0  0  0  0  0  0  0
   10.7725  -20.6162   27.1897 N   0  0  0  0  0  0  0  0  0  0  0  0
   11.7728  -20.9836   26.3737 C   0  0  0  0  0  0  0  0  0  0  0  0
   11.8698  -20.0452   25.4212 N   0  0  0  0  0  0  0  0  0  0  0  0
    9.8516  -16.7309   26.7407 C   0  0  0  0  0  0  0  0  0  0  0  0
    9.9389  -17.6790   27.5790 O   0  0  0  0  0  0  0  0  0  0  0  0
   10.0115  -15.4632   27.2471 O   0  0  0  0  0  0  0  0  0  0  0  0
  2  1  1  0
  3  2  2  0
  4  3  1  0
  5 11  1  0
  5  4  2  0
  6  5  1  0
  7  6  1  0
  7  8  1  6
  9  7  1  0
  9 10  2  0
 11 12  2  0
 12  2  1  0
 13 14  1  0
 14 15  2  0
 15 16  1  0
 17 18  1  0
 17 16  2  0
 19 20  1  0
 19 18  1  1
 20  9  1  0
 21 19  1  0
 22 21  2  0
 23 17  1  0
 24 23  2  0
 24 14  1  0
 25 21  1  0
 26 25  1  0
 26 27  1  6
 27 28  1  0
 28 29  2  0
 29 30  1  0
 31 30  1  0
 32 28  1  0
 32 31  2  0
 33 26  1  0
 33 35  1  0
 34 33  2  0
M  END
$$$$
