YYH.pdb
     RDKit          3D

 35 37  0  0  1  0  0  0  0  0999 V2000
   15.5064  -19.1871    5.2357 O   0  0  0  0  0  0  0  0  0  0  0  0
   15.6818  -18.8393    6.5739 C   0  0  0  0  0  0  0  0  0  0  0  0
   16.4435  -19.6721    7.3665 C   0  0  0  0  0  0  0  0  0  0  0  0
   16.6558  -19.3838    8.7024 C   0  0  0  0  0  0  0  0  0  0  0  0
   16.1079  -18.2554    9.2660 C   0  0  0  0  0  0  0  0  0  0  0  0
   16.3508  -17.9701   10.6998 C   0  0  0  0  0  0  0  0  0  0  0  0
   15.2128  -18.6061   11.4770 C   0  0  2  0  0  0  0  0  0  0  0  0
   13.9559  -17.9420   11.2391 N   0  0  0  0  0  0  0  0  0  0  0  0
   15.4732  -18.6570   12.9269 C   0  0  0  0  0  0  0  0  0  0  0  0
   15.0713  -17.7832   13.7381 O   0  0  0  0  0  0  0  0  0  0  0  0
   15.3435  -17.4299    8.4485 C   0  0  0  0  0  0  0  0  0  0  0  0
   15.1314  -17.7133    7.1238 C   0  0  0  0  0  0  0  0  0  0  0  0
   17.5755  -21.8520   20.7944 O   0  0  0  0  0  0  0  0  0  0  0  0
   17.2733  -21.6944   19.4355 C   0  0  0  0  0  0  0  0  0  0  0  0
   16.0343  -21.3369   18.9811 C   0  0  0  0  0  0  0  0  0  0  0  0
   15.7308  -21.1803   17.6446 C   0  0  0  0  0  0  0  0  0  0  0  0
   16.7546  -21.4040   16.7456 C   0  0  0  0  0  0  0  0  0  0  0  0
   16.5636  -21.2710   15.2941 C   0  0  0  0  0  0  0  0  0  0  0  0
   16.5226  -19.8250   14.8977 C   0  0  2  0  0  0  0  0  0  0  0  0
   16.2200  -19.7395   13.4946 N   0  0  0  0  0  0  0  0  0  0  0  0
   17.8762  -19.2527   15.1929 C   0  0  0  0  0  0  0  0  0  0  0  0
   18.8025  -19.2998   14.3476 O   0  0  0  0  0  0  0  0  0  0  0  0
   18.0292  -21.7701   17.1828 C   0  0  0  0  0  0  0  0  0  0  0  0
   18.2823  -21.9140   18.5330 C   0  0  0  0  0  0  0  0  0  0  0  0
   18.1608  -18.6377   16.4355 N   0  0  0  0  0  0  0  0  0  0  0  0
   19.4991  -18.0887   16.7202 C   0  0  1  0  0  0  0  0  0  0  0  0
   19.6932  -16.9440   15.7607 C   0  0  0  0  0  0  0  0  0  0  0  0
   21.0768  -16.4536   15.8480 C   0  0  0  0  0  0  0  0  0  0  0  0
   21.5052  -15.3101   16.4732 C   0  0  0  0  0  0  0  0  0  0  0  0
   22.8544  -15.2262   16.2865 N   0  0  0  0  0  0  0  0  0  0  0  0
   23.2554  -16.2854   15.5661 C   0  0  0  0  0  0  0  0  0  0  0  0
   22.1655  -17.0218   15.3071 N   0  0  0  0  0  0  0  0  0  0  0  0
   19.5690  -17.5856   18.1026 C   0  0  0  0  0  0  0  0  0  0  0  0
   18.4765  -17.2993   18.6801 O   0  0  0  0  0  0  0  0  0  0  0  0
   20.7102  -17.3935   18.8441 O   0  0  0  0  0  0  0  0  0  0  0  0
  2  1  1  0
  3  2  2  0
  4  3  1  0
  5 11  1  0
  5  4  2  0
  6  5  1  0
  7  6  1  0
  7  8  1  1
  9  7  1  0
  9 10  2  0
 11 12  2  0
 12  2  1  0
 13 14  1  0
 14 15  2  0
 15 16  1  0
 17 18  1  0
 17 16  2  0
 19 20  1  0
 19 18  1  6
 20  9  1  0
 21 19  1  0
 22 21  2  0
 23 17  1  0
 24 23  2  0
 24 14  1  0
 25 21  1  0
 26 25  1  0
 26 27  1  6
 27 28  1  0
 28 29  2  0
 29 30  1  0
 31 30  1  0
 32 28  1  0
 32 31  2  0
 33 26  1  0
 33 35  1  0
 34 33  2  0
M  END
$$$$
