YYH.pdb
     RDKit          3D

 35 37  0  0  1  0  0  0  0  0999 V2000
    7.4251  -22.7298   15.3795 O   0  0  0  0  0  0  0  0  0  0  0  0
    7.9495  -21.9262   16.3904 C   0  0  0  0  0  0  0  0  0  0  0  0
    9.2818  -22.0759   16.7132 C   0  0  0  0  0  0  0  0  0  0  0  0
    9.8631  -21.3091   17.7067 C   0  0  0  0  0  0  0  0  0  0  0  0
    9.1180  -20.3792   18.3932 C   0  0  0  0  0  0  0  0  0  0  0  0
    9.7655  -19.5710   19.4532 C   0  0  0  0  0  0  0  0  0  0  0  0
    9.9237  -18.1650   18.9038 C   0  0  2  0  0  0  0  0  0  0  0  0
   10.7887  -18.1271   17.7515 N   0  0  0  0  0  0  0  0  0  0  0  0
   10.4132  -17.2110   19.9152 C   0  0  0  0  0  0  0  0  0  0  0  0
   11.6233  -16.8915   20.0437 O   0  0  0  0  0  0  0  0  0  0  0  0
    7.7768  -20.2450   18.0513 C   0  0  0  0  0  0  0  0  0  0  0  0
    7.1978  -21.0038   17.0668 C   0  0  0  0  0  0  0  0  0  0  0  0
    6.8628  -12.2458   17.5114 O   0  0  0  0  0  0  0  0  0  0  0  0
    7.2930  -12.8996   18.6734 C   0  0  0  0  0  0  0  0  0  0  0  0
    6.5593  -13.8664   19.3033 C   0  0  0  0  0  0  0  0  0  0  0  0
    6.9776  -14.5135   20.4474 C   0  0  0  0  0  0  0  0  0  0  0  0
    8.2058  -14.1416   20.9567 C   0  0  0  0  0  0  0  0  0  0  0  0
    8.7670  -14.7532   22.1699 C   0  0  0  0  0  0  0  0  0  0  0  0
    9.9255  -15.6415   21.8253 C   0  0  2  0  0  0  0  0  0  0  0  0
    9.5021  -16.5853   20.8264 N   0  0  0  0  0  0  0  0  0  0  0  0
   10.3316  -16.3393   23.0882 C   0  0  0  0  0  0  0  0  0  0  0  0
    9.5119  -17.0230   23.7480 O   0  0  0  0  0  0  0  0  0  0  0  0
    8.9754  -13.1572   20.3333 C   0  0  0  0  0  0  0  0  0  0  0  0
    8.5116  -12.5386   19.1887 C   0  0  0  0  0  0  0  0  0  0  0  0
   11.6545  -16.2537   23.5843 N   0  0  0  0  0  0  0  0  0  0  0  0
   12.4377  -17.4702   23.8674 C   0  0  1  0  0  0  0  0  0  0  0  0
   12.3065  -18.3442   22.6477 C   0  0  0  0  0  0  0  0  0  0  0  0
   12.9985  -19.6213   22.8765 C   0  0  0  0  0  0  0  0  0  0  0  0
   13.7542  -19.9618   23.9697 C   0  0  0  0  0  0  0  0  0  0  0  0
   14.2303  -21.2230   23.7574 N   0  0  0  0  0  0  0  0  0  0  0  0
   13.7852  -21.6559   22.5674 C   0  0  0  0  0  0  0  0  0  0  0  0
   13.0387  -20.6730   22.0441 N   0  0  0  0  0  0  0  0  0  0  0  0
   13.8561  -17.1352   24.0790 C   0  0  0  0  0  0  0  0  0  0  0  0
   14.6438  -18.0803   24.3876 O   0  0  0  0  0  0  0  0  0  0  0  0
   14.4244  -15.8882   23.9734 O   0  0  0  0  0  0  0  0  0  0  0  0
  2  1  1  0
  3  2  2  0
  4  3  1  0
  5 11  1  0
  5  4  2  0
  6  5  1  0
  7  6  1  0
  7  8  1  6
  9  7  1  0
  9 10  2  0
 11 12  2  0
 12  2  1  0
 13 14  1  0
 14 15  2  0
 15 16  1  0
 17 18  1  0
 17 16  2  0
 19 20  1  0
 19 18  1  1
 20  9  1  0
 21 19  1  0
 22 21  2  0
 23 17  1  0
 24 23  2  0
 24 14  1  0
 25 21  1  0
 26 25  1  0
 26 27  1  6
 27 28  1  0
 28 29  2  0
 29 30  1  0
 31 30  1  0
 32 28  1  0
 32 31  2  0
 33 26  1  0
 33 35  1  0
 34 33  2  0
M  END
$$$$
