YYH.pdb
     RDKit          3D

 35 37  0  0  1  0  0  0  0  0999 V2000
    8.4143  -15.5802   13.1538 O   0  0  0  0  0  0  0  0  0  0  0  0
    8.5701  -15.6939   14.5342 C   0  0  0  0  0  0  0  0  0  0  0  0
    9.6051  -16.4720   15.0086 C   0  0  0  0  0  0  0  0  0  0  0  0
    9.8140  -16.6258   16.3671 C   0  0  0  0  0  0  0  0  0  0  0  0
    8.9883  -16.0018   17.2727 C   0  0  0  0  0  0  0  0  0  0  0  0
    9.2343  -16.1836   18.7228 C   0  0  0  0  0  0  0  0  0  0  0  0
    9.6598  -14.8343   19.2725 C   0  0  2  0  0  0  0  0  0  0  0  0
   10.9384  -14.4166   18.7547 N   0  0  0  0  0  0  0  0  0  0  0  0
    9.6949  -14.8060   20.7457 C   0  0  0  0  0  0  0  0  0  0  0  0
   10.6904  -15.1656   21.4261 O   0  0  0  0  0  0  0  0  0  0  0  0
    7.9512  -15.2222   16.7723 C   0  0  0  0  0  0  0  0  0  0  0  0
    7.7417  -15.0680   15.4261 C   0  0  0  0  0  0  0  0  0  0  0  0
    7.2897  -12.9551   28.9430 O   0  0  0  0  0  0  0  0  0  0  0  0
    7.2410  -13.1896   27.5626 C   0  0  0  0  0  0  0  0  0  0  0  0
    6.4978  -14.1896   26.9993 C   0  0  0  0  0  0  0  0  0  0  0  0
    6.4459  -14.4252   25.6411 C   0  0  0  0  0  0  0  0  0  0  0  0
    7.1953  -13.5895   24.8373 C   0  0  0  0  0  0  0  0  0  0  0  0
    7.2275  -13.7332   23.3747 C   0  0  0  0  0  0  0  0  0  0  0  0
    8.5446  -14.2958   22.9289 C   0  0  2  0  0  0  0  0  0  0  0  0
    8.5594  -14.3527   21.4921 N   0  0  0  0  0  0  0  0  0  0  0  0
    8.6577  -15.6670   23.5238 C   0  0  0  0  0  0  0  0  0  0  0  0
    7.8353  -16.5710   23.2392 O   0  0  0  0  0  0  0  0  0  0  0  0
    7.9631  -12.5606   25.3867 C   0  0  0  0  0  0  0  0  0  0  0  0
    7.9814  -12.3658   26.7540 C   0  0  0  0  0  0  0  0  0  0  0  0
    9.6959  -15.9939   24.4285 N   0  0  0  0  0  0  0  0  0  0  0  0
    9.6994  -17.2830   25.1438 C   0  0  1  0  0  0  0  0  0  0  0  0
   11.0022  -17.9520   24.7918 C   0  0  0  0  0  0  0  0  0  0  0  0
   10.9880  -18.3502   23.3763 C   0  0  0  0  0  0  0  0  0  0  0  0
   10.0239  -19.0910   22.7409 C   0  0  0  0  0  0  0  0  0  0  0  0
   10.4215  -19.2490   21.4450 N   0  0  0  0  0  0  0  0  0  0  0  0
   11.5983  -18.6257   21.2773 C   0  0  0  0  0  0  0  0  0  0  0  0
   11.9300  -18.0846   22.4582 N   0  0  0  0  0  0  0  0  0  0  0  0
    9.6376  -17.0676   26.5994 C   0  0  0  0  0  0  0  0  0  0  0  0
    9.6440  -18.0928   27.3464 O   0  0  0  0  0  0  0  0  0  0  0  0
    9.5752  -15.8546   27.2427 O   0  0  0  0  0  0  0  0  0  0  0  0
  2  1  1  0
  3  2  2  0
  4  3  1  0
  5 11  1  0
  5  4  2  0
  6  5  1  0
  7  6  1  0
  7  8  1  6
  9  7  1  0
  9 10  2  0
 11 12  2  0
 12  2  1  0
 13 14  1  0
 14 15  2  0
 15 16  1  0
 17 18  1  0
 17 16  2  0
 19 20  1  0
 19 18  1  6
 20  9  1  0
 21 19  1  0
 22 21  2  0
 23 17  1  0
 24 23  2  0
 24 14  1  0
 25 21  1  0
 26 25  1  0
 26 27  1  1
 27 28  1  0
 28 29  2  0
 29 30  1  0
 31 30  1  0
 32 28  1  0
 32 31  2  0
 33 26  1  0
 33 35  1  0
 34 33  2  0
M  END
$$$$
