YYH.pdb
     RDKit          3D

 35 37  0  0  1  0  0  0  0  0999 V2000
    0.5791  -20.1101   20.5020 O   0  0  0  0  0  0  0  0  0  0  0  0
    1.7698  -19.6172   21.0328 C   0  0  0  0  0  0  0  0  0  0  0  0
    2.4782  -18.6949   20.2917 C   0  0  0  0  0  0  0  0  0  0  0  0
    3.6670  -18.1671   20.7618 C   0  0  0  0  0  0  0  0  0  0  0  0
    4.1654  -18.5555   21.9833 C   0  0  0  0  0  0  0  0  0  0  0  0
    5.4415  -17.9746   22.4633 C   0  0  0  0  0  0  0  0  0  0  0  0
    6.4824  -18.2464   21.3926 C   0  0  2  0  0  0  0  0  0  0  0  0
    6.6310  -19.6550   21.1259 N   0  0  0  0  0  0  0  0  0  0  0  0
    7.7983  -17.6681   21.7192 C   0  0  0  0  0  0  0  0  0  0  0  0
    8.8443  -18.3528   21.8616 O   0  0  0  0  0  0  0  0  0  0  0  0
    3.4349  -19.4864   22.7137 C   0  0  0  0  0  0  0  0  0  0  0  0
    2.2560  -20.0113   22.2501 C   0  0  0  0  0  0  0  0  0  0  0  0
    7.3160  -13.4919   16.5478 O   0  0  0  0  0  0  0  0  0  0  0  0
    7.7166  -13.6392   17.8822 C   0  0  0  0  0  0  0  0  0  0  0  0
    6.9390  -13.2647   18.9427 C   0  0  0  0  0  0  0  0  0  0  0  0
    7.3280  -13.4073   20.2584 C   0  0  0  0  0  0  0  0  0  0  0  0
    8.5733  -13.9606   20.4807 C   0  0  0  0  0  0  0  0  0  0  0  0
    9.1068  -14.1671   21.8348 C   0  0  0  0  0  0  0  0  0  0  0  0
    9.2215  -15.6314   22.1389 C   0  0  2  0  0  0  0  0  0  0  0  0
    7.9487  -16.2545   21.8945 N   0  0  0  0  0  0  0  0  0  0  0  0
    9.6107  -15.7488   23.5816 C   0  0  0  0  0  0  0  0  0  0  0  0
   10.7223  -15.3361   23.9927 O   0  0  0  0  0  0  0  0  0  0  0  0
    9.3876  -14.3517   19.4159 C   0  0  0  0  0  0  0  0  0  0  0  0
    8.9517  -14.1877   18.1155 C   0  0  0  0  0  0  0  0  0  0  0  0
    8.7399  -16.3291   24.5346 N   0  0  0  0  0  0  0  0  0  0  0  0
    9.1370  -16.4499   25.9492 C   0  0  1  0  0  0  0  0  0  0  0  0
    7.9211  -16.0788   26.7571 C   0  0  0  0  0  0  0  0  0  0  0  0
    7.6715  -14.6343   26.6417 C   0  0  0  0  0  0  0  0  0  0  0  0
    8.5662  -13.6756   26.2384 C   0  0  0  0  0  0  0  0  0  0  0  0
    7.9282  -12.4711   26.3050 N   0  0  0  0  0  0  0  0  0  0  0  0
    6.6735  -12.6724   26.7372 C   0  0  0  0  0  0  0  0  0  0  0  0
    6.5320  -13.9903   26.9375 N   0  0  0  0  0  0  0  0  0  0  0  0
    9.5276  -17.8352   26.2609 C   0  0  0  0  0  0  0  0  0  0  0  0
    9.4172  -18.6990   25.3385 O   0  0  0  0  0  0  0  0  0  0  0  0
   10.0084  -18.2965   27.4631 O   0  0  0  0  0  0  0  0  0  0  0  0
  2  1  1  0
  3  2  2  0
  4  3  1  0
  5 11  1  0
  5  4  2  0
  6  5  1  0
  7  6  1  0
  7  8  1  1
  9  7  1  0
  9 10  2  0
 11 12  2  0
 12  2  1  0
 13 14  1  0
 14 15  2  0
 15 16  1  0
 17 18  1  0
 17 16  2  0
 19 20  1  0
 19 18  1  1
 20  9  1  0
 21 19  1  0
 22 21  2  0
 23 17  1  0
 24 23  2  0
 24 14  1  0
 25 21  1  0
 26 25  1  0
 26 27  1  1
 27 28  1  0
 28 29  2  0
 29 30  1  0
 31 30  1  0
 32 28  1  0
 32 31  2  0
 33 26  1  0
 33 35  1  0
 34 33  2  0
M  END
$$$$
