YYH.pdb
     RDKit          3D

 35 37  0  0  1  0  0  0  0  0999 V2000
    6.5749  -13.4418   15.5752 O   0  0  0  0  0  0  0  0  0  0  0  0
    7.0491  -13.9943   16.7637 C   0  0  0  0  0  0  0  0  0  0  0  0
    6.9345  -13.2479   17.9175 C   0  0  0  0  0  0  0  0  0  0  0  0
    7.3854  -13.7386   19.1295 C   0  0  0  0  0  0  0  0  0  0  0  0
    7.9589  -14.9863   19.2045 C   0  0  0  0  0  0  0  0  0  0  0  0
    8.4339  -15.4880   20.5156 C   0  0  0  0  0  0  0  0  0  0  0  0
    9.5112  -14.5310   20.9922 C   0  0  2  0  0  0  0  0  0  0  0  0
   10.5981  -14.4260   20.0515 N   0  0  0  0  0  0  0  0  0  0  0  0
   10.0443  -14.8899   22.3187 C   0  0  0  0  0  0  0  0  0  0  0  0
   11.1412  -15.4814   22.4920 O   0  0  0  0  0  0  0  0  0  0  0  0
    8.0643  -15.7216   18.0289 C   0  0  0  0  0  0  0  0  0  0  0  0
    7.6181  -15.2376   16.8261 C   0  0  0  0  0  0  0  0  0  0  0  0
   10.4414  -15.6099   31.0699 O   0  0  0  0  0  0  0  0  0  0  0  0
   10.0585  -15.2729   29.7650 C   0  0  0  0  0  0  0  0  0  0  0  0
   10.5442  -14.1807   29.1012 C   0  0  0  0  0  0  0  0  0  0  0  0
   10.1709  -13.8439   27.8167 C   0  0  0  0  0  0  0  0  0  0  0  0
    9.2577  -14.6743   27.1981 C   0  0  0  0  0  0  0  0  0  0  0  0
    8.7776  -14.4279   25.8307 C   0  0  0  0  0  0  0  0  0  0  0  0
    9.7814  -14.9077   24.8247 C   0  0  2  0  0  0  0  0  0  0  0  0
    9.3124  -14.5705   23.5079 N   0  0  0  0  0  0  0  0  0  0  0  0
    9.8930  -16.3930   24.9932 C   0  0  0  0  0  0  0  0  0  0  0  0
    8.9366  -17.1548   24.7112 O   0  0  0  0  0  0  0  0  0  0  0  0
    8.7460  -15.7963   27.8533 C   0  0  0  0  0  0  0  0  0  0  0  0
    9.1518  -16.0905   29.1403 C   0  0  0  0  0  0  0  0  0  0  0  0
   11.0808  -16.9922   25.4763 N   0  0  0  0  0  0  0  0  0  0  0  0
   11.1391  -18.4379   25.7592 C   0  0  1  0  0  0  0  0  0  0  0  0
   12.4289  -18.9294   25.1562 C   0  0  0  0  0  0  0  0  0  0  0  0
   12.2726  -19.0726   23.7011 C   0  0  0  0  0  0  0  0  0  0  0  0
   11.1241  -18.8815   22.9755 C   0  0  0  0  0  0  0  0  0  0  0  0
   11.4197  -19.1469   21.6699 N   0  0  0  0  0  0  0  0  0  0  0  0
   12.7136  -19.4934   21.5839 C   0  0  0  0  0  0  0  0  0  0  0  0
   13.2186  -19.4440   22.8248 N   0  0  0  0  0  0  0  0  0  0  0  0
   11.1540  -18.6811   27.2116 C   0  0  0  0  0  0  0  0  0  0  0  0
   11.3274  -17.6817   27.9734 O   0  0  0  0  0  0  0  0  0  0  0  0
   10.9950  -19.8945   27.8373 O   0  0  0  0  0  0  0  0  0  0  0  0
  2  1  1  0
  3  2  2  0
  4  3  1  0
  5 11  1  0
  5  4  2  0
  6  5  1  0
  7  6  1  0
  7  8  1  6
  9  7  1  0
  9 10  2  0
 11 12  2  0
 12  2  1  0
 13 14  1  0
 14 15  2  0
 15 16  1  0
 17 18  1  0
 17 16  2  0
 19 20  1  0
 19 18  1  1
 20  9  1  0
 21 19  1  0
 22 21  2  0
 23 17  1  0
 24 23  2  0
 24 14  1  0
 25 21  1  0
 26 25  1  0
 26 27  1  6
 27 28  1  0
 28 29  2  0
 29 30  1  0
 31 30  1  0
 32 28  1  0
 32 31  2  0
 33 26  1  0
 33 35  1  0
 34 33  2  0
M  END
$$$$
