SIY.pdb
     RDKit          3D

 27 27  0  0  1  0  0  0  0  0999 V2000
   26.8787  -22.6359  -19.2850 O   0  0  0  0  0  0  0  0  0  0  0  0
   27.7843  -23.4858  -18.6503 C   0  0  0  0  0  0  0  0  0  0  0  0
   28.8273  -22.5940  -18.0011 C   0  0  2  0  0  0  0  0  0  0  0  0
   29.8424  -23.4323  -17.4631 N   0  0  0  0  0  0  0  0  0  0  0  0
   28.1240  -21.7714  -16.9987 C   0  0  0  0  0  0  0  0  0  0  0  0
   28.1407  -22.1599  -15.8019 O   0  0  0  0  0  0  0  0  0  0  0  0
   28.3910  -16.4112  -17.3288 C   0  0  0  0  0  0  0  0  0  0  0  0
   28.2320  -17.7715  -16.7583 C   0  0  0  0  0  0  0  0  0  0  0  0
   26.8410  -18.3007  -16.6468 C   0  0  2  0  0  0  0  0  0  0  0  0
   26.1440  -17.4537  -15.5721 C   0  0  0  0  0  0  0  0  0  0  0  0
   26.7391  -19.7631  -16.2979 C   0  0  2  0  0  0  0  0  0  0  0  0
   27.4295  -20.5726  -17.2879 N   0  0  0  0  0  0  0  0  0  0  0  0
   25.3611  -20.1726  -16.0301 C   0  0  0  0  0  0  0  0  0  0  0  0
   24.5274  -20.2398  -16.9988 O   0  0  0  0  0  0  0  0  0  0  0  0
   25.8738  -20.7541   -8.5584 O   0  0  0  0  0  0  0  0  0  0  0  0
   25.2694  -21.0798   -9.7746 C   0  0  0  0  0  0  0  0  0  0  0  0
   25.9836  -21.6741  -10.7936 C   0  0  0  0  0  0  0  0  0  0  0  0
   25.3945  -21.9992  -11.9984 C   0  0  0  0  0  0  0  0  0  0  0  0
   24.0544  -21.7391  -12.2315 C   0  0  0  0  0  0  0  0  0  0  0  0
   23.4535  -22.0867  -13.5123 C   0  0  0  0  0  0  0  0  0  0  0  0
   23.4861  -20.9858  -14.5551 C   0  0  2  0  0  0  0  0  0  0  0  0
   24.8422  -20.5159  -14.7663 N   0  0  0  0  0  0  0  0  0  0  0  0
   22.6496  -19.8388  -14.1882 C   0  0  0  0  0  0  0  0  0  0  0  0
   23.2279  -18.6397  -13.8328 O   0  0  0  0  0  0  0  0  0  0  0  0
   23.3229  -21.1391  -11.2094 C   0  0  0  0  0  0  0  0  0  0  0  0
   23.9376  -20.8315  -10.0317 C   0  0  0  0  0  0  0  0  0  0  0  0
   21.3994  -19.9330  -14.1917 O   0  0  0  0  0  0  0  0  0  0  0  0
  2  1  1  0
  3  2  1  0
  3  4  1  1
  5  6  2  0
  5  3  1  0
  7  8  1  0
  9  8  1  0
  9 10  1  1
 11  9  1  0
 11 12  1  6
 12  5  1  0
 13 11  1  0
 14 13  2  0
 16 17  2  0
 16 15  1  0
 18 17  1  0
 19 18  2  0
 21 20  1  1
 20 19  1  0
 21 22  1  0
 22 13  1  0
 23 21  1  0
 23 24  1  0
 25 19  1  0
 25 26  2  0
 26 16  1  0
 27 23  2  0
M  END
$$$$
