SIY.pdb
     RDKit          3D

 27 27  0  0  1  0  0  0  0  0999 V2000
   26.9192  -19.3444  -17.8504 O   0  0  0  0  0  0  0  0  0  0  0  0
   26.1495  -19.9392  -16.8509 C   0  0  0  0  0  0  0  0  0  0  0  0
   26.9791  -21.0815  -16.2927 C   0  0  2  0  0  0  0  0  0  0  0  0
   27.2058  -22.0097  -17.3462 N   0  0  0  0  0  0  0  0  0  0  0  0
   26.2322  -21.6336  -15.1466 C   0  0  0  0  0  0  0  0  0  0  0  0
   25.6717  -22.7508  -15.2924 O   0  0  0  0  0  0  0  0  0  0  0  0
   25.6212  -21.1811   -8.9474 C   0  0  0  0  0  0  0  0  0  0  0  0
   25.0618  -21.5125  -10.2809 C   0  0  0  0  0  0  0  0  0  0  0  0
   25.8562  -21.0912  -11.4722 C   0  0  2  0  0  0  0  0  0  0  0  0
   25.9878  -19.5638  -11.3825 C   0  0  0  0  0  0  0  0  0  0  0  0
   25.2681  -21.4814  -12.8036 C   0  0  2  0  0  0  0  0  0  0  0  0
   26.1005  -20.9943  -13.8908 N   0  0  0  0  0  0  0  0  0  0  0  0
   23.8549  -21.1215  -12.9103 C   0  0  0  0  0  0  0  0  0  0  0  0
   23.5344  -19.9604  -13.3433 O   0  0  0  0  0  0  0  0  0  0  0  0
   15.9030  -18.1637  -13.0392 O   0  0  0  0  0  0  0  0  0  0  0  0
   17.2089  -18.6362  -12.8912 C   0  0  0  0  0  0  0  0  0  0  0  0
   17.5685  -19.4252  -11.8189 C   0  0  0  0  0  0  0  0  0  0  0  0
   18.8564  -19.8963  -11.6648 C   0  0  0  0  0  0  0  0  0  0  0  0
   19.8434  -19.5925  -12.5875 C   0  0  0  0  0  0  0  0  0  0  0  0
   21.1976  -20.0968  -12.4032 C   0  0  0  0  0  0  0  0  0  0  0  0
   21.3818  -21.5686  -12.7202 C   0  0  2  0  0  0  0  0  0  0  0  0
   22.7718  -21.9572  -12.5747 N   0  0  0  0  0  0  0  0  0  0  0  0
   20.9440  -21.9106  -14.0771 C   0  0  0  0  0  0  0  0  0  0  0  0
   19.6193  -21.7844  -14.4347 O   0  0  0  0  0  0  0  0  0  0  0  0
   19.4917  -18.7963  -13.6747 C   0  0  0  0  0  0  0  0  0  0  0  0
   18.2095  -18.3483  -13.7953 C   0  0  0  0  0  0  0  0  0  0  0  0
   21.7667  -22.3225  -14.9289 O   0  0  0  0  0  0  0  0  0  0  0  0
  2  1  1  0
  3  2  1  0
  3  4  1  6
  5  6  2  0
  5  3  1  0
  7  8  1  0
  9  8  1  0
  9 10  1  6
 11  9  1  0
 11 12  1  6
 12  5  1  0
 13 11  1  0
 14 13  2  0
 16 17  2  0
 16 15  1  0
 18 17  1  0
 19 18  2  0
 21 20  1  6
 20 19  1  0
 21 22  1  0
 22 13  1  0
 23 21  1  0
 23 24  1  0
 25 19  1  0
 25 26  2  0
 26 16  1  0
 27 23  2  0
M  END
$$$$
