KQY.pdb
     RDKit          3D

 31 31  0  0  1  0  0  0  0  0999 V2000
   17.0497  -12.6335  -18.1911 N   0  0  0  0  0  0  0  0  0  0  0  0
   18.1335  -12.2238  -17.3817 C   0  0  1  0  0  0  0  0  0  0  0  0
   19.4081  -12.9910  -17.4923 C   0  0  0  0  0  0  0  0  0  0  0  0
   19.3304  -14.4476  -17.2699 C   0  0  0  0  0  0  0  0  0  0  0  0
   19.6679  -14.9700  -15.9211 C   0  0  0  0  0  0  0  0  0  0  0  0
   19.5314  -16.4509  -15.7483 C   0  0  0  0  0  0  0  0  0  0  0  0
   18.2797  -16.8922  -15.2108 N   0  0  0  0  0  0  0  0  0  0  0  0
   18.3994  -10.7674  -17.5697 C   0  0  0  0  0  0  0  0  0  0  0  0
   19.1992  -10.4495  -18.5067 O   0  0  0  0  0  0  0  0  0  0  0  0
   14.7340   -5.7551  -17.4013 N   0  0  0  0  0  0  0  0  0  0  0  0
   16.0499   -5.1975  -17.2864 C   0  0  0  0  0  0  0  0  0  0  0  0
   16.2642   -4.0336  -16.9300 O   0  0  0  0  0  0  0  0  0  0  0  0
   17.1635   -6.1178  -17.6283 C   0  0  0  0  0  0  0  0  0  0  0  0
   16.9462   -7.5364  -17.2467 C   0  0  0  0  0  0  0  0  0  0  0  0
   18.1985   -8.3396  -17.1842 C   0  0  2  0  0  0  0  0  0  0  0  0
   17.8504   -9.7305  -16.8104 N   0  0  0  0  0  0  0  0  0  0  0  0
   19.0627   -7.8711  -16.0834 C   0  0  0  0  0  0  0  0  0  0  0  0
   18.8270   -8.2437  -14.8771 O   0  0  0  0  0  0  0  0  0  0  0  0
   23.5363  -12.2248  -15.5544 O   0  0  0  0  0  0  0  0  0  0  0  0
   23.2455  -10.8653  -15.5506 C   0  0  0  0  0  0  0  0  0  0  0  0
   23.0347  -10.2590  -14.3230 C   0  0  0  0  0  0  0  0  0  0  0  0
   22.7475   -8.9257  -14.2890 C   0  0  0  0  0  0  0  0  0  0  0  0
   22.6732   -8.2086  -15.4818 C   0  0  0  0  0  0  0  0  0  0  0  0
   22.3514   -6.7882  -15.3956 C   0  0  0  0  0  0  0  0  0  0  0  0
   20.8737   -6.5412  -15.0569 C   0  0  2  0  0  0  0  0  0  0  0  0
   20.1699   -7.0200  -16.2698 N   0  0  0  0  0  0  0  0  0  0  0  0
   20.7019   -5.0829  -14.8924 C   0  0  0  0  0  0  0  0  0  0  0  0
   20.0675   -4.3556  -15.6670 O   0  0  0  0  0  0  0  0  0  0  0  0
   22.8795   -8.7946  -16.7114 C   0  0  0  0  0  0  0  0  0  0  0  0
   23.1703  -10.1535  -16.7162 C   0  0  0  0  0  0  0  0  0  0  0  0
   21.2888   -4.4718  -13.7940 O   0  0  0  0  0  0  0  0  0  0  0  0
  2  1  1  6
  3  4  1  0
  3  2  1  0
  5  4  1  0
  6  5  1  0
  7  6  1  0
  8  9  2  0
  8  2  1  0
 10 11  1  0
 11 12  2  0
 13 11  1  0
 13 14  1  0
 15 14  1  1
 15 17  1  0
 15 16  1  0
 16  8  1  0
 17 26  1  0
 18 17  2  0
 19 20  1  0
 20 30  2  0
 20 21  1  0
 21 22  2  0
 22 23  1  0
 23 24  1  0
 25 24  1  6
 25 27  1  0
 26 25  1  0
 27 28  2  0
 27 31  1  0
 29 23  2  0
 30 29  1  0
M  END
$$$$
