KQY.pdb
     RDKit          3D

 31 31  0  0  1  0  0  0  0  0999 V2000
   17.3339  -14.1568  -15.2873 N   0  0  0  0  0  0  0  0  0  0  0  0
   18.4670  -13.4542  -15.7561 C   0  0  1  0  0  0  0  0  0  0  0  0
   19.2793  -14.0915  -16.8328 C   0  0  0  0  0  0  0  0  0  0  0  0
   18.9391  -15.4822  -17.1896 C   0  0  0  0  0  0  0  0  0  0  0  0
   18.3002  -15.7319  -18.5069 C   0  0  0  0  0  0  0  0  0  0  0  0
   18.9776  -16.7491  -19.3718 C   0  0  0  0  0  0  0  0  0  0  0  0
   18.4032  -16.9287  -20.6711 N   0  0  0  0  0  0  0  0  0  0  0  0
   18.0875  -12.0683  -16.1590 C   0  0  0  0  0  0  0  0  0  0  0  0
   18.4444  -11.6938  -17.3214 O   0  0  0  0  0  0  0  0  0  0  0  0
   12.9711   -9.0138  -14.9579 N   0  0  0  0  0  0  0  0  0  0  0  0
   13.6000   -8.0456  -15.8081 C   0  0  0  0  0  0  0  0  0  0  0  0
   13.0320   -7.0231  -16.2070 O   0  0  0  0  0  0  0  0  0  0  0  0
   15.0021   -8.3491  -16.1903 C   0  0  0  0  0  0  0  0  0  0  0  0
   15.5179   -9.6539  -15.7036 C   0  0  0  0  0  0  0  0  0  0  0  0
   16.9578   -9.8810  -16.0074 C   0  0  2  0  0  0  0  0  0  0  0  0
   17.3799  -11.1529  -15.3752 N   0  0  0  0  0  0  0  0  0  0  0  0
   17.7950   -8.8543  -15.3568 C   0  0  0  0  0  0  0  0  0  0  0  0
   18.0636   -8.9423  -14.1040 O   0  0  0  0  0  0  0  0  0  0  0  0
   22.9969   -1.8942  -14.1954 O   0  0  0  0  0  0  0  0  0  0  0  0
   22.2877   -2.9814  -14.6934 C   0  0  0  0  0  0  0  0  0  0  0  0
   21.2936   -2.7256  -15.6237 C   0  0  0  0  0  0  0  0  0  0  0  0
   20.5814   -3.7736  -16.1296 C   0  0  0  0  0  0  0  0  0  0  0  0
   20.8680   -5.0688  -15.7021 C   0  0  0  0  0  0  0  0  0  0  0  0
   20.0717   -6.1554  -16.2622 C   0  0  0  0  0  0  0  0  0  0  0  0
   19.1042   -6.7631  -15.2355 C   0  0  2  0  0  0  0  0  0  0  0  0
   18.3445   -7.7503  -16.0381 N   0  0  0  0  0  0  0  0  0  0  0  0
   18.2207   -5.6738  -14.7711 C   0  0  0  0  0  0  0  0  0  0  0  0
   18.5162   -4.8506  -13.8954 O   0  0  0  0  0  0  0  0  0  0  0  0
   21.8524   -5.3420  -14.7779 C   0  0  0  0  0  0  0  0  0  0  0  0
   22.5619   -4.2560  -14.2795 C   0  0  0  0  0  0  0  0  0  0  0  0
   16.9660   -5.5530  -15.3504 O   0  0  0  0  0  0  0  0  0  0  0  0
  2  1  1  6
  3  4  1  0
  3  2  1  0
  5  4  1  0
  6  5  1  0
  7  6  1  0
  8  9  2  0
  8  2  1  0
 10 11  1  0
 11 12  2  0
 13 11  1  0
 13 14  1  0
 15 14  1  1
 15 17  1  0
 15 16  1  0
 16  8  1  0
 17 26  1  0
 18 17  2  0
 19 20  1  0
 20 30  2  0
 20 21  1  0
 21 22  2  0
 22 23  1  0
 23 24  1  0
 25 24  1  6
 25 27  1  0
 26 25  1  0
 27 28  2  0
 27 31  1  0
 29 23  2  0
 30 29  1  0
M  END
$$$$
