KQY.pdb
     RDKit          3D

 31 31  0  0  1  0  0  0  0  0999 V2000
   24.6025  -14.8175  -18.3316 N   0  0  0  0  0  0  0  0  0  0  0  0
   24.3331  -14.0996  -17.1444 C   0  0  1  0  0  0  0  0  0  0  0  0
   25.4977  -13.5720  -16.3758 C   0  0  0  0  0  0  0  0  0  0  0  0
   26.5442  -14.5427  -16.0021 C   0  0  0  0  0  0  0  0  0  0  0  0
   26.1449  -15.7343  -15.2105 C   0  0  0  0  0  0  0  0  0  0  0  0
   27.2490  -16.6892  -14.8776 C   0  0  0  0  0  0  0  0  0  0  0  0
   26.8878  -17.7616  -14.0001 N   0  0  0  0  0  0  0  0  0  0  0  0
   23.3614  -12.9993  -17.4132 C   0  0  0  0  0  0  0  0  0  0  0  0
   23.6326  -12.2226  -18.3837 O   0  0  0  0  0  0  0  0  0  0  0  0
   17.2239  -12.7290  -16.8744 N   0  0  0  0  0  0  0  0  0  0  0  0
   17.5786  -12.0251  -18.0721 C   0  0  0  0  0  0  0  0  0  0  0  0
   16.7616  -11.7260  -18.9499 O   0  0  0  0  0  0  0  0  0  0  0  0
   19.0143  -11.6696  -18.2002 C   0  0  0  0  0  0  0  0  0  0  0  0
   19.8840  -12.1611  -17.1014 C   0  0  0  0  0  0  0  0  0  0  0  0
   21.2903  -11.6792  -17.1878 C   0  0  2  0  0  0  0  0  0  0  0  0
   22.1885  -12.7498  -16.6955 N   0  0  0  0  0  0  0  0  0  0  0  0
   21.5140  -10.5572  -16.2554 C   0  0  0  0  0  0  0  0  0  0  0  0
   21.7762  -10.7900  -15.0199 O   0  0  0  0  0  0  0  0  0  0  0  0
   22.3771   -2.1599  -13.9126 O   0  0  0  0  0  0  0  0  0  0  0  0
   22.4573   -3.4353  -14.4600 C   0  0  0  0  0  0  0  0  0  0  0  0
   22.6156   -4.4984  -13.5860 C   0  0  0  0  0  0  0  0  0  0  0  0
   22.6971   -5.7615  -14.0953 C   0  0  0  0  0  0  0  0  0  0  0  0
   22.6200   -5.9525  -15.4738 C   0  0  0  0  0  0  0  0  0  0  0  0
   22.7243   -7.3198  -15.9719 C   0  0  0  0  0  0  0  0  0  0  0  0
   21.5233   -8.1860  -15.5633 C   0  0  2  0  0  0  0  0  0  0  0  0
   21.4651   -9.2027  -16.6398 N   0  0  0  0  0  0  0  0  0  0  0  0
   20.3282   -7.3179  -15.5968 C   0  0  0  0  0  0  0  0  0  0  0  0
   19.7048   -7.0152  -16.6222 O   0  0  0  0  0  0  0  0  0  0  0  0
   22.4629   -4.9076  -16.3577 C   0  0  0  0  0  0  0  0  0  0  0  0
   22.3827   -3.6323  -15.8115 C   0  0  0  0  0  0  0  0  0  0  0  0
   19.8598   -6.7978  -14.3992 O   0  0  0  0  0  0  0  0  0  0  0  0
  2  1  1  6
  3  4  1  0
  3  2  1  0
  5  4  1  0
  6  5  1  0
  7  6  1  0
  8  9  2  0
  8  2  1  0
 10 11  1  0
 11 12  2  0
 13 11  1  0
 13 14  1  0
 15 14  1  1
 15 17  1  0
 15 16  1  0
 16  8  1  0
 17 26  1  0
 18 17  2  0
 19 20  1  0
 20 30  2  0
 20 21  1  0
 21 22  2  0
 22 23  1  0
 23 24  1  0
 25 24  1  6
 25 27  1  0
 26 25  1  0
 27 28  2  0
 27 31  1  0
 29 23  2  0
 30 29  1  0
M  END
$$$$
