KQY.pdb
     RDKit          3D

 31 31  0  0  1  0  0  0  0  0999 V2000
   26.4814  -17.8135  -17.3372 N   0  0  0  0  0  0  0  0  0  0  0  0
   27.2947  -18.6707  -16.5618 C   0  0  1  0  0  0  0  0  0  0  0  0
   28.5098  -18.0834  -15.9264 C   0  0  0  0  0  0  0  0  0  0  0  0
   29.7074  -17.9479  -16.7776 C   0  0  0  0  0  0  0  0  0  0  0  0
   29.5279  -17.4551  -18.1672 C   0  0  0  0  0  0  0  0  0  0  0  0
   30.7827  -17.3210  -18.9730 C   0  0  0  0  0  0  0  0  0  0  0  0
   31.4605  -16.0661  -18.8471 N   0  0  0  0  0  0  0  0  0  0  0  0
   26.4733  -19.3741  -15.5334 C   0  0  0  0  0  0  0  0  0  0  0  0
   25.5979  -18.6774  -14.9276 O   0  0  0  0  0  0  0  0  0  0  0  0
   24.8917  -25.3492  -15.1763 N   0  0  0  0  0  0  0  0  0  0  0  0
   24.0369  -24.8036  -14.1626 C   0  0  0  0  0  0  0  0  0  0  0  0
   23.1720  -25.4645  -13.5774 O   0  0  0  0  0  0  0  0  0  0  0  0
   24.2546  -23.3686  -13.8509 C   0  0  0  0  0  0  0  0  0  0  0  0
   25.2941  -22.6975  -14.6723 C   0  0  0  0  0  0  0  0  0  0  0  0
   25.5539  -21.2860  -14.2755 C   0  0  2  0  0  0  0  0  0  0  0  0
   26.5827  -20.7218  -15.1802 N   0  0  0  0  0  0  0  0  0  0  0  0
   26.1728  -21.2274  -12.9369 C   0  0  0  0  0  0  0  0  0  0  0  0
   27.2925  -21.8179  -12.7194 O   0  0  0  0  0  0  0  0  0  0  0  0
   28.8497  -20.0061   -4.8846 O   0  0  0  0  0  0  0  0  0  0  0  0
   28.3633  -19.9104   -6.1834 C   0  0  0  0  0  0  0  0  0  0  0  0
   28.9170  -20.7480   -7.1378 C   0  0  0  0  0  0  0  0  0  0  0  0
   28.4589  -20.6758   -8.4210 C   0  0  0  0  0  0  0  0  0  0  0  0
   27.4513  -19.7674   -8.7404 C   0  0  0  0  0  0  0  0  0  0  0  0
   27.0028  -19.7184  -10.1278 C   0  0  0  0  0  0  0  0  0  0  0  0
   26.0876  -20.8976  -10.4903 C   0  0  2  0  0  0  0  0  0  0  0  0
   25.6059  -20.5404  -11.8454 N   0  0  0  0  0  0  0  0  0  0  0  0
   24.9727  -20.8983   -9.5208 C   0  0  0  0  0  0  0  0  0  0  0  0
   23.9060  -20.2893   -9.6722 O   0  0  0  0  0  0  0  0  0  0  0  0
   26.8893  -18.9268   -7.8048 C   0  0  0  0  0  0  0  0  0  0  0  0
   27.3748  -19.0218   -6.5062 C   0  0  0  0  0  0  0  0  0  0  0  0
   25.1185  -21.6308   -8.3519 O   0  0  0  0  0  0  0  0  0  0  0  0
  2  1  1  1
  3  4  1  0
  3  2  1  0
  5  4  1  0
  6  5  1  0
  7  6  1  0
  8  9  2  0
  8  2  1  0
 10 11  1  0
 11 12  2  0
 13 11  1  0
 13 14  1  0
 15 14  1  6
 15 17  1  0
 15 16  1  0
 16  8  1  0
 17 26  1  0
 18 17  2  0
 19 20  1  0
 20 30  2  0
 20 21  1  0
 21 22  2  0
 22 23  1  0
 23 24  1  0
 25 24  1  1
 25 27  1  0
 26 25  1  0
 27 28  2  0
 27 31  1  0
 29 23  2  0
 30 29  1  0
M  END
$$$$
