KQY.pdb
     RDKit          3D

 31 31  0  0  1  0  0  0  0  0999 V2000
   27.0592  -21.6066  -17.0631 N   0  0  0  0  0  0  0  0  0  0  0  0
   26.1946  -20.5434  -16.7174 C   0  0  1  0  0  0  0  0  0  0  0  0
   25.2295  -20.0722  -17.7527 C   0  0  0  0  0  0  0  0  0  0  0  0
   25.7973  -19.6299  -19.0408 C   0  0  0  0  0  0  0  0  0  0  0  0
   24.9470  -18.8031  -19.9349 C   0  0  0  0  0  0  0  0  0  0  0  0
   25.6244  -18.2675  -21.1581 C   0  0  0  0  0  0  0  0  0  0  0  0
   24.8017  -17.4651  -22.0123 N   0  0  0  0  0  0  0  0  0  0  0  0
   25.4689  -20.8561  -15.4514 C   0  0  0  0  0  0  0  0  0  0  0  0
   24.7420  -21.9004  -15.4532 O   0  0  0  0  0  0  0  0  0  0  0  0
   24.6155  -21.1391   -9.5450 N   0  0  0  0  0  0  0  0  0  0  0  0
   25.9866  -21.2452   -9.9508 C   0  0  0  0  0  0  0  0  0  0  0  0
   26.8378  -21.8681   -9.3068 O   0  0  0  0  0  0  0  0  0  0  0  0
   26.3321  -20.5482  -11.2151 C   0  0  0  0  0  0  0  0  0  0  0  0
   25.1950  -19.8756  -11.8932 C   0  0  0  0  0  0  0  0  0  0  0  0
   24.7232  -20.5814  -13.1166 C   0  0  2  0  0  0  0  0  0  0  0  0
   25.5177  -20.1060  -14.2733 N   0  0  0  0  0  0  0  0  0  0  0  0
   23.3372  -20.1912  -13.4404 C   0  0  0  0  0  0  0  0  0  0  0  0
   23.0895  -19.0169  -13.8976 O   0  0  0  0  0  0  0  0  0  0  0  0
   16.1368  -19.1006  -17.5622 O   0  0  0  0  0  0  0  0  0  0  0  0
   17.3592  -19.3947  -16.9689 C   0  0  0  0  0  0  0  0  0  0  0  0
   17.7361  -20.7262  -16.9051 C   0  0  0  0  0  0  0  0  0  0  0  0
   18.9310  -21.0442  -16.3284 C   0  0  0  0  0  0  0  0  0  0  0  0
   19.7398  -20.0294  -15.8198 C   0  0  0  0  0  0  0  0  0  0  0  0
   21.0024  -20.4195  -15.2017 C   0  0  0  0  0  0  0  0  0  0  0  0
   20.9001  -20.5208  -13.6724 C   0  0  2  0  0  0  0  0  0  0  0  0
   22.2295  -21.0478  -13.2843 N   0  0  0  0  0  0  0  0  0  0  0  0
   19.8383  -21.5029  -13.3706 C   0  0  0  0  0  0  0  0  0  0  0  0
   18.7120  -21.2158  -12.9455 O   0  0  0  0  0  0  0  0  0  0  0  0
   19.3813  -18.7004  -15.8742 C   0  0  0  0  0  0  0  0  0  0  0  0
   18.1595  -18.4054  -16.4670 C   0  0  0  0  0  0  0  0  0  0  0  0
   20.1098  -22.8479  -13.5744 O   0  0  0  0  0  0  0  0  0  0  0  0
  2  1  1  6
  3  4  1  0
  3  2  1  0
  5  4  1  0
  6  5  1  0
  7  6  1  0
  8  9  2  0
  8  2  1  0
 10 11  1  0
 11 12  2  0
 13 11  1  0
 13 14  1  0
 15 14  1  1
 15 17  1  0
 15 16  1  0
 16  8  1  0
 17 26  1  0
 18 17  2  0
 19 20  1  0
 20 30  2  0
 20 21  1  0
 21 22  2  0
 22 23  1  0
 23 24  1  0
 25 24  1  6
 25 27  1  0
 26 25  1  0
 27 28  2  0
 27 31  1  0
 29 23  2  0
 30 29  1  0
M  END
$$$$
