KQY.pdb
     RDKit          3D

 31 31  0  0  1  0  0  0  0  0999 V2000
   23.3725  -14.7925  -18.5478 N   0  0  0  0  0  0  0  0  0  0  0  0
   22.8267  -13.7094  -19.2733 C   0  0  1  0  0  0  0  0  0  0  0  0
   21.3554  -13.7135  -19.5198 C   0  0  0  0  0  0  0  0  0  0  0  0
   20.8482  -14.6839  -20.5087 C   0  0  0  0  0  0  0  0  0  0  0  0
   21.0076  -16.1314  -20.2162 C   0  0  0  0  0  0  0  0  0  0  0  0
   20.4422  -17.0645  -21.2416 C   0  0  0  0  0  0  0  0  0  0  0  0
   19.0165  -17.0399  -21.3725 N   0  0  0  0  0  0  0  0  0  0  0  0
   23.2346  -12.4137  -18.6555 C   0  0  0  0  0  0  0  0  0  0  0  0
   23.4508  -12.4221  -17.4017 O   0  0  0  0  0  0  0  0  0  0  0  0
   25.9709   -7.4300  -21.1788 N   0  0  0  0  0  0  0  0  0  0  0  0
   25.9555   -7.0292  -19.8023 C   0  0  0  0  0  0  0  0  0  0  0  0
   26.5175   -6.0099  -19.3868 O   0  0  0  0  0  0  0  0  0  0  0  0
   25.2108   -7.9285  -18.8856 C   0  0  0  0  0  0  0  0  0  0  0  0
   24.6025   -9.1199  -19.5306 C   0  0  0  0  0  0  0  0  0  0  0  0
   23.9533  -10.0558  -18.5714 C   0  0  2  0  0  0  0  0  0  0  0  0
   23.3974  -11.2006  -19.3301 N   0  0  0  0  0  0  0  0  0  0  0  0
   22.7746   -9.4251  -17.9462 C   0  0  0  0  0  0  0  0  0  0  0  0
   21.6133   -9.5638  -18.4769 O   0  0  0  0  0  0  0  0  0  0  0  0
   16.3148   -8.6601  -12.6523 O   0  0  0  0  0  0  0  0  0  0  0  0
   17.4620   -8.8613  -13.4113 C   0  0  0  0  0  0  0  0  0  0  0  0
   18.5748   -9.3756  -12.7659 C   0  0  0  0  0  0  0  0  0  0  0  0
   19.7148   -9.5835  -13.4861 C   0  0  0  0  0  0  0  0  0  0  0  0
   19.7341   -9.2760  -14.8454 C   0  0  0  0  0  0  0  0  0  0  0  0
   20.9793   -9.5041  -15.5706 C   0  0  0  0  0  0  0  0  0  0  0  0
   21.5503   -8.2129  -16.1759 C   0  0  2  0  0  0  0  0  0  0  0  0
   22.8345   -8.6610  -16.7640 N   0  0  0  0  0  0  0  0  0  0  0  0
   21.7843   -7.2742  -15.0592 C   0  0  0  0  0  0  0  0  0  0  0  0
   22.8275   -7.2127  -14.3962 O   0  0  0  0  0  0  0  0  0  0  0  0
   18.6376   -8.7638  -15.5036 C   0  0  0  0  0  0  0  0  0  0  0  0
   17.4903   -8.5623  -14.7458 C   0  0  0  0  0  0  0  0  0  0  0  0
   20.7695   -6.3919  -14.7186 O   0  0  0  0  0  0  0  0  0  0  0  0
  2  1  1  1
  3  4  1  0
  3  2  1  0
  5  4  1  0
  6  5  1  0
  7  6  1  0
  8  9  2  0
  8  2  1  0
 10 11  1  0
 11 12  2  0
 13 11  1  0
 13 14  1  0
 15 14  1  6
 15 17  1  0
 15 16  1  0
 16  8  1  0
 17 26  1  0
 18 17  2  0
 19 20  1  0
 20 30  2  0
 20 21  1  0
 21 22  2  0
 22 23  1  0
 23 24  1  0
 25 24  1  1
 25 27  1  0
 26 25  1  0
 27 28  2  0
 27 31  1  0
 29 23  2  0
 30 29  1  0
M  END
$$$$
