KQY.pdb
     RDKit          3D

 31 31  0  0  1  0  0  0  0  0999 V2000
   22.4423  -13.6204  -20.9981 N   0  0  0  0  0  0  0  0  0  0  0  0
   23.0136  -12.8874  -19.9333 C   0  0  1  0  0  0  0  0  0  0  0  0
   24.2964  -12.1726  -20.1957 C   0  0  0  0  0  0  0  0  0  0  0  0
   25.4099  -12.9777  -20.7331 C   0  0  0  0  0  0  0  0  0  0  0  0
   26.6588  -12.2749  -21.1235 C   0  0  0  0  0  0  0  0  0  0  0  0
   27.6978  -13.1237  -21.7884 C   0  0  0  0  0  0  0  0  0  0  0  0
   28.1369  -14.2584  -21.0334 N   0  0  0  0  0  0  0  0  0  0  0  0
   22.0126  -11.9406  -19.3601 C   0  0  0  0  0  0  0  0  0  0  0  0
   21.5356  -11.0659  -20.1516 O   0  0  0  0  0  0  0  0  0  0  0  0
   17.4751  -13.0435  -15.5608 N   0  0  0  0  0  0  0  0  0  0  0  0
   17.2837  -11.6260  -15.6605 C   0  0  0  0  0  0  0  0  0  0  0  0
   16.3286  -11.0331  -15.1471 O   0  0  0  0  0  0  0  0  0  0  0  0
   18.3204  -10.8964  -16.4332 C   0  0  0  0  0  0  0  0  0  0  0  0
   19.3638  -11.7539  -17.0508 C   0  0  0  0  0  0  0  0  0  0  0  0
   20.4707  -10.9879  -17.6873 C   0  0  2  0  0  0  0  0  0  0  0  0
   21.5580  -11.9312  -18.0387 N   0  0  0  0  0  0  0  0  0  0  0  0
   21.0887  -10.0633  -16.7171 C   0  0  0  0  0  0  0  0  0  0  0  0
   21.9229  -10.5068  -15.8471 O   0  0  0  0  0  0  0  0  0  0  0  0
   16.6978   -4.1086  -17.1092 O   0  0  0  0  0  0  0  0  0  0  0  0
   17.9364   -4.7223  -16.9618 C   0  0  0  0  0  0  0  0  0  0  0  0
   18.6256   -4.4983  -15.7811 C   0  0  0  0  0  0  0  0  0  0  0  0
   19.8438   -5.0881  -15.6090 C   0  0  0  0  0  0  0  0  0  0  0  0
   20.3639   -5.8970  -16.6178 C   0  0  0  0  0  0  0  0  0  0  0  0
   21.6750   -6.4961  -16.3931 C   0  0  0  0  0  0  0  0  0  0  0  0
   21.5836   -7.8656  -15.7036 C   0  0  2  0  0  0  0  0  0  0  0  0
   20.8238   -8.6800  -16.6810 N   0  0  0  0  0  0  0  0  0  0  0  0
   20.8061   -7.6773  -14.4614 C   0  0  0  0  0  0  0  0  0  0  0  0
   19.6148   -7.9822  -14.3217 O   0  0  0  0  0  0  0  0  0  0  0  0
   19.6930   -6.1308  -17.7982 C   0  0  0  0  0  0  0  0  0  0  0  0
   18.4548   -5.5177  -17.9465 C   0  0  0  0  0  0  0  0  0  0  0  0
   21.4456   -7.1196  -13.3639 O   0  0  0  0  0  0  0  0  0  0  0  0
  2  1  1  6
  3  4  1  0
  3  2  1  0
  5  4  1  0
  6  5  1  0
  7  6  1  0
  8  9  2  0
  8  2  1  0
 10 11  1  0
 11 12  2  0
 13 11  1  0
 13 14  1  0
 15 14  1  1
 15 17  1  0
 15 16  1  0
 16  8  1  0
 17 26  1  0
 18 17  2  0
 19 20  1  0
 20 30  2  0
 20 21  1  0
 21 22  2  0
 22 23  1  0
 23 24  1  0
 25 24  1  6
 25 27  1  0
 26 25  1  0
 27 28  2  0
 27 31  1  0
 29 23  2  0
 30 29  1  0
M  END
$$$$
