KQY.pdb
     RDKit          3D

 31 31  0  0  1  0  0  0  0  0999 V2000
   10.4805   -6.4676  -10.1210 N   0  0  0  0  0  0  0  0  0  0  0  0
   10.7495   -5.2299   -9.4939 C   0  0  1  0  0  0  0  0  0  0  0  0
   10.5141   -5.1336   -8.0240 C   0  0  0  0  0  0  0  0  0  0  0  0
    9.7669   -6.2396   -7.3951 C   0  0  0  0  0  0  0  0  0  0  0  0
    9.2635   -6.0479   -6.0109 C   0  0  0  0  0  0  0  0  0  0  0  0
    8.5054   -7.2023   -5.4327 C   0  0  0  0  0  0  0  0  0  0  0  0
    8.0136   -7.0075   -4.1021 N   0  0  0  0  0  0  0  0  0  0  0  0
   12.1334   -4.7747   -9.8176 C   0  0  0  0  0  0  0  0  0  0  0  0
   13.0389   -5.6684   -9.8344 O   0  0  0  0  0  0  0  0  0  0  0  0
   13.7977   -1.8335  -14.5693 N   0  0  0  0  0  0  0  0  0  0  0  0
   15.0914   -1.8230  -13.9513 C   0  0  0  0  0  0  0  0  0  0  0  0
   16.1127   -1.4265  -14.5232 O   0  0  0  0  0  0  0  0  0  0  0  0
   15.1344   -2.3275  -12.5557 C   0  0  0  0  0  0  0  0  0  0  0  0
   13.8261   -2.7624  -12.0039 C   0  0  0  0  0  0  0  0  0  0  0  0
   13.8966   -3.2346  -10.5935 C   0  0  2  0  0  0  0  0  0  0  0  0
   12.5178   -3.4613  -10.1008 N   0  0  0  0  0  0  0  0  0  0  0  0
   14.4283   -2.1739   -9.7158 C   0  0  0  0  0  0  0  0  0  0  0  0
   13.6663   -1.2135   -9.3330 O   0  0  0  0  0  0  0  0  0  0  0  0
   19.5746    2.5816   -4.5052 O   0  0  0  0  0  0  0  0  0  0  0  0
   19.0422    1.5843   -5.3143 C   0  0  0  0  0  0  0  0  0  0  0  0
   17.8686    0.9787   -4.8958 C   0  0  0  0  0  0  0  0  0  0  0  0
   17.3233   -0.0033   -5.6702 C   0  0  0  0  0  0  0  0  0  0  0  0
   17.9548   -0.3726   -6.8566 C   0  0  0  0  0  0  0  0  0  0  0  0
   17.3407   -1.4357   -7.6447 C   0  0  0  0  0  0  0  0  0  0  0  0
   16.2004   -0.9211   -8.5360 C   0  0  2  0  0  0  0  0  0  0  0  0
   15.7565   -2.1431   -9.2468 N   0  0  0  0  0  0  0  0  0  0  0  0
   16.7899    0.0500   -9.4807 C   0  0  0  0  0  0  0  0  0  0  0  0
   17.3488   -0.2499  -10.5434 O   0  0  0  0  0  0  0  0  0  0  0  0
   19.1221    0.2182   -7.2882 C   0  0  0  0  0  0  0  0  0  0  0  0
   19.6550    1.2152   -6.4802 C   0  0  0  0  0  0  0  0  0  0  0  0
   16.7184    1.3992   -9.1664 O   0  0  0  0  0  0  0  0  0  0  0  0
  2  1  1  1
  3  4  1  0
  3  2  1  0
  5  4  1  0
  6  5  1  0
  7  6  1  0
  8  9  2  0
  8  2  1  0
 10 11  1  0
 11 12  2  0
 13 11  1  0
 13 14  1  0
 15 14  1  6
 15 17  1  0
 15 16  1  0
 16  8  1  0
 17 26  1  0
 18 17  2  0
 19 20  1  0
 20 30  2  0
 20 21  1  0
 21 22  2  0
 22 23  1  0
 23 24  1  0
 25 24  1  1
 25 27  1  0
 26 25  1  0
 27 28  2  0
 27 31  1  0
 29 23  2  0
 30 29  1  0
M  END
$$$$
