EKM.pdb
     RDKit          3D

 27 26  0  0  1  0  0  0  0  0999 V2000
   19.4028  -14.0333  -18.7012 N   0  0  0  0  0  0  0  0  0  0  0  0
   18.7634  -13.0271  -17.8888 C   0  0  1  0  0  0  0  0  0  0  0  0
   18.6881  -13.5431  -16.4722 C   0  0  0  0  0  0  0  0  0  0  0  0
   17.7678  -14.7416  -16.4040 C   0  0  0  0  0  0  0  0  0  0  0  0
   17.5919  -15.1723  -15.0023 C   0  0  0  0  0  0  0  0  0  0  0  0
   18.3538  -14.7452  -14.1134 O   0  0  0  0  0  0  0  0  0  0  0  0
   19.5640  -11.7829  -17.9805 C   0  0  0  0  0  0  0  0  0  0  0  0
   20.8119  -11.8349  -18.0386 O   0  0  0  0  0  0  0  0  0  0  0  0
   16.5830  -16.0474  -14.6819 O   0  0  0  0  0  0  0  0  0  0  0  0
   18.9310  -10.5134  -18.0039 N   0  0  0  0  0  0  0  0  0  0  0  0
   19.6289   -9.2705  -18.2130 C   0  0  1  0  0  0  0  0  0  0  0  0
   18.6094   -8.2552  -18.7135 C   0  0  0  0  0  0  0  0  0  0  0  0
   18.2195   -8.5299  -20.1450 C   0  0  0  0  0  0  0  0  0  0  0  0
   17.2499   -7.5052  -20.6283 C   0  0  0  0  0  0  0  0  0  0  0  0
   16.7806   -7.6614  -22.0329 C   0  0  0  0  0  0  0  0  0  0  0  0
   15.9058   -6.5372  -22.4033 N   0  0  0  0  0  0  0  0  0  0  0  0
   20.2789   -8.8056  -16.9615 C   0  0  0  0  0  0  0  0  0  0  0  0
   19.6357   -8.8568  -15.9015 O   0  0  0  0  0  0  0  0  0  0  0  0
   26.1654  -11.5232  -15.3683 C   0  0  0  0  0  0  0  0  0  0  0  0
   25.8846   -9.7418  -15.5609 S   0  0  0  0  0  0  0  0  0  0  0  0
   24.1029   -9.4211  -15.5494 C   0  0  0  0  0  0  0  0  0  0  0  0
   23.7883   -7.9779  -15.8710 C   0  0  0  0  0  0  0  0  0  0  0  0
   22.2825   -7.8246  -15.7813 C   0  0  2  0  0  0  0  0  0  0  0  0
   21.6092   -8.3076  -16.9482 N   0  0  0  0  0  0  0  0  0  0  0  0
   21.8711   -6.4486  -15.4091 C   0  0  0  0  0  0  0  0  0  0  0  0
   21.5280   -5.5836  -16.2519 O   0  0  0  0  0  0  0  0  0  0  0  0
   21.8595   -6.0845  -14.0705 O   0  0  0  0  0  0  0  0  0  0  0  0
  2  1  1  6
  2  7  1  0
  3  2  1  0
  3  4  1  0
  4  5  1  0
  5  9  1  0
  5  6  2  0
  7 10  1  0
  7  8  2  0
 10 11  1  0
 11 12  1  1
 11 17  1  0
 13 14  1  0
 13 12  1  0
 15 16  1  0
 15 14  1  0
 17 18  2  0
 20 19  1  0
 20 21  1  0
 21 22  1  0
 23 22  1  6
 23 25  1  0
 24 23  1  0
 24 17  1  0
 25 26  2  0
 25 27  1  0
M  END
$$$$
