EKM.pdb
     RDKit          3D

 27 26  0  0  1  0  0  0  0  0999 V2000
   16.6494  -11.6650  -10.5254 N   0  0  0  0  0  0  0  0  0  0  0  0
   15.8421  -10.4999  -10.7943 C   0  0  1  0  0  0  0  0  0  0  0  0
   14.5346  -10.6519  -10.0554 C   0  0  0  0  0  0  0  0  0  0  0  0
   13.7213  -11.7730  -10.6636 C   0  0  0  0  0  0  0  0  0  0  0  0
   12.2786  -11.5164  -10.4792 C   0  0  0  0  0  0  0  0  0  0  0  0
   11.6611  -10.7931  -11.2844 O   0  0  0  0  0  0  0  0  0  0  0  0
   16.5937   -9.3040  -10.3447 C   0  0  0  0  0  0  0  0  0  0  0  0
   17.1901   -9.3063   -9.2457 O   0  0  0  0  0  0  0  0  0  0  0  0
   11.6190  -12.0797   -9.4143 O   0  0  0  0  0  0  0  0  0  0  0  0
   16.6501   -8.1377  -11.1506 N   0  0  0  0  0  0  0  0  0  0  0  0
   17.2109   -6.8847  -10.7136 C   0  0  1  0  0  0  0  0  0  0  0  0
   18.0324   -6.3267  -11.8689 C   0  0  0  0  0  0  0  0  0  0  0  0
   19.2724   -7.1521  -12.1087 C   0  0  0  0  0  0  0  0  0  0  0  0
   19.9828   -6.6842  -13.3335 C   0  0  0  0  0  0  0  0  0  0  0  0
   21.2597   -7.3802  -13.6539 C   0  0  0  0  0  0  0  0  0  0  0  0
   21.8288   -6.8465  -14.9020 N   0  0  0  0  0  0  0  0  0  0  0  0
   16.1445   -5.9353  -10.3060 C   0  0  0  0  0  0  0  0  0  0  0  0
   15.0251   -6.0348  -10.8323 O   0  0  0  0  0  0  0  0  0  0  0  0
   11.5508   -2.5443   -5.3916 C   0  0  0  0  0  0  0  0  0  0  0  0
   12.7066   -3.8855   -5.7845 S   0  0  0  0  0  0  0  0  0  0  0  0
   13.7201   -3.3941   -7.2019 C   0  0  0  0  0  0  0  0  0  0  0  0
   14.6435   -4.5054   -7.6465 C   0  0  0  0  0  0  0  0  0  0  0  0
   15.3782   -4.0034   -8.8741 C   0  0  2  0  0  0  0  0  0  0  0  0
   16.3727   -4.9234   -9.3354 N   0  0  0  0  0  0  0  0  0  0  0  0
   15.9055   -2.6277   -8.6995 C   0  0  0  0  0  0  0  0  0  0  0  0
   15.1674   -1.6155   -8.6160 O   0  0  0  0  0  0  0  0  0  0  0  0
   17.2770   -2.4333   -8.6230 O   0  0  0  0  0  0  0  0  0  0  0  0
  2  1  1  1
  2  7  1  0
  3  2  1  0
  3  4  1  0
  4  5  1  0
  5  9  1  0
  5  6  2  0
  7 10  1  0
  7  8  2  0
 10 11  1  0
 11 12  1  6
 11 17  1  0
 13 14  1  0
 13 12  1  0
 15 16  1  0
 15 14  1  0
 17 18  2  0
 20 19  1  0
 20 21  1  0
 21 22  1  0
 23 22  1  1
 23 25  1  0
 24 23  1  0
 24 17  1  0
 25 26  2  0
 25 27  1  0
M  END
$$$$
