EKM.pdb
     RDKit          3D

 27 26  0  0  1  0  0  0  0  0999 V2000
   21.6006  -23.0716  -16.0302 N   0  0  0  0  0  0  0  0  0  0  0  0
   22.8753  -22.9067  -16.6855 C   0  0  1  0  0  0  0  0  0  0  0  0
   22.6298  -22.3118  -18.0509 C   0  0  0  0  0  0  0  0  0  0  0  0
   21.2411  -21.7154  -18.1158 C   0  0  0  0  0  0  0  0  0  0  0  0
   20.3882  -22.5034  -19.0284 C   0  0  0  0  0  0  0  0  0  0  0  0
   20.2519  -23.7304  -18.8584 O   0  0  0  0  0  0  0  0  0  0  0  0
   23.7165  -22.0240  -15.8426 C   0  0  0  0  0  0  0  0  0  0  0  0
   24.9206  -21.8381  -16.1242 O   0  0  0  0  0  0  0  0  0  0  0  0
   19.7446  -21.8769  -20.0673 O   0  0  0  0  0  0  0  0  0  0  0  0
   23.1729  -21.3756  -14.7038 N   0  0  0  0  0  0  0  0  0  0  0  0
   23.9168  -20.4769  -13.8585 C   0  0  1  0  0  0  0  0  0  0  0  0
   23.2798  -19.0992  -13.9877 C   0  0  0  0  0  0  0  0  0  0  0  0
   24.1805  -18.1464  -14.7342 C   0  0  0  0  0  0  0  0  0  0  0  0
   24.1649  -18.4483  -16.1945 C   0  0  0  0  0  0  0  0  0  0  0  0
   25.0621  -17.6160  -17.0431 C   0  0  0  0  0  0  0  0  0  0  0  0
   25.0518  -18.1109  -18.4292 N   0  0  0  0  0  0  0  0  0  0  0  0
   23.9097  -20.9411  -12.4481 C   0  0  0  0  0  0  0  0  0  0  0  0
   22.9334  -21.5887  -12.0389 O   0  0  0  0  0  0  0  0  0  0  0  0
   27.5173  -18.3164   -7.2856 C   0  0  0  0  0  0  0  0  0  0  0  0
   27.3922  -20.0995   -6.9787 S   0  0  0  0  0  0  0  0  0  0  0  0
   26.0499  -20.7784   -7.9861 C   0  0  0  0  0  0  0  0  0  0  0  0
   26.1429  -20.3276   -9.4261 C   0  0  0  0  0  0  0  0  0  0  0  0
   24.9818  -20.9657  -10.1634 C   0  0  2  0  0  0  0  0  0  0  0  0
   24.9853  -20.6642  -11.5625 N   0  0  0  0  0  0  0  0  0  0  0  0
   23.6750  -20.6862   -9.5190 C   0  0  0  0  0  0  0  0  0  0  0  0
   22.9119  -19.7603   -9.8888 O   0  0  0  0  0  0  0  0  0  0  0  0
   23.2618  -21.4762   -8.4561 O   0  0  0  0  0  0  0  0  0  0  0  0
  2  1  1  1
  2  7  1  0
  3  2  1  0
  3  4  1  0
  4  5  1  0
  5  9  1  0
  5  6  2  0
  7 10  1  0
  7  8  2  0
 10 11  1  0
 11 12  1  1
 11 17  1  0
 13 14  1  0
 13 12  1  0
 15 16  1  0
 15 14  1  0
 17 18  2  0
 20 19  1  0
 20 21  1  0
 21 22  1  0
 23 22  1  1
 23 25  1  0
 24 23  1  0
 24 17  1  0
 25 26  2  0
 25 27  1  0
M  END
$$$$
