EKM.pdb
     RDKit          3D

 27 26  0  0  1  0  0  0  0  0999 V2000
   26.8393  -19.9936  -15.8228 N   0  0  0  0  0  0  0  0  0  0  0  0
   25.8447  -20.8431  -16.4314 C   0  0  1  0  0  0  0  0  0  0  0  0
   26.5509  -22.0198  -17.0602 C   0  0  0  0  0  0  0  0  0  0  0  0
   27.8199  -21.5598  -17.7431 C   0  0  0  0  0  0  0  0  0  0  0  0
   29.0029  -22.0709  -17.0218 C   0  0  0  0  0  0  0  0  0  0  0  0
   30.0006  -21.3429  -16.8556 O   0  0  0  0  0  0  0  0  0  0  0  0
   24.8945  -21.2697  -15.3766 C   0  0  0  0  0  0  0  0  0  0  0  0
   23.9832  -22.0854  -15.6367 O   0  0  0  0  0  0  0  0  0  0  0  0
   28.9989  -23.3548  -16.5340 O   0  0  0  0  0  0  0  0  0  0  0  0
   25.0009  -20.7617  -14.0563 N   0  0  0  0  0  0  0  0  0  0  0  0
   24.0720  -21.0695  -12.9989 C   0  0  1  0  0  0  0  0  0  0  0  0
   24.5454  -20.3364  -11.7502 C   0  0  0  0  0  0  0  0  0  0  0  0
   25.4451  -21.2089  -10.9101 C   0  0  0  0  0  0  0  0  0  0  0  0
   25.9967  -20.4364   -9.7601 C   0  0  0  0  0  0  0  0  0  0  0  0
   26.9267  -21.1760   -8.8625 C   0  0  0  0  0  0  0  0  0  0  0  0
   27.4030  -20.2922   -7.7863 N   0  0  0  0  0  0  0  0  0  0  0  0
   22.6911  -20.6663  -13.3666 C   0  0  0  0  0  0  0  0  0  0  0  0
   22.4682  -19.4738  -13.6281 O   0  0  0  0  0  0  0  0  0  0  0  0
   17.4804  -24.1220  -16.4197 C   0  0  0  0  0  0  0  0  0  0  0  0
   17.8488  -22.4170  -16.9162 S   0  0  0  0  0  0  0  0  0  0  0  0
   18.5198  -21.5205  -15.4937 C   0  0  0  0  0  0  0  0  0  0  0  0
   19.9110  -21.9916  -15.1361 C   0  0  0  0  0  0  0  0  0  0  0  0
   20.2940  -21.2948  -13.8451 C   0  0  2  0  0  0  0  0  0  0  0  0
   21.6268  -21.6053  -13.4261 N   0  0  0  0  0  0  0  0  0  0  0  0
   19.2922  -21.4969  -12.7697 C   0  0  0  0  0  0  0  0  0  0  0  0
   18.1912  -20.8945  -12.7358 O   0  0  0  0  0  0  0  0  0  0  0  0
   19.5698  -22.3905  -11.7455 O   0  0  0  0  0  0  0  0  0  0  0  0
  2  1  1  1
  2  7  1  0
  3  2  1  0
  3  4  1  0
  4  5  1  0
  5  9  1  0
  5  6  2  0
  7 10  1  0
  7  8  2  0
 10 11  1  0
 11 12  1  1
 11 17  1  0
 13 14  1  0
 13 12  1  0
 15 16  1  0
 15 14  1  0
 17 18  2  0
 20 19  1  0
 20 21  1  0
 21 22  1  0
 23 22  1  6
 23 25  1  0
 24 23  1  0
 24 17  1  0
 25 26  2  0
 25 27  1  0
M  END
$$$$
