EKM.pdb
     RDKit          3D

 27 26  0  0  1  0  0  0  0  0999 V2000
   19.7822  -20.6177  -16.0544 N   0  0  0  0  0  0  0  0  0  0  0  0
   20.5486  -19.7041  -15.2424 C   0  0  1  0  0  0  0  0  0  0  0  0
   19.8369  -19.5368  -13.9218 C   0  0  0  0  0  0  0  0  0  0  0  0
   18.6436  -18.6219  -14.0869 C   0  0  0  0  0  0  0  0  0  0  0  0
   17.4586  -19.2024  -13.4238 C   0  0  0  0  0  0  0  0  0  0  0  0
   17.3307  -20.4388  -13.3352 O   0  0  0  0  0  0  0  0  0  0  0  0
   21.9076  -20.2701  -15.0686 C   0  0  0  0  0  0  0  0  0  0  0  0
   22.0910  -21.2636  -14.3318 O   0  0  0  0  0  0  0  0  0  0  0  0
   16.4960  -18.3721  -12.9040 O   0  0  0  0  0  0  0  0  0  0  0  0
   23.0224  -19.6966  -15.7327 N   0  0  0  0  0  0  0  0  0  0  0  0
   24.3713  -20.1877  -15.6106 C   0  0  1  0  0  0  0  0  0  0  0  0
   25.1650  -19.6338  -16.7869 C   0  0  0  0  0  0  0  0  0  0  0  0
   26.5945  -20.1159  -16.7593 C   0  0  0  0  0  0  0  0  0  0  0  0
   27.3588  -19.5509  -17.9084 C   0  0  0  0  0  0  0  0  0  0  0  0
   28.7701  -20.0070  -18.0414 C   0  0  0  0  0  0  0  0  0  0  0  0
   29.3949  -19.3856  -19.2203 N   0  0  0  0  0  0  0  0  0  0  0  0
   24.9737  -19.7785  -14.3166 C   0  0  0  0  0  0  0  0  0  0  0  0
   24.8461  -18.6012  -13.9457 O   0  0  0  0  0  0  0  0  0  0  0  0
   27.6025  -20.0806   -7.1452 C   0  0  0  0  0  0  0  0  0  0  0  0
   26.5566  -20.9145   -8.3699 S   0  0  0  0  0  0  0  0  0  0  0  0
   26.9755  -20.2987  -10.0200 C   0  0  0  0  0  0  0  0  0  0  0  0
   26.0840  -20.8934  -11.0863 C   0  0  0  0  0  0  0  0  0  0  0  0
   26.5405  -20.3189  -12.4131 C   0  0  2  0  0  0  0  0  0  0  0  0
   25.6873  -20.6951  -13.4989 N   0  0  0  0  0  0  0  0  0  0  0  0
   27.9731  -20.5891  -12.6883 C   0  0  0  0  0  0  0  0  0  0  0  0
   28.3704  -21.5866  -13.3389 O   0  0  0  0  0  0  0  0  0  0  0  0
   28.9318  -19.7073  -12.2109 O   0  0  0  0  0  0  0  0  0  0  0  0
  2  1  1  6
  2  7  1  0
  3  2  1  0
  3  4  1  0
  4  5  1  0
  5  9  1  0
  5  6  2  0
  7 10  1  0
  7  8  2  0
 10 11  1  0
 11 12  1  6
 11 17  1  0
 13 14  1  0
 13 12  1  0
 15 16  1  0
 15 14  1  0
 17 18  2  0
 20 19  1  0
 20 21  1  0
 21 22  1  0
 23 22  1  1
 23 25  1  0
 24 23  1  0
 24 17  1  0
 25 26  2  0
 25 27  1  0
M  END
$$$$
