EKM.pdb
     RDKit          3D

 27 26  0  0  1  0  0  0  0  0999 V2000
   25.0235  -19.4725  -15.3461 N   0  0  0  0  0  0  0  0  0  0  0  0
   26.1858  -18.7702  -15.8332 C   0  0  1  0  0  0  0  0  0  0  0  0
   27.0377  -19.7481  -16.6056 C   0  0  0  0  0  0  0  0  0  0  0  0
   27.2853  -20.9891  -15.7769 C   0  0  0  0  0  0  0  0  0  0  0  0
   28.0687  -21.9731  -16.5509 C   0  0  0  0  0  0  0  0  0  0  0  0
   28.3833  -21.7357  -17.7331 O   0  0  0  0  0  0  0  0  0  0  0  0
   25.7236  -17.6487  -16.6853 C   0  0  0  0  0  0  0  0  0  0  0  0
   26.5494  -16.8766  -17.2196 O   0  0  0  0  0  0  0  0  0  0  0  0
   28.4499  -23.1533  -15.9610 O   0  0  0  0  0  0  0  0  0  0  0  0
   24.3398  -17.4309  -16.9095 N   0  0  0  0  0  0  0  0  0  0  0  0
   23.8124  -16.3269  -17.6703 C   0  0  1  0  0  0  0  0  0  0  0  0
   22.4415  -16.7446  -18.1869 C   0  0  0  0  0  0  0  0  0  0  0  0
   21.8569  -15.6956  -19.1003 C   0  0  0  0  0  0  0  0  0  0  0  0
   20.5456  -16.1498  -19.6459 C   0  0  0  0  0  0  0  0  0  0  0  0
   19.8534  -15.1987  -20.5591 C   0  0  0  0  0  0  0  0  0  0  0  0
   18.5168  -15.7091  -20.9046 N   0  0  0  0  0  0  0  0  0  0  0  0
   23.7214  -15.1001  -16.8388 C   0  0  0  0  0  0  0  0  0  0  0  0
   23.2208  -15.1836  -15.7064 O   0  0  0  0  0  0  0  0  0  0  0  0
   27.9471  -10.1406  -16.6607 C   0  0  0  0  0  0  0  0  0  0  0  0
   26.8714   -9.8933  -15.2217 S   0  0  0  0  0  0  0  0  0  0  0  0
   25.3162  -10.7808  -15.4887 C   0  0  0  0  0  0  0  0  0  0  0  0
   25.5148  -12.0281  -16.3194 C   0  0  0  0  0  0  0  0  0  0  0  0
   24.1414  -12.6284  -16.5483 C   0  0  2  0  0  0  0  0  0  0  0  0
   24.1901  -13.8426  -17.3045 N   0  0  0  0  0  0  0  0  0  0  0  0
   23.1752  -11.6468  -17.0997 C   0  0  0  0  0  0  0  0  0  0  0  0
   23.1903  -11.2674  -18.2964 O   0  0  0  0  0  0  0  0  0  0  0  0
   22.2026  -11.1134  -16.2665 O   0  0  0  0  0  0  0  0  0  0  0  0
  2  1  1  6
  2  7  1  0
  3  2  1  0
  3  4  1  0
  4  5  1  0
  5  9  1  0
  5  6  2  0
  7 10  1  0
  7  8  2  0
 10 11  1  0
 11 12  1  1
 11 17  1  0
 13 14  1  0
 13 12  1  0
 15 16  1  0
 15 14  1  0
 17 18  2  0
 20 19  1  0
 20 21  1  0
 21 22  1  0
 23 22  1  6
 23 25  1  0
 24 23  1  0
 24 17  1  0
 25 26  2  0
 25 27  1  0
M  END
$$$$
