EKM.pdb
     RDKit          3D

 27 26  0  0  1  0  0  0  0  0999 V2000
   18.3497  -14.3344  -18.1721 N   0  0  0  0  0  0  0  0  0  0  0  0
   17.7208  -13.0636  -17.9058 C   0  0  1  0  0  0  0  0  0  0  0  0
   16.9460  -13.1824  -16.6157 C   0  0  0  0  0  0  0  0  0  0  0  0
   15.7653  -14.1095  -16.8022 C   0  0  0  0  0  0  0  0  0  0  0  0
   15.0193  -14.2486  -15.5353 C   0  0  0  0  0  0  0  0  0  0  0  0
   15.0340  -15.3281  -14.9127 O   0  0  0  0  0  0  0  0  0  0  0  0
   18.7825  -12.0328  -17.8184 C   0  0  0  0  0  0  0  0  0  0  0  0
   19.8891  -12.3046  -17.3035 O   0  0  0  0  0  0  0  0  0  0  0  0
   14.3078  -13.1811  -15.0450 O   0  0  0  0  0  0  0  0  0  0  0  0
   18.5634  -10.7222  -18.3156 N   0  0  0  0  0  0  0  0  0  0  0  0
   19.5164   -9.6480  -18.1989 C   0  0  1  0  0  0  0  0  0  0  0  0
   19.1241   -8.5802  -19.2121 C   0  0  0  0  0  0  0  0  0  0  0  0
   20.0602   -7.3984  -19.1532 C   0  0  0  0  0  0  0  0  0  0  0  0
   19.6693   -6.3714  -20.1612 C   0  0  0  0  0  0  0  0  0  0  0  0
   20.5412   -5.1665  -20.2379 C   0  0  0  0  0  0  0  0  0  0  0  0
   20.1300   -4.3140  -21.3651 N   0  0  0  0  0  0  0  0  0  0  0  0
   19.5351   -9.0979  -16.8198 C   0  0  0  0  0  0  0  0  0  0  0  0
   18.4586   -8.7812  -16.2899 O   0  0  0  0  0  0  0  0  0  0  0  0
   22.6279   -9.2944   -9.7150 C   0  0  0  0  0  0  0  0  0  0  0  0
   22.9452   -9.7319  -11.4463 S   0  0  0  0  0  0  0  0  0  0  0  0
   21.7145   -8.9177  -12.4952 C   0  0  0  0  0  0  0  0  0  0  0  0
   21.8579   -9.3176  -13.9460 C   0  0  0  0  0  0  0  0  0  0  0  0
   20.8225   -8.5298  -14.7246 C   0  0  2  0  0  0  0  0  0  0  0  0
   20.7463   -8.9268  -16.0975 N   0  0  0  0  0  0  0  0  0  0  0  0
   20.9786   -7.0638  -14.5585 C   0  0  0  0  0  0  0  0  0  0  0  0
   21.6692   -6.3556  -15.3315 O   0  0  0  0  0  0  0  0  0  0  0  0
   20.3374   -6.4302  -13.5039 O   0  0  0  0  0  0  0  0  0  0  0  0
  2  1  1  1
  2  7  1  0
  3  2  1  0
  3  4  1  0
  4  5  1  0
  5  9  1  0
  5  6  2  0
  7 10  1  0
  7  8  2  0
 10 11  1  0
 11 12  1  6
 11 17  1  0
 13 14  1  0
 13 12  1  0
 15 16  1  0
 15 14  1  0
 17 18  2  0
 20 19  1  0
 20 21  1  0
 21 22  1  0
 23 22  1  6
 23 25  1  0
 24 23  1  0
 24 17  1  0
 25 26  2  0
 25 27  1  0
M  END
$$$$
