HLT.pdb
     RDKit          3D

 26 26  0  0  1  0  0  0  0  0999 V2000
   22.4762  -13.3548  -19.1449 N   0  0  0  0  0  0  0  0  0  0  0  0
   22.4711  -11.9295  -19.4239 C   0  0  1  0  0  0  0  0  0  0  0  0
   21.2567  -11.5476  -20.2439 C   0  0  0  0  0  0  0  0  0  0  0  0
   21.2131  -12.1955  -21.5598 C   0  0  0  0  0  0  0  0  0  0  0  0
   20.1798  -12.9182  -22.1162 C   0  0  0  0  0  0  0  0  0  0  0  0
   20.5474  -13.3449  -23.3525 N   0  0  0  0  0  0  0  0  0  0  0  0
   21.7797  -12.8944  -23.5520 C   0  0  0  0  0  0  0  0  0  0  0  0
   22.1924  -12.1916  -22.4610 N   0  0  0  0  0  0  0  0  0  0  0  0
   22.5698  -11.1778  -18.1608 C   0  0  0  0  0  0  0  0  0  0  0  0
   21.8156  -11.4386  -17.1923 O   0  0  0  0  0  0  0  0  0  0  0  0
   27.2521  -10.3693  -15.7588 C   0  0  0  0  0  0  0  0  0  0  0  0
   25.7927  -10.4849  -15.9639 C   0  0  1  0  0  0  0  0  0  0  0  0
   25.1650  -10.8489  -14.5948 C   0  0  0  0  0  0  0  0  0  0  0  0
   25.0877   -9.2858  -16.4325 C   0  0  0  0  0  0  0  0  0  0  0  0
   23.6460   -9.3659  -16.7575 C   0  0  2  0  0  0  0  0  0  0  0  0
   23.5261  -10.1353  -18.0102 N   0  0  0  0  0  0  0  0  0  0  0  0
   22.9172   -8.0962  -16.8638 C   0  0  0  0  0  0  0  0  0  0  0  0
   23.4169   -7.2056  -17.6420 O   0  0  0  0  0  0  0  0  0  0  0  0
   19.8703   -7.4500  -18.5154 C   0  0  0  0  0  0  0  0  0  0  0  0
   19.6946   -6.8125  -17.1642 C   0  0  1  0  0  0  0  0  0  0  0  0
   19.0028   -7.7265  -16.3457 O   0  0  0  0  0  0  0  0  0  0  0  0
   21.0282   -6.5313  -16.4971 C   0  0  2  0  0  0  0  0  0  0  0  0
   21.7115   -7.7778  -16.1827 N   0  0  0  0  0  0  0  0  0  0  0  0
   20.7683   -5.7846  -15.2505 C   0  0  0  0  0  0  0  0  0  0  0  0
   20.2642   -4.5021  -15.2156 O   0  0  0  0  0  0  0  0  0  0  0  0
   21.0137   -6.3298  -14.1379 O   0  0  0  0  0  0  0  0  0  0  0  0
  2  1  1  1
  3  2  1  0
  4  3  1  0
  5  4  2  0
  6  7  1  0
  6  5  1  0
  7  8  2  0
  8  4  1  0
  9 16  1  0
  9  2  1  0
 10  9  2  0
 12 11  1  1
 12 14  1  0
 12 13  1  0
 15 14  1  6
 15 17  1  0
 15 16  1  0
 17 18  2  0
 20 19  1  6
 20 22  1  0
 21 20  1  0
 22 24  1  0
 22 23  1  1
 23 17  1  0
 24 25  1  0
 26 24  2  0
M  END
$$$$
