HLT.pdb
     RDKit          3D

 26 26  0  0  1  0  0  0  0  0999 V2000
   19.7299  -21.3738  -12.6032 N   0  0  0  0  0  0  0  0  0  0  0  0
   20.6298  -21.8313  -13.6474 C   0  0  1  0  0  0  0  0  0  0  0  0
   19.9079  -21.9236  -14.9754 C   0  0  0  0  0  0  0  0  0  0  0  0
   18.8699  -22.9604  -15.0051 C   0  0  0  0  0  0  0  0  0  0  0  0
   18.9402  -24.2460  -14.5136 C   0  0  0  0  0  0  0  0  0  0  0  0
   17.7597  -24.8779  -14.7436 N   0  0  0  0  0  0  0  0  0  0  0  0
   16.9807  -24.0000  -15.3629 C   0  0  0  0  0  0  0  0  0  0  0  0
   17.6524  -22.8267  -15.5258 N   0  0  0  0  0  0  0  0  0  0  0  0
   21.8142  -20.9567  -13.6979 C   0  0  0  0  0  0  0  0  0  0  0  0
   21.7027  -19.7106  -13.5989 O   0  0  0  0  0  0  0  0  0  0  0  0
   26.0516  -21.9251  -10.6643 C   0  0  0  0  0  0  0  0  0  0  0  0
   25.0443  -21.2732  -11.5279 C   0  0  1  0  0  0  0  0  0  0  0  0
   24.9636  -19.7872  -11.0963 C   0  0  0  0  0  0  0  0  0  0  0  0
   25.3070  -21.2672  -12.9720 C   0  0  0  0  0  0  0  0  0  0  0  0
   24.3208  -20.6572  -13.8917 C   0  0  2  0  0  0  0  0  0  0  0  0
   23.1157  -21.5073  -13.8609 N   0  0  0  0  0  0  0  0  0  0  0  0
   24.7539  -20.4315  -15.2759 C   0  0  0  0  0  0  0  0  0  0  0  0
   25.1337  -21.4632  -15.9388 O   0  0  0  0  0  0  0  0  0  0  0  0
   22.8795  -18.9797  -18.2969 C   0  0  0  0  0  0  0  0  0  0  0  0
   24.2017  -18.2811  -18.1334 C   0  0  1  0  0  0  0  0  0  0  0  0
   23.9736  -17.0963  -17.4068 O   0  0  0  0  0  0  0  0  0  0  0  0
   25.1845  -19.1166  -17.3344 C   0  0  2  0  0  0  0  0  0  0  0  0
   24.7832  -19.1736  -15.9361 N   0  0  0  0  0  0  0  0  0  0  0  0
   26.5144  -18.4846  -17.4394 C   0  0  0  0  0  0  0  0  0  0  0  0
   27.2314  -18.3969  -18.6134 O   0  0  0  0  0  0  0  0  0  0  0  0
   27.0485  -17.9879  -16.4082 O   0  0  0  0  0  0  0  0  0  0  0  0
  2  1  1  1
  3  2  1  0
  4  3  1  0
  5  4  2  0
  6  7  1  0
  6  5  1  0
  7  8  2  0
  8  4  1  0
  9 16  1  0
  9  2  1  0
 10  9  2  0
 12 11  1  1
 12 14  1  0
 12 13  1  0
 15 14  1  1
 15 17  1  0
 15 16  1  0
 17 18  2  0
 20 19  1  1
 20 22  1  0
 21 20  1  0
 22 24  1  0
 22 23  1  1
 23 17  1  0
 24 25  1  0
 26 24  2  0
M  END
$$$$
