HLT.pdb
     RDKit          3D

 26 26  0  0  1  0  0  0  0  0999 V2000
   28.0548  -21.9813  -16.4689 N   0  0  0  0  0  0  0  0  0  0  0  0
   27.5410  -20.8175  -15.7682 C   0  0  1  0  0  0  0  0  0  0  0  0
   26.9882  -19.8027  -16.7468 C   0  0  0  0  0  0  0  0  0  0  0  0
   28.0109  -19.2173  -17.6212 C   0  0  0  0  0  0  0  0  0  0  0  0
   28.4497  -19.6808  -18.8427 C   0  0  0  0  0  0  0  0  0  0  0  0
   29.4068  -18.8437  -19.3212 N   0  0  0  0  0  0  0  0  0  0  0  0
   29.5533  -17.8864  -18.4138 C   0  0  0  0  0  0  0  0  0  0  0  0
   28.7038  -18.1084  -17.3729 N   0  0  0  0  0  0  0  0  0  0  0  0
   26.5519  -21.2424  -14.7625 C   0  0  0  0  0  0  0  0  0  0  0  0
   25.6488  -22.0648  -15.0507 O   0  0  0  0  0  0  0  0  0  0  0  0
   24.7902  -22.0590   -9.5494 C   0  0  0  0  0  0  0  0  0  0  0  0
   25.1731  -20.6892   -9.9524 C   0  0  1  0  0  0  0  0  0  0  0  0
   25.9617  -20.0679   -8.7721 C   0  0  0  0  0  0  0  0  0  0  0  0
   26.0330  -20.5573  -11.1348 C   0  0  0  0  0  0  0  0  0  0  0  0
   25.5427  -21.0247  -12.4507 C   0  0  2  0  0  0  0  0  0  0  0  0
   26.5985  -20.7279  -13.4371 N   0  0  0  0  0  0  0  0  0  0  0  0
   24.2520  -20.4941  -12.9057 C   0  0  0  0  0  0  0  0  0  0  0  0
   24.1866  -19.2284  -13.1106 O   0  0  0  0  0  0  0  0  0  0  0  0
   22.6002  -20.2757  -15.9232 C   0  0  0  0  0  0  0  0  0  0  0  0
   21.5640  -20.8772  -15.0135 C   0  0  1  0  0  0  0  0  0  0  0  0
   21.6087  -22.2753  -15.1782 O   0  0  0  0  0  0  0  0  0  0  0  0
   21.8597  -20.5865  -13.5540 C   0  0  2  0  0  0  0  0  0  0  0  0
   23.0801  -21.2631  -13.1386 N   0  0  0  0  0  0  0  0  0  0  0  0
   20.7249  -21.0807  -12.7494 C   0  0  0  0  0  0  0  0  0  0  0  0
   19.4453  -20.5755  -12.8368 O   0  0  0  0  0  0  0  0  0  0  0  0
   20.9107  -22.0199  -11.9257 O   0  0  0  0  0  0  0  0  0  0  0  0
  2  1  1  6
  3  2  1  0
  4  3  1  0
  5  4  2  0
  6  7  1  0
  6  5  1  0
  7  8  2  0
  8  4  1  0
  9 16  1  0
  9  2  1  0
 10  9  2  0
 12 11  1  1
 12 14  1  0
 12 13  1  0
 15 14  1  1
 15 17  1  0
 15 16  1  0
 17 18  2  0
 20 19  1  6
 20 22  1  0
 21 20  1  0
 22 24  1  0
 22 23  1  1
 23 17  1  0
 24 25  1  0
 26 24  2  0
M  END
$$$$
