HLT.pdb
     RDKit          3D

 26 26  0  0  1  0  0  0  0  0999 V2000
   28.2874  -18.3505  -15.8015 N   0  0  0  0  0  0  0  0  0  0  0  0
   27.0807  -17.9857  -15.0802 C   0  0  1  0  0  0  0  0  0  0  0  0
   26.0267  -17.4573  -16.0304 C   0  0  0  0  0  0  0  0  0  0  0  0
   26.4494  -16.2585  -16.7635 C   0  0  0  0  0  0  0  0  0  0  0  0
   26.4536  -16.0547  -18.1266 C   0  0  0  0  0  0  0  0  0  0  0  0
   26.9199  -14.8063  -18.3907 N   0  0  0  0  0  0  0  0  0  0  0  0
   27.1962  -14.2545  -17.2158 C   0  0  0  0  0  0  0  0  0  0  0  0
   26.9112  -15.1360  -16.2176 N   0  0  0  0  0  0  0  0  0  0  0  0
   26.6127  -19.1348  -14.2860 C   0  0  0  0  0  0  0  0  0  0  0  0
   26.2583  -20.2031  -14.8408 O   0  0  0  0  0  0  0  0  0  0  0  0
   25.5845  -20.3531   -8.3913 C   0  0  0  0  0  0  0  0  0  0  0  0
   26.2071  -20.9143   -9.6090 C   0  0  1  0  0  0  0  0  0  0  0  0
   25.1850  -21.8962  -10.2353 C   0  0  0  0  0  0  0  0  0  0  0  0
   26.5693  -19.9672  -10.6704 C   0  0  0  0  0  0  0  0  0  0  0  0
   26.0749  -20.1890  -12.0477 C   0  0  2  0  0  0  0  0  0  0  0  0
   26.5518  -19.0587  -12.8667 N   0  0  0  0  0  0  0  0  0  0  0  0
   24.6274  -20.3676  -12.2134 C   0  0  0  0  0  0  0  0  0  0  0  0
   23.8855  -19.3535  -11.9500 O   0  0  0  0  0  0  0  0  0  0  0  0
   22.7464  -21.4883  -15.4076 C   0  0  0  0  0  0  0  0  0  0  0  0
   22.2558  -22.2618  -14.2143 C   0  0  1  0  0  0  0  0  0  0  0  0
   22.9493  -23.4872  -14.1832 O   0  0  0  0  0  0  0  0  0  0  0  0
   22.5575  -21.5409  -12.9137 C   0  0  2  0  0  0  0  0  0  0  0  0
   23.9875  -21.5618  -12.6415 N   0  0  0  0  0  0  0  0  0  0  0  0
   21.8395  -22.2363  -11.8273 C   0  0  0  0  0  0  0  0  0  0  0  0
   20.4666  -22.3372  -11.7572 O   0  0  0  0  0  0  0  0  0  0  0  0
   22.4982  -22.7783  -10.8959 O   0  0  0  0  0  0  0  0  0  0  0  0
  2  1  1  6
  3  2  1  0
  4  3  1  0
  5  4  2  0
  6  7  1  0
  6  5  1  0
  7  8  2  0
  8  4  1  0
  9 16  1  0
  9  2  1  0
 10  9  2  0
 12 11  1  1
 12 14  1  0
 12 13  1  0
 15 14  1  1
 15 17  1  0
 15 16  1  0
 17 18  2  0
 20 19  1  6
 20 22  1  0
 21 20  1  0
 22 24  1  0
 22 23  1  1
 23 17  1  0
 24 25  1  0
 26 24  2  0
M  END
$$$$
