HLT.pdb
     RDKit          3D

 26 26  0  0  1  0  0  0  0  0999 V2000
   28.0694  -20.5989  -16.0306 N   0  0  0  0  0  0  0  0  0  0  0  0
   27.1051  -19.6612  -15.4826 C   0  0  1  0  0  0  0  0  0  0  0  0
   26.5281  -18.7852  -16.5748 C   0  0  0  0  0  0  0  0  0  0  0  0
   27.5316  -17.9506  -17.2454 C   0  0  0  0  0  0  0  0  0  0  0  0
   27.9505  -16.6840  -16.8993 C   0  0  0  0  0  0  0  0  0  0  0  0
   28.8960  -16.2688  -17.7821 N   0  0  0  0  0  0  0  0  0  0  0  0
   29.0551  -17.2585  -18.6518 C   0  0  0  0  0  0  0  0  0  0  0  0
   28.2249  -18.2888  -18.3299 N   0  0  0  0  0  0  0  0  0  0  0  0
   26.0727  -20.3959  -14.7312 C   0  0  0  0  0  0  0  0  0  0  0  0
   25.5715  -21.4530  -15.1852 O   0  0  0  0  0  0  0  0  0  0  0  0
   26.7807  -21.8838  -10.7887 C   0  0  0  0  0  0  0  0  0  0  0  0
   25.4530  -21.3666  -10.3950 C   0  0  1  0  0  0  0  0  0  0  0  0
   25.6110  -20.7148   -8.9981 C   0  0  0  0  0  0  0  0  0  0  0  0
   24.8521  -20.3436  -11.2593 C   0  0  0  0  0  0  0  0  0  0  0  0
   24.6016  -20.6475  -12.6859 C   0  0  2  0  0  0  0  0  0  0  0  0
   25.6191  -19.9214  -13.4691 N   0  0  0  0  0  0  0  0  0  0  0  0
   23.2572  -20.3603  -13.2004 C   0  0  0  0  0  0  0  0  0  0  0  0
   22.9193  -19.1242  -13.2782 O   0  0  0  0  0  0  0  0  0  0  0  0
   21.7363  -21.1306  -16.5786 C   0  0  0  0  0  0  0  0  0  0  0  0
   20.7838  -21.5888  -15.5082 C   0  0  1  0  0  0  0  0  0  0  0  0
   21.0003  -22.9652  -15.3023 O   0  0  0  0  0  0  0  0  0  0  0  0
   21.0439  -20.8898  -14.1868 C   0  0  2  0  0  0  0  0  0  0  0  0
   22.3091  -21.3326  -13.6187 N   0  0  0  0  0  0  0  0  0  0  0  0
   19.9437  -21.2311  -13.2637 C   0  0  0  0  0  0  0  0  0  0  0  0
   18.6256  -20.8929  -13.4833 O   0  0  0  0  0  0  0  0  0  0  0  0
   20.1982  -21.8696  -12.2041 O   0  0  0  0  0  0  0  0  0  0  0  0
  2  1  1  6
  3  2  1  0
  4  3  1  0
  5  4  2  0
  6  7  1  0
  6  5  1  0
  7  8  2  0
  8  4  1  0
  9 16  1  0
  9  2  1  0
 10  9  2  0
 12 11  1  6
 12 14  1  0
 12 13  1  0
 15 14  1  1
 15 17  1  0
 15 16  1  0
 17 18  2  0
 20 19  1  6
 20 22  1  0
 21 20  1  0
 22 24  1  0
 22 23  1  1
 23 17  1  0
 24 25  1  0
 26 24  2  0
M  END
$$$$
