HLT.pdb
     RDKit          3D

 26 26  0  0  1  0  0  0  0  0999 V2000
   21.8142  -32.3875  -10.8602 N   0  0  0  0  0  0  0  0  0  0  0  0
   22.4134  -31.6488   -9.7626 C   0  0  1  0  0  0  0  0  0  0  0  0
   21.3835  -30.7736   -9.0795 C   0  0  0  0  0  0  0  0  0  0  0  0
   20.9162  -29.6611   -9.9145 C   0  0  0  0  0  0  0  0  0  0  0  0
   21.4941  -28.4204  -10.0766 C   0  0  0  0  0  0  0  0  0  0  0  0
   20.7433  -27.6865  -10.9387 N   0  0  0  0  0  0  0  0  0  0  0  0
   19.7261  -28.4590  -11.2990 C   0  0  0  0  0  0  0  0  0  0  0  0
   19.8255  -29.6664  -10.6772 N   0  0  0  0  0  0  0  0  0  0  0  0
   23.0738  -32.5861   -8.8377 C   0  0  0  0  0  0  0  0  0  0  0  0
   22.7548  -33.7994   -8.8094 O   0  0  0  0  0  0  0  0  0  0  0  0
   28.3235  -32.8013   -8.8932 C   0  0  0  0  0  0  0  0  0  0  0  0
   26.9004  -33.1431   -8.6855 C   0  0  1  0  0  0  0  0  0  0  0  0
   26.7773  -34.6833   -8.8024 C   0  0  0  0  0  0  0  0  0  0  0  0
   26.3092  -32.7815   -7.3915 C   0  0  0  0  0  0  0  0  0  0  0  0
   24.8814  -33.0735   -7.1332 C   0  0  2  0  0  0  0  0  0  0  0  0
   24.0919  -32.1348   -7.9524 N   0  0  0  0  0  0  0  0  0  0  0  0
   24.4372  -33.0326   -5.7348 C   0  0  0  0  0  0  0  0  0  0  0  0
   24.7788  -32.0024   -5.0491 O   0  0  0  0  0  0  0  0  0  0  0  0
   20.8999  -33.5216   -3.9859 C   0  0  0  0  0  0  0  0  0  0  0  0
   21.9593  -34.3979   -3.3754 C   0  0  1  0  0  0  0  0  0  0  0  0
   21.8522  -35.6731   -3.9639 O   0  0  0  0  0  0  0  0  0  0  0  0
   23.3553  -33.8819   -3.6708 C   0  0  2  0  0  0  0  0  0  0  0  0
   23.6632  -34.0320   -5.0858 N   0  0  0  0  0  0  0  0  0  0  0  0
   24.3138  -34.6709   -2.8721 C   0  0  0  0  0  0  0  0  0  0  0  0
   24.4253  -34.5825   -1.5011 O   0  0  0  0  0  0  0  0  0  0  0  0
   25.0881  -35.4810   -3.4548 O   0  0  0  0  0  0  0  0  0  0  0  0
  2  1  1  6
  3  2  1  0
  4  3  1  0
  5  4  2  0
  6  7  1  0
  6  5  1  0
  7  8  2  0
  8  4  1  0
  9 16  1  0
  9  2  1  0
 10  9  2  0
 12 11  1  1
 12 14  1  0
 12 13  1  0
 15 14  1  1
 15 17  1  0
 15 16  1  0
 17 18  2  0
 20 19  1  6
 20 22  1  0
 21 20  1  0
 22 24  1  0
 22 23  1  6
 23 17  1  0
 24 25  1  0
 26 24  2  0
M  END
$$$$
