HLT.pdb
     RDKit          3D

 26 26  0  0  1  0  0  0  0  0999 V2000
   28.2670  -21.5509  -16.5335 N   0  0  0  0  0  0  0  0  0  0  0  0
   27.7134  -20.4624  -15.7473 C   0  0  1  0  0  0  0  0  0  0  0  0
   27.0947  -19.4121  -16.6458 C   0  0  0  0  0  0  0  0  0  0  0  0
   28.0803  -18.6658  -17.4364 C   0  0  0  0  0  0  0  0  0  0  0  0
   29.4431  -18.8617  -17.4976 C   0  0  0  0  0  0  0  0  0  0  0  0
   29.9873  -17.9554  -18.3511 N   0  0  0  0  0  0  0  0  0  0  0  0
   28.9811  -17.2186  -18.8047 C   0  0  0  0  0  0  0  0  0  0  0  0
   27.8134  -17.6471  -18.2501 N   0  0  0  0  0  0  0  0  0  0  0  0
   26.7652  -21.0003  -14.7564 C   0  0  0  0  0  0  0  0  0  0  0  0
   25.9569  -21.9102  -15.0623 O   0  0  0  0  0  0  0  0  0  0  0  0
   24.9825  -22.0275   -9.5511 C   0  0  0  0  0  0  0  0  0  0  0  0
   25.2915  -20.6400   -9.9569 C   0  0  1  0  0  0  0  0  0  0  0  0
   26.0116  -19.9632   -8.7634 C   0  0  0  0  0  0  0  0  0  0  0  0
   26.1705  -20.4647  -11.1193 C   0  0  0  0  0  0  0  0  0  0  0  0
   25.7155  -20.9141  -12.4540 C   0  0  2  0  0  0  0  0  0  0  0  0
   26.7445  -20.4981  -13.4255 N   0  0  0  0  0  0  0  0  0  0  0  0
   24.3877  -20.4650  -12.8894 C   0  0  0  0  0  0  0  0  0  0  0  0
   24.2346  -19.2034  -13.0716 O   0  0  0  0  0  0  0  0  0  0  0  0
   22.4311  -21.0407  -16.0121 C   0  0  0  0  0  0  0  0  0  0  0  0
   21.5381  -21.3729  -14.8479 C   0  0  1  0  0  0  0  0  0  0  0  0
   21.5958  -22.7658  -14.6472 O   0  0  0  0  0  0  0  0  0  0  0  0
   22.0147  -20.7137  -13.5671 C   0  0  2  0  0  0  0  0  0  0  0  0
   23.2686  -21.3079  -13.1264 N   0  0  0  0  0  0  0  0  0  0  0  0
   20.9817  -20.9212  -12.5332 C   0  0  0  0  0  0  0  0  0  0  0  0
   19.7231  -20.3612  -12.5834 O   0  0  0  0  0  0  0  0  0  0  0  0
   21.2408  -21.6496  -11.5345 O   0  0  0  0  0  0  0  0  0  0  0  0
  2  1  1  6
  3  2  1  0
  4  3  1  0
  5  4  2  0
  6  7  1  0
  6  5  1  0
  7  8  2  0
  8  4  1  0
  9 16  1  0
  9  2  1  0
 10  9  2  0
 12 11  1  1
 12 14  1  0
 12 13  1  0
 15 14  1  1
 15 17  1  0
 15 16  1  0
 17 18  2  0
 20 19  1  6
 20 22  1  0
 21 20  1  0
 22 24  1  0
 22 23  1  1
 23 17  1  0
 24 25  1  0
 26 24  2  0
M  END
$$$$
