HLT.pdb
     RDKit          3D

 26 26  0  0  1  0  0  0  0  0999 V2000
   29.6235  -20.4151  -17.8789 N   0  0  0  0  0  0  0  0  0  0  0  0
   28.6347  -21.1770  -17.1364 C   0  0  1  0  0  0  0  0  0  0  0  0
   29.2276  -22.4746  -16.6288 C   0  0  0  0  0  0  0  0  0  0  0  0
   29.5978  -23.4063  -17.7003 C   0  0  0  0  0  0  0  0  0  0  0  0
   29.4367  -23.2439  -19.0594 C   0  0  0  0  0  0  0  0  0  0  0  0
   29.9136  -24.3425  -19.7007 N   0  0  0  0  0  0  0  0  0  0  0  0
   30.3582  -25.1624  -18.7567 C   0  0  0  0  0  0  0  0  0  0  0  0
   30.1685  -24.5968  -17.5325 N   0  0  0  0  0  0  0  0  0  0  0  0
   28.0738  -20.3426  -16.0596 C   0  0  0  0  0  0  0  0  0  0  0  0
   28.8217  -19.7479  -15.2460 O   0  0  0  0  0  0  0  0  0  0  0  0
   25.3907  -16.1354  -16.8513 C   0  0  0  0  0  0  0  0  0  0  0  0
   26.1513  -17.1921  -16.1512 C   0  0  1  0  0  0  0  0  0  0  0  0
   26.9817  -16.4999  -15.0411 C   0  0  0  0  0  0  0  0  0  0  0  0
   25.3738  -18.2445  -15.4860 C   0  0  0  0  0  0  0  0  0  0  0  0
   26.0773  -19.3750  -14.8397 C   0  0  2  0  0  0  0  0  0  0  0  0
   26.6664  -20.1920  -15.9174 N   0  0  0  0  0  0  0  0  0  0  0  0
   25.2890  -20.2161  -13.9311 C   0  0  0  0  0  0  0  0  0  0  0  0
   24.5123  -21.0830  -14.4727 O   0  0  0  0  0  0  0  0  0  0  0  0
   26.3567  -21.6919  -10.2338 C   0  0  0  0  0  0  0  0  0  0  0  0
   24.9584  -21.1424  -10.3101 C   0  0  1  0  0  0  0  0  0  0  0  0
   24.9830  -19.8338   -9.7896 O   0  0  0  0  0  0  0  0  0  0  0  0
   24.4685  -21.0475  -11.7431 C   0  0  2  0  0  0  0  0  0  0  0  0
   25.3190  -20.1503  -12.5120 N   0  0  0  0  0  0  0  0  0  0  0  0
   23.0896  -20.5207  -11.7218 C   0  0  0  0  0  0  0  0  0  0  0  0
   22.0204  -21.1928  -11.1695 O   0  0  0  0  0  0  0  0  0  0  0  0
   22.8490  -19.3911  -12.2329 O   0  0  0  0  0  0  0  0  0  0  0  0
  2  1  1  1
  3  2  1  0
  4  3  1  0
  5  4  2  0
  6  7  1  0
  6  5  1  0
  7  8  2  0
  8  4  1  0
  9 16  1  0
  9  2  1  0
 10  9  2  0
 12 11  1  1
 12 14  1  0
 12 13  1  0
 15 14  1  6
 15 17  1  0
 15 16  1  0
 17 18  2  0
 20 19  1  6
 20 22  1  0
 21 20  1  0
 22 24  1  0
 22 23  1  6
 23 17  1  0
 24 25  1  0
 26 24  2  0
M  END
$$$$
