HLT.pdb
     RDKit          3D

 26 26  0  0  1  0  0  0  0  0999 V2000
   28.2340  -21.3089  -15.8156 N   0  0  0  0  0  0  0  0  0  0  0  0
   27.4429  -20.2371  -15.2371 C   0  0  1  0  0  0  0  0  0  0  0  0
   26.9098  -19.3202  -16.3180 C   0  0  0  0  0  0  0  0  0  0  0  0
   27.9621  -18.6026  -17.0467 C   0  0  0  0  0  0  0  0  0  0  0  0
   28.5241  -18.9262  -18.2628 C   0  0  0  0  0  0  0  0  0  0  0  0
   29.4644  -17.9989  -18.5818 N   0  0  0  0  0  0  0  0  0  0  0  0
   29.4802  -17.1244  -17.5837 C   0  0  0  0  0  0  0  0  0  0  0  0
   28.5651  -17.4870  -16.6427 N   0  0  0  0  0  0  0  0  0  0  0  0
   26.3791  -20.8076  -14.3928 C   0  0  0  0  0  0  0  0  0  0  0  0
   25.8155  -21.8852  -14.7027 O   0  0  0  0  0  0  0  0  0  0  0  0
   26.3468  -20.2423   -8.7776 C   0  0  0  0  0  0  0  0  0  0  0  0
   26.1640  -20.7961  -10.1360 C   0  0  1  0  0  0  0  0  0  0  0  0
   25.7540  -22.2816   -9.9738 C   0  0  0  0  0  0  0  0  0  0  0  0
   25.1330  -20.1755  -10.9765 C   0  0  0  0  0  0  0  0  0  0  0  0
   24.8967  -20.6910  -12.3435 C   0  0  2  0  0  0  0  0  0  0  0  0
   25.9653  -20.1472  -13.2027 N   0  0  0  0  0  0  0  0  0  0  0  0
   23.5793  -20.4273  -12.9347 C   0  0  0  0  0  0  0  0  0  0  0  0
   23.1531  -19.2174  -12.8819 O   0  0  0  0  0  0  0  0  0  0  0  0
   22.3020  -20.8240  -16.4842 C   0  0  0  0  0  0  0  0  0  0  0  0
   21.3330  -21.4919  -15.5472 C   0  0  1  0  0  0  0  0  0  0  0  0
   21.6389  -22.8665  -15.5224 O   0  0  0  0  0  0  0  0  0  0  0  0
   21.4747  -20.9738  -14.1280 C   0  0  2  0  0  0  0  0  0  0  0  0
   22.7465  -21.3951  -13.5583 N   0  0  0  0  0  0  0  0  0  0  0  0
   20.3676  -21.5293  -13.3249 C   0  0  0  0  0  0  0  0  0  0  0  0
   19.0393  -21.2299  -13.5393 O   0  0  0  0  0  0  0  0  0  0  0  0
   20.6257  -22.3273  -12.3806 O   0  0  0  0  0  0  0  0  0  0  0  0
  2  1  1  6
  3  2  1  0
  4  3  1  0
  5  4  2  0
  6  7  1  0
  6  5  1  0
  7  8  2  0
  8  4  1  0
  9 16  1  0
  9  2  1  0
 10  9  2  0
 12 11  1  1
 12 14  1  0
 12 13  1  0
 15 14  1  1
 15 17  1  0
 15 16  1  0
 17 18  2  0
 20 19  1  6
 20 22  1  0
 21 20  1  0
 22 24  1  0
 22 23  1  1
 23 17  1  0
 24 25  1  0
 26 24  2  0
M  END
$$$$
