HLT.pdb
     RDKit          3D

 26 26  0  0  1  0  0  0  0  0999 V2000
   23.8787   -6.8366  -21.6569 N   0  0  0  0  0  0  0  0  0  0  0  0
   23.8511   -6.2304  -20.3373 C   0  0  1  0  0  0  0  0  0  0  0  0
   23.2311   -4.8500  -20.3938 C   0  0  0  0  0  0  0  0  0  0  0  0
   24.0141   -3.8898  -21.1801 C   0  0  0  0  0  0  0  0  0  0  0  0
   23.7866   -3.4647  -22.4713 C   0  0  0  0  0  0  0  0  0  0  0  0
   24.7463   -2.5697  -22.8231 N   0  0  0  0  0  0  0  0  0  0  0  0
   25.5462   -2.4472  -21.7713 C   0  0  0  0  0  0  0  0  0  0  0  0
   25.1048   -3.2507  -20.7643 N   0  0  0  0  0  0  0  0  0  0  0  0
   23.1640   -7.1297  -19.3941 C   0  0  0  0  0  0  0  0  0  0  0  0
   22.1147   -7.7338  -19.7243 O   0  0  0  0  0  0  0  0  0  0  0  0
   23.0369  -11.1017  -15.7044 C   0  0  0  0  0  0  0  0  0  0  0  0
   23.8319   -9.9092  -15.3423 C   0  0  1  0  0  0  0  0  0  0  0  0
   25.1903  -10.4135  -14.7934 C   0  0  0  0  0  0  0  0  0  0  0  0
   24.1501   -8.9664  -16.4215 C   0  0  0  0  0  0  0  0  0  0  0  0
   23.0526   -8.2855  -17.1442 C   0  0  2  0  0  0  0  0  0  0  0  0
   23.6765   -7.3339  -18.0829 N   0  0  0  0  0  0  0  0  0  0  0  0
   22.0380   -7.6092  -16.3271 C   0  0  0  0  0  0  0  0  0  0  0  0
   22.4589   -6.7249  -15.4970 O   0  0  0  0  0  0  0  0  0  0  0  0
   17.7493   -8.1070  -16.6170 C   0  0  0  0  0  0  0  0  0  0  0  0
   18.4292   -6.8228  -16.2278 C   0  0  1  0  0  0  0  0  0  0  0  0
   17.5928   -6.1555  -15.3118 O   0  0  0  0  0  0  0  0  0  0  0  0
   19.7514   -7.0759  -15.5277 C   0  0  2  0  0  0  0  0  0  0  0  0
   20.6388   -7.8505  -16.3833 N   0  0  0  0  0  0  0  0  0  0  0  0
   19.4771   -7.8323  -14.2901 C   0  0  0  0  0  0  0  0  0  0  0  0
   18.8442   -7.2972  -13.1886 O   0  0  0  0  0  0  0  0  0  0  0  0
   19.8329   -9.0415  -14.2101 O   0  0  0  0  0  0  0  0  0  0  0  0
  2  1  1  6
  3  2  1  0
  4  3  1  0
  5  4  2  0
  6  7  1  0
  6  5  1  0
  7  8  2  0
  8  4  1  0
  9 16  1  0
  9  2  1  0
 10  9  2  0
 12 11  1  6
 12 14  1  0
 12 13  1  0
 15 14  1  1
 15 17  1  0
 15 16  1  0
 17 18  2  0
 20 19  1  1
 20 22  1  0
 21 20  1  0
 22 24  1  0
 22 23  1  6
 23 17  1  0
 24 25  1  0
 26 24  2  0
M  END
$$$$
