HLT.pdb
     RDKit          3D

 26 26  0  0  1  0  0  0  0  0999 V2000
   20.1041  -13.1991  -18.0570 N   0  0  0  0  0  0  0  0  0  0  0  0
   20.4993  -11.9014  -18.5757 C   0  0  1  0  0  0  0  0  0  0  0  0
   19.5963  -11.4818  -19.7166 C   0  0  0  0  0  0  0  0  0  0  0  0
   19.6394  -12.3972  -20.8627 C   0  0  0  0  0  0  0  0  0  0  0  0
   18.7527  -13.4039  -21.1787 C   0  0  0  0  0  0  0  0  0  0  0  0
   19.1573  -14.0131  -22.3236 N   0  0  0  0  0  0  0  0  0  0  0  0
   20.2683  -13.3945  -22.7034 C   0  0  0  0  0  0  0  0  0  0  0  0
   20.5685  -12.4065  -21.8156 N   0  0  0  0  0  0  0  0  0  0  0  0
   20.5315  -10.9190  -17.4785 C   0  0  0  0  0  0  0  0  0  0  0  0
   19.6820  -10.9523  -16.5554 O   0  0  0  0  0  0  0  0  0  0  0  0
   24.4983  -10.4270  -14.1999 C   0  0  0  0  0  0  0  0  0  0  0  0
   23.1422  -10.2565  -14.7631 C   0  0  1  0  0  0  0  0  0  0  0  0
   22.1793  -10.0135  -13.5737 C   0  0  0  0  0  0  0  0  0  0  0  0
   22.9405   -9.1360  -15.6896 C   0  0  0  0  0  0  0  0  0  0  0  0
   21.6186   -8.9435  -16.3268 C   0  0  2  0  0  0  0  0  0  0  0  0
   21.5301   -9.9064  -17.4408 N   0  0  0  0  0  0  0  0  0  0  0  0
   21.2963   -7.5894  -16.7926 C   0  0  0  0  0  0  0  0  0  0  0  0
   22.1730   -7.0062  -17.5271 O   0  0  0  0  0  0  0  0  0  0  0  0
   18.5505   -6.3789  -19.0691 C   0  0  0  0  0  0  0  0  0  0  0  0
   18.5432   -5.5396  -17.8207 C   0  0  1  0  0  0  0  0  0  0  0  0
   17.5898   -6.0881  -16.9410 O   0  0  0  0  0  0  0  0  0  0  0  0
   19.8837   -5.5756  -17.1106 C   0  0  2  0  0  0  0  0  0  0  0  0
   20.1004   -6.8797  -16.5008 N   0  0  0  0  0  0  0  0  0  0  0  0
   19.8743   -4.5372  -16.0614 C   0  0  0  0  0  0  0  0  0  0  0  0
   19.8210   -3.1846  -16.3216 O   0  0  0  0  0  0  0  0  0  0  0  0
   19.9172   -4.8817  -14.8470 O   0  0  0  0  0  0  0  0  0  0  0  0
  2  1  1  1
  3  2  1  0
  4  3  1  0
  5  4  2  0
  6  7  1  0
  6  5  1  0
  7  8  2  0
  8  4  1  0
  9 16  1  0
  9  2  1  0
 10  9  2  0
 12 11  1  1
 12 14  1  0
 12 13  1  0
 15 14  1  6
 15 17  1  0
 15 16  1  0
 17 18  2  0
 20 19  1  6
 20 22  1  0
 21 20  1  0
 22 24  1  0
 22 23  1  1
 23 17  1  0
 24 25  1  0
 26 24  2  0
M  END
$$$$
