TDP.pdb
     RDKit          3D

 23 23  0  0  1  0  0  0  0  0999 V2000
   21.8284   -9.1016  -20.1672 C   0  0  0  0  0  0  0  0  0  0  0  0
   20.8302  -10.0774  -19.5585 C   0  0  1  0  0  0  0  0  0  0  0  0
   20.9776  -11.3597  -20.0267 O   0  0  0  0  0  0  0  0  0  0  0  0
   20.9755  -10.1037  -18.0378 C   0  0  2  0  0  0  0  0  0  0  0  0
   19.9502  -11.0419  -17.5156 N   0  0  0  0  0  0  0  0  0  0  0  0
   20.6944   -8.8191  -17.3946 C   0  0  0  0  0  0  0  0  0  0  0  0
   19.5446   -8.3204  -17.4091 O   0  0  0  0  0  0  0  0  0  0  0  0
   21.7097   -8.0760  -16.7170 N   0  0  0  0  0  0  0  0  0  0  0  0
   21.4351   -6.6963  -16.2982 C   0  0  1  0  0  0  0  0  0  0  0  0
   21.9672   -6.5681  -14.8846 C   0  0  0  0  0  0  0  0  0  0  0  0
   21.8601   -5.2728  -14.2492 C   0  0  0  0  0  0  0  0  0  0  0  0
   22.6675   -4.7491  -13.4522 O   0  0  0  0  0  0  0  0  0  0  0  0
   21.9523   -5.7247  -17.2254 C   0  0  0  0  0  0  0  0  0  0  0  0
   23.1366   -6.0102  -17.6935 O   0  0  0  0  0  0  0  0  0  0  0  0
   20.7276   -4.4552  -14.5239 O   0  0  0  0  0  0  0  0  0  0  0  0
   21.4313   -4.5183  -17.7351 N   0  0  0  0  0  0  0  0  0  0  0  0
   20.1911   -3.8272  -17.5842 C   0  0  0  0  0  0  0  0  0  0  0  0
   20.1502   -2.7751  -18.7038 C   0  0  0  0  0  0  0  0  0  0  0  0
   21.2486   -3.2627  -19.6681 C   0  0  0  0  0  0  0  0  0  0  0  0
   22.2684   -3.6651  -18.6192 C   0  0  1  0  0  0  0  0  0  0  0  0
   22.7571   -2.4888  -17.8592 C   0  0  0  0  0  0  0  0  0  0  0  0
   22.5001   -2.2488  -16.5289 O   0  0  0  0  0  0  0  0  0  0  0  0
   23.4580   -1.6494  -18.4767 O   0  0  0  0  0  0  0  0  0  0  0  0
  2  4  1  0
  2  1  1  6
  3  2  1  0
  4  6  1  0
  4  5  1  1
  6  8  1  0
  6  7  2  0
  8  9  1  0
  9 10  1  1
  9 13  1  0
 11 10  1  0
 12 11  2  0
 13 16  1  0
 14 13  2  0
 15 11  1  0
 16 17  1  0
 16 20  1  0
 17 18  1  0
 18 19  1  0
 20 19  1  0
 20 21  1  1
 21 22  1  0
 23 21  2  0
M  END
$$$$
