TDP.pdb
     RDKit          3D

 23 23  0  0  1  0  0  0  0  0999 V2000
   26.7070  -25.0037  -16.1157 C   0  0  0  0  0  0  0  0  0  0  0  0
   28.0329  -24.7626  -16.8248 C   0  0  1  0  0  0  0  0  0  0  0  0
   28.2946  -25.6877  -17.8050 O   0  0  0  0  0  0  0  0  0  0  0  0
   28.0479  -23.3738  -17.4615 C   0  0  2  0  0  0  0  0  0  0  0  0
   29.4413  -23.1072  -17.8992 N   0  0  0  0  0  0  0  0  0  0  0  0
   27.7163  -22.2932  -16.5313 C   0  0  0  0  0  0  0  0  0  0  0  0
   28.5527  -21.8691  -15.6996 O   0  0  0  0  0  0  0  0  0  0  0  0
   26.4316  -21.6674  -16.5282 N   0  0  0  0  0  0  0  0  0  0  0  0
   26.1381  -20.6284  -15.5339 C   0  0  1  0  0  0  0  0  0  0  0  0
   25.5203  -19.4734  -16.2969 C   0  0  0  0  0  0  0  0  0  0  0  0
   25.0586  -18.3393  -15.5264 C   0  0  0  0  0  0  0  0  0  0  0  0
   23.9034  -18.1330  -15.0970 O   0  0  0  0  0  0  0  0  0  0  0  0
   25.3426  -21.1200  -14.4400 C   0  0  0  0  0  0  0  0  0  0  0  0
   24.5220  -22.0812  -14.7657 O   0  0  0  0  0  0  0  0  0  0  0  0
   25.9791  -17.3077  -15.1877 O   0  0  0  0  0  0  0  0  0  0  0  0
   25.2729  -20.7706  -13.0764 N   0  0  0  0  0  0  0  0  0  0  0  0
   25.9213  -19.7904  -12.2656 C   0  0  0  0  0  0  0  0  0  0  0  0
   25.6625  -20.2036  -10.8081 C   0  0  0  0  0  0  0  0  0  0  0  0
   25.2051  -21.6684  -10.9466 C   0  0  0  0  0  0  0  0  0  0  0  0
   24.3330  -21.4881  -12.1751 C   0  0  1  0  0  0  0  0  0  0  0  0
   23.1622  -20.6244  -11.8864 C   0  0  0  0  0  0  0  0  0  0  0  0
   22.0814  -20.9940  -11.1191 O   0  0  0  0  0  0  0  0  0  0  0  0
   23.1577  -19.4694  -12.3793 O   0  0  0  0  0  0  0  0  0  0  0  0
  2  4  1  0
  2  1  1  6
  3  2  1  0
  4  6  1  0
  4  5  1  1
  6  8  1  0
  6  7  2  0
  8  9  1  0
  9 10  1  6
  9 13  1  0
 11 10  1  0
 12 11  2  0
 13 16  1  0
 14 13  2  0
 15 11  1  0
 16 17  1  0
 16 20  1  0
 17 18  1  0
 18 19  1  0
 20 19  1  0
 20 21  1  1
 21 22  1  0
 23 21  2  0
M  END
$$$$
