TDP.pdb
     RDKit          3D

 23 23  0  0  1  0  0  0  0  0999 V2000
   15.4206  -11.0754  -16.8185 C   0  0  0  0  0  0  0  0  0  0  0  0
   16.5976  -10.3612  -16.1677 C   0  0  1  0  0  0  0  0  0  0  0  0
   16.4761  -10.2568  -14.8041 O   0  0  0  0  0  0  0  0  0  0  0  0
   17.9003  -11.0973  -16.4769 C   0  0  2  0  0  0  0  0  0  0  0  0
   17.8646  -12.3823  -15.7341 N   0  0  0  0  0  0  0  0  0  0  0  0
   19.0986  -10.4036  -16.0018 C   0  0  0  0  0  0  0  0  0  0  0  0
   19.4995  -10.5290  -14.8208 O   0  0  0  0  0  0  0  0  0  0  0  0
   19.8703   -9.5579  -16.8570 N   0  0  0  0  0  0  0  0  0  0  0  0
   21.0375   -8.8541  -16.3125 C   0  0  1  0  0  0  0  0  0  0  0  0
   22.1451   -9.0151  -17.3348 C   0  0  0  0  0  0  0  0  0  0  0  0
   22.7478  -10.3242  -17.4609 C   0  0  0  0  0  0  0  0  0  0  0  0
   22.5107  -11.1885  -18.3317 O   0  0  0  0  0  0  0  0  0  0  0  0
   20.7432   -7.4915  -15.9549 C   0  0  0  0  0  0  0  0  0  0  0  0
   19.6937   -6.9969  -16.5525 O   0  0  0  0  0  0  0  0  0  0  0  0
   23.7299  -10.7316  -16.5143 O   0  0  0  0  0  0  0  0  0  0  0  0
   21.3646   -6.5775  -15.0802 N   0  0  0  0  0  0  0  0  0  0  0  0
   22.5710   -6.5933  -14.3167 C   0  0  0  0  0  0  0  0  0  0  0  0
   22.4497   -5.4440  -13.3036 C   0  0  0  0  0  0  0  0  0  0  0  0
   20.9427   -5.1244  -13.3318 C   0  0  0  0  0  0  0  0  0  0  0  0
   20.7416   -5.2509  -14.8304 C   0  0  1  0  0  0  0  0  0  0  0  0
   21.4884   -4.2028  -15.5678 C   0  0  0  0  0  0  0  0  0  0  0  0
   21.1291   -2.8759  -15.6293 O   0  0  0  0  0  0  0  0  0  0  0  0
   22.5264   -4.5532  -16.1816 O   0  0  0  0  0  0  0  0  0  0  0  0
  2  4  1  0
  2  1  1  1
  3  2  1  0
  4  6  1  0
  4  5  1  1
  6  8  1  0
  6  7  2  0
  8  9  1  0
  9 10  1  6
  9 13  1  0
 11 10  1  0
 12 11  2  0
 13 16  1  0
 14 13  2  0
 15 11  1  0
 16 17  1  0
 16 20  1  0
 17 18  1  0
 18 19  1  0
 20 19  1  0
 20 21  1  6
 21 22  1  0
 23 21  2  0
M  END
$$$$
