TDP.pdb
     RDKit          3D

 23 23  0  0  1  0  0  0  0  0999 V2000
   15.3650   -6.5873  -15.5486 C   0  0  0  0  0  0  0  0  0  0  0  0
   14.7234   -7.8991  -15.1165 C   0  0  1  0  0  0  0  0  0  0  0  0
   13.3958   -7.9859  -15.4560 O   0  0  0  0  0  0  0  0  0  0  0  0
   15.4571   -9.0808  -15.7486 C   0  0  2  0  0  0  0  0  0  0  0  0
   14.9231  -10.3153  -15.1200 N   0  0  0  0  0  0  0  0  0  0  0  0
   16.8960   -9.0956  -15.4799 C   0  0  0  0  0  0  0  0  0  0  0  0
   17.3526   -9.5307  -14.3967 O   0  0  0  0  0  0  0  0  0  0  0  0
   17.8474   -8.6227  -16.4356 N   0  0  0  0  0  0  0  0  0  0  0  0
   19.2767   -8.6476  -16.1031 C   0  0  1  0  0  0  0  0  0  0  0  0
   20.0085   -8.9396  -17.3981 C   0  0  0  0  0  0  0  0  0  0  0  0
   21.4544   -8.8991  -17.3679 C   0  0  0  0  0  0  0  0  0  0  0  0
   22.2256   -9.7175  -16.8230 O   0  0  0  0  0  0  0  0  0  0  0  0
   19.7069   -7.4526  -15.4261 C   0  0  0  0  0  0  0  0  0  0  0  0
   19.0703   -6.3732  -15.7908 O   0  0  0  0  0  0  0  0  0  0  0  0
   22.1335   -7.8286  -18.0154 O   0  0  0  0  0  0  0  0  0  0  0  0
   20.6837   -7.2127  -14.4389 N   0  0  0  0  0  0  0  0  0  0  0  0
   21.6495   -8.0284  -13.7751 C   0  0  0  0  0  0  0  0  0  0  0  0
   22.1260   -7.2202  -12.5578 C   0  0  0  0  0  0  0  0  0  0  0  0
   21.0394   -6.1361  -12.4237 C   0  0  0  0  0  0  0  0  0  0  0  0
   20.8726   -5.8391  -13.9023 C   0  0  1  0  0  0  0  0  0  0  0  0
   22.1035   -5.2442  -14.4777 C   0  0  0  0  0  0  0  0  0  0  0  0
   22.9104   -5.8536  -15.4110 O   0  0  0  0  0  0  0  0  0  0  0  0
   22.4332   -4.0984  -14.0834 O   0  0  0  0  0  0  0  0  0  0  0  0
  2  4  1  0
  2  1  1  6
  3  2  1  0
  4  6  1  0
  4  5  1  1
  6  8  1  0
  6  7  2  0
  8  9  1  0
  9 10  1  6
  9 13  1  0
 11 10  1  0
 12 11  2  0
 13 16  1  0
 14 13  2  0
 15 11  1  0
 16 17  1  0
 16 20  1  0
 17 18  1  0
 18 19  1  0
 20 19  1  0
 20 21  1  6
 21 22  1  0
 23 21  2  0
M  END
$$$$
