TDP.pdb
     RDKit          3D

 23 23  0  0  1  0  0  0  0  0999 V2000
   26.4088  -10.6012  -15.0791 C   0  0  0  0  0  0  0  0  0  0  0  0
   26.3227  -11.7403  -16.0861 C   0  0  1  0  0  0  0  0  0  0  0  0
   27.2601  -12.7203  -15.8709 O   0  0  0  0  0  0  0  0  0  0  0  0
   24.9380  -12.3844  -16.0399 C   0  0  2  0  0  0  0  0  0  0  0  0
   24.8977  -13.4143  -17.1084 N   0  0  0  0  0  0  0  0  0  0  0  0
   23.8453  -11.4597  -16.3460 C   0  0  0  0  0  0  0  0  0  0  0  0
   23.6083  -11.0968  -17.5221 O   0  0  0  0  0  0  0  0  0  0  0  0
   22.9951  -10.9315  -15.3259 N   0  0  0  0  0  0  0  0  0  0  0  0
   21.9523   -9.9636  -15.6862 C   0  0  1  0  0  0  0  0  0  0  0  0
   20.6539  -10.5111  -15.1273 C   0  0  0  0  0  0  0  0  0  0  0  0
   19.4676   -9.6981  -15.2846 C   0  0  0  0  0  0  0  0  0  0  0  0
   18.7174   -9.2674  -14.3828 O   0  0  0  0  0  0  0  0  0  0  0  0
   22.2714   -8.6254  -15.2637 C   0  0  0  0  0  0  0  0  0  0  0  0
   22.8999   -8.5610  -14.1217 O   0  0  0  0  0  0  0  0  0  0  0  0
   19.0571   -9.3129  -16.5920 O   0  0  0  0  0  0  0  0  0  0  0  0
   22.0417   -7.3605  -15.8415 N   0  0  0  0  0  0  0  0  0  0  0  0
   21.3296   -6.9065  -16.9928 C   0  0  0  0  0  0  0  0  0  0  0  0
   21.7978   -5.4641  -17.2425 C   0  0  0  0  0  0  0  0  0  0  0  0
   23.0859   -5.3750  -16.4017 C   0  0  0  0  0  0  0  0  0  0  0  0
   22.5849   -6.1392  -15.1905 C   0  0  1  0  0  0  0  0  0  0  0  0
   21.4896   -5.4107  -14.5051 C   0  0  0  0  0  0  0  0  0  0  0  0
   21.6628   -4.3213  -13.6826 O   0  0  0  0  0  0  0  0  0  0  0  0
   20.3166   -5.8193  -14.6898 O   0  0  0  0  0  0  0  0  0  0  0  0
  2  4  1  0
  2  1  1  1
  3  2  1  0
  4  6  1  0
  4  5  1  6
  6  8  1  0
  6  7  2  0
  8  9  1  0
  9 10  1  1
  9 13  1  0
 11 10  1  0
 12 11  2  0
 13 16  1  0
 14 13  2  0
 15 11  1  0
 16 17  1  0
 16 20  1  0
 17 18  1  0
 18 19  1  0
 20 19  1  0
 20 21  1  6
 21 22  1  0
 23 21  2  0
M  END
$$$$
