TDP.pdb
     RDKit          3D

 23 23  0  0  1  0  0  0  0  0999 V2000
   21.0395  -10.4561  -17.6650 C   0  0  0  0  0  0  0  0  0  0  0  0
   22.2860  -11.1956  -17.1974 C   0  0  1  0  0  0  0  0  0  0  0  0
   22.8783  -11.9338  -18.1921 O   0  0  0  0  0  0  0  0  0  0  0  0
   23.3173  -10.2061  -16.6573 C   0  0  2  0  0  0  0  0  0  0  0  0
   24.4487  -11.0023  -16.1188 N   0  0  0  0  0  0  0  0  0  0  0  0
   22.8338   -9.4029  -15.5330 C   0  0  0  0  0  0  0  0  0  0  0  0
   22.4448   -9.9385  -14.4686 O   0  0  0  0  0  0  0  0  0  0  0  0
   22.7864   -7.9758  -15.5899 N   0  0  0  0  0  0  0  0  0  0  0  0
   22.1147   -7.2333  -14.5167 C   0  0  1  0  0  0  0  0  0  0  0  0
   22.6773   -5.8263  -14.5577 C   0  0  0  0  0  0  0  0  0  0  0  0
   22.1005   -4.8535  -13.6556 C   0  0  0  0  0  0  0  0  0  0  0  0
   21.5369   -3.7796  -13.9565 O   0  0  0  0  0  0  0  0  0  0  0  0
   20.6804   -7.3098  -14.6064 C   0  0  0  0  0  0  0  0  0  0  0  0
   20.2163   -7.2336  -15.8238 O   0  0  0  0  0  0  0  0  0  0  0  0
   22.1502   -5.0909  -12.2529 O   0  0  0  0  0  0  0  0  0  0  0  0
   19.6685   -7.4540  -13.6360 N   0  0  0  0  0  0  0  0  0  0  0  0
   19.6612   -7.5410  -12.2108 C   0  0  0  0  0  0  0  0  0  0  0  0
   18.2686   -8.0624  -11.8225 C   0  0  0  0  0  0  0  0  0  0  0  0
   17.7327   -8.6229  -13.1539 C   0  0  0  0  0  0  0  0  0  0  0  0
   18.2434   -7.5144  -14.0552 C   0  0  1  0  0  0  0  0  0  0  0  0
   17.5802   -6.2222  -13.7541 C   0  0  0  0  0  0  0  0  0  0  0  0
   16.2459   -5.9556  -13.9592 O   0  0  0  0  0  0  0  0  0  0  0  0
   18.2901   -5.3033  -13.2761 O   0  0  0  0  0  0  0  0  0  0  0  0
  2  4  1  0
  2  1  1  6
  3  2  1  0
  4  6  1  0
  4  5  1  1
  6  8  1  0
  6  7  2  0
  8  9  1  0
  9 10  1  6
  9 13  1  0
 11 10  1  0
 12 11  2  0
 13 16  1  0
 14 13  2  0
 15 11  1  0
 16 17  1  0
 16 20  1  0
 17 18  1  0
 18 19  1  0
 20 19  1  0
 20 21  1  1
 21 22  1  0
 23 21  2  0
M  END
$$$$
