TDP.pdb
     RDKit          3D

 23 23  0  0  1  0  0  0  0  0999 V2000
   15.8464   -9.1203  -13.7425 C   0  0  0  0  0  0  0  0  0  0  0  0
   15.7126  -10.5516  -14.2451 C   0  0  1  0  0  0  0  0  0  0  0  0
   14.4393  -11.0494  -14.1180 O   0  0  0  0  0  0  0  0  0  0  0  0
   16.1146  -10.6358  -15.7167 C   0  0  2  0  0  0  0  0  0  0  0  0
   16.2060  -12.0762  -16.0644 N   0  0  0  0  0  0  0  0  0  0  0  0
   17.4386  -10.0797  -16.0007 C   0  0  0  0  0  0  0  0  0  0  0  0
   18.4827  -10.7383  -15.7837 O   0  0  0  0  0  0  0  0  0  0  0  0
   17.6062   -8.7677  -16.5417 N   0  0  0  0  0  0  0  0  0  0  0  0
   18.9603   -8.2472  -16.7644 C   0  0  1  0  0  0  0  0  0  0  0  0
   18.8452   -7.2294  -17.8818 C   0  0  0  0  0  0  0  0  0  0  0  0
   20.0466   -6.5160  -18.2571 C   0  0  0  0  0  0  0  0  0  0  0  0
   21.1139   -7.0013  -18.6892 O   0  0  0  0  0  0  0  0  0  0  0  0
   19.5655   -7.7487  -15.5575 C   0  0  0  0  0  0  0  0  0  0  0  0
   18.7280   -7.1748  -14.7373 O   0  0  0  0  0  0  0  0  0  0  0  0
   20.0771   -5.0974  -18.1429 O   0  0  0  0  0  0  0  0  0  0  0  0
   20.8910   -7.7582  -15.0787 N   0  0  0  0  0  0  0  0  0  0  0  0
   22.1390   -8.2017  -15.6122 C   0  0  0  0  0  0  0  0  0  0  0  0
   23.1140   -8.2586  -14.4256 C   0  0  0  0  0  0  0  0  0  0  0  0
   22.1700   -8.2193  -13.2084 C   0  0  0  0  0  0  0  0  0  0  0  0
   21.2003   -7.1822  -13.7434 C   0  0  1  0  0  0  0  0  0  0  0  0
   21.8560   -5.8622  -13.9099 C   0  0  0  0  0  0  0  0  0  0  0  0
   22.3088   -5.0724  -12.8780 O   0  0  0  0  0  0  0  0  0  0  0  0
   22.0093   -5.4339  -15.0804 O   0  0  0  0  0  0  0  0  0  0  0  0
  2  4  1  0
  2  1  1  6
  3  2  1  0
  4  6  1  0
  4  5  1  1
  6  8  1  0
  6  7  2  0
  8  9  1  0
  9 10  1  6
  9 13  1  0
 11 10  1  0
 12 11  2  0
 13 16  1  0
 14 13  2  0
 15 11  1  0
 16 17  1  0
 16 20  1  0
 17 18  1  0
 18 19  1  0
 20 19  1  0
 20 21  1  6
 21 22  1  0
 23 21  2  0
M  END
$$$$
