TDP.pdb
     RDKit          3D

 23 23  0  0  1  0  0  0  0  0999 V2000
   16.8570   -9.8752  -11.0706 C   0  0  0  0  0  0  0  0  0  0  0  0
   16.4997  -10.8356  -12.1971 C   0  0  1  0  0  0  0  0  0  0  0  0
   15.6504  -11.8385  -11.7996 O   0  0  0  0  0  0  0  0  0  0  0  0
   15.8404  -10.0788  -13.3490 C   0  0  2  0  0  0  0  0  0  0  0  0
   15.5421  -11.0714  -14.4119 N   0  0  0  0  0  0  0  0  0  0  0  0
   16.7103   -9.0827  -13.9766 C   0  0  0  0  0  0  0  0  0  0  0  0
   17.6103   -9.4178  -14.7821 O   0  0  0  0  0  0  0  0  0  0  0  0
   16.5744   -7.6856  -13.7085 N   0  0  0  0  0  0  0  0  0  0  0  0
   17.4624   -6.7320  -14.3841 C   0  0  1  0  0  0  0  0  0  0  0  0
   16.7076   -5.4189  -14.4446 C   0  0  0  0  0  0  0  0  0  0  0  0
   15.5398   -5.3624  -15.2966 C   0  0  0  0  0  0  0  0  0  0  0  0
   15.4497   -5.7327  -16.4866 O   0  0  0  0  0  0  0  0  0  0  0  0
   18.7593   -6.6517  -13.7654 C   0  0  0  0  0  0  0  0  0  0  0  0
   18.7403   -6.7750  -12.4662 O   0  0  0  0  0  0  0  0  0  0  0  0
   14.3245   -4.8343  -14.7764 O   0  0  0  0  0  0  0  0  0  0  0  0
   20.0564   -6.4675  -14.2852 N   0  0  0  0  0  0  0  0  0  0  0  0
   20.5772   -6.1848  -15.5843 C   0  0  0  0  0  0  0  0  0  0  0  0
   22.0828   -6.4858  -15.5148 C   0  0  0  0  0  0  0  0  0  0  0  0
   22.2015   -7.3286  -14.2304 C   0  0  0  0  0  0  0  0  0  0  0  0
   21.2332   -6.5291  -13.3788 C   0  0  1  0  0  0  0  0  0  0  0  0
   21.7392   -5.1581  -13.1252 C   0  0  0  0  0  0  0  0  0  0  0  0
   22.7799   -4.8467  -12.2804 O   0  0  0  0  0  0  0  0  0  0  0  0
   21.1753   -4.2109  -13.7268 O   0  0  0  0  0  0  0  0  0  0  0  0
  2  4  1  0
  2  1  1  1
  3  2  1  0
  4  6  1  0
  4  5  1  6
  6  8  1  0
  6  7  2  0
  8  9  1  0
  9 10  1  1
  9 13  1  0
 11 10  1  0
 12 11  2  0
 13 16  1  0
 14 13  2  0
 15 11  1  0
 16 17  1  0
 16 20  1  0
 17 18  1  0
 18 19  1  0
 20 19  1  0
 20 21  1  6
 21 22  1  0
 23 21  2  0
M  END
$$$$
