TDP.pdb
     RDKit          3D

 23 23  0  0  1  0  0  0  0  0999 V2000
   16.5062   -8.9845  -16.7632 C   0  0  0  0  0  0  0  0  0  0  0  0
   17.1001  -10.3508  -17.0791 C   0  0  1  0  0  0  0  0  0  0  0  0
   16.1474  -11.3012  -17.3516 O   0  0  0  0  0  0  0  0  0  0  0  0
   18.0382  -10.2553  -18.2812 C   0  0  2  0  0  0  0  0  0  0  0  0
   18.6732  -11.5868  -18.4486 N   0  0  0  0  0  0  0  0  0  0  0  0
   19.1444   -9.3148  -18.0947 C   0  0  0  0  0  0  0  0  0  0  0  0
   20.1368   -9.6074  -17.3870 O   0  0  0  0  0  0  0  0  0  0  0  0
   19.1511   -8.0254  -18.7108 N   0  0  0  0  0  0  0  0  0  0  0  0
   20.2697   -7.1101  -18.4555 C   0  0  1  0  0  0  0  0  0  0  0  0
   20.3119   -6.1534  -19.6305 C   0  0  0  0  0  0  0  0  0  0  0  0
   21.3054   -5.1024  -19.5963 C   0  0  0  0  0  0  0  0  0  0  0  0
   22.5183   -5.1947  -19.8825 O   0  0  0  0  0  0  0  0  0  0  0  0
   20.1807   -6.4756  -17.1668 C   0  0  0  0  0  0  0  0  0  0  0  0
   18.9600   -6.2347  -16.7729 O   0  0  0  0  0  0  0  0  0  0  0  0
   20.9176   -3.7916  -19.1990 O   0  0  0  0  0  0  0  0  0  0  0  0
   21.1549   -6.0610  -16.2364 N   0  0  0  0  0  0  0  0  0  0  0  0
   22.5827   -6.0652  -16.2215 C   0  0  0  0  0  0  0  0  0  0  0  0
   22.9946   -5.8213  -14.7611 C   0  0  0  0  0  0  0  0  0  0  0  0
   21.6936   -6.1118  -13.9884 C   0  0  0  0  0  0  0  0  0  0  0  0
   20.7358   -5.4380  -14.9532 C   0  0  1  0  0  0  0  0  0  0  0  0
   20.9659   -3.9739  -15.0114 C   0  0  0  0  0  0  0  0  0  0  0  0
   21.4841   -3.3009  -16.0940 O   0  0  0  0  0  0  0  0  0  0  0  0
   20.6650   -3.2985  -13.9964 O   0  0  0  0  0  0  0  0  0  0  0  0
  2  4  1  0
  2  1  1  6
  3  2  1  0
  4  6  1  0
  4  5  1  1
  6  8  1  0
  6  7  2  0
  8  9  1  0
  9 10  1  6
  9 13  1  0
 11 10  1  0
 12 11  2  0
 13 16  1  0
 14 13  2  0
 15 11  1  0
 16 17  1  0
 16 20  1  0
 17 18  1  0
 18 19  1  0
 20 19  1  0
 20 21  1  6
 21 22  1  0
 23 21  2  0
M  END
$$$$
