TDP.pdb
     RDKit          3D

 23 23  0  0  1  0  0  0  0  0999 V2000
   19.5090   -9.5346  -19.4597 C   0  0  0  0  0  0  0  0  0  0  0  0
   20.1920  -10.7903  -18.9348 C   0  0  1  0  0  0  0  0  0  0  0  0
   20.6931  -11.5876  -19.9341 O   0  0  0  0  0  0  0  0  0  0  0  0
   21.3408  -10.4166  -17.9995 C   0  0  2  0  0  0  0  0  0  0  0  0
   21.8453  -11.6773  -17.3992 N   0  0  0  0  0  0  0  0  0  0  0  0
   20.9347   -9.5799  -16.8691 C   0  0  0  0  0  0  0  0  0  0  0  0
   20.1008   -9.9841  -16.0251 O   0  0  0  0  0  0  0  0  0  0  0  0
   21.4694   -8.2698  -16.6690 N   0  0  0  0  0  0  0  0  0  0  0  0
   20.9421   -7.4338  -15.5840 C   0  0  1  0  0  0  0  0  0  0  0  0
   22.1188   -6.6435  -15.0470 C   0  0  0  0  0  0  0  0  0  0  0  0
   21.8433   -5.6450  -14.0371 C   0  0  0  0  0  0  0  0  0  0  0  0
   21.3725   -5.8307  -12.8945 O   0  0  0  0  0  0  0  0  0  0  0  0
   19.8201   -6.6338  -15.9991 C   0  0  0  0  0  0  0  0  0  0  0  0
   19.9545   -6.0972  -17.1811 O   0  0  0  0  0  0  0  0  0  0  0  0
   22.1188   -4.2771  -14.3184 O   0  0  0  0  0  0  0  0  0  0  0  0
   18.5946   -6.3128  -15.3812 N   0  0  0  0  0  0  0  0  0  0  0  0
   18.0119   -6.6097  -14.1120 C   0  0  0  0  0  0  0  0  0  0  0  0
   16.5184   -6.2700  -14.2385 C   0  0  0  0  0  0  0  0  0  0  0  0
   16.3179   -6.1834  -15.7637 C   0  0  0  0  0  0  0  0  0  0  0  0
   17.6087   -5.4566  -16.0920 C   0  0  1  0  0  0  0  0  0  0  0  0
   17.6246   -4.0915  -15.5121 C   0  0  0  0  0  0  0  0  0  0  0  0
   16.6966   -3.1115  -15.7800 O   0  0  0  0  0  0  0  0  0  0  0  0
   18.5548   -3.8098  -14.7169 O   0  0  0  0  0  0  0  0  0  0  0  0
  2  4  1  0
  2  1  1  6
  3  2  1  0
  4  6  1  0
  4  5  1  1
  6  8  1  0
  6  7  2  0
  8  9  1  0
  9 10  1  6
  9 13  1  0
 11 10  1  0
 12 11  2  0
 13 16  1  0
 14 13  2  0
 15 11  1  0
 16 17  1  0
 16 20  1  0
 17 18  1  0
 18 19  1  0
 20 19  1  0
 20 21  1  1
 21 22  1  0
 23 21  2  0
M  END
$$$$
