TDP.pdb
     RDKit          3D

 23 23  0  0  1  0  0  0  0  0999 V2000
   14.8686   -9.3495  -10.2261 C   0  0  0  0  0  0  0  0  0  0  0  0
   16.0678   -8.8387  -11.0137 C   0  0  1  0  0  0  0  0  0  0  0  0
   17.2482   -9.4336  -10.6422 O   0  0  0  0  0  0  0  0  0  0  0  0
   15.8608   -9.0788  -12.5083 C   0  0  2  0  0  0  0  0  0  0  0  0
   15.9229  -10.5455  -12.7295 N   0  0  0  0  0  0  0  0  0  0  0  0
   16.9154   -8.5110  -13.3500 C   0  0  0  0  0  0  0  0  0  0  0  0
   17.9379   -9.1716  -13.6485 O   0  0  0  0  0  0  0  0  0  0  0  0
   16.8302   -7.1847  -13.8751 N   0  0  0  0  0  0  0  0  0  0  0  0
   17.9010   -6.6834  -14.7449 C   0  0  1  0  0  0  0  0  0  0  0  0
   17.2200   -5.8871  -15.8403 C   0  0  0  0  0  0  0  0  0  0  0  0
   16.4816   -6.6282  -16.8395 C   0  0  0  0  0  0  0  0  0  0  0  0
   15.3935   -6.3140  -17.3675 O   0  0  0  0  0  0  0  0  0  0  0  0
   18.9112   -5.9619  -14.0168 C   0  0  0  0  0  0  0  0  0  0  0  0
   18.4641   -5.3307  -12.9656 O   0  0  0  0  0  0  0  0  0  0  0  0
   17.0034   -7.8644  -17.3149 O   0  0  0  0  0  0  0  0  0  0  0  0
   20.2978   -5.8008  -14.2115 N   0  0  0  0  0  0  0  0  0  0  0  0
   21.2050   -6.1602  -15.2538 C   0  0  0  0  0  0  0  0  0  0  0  0
   22.6151   -6.0233  -14.6578 C   0  0  0  0  0  0  0  0  0  0  0  0
   22.3402   -5.9790  -13.1424 C   0  0  0  0  0  0  0  0  0  0  0  0
   21.1115   -5.0902  -13.1900 C   0  0  1  0  0  0  0  0  0  0  0  0
   21.4454   -3.7296  -13.6771 C   0  0  0  0  0  0  0  0  0  0  0  0
   22.1218   -2.7771  -12.9500 O   0  0  0  0  0  0  0  0  0  0  0  0
   21.0834   -3.4247  -14.8403 O   0  0  0  0  0  0  0  0  0  0  0  0
  2  4  1  0
  2  1  1  1
  3  2  1  0
  4  6  1  0
  4  5  1  1
  6  8  1  0
  6  7  2  0
  8  9  1  0
  9 10  1  6
  9 13  1  0
 11 10  1  0
 12 11  2  0
 13 16  1  0
 14 13  2  0
 15 11  1  0
 16 17  1  0
 16 20  1  0
 17 18  1  0
 18 19  1  0
 20 19  1  0
 20 21  1  6
 21 22  1  0
 23 21  2  0
M  END
$$$$
