QIN.pdb
     RDKit          3D

 26 25  0  0  1  0  0  0  0  0999 V2000
    7.3883  -21.9456   17.6193 N   0  0  0  0  0  0  0  0  0  0  0  0
    8.6905  -21.4982   17.2215 C   0  0  0  0  0  0  0  0  0  0  0  0
    9.6140  -22.3144   17.2066 O   0  0  0  0  0  0  0  0  0  0  0  0
    8.8544  -20.0993   16.8585 C   0  0  0  0  0  0  0  0  0  0  0  0
    9.1033  -19.1275   17.9639 C   0  0  0  0  0  0  0  0  0  0  0  0
    9.2616  -17.6979   17.5882 C   0  0  2  0  0  0  0  0  0  0  0  0
    9.9455  -17.5591   16.3189 N   0  0  0  0  0  0  0  0  0  0  0  0
    9.6628  -16.7450   18.6239 C   0  0  0  0  0  0  0  0  0  0  0  0
   10.8687  -16.3880   18.6319 O   0  0  0  0  0  0  0  0  0  0  0  0
    6.8365  -12.3446   19.9566 C   0  0  0  0  0  0  0  0  0  0  0  0
    7.9562  -13.3713   19.8009 C   0  0  0  0  0  0  0  0  0  0  0  0
    7.9983  -14.3549   20.9376 C   0  0  2  0  0  0  0  0  0  0  0  0
    8.2562  -13.5549   22.1859 C   0  0  0  0  0  0  0  0  0  0  0  0
    9.0567  -15.3703   20.7105 C   0  0  2  0  0  0  0  0  0  0  0  0
    8.8001  -16.2306   19.5759 N   0  0  0  0  0  0  0  0  0  0  0  0
    9.5476  -16.1464   21.8493 C   0  0  0  0  0  0  0  0  0  0  0  0
    8.7352  -17.0706   22.2756 O   0  0  0  0  0  0  0  0  0  0  0  0
   13.1864  -19.0922   21.8555 N   0  0  0  0  0  0  0  0  0  0  0  0
   13.1012  -17.7590   22.3239 C   0  0  0  0  0  0  0  0  0  0  0  0
   13.5449  -16.8646   21.5486 O   0  0  0  0  0  0  0  0  0  0  0  0
   12.5543  -17.3199   23.6063 C   0  0  0  0  0  0  0  0  0  0  0  0
   11.0828  -17.0076   23.5970 C   0  0  2  0  0  0  0  0  0  0  0  0
   10.7565  -16.0427   22.5376 N   0  0  0  0  0  0  0  0  0  0  0  0
   10.5826  -16.5561   24.9034 C   0  0  0  0  0  0  0  0  0  0  0  0
   10.6807  -17.4096   25.9859 O   0  0  0  0  0  0  0  0  0  0  0  0
   10.0721  -15.4292   25.0707 O   0  0  0  0  0  0  0  0  0  0  0  0
  1  2  1  0
  2  4  1  0
  3  2  2  0
  4  5  1  0
  5  6  1  0
  6  7  1  6
  8  9  2  0
  8  6  1  0
 11 10  1  0
 11 12  1  0
 12 14  1  0
 12 13  1  1
 14 15  1  6
 15  8  1  0
 16 23  1  0
 16 14  1  0
 17 16  2  0
 18 19  1  0
 19 21  1  0
 20 19  2  0
 22 21  1  1
 22 23  1  0
 22 24  1  0
 24 25  1  0
 26 24  2  0
M  END
$$$$
