QIN.pdb
     RDKit          3D

 26 25  0  0  1  0  0  0  0  0999 V2000
    8.1735  -12.2412   18.1974 N   0  0  0  0  0  0  0  0  0  0  0  0
    7.7209  -13.5502   17.8291 C   0  0  0  0  0  0  0  0  0  0  0  0
    7.4151  -13.7578   16.6532 O   0  0  0  0  0  0  0  0  0  0  0  0
    7.6430  -14.5667   18.8665 C   0  0  0  0  0  0  0  0  0  0  0  0
    7.9772  -14.1520   20.2609 C   0  0  0  0  0  0  0  0  0  0  0  0
    7.9693  -15.2108   21.3044 C   0  0  2  0  0  0  0  0  0  0  0  0
    6.7065  -15.9198   21.3265 N   0  0  0  0  0  0  0  0  0  0  0  0
    8.5370  -14.9005   22.6171 C   0  0  0  0  0  0  0  0  0  0  0  0
    9.6952  -14.4107   22.6344 O   0  0  0  0  0  0  0  0  0  0  0  0
    5.7757  -12.0376   25.7778 C   0  0  0  0  0  0  0  0  0  0  0  0
    6.9656  -12.7794   25.1730 C   0  0  0  0  0  0  0  0  0  0  0  0
    7.3170  -14.0255   25.9378 C   0  0  2  0  0  0  0  0  0  0  0  0
    7.8876  -13.5725   27.2546 C   0  0  0  0  0  0  0  0  0  0  0  0
    8.2881  -14.8496   25.1757 C   0  0  2  0  0  0  0  0  0  0  0  0
    7.8777  -15.1173   23.8144 N   0  0  0  0  0  0  0  0  0  0  0  0
    8.8347  -16.0549   25.7991 C   0  0  0  0  0  0  0  0  0  0  0  0
    8.0124  -17.0627   25.8614 O   0  0  0  0  0  0  0  0  0  0  0  0
   13.3549  -19.7989   27.1792 N   0  0  0  0  0  0  0  0  0  0  0  0
   12.0545  -19.4956   26.7089 C   0  0  0  0  0  0  0  0  0  0  0  0
   11.2072  -20.4320   26.7649 O   0  0  0  0  0  0  0  0  0  0  0  0
   11.6003  -18.2154   26.1693 C   0  0  0  0  0  0  0  0  0  0  0  0
   10.4406  -17.5933   26.8979 C   0  0  2  0  0  0  0  0  0  0  0  0
   10.1053  -16.2804   26.3292 N   0  0  0  0  0  0  0  0  0  0  0  0
   10.6527  -17.5081   28.3500 C   0  0  0  0  0  0  0  0  0  0  0  0
   11.3462  -16.4269   28.8600 O   0  0  0  0  0  0  0  0  0  0  0  0
   10.2289  -18.3773   29.1396 O   0  0  0  0  0  0  0  0  0  0  0  0
  1  2  1  0
  2  4  1  0
  3  2  2  0
  4  5  1  0
  5  6  1  0
  6  7  1  1
  8  9  2  0
  8  6  1  0
 11 10  1  0
 11 12  1  0
 12 14  1  0
 12 13  1  1
 14 15  1  6
 15  8  1  0
 16 23  1  0
 16 14  1  0
 17 16  2  0
 18 19  1  0
 19 21  1  0
 20 19  2  0
 22 21  1  6
 22 23  1  0
 22 24  1  0
 24 25  1  0
 26 24  2  0
M  END
$$$$
