QIN.pdb
     RDKit          3D

 26 25  0  0  1  0  0  0  0  0999 V2000
    8.0727  -13.6144   17.1494 N   0  0  0  0  0  0  0  0  0  0  0  0
    7.6206  -14.9730   17.2130 C   0  0  0  0  0  0  0  0  0  0  0  0
    7.1886  -15.4981   16.1848 O   0  0  0  0  0  0  0  0  0  0  0  0
    7.6924  -15.6611   18.4923 C   0  0  0  0  0  0  0  0  0  0  0  0
    8.2517  -14.9025   19.6498 C   0  0  0  0  0  0  0  0  0  0  0  0
    8.1714  -15.5476   20.9868 C   0  0  2  0  0  0  0  0  0  0  0  0
    6.9412  -16.2970   21.1375 N   0  0  0  0  0  0  0  0  0  0  0  0
    8.5823  -14.7749   22.1597 C   0  0  0  0  0  0  0  0  0  0  0  0
    9.7128  -14.2259   22.1116 O   0  0  0  0  0  0  0  0  0  0  0  0
    6.1531  -11.6750   26.9172 C   0  0  0  0  0  0  0  0  0  0  0  0
    7.3116  -12.4992   26.3598 C   0  0  0  0  0  0  0  0  0  0  0  0
    6.9054  -13.3413   25.1820 C   0  0  2  0  0  0  0  0  0  0  0  0
    5.9489  -14.3777   25.7069 C   0  0  0  0  0  0  0  0  0  0  0  0
    8.0952  -13.9650   24.5509 C   0  0  2  0  0  0  0  0  0  0  0  0
    7.8064  -14.6240   23.2957 N   0  0  0  0  0  0  0  0  0  0  0  0
    8.9839  -14.7847   25.3746 C   0  0  0  0  0  0  0  0  0  0  0  0
    9.0712  -14.4184   26.6211 O   0  0  0  0  0  0  0  0  0  0  0  0
    9.1109  -19.7845   27.6546 N   0  0  0  0  0  0  0  0  0  0  0  0
    9.3735  -18.4034   27.8213 C   0  0  0  0  0  0  0  0  0  0  0  0
    9.9498  -18.0696   28.8957 O   0  0  0  0  0  0  0  0  0  0  0  0
    9.0457  -17.3348   26.8795 C   0  0  0  0  0  0  0  0  0  0  0  0
   10.2015  -16.8357   26.0561 C   0  0  2  0  0  0  0  0  0  0  0  0
    9.7435  -15.8998   25.0197 N   0  0  0  0  0  0  0  0  0  0  0  0
   11.0067  -17.9210   25.4777 C   0  0  0  0  0  0  0  0  0  0  0  0
   11.9090  -18.5853   26.2867 O   0  0  0  0  0  0  0  0  0  0  0  0
   10.9050  -18.2646   24.2819 O   0  0  0  0  0  0  0  0  0  0  0  0
  1  2  1  0
  2  4  1  0
  3  2  2  0
  4  5  1  0
  5  6  1  0
  6  7  1  1
  8  9  2  0
  8  6  1  0
 11 10  1  0
 11 12  1  0
 12 14  1  0
 12 13  1  1
 14 15  1  6
 15  8  1  0
 16 23  1  0
 16 14  1  0
 17 16  2  0
 18 19  1  0
 19 21  1  0
 20 19  2  0
 22 21  1  6
 22 23  1  0
 22 24  1  0
 24 25  1  0
 26 24  2  0
M  END
$$$$
