QIN.pdb
     RDKit          3D

 26 25  0  0  1  0  0  0  0  0999 V2000
    6.6208  -20.8439   19.8492 N   0  0  0  0  0  0  0  0  0  0  0  0
    7.7713  -21.2727   19.1099 C   0  0  0  0  0  0  0  0  0  0  0  0
    8.1980  -22.4142   19.2954 O   0  0  0  0  0  0  0  0  0  0  0  0
    8.3785  -20.3340   18.1796 C   0  0  0  0  0  0  0  0  0  0  0  0
    7.7768  -18.9709   18.0886 C   0  0  0  0  0  0  0  0  0  0  0  0
    8.7029  -17.8355   17.8370 C   0  0  2  0  0  0  0  0  0  0  0  0
    9.7495  -18.2052   16.9064 N   0  0  0  0  0  0  0  0  0  0  0  0
    9.1341  -17.0221   18.9745 C   0  0  0  0  0  0  0  0  0  0  0  0
   10.3529  -17.0725   19.2802 O   0  0  0  0  0  0  0  0  0  0  0  0
    6.7412  -12.2186   19.6523 C   0  0  0  0  0  0  0  0  0  0  0  0
    7.7964  -13.3206   19.7163 C   0  0  0  0  0  0  0  0  0  0  0  0
    7.6498  -14.1886   20.9355 C   0  0  2  0  0  0  0  0  0  0  0  0
    7.9785  -13.3207   22.1202 C   0  0  0  0  0  0  0  0  0  0  0  0
    8.5525  -15.3638   20.8514 C   0  0  2  0  0  0  0  0  0  0  0  0
    8.2847  -16.2197   19.7161 N   0  0  0  0  0  0  0  0  0  0  0  0
    8.7910  -16.1593   22.0558 C   0  0  0  0  0  0  0  0  0  0  0  0
    7.9280  -17.1116   22.2654 O   0  0  0  0  0  0  0  0  0  0  0  0
   10.7549  -20.6436   23.5861 N   0  0  0  0  0  0  0  0  0  0  0  0
   11.4133  -19.4654   23.1586 C   0  0  0  0  0  0  0  0  0  0  0  0
   12.6735  -19.4618   23.2582 O   0  0  0  0  0  0  0  0  0  0  0  0
   10.7826  -18.2630   22.6177 C   0  0  0  0  0  0  0  0  0  0  0  0
   10.3477  -17.2551   23.6462 C   0  0  2  0  0  0  0  0  0  0  0  0
    9.8078  -16.0482   23.0045 N   0  0  0  0  0  0  0  0  0  0  0  0
   11.4081  -16.9201   24.6074 C   0  0  0  0  0  0  0  0  0  0  0  0
   11.8317  -15.6080   24.7022 O   0  0  0  0  0  0  0  0  0  0  0  0
   11.9402  -17.7782   25.3417 O   0  0  0  0  0  0  0  0  0  0  0  0
  1  2  1  0
  2  4  1  0
  3  2  2  0
  4  5  1  0
  5  6  1  0
  6  7  1  1
  8  9  2  0
  8  6  1  0
 11 10  1  0
 11 12  1  0
 12 14  1  0
 12 13  1  1
 14 15  1  6
 15  8  1  0
 16 23  1  0
 16 14  1  0
 17 16  2  0
 18 19  1  0
 19 21  1  0
 20 19  2  0
 22 21  1  6
 22 23  1  0
 22 24  1  0
 24 25  1  0
 26 24  2  0
M  END
$$$$
