QIN.pdb
     RDKit          3D

 26 25  0  0  1  0  0  0  0  0999 V2000
    8.7982  -14.3716   13.4955 N   0  0  0  0  0  0  0  0  0  0  0  0
    8.3429  -15.6643   13.9148 C   0  0  0  0  0  0  0  0  0  0  0  0
    7.1306  -15.8493   14.0390 O   0  0  0  0  0  0  0  0  0  0  0  0
    9.3389  -16.6915   14.1758 C   0  0  0  0  0  0  0  0  0  0  0  0
   10.2757  -16.4661   15.3158 C   0  0  0  0  0  0  0  0  0  0  0  0
    9.9468  -17.1277   16.6058 C   0  0  2  0  0  0  0  0  0  0  0  0
    8.6626  -17.7948   16.5437 N   0  0  0  0  0  0  0  0  0  0  0  0
   10.2185  -16.4054   17.8492 C   0  0  0  0  0  0  0  0  0  0  0  0
   11.4262  -16.2243   18.1495 O   0  0  0  0  0  0  0  0  0  0  0  0
    6.6230  -12.5406   19.3898 C   0  0  0  0  0  0  0  0  0  0  0  0
    7.9408  -13.2915   19.2128 C   0  0  0  0  0  0  0  0  0  0  0  0
    8.1304  -14.3730   20.2403 C   0  0  2  0  0  0  0  0  0  0  0  0
    8.2530  -13.6814   21.5713 C   0  0  0  0  0  0  0  0  0  0  0  0
    9.3360  -15.1815   19.9312 C   0  0  2  0  0  0  0  0  0  0  0  0
    9.2334  -15.9247   18.6941 N   0  0  0  0  0  0  0  0  0  0  0  0
    9.9218  -16.0087   20.9860 C   0  0  0  0  0  0  0  0  0  0  0  0
    9.3629  -17.1742   21.1446 O   0  0  0  0  0  0  0  0  0  0  0  0
   13.8626  -19.0219   23.5971 N   0  0  0  0  0  0  0  0  0  0  0  0
   13.5980  -17.6448   23.7914 C   0  0  0  0  0  0  0  0  0  0  0  0
   13.9113  -17.1690   24.9198 O   0  0  0  0  0  0  0  0  0  0  0  0
   13.0028  -16.7273   22.8217 C   0  0  0  0  0  0  0  0  0  0  0  0
   11.5017  -16.7766   22.7375 C   0  0  2  0  0  0  0  0  0  0  0  0
   10.9907  -15.7322   21.8388 N   0  0  0  0  0  0  0  0  0  0  0  0
   10.8495  -16.7152   24.0533 C   0  0  0  0  0  0  0  0  0  0  0  0
   10.7905  -17.8622   24.8222 O   0  0  0  0  0  0  0  0  0  0  0  0
   10.3467  -15.6642   24.5019 O   0  0  0  0  0  0  0  0  0  0  0  0
  1  2  1  0
  2  4  1  0
  3  2  2  0
  4  5  1  0
  5  6  1  0
  6  7  1  6
  8  9  2  0
  8  6  1  0
 11 10  1  0
 11 12  1  0
 12 14  1  0
 12 13  1  1
 14 15  1  6
 15  8  1  0
 16 23  1  0
 16 14  1  0
 17 16  2  0
 18 19  1  0
 19 21  1  0
 20 19  2  0
 22 21  1  1
 22 23  1  0
 22 24  1  0
 24 25  1  0
 26 24  2  0
M  END
$$$$
