QIN.pdb
     RDKit          3D

 26 25  0  0  1  0  0  0  0  0999 V2000
    7.8937  -12.3702   17.5379 N   0  0  0  0  0  0  0  0  0  0  0  0
    7.9018  -13.7988   17.6528 C   0  0  0  0  0  0  0  0  0  0  0  0
    7.2288  -14.4569   16.8570 O   0  0  0  0  0  0  0  0  0  0  0  0
    8.7036  -14.3981   18.7080 C   0  0  0  0  0  0  0  0  0  0  0  0
    8.4638  -13.9276   20.1042 C   0  0  0  0  0  0  0  0  0  0  0  0
    8.1514  -14.9622   21.1249 C   0  0  2  0  0  0  0  0  0  0  0  0
    6.7607  -15.3622   21.0616 N   0  0  0  0  0  0  0  0  0  0  0  0
    8.6956  -14.7981   22.4735 C   0  0  0  0  0  0  0  0  0  0  0  0
    9.9429  -14.6707   22.5717 O   0  0  0  0  0  0  0  0  0  0  0  0
    5.8256  -11.6928   25.5884 C   0  0  0  0  0  0  0  0  0  0  0  0
    7.0198  -12.4468   25.0075 C   0  0  0  0  0  0  0  0  0  0  0  0
    7.3118  -13.7223   25.7484 C   0  0  2  0  0  0  0  0  0  0  0  0
    7.8404  -13.3209   27.0990 C   0  0  0  0  0  0  0  0  0  0  0  0
    8.2928  -14.5477   25.0005 C   0  0  2  0  0  0  0  0  0  0  0  0
    7.9226  -14.7794   23.6212 N   0  0  0  0  0  0  0  0  0  0  0  0
    8.7976  -15.7755   25.6153 C   0  0  0  0  0  0  0  0  0  0  0  0
    7.9090  -16.7129   25.7807 O   0  0  0  0  0  0  0  0  0  0  0  0
   11.2902  -20.2581   27.1356 N   0  0  0  0  0  0  0  0  0  0  0  0
   12.1059  -19.2289   26.6068 C   0  0  0  0  0  0  0  0  0  0  0  0
   13.3541  -19.4210   26.6617 O   0  0  0  0  0  0  0  0  0  0  0  0
   11.6486  -17.9763   26.0084 C   0  0  0  0  0  0  0  0  0  0  0  0
   10.3786  -17.4192   26.5911 C   0  0  2  0  0  0  0  0  0  0  0  0
   10.0885  -16.0868   26.0430 N   0  0  0  0  0  0  0  0  0  0  0  0
   10.3786  -17.4037   28.0609 C   0  0  0  0  0  0  0  0  0  0  0  0
   10.2785  -18.6032   28.7401 O   0  0  0  0  0  0  0  0  0  0  0  0
   10.4658  -16.3460   28.7184 O   0  0  0  0  0  0  0  0  0  0  0  0
  1  2  1  0
  2  4  1  0
  3  2  2  0
  4  5  1  0
  5  6  1  0
  6  7  1  1
  8  9  2  0
  8  6  1  0
 11 10  1  0
 11 12  1  0
 12 14  1  0
 12 13  1  1
 14 15  1  6
 15  8  1  0
 16 23  1  0
 16 14  1  0
 17 16  2  0
 18 19  1  0
 19 21  1  0
 20 19  2  0
 22 21  1  6
 22 23  1  0
 22 24  1  0
 24 25  1  0
 26 24  2  0
M  END
$$$$
