QIN.pdb
     RDKit          3D

 26 25  0  0  1  0  0  0  0  0999 V2000
    9.7818  -13.3757   18.0224 N   0  0  0  0  0  0  0  0  0  0  0  0
    8.3861  -13.4811   17.7138 C   0  0  0  0  0  0  0  0  0  0  0  0
    8.0542  -13.6436   16.5379 O   0  0  0  0  0  0  0  0  0  0  0  0
    7.4322  -13.3868   18.8077 C   0  0  0  0  0  0  0  0  0  0  0  0
    7.9814  -13.3204   20.1941 C   0  0  0  0  0  0  0  0  0  0  0  0
    7.8142  -14.5252   21.0489 C   0  0  2  0  0  0  0  0  0  0  0  0
    6.4566  -15.0270   20.9930 N   0  0  0  0  0  0  0  0  0  0  0  0
    8.4297  -14.5291   22.3766 C   0  0  0  0  0  0  0  0  0  0  0  0
    9.6847  -14.5976   22.4215 O   0  0  0  0  0  0  0  0  0  0  0  0
    5.6964  -11.6191   25.8444 C   0  0  0  0  0  0  0  0  0  0  0  0
    6.9001  -12.2819   25.1783 C   0  0  0  0  0  0  0  0  0  0  0  0
    7.2532  -13.6010   25.8080 C   0  0  2  0  0  0  0  0  0  0  0  0
    7.8916  -13.2847   27.1336 C   0  0  0  0  0  0  0  0  0  0  0  0
    8.1695  -14.3703   24.9297 C   0  0  2  0  0  0  0  0  0  0  0  0
    7.7144  -14.4654   23.5596 N   0  0  0  0  0  0  0  0  0  0  0  0
    8.6803  -15.6590   25.3971 C   0  0  0  0  0  0  0  0  0  0  0  0
    7.8209  -16.6367   25.3609 O   0  0  0  0  0  0  0  0  0  0  0  0
   11.8939  -20.3354   25.1788 N   0  0  0  0  0  0  0  0  0  0  0  0
   12.0625  -19.1193   25.8837 C   0  0  0  0  0  0  0  0  0  0  0  0
   12.7229  -19.1837   26.9597 O   0  0  0  0  0  0  0  0  0  0  0  0
   11.5514  -17.8074   25.4913 C   0  0  0  0  0  0  0  0  0  0  0  0
   10.2775  -17.3905   26.1743 C   0  0  2  0  0  0  0  0  0  0  0  0
    9.9506  -15.9907   25.8688 N   0  0  0  0  0  0  0  0  0  0  0  0
   10.2975  -17.6303   27.6244 C   0  0  0  0  0  0  0  0  0  0  0  0
   10.6093  -16.5818   28.4691 O   0  0  0  0  0  0  0  0  0  0  0  0
   10.0429  -18.7470   28.1210 O   0  0  0  0  0  0  0  0  0  0  0  0
  1  2  1  0
  2  4  1  0
  3  2  2  0
  4  5  1  0
  5  6  1  0
  6  7  1  1
  8  9  2  0
  8  6  1  0
 11 10  1  0
 11 12  1  0
 12 14  1  0
 12 13  1  1
 14 15  1  6
 15  8  1  0
 16 23  1  0
 16 14  1  0
 17 16  2  0
 18 19  1  0
 19 21  1  0
 20 19  2  0
 22 21  1  1
 22 23  1  0
 22 24  1  0
 24 25  1  0
 26 24  2  0
M  END
$$$$
