YAA.pdb
     RDKit          3D

 23 23  0  0  1  0  0  0  0  0999 V2000
   25.0818  -20.8458   -8.6317 O   0  0  0  0  0  0  0  0  0  0  0  0
   25.7041  -20.6664   -9.8638 C   0  0  0  0  0  0  0  0  0  0  0  0
   27.0574  -20.7950  -10.0378 C   0  0  0  0  0  0  0  0  0  0  0  0
   27.6244  -20.6081  -11.2733 C   0  0  0  0  0  0  0  0  0  0  0  0
   26.8673  -20.2844  -12.3915 C   0  0  0  0  0  0  0  0  0  0  0  0
   27.5318  -20.0934  -13.7043 C   0  0  0  0  0  0  0  0  0  0  0  0
   27.3897  -21.4259  -14.4522 C   0  0  2  0  0  0  0  0  0  0  0  0
   28.4522  -21.4804  -15.4141 N   0  0  0  0  0  0  0  0  0  0  0  0
   26.0761  -21.5540  -15.0906 C   0  0  0  0  0  0  0  0  0  0  0  0
   25.8308  -20.8758  -16.1210 O   0  0  0  0  0  0  0  0  0  0  0  0
   25.5082  -20.1581  -12.2026 C   0  0  0  0  0  0  0  0  0  0  0  0
   24.9091  -20.3418  -10.9636 C   0  0  0  0  0  0  0  0  0  0  0  0
   23.2720  -23.9751  -14.9696 C   0  0  0  0  0  0  0  0  0  0  0  0
   23.7716  -22.5566  -15.2458 C   0  0  2  0  0  0  0  0  0  0  0  0
   25.0636  -22.4039  -14.6083 N   0  0  0  0  0  0  0  0  0  0  0  0
   22.7620  -21.6301  -14.6890 C   0  0  0  0  0  0  0  0  0  0  0  0
   22.7118  -21.4635  -13.4574 O   0  0  0  0  0  0  0  0  0  0  0  0
   20.2613  -19.2269  -16.1993 C   0  0  0  0  0  0  0  0  0  0  0  0
   20.8777  -20.0081  -15.0835 C   0  0  2  0  0  0  0  0  0  0  0  0
   21.8780  -20.9518  -15.5304 N   0  0  0  0  0  0  0  0  0  0  0  0
   19.8161  -20.6893  -14.2804 C   0  0  0  0  0  0  0  0  0  0  0  0
   19.1700  -20.1145  -13.3880 O   0  0  0  0  0  0  0  0  0  0  0  0
   19.5444  -22.0212  -14.5472 O   0  0  0  0  0  0  0  0  0  0  0  0
  2  1  1  0
  2  3  2  0
  4  3  1  0
  5  4  2  0
  6  5  1  0
  7  6  1  0
  7  8  1  6
  9  7  1  0
  9 10  2  0
 11 12  2  0
 11  5  1  0
 12  2  1  0
 14 13  1  1
 14 15  1  0
 15  9  1  0
 16 14  1  0
 16 20  1  0
 17 16  2  0
 19 18  1  6
 19 20  1  0
 19 21  1  0
 21 22  2  0
 21 23  1  0
M  END
$$$$
