YAA.pdb
     RDKit          3D

 23 23  0  0  1  0  0  0  0  0999 V2000
   29.3217  -30.6991  -19.5380 O   0  0  0  0  0  0  0  0  0  0  0  0
   28.7954  -29.6112  -18.8475 C   0  0  0  0  0  0  0  0  0  0  0  0
   28.2467  -28.5258  -19.4792 C   0  0  0  0  0  0  0  0  0  0  0  0
   27.7403  -27.4768  -18.7538 C   0  0  0  0  0  0  0  0  0  0  0  0
   27.7580  -27.4628  -17.3654 C   0  0  0  0  0  0  0  0  0  0  0  0
   27.1967  -26.3026  -16.6304 C   0  0  0  0  0  0  0  0  0  0  0  0
   28.1477  -25.1281  -16.8971 C   0  0  2  0  0  0  0  0  0  0  0  0
   29.3540  -25.3934  -16.1682 N   0  0  0  0  0  0  0  0  0  0  0  0
   27.5520  -23.8464  -16.5072 C   0  0  0  0  0  0  0  0  0  0  0  0
   27.7955  -23.3845  -15.3630 O   0  0  0  0  0  0  0  0  0  0  0  0
   28.3124  -28.5601  -16.7430 C   0  0  0  0  0  0  0  0  0  0  0  0
   28.8317  -29.6345  -17.4528 C   0  0  0  0  0  0  0  0  0  0  0  0
   26.3667  -20.8505  -18.1556 C   0  0  0  0  0  0  0  0  0  0  0  0
   26.1458  -21.8140  -16.9890 C   0  0  2  0  0  0  0  0  0  0  0  0
   26.7135  -23.0964  -17.3525 N   0  0  0  0  0  0  0  0  0  0  0  0
   24.6854  -21.8931  -16.7684 C   0  0  0  0  0  0  0  0  0  0  0  0
   24.0188  -22.7049  -17.4344 O   0  0  0  0  0  0  0  0  0  0  0  0
   22.2610  -20.1687  -14.4213 C   0  0  0  0  0  0  0  0  0  0  0  0
   22.6393  -21.0444  -15.5725 C   0  0  2  0  0  0  0  0  0  0  0  0
   24.0622  -21.0704  -15.8279 N   0  0  0  0  0  0  0  0  0  0  0  0
   21.8800  -20.6456  -16.7975 C   0  0  0  0  0  0  0  0  0  0  0  0
   20.6648  -20.8631  -16.9404 O   0  0  0  0  0  0  0  0  0  0  0  0
   22.5667  -20.0052  -17.8159 O   0  0  0  0  0  0  0  0  0  0  0  0
  2  1  1  0
  2  3  2  0
  4  3  1  0
  5  4  2  0
  6  5  1  0
  7  6  1  0
  7  8  1  1
  9  7  1  0
  9 10  2  0
 11 12  2  0
 11  5  1  0
 12  2  1  0
 14 13  1  6
 14 15  1  0
 15  9  1  0
 16 14  1  0
 16 20  1  0
 17 16  2  0
 19 18  1  1
 19 20  1  0
 19 21  1  0
 21 22  2  0
 21 23  1  0
M  END
$$$$
