YAA.pdb
     RDKit          3D

 23 23  0  0  1  0  0  0  0  0999 V2000
   31.1039  -11.1256  -17.5051 O   0  0  0  0  0  0  0  0  0  0  0  0
   29.8251  -10.5808  -17.5763 C   0  0  0  0  0  0  0  0  0  0  0  0
   29.1980  -10.0149  -16.4971 C   0  0  0  0  0  0  0  0  0  0  0  0
   27.9357   -9.4906  -16.6177 C   0  0  0  0  0  0  0  0  0  0  0  0
   27.2414   -9.5068  -17.8202 C   0  0  0  0  0  0  0  0  0  0  0  0
   25.8782   -8.9257  -17.8949 C   0  0  0  0  0  0  0  0  0  0  0  0
   24.9386   -9.9591  -17.2591 C   0  0  2  0  0  0  0  0  0  0  0  0
   25.0614  -11.1640  -18.0274 N   0  0  0  0  0  0  0  0  0  0  0  0
   23.5526   -9.4827  -17.2198 C   0  0  0  0  0  0  0  0  0  0  0  0
   22.9197   -9.3602  -18.2997 O   0  0  0  0  0  0  0  0  0  0  0  0
   27.8833  -10.0786  -18.8971 C   0  0  0  0  0  0  0  0  0  0  0  0
   29.1600  -10.6162  -18.8024 C   0  0  0  0  0  0  0  0  0  0  0  0
   21.0329   -8.7162  -14.5461 C   0  0  0  0  0  0  0  0  0  0  0  0
   21.5448   -8.6010  -15.9823 C   0  0  2  0  0  0  0  0  0  0  0  0
   22.8843   -9.1513  -16.0266 N   0  0  0  0  0  0  0  0  0  0  0  0
   21.5204   -7.1642  -16.3325 C   0  0  0  0  0  0  0  0  0  0  0  0
   22.4419   -6.4309  -15.9321 O   0  0  0  0  0  0  0  0  0  0  0  0
   19.4239   -5.0392  -18.6394 C   0  0  0  0  0  0  0  0  0  0  0  0
   20.3814   -5.2537  -17.5113 C   0  0  2  0  0  0  0  0  0  0  0  0
   20.4805   -6.6365  -17.1004 N   0  0  0  0  0  0  0  0  0  0  0  0
   20.0258   -4.3733  -16.3561 C   0  0  0  0  0  0  0  0  0  0  0  0
   19.5729   -4.8126  -15.2855 O   0  0  0  0  0  0  0  0  0  0  0  0
   20.2115   -3.0072  -16.4906 O   0  0  0  0  0  0  0  0  0  0  0  0
  2  1  1  0
  2  3  2  0
  4  3  1  0
  5  4  2  0
  6  5  1  0
  7  6  1  0
  7  8  1  6
  9  7  1  0
  9 10  2  0
 11 12  2  0
 11  5  1  0
 12  2  1  0
 14 13  1  1
 14 15  1  0
 15  9  1  0
 16 14  1  0
 16 20  1  0
 17 16  2  0
 19 18  1  6
 19 20  1  0
 19 21  1  0
 21 22  2  0
 21 23  1  0
M  END
$$$$
