YAA.pdb
     RDKit          3D

 23 23  0  0  1  0  0  0  0  0999 V2000
   21.2277    1.7821   -9.5068 O   0  0  0  0  0  0  0  0  0  0  0  0
   22.5736    1.4375   -9.4227 C   0  0  0  0  0  0  0  0  0  0  0  0
   23.2119    1.2228   -8.2291 C   0  0  0  0  0  0  0  0  0  0  0  0
   24.5414    0.8847   -8.1981 C   0  0  0  0  0  0  0  0  0  0  0  0
   25.2948    0.7454   -9.3562 C   0  0  0  0  0  0  0  0  0  0  0  0
   26.7295    0.3780   -9.2653 C   0  0  0  0  0  0  0  0  0  0  0  0
   27.5164    1.6817   -9.4554 C   0  0  2  0  0  0  0  0  0  0  0  0
   27.6627    1.8792  -10.8684 N   0  0  0  0  0  0  0  0  0  0  0  0
   28.8165    1.6359   -8.7791 C   0  0  0  0  0  0  0  0  0  0  0  0
   29.8592    1.5125   -9.4714 O   0  0  0  0  0  0  0  0  0  0  0  0
   24.6409    0.9640  -10.5493 C   0  0  0  0  0  0  0  0  0  0  0  0
   23.2968    1.3071  -10.6089 C   0  0  0  0  0  0  0  0  0  0  0  0
   30.9494    3.0564   -7.0883 C   0  0  0  0  0  0  0  0  0  0  0  0
   30.2456    1.7528   -6.7094 C   0  0  2  0  0  0  0  0  0  0  0  0
   28.9630    1.7234   -7.3824 N   0  0  0  0  0  0  0  0  0  0  0  0
   30.1031    1.7545   -5.2372 C   0  0  0  0  0  0  0  0  0  0  0  0
   29.2739    2.5195   -4.7133 O   0  0  0  0  0  0  0  0  0  0  0  0
   31.6327   -0.2829   -2.4328 C   0  0  0  0  0  0  0  0  0  0  0  0
   30.7828    0.8047   -3.0072 C   0  0  2  0  0  0  0  0  0  0  0  0
   30.8856    0.9116   -4.4456 N   0  0  0  0  0  0  0  0  0  0  0  0
   31.0958    2.1094   -2.3470 C   0  0  0  0  0  0  0  0  0  0  0  0
   31.8149    2.9769   -2.8710 O   0  0  0  0  0  0  0  0  0  0  0  0
   30.5574    2.3573   -1.0950 O   0  0  0  0  0  0  0  0  0  0  0  0
  2  1  1  0
  2  3  2  0
  4  3  1  0
  5  4  2  0
  6  5  1  0
  7  6  1  0
  7  8  1  6
  9  7  1  0
  9 10  2  0
 11 12  2  0
 11  5  1  0
 12  2  1  0
 14 13  1  6
 14 15  1  0
 15  9  1  0
 16 14  1  0
 16 20  1  0
 17 16  2  0
 19 18  1  1
 19 20  1  0
 19 21  1  0
 21 22  2  0
 21 23  1  0
M  END
$$$$
