YAA.pdb
     RDKit          3D

 23 23  0  0  1  0  0  0  0  0999 V2000
   14.4083  -14.0232  -20.5009 O   0  0  0  0  0  0  0  0  0  0  0  0
   15.3149  -13.2903  -19.7406 C   0  0  0  0  0  0  0  0  0  0  0  0
   15.6656  -13.6398  -18.4627 C   0  0  0  0  0  0  0  0  0  0  0  0
   16.5648  -12.8843  -17.7530 C   0  0  0  0  0  0  0  0  0  0  0  0
   17.1552  -11.7459  -18.2857 C   0  0  0  0  0  0  0  0  0  0  0  0
   18.1215  -10.9654  -17.4742 C   0  0  0  0  0  0  0  0  0  0  0  0
   19.4812  -11.1149  -18.1698 C   0  0  2  0  0  0  0  0  0  0  0  0
   19.9196  -12.4619  -17.9450 N   0  0  0  0  0  0  0  0  0  0  0  0
   20.4566  -10.1395  -17.6729 C   0  0  0  0  0  0  0  0  0  0  0  0
   21.0224  -10.3516  -16.5699 O   0  0  0  0  0  0  0  0  0  0  0  0
   16.7939  -11.4059  -19.5712 C   0  0  0  0  0  0  0  0  0  0  0  0
   15.8868  -12.1525  -20.3111 C   0  0  0  0  0  0  0  0  0  0  0  0
   22.1233   -7.0814  -19.0783 C   0  0  0  0  0  0  0  0  0  0  0  0
   21.8076   -8.0292  -17.9207 C   0  0  2  0  0  0  0  0  0  0  0  0
   20.7982   -8.9661  -18.3704 N   0  0  0  0  0  0  0  0  0  0  0  0
   21.3309   -7.1920  -16.7984 C   0  0  0  0  0  0  0  0  0  0  0  0
   20.1236   -6.8992  -16.7359 O   0  0  0  0  0  0  0  0  0  0  0  0
   22.8899   -5.8408  -13.6353 C   0  0  0  0  0  0  0  0  0  0  0  0
   21.8578   -5.8788  -14.7163 C   0  0  2  0  0  0  0  0  0  0  0  0
   22.2199   -6.7360  -15.8231 N   0  0  0  0  0  0  0  0  0  0  0  0
   21.5502   -4.4933  -15.1872 C   0  0  0  0  0  0  0  0  0  0  0  0
   22.0213   -4.0143  -16.2326 O   0  0  0  0  0  0  0  0  0  0  0  0
   20.7013   -3.7126  -14.4199 O   0  0  0  0  0  0  0  0  0  0  0  0
  2  1  1  0
  2  3  2  0
  4  3  1  0
  5  4  2  0
  6  5  1  0
  7  6  1  0
  7  8  1  1
  9  7  1  0
  9 10  2  0
 11 12  2  0
 11  5  1  0
 12  2  1  0
 14 13  1  6
 14 15  1  0
 15  9  1  0
 16 14  1  0
 16 20  1  0
 17 16  2  0
 19 18  1  1
 19 20  1  0
 19 21  1  0
 21 22  2  0
 21 23  1  0
M  END
$$$$
