YAA.pdb
     RDKit          3D

 23 23  0  0  1  0  0  0  0  0999 V2000
   22.0245  -16.8841  -15.3947 O   0  0  0  0  0  0  0  0  0  0  0  0
   22.3033  -15.5325  -15.2141 C   0  0  0  0  0  0  0  0  0  0  0  0
   21.4579  -14.5378  -15.6315 C   0  0  0  0  0  0  0  0  0  0  0  0
   21.7774  -13.2185  -15.4305 C   0  0  0  0  0  0  0  0  0  0  0  0
   22.9546  -12.8313  -14.8040 C   0  0  0  0  0  0  0  0  0  0  0  0
   23.2507  -11.3902  -14.6121 C   0  0  0  0  0  0  0  0  0  0  0  0
   23.7599  -10.8755  -15.9652 C   0  0  2  0  0  0  0  0  0  0  0  0
   25.1168  -11.3211  -16.0978 N   0  0  0  0  0  0  0  0  0  0  0  0
   23.6585   -9.4163  -16.0654 C   0  0  0  0  0  0  0  0  0  0  0  0
   24.4979   -8.7042  -15.4570 O   0  0  0  0  0  0  0  0  0  0  0  0
   23.7954  -13.8412  -14.3894 C   0  0  0  0  0  0  0  0  0  0  0  0
   23.4964  -15.1836  -14.5803 C   0  0  0  0  0  0  0  0  0  0  0  0
   21.6791   -7.0174  -18.1548 C   0  0  0  0  0  0  0  0  0  0  0  0
   22.5835   -7.3226  -16.9602 C   0  0  2  0  0  0  0  0  0  0  0  0
   22.6624   -8.7618  -16.8133 N   0  0  0  0  0  0  0  0  0  0  0  0
   21.9696   -6.6746  -15.7808 C   0  0  0  0  0  0  0  0  0  0  0  0
   21.0855   -7.2825  -15.1516 O   0  0  0  0  0  0  0  0  0  0  0  0
   22.5305   -3.3909  -13.9731 C   0  0  0  0  0  0  0  0  0  0  0  0
   21.8386   -4.6894  -14.2385 C   0  0  2  0  0  0  0  0  0  0  0  0
   22.3743   -5.4005  -15.3778 N   0  0  0  0  0  0  0  0  0  0  0  0
   20.3664   -4.4711  -14.3841 C   0  0  0  0  0  0  0  0  0  0  0  0
   19.8284   -4.1922  -15.4689 O   0  0  0  0  0  0  0  0  0  0  0  0
   19.5712   -4.5862  -13.2558 O   0  0  0  0  0  0  0  0  0  0  0  0
  2  1  1  0
  2  3  2  0
  4  3  1  0
  5  4  2  0
  6  5  1  0
  7  6  1  0
  7  8  1  1
  9  7  1  0
  9 10  2  0
 11 12  2  0
 11  5  1  0
 12  2  1  0
 14 13  1  6
 14 15  1  0
 15  9  1  0
 16 14  1  0
 16 20  1  0
 17 16  2  0
 19 18  1  6
 19 20  1  0
 19 21  1  0
 21 22  2  0
 21 23  1  0
M  END
$$$$
