YAA.pdb
     RDKit          3D

 23 23  0  0  1  0  0  0  0  0999 V2000
   21.3637  -18.2839  -15.4046 O   0  0  0  0  0  0  0  0  0  0  0  0
   21.5005  -16.9247  -15.6710 C   0  0  0  0  0  0  0  0  0  0  0  0
   22.0473  -16.4473  -16.8335 C   0  0  0  0  0  0  0  0  0  0  0  0
   22.1607  -15.0971  -17.0500 C   0  0  0  0  0  0  0  0  0  0  0  0
   21.7339  -14.1615  -16.1169 C   0  0  0  0  0  0  0  0  0  0  0  0
   21.8802  -12.7128  -16.4020 C   0  0  0  0  0  0  0  0  0  0  0  0
   20.4830  -12.2113  -16.7908 C   0  0  2  0  0  0  0  0  0  0  0  0
   20.1776  -12.7776  -18.0727 N   0  0  0  0  0  0  0  0  0  0  0  0
   20.4187  -10.7468  -16.8183 C   0  0  0  0  0  0  0  0  0  0  0  0
   21.0590  -10.1255  -17.7047 O   0  0  0  0  0  0  0  0  0  0  0  0
   21.1861  -14.6548  -14.9527 C   0  0  0  0  0  0  0  0  0  0  0  0
   21.0597  -16.0158  -14.7084 C   0  0  0  0  0  0  0  0  0  0  0  0
   18.2758   -8.1368  -15.2433 C   0  0  0  0  0  0  0  0  0  0  0  0
   19.5783   -8.5447  -15.9328 C   0  0  2  0  0  0  0  0  0  0  0  0
   19.6714   -9.9900  -15.8970 N   0  0  0  0  0  0  0  0  0  0  0  0
   20.6793   -7.8963  -15.1878 C   0  0  0  0  0  0  0  0  0  0  0  0
   21.1436   -8.4647  -14.1835 O   0  0  0  0  0  0  0  0  0  0  0  0
   22.8158   -4.8298  -15.7707 C   0  0  0  0  0  0  0  0  0  0  0  0
   22.2898   -5.9743  -14.9653 C   0  0  2  0  0  0  0  0  0  0  0  0
   21.1915   -6.6656  -15.6031 N   0  0  0  0  0  0  0  0  0  0  0  0
   21.9110   -5.5118  -13.5946 C   0  0  0  0  0  0  0  0  0  0  0  0
   20.7394   -5.2596  -13.2659 O   0  0  0  0  0  0  0  0  0  0  0  0
   22.9151   -5.3593  -12.6526 O   0  0  0  0  0  0  0  0  0  0  0  0
  2  1  1  0
  2  3  2  0
  4  3  1  0
  5  4  2  0
  6  5  1  0
  7  6  1  0
  7  8  1  6
  9  7  1  0
  9 10  2  0
 11 12  2  0
 11  5  1  0
 12  2  1  0
 14 13  1  1
 14 15  1  0
 15  9  1  0
 16 14  1  0
 16 20  1  0
 17 16  2  0
 19 18  1  6
 19 20  1  0
 19 21  1  0
 21 22  2  0
 21 23  1  0
M  END
$$$$
