YAA.pdb
     RDKit          3D

 23 23  0  0  1  0  0  0  0  0999 V2000
   25.6279  -28.4803    8.7618 O   0  0  0  0  0  0  0  0  0  0  0  0
   26.4287  -27.4708    9.2878 C   0  0  0  0  0  0  0  0  0  0  0  0
   26.1703  -26.1394    9.0907 C   0  0  0  0  0  0  0  0  0  0  0  0
   26.9902  -25.1806    9.6305 C   0  0  0  0  0  0  0  0  0  0  0  0
   28.1051  -25.5060   10.3916 C   0  0  0  0  0  0  0  0  0  0  0  0
   28.9581  -24.4290   10.9518 C   0  0  0  0  0  0  0  0  0  0  0  0
   29.8100  -23.9096    9.7859 C   0  0  2  0  0  0  0  0  0  0  0  0
   30.8195  -24.8968    9.5339 N   0  0  0  0  0  0  0  0  0  0  0  0
   30.3980  -22.5998   10.0829 C   0  0  0  0  0  0  0  0  0  0  0  0
   31.3128  -22.5235   10.9426 O   0  0  0  0  0  0  0  0  0  0  0  0
   28.3534  -26.8480   10.5821 C   0  0  0  0  0  0  0  0  0  0  0  0
   27.5402  -27.8382   10.0473 C   0  0  0  0  0  0  0  0  0  0  0  0
   29.9442  -19.0950    8.7828 C   0  0  0  0  0  0  0  0  0  0  0  0
   30.5405  -20.1064    9.7624 C   0  0  2  0  0  0  0  0  0  0  0  0
   29.9902  -21.4101    9.4517 N   0  0  0  0  0  0  0  0  0  0  0  0
   30.1722  -19.6553   11.1220 C   0  0  0  0  0  0  0  0  0  0  0  0
   29.0888  -20.0269   11.6071 O   0  0  0  0  0  0  0  0  0  0  0  0
   31.9941  -18.0838   13.9845 C   0  0  0  0  0  0  0  0  0  0  0  0
   30.7557  -18.3379   13.1863 C   0  0  2  0  0  0  0  0  0  0  0  0
   31.0253  -18.8252   11.8519 N   0  0  0  0  0  0  0  0  0  0  0  0
   29.9032  -17.1100   13.1486 C   0  0  0  0  0  0  0  0  0  0  0  0
   29.4253  -16.5872   14.1697 O   0  0  0  0  0  0  0  0  0  0  0  0
   29.6372  -16.5332   11.9176 O   0  0  0  0  0  0  0  0  0  0  0  0
  2  1  1  0
  2  3  2  0
  4  3  1  0
  5  4  2  0
  6  5  1  0
  7  6  1  0
  7  8  1  1
  9  7  1  0
  9 10  2  0
 11 12  2  0
 11  5  1  0
 12  2  1  0
 14 13  1  6
 14 15  1  0
 15  9  1  0
 16 14  1  0
 16 20  1  0
 17 16  2  0
 19 18  1  6
 19 20  1  0
 19 21  1  0
 21 22  2  0
 21 23  1  0
M  END
$$$$
