VPF.pdb
     RDKit          3D

 26 27  0  0  1  0  0  0  0  0999 V2000
   19.5600  -12.2603  -18.5613 C   0  0  0  0  0  0  0  0  0  0  0  0
   18.7623  -13.3765  -17.9133 C   0  0  1  0  0  0  0  0  0  0  0  0
   18.5493  -14.4722  -18.9228 C   0  0  0  0  0  0  0  0  0  0  0  0
   19.5240  -13.8370  -16.6948 C   0  0  2  0  0  0  0  0  0  0  0  0
   18.7513  -14.8763  -16.0640 N   0  0  0  0  0  0  0  0  0  0  0  0
   19.8294  -12.6925  -15.8103 C   0  0  0  0  0  0  0  0  0  0  0  0
   18.8204  -12.1890  -15.2120 O   0  0  0  0  0  0  0  0  0  0  0  0
   21.1368  -12.1757  -15.6255 N   0  0  0  0  0  0  0  0  0  0  0  0
   22.3363  -12.6537  -16.2405 C   0  0  0  0  0  0  0  0  0  0  0  0
   23.4702  -11.8070  -15.7402 C   0  0  0  0  0  0  0  0  0  0  0  0
   22.9186  -11.1251  -14.4820 C   0  0  0  0  0  0  0  0  0  0  0  0
   21.4500  -11.0683  -14.7700 C   0  0  1  0  0  0  0  0  0  0  0  0
   21.0416   -9.7637  -15.3484 C   0  0  0  0  0  0  0  0  0  0  0  0
   21.1662   -9.6153  -16.5886 O   0  0  0  0  0  0  0  0  0  0  0  0
   20.5274   -8.6958  -14.5879 N   0  0  0  0  0  0  0  0  0  0  0  0
   20.0762   -7.4866  -15.2679 C   0  0  1  0  0  0  0  0  0  0  0  0
   18.6743   -7.1417  -14.8844 C   0  0  0  0  0  0  0  0  0  0  0  0
   17.6726   -8.0019  -15.5343 C   0  0  0  0  0  0  0  0  0  0  0  0
   17.1709   -9.1314  -14.9237 C   0  0  0  0  0  0  0  0  0  0  0  0
   16.2267   -9.9344  -15.5295 C   0  0  0  0  0  0  0  0  0  0  0  0
   15.7436   -9.6436  -16.7711 C   0  0  0  0  0  0  0  0  0  0  0  0
   16.2215   -8.5215  -17.4146 C   0  0  0  0  0  0  0  0  0  0  0  0
   17.1644   -7.7232  -16.8044 C   0  0  0  0  0  0  0  0  0  0  0  0
   20.9860   -6.3888  -14.8916 C   0  0  0  0  0  0  0  0  0  0  0  0
   20.9457   -5.1068  -15.4494 O   0  0  0  0  0  0  0  0  0  0  0  0
   21.8745   -6.6071  -14.0028 O   0  0  0  0  0  0  0  0  0  0  0  0
  2  3  1  6
  2  1  1  0
  4  6  1  0
  4  2  1  0
  4  5  1  1
  6  8  1  0
  7  6  2  0
  8 12  1  0
  8  9  1  0
  9 10  1  0
 10 11  1  0
 12 11  1  0
 12 13  1  6
 14 13  2  0
 15 13  1  0
 16 24  1  0
 16 15  1  0
 16 17  1  1
 18 19  2  0
 18 17  1  0
 20 19  1  0
 21 20  2  0
 22 21  1  0
 22 23  2  0
 23 18  1  0
 24 25  1  0
 26 24  2  0
M  END
$$$$
