VPF.pdb
     RDKit          3D

 26 27  0  0  1  0  0  0  0  0999 V2000
   26.7586  -17.0758  -13.7758 C   0  0  0  0  0  0  0  0  0  0  0  0
   25.5781  -17.4305  -14.6605 C   0  0  1  0  0  0  0  0  0  0  0  0
   25.5804  -16.5245  -15.8622 C   0  0  0  0  0  0  0  0  0  0  0  0
   25.6983  -18.8905  -15.0223 C   0  0  2  0  0  0  0  0  0  0  0  0
   24.6265  -19.2045  -15.9321 N   0  0  0  0  0  0  0  0  0  0  0  0
   25.7186  -19.7274  -13.8038 C   0  0  0  0  0  0  0  0  0  0  0  0
   24.5827  -19.8955  -13.2461 O   0  0  0  0  0  0  0  0  0  0  0  0
   26.8989  -20.3093  -13.2758 N   0  0  0  0  0  0  0  0  0  0  0  0
   28.2270  -20.1494  -13.7817 C   0  0  0  0  0  0  0  0  0  0  0  0
   29.1442  -20.9554  -12.9087 C   0  0  0  0  0  0  0  0  0  0  0  0
   28.2179  -21.9259  -12.1655 C   0  0  0  0  0  0  0  0  0  0  0  0
   26.9280  -21.1659  -12.1261 C   0  0  1  0  0  0  0  0  0  0  0  0
   26.7531  -20.4229  -10.8531 C   0  0  0  0  0  0  0  0  0  0  0  0
   27.4026  -19.3584  -10.7096 O   0  0  0  0  0  0  0  0  0  0  0  0
   25.9064  -20.8443   -9.8097 N   0  0  0  0  0  0  0  0  0  0  0  0
   26.4043  -20.8374   -8.4385 C   0  0  1  0  0  0  0  0  0  0  0  0
   26.9029  -19.4837   -8.0510 C   0  0  0  0  0  0  0  0  0  0  0  0
   27.4757  -19.4484   -6.6959 C   0  0  0  0  0  0  0  0  0  0  0  0
   28.4184  -18.5141   -6.3236 C   0  0  0  0  0  0  0  0  0  0  0  0
   28.9507  -18.4761   -5.0515 C   0  0  0  0  0  0  0  0  0  0  0  0
   28.5642  -19.3700   -4.0969 C   0  0  0  0  0  0  0  0  0  0  0  0
   27.6228  -20.3207   -4.4312 C   0  0  0  0  0  0  0  0  0  0  0  0
   27.0947  -20.3534   -5.7035 C   0  0  0  0  0  0  0  0  0  0  0  0
   25.2964  -21.2390   -7.5521 C   0  0  0  0  0  0  0  0  0  0  0  0
   24.0392  -20.6262   -7.5362 O   0  0  0  0  0  0  0  0  0  0  0  0
   25.4812  -22.2049   -6.7396 O   0  0  0  0  0  0  0  0  0  0  0  0
  2  3  1  6
  2  1  1  0
  4  6  1  0
  4  2  1  0
  4  5  1  6
  6  8  1  0
  7  6  2  0
  8 12  1  0
  8  9  1  0
  9 10  1  0
 10 11  1  0
 12 11  1  0
 12 13  1  1
 14 13  2  0
 15 13  1  0
 16 24  1  0
 16 15  1  0
 16 17  1  1
 18 19  2  0
 18 17  1  0
 20 19  1  0
 21 20  2  0
 22 21  1  0
 22 23  2  0
 23 18  1  0
 24 25  1  0
 26 24  2  0
M  END
$$$$
