VPF.pdb
     RDKit          3D

 26 27  0  0  1  0  0  0  0  0999 V2000
   27.5155  -21.7663   -9.9472 C   0  0  0  0  0  0  0  0  0  0  0  0
   26.7171  -21.3826  -11.1791 C   0  0  1  0  0  0  0  0  0  0  0  0
   25.4370  -22.1737  -11.1957 C   0  0  0  0  0  0  0  0  0  0  0  0
   26.4886  -19.8917  -11.1316 C   0  0  2  0  0  0  0  0  0  0  0  0
   25.7037  -19.6076   -9.9576 N   0  0  0  0  0  0  0  0  0  0  0  0
   25.8786  -19.4196  -12.3927 C   0  0  0  0  0  0  0  0  0  0  0  0
   24.6868  -18.9758  -12.2822 O   0  0  0  0  0  0  0  0  0  0  0  0
   26.5478  -19.4484  -13.6424 N   0  0  0  0  0  0  0  0  0  0  0  0
   27.9025  -19.8442  -13.8741 C   0  0  0  0  0  0  0  0  0  0  0  0
   28.1701  -19.7039  -15.3444 C   0  0  0  0  0  0  0  0  0  0  0  0
   27.0487  -18.7917  -15.8569 C   0  0  0  0  0  0  0  0  0  0  0  0
   25.9427  -19.0733  -14.8872 C   0  0  1  0  0  0  0  0  0  0  0  0
   24.9970  -20.0978  -15.3966 C   0  0  0  0  0  0  0  0  0  0  0  0
   25.3363  -21.3018  -15.2932 O   0  0  0  0  0  0  0  0  0  0  0  0
   23.7533  -19.7936  -15.9831 N   0  0  0  0  0  0  0  0  0  0  0  0
   22.6546  -20.7457  -15.8627 C   0  0  1  0  0  0  0  0  0  0  0  0
   21.8972  -20.5396  -14.5918 C   0  0  0  0  0  0  0  0  0  0  0  0
   20.6844  -21.3686  -14.5047 C   0  0  0  0  0  0  0  0  0  0  0  0
   20.7218  -22.6778  -14.0747 C   0  0  0  0  0  0  0  0  0  0  0  0
   19.5843  -23.4533  -13.9863 C   0  0  0  0  0  0  0  0  0  0  0  0
   18.3609  -22.9543  -14.3237 C   0  0  0  0  0  0  0  0  0  0  0  0
   18.2827  -21.6480  -14.7589 C   0  0  0  0  0  0  0  0  0  0  0  0
   19.4223  -20.8783  -14.8450 C   0  0  0  0  0  0  0  0  0  0  0  0
   21.7600  -20.5538  -17.0191 C   0  0  0  0  0  0  0  0  0  0  0  0
   21.0472  -21.5833  -17.6423 O   0  0  0  0  0  0  0  0  0  0  0  0
   21.6180  -19.3791  -17.4954 O   0  0  0  0  0  0  0  0  0  0  0  0
  2  3  1  1
  2  1  1  0
  4  6  1  0
  4  2  1  0
  4  5  1  1
  6  8  1  0
  7  6  2  0
  8 12  1  0
  8  9  1  0
  9 10  1  0
 10 11  1  0
 12 11  1  0
 12 13  1  6
 14 13  2  0
 15 13  1  0
 16 24  1  0
 16 15  1  0
 16 17  1  1
 18 19  2  0
 18 17  1  0
 20 19  1  0
 21 20  2  0
 22 21  1  0
 22 23  2  0
 23 18  1  0
 24 25  1  0
 26 24  2  0
M  END
$$$$
