VPF.pdb
     RDKit          3D

 26 27  0  0  1  0  0  0  0  0999 V2000
   28.7656  -17.9705  -16.5504 C   0  0  0  0  0  0  0  0  0  0  0  0
   28.3280  -18.6185  -15.2501 C   0  0  1  0  0  0  0  0  0  0  0  0
   26.8799  -18.2899  -15.0055 C   0  0  0  0  0  0  0  0  0  0  0  0
   28.5849  -20.1009  -15.3671 C   0  0  2  0  0  0  0  0  0  0  0  0
   27.9296  -20.5643  -16.5633 N   0  0  0  0  0  0  0  0  0  0  0  0
   28.1577  -20.8005  -14.1368 C   0  0  0  0  0  0  0  0  0  0  0  0
   27.0112  -21.3577  -14.2037 O   0  0  0  0  0  0  0  0  0  0  0  0
   28.9454  -20.8606  -12.9594 N   0  0  0  0  0  0  0  0  0  0  0  0
   30.2788  -20.3682  -12.8008 C   0  0  0  0  0  0  0  0  0  0  0  0
   30.7050  -20.6608  -11.3916 C   0  0  0  0  0  0  0  0  0  0  0  0
   29.7214  -21.7319  -10.9039 C   0  0  0  0  0  0  0  0  0  0  0  0
   28.5031  -21.4411  -11.7250 C   0  0  1  0  0  0  0  0  0  0  0  0
   27.5318  -20.5818  -11.0030 C   0  0  0  0  0  0  0  0  0  0  0  0
   27.7687  -19.3499  -10.9592 O   0  0  0  0  0  0  0  0  0  0  0  0
   26.3714  -21.0701  -10.3718 N   0  0  0  0  0  0  0  0  0  0  0  0
   25.4926  -20.1389   -9.6727 C   0  0  1  0  0  0  0  0  0  0  0  0
   24.5691  -19.4497  -10.6232 C   0  0  0  0  0  0  0  0  0  0  0  0
   23.7537  -20.3862  -11.4130 C   0  0  0  0  0  0  0  0  0  0  0  0
   22.4482  -20.6794  -11.0817 C   0  0  0  0  0  0  0  0  0  0  0  0
   21.6810  -21.5519  -11.8256 C   0  0  0  0  0  0  0  0  0  0  0  0
   22.1853  -22.1689  -12.9322 C   0  0  0  0  0  0  0  0  0  0  0  0
   23.4883  -21.9012  -13.2960 C   0  0  0  0  0  0  0  0  0  0  0  0
   24.2495  -21.0287  -12.5489 C   0  0  0  0  0  0  0  0  0  0  0  0
   24.7153  -20.9063   -8.6821 C   0  0  0  0  0  0  0  0  0  0  0  0
   23.8853  -20.3299   -7.7150 O   0  0  0  0  0  0  0  0  0  0  0  0
   24.7961  -22.1792   -8.6931 O   0  0  0  0  0  0  0  0  0  0  0  0
  2  3  1  6
  2  1  1  0
  4  6  1  0
  4  2  1  0
  4  5  1  6
  6  8  1  0
  7  6  2  0
  8 12  1  0
  8  9  1  0
  9 10  1  0
 10 11  1  0
 12 11  1  0
 12 13  1  1
 14 13  2  0
 15 13  1  0
 16 24  1  0
 16 15  1  0
 16 17  1  6
 18 19  2  0
 18 17  1  0
 20 19  1  0
 21 20  2  0
 22 21  1  0
 22 23  2  0
 23 18  1  0
 24 25  1  0
 26 24  2  0
M  END
$$$$
