VPF.pdb
     RDKit          3D

 26 27  0  0  1  0  0  0  0  0999 V2000
   22.7843  -19.1573  -15.4008 C   0  0  0  0  0  0  0  0  0  0  0  0
   23.4392  -19.8973  -14.2495 C   0  0  1  0  0  0  0  0  0  0  0  0
   22.3698  -20.5718  -13.4330 C   0  0  0  0  0  0  0  0  0  0  0  0
   24.4346  -20.8683  -14.8353 C   0  0  2  0  0  0  0  0  0  0  0  0
   23.6909  -21.9311  -15.4617 N   0  0  0  0  0  0  0  0  0  0  0  0
   25.3839  -21.3271  -13.7990 C   0  0  0  0  0  0  0  0  0  0  0  0
   25.1079  -22.4594  -13.2782 O   0  0  0  0  0  0  0  0  0  0  0  0
   26.5215  -20.5822  -13.3976 N   0  0  0  0  0  0  0  0  0  0  0  0
   26.9904  -19.3632  -13.9805 C   0  0  0  0  0  0  0  0  0  0  0  0
   28.2254  -18.9500  -13.2341 C   0  0  0  0  0  0  0  0  0  0  0  0
   28.6786  -20.2193  -12.5022 C   0  0  0  0  0  0  0  0  0  0  0  0
   27.3885  -20.9573  -12.3186 C   0  0  1  0  0  0  0  0  0  0  0  0
   26.7848  -20.7091  -10.9854 C   0  0  0  0  0  0  0  0  0  0  0  0
   25.8200  -19.9084  -10.9263 O   0  0  0  0  0  0  0  0  0  0  0  0
   27.2323  -21.3178   -9.7969 N   0  0  0  0  0  0  0  0  0  0  0  0
   26.3749  -21.2968   -8.6168 C   0  0  1  0  0  0  0  0  0  0  0  0
   27.0650  -21.8982   -7.4363 C   0  0  0  0  0  0  0  0  0  0  0  0
   27.6675  -20.8912   -6.5482 C   0  0  0  0  0  0  0  0  0  0  0  0
   28.8077  -20.1982   -6.8944 C   0  0  0  0  0  0  0  0  0  0  0  0
   29.3691  -19.2492   -6.0653 C   0  0  0  0  0  0  0  0  0  0  0  0
   28.8156  -18.9519   -4.8550 C   0  0  0  0  0  0  0  0  0  0  0  0
   27.6739  -19.6245   -4.4730 C   0  0  0  0  0  0  0  0  0  0  0  0
   27.1178  -20.5714   -5.3054 C   0  0  0  0  0  0  0  0  0  0  0  0
   26.0265  -19.8919   -8.3349 C   0  0  0  0  0  0  0  0  0  0  0  0
   26.8456  -18.8007   -8.6427 O   0  0  0  0  0  0  0  0  0  0  0  0
   24.9101  -19.6388   -7.7721 O   0  0  0  0  0  0  0  0  0  0  0  0
  2  3  1  6
  2  1  1  0
  4  6  1  0
  4  2  1  0
  4  5  1  1
  6  8  1  0
  7  6  2  0
  8 12  1  0
  8  9  1  0
  9 10  1  0
 10 11  1  0
 12 11  1  0
 12 13  1  1
 14 13  2  0
 15 13  1  0
 16 24  1  0
 16 15  1  0
 16 17  1  1
 18 19  2  0
 18 17  1  0
 20 19  1  0
 21 20  2  0
 22 21  1  0
 22 23  2  0
 23 18  1  0
 24 25  1  0
 26 24  2  0
M  END
$$$$
