HYH.pdb
     RDKit          3D

 33 35  0  0  1  0  0  0  0  0999 V2000
   23.8840  -19.0364  -20.1307 N   0  0  0  0  0  0  0  0  0  0  0  0
   23.2278  -18.3991  -19.0248 C   0  0  1  0  0  0  0  0  0  0  0  0
   21.7979  -18.0103  -19.3577 C   0  0  0  0  0  0  0  0  0  0  0  0
   21.7603  -16.9623  -20.3959 C   0  0  0  0  0  0  0  0  0  0  0  0
   21.2242  -17.1401  -21.6529 C   0  0  0  0  0  0  0  0  0  0  0  0
   21.3490  -15.9913  -22.3532 N   0  0  0  0  0  0  0  0  0  0  0  0
   21.9593  -15.0858  -21.5527 C   0  0  0  0  0  0  0  0  0  0  0  0
   22.2014  -15.6905  -20.3709 N   0  0  0  0  0  0  0  0  0  0  0  0
   23.2636  -19.2622  -17.8166 C   0  0  0  0  0  0  0  0  0  0  0  0
   22.9868  -20.4644  -17.9346 O   0  0  0  0  0  0  0  0  0  0  0  0
   24.8619  -22.3867   -9.7474 O   0  0  0  0  0  0  0  0  0  0  0  0
   24.7505  -21.5314  -10.8398 C   0  0  0  0  0  0  0  0  0  0  0  0
   25.5855  -21.6669  -11.9309 C   0  0  0  0  0  0  0  0  0  0  0  0
   25.4914  -20.8241  -13.0313 C   0  0  0  0  0  0  0  0  0  0  0  0
   24.5476  -19.8116  -13.0686 C   0  0  0  0  0  0  0  0  0  0  0  0
   24.4554  -18.9147  -14.2510 C   0  0  0  0  0  0  0  0  0  0  0  0
   23.5761  -19.5152  -15.3296 C   0  0  2  0  0  0  0  0  0  0  0  0
   23.6066  -18.7346  -16.5427 N   0  0  0  0  0  0  0  0  0  0  0  0
   22.2172  -19.7976  -14.8593 C   0  0  0  0  0  0  0  0  0  0  0  0
   21.4359  -18.8310  -14.6525 O   0  0  0  0  0  0  0  0  0  0  0  0
   23.7190  -19.6836  -11.9763 C   0  0  0  0  0  0  0  0  0  0  0  0
   23.8123  -20.5213  -10.8820 C   0  0  0  0  0  0  0  0  0  0  0  0
   21.7072  -21.0961  -14.6156 N   0  0  0  0  0  0  0  0  0  0  0  0
   20.3303  -21.2690  -14.1749 C   0  0  1  0  0  0  0  0  0  0  0  0
   19.9058  -22.7012  -14.3105 C   0  0  0  0  0  0  0  0  0  0  0  0
   18.4772  -22.8422  -13.9848 C   0  0  0  0  0  0  0  0  0  0  0  0
   17.8033  -22.0138  -13.1046 C   0  0  0  0  0  0  0  0  0  0  0  0
   16.5103  -22.4472  -13.0581 N   0  0  0  0  0  0  0  0  0  0  0  0
   16.3751  -23.4960  -13.8678 C   0  0  0  0  0  0  0  0  0  0  0  0
   17.5792  -23.7131  -14.4151 N   0  0  0  0  0  0  0  0  0  0  0  0
   20.2464  -20.8670  -12.7547 C   0  0  0  0  0  0  0  0  0  0  0  0
   19.4370  -19.9337  -12.4411 O   0  0  0  0  0  0  0  0  0  0  0  0
   20.9862  -21.4332  -11.7279 O   0  0  0  0  0  0  0  0  0  0  0  0
  2  1  1  6
  2  3  1  0
  3  4  1  0
  4  5  2  0
  4  8  1  0
  5  6  1  0
  6  7  1  0
  8  7  2  0
  9 18  1  0
  9  2  1  0
 10  9  2  0
 11 12  1  0
 12 22  2  0
 13 14  2  0
 13 12  1  0
 14 15  1  0
 15 16  1  0
 15 21  2  0
 17 16  1  1
 17 18  1  0
 19 17  1  0
 20 19  2  0
 22 21  1  0
 23 19  1  0
 24 31  1  0
 24 23  1  0
 24 25  1  1
 26 27  2  0
 26 25  1  0
 28 27  1  0
 29 30  2  0
 29 28  1  0
 30 26  1  0
 31 33  1  0
 32 31  2  0
M  END
$$$$
