HYH.pdb
     RDKit          3D

 33 35  0  0  1  0  0  0  0  0999 V2000
   33.4271  -28.7273  -19.8149 N   0  0  0  0  0  0  0  0  0  0  0  0
   32.5668  -27.6062  -19.5646 C   0  0  1  0  0  0  0  0  0  0  0  0
   32.5653  -26.6200  -20.7196 C   0  0  0  0  0  0  0  0  0  0  0  0
   33.8716  -25.9449  -20.8434 C   0  0  0  0  0  0  0  0  0  0  0  0
   34.8383  -26.2966  -21.7605 C   0  0  0  0  0  0  0  0  0  0  0  0
   35.9073  -25.4842  -21.6093 N   0  0  0  0  0  0  0  0  0  0  0  0
   35.6286  -24.6200  -20.6049 C   0  0  0  0  0  0  0  0  0  0  0  0
   34.3917  -24.9131  -20.1523 N   0  0  0  0  0  0  0  0  0  0  0  0
   31.1834  -28.0549  -19.2629 C   0  0  0  0  0  0  0  0  0  0  0  0
   30.6768  -28.9395  -19.9676 O   0  0  0  0  0  0  0  0  0  0  0  0
   23.3131  -29.0363  -15.3508 O   0  0  0  0  0  0  0  0  0  0  0  0
   24.6358  -28.6969  -15.6203 C   0  0  0  0  0  0  0  0  0  0  0  0
   25.0117  -27.3757  -15.7588 C   0  0  0  0  0  0  0  0  0  0  0  0
   26.3261  -27.0151  -16.0278 C   0  0  0  0  0  0  0  0  0  0  0  0
   27.3102  -27.9793  -16.1669 C   0  0  0  0  0  0  0  0  0  0  0  0
   28.7140  -27.5827  -16.4553 C   0  0  0  0  0  0  0  0  0  0  0  0
   29.0722  -27.8425  -17.9049 C   0  0  2  0  0  0  0  0  0  0  0  0
   30.4420  -27.4904  -18.1903 N   0  0  0  0  0  0  0  0  0  0  0  0
   28.1157  -27.2436  -18.8399 C   0  0  0  0  0  0  0  0  0  0  0  0
   28.1374  -25.9953  -19.0101 O   0  0  0  0  0  0  0  0  0  0  0  0
   26.9265  -29.2943  -16.0272 C   0  0  0  0  0  0  0  0  0  0  0  0
   25.6198  -29.6532  -15.7597 C   0  0  0  0  0  0  0  0  0  0  0  0
   27.1531  -27.9735  -19.5788 N   0  0  0  0  0  0  0  0  0  0  0  0
   26.2198  -27.2757  -20.4518 C   0  0  1  0  0  0  0  0  0  0  0  0
   26.3681  -27.7438  -21.8691 C   0  0  0  0  0  0  0  0  0  0  0  0
   25.5511  -26.9125  -22.7682 C   0  0  0  0  0  0  0  0  0  0  0  0
   24.9601  -25.7202  -22.3886 C   0  0  0  0  0  0  0  0  0  0  0  0
   24.2908  -25.2414  -23.4770 N   0  0  0  0  0  0  0  0  0  0  0  0
   24.4513  -26.0886  -24.4921 C   0  0  0  0  0  0  0  0  0  0  0  0
   25.2172  -27.0896  -24.0360 N   0  0  0  0  0  0  0  0  0  0  0  0
   24.8473  -27.5627  -19.9835 C   0  0  0  0  0  0  0  0  0  0  0  0
   23.8724  -27.0795  -20.6473 O   0  0  0  0  0  0  0  0  0  0  0  0
   24.5359  -28.3254  -18.8684 O   0  0  0  0  0  0  0  0  0  0  0  0
  2  1  1  6
  2  3  1  0
  3  4  1  0
  4  5  2  0
  4  8  1  0
  5  6  1  0
  6  7  1  0
  8  7  2  0
  9 18  1  0
  9  2  1  0
 10  9  2  0
 11 12  1  0
 12 22  2  0
 13 14  2  0
 13 12  1  0
 14 15  1  0
 15 16  1  0
 15 21  2  0
 17 16  1  1
 17 18  1  0
 19 17  1  0
 20 19  2  0
 22 21  1  0
 23 19  1  0
 24 31  1  0
 24 23  1  0
 24 25  1  6
 26 27  2  0
 26 25  1  0
 28 27  1  0
 29 30  2  0
 29 28  1  0
 30 26  1  0
 31 33  1  0
 32 31  2  0
M  END
$$$$
