HYH.pdb
     RDKit          3D

 33 35  0  0  1  0  0  0  0  0999 V2000
   22.0863  -31.0210  -11.5614 N   0  0  0  0  0  0  0  0  0  0  0  0
   21.0896  -30.8072  -10.5511 C   0  0  1  0  0  0  0  0  0  0  0  0
   21.4965  -31.4021   -9.2142 C   0  0  0  0  0  0  0  0  0  0  0  0
   21.6418  -32.8677   -9.3072 C   0  0  0  0  0  0  0  0  0  0  0  0
   20.5968  -33.7566   -9.1769 C   0  0  0  0  0  0  0  0  0  0  0  0
   21.0680  -35.0156   -9.3135 N   0  0  0  0  0  0  0  0  0  0  0  0
   22.4021  -34.9345   -9.5294 C   0  0  0  0  0  0  0  0  0  0  0  0
   22.7330  -33.6263   -9.5224 N   0  0  0  0  0  0  0  0  0  0  0  0
   20.7833  -29.3613  -10.4046 C   0  0  0  0  0  0  0  0  0  0  0  0
   21.7221  -28.5528  -10.3788 O   0  0  0  0  0  0  0  0  0  0  0  0
   16.9750  -21.5511  -11.3641 O   0  0  0  0  0  0  0  0  0  0  0  0
   17.3809  -22.8810  -11.4262 C   0  0  0  0  0  0  0  0  0  0  0  0
   16.4800  -23.9051  -11.2124 C   0  0  0  0  0  0  0  0  0  0  0  0
   16.8641  -25.2390  -11.2696 C   0  0  0  0  0  0  0  0  0  0  0  0
   18.1757  -25.5866  -11.5455 C   0  0  0  0  0  0  0  0  0  0  0  0
   18.5766  -27.0173  -11.6040 C   0  0  0  0  0  0  0  0  0  0  0  0
   19.0923  -27.4993  -10.2628 C   0  0  2  0  0  0  0  0  0  0  0  0
   19.4445  -28.8981  -10.2947 N   0  0  0  0  0  0  0  0  0  0  0  0
   18.1961  -27.1552   -9.1555 C   0  0  0  0  0  0  0  0  0  0  0  0
   17.1502  -27.8380   -8.9896 O   0  0  0  0  0  0  0  0  0  0  0  0
   19.0675  -24.5590  -11.7574 C   0  0  0  0  0  0  0  0  0  0  0  0
   18.6860  -23.2327  -11.7006 C   0  0  0  0  0  0  0  0  0  0  0  0
   18.4202  -26.0960   -8.2426 N   0  0  0  0  0  0  0  0  0  0  0  0
   17.4815  -25.8582   -7.1552 C   0  0  1  0  0  0  0  0  0  0  0  0
   18.1899  -25.3049   -5.9545 C   0  0  0  0  0  0  0  0  0  0  0  0
   17.2275  -25.0393   -4.8728 C   0  0  0  0  0  0  0  0  0  0  0  0
   16.1699  -24.1538   -4.9841 C   0  0  0  0  0  0  0  0  0  0  0  0
   15.5052  -24.1730   -3.7927 N   0  0  0  0  0  0  0  0  0  0  0  0
   16.1125  -25.0274   -2.9710 C   0  0  0  0  0  0  0  0  0  0  0  0
   17.1502  -25.5367   -3.6494 N   0  0  0  0  0  0  0  0  0  0  0  0
   16.4737  -24.8819   -7.6208 C   0  0  0  0  0  0  0  0  0  0  0  0
   16.8710  -23.8991   -8.3285 O   0  0  0  0  0  0  0  0  0  0  0  0
   15.1168  -24.9546   -7.3456 O   0  0  0  0  0  0  0  0  0  0  0  0
  2  1  1  6
  2  3  1  0
  3  4  1  0
  4  5  2  0
  4  8  1  0
  5  6  1  0
  6  7  1  0
  8  7  2  0
  9 18  1  0
  9  2  1  0
 10  9  2  0
 11 12  1  0
 12 22  2  0
 13 14  2  0
 13 12  1  0
 14 15  1  0
 15 16  1  0
 15 21  2  0
 17 16  1  6
 17 18  1  0
 19 17  1  0
 20 19  2  0
 22 21  1  0
 23 19  1  0
 24 31  1  0
 24 23  1  0
 24 25  1  1
 26 27  2  0
 26 25  1  0
 28 27  1  0
 29 30  2  0
 29 28  1  0
 30 26  1  0
 31 33  1  0
 32 31  2  0
M  END
$$$$
