HYH.pdb
     RDKit          3D

 33 35  0  0  1  0  0  0  0  0999 V2000
   26.2743  -21.2018  -16.6506 N   0  0  0  0  0  0  0  0  0  0  0  0
   25.3026  -20.1889  -16.3513 C   0  0  1  0  0  0  0  0  0  0  0  0
   25.0462  -19.2766  -17.5381 C   0  0  0  0  0  0  0  0  0  0  0  0
   26.2756  -18.5635  -17.9353 C   0  0  0  0  0  0  0  0  0  0  0  0
   26.6276  -17.3146  -17.4709 C   0  0  0  0  0  0  0  0  0  0  0  0
   27.8039  -16.9515  -18.0278 N   0  0  0  0  0  0  0  0  0  0  0  0
   28.2021  -17.9579  -18.8412 C   0  0  0  0  0  0  0  0  0  0  0  0
   27.2649  -18.9263  -18.7733 N   0  0  0  0  0  0  0  0  0  0  0  0
   24.0319  -20.7951  -15.8780 C   0  0  0  0  0  0  0  0  0  0  0  0
   23.3908  -21.5177  -16.6543 O   0  0  0  0  0  0  0  0  0  0  0  0
   26.3489  -20.3691   -9.1420 O   0  0  0  0  0  0  0  0  0  0  0  0
   25.4129  -20.8046  -10.0756 C   0  0  0  0  0  0  0  0  0  0  0  0
   25.8138  -21.4389  -11.2345 C   0  0  0  0  0  0  0  0  0  0  0  0
   24.8963  -21.8813  -12.1793 C   0  0  0  0  0  0  0  0  0  0  0  0
   23.5375  -21.6981  -11.9862 C   0  0  0  0  0  0  0  0  0  0  0  0
   22.5639  -22.1750  -13.0039 C   0  0  0  0  0  0  0  0  0  0  0  0
   22.3148  -21.1203  -14.0636 C   0  0  2  0  0  0  0  0  0  0  0  0
   23.5471  -20.5605  -14.5632 N   0  0  0  0  0  0  0  0  0  0  0  0
   21.3515  -20.1030  -13.6335 C   0  0  0  0  0  0  0  0  0  0  0  0
   21.2296  -19.8683  -12.4016 O   0  0  0  0  0  0  0  0  0  0  0  0
   23.1466  -21.0647  -10.8278 C   0  0  0  0  0  0  0  0  0  0  0  0
   24.0584  -20.6247   -9.8882 C   0  0  0  0  0  0  0  0  0  0  0  0
   20.5339  -19.3513  -14.5121 N   0  0  0  0  0  0  0  0  0  0  0  0
   19.2806  -19.9091  -14.9999 C   0  0  1  0  0  0  0  0  0  0  0  0
   19.4899  -21.2936  -15.5377 C   0  0  0  0  0  0  0  0  0  0  0  0
   18.2629  -21.7768  -16.1920 C   0  0  0  0  0  0  0  0  0  0  0  0
   17.5274  -21.0300  -17.0955 C   0  0  0  0  0  0  0  0  0  0  0  0
   16.4705  -21.8003  -17.4843 N   0  0  0  0  0  0  0  0  0  0  0  0
   16.5356  -22.9739  -16.8579 C   0  0  0  0  0  0  0  0  0  0  0  0
   17.6286  -22.9326  -16.0831 N   0  0  0  0  0  0  0  0  0  0  0  0
   18.3286  -19.9625  -13.8702 C   0  0  0  0  0  0  0  0  0  0  0  0
   17.2094  -19.3662  -13.9986 O   0  0  0  0  0  0  0  0  0  0  0  0
   18.5609  -20.6185  -12.6711 O   0  0  0  0  0  0  0  0  0  0  0  0
  2  1  1  6
  2  3  1  0
  3  4  1  0
  4  5  2  0
  4  8  1  0
  5  6  1  0
  6  7  1  0
  8  7  2  0
  9 18  1  0
  9  2  1  0
 10  9  2  0
 11 12  1  0
 12 22  2  0
 13 14  2  0
 13 12  1  0
 14 15  1  0
 15 16  1  0
 15 21  2  0
 17 16  1  1
 17 18  1  0
 19 17  1  0
 20 19  2  0
 22 21  1  0
 23 19  1  0
 24 31  1  0
 24 23  1  0
 24 25  1  1
 26 27  2  0
 26 25  1  0
 28 27  1  0
 29 30  2  0
 29 28  1  0
 30 26  1  0
 31 33  1  0
 32 31  2  0
M  END
$$$$
