HYH.pdb
     RDKit          3D

 33 35  0  0  1  0  0  0  0  0999 V2000
   13.8743  -22.2389    0.4942 N   0  0  0  0  0  0  0  0  0  0  0  0
   13.7908  -23.0033    1.7061 C   0  0  1  0  0  0  0  0  0  0  0  0
   14.5262  -24.3276    1.5965 C   0  0  0  0  0  0  0  0  0  0  0  0
   14.0015  -25.1356    0.4787 C   0  0  0  0  0  0  0  0  0  0  0  0
   12.9431  -26.0111    0.5895 C   0  0  0  0  0  0  0  0  0  0  0  0
   12.7188  -26.5876   -0.6117 N   0  0  0  0  0  0  0  0  0  0  0  0
   13.6247  -26.0864   -1.4842 C   0  0  0  0  0  0  0  0  0  0  0  0
   14.3938  -25.2084   -0.8071 N   0  0  0  0  0  0  0  0  0  0  0  0
   14.2975  -22.2219    2.8631 C   0  0  0  0  0  0  0  0  0  0  0  0
   15.3430  -21.5700    2.7300 O   0  0  0  0  0  0  0  0  0  0  0  0
   14.2851  -17.5259   10.3371 O   0  0  0  0  0  0  0  0  0  0  0  0
   13.9156  -18.3289    9.2619 C   0  0  0  0  0  0  0  0  0  0  0  0
   13.6492  -19.6716    9.4420 C   0  0  0  0  0  0  0  0  0  0  0  0
   13.2791  -20.4908    8.3828 C   0  0  0  0  0  0  0  0  0  0  0  0
   13.1646  -19.9812    7.1004 C   0  0  0  0  0  0  0  0  0  0  0  0
   12.7682  -20.8667    5.9735 C   0  0  0  0  0  0  0  0  0  0  0  0
   13.9803  -21.3599    5.2089 C   0  0  2  0  0  0  0  0  0  0  0  0
   13.6083  -22.2119    4.1055 N   0  0  0  0  0  0  0  0  0  0  0  0
   14.9952  -21.9565    6.0817 C   0  0  0  0  0  0  0  0  0  0  0  0
   14.8887  -23.1739    6.3887 O   0  0  0  0  0  0  0  0  0  0  0  0
   13.4321  -18.6413    6.9299 C   0  0  0  0  0  0  0  0  0  0  0  0
   13.8001  -17.8264    7.9827 C   0  0  0  0  0  0  0  0  0  0  0  0
   16.1050  -21.2569    6.6151 N   0  0  0  0  0  0  0  0  0  0  0  0
   17.0936  -21.9605    7.4198 C   0  0  1  0  0  0  0  0  0  0  0  0
   18.2906  -22.3232    6.5918 C   0  0  0  0  0  0  0  0  0  0  0  0
   18.1829  -23.7144    6.1229 C   0  0  0  0  0  0  0  0  0  0  0  0
   17.1340  -24.5568    6.4473 C   0  0  0  0  0  0  0  0  0  0  0  0
   17.3777  -25.7523    5.8365 N   0  0  0  0  0  0  0  0  0  0  0  0
   18.5225  -25.6687    5.1608 C   0  0  0  0  0  0  0  0  0  0  0  0
   18.9878  -24.4262    5.3512 N   0  0  0  0  0  0  0  0  0  0  0  0
   17.5134  -21.0670    8.5202 C   0  0  0  0  0  0  0  0  0  0  0  0
   17.0334  -19.8867    8.5524 O   0  0  0  0  0  0  0  0  0  0  0  0
   18.3960  -21.4177    9.5302 O   0  0  0  0  0  0  0  0  0  0  0  0
  2  1  1  6
  2  3  1  0
  3  4  1  0
  4  5  2  0
  4  8  1  0
  5  6  1  0
  6  7  1  0
  8  7  2  0
  9 18  1  0
  9  2  1  0
 10  9  2  0
 11 12  1  0
 12 22  2  0
 13 14  2  0
 13 12  1  0
 14 15  1  0
 15 16  1  0
 15 21  2  0
 17 16  1  1
 17 18  1  0
 19 17  1  0
 20 19  2  0
 22 21  1  0
 23 19  1  0
 24 31  1  0
 24 23  1  0
 24 25  1  6
 26 27  2  0
 26 25  1  0
 28 27  1  0
 29 30  2  0
 29 28  1  0
 30 26  1  0
 31 33  1  0
 32 31  2  0
M  END
$$$$
