HYH.pdb
     RDKit          3D

 33 35  0  0  1  0  0  0  0  0999 V2000
   21.7516  -17.0747  -16.8475 N   0  0  0  0  0  0  0  0  0  0  0  0
   21.3279  -15.7963  -17.3434 C   0  0  1  0  0  0  0  0  0  0  0  0
   19.8252  -15.7371  -17.5559 C   0  0  0  0  0  0  0  0  0  0  0  0
   19.4002  -16.6788  -18.6095 C   0  0  0  0  0  0  0  0  0  0  0  0
   20.1092  -16.9119  -19.7681 C   0  0  0  0  0  0  0  0  0  0  0  0
   19.4485  -17.8240  -20.5145 N   0  0  0  0  0  0  0  0  0  0  0  0
   18.3268  -18.1723  -19.8410 C   0  0  0  0  0  0  0  0  0  0  0  0
   18.3133  -17.4692  -18.6893 N   0  0  0  0  0  0  0  0  0  0  0  0
   21.7681  -14.7032  -16.4394 C   0  0  0  0  0  0  0  0  0  0  0  0
   21.4674  -14.7652  -15.2388 O   0  0  0  0  0  0  0  0  0  0  0  0
   27.3683  -17.1565  -15.4776 O   0  0  0  0  0  0  0  0  0  0  0  0
   26.6627  -15.9732  -15.6757 C   0  0  0  0  0  0  0  0  0  0  0  0
   26.2655  -15.1998  -14.6032 C   0  0  0  0  0  0  0  0  0  0  0  0
   25.5604  -14.0156  -14.7786 C   0  0  0  0  0  0  0  0  0  0  0  0
   25.2307  -13.5696  -16.0473 C   0  0  0  0  0  0  0  0  0  0  0  0
   24.4754  -12.3010  -16.2240 C   0  0  0  0  0  0  0  0  0  0  0  0
   22.9830  -12.5252  -16.0833 C   0  0  2  0  0  0  0  0  0  0  0  0
   22.5204  -13.6006  -16.9265 N   0  0  0  0  0  0  0  0  0  0  0  0
   22.2082  -11.2917  -16.2443 C   0  0  0  0  0  0  0  0  0  0  0  0
   21.9015  -10.9179  -17.4078 O   0  0  0  0  0  0  0  0  0  0  0  0
   25.6307  -14.3470  -17.1110 C   0  0  0  0  0  0  0  0  0  0  0  0
   26.3317  -15.5243  -16.9371 C   0  0  0  0  0  0  0  0  0  0  0  0
   21.7708  -10.4746  -15.1735 N   0  0  0  0  0  0  0  0  0  0  0  0
   20.9387   -9.3092  -15.4370 C   0  0  1  0  0  0  0  0  0  0  0  0
   19.5665   -9.4960  -14.8609 C   0  0  0  0  0  0  0  0  0  0  0  0
   18.7266   -8.3234  -15.1550 C   0  0  0  0  0  0  0  0  0  0  0  0
   19.0521   -7.3595  -16.0930 C   0  0  0  0  0  0  0  0  0  0  0  0
   18.0454   -6.4385  -16.0859 N   0  0  0  0  0  0  0  0  0  0  0  0
   17.1308   -6.8027  -15.1888 C   0  0  0  0  0  0  0  0  0  0  0  0
   17.5677   -7.9453  -14.6410 N   0  0  0  0  0  0  0  0  0  0  0  0
   21.5774   -8.1343  -14.8067 C   0  0  0  0  0  0  0  0  0  0  0  0
   22.2150   -8.3091  -13.7171 O   0  0  0  0  0  0  0  0  0  0  0  0
   21.5371   -6.8451  -15.3152 O   0  0  0  0  0  0  0  0  0  0  0  0
  2  1  1  1
  2  3  1  0
  3  4  1  0
  4  5  2  0
  4  8  1  0
  5  6  1  0
  6  7  1  0
  8  7  2  0
  9 18  1  0
  9  2  1  0
 10  9  2  0
 11 12  1  0
 12 22  2  0
 13 14  2  0
 13 12  1  0
 14 15  1  0
 15 16  1  0
 15 21  2  0
 17 16  1  6
 17 18  1  0
 19 17  1  0
 20 19  2  0
 22 21  1  0
 23 19  1  0
 24 31  1  0
 24 23  1  0
 24 25  1  1
 26 27  2  0
 26 25  1  0
 28 27  1  0
 29 30  2  0
 29 28  1  0
 30 26  1  0
 31 33  1  0
 32 31  2  0
M  END
$$$$
