HYH.pdb
     RDKit          3D

 33 35  0  0  1  0  0  0  0  0999 V2000
   23.5501  -12.7945  -20.1804 N   0  0  0  0  0  0  0  0  0  0  0  0
   22.3885  -12.4796  -19.3985 C   0  0  1  0  0  0  0  0  0  0  0  0
   22.3466  -13.2642  -18.0988 C   0  0  0  0  0  0  0  0  0  0  0  0
   22.2218  -14.7119  -18.3560 C   0  0  0  0  0  0  0  0  0  0  0  0
   22.1343  -15.2675  -19.6141 C   0  0  0  0  0  0  0  0  0  0  0  0
   22.0305  -16.6096  -19.4982 N   0  0  0  0  0  0  0  0  0  0  0  0
   22.0513  -16.9116  -18.1786 C   0  0  0  0  0  0  0  0  0  0  0  0
   22.1676  -15.7504  -17.5010 N   0  0  0  0  0  0  0  0  0  0  0  0
   22.3096  -11.0214  -19.1278 C   0  0  0  0  0  0  0  0  0  0  0  0
   23.3510  -10.4093  -18.8510 O   0  0  0  0  0  0  0  0  0  0  0  0
   19.6252   -2.6400  -19.0131 O   0  0  0  0  0  0  0  0  0  0  0  0
   19.7271   -4.0081  -19.2484 C   0  0  0  0  0  0  0  0  0  0  0  0
   20.8298   -4.5338  -19.8917 C   0  0  0  0  0  0  0  0  0  0  0  0
   20.9515   -5.8959  -20.1366 C   0  0  0  0  0  0  0  0  0  0  0  0
   19.9606   -6.7777  -19.7391 C   0  0  0  0  0  0  0  0  0  0  0  0
   20.1004   -8.2338  -20.0065 C   0  0  0  0  0  0  0  0  0  0  0  0
   20.9497   -8.9083  -18.9478 C   0  0  2  0  0  0  0  0  0  0  0  0
   21.0711  -10.3269  -19.1812 N   0  0  0  0  0  0  0  0  0  0  0  0
   20.5193   -8.5826  -17.5853 C   0  0  0  0  0  0  0  0  0  0  0  0
   19.4713   -9.1199  -17.1376 O   0  0  0  0  0  0  0  0  0  0  0  0
   18.8645   -6.2449  -19.0983 C   0  0  0  0  0  0  0  0  0  0  0  0
   18.7432   -4.8907  -18.8547 C   0  0  0  0  0  0  0  0  0  0  0  0
   21.2034   -7.6950  -16.7195 N   0  0  0  0  0  0  0  0  0  0  0  0
   20.6648   -7.4034  -15.3985 C   0  0  1  0  0  0  0  0  0  0  0  0
   21.6997   -7.6417  -14.3393 C   0  0  0  0  0  0  0  0  0  0  0  0
   21.9659   -9.0830  -14.2023 C   0  0  0  0  0  0  0  0  0  0  0  0
   21.3638  -10.0543  -14.9828 C   0  0  0  0  0  0  0  0  0  0  0  0
   21.8533  -11.2591  -14.5699 N   0  0  0  0  0  0  0  0  0  0  0  0
   22.7205  -11.0584  -13.5791 C   0  0  0  0  0  0  0  0  0  0  0  0
   22.7693   -9.7342  -13.3774 N   0  0  0  0  0  0  0  0  0  0  0  0
   20.2550   -5.9833  -15.3705 C   0  0  0  0  0  0  0  0  0  0  0  0
   20.6417   -5.2272  -16.3209 O   0  0  0  0  0  0  0  0  0  0  0  0
   19.4738   -5.4054  -14.3815 O   0  0  0  0  0  0  0  0  0  0  0  0
  2  1  1  1
  2  3  1  0
  3  4  1  0
  4  5  2  0
  4  8  1  0
  5  6  1  0
  6  7  1  0
  8  7  2  0
  9 18  1  0
  9  2  1  0
 10  9  2  0
 11 12  1  0
 12 22  2  0
 13 14  2  0
 13 12  1  0
 14 15  1  0
 15 16  1  0
 15 21  2  0
 17 16  1  6
 17 18  1  0
 19 17  1  0
 20 19  2  0
 22 21  1  0
 23 19  1  0
 24 31  1  0
 24 23  1  0
 24 25  1  1
 26 27  2  0
 26 25  1  0
 28 27  1  0
 29 30  2  0
 29 28  1  0
 30 26  1  0
 31 33  1  0
 32 31  2  0
M  END
$$$$
