HYH.pdb
     RDKit          3D

 33 35  0  0  1  0  0  0  0  0999 V2000
   30.4329  -36.7059   -0.1596 N   0  0  0  0  0  0  0  0  0  0  0  0
   29.1040  -36.2061    0.0503 C   0  0  1  0  0  0  0  0  0  0  0  0
   28.0753  -37.3227    0.0934 C   0  0  0  0  0  0  0  0  0  0  0  0
   27.9089  -37.9431   -1.2351 C   0  0  0  0  0  0  0  0  0  0  0  0
   28.4559  -39.1559   -1.5945 C   0  0  0  0  0  0  0  0  0  0  0  0
   28.1151  -39.4332   -2.8722 N   0  0  0  0  0  0  0  0  0  0  0  0
   27.3568  -38.4081   -3.3276 C   0  0  0  0  0  0  0  0  0  0  0  0
   27.2419  -37.5143   -2.3231 N   0  0  0  0  0  0  0  0  0  0  0  0
   29.0336  -35.3869    1.2872 C   0  0  0  0  0  0  0  0  0  0  0  0
   29.7514  -35.6965    2.2487 O   0  0  0  0  0  0  0  0  0  0  0  0
   26.6650  -29.0007    6.9723 O   0  0  0  0  0  0  0  0  0  0  0  0
   26.9397  -29.7397    5.8252 C   0  0  0  0  0  0  0  0  0  0  0  0
   25.9664  -29.9457    4.8680 C   0  0  0  0  0  0  0  0  0  0  0  0
   26.2194  -30.6800    3.7160 C   0  0  0  0  0  0  0  0  0  0  0  0
   27.4681  -31.2338    3.4897 C   0  0  0  0  0  0  0  0  0  0  0  0
   27.7283  -32.0184    2.2537 C   0  0  0  0  0  0  0  0  0  0  0  0
   28.0322  -33.4679    2.5761 C   0  0  2  0  0  0  0  0  0  0  0  0
   28.1648  -34.2665    1.3818 N   0  0  0  0  0  0  0  0  0  0  0  0
   27.0983  -34.0382    3.5509 C   0  0  0  0  0  0  0  0  0  0  0  0
   25.9162  -34.2780    3.1869 O   0  0  0  0  0  0  0  0  0  0  0  0
   28.4328  -31.0234    4.4495 C   0  0  0  0  0  0  0  0  0  0  0  0
   28.1817  -30.2934    5.5949 C   0  0  0  0  0  0  0  0  0  0  0  0
   27.4294  -34.3454    4.8931 N   0  0  0  0  0  0  0  0  0  0  0  0
   26.4166  -34.8832    5.7903 C   0  0  1  0  0  0  0  0  0  0  0  0
   26.6137  -36.3566    5.9904 C   0  0  0  0  0  0  0  0  0  0  0  0
   25.9942  -37.1080    4.8866 C   0  0  0  0  0  0  0  0  0  0  0  0
   26.6770  -37.5132    3.7531 C   0  0  0  0  0  0  0  0  0  0  0  0
   25.7832  -38.1758    2.9634 N   0  0  0  0  0  0  0  0  0  0  0  0
   24.5963  -38.1882    3.5678 C   0  0  0  0  0  0  0  0  0  0  0  0
   24.7525  -37.5358    4.7282 N   0  0  0  0  0  0  0  0  0  0  0  0
   26.5393  -34.1926    7.0916 C   0  0  0  0  0  0  0  0  0  0  0  0
   27.4377  -33.2968    7.2143 O   0  0  0  0  0  0  0  0  0  0  0  0
   25.7442  -34.4456    8.1988 O   0  0  0  0  0  0  0  0  0  0  0  0
  2  1  1  1
  2  3  1  0
  3  4  1  0
  4  5  2  0
  4  8  1  0
  5  6  1  0
  6  7  1  0
  8  7  2  0
  9 18  1  0
  9  2  1  0
 10  9  2  0
 11 12  1  0
 12 22  2  0
 13 14  2  0
 13 12  1  0
 14 15  1  0
 15 16  1  0
 15 21  2  0
 17 16  1  6
 17 18  1  0
 19 17  1  0
 20 19  2  0
 22 21  1  0
 23 19  1  0
 24 31  1  0
 24 23  1  0
 24 25  1  1
 26 27  2  0
 26 25  1  0
 28 27  1  0
 29 30  2  0
 29 28  1  0
 30 26  1  0
 31 33  1  0
 32 31  2  0
M  END
$$$$
