HYH.pdb
     RDKit          3D

 33 35  0  0  1  0  0  0  0  0999 V2000
   19.2115  -12.4799  -17.6789 N   0  0  0  0  0  0  0  0  0  0  0  0
   20.1406  -11.8658  -16.7736 C   0  0  1  0  0  0  0  0  0  0  0  0
   21.5765  -12.2545  -17.0802 C   0  0  0  0  0  0  0  0  0  0  0  0
   21.7884  -13.7017  -16.8844 C   0  0  0  0  0  0  0  0  0  0  0  0
   21.7737  -14.6287  -17.9041 C   0  0  0  0  0  0  0  0  0  0  0  0
   21.9993  -15.8568  -17.3880 N   0  0  0  0  0  0  0  0  0  0  0  0
   22.1572  -15.7185  -16.0504 C   0  0  0  0  0  0  0  0  0  0  0  0
   22.0264  -14.4067  -15.7625 N   0  0  0  0  0  0  0  0  0  0  0  0
   19.9900  -10.3883  -16.7789 C   0  0  0  0  0  0  0  0  0  0  0  0
   19.9167   -9.8005  -17.8674 O   0  0  0  0  0  0  0  0  0  0  0  0
   14.0316   -9.5027  -18.2736 O   0  0  0  0  0  0  0  0  0  0  0  0
   15.0842   -9.1011  -17.4562 C   0  0  0  0  0  0  0  0  0  0  0  0
   15.5176   -9.9018  -16.4184 C   0  0  0  0  0  0  0  0  0  0  0  0
   16.5661   -9.5202  -15.5907 C   0  0  0  0  0  0  0  0  0  0  0  0
   17.2159   -8.3127  -15.7828 C   0  0  0  0  0  0  0  0  0  0  0  0
   18.3368   -7.9134  -14.8910 C   0  0  0  0  0  0  0  0  0  0  0  0
   19.6792   -8.2282  -15.5202 C   0  0  2  0  0  0  0  0  0  0  0  0
   19.9296   -9.6483  -15.5674 N   0  0  0  0  0  0  0  0  0  0  0  0
   20.7782   -7.4683  -14.9181 C   0  0  0  0  0  0  0  0  0  0  0  0
   21.2496   -7.8572  -13.8162 O   0  0  0  0  0  0  0  0  0  0  0  0
   16.7773   -7.5204  -16.8201 C   0  0  0  0  0  0  0  0  0  0  0  0
   15.7349   -7.8995  -17.6431 C   0  0  0  0  0  0  0  0  0  0  0  0
   21.3600   -6.3109  -15.4903 N   0  0  0  0  0  0  0  0  0  0  0  0
   22.4657   -5.6417  -14.8197 C   0  0  1  0  0  0  0  0  0  0  0  0
   23.2343   -4.7897  -15.7856 C   0  0  0  0  0  0  0  0  0  0  0  0
   23.8335   -5.6266  -16.8380 C   0  0  0  0  0  0  0  0  0  0  0  0
   23.7794   -7.0094  -16.8454 C   0  0  0  0  0  0  0  0  0  0  0  0
   24.4369   -7.4292  -17.9649 N   0  0  0  0  0  0  0  0  0  0  0  0
   24.8833   -6.3653  -18.6303 C   0  0  0  0  0  0  0  0  0  0  0  0
   24.5046   -5.2890  -17.9269 N   0  0  0  0  0  0  0  0  0  0  0  0
   21.9074   -4.7865  -13.7508 C   0  0  0  0  0  0  0  0  0  0  0  0
   20.6405   -4.6706  -13.6739 O   0  0  0  0  0  0  0  0  0  0  0  0
   22.6629   -4.0953  -12.8160 O   0  0  0  0  0  0  0  0  0  0  0  0
  2  1  1  6
  2  3  1  0
  3  4  1  0
  4  5  2  0
  4  8  1  0
  5  6  1  0
  6  7  1  0
  8  7  2  0
  9 18  1  0
  9  2  1  0
 10  9  2  0
 11 12  1  0
 12 22  2  0
 13 14  2  0
 13 12  1  0
 14 15  1  0
 15 16  1  0
 15 21  2  0
 17 16  1  1
 17 18  1  0
 19 17  1  0
 20 19  2  0
 22 21  1  0
 23 19  1  0
 24 31  1  0
 24 23  1  0
 24 25  1  6
 26 27  2  0
 26 25  1  0
 28 27  1  0
 29 30  2  0
 29 28  1  0
 30 26  1  0
 31 33  1  0
 32 31  2  0
M  END
$$$$
