SVE.pdb
     RDKit          3D

 23 22  0  0  1  0  0  0  0  0999 V2000
   27.6113  -34.5694   -4.1025 O   0  0  0  0  0  0  0  0  0  0  0  0
   28.3533  -33.8624   -5.0431 C   0  0  0  0  0  0  0  0  0  0  0  0
   29.2658  -34.8403   -5.7459 C   0  0  2  0  0  0  0  0  0  0  0  0
   28.4382  -35.8557   -6.3638 N   0  0  0  0  0  0  0  0  0  0  0  0
   30.1879  -35.5194   -4.8085 C   0  0  0  0  0  0  0  0  0  0  0  0
   29.8826  -36.6303   -4.3134 O   0  0  0  0  0  0  0  0  0  0  0  0
   34.1480  -35.2489   -5.0276 C   0  0  0  0  0  0  0  0  0  0  0  0
   33.6848  -34.8753   -3.6273 C   0  0  2  0  0  0  0  0  0  0  0  0
   34.6736  -35.4399   -2.6526 C   0  0  0  0  0  0  0  0  0  0  0  0
   32.3163  -35.5354   -3.4469 C   0  0  2  0  0  0  0  0  0  0  0  0
   31.4417  -34.9697   -4.4219 N   0  0  0  0  0  0  0  0  0  0  0  0
   31.8275  -35.3044   -2.0484 C   0  0  0  0  0  0  0  0  0  0  0  0
   31.1051  -34.3125   -1.7805 O   0  0  0  0  0  0  0  0  0  0  0  0
   32.1505  -36.1795   -0.9752 N   0  0  0  0  0  0  0  0  0  0  0  0
   31.6533  -35.9664    0.3854 C   0  0  1  0  0  0  0  0  0  0  0  0
   30.1658  -36.1236    0.3368 C   0  0  0  0  0  0  0  0  0  0  0  0
   29.7197  -37.4927   -0.0802 C   0  0  0  0  0  0  0  0  0  0  0  0
   28.2533  -37.6551    0.0116 C   0  0  0  0  0  0  0  0  0  0  0  0
   27.4243  -37.3056   -0.8572 O   0  0  0  0  0  0  0  0  0  0  0  0
   32.2133  -37.0187    1.2984 C   0  0  0  0  0  0  0  0  0  0  0  0
   33.0131  -38.0249    0.7972 O   0  0  0  0  0  0  0  0  0  0  0  0
   27.7268  -38.2534    1.1714 O   0  0  0  0  0  0  0  0  0  0  0  0
   31.9671  -37.0045    2.5267 O   0  0  0  0  0  0  0  0  0  0  0  0
  2  1  1  0
  3  2  1  0
  3  4  1  1
  5  6  2  0
  5  3  1  0
  8  7  1  6
  8 10  1  0
  9  8  1  0
 10 12  1  0
 10 11  1  6
 11  5  1  0
 12 14  1  0
 13 12  2  0
 14 15  1  0
 15 20  1  0
 15 16  1  6
 16 17  1  0
 18 22  1  0
 18 17  1  0
 19 18  2  0
 20 23  2  0
 20 21  1  0
M  END
$$$$
