SVE.pdb
     RDKit          3D

 23 22  0  0  1  0  0  0  0  0999 V2000
   15.1422  -13.6485  -13.2374 O   0  0  0  0  0  0  0  0  0  0  0  0
   15.8815  -12.6150  -13.8036 C   0  0  0  0  0  0  0  0  0  0  0  0
   16.3988  -13.0919  -15.1408 C   0  0  2  0  0  0  0  0  0  0  0  0
   17.2757  -14.2196  -14.9020 N   0  0  0  0  0  0  0  0  0  0  0  0
   17.1837  -12.0511  -15.8415 C   0  0  0  0  0  0  0  0  0  0  0  0
   18.4358  -12.1133  -15.8685 O   0  0  0  0  0  0  0  0  0  0  0  0
   16.6773  -10.7276  -19.3482 C   0  0  0  0  0  0  0  0  0  0  0  0
   16.5344   -9.5294  -18.4214 C   0  0  2  0  0  0  0  0  0  0  0  0
   17.1662   -8.3503  -19.0974 C   0  0  0  0  0  0  0  0  0  0  0  0
   17.2991   -9.8905  -17.1462 C   0  0  2  0  0  0  0  0  0  0  0  0
   16.5835  -10.9473  -16.5084 N   0  0  0  0  0  0  0  0  0  0  0  0
   17.4159   -8.6791  -16.2705 C   0  0  0  0  0  0  0  0  0  0  0  0
   16.3887   -8.1290  -15.8016 O   0  0  0  0  0  0  0  0  0  0  0  0
   18.6710   -8.1025  -15.9327 N   0  0  0  0  0  0  0  0  0  0  0  0
   18.7887   -6.9600  -15.0247 C   0  0  1  0  0  0  0  0  0  0  0  0
   20.2136   -6.9080  -14.5700 C   0  0  0  0  0  0  0  0  0  0  0  0
   20.5262   -5.7222  -13.7078 C   0  0  0  0  0  0  0  0  0  0  0  0
   21.9056   -5.7640  -13.1782 C   0  0  0  0  0  0  0  0  0  0  0  0
   22.8248   -4.9684  -13.4718 O   0  0  0  0  0  0  0  0  0  0  0  0
   18.4793   -5.6915  -15.7661 C   0  0  0  0  0  0  0  0  0  0  0  0
   17.9016   -4.6231  -15.1118 O   0  0  0  0  0  0  0  0  0  0  0  0
   22.2303   -6.7819  -12.2623 O   0  0  0  0  0  0  0  0  0  0  0  0
   18.7380   -5.5782  -16.9866 O   0  0  0  0  0  0  0  0  0  0  0  0
  2  1  1  0
  3  2  1  0
  3  4  1  1
  5  6  2  0
  5  3  1  0
  8  7  1  6
  8 10  1  0
  9  8  1  0
 10 12  1  0
 10 11  1  1
 11  5  1  0
 12 14  1  0
 13 12  2  0
 14 15  1  0
 15 20  1  0
 15 16  1  6
 16 17  1  0
 18 22  1  0
 18 17  1  0
 19 18  2  0
 20 23  2  0
 20 21  1  0
M  END
$$$$
