SVE.pdb
     RDKit          3D

 23 22  0  0  1  0  0  0  0  0999 V2000
   19.7200  -13.6022  -18.5619 O   0  0  0  0  0  0  0  0  0  0  0  0
   20.2187  -12.7108  -17.6175 C   0  0  0  0  0  0  0  0  0  0  0  0
   21.5626  -13.2252  -17.1569 C   0  0  2  0  0  0  0  0  0  0  0  0
   21.3415  -14.4576  -16.4290 N   0  0  0  0  0  0  0  0  0  0  0  0
   22.2422  -12.2786  -16.2444 C   0  0  0  0  0  0  0  0  0  0  0  0
   21.8231  -12.1164  -15.0737 O   0  0  0  0  0  0  0  0  0  0  0  0
   25.9441  -12.0257  -15.5277 C   0  0  0  0  0  0  0  0  0  0  0  0
   25.5319  -10.6637  -16.0664 C   0  0  2  0  0  0  0  0  0  0  0  0
   26.2820   -9.6205  -15.2947 C   0  0  0  0  0  0  0  0  0  0  0  0
   24.0286  -10.5463  -15.8066 C   0  0  2  0  0  0  0  0  0  0  0  0
   23.3800  -11.5160  -16.6280 N   0  0  0  0  0  0  0  0  0  0  0  0
   23.5732   -9.1511  -16.1137 C   0  0  0  0  0  0  0  0  0  0  0  0
   23.4057   -8.7815  -17.3023 O   0  0  0  0  0  0  0  0  0  0  0  0
   23.3129   -8.1940  -15.0947 N   0  0  0  0  0  0  0  0  0  0  0  0
   22.7561   -6.8717  -15.3866 C   0  0  1  0  0  0  0  0  0  0  0  0
   21.3833   -7.0884  -15.9418 C   0  0  0  0  0  0  0  0  0  0  0  0
   20.6737   -5.8180  -16.3021 C   0  0  0  0  0  0  0  0  0  0  0  0
   19.2956   -6.0628  -16.7774 C   0  0  0  0  0  0  0  0  0  0  0  0
   18.7453   -7.1816  -16.8764 O   0  0  0  0  0  0  0  0  0  0  0  0
   22.6357   -6.0824  -14.1149 C   0  0  0  0  0  0  0  0  0  0  0  0
   22.6943   -4.7043  -14.1398 O   0  0  0  0  0  0  0  0  0  0  0  0
   18.5206   -4.9508  -17.1558 O   0  0  0  0  0  0  0  0  0  0  0  0
   22.4806   -6.6559  -13.0119 O   0  0  0  0  0  0  0  0  0  0  0  0
  2  1  1  0
  3  2  1  0
  3  4  1  1
  5  6  2  0
  5  3  1  0
  8  7  1  1
  8 10  1  0
  9  8  1  0
 10 12  1  0
 10 11  1  6
 11  5  1  0
 12 14  1  0
 13 12  2  0
 14 15  1  0
 15 20  1  0
 15 16  1  1
 16 17  1  0
 18 22  1  0
 18 17  1  0
 19 18  2  0
 20 23  2  0
 20 21  1  0
M  END
$$$$
