SVE.pdb
     RDKit          3D

 23 22  0  0  1  0  0  0  0  0999 V2000
   17.4219  -11.1722  -13.8898 O   0  0  0  0  0  0  0  0  0  0  0  0
   18.0724  -10.0040  -14.2738 C   0  0  0  0  0  0  0  0  0  0  0  0
   17.6307   -9.6662  -15.6787 C   0  0  2  0  0  0  0  0  0  0  0  0
   18.1722  -10.6718  -16.5692 N   0  0  0  0  0  0  0  0  0  0  0  0
   18.1382   -8.3493  -16.1242 C   0  0  0  0  0  0  0  0  0  0  0  0
   19.1857   -8.2734  -16.8095 O   0  0  0  0  0  0  0  0  0  0  0  0
   16.0662   -5.6577  -17.8160 C   0  0  0  0  0  0  0  0  0  0  0  0
   16.6667   -5.0209  -16.5714 C   0  0  2  0  0  0  0  0  0  0  0  0
   17.0309   -3.6073  -16.9113 C   0  0  0  0  0  0  0  0  0  0  0  0
   17.9207   -5.8350  -16.2458 C   0  0  2  0  0  0  0  0  0  0  0  0
   17.4881   -7.1234  -15.8116 N   0  0  0  0  0  0  0  0  0  0  0  0
   18.7219   -5.1251  -15.1959 C   0  0  0  0  0  0  0  0  0  0  0  0
   18.2548   -4.9560  -14.0423 O   0  0  0  0  0  0  0  0  0  0  0  0
   20.0259   -4.6171  -15.4478 N   0  0  0  0  0  0  0  0  0  0  0  0
   20.8023   -3.9122  -14.4260 C   0  0  1  0  0  0  0  0  0  0  0  0
   22.0548   -4.7015  -14.2068 C   0  0  0  0  0  0  0  0  0  0  0  0
   21.9086   -5.7890  -13.1854 C   0  0  0  0  0  0  0  0  0  0  0  0
   22.0024   -7.1364  -13.7859 C   0  0  0  0  0  0  0  0  0  0  0  0
   22.6407   -7.4320  -14.8200 O   0  0  0  0  0  0  0  0  0  0  0  0
   21.1808   -2.5494  -14.9300 C   0  0  0  0  0  0  0  0  0  0  0  0
   21.6982   -1.6046  -14.0680 O   0  0  0  0  0  0  0  0  0  0  0  0
   21.3197   -8.1908  -13.1513 O   0  0  0  0  0  0  0  0  0  0  0  0
   21.0355   -2.2444  -16.1363 O   0  0  0  0  0  0  0  0  0  0  0  0
  2  1  1  0
  3  2  1  0
  3  4  1  6
  5  6  2  0
  5  3  1  0
  8  7  1  6
  8 10  1  0
  9  8  1  0
 10 12  1  0
 10 11  1  1
 11  5  1  0
 12 14  1  0
 13 12  2  0
 14 15  1  0
 15 20  1  0
 15 16  1  6
 16 17  1  0
 18 22  1  0
 18 17  1  0
 19 18  2  0
 20 23  2  0
 20 21  1  0
M  END
$$$$
