SVE.pdb
     RDKit          3D

 23 22  0  0  1  0  0  0  0  0999 V2000
   26.6996  -12.0070  -15.7194 O   0  0  0  0  0  0  0  0  0  0  0  0
   25.7954  -10.9876  -15.9995 C   0  0  0  0  0  0  0  0  0  0  0  0
   24.4824  -11.6251  -16.3902 C   0  0  2  0  0  0  0  0  0  0  0  0
   24.6588  -12.2488  -17.6854 N   0  0  0  0  0  0  0  0  0  0  0  0
   23.3919  -10.6321  -16.5129 C   0  0  0  0  0  0  0  0  0  0  0  0
   23.2317   -9.9966  -17.5819 O   0  0  0  0  0  0  0  0  0  0  0  0
   19.7322  -11.0810  -16.0554 C   0  0  0  0  0  0  0  0  0  0  0  0
   20.1636  -10.0901  -14.9845 C   0  0  2  0  0  0  0  0  0  0  0  0
   19.0543   -9.0983  -14.8055 C   0  0  0  0  0  0  0  0  0  0  0  0
   21.4168   -9.4014  -15.5291 C   0  0  2  0  0  0  0  0  0  0  0  0
   22.4842  -10.3453  -15.4559 N   0  0  0  0  0  0  0  0  0  0  0  0
   21.6996   -8.1662  -14.7276 C   0  0  0  0  0  0  0  0  0  0  0  0
   22.0704   -8.2530  -13.5306 O   0  0  0  0  0  0  0  0  0  0  0  0
   21.5652   -6.8591  -15.2710 N   0  0  0  0  0  0  0  0  0  0  0  0
   21.8805   -5.6547  -14.5005 C   0  0  1  0  0  0  0  0  0  0  0  0
   22.8893   -4.8817  -15.2908 C   0  0  0  0  0  0  0  0  0  0  0  0
   22.3803   -4.4150  -16.6214 C   0  0  0  0  0  0  0  0  0  0  0  0
   23.3714   -3.5862  -17.3397 C   0  0  0  0  0  0  0  0  0  0  0  0
   23.6155   -2.3805  -17.1141 O   0  0  0  0  0  0  0  0  0  0  0  0
   20.6462   -4.8127  -14.3516 C   0  0  0  0  0  0  0  0  0  0  0  0
   19.5213   -5.0830  -15.1032 O   0  0  0  0  0  0  0  0  0  0  0  0
   24.1142   -4.1909  -18.3707 O   0  0  0  0  0  0  0  0  0  0  0  0
   20.6130   -3.8534  -13.5466 O   0  0  0  0  0  0  0  0  0  0  0  0
  2  1  1  0
  3  2  1  0
  3  4  1  6
  5  6  2  0
  5  3  1  0
  8  7  1  6
  8 10  1  0
  9  8  1  0
 10 12  1  0
 10 11  1  1
 11  5  1  0
 12 14  1  0
 13 12  2  0
 14 15  1  0
 15 20  1  0
 15 16  1  6
 16 17  1  0
 18 22  1  0
 18 17  1  0
 19 18  2  0
 20 23  2  0
 20 21  1  0
M  END
$$$$
