SVE.pdb
     RDKit          3D

 23 22  0  0  1  0  0  0  0  0999 V2000
   22.4384  -21.3788  -10.5071 O   0  0  0  0  0  0  0  0  0  0  0  0
   23.2199  -20.7676   -9.5319 C   0  0  0  0  0  0  0  0  0  0  0  0
   24.6703  -20.9756   -9.9007 C   0  0  2  0  0  0  0  0  0  0  0  0
   25.4835  -20.4085   -8.8448 N   0  0  0  0  0  0  0  0  0  0  0  0
   25.0310  -20.2929  -11.1633 C   0  0  0  0  0  0  0  0  0  0  0  0
   25.1463  -19.0447  -11.1975 O   0  0  0  0  0  0  0  0  0  0  0  0
   27.9632  -20.7642  -13.0231 C   0  0  0  0  0  0  0  0  0  0  0  0
   26.9191  -21.0553  -14.0909 C   0  0  2  0  0  0  0  0  0  0  0  0
   27.3935  -20.4419  -15.3736 C   0  0  0  0  0  0  0  0  0  0  0  0
   25.6318  -20.3783  -13.6160 C   0  0  2  0  0  0  0  0  0  0  0  0
   25.2623  -20.9904  -12.3812 N   0  0  0  0  0  0  0  0  0  0  0  0
   24.5685  -20.5310  -14.6620 C   0  0  0  0  0  0  0  0  0  0  0  0
   24.0282  -21.6466  -14.8649 O   0  0  0  0  0  0  0  0  0  0  0  0
   24.1262  -19.4418  -15.4621 N   0  0  0  0  0  0  0  0  0  0  0  0
   23.0022  -19.5600  -16.3929 C   0  0  1  0  0  0  0  0  0  0  0  0
   21.8797  -18.7471  -15.8282 C   0  0  0  0  0  0  0  0  0  0  0  0
   20.5442  -19.4221  -15.9190 C   0  0  0  0  0  0  0  0  0  0  0  0
   20.0645  -19.8919  -14.6021 C   0  0  0  0  0  0  0  0  0  0  0  0
   20.5522  -19.5798  -13.4936 O   0  0  0  0  0  0  0  0  0  0  0  0
   23.3859  -18.9812  -17.7242 C   0  0  0  0  0  0  0  0  0  0  0  0
   22.7607  -19.4077  -18.8778 O   0  0  0  0  0  0  0  0  0  0  0  0
   18.9634  -20.7678  -14.5750 O   0  0  0  0  0  0  0  0  0  0  0  0
   24.2761  -18.1044  -17.8140 O   0  0  0  0  0  0  0  0  0  0  0  0
  2  1  1  0
  3  2  1  0
  3  4  1  1
  5  6  2  0
  5  3  1  0
  8  7  1  1
  8 10  1  0
  9  8  1  0
 10 12  1  0
 10 11  1  1
 11  5  1  0
 12 14  1  0
 13 12  2  0
 14 15  1  0
 15 20  1  0
 15 16  1  1
 16 17  1  0
 18 22  1  0
 18 17  1  0
 19 18  2  0
 20 23  2  0
 20 21  1  0
M  END
$$$$
