SVE.pdb
     RDKit          3D

 23 22  0  0  1  0  0  0  0  0999 V2000
   23.7972  -22.1871  -16.8017 O   0  0  0  0  0  0  0  0  0  0  0  0
   23.5481  -21.9424  -15.4551 C   0  0  0  0  0  0  0  0  0  0  0  0
   22.7598  -20.6574  -15.3540 C   0  0  2  0  0  0  0  0  0  0  0  0
   23.6499  -19.5626  -15.6809 N   0  0  0  0  0  0  0  0  0  0  0  0
   22.2413  -20.4241  -13.9876 C   0  0  0  0  0  0  0  0  0  0  0  0
   22.6926  -19.4840  -13.2912 O   0  0  0  0  0  0  0  0  0  0  0  0
   18.7316  -19.9556  -13.3872 C   0  0  0  0  0  0  0  0  0  0  0  0
   19.7899  -19.6540  -12.3364 C   0  0  2  0  0  0  0  0  0  0  0  0
   20.6719  -18.5680  -12.8741 C   0  0  0  0  0  0  0  0  0  0  0  0
   20.5834  -20.9496  -12.1548 C   0  0  2  0  0  0  0  0  0  0  0  0
   21.2280  -21.2287  -13.3967 N   0  0  0  0  0  0  0  0  0  0  0  0
   19.6564  -22.0524  -11.7396 C   0  0  0  0  0  0  0  0  0  0  0  0
   19.0836  -22.7635  -12.6021 O   0  0  0  0  0  0  0  0  0  0  0  0
   19.3838  -22.3440  -10.3748 N   0  0  0  0  0  0  0  0  0  0  0  0
   18.6340  -23.5321   -9.9627 C   0  0  1  0  0  0  0  0  0  0  0  0
   18.8348  -23.6859   -8.4877 C   0  0  0  0  0  0  0  0  0  0  0  0
   18.1995  -24.9196   -7.9203 C   0  0  0  0  0  0  0  0  0  0  0  0
   18.3719  -25.0139   -6.4552 C   0  0  0  0  0  0  0  0  0  0  0  0
   18.9304  -24.1622   -5.7294 O   0  0  0  0  0  0  0  0  0  0  0  0
   17.1705  -23.3218  -10.2242 C   0  0  0  0  0  0  0  0  0  0  0  0
   16.3702  -24.3784  -10.6071 O   0  0  0  0  0  0  0  0  0  0  0  0
   17.8693  -26.1556   -5.8038 O   0  0  0  0  0  0  0  0  0  0  0  0
   16.6493  -22.1892  -10.1007 O   0  0  0  0  0  0  0  0  0  0  0  0
  2  1  1  0
  3  2  1  0
  3  4  1  1
  5  6  2  0
  5  3  1  0
  8  7  1  6
  8 10  1  0
  9  8  1  0
 10 12  1  0
 10 11  1  6
 11  5  1  0
 12 14  1  0
 13 12  2  0
 14 15  1  0
 15 20  1  0
 15 16  1  1
 16 17  1  0
 18 22  1  0
 18 17  1  0
 19 18  2  0
 20 23  2  0
 20 21  1  0
M  END
$$$$
