SVE.pdb
     RDKit          3D

 23 22  0  0  1  0  0  0  0  0999 V2000
   17.3980  -11.0775  -19.3986 O   0  0  0  0  0  0  0  0  0  0  0  0
   17.8051  -10.4495  -18.2259 C   0  0  0  0  0  0  0  0  0  0  0  0
   18.4264  -11.4956  -17.3299 C   0  0  2  0  0  0  0  0  0  0  0  0
   17.3541  -12.1933  -16.6509 N   0  0  0  0  0  0  0  0  0  0  0  0
   19.3020  -10.8996  -16.2963 C   0  0  0  0  0  0  0  0  0  0  0  0
   18.8178  -10.4970  -15.2119 O   0  0  0  0  0  0  0  0  0  0  0  0
   22.4945  -12.3544  -14.9354 C   0  0  0  0  0  0  0  0  0  0  0  0
   22.8729  -10.9953  -15.5052 C   0  0  2  0  0  0  0  0  0  0  0  0
   23.8923  -10.3842  -14.5920 C   0  0  0  0  0  0  0  0  0  0  0  0
   21.5868  -10.1664  -15.5052 C   0  0  2  0  0  0  0  0  0  0  0  0
   20.7066  -10.7508  -16.4641 N   0  0  0  0  0  0  0  0  0  0  0  0
   21.9091   -8.7389  -15.8313 C   0  0  0  0  0  0  0  0  0  0  0  0
   22.3612   -8.4287  -16.9614 O   0  0  0  0  0  0  0  0  0  0  0  0
   21.7231   -7.6840  -14.8962 N   0  0  0  0  0  0  0  0  0  0  0  0
   22.0058   -6.2859  -15.2266 C   0  0  1  0  0  0  0  0  0  0  0  0
   20.8319   -5.7738  -16.0010 C   0  0  0  0  0  0  0  0  0  0  0  0
   19.5530   -5.7671  -15.2189 C   0  0  0  0  0  0  0  0  0  0  0  0
   18.4409   -5.1486  -15.9711 C   0  0  0  0  0  0  0  0  0  0  0  0
   17.2250   -5.2613  -15.7009 O   0  0  0  0  0  0  0  0  0  0  0  0
   22.1292   -5.4833  -13.9636 C   0  0  0  0  0  0  0  0  0  0  0  0
   22.6390   -4.2018  -13.9971 O   0  0  0  0  0  0  0  0  0  0  0  0
   18.7605   -4.3607  -17.0926 O   0  0  0  0  0  0  0  0  0  0  0  0
   21.7738   -5.9583  -12.8601 O   0  0  0  0  0  0  0  0  0  0  0  0
  2  1  1  0
  3  2  1  0
  3  4  1  1
  5  6  2  0
  5  3  1  0
  8  7  1  1
  8 10  1  0
  9  8  1  0
 10 12  1  0
 10 11  1  6
 11  5  1  0
 12 14  1  0
 13 12  2  0
 14 15  1  0
 15 20  1  0
 15 16  1  6
 16 17  1  0
 18 22  1  0
 18 17  1  0
 19 18  2  0
 20 23  2  0
 20 21  1  0
M  END
$$$$
