SVE.pdb
     RDKit          3D

 23 22  0  0  1  0  0  0  0  0999 V2000
   18.2407  -16.5009  -17.9182 O   0  0  0  0  0  0  0  0  0  0  0  0
   18.7103  -15.5240  -17.0463 C   0  0  0  0  0  0  0  0  0  0  0  0
   20.1232  -15.8898  -16.6555 C   0  0  2  0  0  0  0  0  0  0  0  0
   20.0613  -17.0665  -15.8134 N   0  0  0  0  0  0  0  0  0  0  0  0
   20.7864  -14.8164  -15.8819 C   0  0  0  0  0  0  0  0  0  0  0  0
   20.3466  -14.4835  -14.7557 O   0  0  0  0  0  0  0  0  0  0  0  0
   24.5588  -14.4537  -15.4136 C   0  0  0  0  0  0  0  0  0  0  0  0
   24.0718  -13.1359  -15.9977 C   0  0  2  0  0  0  0  0  0  0  0  0
   24.8260  -12.0301  -15.3232 C   0  0  0  0  0  0  0  0  0  0  0  0
   22.5814  -13.0521  -15.6614 C   0  0  2  0  0  0  0  0  0  0  0  0
   21.9307  -14.1160  -16.3544 N   0  0  0  0  0  0  0  0  0  0  0  0
   22.0506  -11.7087  -16.0634 C   0  0  0  0  0  0  0  0  0  0  0  0
   21.5280  -11.5408  -17.1932 O   0  0  0  0  0  0  0  0  0  0  0  0
   22.1104  -10.5783  -15.2029 N   0  0  0  0  0  0  0  0  0  0  0  0
   21.4721   -9.3041  -15.5387 C   0  0  1  0  0  0  0  0  0  0  0  0
   20.0013   -9.5636  -15.6335 C   0  0  0  0  0  0  0  0  0  0  0  0
   19.1909   -8.3333  -15.9112 C   0  0  0  0  0  0  0  0  0  0  0  0
   17.7437   -8.6235  -15.9918 C   0  0  0  0  0  0  0  0  0  0  0  0
   17.2162   -9.7495  -15.8572 O   0  0  0  0  0  0  0  0  0  0  0  0
   21.7103   -8.3136  -14.4356 C   0  0  0  0  0  0  0  0  0  0  0  0
   21.5696   -6.9611  -14.6686 O   0  0  0  0  0  0  0  0  0  0  0  0
   16.8683   -7.5503  -16.2415 O   0  0  0  0  0  0  0  0  0  0  0  0
   22.0397   -8.6930  -13.2879 O   0  0  0  0  0  0  0  0  0  0  0  0
  2  1  1  0
  3  2  1  0
  3  4  1  1
  5  6  2  0
  5  3  1  0
  8  7  1  1
  8 10  1  0
  9  8  1  0
 10 12  1  0
 10 11  1  6
 11  5  1  0
 12 14  1  0
 13 12  2  0
 14 15  1  0
 15 20  1  0
 15 16  1  1
 16 17  1  0
 18 22  1  0
 18 17  1  0
 19 18  2  0
 20 23  2  0
 20 21  1  0
M  END
$$$$
