ANF.pdb
     RDKit          3D

 25 25  0  0  1  0  0  0  0  0999 V2000
   25.6072  -22.6109  -16.7134 C   0  0  0  0  0  0  0  0  0  0  0  0
   26.3148  -22.7444  -15.3791 C   0  0  2  0  0  0  0  0  0  0  0  0
   25.7445  -23.8869  -14.6955 N   0  0  0  0  0  0  0  0  0  0  0  0
   26.2056  -21.5086  -14.5696 C   0  0  0  0  0  0  0  0  0  0  0  0
   26.0757  -20.3698  -15.0539 O   0  0  0  0  0  0  0  0  0  0  0  0
   22.3957  -19.2658  -12.0001 N   0  0  0  0  0  0  0  0  0  0  0  0
   23.1128  -20.4469  -11.6423 C   0  0  0  0  0  0  0  0  0  0  0  0
   22.9691  -20.8497  -10.4670 O   0  0  0  0  0  0  0  0  0  0  0  0
   23.9839  -21.1891  -12.5579 C   0  0  0  0  0  0  0  0  0  0  0  0
   25.4264  -20.8359  -12.2700 C   0  0  2  0  0  0  0  0  0  0  0  0
   26.2505  -21.6177  -13.1642 N   0  0  0  0  0  0  0  0  0  0  0  0
   25.7537  -21.0320  -10.8569 C   0  0  0  0  0  0  0  0  0  0  0  0
   25.6085  -22.1989  -10.3799 O   0  0  0  0  0  0  0  0  0  0  0  0
   26.2181  -20.0406   -9.9692 N   0  0  0  0  0  0  0  0  0  0  0  0
   26.7160  -20.3257   -8.6120 C   0  0  1  0  0  0  0  0  0  0  0  0
   27.5131  -19.1876   -8.0810 C   0  0  0  0  0  0  0  0  0  0  0  0
   27.9566  -19.4849   -6.7066 C   0  0  0  0  0  0  0  0  0  0  0  0
   28.9069  -20.4887   -6.4739 C   0  0  0  0  0  0  0  0  0  0  0  0
   29.3768  -20.7994   -5.2322 C   0  0  0  0  0  0  0  0  0  0  0  0
   28.9148  -20.1101   -4.1265 C   0  0  0  0  0  0  0  0  0  0  0  0
   27.9905  -19.1266   -4.3102 C   0  0  0  0  0  0  0  0  0  0  0  0
   27.5220  -18.8226   -5.5819 C   0  0  0  0  0  0  0  0  0  0  0  0
   25.5524  -20.6586   -7.7863 C   0  0  0  0  0  0  0  0  0  0  0  0
   25.6215  -21.5957   -6.7810 O   0  0  0  0  0  0  0  0  0  0  0  0
   24.4575  -20.0866   -7.9879 O   0  0  0  0  0  0  0  0  0  0  0  0
  2  1  1  6
  2  3  1  0
  4  2  1  0
  4  5  2  0
  7  9  1  0
  7  6  1  0
  8  7  2  0
 10  9  1  1
 10 11  1  0
 11  4  1  0
 12 10  1  0
 13 12  2  0
 14 12  1  0
 15 14  1  0
 15 16  1  1
 16 17  1  0
 17 22  2  0
 18 17  1  0
 18 19  2  0
 19 20  1  0
 20 21  2  0
 22 21  1  0
 23 24  1  0
 23 15  1  0
 25 23  2  0
M  END
$$$$
