ANF.pdb
     RDKit          3D

 25 25  0  0  1  0  0  0  0  0999 V2000
   27.4871  -16.2072  -14.7240 C   0  0  0  0  0  0  0  0  0  0  0  0
   27.4378  -17.7123  -14.8999 C   0  0  2  0  0  0  0  0  0  0  0  0
   27.0082  -17.9789  -16.2571 N   0  0  0  0  0  0  0  0  0  0  0  0
   26.5486  -18.3561  -13.9053 C   0  0  0  0  0  0  0  0  0  0  0  0
   25.5143  -17.8310  -13.4550 O   0  0  0  0  0  0  0  0  0  0  0  0
   24.7001  -23.9245  -12.4318 N   0  0  0  0  0  0  0  0  0  0  0  0
   24.8127  -22.5018  -12.4155 C   0  0  0  0  0  0  0  0  0  0  0  0
   24.0227  -21.8904  -11.6628 O   0  0  0  0  0  0  0  0  0  0  0  0
   25.7802  -21.7442  -13.2142 C   0  0  0  0  0  0  0  0  0  0  0  0
   26.0497  -20.4157  -12.5426 C   0  0  2  0  0  0  0  0  0  0  0  0
   26.8851  -19.6418  -13.4332 N   0  0  0  0  0  0  0  0  0  0  0  0
   26.6307  -20.5971  -11.2114 C   0  0  0  0  0  0  0  0  0  0  0  0
   27.7043  -21.2685  -11.1289 O   0  0  0  0  0  0  0  0  0  0  0  0
   26.1071  -20.0930  -10.0038 N   0  0  0  0  0  0  0  0  0  0  0  0
   26.7020  -20.3550   -8.6814 C   0  0  1  0  0  0  0  0  0  0  0  0
   27.2800  -19.1156   -8.0962 C   0  0  0  0  0  0  0  0  0  0  0  0
   27.9394  -19.4272   -6.8147 C   0  0  0  0  0  0  0  0  0  0  0  0
   27.4345  -18.9039   -5.6164 C   0  0  0  0  0  0  0  0  0  0  0  0
   27.9814  -19.1694   -4.3959 C   0  0  0  0  0  0  0  0  0  0  0  0
   29.0886  -19.9916   -4.2994 C   0  0  0  0  0  0  0  0  0  0  0  0
   29.6099  -20.5206   -5.4413 C   0  0  0  0  0  0  0  0  0  0  0  0
   29.0408  -20.2398   -6.6768 C   0  0  0  0  0  0  0  0  0  0  0  0
   25.6583  -20.9609   -7.8507 C   0  0  0  0  0  0  0  0  0  0  0  0
   25.9614  -21.8128   -6.8134 O   0  0  0  0  0  0  0  0  0  0  0  0
   24.4534  -20.7098   -8.0775 O   0  0  0  0  0  0  0  0  0  0  0  0
  2  1  1  1
  2  3  1  0
  4  2  1  0
  4  5  2  0
  7  9  1  0
  7  6  1  0
  8  7  2  0
 10  9  1  6
 10 11  1  0
 11  4  1  0
 12 10  1  0
 13 12  2  0
 14 12  1  0
 15 14  1  0
 15 16  1  1
 16 17  1  0
 17 22  2  0
 18 17  1  0
 18 19  2  0
 19 20  1  0
 20 21  2  0
 22 21  1  0
 23 24  1  0
 23 15  1  0
 25 23  2  0
M  END
$$$$
