ANF.pdb
     RDKit          3D

 25 25  0  0  1  0  0  0  0  0999 V2000
  -56.0970 1406.4272  -20.0233 C   0  0  0  0  0  0  0  0  0  0  0  0
  -57.3458 1406.5020  -19.1670 C   0  0  2  0  0  0  0  0  0  0  0  0
  -57.4068 1405.2897  -18.3779 N   0  0  0  0  0  0  0  0  0  0  0  0
  -58.5666 1406.6877  -19.9854 C   0  0  0  0  0  0  0  0  0  0  0  0
  -58.9916 1405.8480  -20.7996 O   0  0  0  0  0  0  0  0  0  0  0  0
  -62.5831 1410.0294  -22.5459 N   0  0  0  0  0  0  0  0  0  0  0  0
  -61.3924 1409.8915  -21.7712 C   0  0  0  0  0  0  0  0  0  0  0  0
  -61.0173 1410.9062  -21.1434 O   0  0  0  0  0  0  0  0  0  0  0  0
  -60.6102 1408.6553  -21.6780 C   0  0  0  0  0  0  0  0  0  0  0  0
  -59.3676 1408.9127  -20.8545 C   0  0  2  0  0  0  0  0  0  0  0  0
  -59.2991 1407.8842  -19.8410 N   0  0  0  0  0  0  0  0  0  0  0  0
  -59.3598 1410.2701  -20.3069 C   0  0  0  0  0  0  0  0  0  0  0  0
  -59.2099 1411.2290  -21.1242 O   0  0  0  0  0  0  0  0  0  0  0  0
  -59.5042 1410.6155  -18.9481 N   0  0  0  0  0  0  0  0  0  0  0  0
  -60.7336 1411.1931  -18.3767 C   0  0  1  0  0  0  0  0  0  0  0  0
  -61.2280 1412.3282  -19.2004 C   0  0  0  0  0  0  0  0  0  0  0  0
  -61.3260 1413.5439  -18.3709 C   0  0  0  0  0  0  0  0  0  0  0  0
  -62.3908 1413.7004  -17.4727 C   0  0  0  0  0  0  0  0  0  0  0  0
  -62.5300 1414.7869  -16.6609 C   0  0  0  0  0  0  0  0  0  0  0  0
  -61.5927 1415.8024  -16.6995 C   0  0  0  0  0  0  0  0  0  0  0  0
  -60.5421 1415.6877  -17.5592 C   0  0  0  0  0  0  0  0  0  0  0  0
  -60.4153 1414.5746  -18.3797 C   0  0  0  0  0  0  0  0  0  0  0  0
  -61.7026 1410.1019  -18.2454 C   0  0  0  0  0  0  0  0  0  0  0  0
  -62.0690 1409.3252  -19.3204 O   0  0  0  0  0  0  0  0  0  0  0  0
  -62.2226 1409.8568  -17.1337 O   0  0  0  0  0  0  0  0  0  0  0  0
  2  1  1  6
  2  3  1  0
  4  2  1  0
  4  5  2  0
  7  9  1  0
  7  6  1  0
  8  7  2  0
 10  9  1  1
 10 11  1  0
 11  4  1  0
 12 10  1  0
 13 12  2  0
 14 12  1  0
 15 14  1  0
 15 16  1  6
 16 17  1  0
 17 22  2  0
 18 17  1  0
 18 19  2  0
 19 20  1  0
 20 21  2  0
 22 21  1  0
 23 24  1  0
 23 15  1  0
 25 23  2  0
M  END
$$$$
