ANF.pdb
     RDKit          3D

 25 25  0  0  1  0  0  0  0  0999 V2000
   29.0100  -24.3422  -16.9444 C   0  0  0  0  0  0  0  0  0  0  0  0
   28.3779  -22.9894  -17.2075 C   0  0  2  0  0  0  0  0  0  0  0  0
   29.0385  -22.4167  -18.3622 N   0  0  0  0  0  0  0  0  0  0  0  0
   28.4653  -22.0995  -16.0265 C   0  0  0  0  0  0  0  0  0  0  0  0
   29.5346  -21.7722  -15.4807 O   0  0  0  0  0  0  0  0  0  0  0  0
   27.6938  -17.4435  -13.4585 N   0  0  0  0  0  0  0  0  0  0  0  0
   26.6626  -18.3004  -13.9478 C   0  0  0  0  0  0  0  0  0  0  0  0
   25.5393  -18.1809  -13.4111 O   0  0  0  0  0  0  0  0  0  0  0  0
   26.8501  -19.2849  -15.0173 C   0  0  0  0  0  0  0  0  0  0  0  0
   27.2282  -20.6169  -14.4081 C   0  0  2  0  0  0  0  0  0  0  0  0
   27.2709  -21.5866  -15.4795 N   0  0  0  0  0  0  0  0  0  0  0  0
   26.3171  -20.9877  -13.3243 C   0  0  0  0  0  0  0  0  0  0  0  0
   25.1417  -21.3427  -13.6447 O   0  0  0  0  0  0  0  0  0  0  0  0
   26.6235  -20.9879  -11.9485 N   0  0  0  0  0  0  0  0  0  0  0  0
   25.7018  -21.4702  -10.9049 C   0  0  1  0  0  0  0  0  0  0  0  0
   26.4460  -22.0670   -9.7636 C   0  0  0  0  0  0  0  0  0  0  0  0
   27.1787  -21.0133   -9.0376 C   0  0  0  0  0  0  0  0  0  0  0  0
   26.4798  -20.0581   -8.2866 C   0  0  0  0  0  0  0  0  0  0  0  0
   27.0950  -19.0715   -7.5742 C   0  0  0  0  0  0  0  0  0  0  0  0
   28.4744  -18.9801   -7.5703 C   0  0  0  0  0  0  0  0  0  0  0  0
   29.1906  -19.8899   -8.2879 C   0  0  0  0  0  0  0  0  0  0  0  0
   28.5483  -20.8886   -9.0084 C   0  0  0  0  0  0  0  0  0  0  0  0
   24.8541  -20.3387  -10.5210 C   0  0  0  0  0  0  0  0  0  0  0  0
   23.6183  -20.5220   -9.9441 O   0  0  0  0  0  0  0  0  0  0  0  0
   25.2475  -19.1668  -10.7174 O   0  0  0  0  0  0  0  0  0  0  0  0
  2  1  1  1
  2  3  1  0
  4  2  1  0
  4  5  2  0
  7  9  1  0
  7  6  1  0
  8  7  2  0
 10  9  1  6
 10 11  1  0
 11  4  1  0
 12 10  1  0
 13 12  2  0
 14 12  1  0
 15 14  1  0
 15 16  1  1
 16 17  1  0
 17 22  2  0
 18 17  1  0
 18 19  2  0
 19 20  1  0
 20 21  2  0
 22 21  1  0
 23 24  1  0
 23 15  1  0
 25 23  2  0
M  END
$$$$
