ANF.pdb
     RDKit          3D

 25 25  0  0  1  0  0  0  0  0999 V2000
   27.8685  -18.4655  -16.3398 C   0  0  0  0  0  0  0  0  0  0  0  0
   27.9168  -19.3957  -15.1435 C   0  0  2  0  0  0  0  0  0  0  0  0
   27.6763  -20.7398  -15.6263 N   0  0  0  0  0  0  0  0  0  0  0  0
   26.9421  -19.0040  -14.0991 C   0  0  0  0  0  0  0  0  0  0  0  0
   26.0992  -18.0994  -14.2394 O   0  0  0  0  0  0  0  0  0  0  0  0
   25.5463  -22.8682  -13.0546 N   0  0  0  0  0  0  0  0  0  0  0  0
   24.7658  -21.9038  -12.3490 C   0  0  0  0  0  0  0  0  0  0  0  0
   24.0910  -22.3315  -11.3867 O   0  0  0  0  0  0  0  0  0  0  0  0
   24.7176  -20.4785  -12.6870 C   0  0  0  0  0  0  0  0  0  0  0  0
   25.8341  -19.7568  -11.9653 C   0  0  2  0  0  0  0  0  0  0  0  0
   26.9616  -19.6909  -12.8676 N   0  0  0  0  0  0  0  0  0  0  0  0
   26.1483  -20.3986  -10.6879 C   0  0  0  0  0  0  0  0  0  0  0  0
   26.6419  -21.5670  -10.7267 O   0  0  0  0  0  0  0  0  0  0  0  0
   25.9533  -19.8380   -9.4094 N   0  0  0  0  0  0  0  0  0  0  0  0
   26.7051  -20.2511   -8.2114 C   0  0  1  0  0  0  0  0  0  0  0  0
   27.2485  -19.0728   -7.4841 C   0  0  0  0  0  0  0  0  0  0  0  0
   27.9489  -19.5163   -6.2647 C   0  0  0  0  0  0  0  0  0  0  0  0
   29.1374  -20.2530   -6.3627 C   0  0  0  0  0  0  0  0  0  0  0  0
   29.8468  -20.6747   -5.2772 C   0  0  0  0  0  0  0  0  0  0  0  0
   29.4006  -20.3781   -4.0029 C   0  0  0  0  0  0  0  0  0  0  0  0
   28.2492  -19.6635   -3.8647 C   0  0  0  0  0  0  0  0  0  0  0  0
   27.5383  -19.2417   -4.9808 C   0  0  0  0  0  0  0  0  0  0  0  0
   25.8051  -21.0740   -7.3993 C   0  0  0  0  0  0  0  0  0  0  0  0
   24.4423  -21.0605   -7.5888 O   0  0  0  0  0  0  0  0  0  0  0  0
   26.2708  -21.8136   -6.5034 O   0  0  0  0  0  0  0  0  0  0  0  0
  2  1  1  6
  2  3  1  0
  4  2  1  0
  4  5  2  0
  7  9  1  0
  7  6  1  0
  8  7  2  0
 10  9  1  6
 10 11  1  0
 11  4  1  0
 12 10  1  0
 13 12  2  0
 14 12  1  0
 15 14  1  0
 15 16  1  1
 16 17  1  0
 17 22  2  0
 18 17  1  0
 18 19  2  0
 19 20  1  0
 20 21  2  0
 22 21  1  0
 23 24  1  0
 23 15  1  0
 25 23  2  0
M  END
$$$$
