ANF.pdb
     RDKit          3D

 25 25  0  0  1  0  0  0  0  0999 V2000
   25.1439  -12.4567  -15.5620 C   0  0  0  0  0  0  0  0  0  0  0  0
   23.9510  -13.1283  -16.2137 C   0  0  2  0  0  0  0  0  0  0  0  0
   24.4449  -13.9038  -17.3328 N   0  0  0  0  0  0  0  0  0  0  0  0
   22.9259  -12.1456  -16.6356 C   0  0  0  0  0  0  0  0  0  0  0  0
   23.0260  -11.4279  -17.6471 O   0  0  0  0  0  0  0  0  0  0  0  0
   19.7234  -12.9465  -18.0198 N   0  0  0  0  0  0  0  0  0  0  0  0
   18.9872  -12.7272  -16.8169 C   0  0  0  0  0  0  0  0  0  0  0  0
   17.9377  -13.3932  -16.6783 O   0  0  0  0  0  0  0  0  0  0  0  0
   19.3890  -11.7871  -15.7666 C   0  0  0  0  0  0  0  0  0  0  0  0
   20.6777  -11.1069  -16.1725 C   0  0  2  0  0  0  0  0  0  0  0  0
   21.7624  -12.0069  -15.8508 N   0  0  0  0  0  0  0  0  0  0  0  0
   20.8089   -9.7908  -15.5456 C   0  0  0  0  0  0  0  0  0  0  0  0
   21.0195   -9.7578  -14.2947 O   0  0  0  0  0  0  0  0  0  0  0  0
   20.7227   -8.5476  -16.2042 N   0  0  0  0  0  0  0  0  0  0  0  0
   20.8780   -7.2492  -15.5250 C   0  0  1  0  0  0  0  0  0  0  0  0
   22.0810   -6.5254  -16.0163 C   0  0  0  0  0  0  0  0  0  0  0  0
   22.0654   -5.1358  -15.5233 C   0  0  0  0  0  0  0  0  0  0  0  0
   22.3167   -4.8646  -14.1713 C   0  0  0  0  0  0  0  0  0  0  0  0
   22.3396   -3.6031  -13.6539 C   0  0  0  0  0  0  0  0  0  0  0  0
   22.1082   -2.5156  -14.4753 C   0  0  0  0  0  0  0  0  0  0  0  0
   21.8601   -2.7368  -15.7963 C   0  0  0  0  0  0  0  0  0  0  0  0
   21.8401   -4.0282  -16.3073 C   0  0  0  0  0  0  0  0  0  0  0  0
   19.6299   -6.5073  -15.7210 C   0  0  0  0  0  0  0  0  0  0  0  0
   19.1100   -5.6924  -14.7417 O   0  0  0  0  0  0  0  0  0  0  0  0
   19.0055   -6.6071  -16.8011 O   0  0  0  0  0  0  0  0  0  0  0  0
  2  1  1  6
  2  3  1  0
  4  2  1  0
  4  5  2  0
  7  9  1  0
  7  6  1  0
  8  7  2  0
 10  9  1  1
 10 11  1  0
 11  4  1  0
 12 10  1  0
 13 12  2  0
 14 12  1  0
 15 14  1  0
 15 16  1  6
 16 17  1  0
 17 22  2  0
 18 17  1  0
 18 19  2  0
 19 20  1  0
 20 21  2  0
 22 21  1  0
 23 24  1  0
 23 15  1  0
 25 23  2  0
M  END
$$$$
