ANF.pdb
     RDKit          3D

 25 25  0  0  1  0  0  0  0  0999 V2000
   25.5562  -20.5566  -19.1635 C   0  0  0  0  0  0  0  0  0  0  0  0
   25.8575  -19.2184  -18.5175 C   0  0  2  0  0  0  0  0  0  0  0  0
   26.3588  -19.4810  -17.1843 N   0  0  0  0  0  0  0  0  0  0  0  0
   24.6681  -18.3359  -18.4937 C   0  0  0  0  0  0  0  0  0  0  0  0
   24.1266  -17.8717  -19.5134 O   0  0  0  0  0  0  0  0  0  0  0  0
   21.6827  -19.3770  -17.5956 N   0  0  0  0  0  0  0  0  0  0  0  0
   21.5161  -18.7435  -16.3276 C   0  0  0  0  0  0  0  0  0  0  0  0
   20.7537  -19.3144  -15.5169 O   0  0  0  0  0  0  0  0  0  0  0  0
   22.1752  -17.4930  -15.9400 C   0  0  0  0  0  0  0  0  0  0  0  0
   23.0536  -17.0192  -17.0768 C   0  0  2  0  0  0  0  0  0  0  0  0
   24.1073  -17.9946  -17.2455 N   0  0  0  0  0  0  0  0  0  0  0  0
   23.5495  -15.6625  -16.8404 C   0  0  0  0  0  0  0  0  0  0  0  0
   22.6920  -14.7291  -16.7806 O   0  0  0  0  0  0  0  0  0  0  0  0
   24.8988  -15.2919  -16.6717 N   0  0  0  0  0  0  0  0  0  0  0  0
   25.3690  -13.8954  -16.6644 C   0  0  1  0  0  0  0  0  0  0  0  0
   26.5625  -13.7340  -15.7913 C   0  0  0  0  0  0  0  0  0  0  0  0
   27.1191  -12.3778  -15.9497 C   0  0  0  0  0  0  0  0  0  0  0  0
   26.6268  -11.3186  -15.1749 C   0  0  0  0  0  0  0  0  0  0  0  0
   27.1109  -10.0463  -15.2547 C   0  0  0  0  0  0  0  0  0  0  0  0
   28.1377   -9.7520  -16.1323 C   0  0  0  0  0  0  0  0  0  0  0  0
   28.6442  -10.7541  -16.9035 C   0  0  0  0  0  0  0  0  0  0  0  0
   28.1396  -12.0447  -16.8100 C   0  0  0  0  0  0  0  0  0  0  0  0
   25.6096  -13.5134  -18.0582 C   0  0  0  0  0  0  0  0  0  0  0  0
   26.2563  -14.3511  -18.9377 O   0  0  0  0  0  0  0  0  0  0  0  0
   25.2254  -12.3982  -18.4768 O   0  0  0  0  0  0  0  0  0  0  0  0
  2  1  1  1
  2  3  1  0
  4  2  1  0
  4  5  2  0
  7  9  1  0
  7  6  1  0
  8  7  2  0
 10  9  1  1
 10 11  1  0
 11  4  1  0
 12 10  1  0
 13 12  2  0
 14 12  1  0
 15 14  1  0
 15 16  1  1
 16 17  1  0
 17 22  2  0
 18 17  1  0
 18 19  2  0
 19 20  1  0
 20 21  2  0
 22 21  1  0
 23 24  1  0
 23 15  1  0
 25 23  2  0
M  END
$$$$
