ANF.pdb
     RDKit          3D

 25 25  0  0  1  0  0  0  0  0999 V2000
   16.0536  -14.4692  -19.1889 C   0  0  0  0  0  0  0  0  0  0  0  0
   16.8664  -13.9953  -18.0000 C   0  0  2  0  0  0  0  0  0  0  0  0
   16.0837  -14.2485  -16.8080 N   0  0  0  0  0  0  0  0  0  0  0  0
   17.2393  -12.5667  -18.1196 C   0  0  0  0  0  0  0  0  0  0  0  0
   18.2632  -12.1620  -18.6995 O   0  0  0  0  0  0  0  0  0  0  0  0
   13.5325   -9.7001  -19.5138 N   0  0  0  0  0  0  0  0  0  0  0  0
   14.8589   -9.4132  -19.0720 C   0  0  0  0  0  0  0  0  0  0  0  0
   15.6800   -9.0833  -19.9559 O   0  0  0  0  0  0  0  0  0  0  0  0
   15.2935   -9.4841  -17.6740 C   0  0  0  0  0  0  0  0  0  0  0  0
   16.6373  -10.1751  -17.6040 C   0  0  2  0  0  0  0  0  0  0  0  0
   16.3900  -11.5983  -17.5454 N   0  0  0  0  0  0  0  0  0  0  0  0
   17.4375   -9.6774  -16.4840 C   0  0  0  0  0  0  0  0  0  0  0  0
   17.1247  -10.0748  -15.3202 O   0  0  0  0  0  0  0  0  0  0  0  0
   18.5303   -8.7920  -16.5762 N   0  0  0  0  0  0  0  0  0  0  0  0
   19.3043   -8.3236  -15.4130 C   0  0  1  0  0  0  0  0  0  0  0  0
   20.7580   -8.2639  -15.7226 C   0  0  0  0  0  0  0  0  0  0  0  0
   21.4896   -7.6836  -14.5815 C   0  0  0  0  0  0  0  0  0  0  0  0
   21.9999   -8.5149  -13.5749 C   0  0  0  0  0  0  0  0  0  0  0  0
   22.7042   -8.0470  -12.5051 C   0  0  0  0  0  0  0  0  0  0  0  0
   22.9452   -6.6919  -12.3762 C   0  0  0  0  0  0  0  0  0  0  0  0
   22.4660   -5.8500  -13.3338 C   0  0  0  0  0  0  0  0  0  0  0  0
   21.7502   -6.3429  -14.4172 C   0  0  0  0  0  0  0  0  0  0  0  0
   18.7399   -7.0330  -15.0102 C   0  0  0  0  0  0  0  0  0  0  0  0
   18.6633   -6.6564  -13.6889 O   0  0  0  0  0  0  0  0  0  0  0  0
   18.3093   -6.2400  -15.8775 O   0  0  0  0  0  0  0  0  0  0  0  0
  2  1  1  6
  2  3  1  0
  4  2  1  0
  4  5  2  0
  7  9  1  0
  7  6  1  0
  8  7  2  0
 10  9  1  1
 10 11  1  0
 11  4  1  0
 12 10  1  0
 13 12  2  0
 14 12  1  0
 15 14  1  0
 15 16  1  6
 16 17  1  0
 17 22  2  0
 18 17  1  0
 18 19  2  0
 19 20  1  0
 20 21  2  0
 22 21  1  0
 23 24  1  0
 23 15  1  0
 25 23  2  0
M  END
$$$$
