VIA.pdb
     RDKit          3D

 21 20  0  0  1  0  0  0  0  0999 V2000
   18.0054  -13.2260  -20.0580 C   0  0  0  0  0  0  0  0  0  0  0  0
   18.1988  -12.2534  -18.9284 C   0  0  2  0  0  0  0  0  0  0  0  0
   18.3706  -10.8362  -19.4204 C   0  0  0  0  0  0  0  0  0  0  0  0
   19.3385  -12.6743  -18.0490 C   0  0  2  0  0  0  0  0  0  0  0  0
   19.1201  -13.9972  -17.5380 N   0  0  0  0  0  0  0  0  0  0  0  0
   19.4903  -11.6601  -16.9698 C   0  0  0  0  0  0  0  0  0  0  0  0
   18.6538  -11.7002  -16.0311 O   0  0  0  0  0  0  0  0  0  0  0  0
   23.8446  -11.2218  -14.3779 C   0  0  0  0  0  0  0  0  0  0  0  0
   22.4242  -11.1599  -14.8623 C   0  0  0  0  0  0  0  0  0  0  0  0
   22.0605   -9.7910  -15.3884 C   0  0  2  0  0  0  0  0  0  0  0  0
   22.2528   -8.7399  -14.3298 C   0  0  0  0  0  0  0  0  0  0  0  0
   20.6332   -9.7242  -15.8709 C   0  0  2  0  0  0  0  0  0  0  0  0
   20.5069  -10.6787  -16.9534 N   0  0  0  0  0  0  0  0  0  0  0  0
   20.2346   -8.4036  -16.3491 C   0  0  0  0  0  0  0  0  0  0  0  0
   20.8883   -7.8240  -17.2380 O   0  0  0  0  0  0  0  0  0  0  0  0
   17.2015   -6.2156  -16.0082 C   0  0  0  0  0  0  0  0  0  0  0  0
   18.6779   -6.4337  -16.1965 C   0  0  2  0  0  0  0  0  0  0  0  0
   19.1020   -7.7588  -15.8141 N   0  0  0  0  0  0  0  0  0  0  0  0
   19.3890   -5.4585  -15.3266 C   0  0  0  0  0  0  0  0  0  0  0  0
   19.4961   -4.1101  -15.6239 O   0  0  0  0  0  0  0  0  0  0  0  0
   19.9441   -5.8338  -14.2422 O   0  0  0  0  0  0  0  0  0  0  0  0
  2  1  1  6
  2  4  1  0
  3  2  1  0
  4  5  1  1
  6  7  2  0
  6  4  1  0
  8  9  1  0
  9 10  1  0
 10 12  1  0
 10 11  1  1
 12 14  1  0
 12 13  1  6
 13  6  1  0
 14 18  1  0
 15 14  2  0
 17 16  1  1
 17 19  1  0
 18 17  1  0
 19 21  2  0
 19 20  1  0
M  END
$$$$
