VIA.pdb
     RDKit          3D

 21 20  0  0  1  0  0  0  0  0999 V2000
   19.4092  -12.6614  -21.5326 C   0  0  0  0  0  0  0  0  0  0  0  0
   19.4449  -11.9983  -20.1841 C   0  0  2  0  0  0  0  0  0  0  0  0
   19.5750  -10.4977  -20.2908 C   0  0  0  0  0  0  0  0  0  0  0  0
   20.5258  -12.5865  -19.3268 C   0  0  2  0  0  0  0  0  0  0  0  0
   20.3643  -14.0079  -19.2152 N   0  0  0  0  0  0  0  0  0  0  0  0
   20.4953  -11.8999  -18.0062 C   0  0  0  0  0  0  0  0  0  0  0  0
   19.6089  -12.2703  -17.1940 O   0  0  0  0  0  0  0  0  0  0  0  0
   24.4274  -11.9933  -14.8702 C   0  0  0  0  0  0  0  0  0  0  0  0
   23.0585  -11.8412  -15.4696 C   0  0  0  0  0  0  0  0  0  0  0  0
   22.6965  -10.3931  -15.7040 C   0  0  2  0  0  0  0  0  0  0  0  0
   22.7126   -9.6196  -14.4141 C   0  0  0  0  0  0  0  0  0  0  0  0
   21.3352  -10.2385  -16.3342 C   0  0  2  0  0  0  0  0  0  0  0  0
   21.3951  -10.8761  -17.6337 N   0  0  0  0  0  0  0  0  0  0  0  0
   20.9185   -8.8493  -16.5021 C   0  0  0  0  0  0  0  0  0  0  0  0
   21.6422   -8.0362  -17.1089 O   0  0  0  0  0  0  0  0  0  0  0  0
   17.8088   -6.8603  -15.6313 C   0  0  0  0  0  0  0  0  0  0  0  0
   19.2504   -7.0274  -16.0272 C   0  0  2  0  0  0  0  0  0  0  0  0
   19.6888   -8.4014  -15.9806 N   0  0  0  0  0  0  0  0  0  0  0  0
   20.0731   -6.2531  -15.0592 C   0  0  0  0  0  0  0  0  0  0  0  0
   20.3269   -4.8979  -15.1892 O   0  0  0  0  0  0  0  0  0  0  0  0
   20.5924   -6.8204  -14.0426 O   0  0  0  0  0  0  0  0  0  0  0  0
  2  1  1  6
  2  4  1  0
  3  2  1  0
  4  5  1  1
  6  7  2  0
  6  4  1  0
  8  9  1  0
  9 10  1  0
 10 12  1  0
 10 11  1  1
 12 14  1  0
 12 13  1  6
 13  6  1  0
 14 18  1  0
 15 14  2  0
 17 16  1  1
 17 19  1  0
 18 17  1  0
 19 21  2  0
 19 20  1  0
M  END
$$$$
