VIA.pdb
     RDKit          3D

 21 20  0  0  1  0  0  0  0  0999 V2000
   18.0543   -8.3125  -18.9845 C   0  0  0  0  0  0  0  0  0  0  0  0
   19.2106   -9.2117  -19.3218 C   0  0  2  0  0  0  0  0  0  0  0  0
   19.1421   -9.7187  -20.7425 C   0  0  0  0  0  0  0  0  0  0  0  0
   19.3168  -10.3389  -18.3381 C   0  0  2  0  0  0  0  0  0  0  0  0
   18.1171  -11.1260  -18.3407 N   0  0  0  0  0  0  0  0  0  0  0  0
   19.6204   -9.7598  -17.0006 C   0  0  0  0  0  0  0  0  0  0  0  0
   18.6414   -9.5375  -16.2426 O   0  0  0  0  0  0  0  0  0  0  0  0
   22.9103  -12.1837  -13.9995 C   0  0  0  0  0  0  0  0  0  0  0  0
   21.8386  -11.3044  -14.5781 C   0  0  0  0  0  0  0  0  0  0  0  0
   22.2560   -9.8530  -14.6253 C   0  0  2  0  0  0  0  0  0  0  0  0
   22.5854   -9.3434  -13.2490 C   0  0  0  0  0  0  0  0  0  0  0  0
   21.1865   -8.9692  -15.2163 C   0  0  2  0  0  0  0  0  0  0  0  0
   20.9268   -9.4562  -16.5558 N   0  0  0  0  0  0  0  0  0  0  0  0
   21.5590   -7.5591  -15.2841 C   0  0  0  0  0  0  0  0  0  0  0  0
   22.6126   -7.2052  -15.8479 O   0  0  0  0  0  0  0  0  0  0  0  0
   19.8063   -4.3160  -14.4170 C   0  0  0  0  0  0  0  0  0  0  0  0
   20.9910   -5.1546  -14.8124 C   0  0  2  0  0  0  0  0  0  0  0  0
   20.7334   -6.5709  -14.7129 N   0  0  0  0  0  0  0  0  0  0  0  0
   22.1027   -4.8265  -13.8797 C   0  0  0  0  0  0  0  0  0  0  0  0
   23.0285   -3.8253  -14.1214 O   0  0  0  0  0  0  0  0  0  0  0  0
   22.2532   -5.4709  -12.7902 O   0  0  0  0  0  0  0  0  0  0  0  0
  2  1  1  1
  2  4  1  0
  3  2  1  0
  4  5  1  1
  6  7  2  0
  6  4  1  0
  8  9  1  0
  9 10  1  0
 10 12  1  0
 10 11  1  1
 12 14  1  0
 12 13  1  6
 13  6  1  0
 14 18  1  0
 15 14  2  0
 17 16  1  1
 17 19  1  0
 18 17  1  0
 19 21  2  0
 19 20  1  0
M  END
$$$$
