VIA.pdb
     RDKit          3D

 21 20  0  0  1  0  0  0  0  0999 V2000
   18.8672  -11.9249  -20.0221 C   0  0  0  0  0  0  0  0  0  0  0  0
   20.2577  -12.3203  -20.4339 C   0  0  2  0  0  0  0  0  0  0  0  0
   20.3127  -12.8025  -21.8638 C   0  0  0  0  0  0  0  0  0  0  0  0
   20.8284  -13.3341  -19.4873 C   0  0  2  0  0  0  0  0  0  0  0  0
   20.0542  -14.5419  -19.5142 N   0  0  0  0  0  0  0  0  0  0  0  0
   20.8882  -12.7207  -18.1321 C   0  0  0  0  0  0  0  0  0  0  0  0
   19.9017  -12.9162  -17.3763 O   0  0  0  0  0  0  0  0  0  0  0  0
   24.9682  -13.4467  -15.1092 C   0  0  0  0  0  0  0  0  0  0  0  0
   23.5765  -13.1438  -15.5866 C   0  0  0  0  0  0  0  0  0  0  0  0
   23.3370  -11.6600  -15.7404 C   0  0  2  0  0  0  0  0  0  0  0  0
   23.4281  -10.9603  -14.4121 C   0  0  0  0  0  0  0  0  0  0  0  0
   21.9890  -11.3579  -16.3454 C   0  0  2  0  0  0  0  0  0  0  0  0
   21.9767  -11.9480  -17.6685 N   0  0  0  0  0  0  0  0  0  0  0  0
   21.6996   -9.9310  -16.4558 C   0  0  0  0  0  0  0  0  0  0  0  0
   22.4657   -9.1723  -17.0808 O   0  0  0  0  0  0  0  0  0  0  0  0
   18.7604   -7.7367  -15.5074 C   0  0  0  0  0  0  0  0  0  0  0  0
   20.1708   -7.9956  -15.9621 C   0  0  2  0  0  0  0  0  0  0  0  0
   20.5475   -9.3845  -15.8570 N   0  0  0  0  0  0  0  0  0  0  0  0
   21.0764   -7.2095  -15.0815 C   0  0  0  0  0  0  0  0  0  0  0  0
   21.3896   -5.8792  -15.3051 O   0  0  0  0  0  0  0  0  0  0  0  0
   21.6160   -7.7424  -14.0569 O   0  0  0  0  0  0  0  0  0  0  0  0
  2  1  1  1
  2  4  1  0
  3  2  1  0
  4  5  1  1
  6  7  2  0
  6  4  1  0
  8  9  1  0
  9 10  1  0
 10 12  1  0
 10 11  1  1
 12 14  1  0
 12 13  1  6
 13  6  1  0
 14 18  1  0
 15 14  2  0
 17 16  1  1
 17 19  1  0
 18 17  1  0
 19 21  2  0
 19 20  1  0
M  END
$$$$
