WSW.pdb
     RDKit          3D

 35 38  0  0  1  0  0  0  0  0999 V2000
   28.3228  -20.8326  -14.9891 N   0  0  0  0  0  0  0  0  0  0  0  0
   27.2932  -21.0748  -14.0841 C   0  0  1  0  0  0  0  0  0  0  0  0
   27.5840  -20.5521  -12.7112 C   0  0  0  0  0  0  0  0  0  0  0  0
   28.9488  -20.7650  -12.2284 C   0  0  0  0  0  0  0  0  0  0  0  0
   30.1349  -20.5459  -12.8672 C   0  0  0  0  0  0  0  0  0  0  0  0
   31.1783  -20.8689  -12.0585 N   0  0  0  0  0  0  0  0  0  0  0  0
   30.6533  -21.2962  -10.9003 C   0  0  0  0  0  0  0  0  0  0  0  0
   31.2754  -21.7469   -9.7281 C   0  0  0  0  0  0  0  0  0  0  0  0
   30.5019  -22.1448   -8.6313 C   0  0  0  0  0  0  0  0  0  0  0  0
   29.1233  -22.0879   -8.7145 C   0  0  0  0  0  0  0  0  0  0  0  0
   28.5531  -21.6411   -9.8790 C   0  0  0  0  0  0  0  0  0  0  0  0
   29.2780  -21.2401  -10.9829 C   0  0  0  0  0  0  0  0  0  0  0  0
   25.8947  -20.7332  -14.5233 C   0  0  0  0  0  0  0  0  0  0  0  0
   25.7520  -19.5503  -14.9436 O   0  0  0  0  0  0  0  0  0  0  0  0
   23.8873  -21.4684  -17.1604 O   0  0  0  0  0  0  0  0  0  0  0  0
   23.2953  -20.7995  -16.1537 C   0  0  0  0  0  0  0  0  0  0  0  0
   23.4225  -21.5001  -14.8017 C   0  0  2  0  0  0  0  0  0  0  0  0
   24.8152  -21.6163  -14.4936 N   0  0  0  0  0  0  0  0  0  0  0  0
   22.5082  -22.5672  -14.5454 C   0  0  0  0  0  0  0  0  0  0  0  0
   22.2899  -23.4729  -15.4180 O   0  0  0  0  0  0  0  0  0  0  0  0
   21.7695  -22.7431  -13.3412 N   0  0  0  0  0  0  0  0  0  0  0  0
   20.9964  -21.6804  -12.7775 C   0  0  1  0  0  0  0  0  0  0  0  0
   21.6519  -20.4754  -12.2558 C   0  0  0  0  0  0  0  0  0  0  0  0
   22.1050  -20.4815  -10.8513 C   0  0  0  0  0  0  0  0  0  0  0  0
   21.4154  -20.6033   -9.6629 C   0  0  0  0  0  0  0  0  0  0  0  0
   22.2944  -20.5449   -8.6215 N   0  0  0  0  0  0  0  0  0  0  0  0
   23.5439  -20.3896   -9.0983 C   0  0  0  0  0  0  0  0  0  0  0  0
   24.7914  -20.2962   -8.5152 C   0  0  0  0  0  0  0  0  0  0  0  0
   25.9189  -20.1628   -9.2963 C   0  0  0  0  0  0  0  0  0  0  0  0
   25.8561  -20.1151  -10.6733 C   0  0  0  0  0  0  0  0  0  0  0  0
   24.5780  -20.2106  -11.2470 C   0  0  0  0  0  0  0  0  0  0  0  0
   23.4480  -20.3455  -10.4705 C   0  0  0  0  0  0  0  0  0  0  0  0
   19.9943  -21.2624  -13.8271 C   0  0  0  0  0  0  0  0  0  0  0  0
   20.2924  -21.3239  -15.0557 O   0  0  0  0  0  0  0  0  0  0  0  0
   18.7317  -20.8046  -13.4926 O   0  0  0  0  0  0  0  0  0  0  0  0
  2  3  1  0
  2  1  1  6
  4  5  2  0
  4  3  1  0
  6  5  1  0
  7 12  2  0
  7  6  1  0
  8  7  1  0
  9 10  1  0
  9  8  2  0
 10 11  2  0
 11 12  1  0
 12  4  1  0
 13  2  1  0
 14 13  2  0
 16 15  1  0
 17 16  1  6
 17 18  1  0
 18 13  1  0
 19 17  1  0
 19 21  1  0
 20 19  2  0
 22 23  1  6
 22 33  1  0
 22 21  1  0
 24 23  1  0
 24 32  1  0
 25 24  2  0
 26 25  1  0
 26 27  1  0
 27 28  1  0
 27 32  2  0
 28 29  2  0
 29 30  1  0
 31 30  2  0
 32 31  1  0
 33 35  1  0
 34 33  2  0
M  END
$$$$
