WSW.pdb
     RDKit          3D

 35 38  0  0  1  0  0  0  0  0999 V2000
   28.5589  -22.2236  -14.4433 N   0  0  0  0  0  0  0  0  0  0  0  0
   27.3657  -21.8806  -13.8137 C   0  0  1  0  0  0  0  0  0  0  0  0
   27.4560  -20.5994  -13.0436 C   0  0  0  0  0  0  0  0  0  0  0  0
   28.3538  -20.6169  -11.8883 C   0  0  0  0  0  0  0  0  0  0  0  0
   29.7182  -20.6018  -11.8546 C   0  0  0  0  0  0  0  0  0  0  0  0
   30.1631  -20.6205  -10.5706 N   0  0  0  0  0  0  0  0  0  0  0  0
   29.0767  -20.6485   -9.7841 C   0  0  0  0  0  0  0  0  0  0  0  0
   28.9620  -20.6744   -8.3875 C   0  0  0  0  0  0  0  0  0  0  0  0
   27.6975  -20.6993   -7.7874 C   0  0  0  0  0  0  0  0  0  0  0  0
   26.5669  -20.6968   -8.5825 C   0  0  0  0  0  0  0  0  0  0  0  0
   26.7217  -20.6711   -9.9449 C   0  0  0  0  0  0  0  0  0  0  0  0
   27.9484  -20.6465  -10.5768 C   0  0  0  0  0  0  0  0  0  0  0  0
   26.1080  -21.9451  -14.6380 C   0  0  0  0  0  0  0  0  0  0  0  0
   25.9363  -20.9594  -15.4096 O   0  0  0  0  0  0  0  0  0  0  0  0
   23.5537  -25.3043  -14.0035 O   0  0  0  0  0  0  0  0  0  0  0  0
   23.5092  -24.6067  -15.1535 C   0  0  0  0  0  0  0  0  0  0  0  0
   23.8087  -23.1191  -14.9732 C   0  0  2  0  0  0  0  0  0  0  0  0
   25.1822  -22.9877  -14.5936 N   0  0  0  0  0  0  0  0  0  0  0  0
   22.7856  -22.3297  -14.3645 C   0  0  0  0  0  0  0  0  0  0  0  0
   22.8292  -22.0368  -13.1229 O   0  0  0  0  0  0  0  0  0  0  0  0
   21.6510  -21.7959  -15.0387 N   0  0  0  0  0  0  0  0  0  0  0  0
   20.7896  -20.8427  -14.4109 C   0  0  1  0  0  0  0  0  0  0  0  0
   21.3242  -19.5739  -13.9028 C   0  0  0  0  0  0  0  0  0  0  0  0
   20.3696  -18.5686  -13.3965 C   0  0  0  0  0  0  0  0  0  0  0  0
   20.1621  -17.2467  -13.7313 C   0  0  0  0  0  0  0  0  0  0  0  0
   19.1530  -16.7392  -12.9667 N   0  0  0  0  0  0  0  0  0  0  0  0
   18.6925  -17.6968  -12.1399 C   0  0  0  0  0  0  0  0  0  0  0  0
   17.6917  -17.7488  -11.1909 C   0  0  0  0  0  0  0  0  0  0  0  0
   17.4386  -18.9178  -10.5064 C   0  0  0  0  0  0  0  0  0  0  0  0
   18.1613  -20.0708  -10.7313 C   0  0  0  0  0  0  0  0  0  0  0  0
   19.1755  -19.9971  -11.6997 C   0  0  0  0  0  0  0  0  0  0  0  0
   19.4314  -18.8311  -12.3876 C   0  0  0  0  0  0  0  0  0  0  0  0
   19.6847  -20.5359  -15.3937 C   0  0  0  0  0  0  0  0  0  0  0  0
   19.9607  -20.2282  -16.5900 O   0  0  0  0  0  0  0  0  0  0  0  0
   18.3496  -20.5798  -15.0313 O   0  0  0  0  0  0  0  0  0  0  0  0
  2  3  1  0
  2  1  1  6
  4  5  2  0
  4  3  1  0
  6  5  1  0
  7 12  2  0
  7  6  1  0
  8  7  1  0
  9 10  1  0
  9  8  2  0
 10 11  2  0
 11 12  1  0
 12  4  1  0
 13  2  1  0
 14 13  2  0
 16 15  1  0
 17 16  1  1
 17 18  1  0
 18 13  1  0
 19 17  1  0
 19 21  1  0
 20 19  2  0
 22 23  1  6
 22 33  1  0
 22 21  1  0
 24 23  1  0
 24 32  1  0
 25 24  2  0
 26 25  1  0
 26 27  1  0
 27 28  1  0
 27 32  2  0
 28 29  2  0
 29 30  1  0
 31 30  2  0
 32 31  1  0
 33 35  1  0
 34 33  2  0
M  END
$$$$
