WSW.pdb
     RDKit          3D

 35 38  0  0  1  0  0  0  0  0999 V2000
   10.3763  -15.7688    4.9646 N   0  0  0  0  0  0  0  0  0  0  0  0
   11.2929  -16.8160    4.9349 C   0  0  1  0  0  0  0  0  0  0  0  0
   10.8663  -17.9440    4.0470 C   0  0  0  0  0  0  0  0  0  0  0  0
    9.5745  -18.5507    4.3702 C   0  0  0  0  0  0  0  0  0  0  0  0
    8.3476  -17.9630    4.4795 C   0  0  0  0  0  0  0  0  0  0  0  0
    7.4021  -18.8884    4.7905 N   0  0  0  0  0  0  0  0  0  0  0  0
    8.0310  -20.0700    4.8803 C   0  0  0  0  0  0  0  0  0  0  0  0
    7.5344  -21.3477    5.1725 C   0  0  0  0  0  0  0  0  0  0  0  0
    8.4010  -22.4466    5.2071 C   0  0  0  0  0  0  0  0  0  0  0  0
    9.7463  -22.2605    4.9497 C   0  0  0  0  0  0  0  0  0  0  0  0
   10.1925  -20.9947    4.6679 C   0  0  0  0  0  0  0  0  0  0  0  0
    9.3732  -19.8849    4.6242 C   0  0  0  0  0  0  0  0  0  0  0  0
   12.7399  -16.4599    4.7231 C   0  0  0  0  0  0  0  0  0  0  0  0
   12.9599  -15.7462    3.7039 O   0  0  0  0  0  0  0  0  0  0  0  0
   15.7472  -18.2815    7.2518 O   0  0  0  0  0  0  0  0  0  0  0  0
   15.7573  -16.9797    6.9103 C   0  0  0  0  0  0  0  0  0  0  0  0
   15.2086  -16.7155    5.5089 C   0  0  2  0  0  0  0  0  0  0  0  0
   13.7852  -16.8553    5.5579 N   0  0  0  0  0  0  0  0  0  0  0  0
   15.9731  -17.2261    4.4156 C   0  0  0  0  0  0  0  0  0  0  0  0
   15.5739  -18.2373    3.7468 O   0  0  0  0  0  0  0  0  0  0  0  0
   17.2109  -16.6908    3.9594 N   0  0  0  0  0  0  0  0  0  0  0  0
   17.9090  -17.2642    2.8510 C   0  0  1  0  0  0  0  0  0  0  0  0
   19.0254  -16.5497    2.2210 C   0  0  0  0  0  0  0  0  0  0  0  0
   19.6562  -17.1535    1.0312 C   0  0  0  0  0  0  0  0  0  0  0  0
   19.2677  -18.1926    0.2116 C   0  0  0  0  0  0  0  0  0  0  0  0
   20.2044  -18.3750   -0.7629 N   0  0  0  0  0  0  0  0  0  0  0  0
   21.1969  -17.4794   -0.6034 C   0  0  0  0  0  0  0  0  0  0  0  0
   22.3585  -17.1973   -1.2936 C   0  0  0  0  0  0  0  0  0  0  0  0
   23.1820  -16.1709   -0.8844 C   0  0  0  0  0  0  0  0  0  0  0  0
   22.8916  -15.3914    0.2157 C   0  0  0  0  0  0  0  0  0  0  0  0
   21.7062  -15.6949    0.9048 C   0  0  0  0  0  0  0  0  0  0  0  0
   20.8789  -16.7191    0.4987 C   0  0  0  0  0  0  0  0  0  0  0  0
   18.4011  -18.6207    3.2967 C   0  0  0  0  0  0  0  0  0  0  0  0
   19.1085  -18.7327    4.3403 O   0  0  0  0  0  0  0  0  0  0  0  0
   18.1016  -19.7751    2.5943 O   0  0  0  0  0  0  0  0  0  0  0  0
  2  3  1  0
  2  1  1  6
  4  5  2  0
  4  3  1  0
  6  5  1  0
  7 12  2  0
  7  6  1  0
  8  7  1  0
  9 10  1  0
  9  8  2  0
 10 11  2  0
 11 12  1  0
 12  4  1  0
 13  2  1  0
 14 13  2  0
 16 15  1  0
 17 16  1  1
 17 18  1  0
 18 13  1  0
 19 17  1  0
 19 21  1  0
 20 19  2  0
 22 23  1  1
 22 33  1  0
 22 21  1  0
 24 23  1  0
 24 32  1  0
 25 24  2  0
 26 25  1  0
 26 27  1  0
 27 28  1  0
 27 32  2  0
 28 29  2  0
 29 30  1  0
 31 30  2  0
 32 31  1  0
 33 35  1  0
 34 33  2  0
M  END
$$$$
