WSW.pdb
     RDKit          3D

 35 38  0  0  1  0  0  0  0  0999 V2000
   22.5102  -17.2455  -14.9742 N   0  0  0  0  0  0  0  0  0  0  0  0
   23.6060  -18.0293  -15.3240 C   0  0  1  0  0  0  0  0  0  0  0  0
   23.4819  -19.4494  -14.8651 C   0  0  0  0  0  0  0  0  0  0  0  0
   22.8012  -19.6438  -13.5845 C   0  0  0  0  0  0  0  0  0  0  0  0
   21.5115  -19.3593  -13.2400 C   0  0  0  0  0  0  0  0  0  0  0  0
   21.2775  -19.7018  -11.9459 N   0  0  0  0  0  0  0  0  0  0  0  0
   22.4239  -20.2058  -11.4648 C   0  0  0  0  0  0  0  0  0  0  0  0
   22.7370  -20.7095  -10.1949 C   0  0  0  0  0  0  0  0  0  0  0  0
   24.0245  -21.1899   -9.9282 C   0  0  0  0  0  0  0  0  0  0  0  0
   24.9806  -21.1641  -10.9261 C   0  0  0  0  0  0  0  0  0  0  0  0
   24.6345  -20.6633  -12.1550 C   0  0  0  0  0  0  0  0  0  0  0  0
   23.3782  -20.1798  -12.4597 C   0  0  0  0  0  0  0  0  0  0  0  0
   24.0865  -17.9463  -16.7480 C   0  0  0  0  0  0  0  0  0  0  0  0
   23.2309  -17.5016  -17.5644 O   0  0  0  0  0  0  0  0  0  0  0  0
   27.4911  -16.4250  -15.1282 O   0  0  0  0  0  0  0  0  0  0  0  0
   26.7484  -16.6013  -16.2366 C   0  0  0  0  0  0  0  0  0  0  0  0
   26.6871  -18.0556  -16.7014 C   0  0  2  0  0  0  0  0  0  0  0  0
   25.3623  -18.3118  -17.1780 N   0  0  0  0  0  0  0  0  0  0  0  0
   27.3949  -19.0108  -15.9096 C   0  0  0  0  0  0  0  0  0  0  0  0
   28.6194  -18.8311  -15.5972 O   0  0  0  0  0  0  0  0  0  0  0  0
   26.8442  -20.2182  -15.3940 N   0  0  0  0  0  0  0  0  0  0  0  0
   27.6797  -21.2969  -14.9662 C   0  0  1  0  0  0  0  0  0  0  0  0
   27.5208  -21.8794  -13.6286 C   0  0  0  0  0  0  0  0  0  0  0  0
   27.6571  -20.9885  -12.4600 C   0  0  0  0  0  0  0  0  0  0  0  0
   26.8141  -20.0360  -11.9263 C   0  0  0  0  0  0  0  0  0  0  0  0
   27.4021  -19.4734  -10.8317 N   0  0  0  0  0  0  0  0  0  0  0  0
   28.6095  -20.0351  -10.6335 C   0  0  0  0  0  0  0  0  0  0  0  0
   29.6022  -19.8739   -9.6882 C   0  0  0  0  0  0  0  0  0  0  0  0
   30.7480  -20.6376   -9.7419 C   0  0  0  0  0  0  0  0  0  0  0  0
   30.9553  -21.5815  -10.7259 C   0  0  0  0  0  0  0  0  0  0  0  0
   29.9343  -21.7297  -11.6785 C   0  0  0  0  0  0  0  0  0  0  0  0
   28.7863  -20.9695  -11.6284 C   0  0  0  0  0  0  0  0  0  0  0  0
   27.5306  -22.3991  -15.9878 C   0  0  0  0  0  0  0  0  0  0  0  0
   26.5890  -22.3640  -16.8329 O   0  0  0  0  0  0  0  0  0  0  0  0
   28.4036  -23.4719  -16.0399 O   0  0  0  0  0  0  0  0  0  0  0  0
  2  3  1  0
  2  1  1  6
  4  5  2  0
  4  3  1  0
  6  5  1  0
  7 12  2  0
  7  6  1  0
  8  7  1  0
  9 10  1  0
  9  8  2  0
 10 11  2  0
 11 12  1  0
 12  4  1  0
 13  2  1  0
 14 13  2  0
 16 15  1  0
 17 16  1  1
 17 18  1  0
 18 13  1  0
 19 17  1  0
 19 21  1  0
 20 19  2  0
 22 23  1  1
 22 33  1  0
 22 21  1  0
 24 23  1  0
 24 32  1  0
 25 24  2  0
 26 25  1  0
 26 27  1  0
 27 28  1  0
 27 32  2  0
 28 29  2  0
 29 30  1  0
 31 30  2  0
 32 31  1  0
 33 35  1  0
 34 33  2  0
M  END
$$$$
