WSW.pdb
     RDKit          3D

 35 38  0  0  1  0  0  0  0  0999 V2000
   29.3185  -20.0705  -19.3593 N   0  0  0  0  0  0  0  0  0  0  0  0
   28.4848  -20.8998  -18.6142 C   0  0  1  0  0  0  0  0  0  0  0  0
   28.6037  -22.3438  -18.9928 C   0  0  0  0  0  0  0  0  0  0  0  0
   28.4590  -22.6387  -20.4187 C   0  0  0  0  0  0  0  0  0  0  0  0
   29.2764  -23.3620  -21.2382 C   0  0  0  0  0  0  0  0  0  0  0  0
   28.7727  -23.4005  -22.4999 N   0  0  0  0  0  0  0  0  0  0  0  0
   27.6301  -22.6977  -22.4828 C   0  0  0  0  0  0  0  0  0  0  0  0
   26.7140  -22.4211  -23.5068 C   0  0  0  0  0  0  0  0  0  0  0  0
   25.5740  -21.6535  -23.2403 C   0  0  0  0  0  0  0  0  0  0  0  0
   25.3605  -21.1738  -21.9616 C   0  0  0  0  0  0  0  0  0  0  0  0
   26.2805  -21.4665  -20.9877 C   0  0  0  0  0  0  0  0  0  0  0  0
   27.4168  -22.2184  -21.2076 C   0  0  0  0  0  0  0  0  0  0  0  0
   28.4857  -20.7158  -17.1204 C   0  0  0  0  0  0  0  0  0  0  0  0
   29.6305  -20.7612  -16.5877 O   0  0  0  0  0  0  0  0  0  0  0  0
   25.1190  -18.7599  -15.3486 O   0  0  0  0  0  0  0  0  0  0  0  0
   26.4356  -18.6862  -15.0796 C   0  0  0  0  0  0  0  0  0  0  0  0
   27.1178  -20.0517  -15.0073 C   0  0  2  0  0  0  0  0  0  0  0  0
   27.3449  -20.5037  -16.3460 N   0  0  0  0  0  0  0  0  0  0  0  0
   26.6646  -20.9400  -13.9847 C   0  0  0  0  0  0  0  0  0  0  0  0
   26.0750  -22.0343  -14.2750 O   0  0  0  0  0  0  0  0  0  0  0  0
   26.8133  -20.7241  -12.5853 N   0  0  0  0  0  0  0  0  0  0  0  0
   26.2229  -21.6059  -11.6269 C   0  0  1  0  0  0  0  0  0  0  0  0
   26.8363  -21.7929  -10.3068 C   0  0  0  0  0  0  0  0  0  0  0  0
   26.7998  -20.6651   -9.3556 C   0  0  0  0  0  0  0  0  0  0  0  0
   25.8836  -19.6518   -9.1652 C   0  0  0  0  0  0  0  0  0  0  0  0
   26.3068  -18.8435   -8.1513 N   0  0  0  0  0  0  0  0  0  0  0  0
   27.4775  -19.3033   -7.6710 C   0  0  0  0  0  0  0  0  0  0  0  0
   28.3252  -18.9037   -6.6576 C   0  0  0  0  0  0  0  0  0  0  0  0
   29.4719  -19.6175   -6.3844 C   0  0  0  0  0  0  0  0  0  0  0  0
   29.8226  -20.7440   -7.0988 C   0  0  0  0  0  0  0  0  0  0  0  0
   28.9479  -21.1334   -8.1260 C   0  0  0  0  0  0  0  0  0  0  0  0
   27.7996  -20.4240   -8.4020 C   0  0  0  0  0  0  0  0  0  0  0  0
   24.7970  -21.1491  -11.4305 C   0  0  0  0  0  0  0  0  0  0  0  0
   24.4628  -19.9601  -11.7076 O   0  0  0  0  0  0  0  0  0  0  0  0
   23.8159  -21.9985  -10.9491 O   0  0  0  0  0  0  0  0  0  0  0  0
  2  3  1  0
  2  1  1  6
  4  5  2  0
  4  3  1  0
  6  5  1  0
  7 12  2  0
  7  6  1  0
  8  7  1  0
  9 10  1  0
  9  8  2  0
 10 11  2  0
 11 12  1  0
 12  4  1  0
 13  2  1  0
 14 13  2  0
 16 15  1  0
 17 16  1  6
 17 18  1  0
 18 13  1  0
 19 17  1  0
 19 21  1  0
 20 19  2  0
 22 23  1  1
 22 33  1  0
 22 21  1  0
 24 23  1  0
 24 32  1  0
 25 24  2  0
 26 25  1  0
 26 27  1  0
 27 28  1  0
 27 32  2  0
 28 29  2  0
 29 30  1  0
 31 30  2  0
 32 31  1  0
 33 35  1  0
 34 33  2  0
M  END
$$$$
