WSW.pdb
     RDKit          3D

 35 38  0  0  1  0  0  0  0  0999 V2000
   25.3691  -22.0313   -9.1647 N   0  0  0  0  0  0  0  0  0  0  0  0
   25.7611  -20.7097   -9.3580 C   0  0  1  0  0  0  0  0  0  0  0  0
   27.0638  -20.3815   -8.6962 C   0  0  0  0  0  0  0  0  0  0  0  0
   27.0328  -20.3158   -7.2348 C   0  0  0  0  0  0  0  0  0  0  0  0
   26.0911  -20.7910   -6.3687 C   0  0  0  0  0  0  0  0  0  0  0  0
   26.4487  -20.5272   -5.0844 N   0  0  0  0  0  0  0  0  0  0  0  0
   27.6231  -19.8805   -5.1340 C   0  0  0  0  0  0  0  0  0  0  0  0
   28.4337  -19.3815   -4.1053 C   0  0  0  0  0  0  0  0  0  0  0  0
   29.6367  -18.7341   -4.4110 C   0  0  0  0  0  0  0  0  0  0  0  0
   30.0169  -18.5935   -5.7325 C   0  0  0  0  0  0  0  0  0  0  0  0
   29.1959  -19.0955   -6.7096 C   0  0  0  0  0  0  0  0  0  0  0  0
   28.0026  -19.7394   -6.4521 C   0  0  0  0  0  0  0  0  0  0  0  0
   25.7009  -20.1711  -10.7622 C   0  0  0  0  0  0  0  0  0  0  0  0
   26.4281  -19.1583  -10.9664 O   0  0  0  0  0  0  0  0  0  0  0  0
   25.4711  -22.0802  -14.2931 O   0  0  0  0  0  0  0  0  0  0  0  0
   25.5100  -20.7474  -14.1105 C   0  0  0  0  0  0  0  0  0  0  0  0
   24.5053  -20.2471  -13.0735 C   0  0  2  0  0  0  0  0  0  0  0  0
   24.9272  -20.7141  -11.7883 N   0  0  0  0  0  0  0  0  0  0  0  0
   23.1298  -20.2573  -13.4585 C   0  0  0  0  0  0  0  0  0  0  0  0
   22.3163  -21.1151  -12.9771 O   0  0  0  0  0  0  0  0  0  0  0  0
   22.5285  -19.3518  -14.3779 N   0  0  0  0  0  0  0  0  0  0  0  0
   21.4830  -19.7680  -15.2602 C   0  0  1  0  0  0  0  0  0  0  0  0
   21.7970  -20.3026  -16.5904 C   0  0  0  0  0  0  0  0  0  0  0  0
   22.0411  -19.3447  -17.6863 C   0  0  0  0  0  0  0  0  0  0  0  0
   22.7060  -18.1368  -17.7210 C   0  0  0  0  0  0  0  0  0  0  0  0
   22.6516  -17.6262  -18.9847 N   0  0  0  0  0  0  0  0  0  0  0  0
   21.9686  -18.4711  -19.7799 C   0  0  0  0  0  0  0  0  0  0  0  0
   21.6348  -18.4738  -21.1192 C   0  0  0  0  0  0  0  0  0  0  0  0
   20.9278  -19.5257  -21.6604 C   0  0  0  0  0  0  0  0  0  0  0  0
   20.5252  -20.6059  -20.9032 C   0  0  0  0  0  0  0  0  0  0  0  0
   20.8736  -20.5838  -19.5431 C   0  0  0  0  0  0  0  0  0  0  0  0
   21.5816  -19.5352  -18.9977 C   0  0  0  0  0  0  0  0  0  0  0  0
   20.6624  -20.7937  -14.5150 C   0  0  0  0  0  0  0  0  0  0  0  0
   19.4184  -20.6234  -14.3555 O   0  0  0  0  0  0  0  0  0  0  0  0
   21.2286  -21.9411  -13.9872 O   0  0  0  0  0  0  0  0  0  0  0  0
  2  3  1  0
  2  1  1  6
  4  5  2  0
  4  3  1  0
  6  5  1  0
  7 12  2  0
  7  6  1  0
  8  7  1  0
  9 10  1  0
  9  8  2  0
 10 11  2  0
 11 12  1  0
 12  4  1  0
 13  2  1  0
 14 13  2  0
 16 15  1  0
 17 16  1  6
 17 18  1  0
 18 13  1  0
 19 17  1  0
 19 21  1  0
 20 19  2  0
 22 23  1  6
 22 33  1  0
 22 21  1  0
 24 23  1  0
 24 32  1  0
 25 24  2  0
 26 25  1  0
 26 27  1  0
 27 28  1  0
 27 32  2  0
 28 29  2  0
 29 30  1  0
 31 30  2  0
 32 31  1  0
 33 35  1  0
 34 33  2  0
M  END
$$$$
