WSW.pdb
     RDKit          3D

 35 38  0  0  1  0  0  0  0  0999 V2000
   21.5433  -19.0322  -15.8449 N   0  0  0  0  0  0  0  0  0  0  0  0
   22.7639  -19.3894  -15.2789 C   0  0  1  0  0  0  0  0  0  0  0  0
   23.9404  -18.8634  -16.0416 C   0  0  0  0  0  0  0  0  0  0  0  0
   23.7558  -18.7453  -17.4884 C   0  0  0  0  0  0  0  0  0  0  0  0
   23.7785  -17.6292  -18.2736 C   0  0  0  0  0  0  0  0  0  0  0  0
   23.5688  -17.9583  -19.5754 N   0  0  0  0  0  0  0  0  0  0  0  0
   23.4112  -19.2899  -19.6182 C   0  0  0  0  0  0  0  0  0  0  0  0
   23.1719  -20.1458  -20.7019 C   0  0  0  0  0  0  0  0  0  0  0  0
   23.0440  -21.5240  -20.4929 C   0  0  0  0  0  0  0  0  0  0  0  0
   23.1568  -22.0313  -19.2121 C   0  0  0  0  0  0  0  0  0  0  0  0
   23.3910  -21.1607  -18.1787 C   0  0  0  0  0  0  0  0  0  0  0  0
   23.5231  -19.7964  -18.3406 C   0  0  0  0  0  0  0  0  0  0  0  0
   22.9244  -19.1796  -13.7971 C   0  0  0  0  0  0  0  0  0  0  0  0
   23.4559  -18.0786  -13.4785 O   0  0  0  0  0  0  0  0  0  0  0  0
   21.3197  -22.0890  -10.9715 O   0  0  0  0  0  0  0  0  0  0  0  0
   21.4402  -20.7604  -10.7936 C   0  0  0  0  0  0  0  0  0  0  0  0
   22.7156  -20.1795  -11.4025 C   0  0  2  0  0  0  0  0  0  0  0  0
   22.5291  -20.0921  -12.8187 N   0  0  0  0  0  0  0  0  0  0  0  0
   23.9519  -20.6175  -10.8366 C   0  0  0  0  0  0  0  0  0  0  0  0
   24.5628  -21.6394  -11.2968 O   0  0  0  0  0  0  0  0  0  0  0  0
   24.6216  -19.9935   -9.7463 N   0  0  0  0  0  0  0  0  0  0  0  0
   25.8411  -20.5215   -9.2182 C   0  0  1  0  0  0  0  0  0  0  0  0
   26.9497  -19.6282   -8.8626 C   0  0  0  0  0  0  0  0  0  0  0  0
   28.1065  -20.2033   -8.1491 C   0  0  0  0  0  0  0  0  0  0  0  0
   29.1373  -21.0159   -8.5729 C   0  0  0  0  0  0  0  0  0  0  0  0
   29.9664  -21.2802   -7.5226 N   0  0  0  0  0  0  0  0  0  0  0  0
   29.5053  -20.6591   -6.4207 C   0  0  0  0  0  0  0  0  0  0  0  0
   29.9453  -20.5615   -5.1161 C   0  0  0  0  0  0  0  0  0  0  0  0
   29.2466  -19.8075   -4.1982 C   0  0  0  0  0  0  0  0  0  0  0  0
   28.0938  -19.1281   -4.5324 C   0  0  0  0  0  0  0  0  0  0  0  0
   27.6623  -19.2409   -5.8639 C   0  0  0  0  0  0  0  0  0  0  0  0
   28.3581  -19.9922   -6.7855 C   0  0  0  0  0  0  0  0  0  0  0  0
   25.4752  -21.3367   -8.0007 C   0  0  0  0  0  0  0  0  0  0  0  0
   26.3372  -22.0796   -7.4464 O   0  0  0  0  0  0  0  0  0  0  0  0
   24.2051  -21.3029   -7.4517 O   0  0  0  0  0  0  0  0  0  0  0  0
  2  3  1  0
  2  1  1  6
  4  5  2  0
  4  3  1  0
  6  5  1  0
  7 12  2  0
  7  6  1  0
  8  7  1  0
  9 10  1  0
  9  8  2  0
 10 11  2  0
 11 12  1  0
 12  4  1  0
 13  2  1  0
 14 13  2  0
 16 15  1  0
 17 16  1  6
 17 18  1  0
 18 13  1  0
 19 17  1  0
 19 21  1  0
 20 19  2  0
 22 23  1  1
 22 33  1  0
 22 21  1  0
 24 23  1  0
 24 32  1  0
 25 24  2  0
 26 25  1  0
 26 27  1  0
 27 28  1  0
 27 32  2  0
 28 29  2  0
 29 30  1  0
 31 30  2  0
 32 31  1  0
 33 35  1  0
 34 33  2  0
M  END
$$$$
