KNL.pdb
     RDKit          3D

 26 25  0  0  1  0  0  0  0  0999 V2000
    4.9328  -17.3943   22.4833 N   0  0  0  0  0  0  0  0  0  0  0  0
    6.0296  -18.2319   22.8145 C   0  0  1  0  0  0  0  0  0  0  0  0
    6.1480  -19.5103   22.0069 C   0  0  0  0  0  0  0  0  0  0  0  0
    5.0053  -20.4501   22.1195 C   0  0  0  0  0  0  0  0  0  0  0  0
    5.3882  -21.8833   22.0668 C   0  0  0  0  0  0  0  0  0  0  0  0
    4.2319  -22.8114   22.1197 C   0  0  0  0  0  0  0  0  0  0  0  0
    3.3422  -22.8175   21.0046 N   0  0  0  0  0  0  0  0  0  0  0  0
    7.3025  -17.4903   22.5615 C   0  0  0  0  0  0  0  0  0  0  0  0
    8.3640  -18.1414   22.5189 O   0  0  0  0  0  0  0  0  0  0  0  0
    7.0378  -13.8205   19.3460 N   0  0  0  0  0  0  0  0  0  0  0  0
    8.2098  -14.1482   20.1084 C   0  0  0  0  0  0  0  0  0  0  0  0
    9.2407  -14.5673   19.5298 O   0  0  0  0  0  0  0  0  0  0  0  0
    8.1128  -13.9572   21.5823 C   0  0  0  0  0  0  0  0  0  0  0  0
    8.4327  -15.2870   22.2425 C   0  0  2  0  0  0  0  0  0  0  0  0
    7.2215  -16.0886   22.3856 N   0  0  0  0  0  0  0  0  0  0  0  0
    8.9079  -14.9982   23.6198 C   0  0  0  0  0  0  0  0  0  0  0  0
   10.0782  -14.5296   23.8156 O   0  0  0  0  0  0  0  0  0  0  0  0
    5.6615  -12.5457   26.9382 C   0  0  0  0  0  0  0  0  0  0  0  0
    6.9415  -12.9409   26.2700 C   0  0  1  0  0  0  0  0  0  0  0  0
    7.9192  -11.7614   26.3113 C   0  0  0  0  0  0  0  0  0  0  0  0
    7.5271  -14.1800   26.7768 C   0  0  0  0  0  0  0  0  0  0  0  0
    8.6764  -14.8569   26.1466 C   0  0  2  0  0  0  0  0  0  0  0  0
    8.1499  -15.2019   24.7763 N   0  0  0  0  0  0  0  0  0  0  0  0
    9.1738  -16.0547   26.7778 C   0  0  0  0  0  0  0  0  0  0  0  0
    8.9812  -17.3041   26.1085 O   0  0  0  0  0  0  0  0  0  0  0  0
    9.7749  -16.1779   27.8695 O   0  0  0  0  0  0  0  0  0  0  0  0
  2  1  1  6
  2  3  1  0
  3  4  1  0
  5  6  1  0
  5  4  1  0
  7  6  1  0
  8  2  1  0
  9  8  2  0
 10 11  1  0
 11 13  1  0
 12 11  2  0
 14 13  1  1
 14 15  1  0
 15  8  1  0
 16 14  1  0
 16 17  2  0
 19 21  1  0
 19 18  1  1
 20 19  1  0
 22 21  1  1
 22 23  1  0
 23 16  1  0
 24 22  1  0
 25 24  1  0
 26 24  2  0
M  END
$$$$
