KNL.pdb
     RDKit          3D

 26 25  0  0  1  0  0  0  0  0999 V2000
    8.4804  -17.3748   22.3662 N   0  0  0  0  0  0  0  0  0  0  0  0
    9.0907  -18.6555   22.4065 C   0  0  1  0  0  0  0  0  0  0  0  0
    9.1594  -19.3930   21.0829 C   0  0  0  0  0  0  0  0  0  0  0  0
    7.8532  -19.7696   20.4882 C   0  0  0  0  0  0  0  0  0  0  0  0
    7.6518  -21.2325   20.3375 C   0  0  0  0  0  0  0  0  0  0  0  0
    6.3617  -21.5940   19.7003 C   0  0  0  0  0  0  0  0  0  0  0  0
    6.0883  -22.9810   19.5098 N   0  0  0  0  0  0  0  0  0  0  0  0
   10.5120  -18.5041   22.8438 C   0  0  0  0  0  0  0  0  0  0  0  0
   11.2625  -19.4950   22.7580 O   0  0  0  0  0  0  0  0  0  0  0  0
   15.2512  -16.4883   22.9385 N   0  0  0  0  0  0  0  0  0  0  0  0
   14.2908  -15.6755   23.6310 C   0  0  0  0  0  0  0  0  0  0  0  0
   14.6588  -14.9245   24.5658 O   0  0  0  0  0  0  0  0  0  0  0  0
   12.8788  -15.7858   23.1704 C   0  0  0  0  0  0  0  0  0  0  0  0
   12.2811  -17.0287   23.8067 C   0  0  2  0  0  0  0  0  0  0  0  0
   10.9176  -17.2388   23.3303 N   0  0  0  0  0  0  0  0  0  0  0  0
   12.1796  -16.7771   25.2670 C   0  0  0  0  0  0  0  0  0  0  0  0
   13.2260  -16.7703   25.9967 O   0  0  0  0  0  0  0  0  0  0  0  0
    8.6999  -13.2200   27.0275 C   0  0  0  0  0  0  0  0  0  0  0  0
    9.9985  -13.9620   27.0910 C   0  0  1  0  0  0  0  0  0  0  0  0
   11.0276  -13.1171   27.8498 C   0  0  0  0  0  0  0  0  0  0  0  0
    9.8890  -15.3231   27.6111 C   0  0  0  0  0  0  0  0  0  0  0  0
   10.9360  -16.3483   27.4414 C   0  0  2  0  0  0  0  0  0  0  0  0
   10.9822  -16.5335   25.9455 N   0  0  0  0  0  0  0  0  0  0  0  0
   10.7246  -17.6289   28.0705 C   0  0  0  0  0  0  0  0  0  0  0  0
   10.3225  -18.7295   27.2500 O   0  0  0  0  0  0  0  0  0  0  0  0
   10.8429  -17.9425   29.2771 O   0  0  0  0  0  0  0  0  0  0  0  0
  2  1  1  6
  2  3  1  0
  3  4  1  0
  5  6  1  0
  5  4  1  0
  7  6  1  0
  8  2  1  0
  9  8  2  0
 10 11  1  0
 11 13  1  0
 12 11  2  0
 14 13  1  6
 14 15  1  0
 15  8  1  0
 16 14  1  0
 16 17  2  0
 19 21  1  0
 19 18  1  1
 20 19  1  0
 22 21  1  6
 22 23  1  0
 23 16  1  0
 24 22  1  0
 25 24  1  0
 26 24  2  0
M  END
$$$$
