KNL.pdb
     RDKit          3D

 26 25  0  0  1  0  0  0  0  0999 V2000
    9.4317  -18.9187   21.0609 N   0  0  0  0  0  0  0  0  0  0  0  0
   10.2419  -18.2760   20.0890 C   0  0  1  0  0  0  0  0  0  0  0  0
    9.9572  -18.6469   18.6461 C   0  0  0  0  0  0  0  0  0  0  0  0
    9.3001  -19.9610   18.4378 C   0  0  0  0  0  0  0  0  0  0  0  0
    9.0686  -20.3068   17.0129 C   0  0  0  0  0  0  0  0  0  0  0  0
    8.3111  -21.5680   16.8213 C   0  0  0  0  0  0  0  0  0  0  0  0
    8.1080  -22.0161   15.4824 N   0  0  0  0  0  0  0  0  0  0  0  0
   10.0159  -16.8004   20.1651 C   0  0  0  0  0  0  0  0  0  0  0  0
   10.5914  -16.0735   19.3327 O   0  0  0  0  0  0  0  0  0  0  0  0
    7.6714  -12.4554   19.8320 N   0  0  0  0  0  0  0  0  0  0  0  0
    7.1353  -13.1959   20.9396 C   0  0  0  0  0  0  0  0  0  0  0  0
    6.5040  -12.6031   21.8469 O   0  0  0  0  0  0  0  0  0  0  0  0
    7.3743  -14.6659   20.9278 C   0  0  0  0  0  0  0  0  0  0  0  0
    8.8352  -14.8991   21.2718 C   0  0  2  0  0  0  0  0  0  0  0  0
    9.1585  -16.3196   21.1829 N   0  0  0  0  0  0  0  0  0  0  0  0
    9.0252  -14.5154   22.6940 C   0  0  0  0  0  0  0  0  0  0  0  0
    9.3514  -13.3217   23.0041 O   0  0  0  0  0  0  0  0  0  0  0  0
    8.2378  -12.2777   26.9350 C   0  0  0  0  0  0  0  0  0  0  0  0
    7.2466  -13.2715   26.4146 C   0  0  1  0  0  0  0  0  0  0  0  0
    5.8912  -12.5820   26.2238 C   0  0  0  0  0  0  0  0  0  0  0  0
    7.6873  -13.9937   25.2233 C   0  0  0  0  0  0  0  0  0  0  0  0
    8.8544  -14.8956   25.2009 C   0  0  2  0  0  0  0  0  0  0  0  0
    8.8689  -15.3871   23.7753 N   0  0  0  0  0  0  0  0  0  0  0  0
    8.8389  -16.0295   26.0922 C   0  0  0  0  0  0  0  0  0  0  0  0
    8.1283  -17.2024   25.6853 O   0  0  0  0  0  0  0  0  0  0  0  0
    9.3740  -16.1538   27.2176 O   0  0  0  0  0  0  0  0  0  0  0  0
  2  1  1  1
  2  3  1  0
  3  4  1  0
  5  6  1  0
  5  4  1  0
  7  6  1  0
  8  2  1  0
  9  8  2  0
 10 11  1  0
 11 13  1  0
 12 11  2  0
 14 13  1  1
 14 15  1  0
 15  8  1  0
 16 14  1  0
 16 17  2  0
 19 21  1  0
 19 18  1  6
 20 19  1  0
 22 21  1  6
 22 23  1  0
 23 16  1  0
 24 22  1  0
 25 24  1  0
 26 24  2  0
M  END
$$$$
