KNL.pdb
     RDKit          3D

 26 25  0  0  1  0  0  0  0  0999 V2000
   10.3151  -13.7821   19.3489 N   0  0  0  0  0  0  0  0  0  0  0  0
    9.0890  -13.2674   19.8448 C   0  0  1  0  0  0  0  0  0  0  0  0
    7.9891  -13.0839   18.8166 C   0  0  0  0  0  0  0  0  0  0  0  0
    8.3563  -13.4118   17.4168 C   0  0  0  0  0  0  0  0  0  0  0  0
    8.1714  -14.8401   17.0575 C   0  0  0  0  0  0  0  0  0  0  0  0
    8.2982  -15.1102   15.6042 C   0  0  0  0  0  0  0  0  0  0  0  0
    7.3020  -14.5603   14.7439 N   0  0  0  0  0  0  0  0  0  0  0  0
    8.5301  -14.2234   20.8488 C   0  0  0  0  0  0  0  0  0  0  0  0
    7.3043  -14.1941   21.0699 O   0  0  0  0  0  0  0  0  0  0  0  0
   11.9193  -17.4620   23.4307 N   0  0  0  0  0  0  0  0  0  0  0  0
   11.1836  -17.0599   22.2648 C   0  0  0  0  0  0  0  0  0  0  0  0
   11.7624  -16.4495   21.3344 O   0  0  0  0  0  0  0  0  0  0  0  0
    9.7366  -17.4122   22.2438 C   0  0  0  0  0  0  0  0  0  0  0  0
    8.9457  -16.1263   22.4107 C   0  0  2  0  0  0  0  0  0  0  0  0
    9.4329  -15.1057   21.4882 N   0  0  0  0  0  0  0  0  0  0  0  0
    9.2115  -15.6139   23.7793 C   0  0  0  0  0  0  0  0  0  0  0  0
   10.2904  -14.9833   24.0360 O   0  0  0  0  0  0  0  0  0  0  0  0
    5.7421  -12.6638   25.9549 C   0  0  0  0  0  0  0  0  0  0  0  0
    7.1477  -13.1431   25.7663 C   0  0  1  0  0  0  0  0  0  0  0  0
    8.1180  -11.9933   26.0585 C   0  0  0  0  0  0  0  0  0  0  0  0
    7.4728  -14.3604   26.5064 C   0  0  0  0  0  0  0  0  0  0  0  0
    8.6548  -15.1964   26.2235 C   0  0  2  0  0  0  0  0  0  0  0  0
    8.3421  -15.7666   24.8629 N   0  0  0  0  0  0  0  0  0  0  0  0
    8.9419  -16.2768   27.1348 C   0  0  0  0  0  0  0  0  0  0  0  0
    8.6512  -17.6132   26.7155 O   0  0  0  0  0  0  0  0  0  0  0  0
    9.4275  -16.2262   28.2880 O   0  0  0  0  0  0  0  0  0  0  0  0
  2  1  1  6
  2  3  1  0
  3  4  1  0
  5  6  1  0
  5  4  1  0
  7  6  1  0
  8  2  1  0
  9  8  2  0
 10 11  1  0
 11 13  1  0
 12 11  2  0
 14 13  1  6
 14 15  1  0
 15  8  1  0
 16 14  1  0
 16 17  2  0
 19 21  1  0
 19 18  1  1
 20 19  1  0
 22 21  1  1
 22 23  1  0
 23 16  1  0
 24 22  1  0
 25 24  1  0
 26 24  2  0
M  END
$$$$
