KNL.pdb
     RDKit          3D

 26 25  0  0  1  0  0  0  0  0999 V2000
    9.8693  -12.7160   19.3758 N   0  0  0  0  0  0  0  0  0  0  0  0
    8.5456  -13.1917   19.5648 C   0  0  1  0  0  0  0  0  0  0  0  0
    7.8637  -13.7469   18.3289 C   0  0  0  0  0  0  0  0  0  0  0  0
    8.7665  -14.1460   17.2210 C   0  0  0  0  0  0  0  0  0  0  0  0
    8.0870  -14.8528   16.1064 C   0  0  0  0  0  0  0  0  0  0  0  0
    7.7066  -13.9639   14.9811 C   0  0  0  0  0  0  0  0  0  0  0  0
    7.0737  -14.5654   13.8531 N   0  0  0  0  0  0  0  0  0  0  0  0
    8.5697  -14.3242   20.5400 C   0  0  0  0  0  0  0  0  0  0  0  0
    7.4835  -14.8330   20.8775 O   0  0  0  0  0  0  0  0  0  0  0  0
   12.4339  -16.8891   19.5150 N   0  0  0  0  0  0  0  0  0  0  0  0
   11.3186  -17.2206   20.3568 C   0  0  0  0  0  0  0  0  0  0  0  0
   10.4326  -18.0082   19.9471 O   0  0  0  0  0  0  0  0  0  0  0  0
   11.2964  -16.5846   21.7034 C   0  0  0  0  0  0  0  0  0  0  0  0
    9.9403  -15.9240   21.8800 C   0  0  2  0  0  0  0  0  0  0  0  0
    9.8307  -14.7491   21.0211 N   0  0  0  0  0  0  0  0  0  0  0  0
    9.8644  -15.4284   23.2781 C   0  0  0  0  0  0  0  0  0  0  0  0
   10.7718  -14.6617   23.7430 O   0  0  0  0  0  0  0  0  0  0  0  0
    8.2995  -12.3488   27.1091 C   0  0  0  0  0  0  0  0  0  0  0  0
    7.3390  -13.4288   26.7191 C   0  0  1  0  0  0  0  0  0  0  0  0
    5.9373  -12.8284   26.5663 C   0  0  0  0  0  0  0  0  0  0  0  0
    7.7512  -14.2089   25.5543 C   0  0  0  0  0  0  0  0  0  0  0  0
    8.8247  -15.2200   25.5877 C   0  0  2  0  0  0  0  0  0  0  0  0
    8.8366  -15.7406   24.1724 N   0  0  0  0  0  0  0  0  0  0  0  0
    8.6702  -16.3280   26.4981 C   0  0  0  0  0  0  0  0  0  0  0  0
    9.3668  -16.2821   27.7466 O   0  0  0  0  0  0  0  0  0  0  0  0
    7.9912  -17.3712   26.3607 O   0  0  0  0  0  0  0  0  0  0  0  0
  2  1  1  6
  2  3  1  0
  3  4  1  0
  5  6  1  0
  5  4  1  0
  7  6  1  0
  8  2  1  0
  9  8  2  0
 10 11  1  0
 11 13  1  0
 12 11  2  0
 14 13  1  1
 14 15  1  0
 15  8  1  0
 16 14  1  0
 16 17  2  0
 19 21  1  0
 19 18  1  6
 20 19  1  0
 22 21  1  6
 22 23  1  0
 23 16  1  0
 24 22  1  0
 25 24  1  0
 26 24  2  0
M  END
$$$$
