KNL.pdb
     RDKit          3D

 26 25  0  0  1  0  0  0  0  0999 V2000
   10.4344  -19.4865   22.8270 N   0  0  0  0  0  0  0  0  0  0  0  0
   11.2863  -18.6362   22.0750 C   0  0  1  0  0  0  0  0  0  0  0  0
   11.8395  -19.2272   20.7924 C   0  0  0  0  0  0  0  0  0  0  0  0
   11.7885  -20.7067   20.6919 C   0  0  0  0  0  0  0  0  0  0  0  0
   13.1205  -21.3605   20.6510 C   0  0  0  0  0  0  0  0  0  0  0  0
   13.0570  -22.8315   20.4688 C   0  0  0  0  0  0  0  0  0  0  0  0
   12.7746  -23.3202   19.1588 N   0  0  0  0  0  0  0  0  0  0  0  0
   10.5156  -17.4285   21.6484 C   0  0  0  0  0  0  0  0  0  0  0  0
   11.0269  -16.6745   20.7985 O   0  0  0  0  0  0  0  0  0  0  0  0
    7.9490  -17.7506   20.3136 N   0  0  0  0  0  0  0  0  0  0  0  0
    6.7942  -17.2087   20.9732 C   0  0  0  0  0  0  0  0  0  0  0  0
    5.6474  -17.6187   20.6734 O   0  0  0  0  0  0  0  0  0  0  0  0
    7.0522  -16.1644   22.0033 C   0  0  0  0  0  0  0  0  0  0  0  0
    8.5533  -15.9439   22.0717 C   0  0  2  0  0  0  0  0  0  0  0  0
    9.2476  -17.2167   22.2397 N   0  0  0  0  0  0  0  0  0  0  0  0
    8.8322  -15.1509   23.2963 C   0  0  0  0  0  0  0  0  0  0  0  0
    9.8278  -14.3545   23.3388 O   0  0  0  0  0  0  0  0  0  0  0  0
    7.9731  -11.2506   25.8025 C   0  0  0  0  0  0  0  0  0  0  0  0
    7.2053  -12.2896   26.5588 C   0  0  1  0  0  0  0  0  0  0  0  0
    5.7947  -11.7653   26.8489 C   0  0  0  0  0  0  0  0  0  0  0  0
    7.2011  -13.6096   25.9321 C   0  0  0  0  0  0  0  0  0  0  0  0
    8.4216  -14.4018   25.6898 C   0  0  2  0  0  0  0  0  0  0  0  0
    8.0626  -15.2004   24.4620 N   0  0  0  0  0  0  0  0  0  0  0  0
    8.8507  -15.3025   26.7315 C   0  0  0  0  0  0  0  0  0  0  0  0
    9.8012  -14.8280   27.6893 O   0  0  0  0  0  0  0  0  0  0  0  0
    8.5061  -16.4885   26.9381 O   0  0  0  0  0  0  0  0  0  0  0  0
  2  1  1  6
  2  3  1  0
  3  4  1  0
  5  6  1  0
  5  4  1  0
  7  6  1  0
  8  2  1  0
  9  8  2  0
 10 11  1  0
 11 13  1  0
 12 11  2  0
 14 13  1  1
 14 15  1  0
 15  8  1  0
 16 14  1  0
 16 17  2  0
 19 21  1  0
 19 18  1  6
 20 19  1  0
 22 21  1  1
 22 23  1  0
 23 16  1  0
 24 22  1  0
 25 24  1  0
 26 24  2  0
M  END
$$$$
