KNL.pdb
     RDKit          3D

 26 25  0  0  1  0  0  0  0  0999 V2000
    8.3047  -16.4225   19.0399 N   0  0  0  0  0  0  0  0  0  0  0  0
    8.7204  -15.4192   19.9536 C   0  0  1  0  0  0  0  0  0  0  0  0
    7.9627  -14.1074   19.8792 C   0  0  0  0  0  0  0  0  0  0  0  0
    8.2591  -13.2598   18.6979 C   0  0  0  0  0  0  0  0  0  0  0  0
    7.4982  -13.6285   17.4778 C   0  0  0  0  0  0  0  0  0  0  0  0
    8.0701  -13.0706   16.2276 C   0  0  0  0  0  0  0  0  0  0  0  0
    7.3487  -13.2946   15.0175 N   0  0  0  0  0  0  0  0  0  0  0  0
    8.5101  -15.9135   21.3486 C   0  0  0  0  0  0  0  0  0  0  0  0
    7.3465  -16.1699   21.7126 O   0  0  0  0  0  0  0  0  0  0  0  0
   11.4347  -19.2117   21.6489 N   0  0  0  0  0  0  0  0  0  0  0  0
   10.4183  -18.9100   22.6175 C   0  0  0  0  0  0  0  0  0  0  0  0
    9.3593  -19.5813   22.6491 O   0  0  0  0  0  0  0  0  0  0  0  0
   10.7076  -17.7839   23.5485 C   0  0  0  0  0  0  0  0  0  0  0  0
    9.5680  -16.7863   23.4349 C   0  0  2  0  0  0  0  0  0  0  0  0
    9.6517  -16.0597   22.1719 N   0  0  0  0  0  0  0  0  0  0  0  0
    9.7494  -15.7779   24.5102 C   0  0  0  0  0  0  0  0  0  0  0  0
   10.8283  -15.1015   24.5877 O   0  0  0  0  0  0  0  0  0  0  0  0
    5.9977  -12.3070   26.2444 C   0  0  0  0  0  0  0  0  0  0  0  0
    7.3278  -12.8905   25.8816 C   0  0  1  0  0  0  0  0  0  0  0  0
    8.3131  -11.7559   25.5810 C   0  0  0  0  0  0  0  0  0  0  0  0
    7.8485  -13.8507   26.8522 C   0  0  0  0  0  0  0  0  0  0  0  0
    9.1073  -14.5971   26.6670 C   0  0  2  0  0  0  0  0  0  0  0  0
    8.7966  -15.4884   25.4909 N   0  0  0  0  0  0  0  0  0  0  0  0
    9.5703  -15.4083   27.7661 C   0  0  0  0  0  0  0  0  0  0  0  0
    9.3393  -16.8189   27.7124 O   0  0  0  0  0  0  0  0  0  0  0  0
   10.1697  -15.0552   28.8074 O   0  0  0  0  0  0  0  0  0  0  0  0
  2  1  1  6
  2  3  1  0
  3  4  1  0
  5  6  1  0
  5  4  1  0
  7  6  1  0
  8  2  1  0
  9  8  2  0
 10 11  1  0
 11 13  1  0
 12 11  2  0
 14 13  1  6
 14 15  1  0
 15  8  1  0
 16 14  1  0
 16 17  2  0
 19 21  1  0
 19 18  1  1
 20 19  1  0
 22 21  1  1
 22 23  1  0
 23 16  1  0
 24 22  1  0
 25 24  1  0
 26 24  2  0
M  END
$$$$
