KNL.pdb
     RDKit          3D

 26 25  0  0  1  0  0  0  0  0999 V2000
    6.5870  -17.8587   21.2056 N   0  0  0  0  0  0  0  0  0  0  0  0
    7.9093  -18.2748   20.9013 C   0  0  1  0  0  0  0  0  0  0  0  0
    8.1102  -18.8695   19.5205 C   0  0  0  0  0  0  0  0  0  0  0  0
    7.2354  -20.0193   19.1822 C   0  0  0  0  0  0  0  0  0  0  0  0
    7.4954  -20.6095   17.8453 C   0  0  0  0  0  0  0  0  0  0  0  0
    6.5532  -21.6957   17.4799 C   0  0  0  0  0  0  0  0  0  0  0  0
    6.7413  -22.3323   16.2173 N   0  0  0  0  0  0  0  0  0  0  0  0
    8.8170  -17.0882   20.9516 C   0  0  0  0  0  0  0  0  0  0  0  0
   10.0310  -17.2668   20.7359 O   0  0  0  0  0  0  0  0  0  0  0  0
    6.8729  -13.3182   18.8986 N   0  0  0  0  0  0  0  0  0  0  0  0
    8.1900  -13.5488   19.4223 C   0  0  0  0  0  0  0  0  0  0  0  0
    9.1322  -13.8452   18.6492 O   0  0  0  0  0  0  0  0  0  0  0  0
    8.3470  -13.4116   20.8970 C   0  0  0  0  0  0  0  0  0  0  0  0
    9.0748  -14.6458   21.4009 C   0  0  2  0  0  0  0  0  0  0  0  0
    8.2373  -15.8306   21.2427 N   0  0  0  0  0  0  0  0  0  0  0  0
    9.2849  -14.4744   22.8613 C   0  0  0  0  0  0  0  0  0  0  0  0
   10.3575  -13.9435   23.3028 O   0  0  0  0  0  0  0  0  0  0  0  0
    8.4578  -11.8447   26.8872 C   0  0  0  0  0  0  0  0  0  0  0  0
    7.4034  -12.9071   26.8625 C   0  0  1  0  0  0  0  0  0  0  0  0
    6.0309  -12.2632   27.0867 C   0  0  0  0  0  0  0  0  0  0  0  0
    7.4405  -13.7643   25.6797 C   0  0  0  0  0  0  0  0  0  0  0  0
    8.6042  -14.5907   25.3070 C   0  0  2  0  0  0  0  0  0  0  0  0
    8.3668  -14.8596   23.8422 N   0  0  0  0  0  0  0  0  0  0  0  0
    8.7799  -15.8456   25.9960 C   0  0  0  0  0  0  0  0  0  0  0  0
    9.5188  -15.8492   27.2208 O   0  0  0  0  0  0  0  0  0  0  0  0
    8.3686  -16.9842   25.6755 O   0  0  0  0  0  0  0  0  0  0  0  0
  2  1  1  6
  2  3  1  0
  3  4  1  0
  5  6  1  0
  5  4  1  0
  7  6  1  0
  8  2  1  0
  9  8  2  0
 10 11  1  0
 11 13  1  0
 12 11  2  0
 14 13  1  1
 14 15  1  0
 15  8  1  0
 16 14  1  0
 16 17  2  0
 19 21  1  0
 19 18  1  6
 20 19  1  0
 22 21  1  1
 22 23  1  0
 23 16  1  0
 24 22  1  0
 25 24  1  0
 26 24  2  0
M  END
$$$$
