KNL.pdb
     RDKit          3D

 26 25  0  0  1  0  0  0  0  0999 V2000
    8.0950  -18.2021   20.7381 N   0  0  0  0  0  0  0  0  0  0  0  0
    9.4876  -17.9860   20.9059 C   0  0  1  0  0  0  0  0  0  0  0  0
   10.3555  -18.3327   19.7113 C   0  0  0  0  0  0  0  0  0  0  0  0
    9.8795  -19.4640   18.8775 C   0  0  0  0  0  0  0  0  0  0  0  0
   10.6680  -20.7116   19.0366 C   0  0  0  0  0  0  0  0  0  0  0  0
   10.2625  -21.7953   18.1080 C   0  0  0  0  0  0  0  0  0  0  0  0
   11.1138  -22.0598   16.9943 N   0  0  0  0  0  0  0  0  0  0  0  0
    9.7283  -16.5319   21.1550 C   0  0  0  0  0  0  0  0  0  0  0  0
   10.9004  -16.1125   21.1041 O   0  0  0  0  0  0  0  0  0  0  0  0
    8.2022  -12.1462   19.2657 N   0  0  0  0  0  0  0  0  0  0  0  0
    7.7149  -13.3966   19.7770 C   0  0  0  0  0  0  0  0  0  0  0  0
    7.4229  -14.3282   18.9895 O   0  0  0  0  0  0  0  0  0  0  0  0
    7.5902  -13.5003   21.2575 C   0  0  0  0  0  0  0  0  0  0  0  0
    8.7722  -14.3077   21.7653 C   0  0  2  0  0  0  0  0  0  0  0  0
    8.6041  -15.7192   21.4345 N   0  0  0  0  0  0  0  0  0  0  0  0
    8.7664  -14.2223   23.2481 C   0  0  0  0  0  0  0  0  0  0  0  0
    8.8573  -13.0915   23.8316 O   0  0  0  0  0  0  0  0  0  0  0  0
    5.9556  -12.4808   26.1559 C   0  0  0  0  0  0  0  0  0  0  0  0
    7.3422  -12.9955   25.9250 C   0  0  1  0  0  0  0  0  0  0  0  0
    8.2947  -12.3578   26.9423 C   0  0  0  0  0  0  0  0  0  0  0  0
    7.4449  -14.4527   25.8890 C   0  0  0  0  0  0  0  0  0  0  0  0
    8.6986  -15.1756   25.6029 C   0  0  2  0  0  0  0  0  0  0  0  0
    8.6634  -15.3236   24.1026 N   0  0  0  0  0  0  0  0  0  0  0  0
    8.8711  -16.4759   26.2028 C   0  0  0  0  0  0  0  0  0  0  0  0
    9.2762  -16.5423   27.5730 O   0  0  0  0  0  0  0  0  0  0  0  0
    8.7149  -17.6071   25.6888 O   0  0  0  0  0  0  0  0  0  0  0  0
  2  1  1  6
  2  3  1  0
  3  4  1  0
  5  6  1  0
  5  4  1  0
  7  6  1  0
  8  2  1  0
  9  8  2  0
 10 11  1  0
 11 13  1  0
 12 11  2  0
 14 13  1  6
 14 15  1  0
 15  8  1  0
 16 14  1  0
 16 17  2  0
 19 21  1  0
 19 18  1  1
 20 19  1  0
 22 21  1  1
 22 23  1  0
 23 16  1  0
 24 22  1  0
 25 24  1  0
 26 24  2  0
M  END
$$$$
