KNL.pdb
     RDKit          3D

 26 25  0  0  1  0  0  0  0  0999 V2000
    6.4133  -17.4341   20.5628 N   0  0  0  0  0  0  0  0  0  0  0  0
    7.6947  -17.9409   20.2233 C   0  0  1  0  0  0  0  0  0  0  0  0
    7.9100  -18.2542   18.7549 C   0  0  0  0  0  0  0  0  0  0  0  0
    6.6843  -18.5590   17.9761 C   0  0  0  0  0  0  0  0  0  0  0  0
    6.9345  -18.8839   16.5495 C   0  0  0  0  0  0  0  0  0  0  0  0
    5.6959  -19.0373   15.7472 C   0  0  0  0  0  0  0  0  0  0  0  0
    5.8430  -19.2371   14.3425 N   0  0  0  0  0  0  0  0  0  0  0  0
    8.7289  -16.9154   20.5599 C   0  0  0  0  0  0  0  0  0  0  0  0
    9.9000  -17.1161   20.1849 O   0  0  0  0  0  0  0  0  0  0  0  0
    7.6330  -12.7944   19.0088 N   0  0  0  0  0  0  0  0  0  0  0  0
    8.7924  -13.2980   19.6903 C   0  0  0  0  0  0  0  0  0  0  0  0
    9.8034  -13.6504   19.0369 O   0  0  0  0  0  0  0  0  0  0  0  0
    8.7074  -13.3648   21.1757 C   0  0  0  0  0  0  0  0  0  0  0  0
    9.2569  -14.7126   21.6097 C   0  0  2  0  0  0  0  0  0  0  0  0
    8.3106  -15.7759   21.2870 N   0  0  0  0  0  0  0  0  0  0  0  0
    9.3725  -14.6911   23.0904 C   0  0  0  0  0  0  0  0  0  0  0  0
   10.4028  -14.1904   23.6518 O   0  0  0  0  0  0  0  0  0  0  0  0
    5.5040  -12.8949   25.9651 C   0  0  0  0  0  0  0  0  0  0  0  0
    6.9393  -13.1954   25.6641 C   0  0  1  0  0  0  0  0  0  0  0  0
    7.8302  -12.1662   26.3682 C   0  0  0  0  0  0  0  0  0  0  0  0
    7.3367  -14.5736   25.9428 C   0  0  0  0  0  0  0  0  0  0  0  0
    8.5958  -15.1730   25.4616 C   0  0  2  0  0  0  0  0  0  0  0  0
    8.4054  -15.1930   23.9658 N   0  0  0  0  0  0  0  0  0  0  0  0
    8.9178  -16.5037   25.9155 C   0  0  0  0  0  0  0  0  0  0  0  0
    9.0605  -17.5378   24.9377 O   0  0  0  0  0  0  0  0  0  0  0  0
    9.1001  -16.9143   27.0845 O   0  0  0  0  0  0  0  0  0  0  0  0
  2  1  1  6
  2  3  1  0
  3  4  1  0
  5  6  1  0
  5  4  1  0
  7  6  1  0
  8  2  1  0
  9  8  2  0
 10 11  1  0
 11 13  1  0
 12 11  2  0
 14 13  1  1
 14 15  1  0
 15  8  1  0
 16 14  1  0
 16 17  2  0
 19 21  1  0
 19 18  1  1
 20 19  1  0
 22 21  1  1
 22 23  1  0
 23 16  1  0
 24 22  1  0
 25 24  1  0
 26 24  2  0
M  END
$$$$
