KNL.pdb
     RDKit          3D

 26 25  0  0  1  0  0  0  0  0999 V2000
    6.5758  -16.6204   20.2890 N   0  0  0  0  0  0  0  0  0  0  0  0
    7.6789  -15.9252   20.8495 C   0  0  1  0  0  0  0  0  0  0  0  0
    7.4462  -14.4572   21.1518 C   0  0  0  0  0  0  0  0  0  0  0  0
    7.3364  -13.5669   19.9699 C   0  0  0  0  0  0  0  0  0  0  0  0
    8.6342  -13.0292   19.4900 C   0  0  0  0  0  0  0  0  0  0  0  0
    8.5089  -12.1270   18.3190 C   0  0  0  0  0  0  0  0  0  0  0  0
    8.4016  -12.7318   17.0315 N   0  0  0  0  0  0  0  0  0  0  0  0
    8.0277  -16.5446   22.1644 C   0  0  0  0  0  0  0  0  0  0  0  0
    7.0989  -16.9575   22.8849 O   0  0  0  0  0  0  0  0  0  0  0  0
   12.8386  -18.9109   25.1372 N   0  0  0  0  0  0  0  0  0  0  0  0
   11.4595  -18.7423   24.7738 C   0  0  0  0  0  0  0  0  0  0  0  0
   10.5578  -19.2875   25.4542 O   0  0  0  0  0  0  0  0  0  0  0  0
   11.1914  -17.9005   23.5747 C   0  0  0  0  0  0  0  0  0  0  0  0
    9.8156  -17.2798   23.7444 C   0  0  2  0  0  0  0  0  0  0  0  0
    9.3977  -16.6232   22.5098 N   0  0  0  0  0  0  0  0  0  0  0  0
    9.9323  -16.2099   24.7681 C   0  0  0  0  0  0  0  0  0  0  0  0
   10.8266  -15.3065   24.6608 O   0  0  0  0  0  0  0  0  0  0  0  0
    5.9031  -13.4599   26.5028 C   0  0  0  0  0  0  0  0  0  0  0  0
    7.3089  -13.8142   26.1297 C   0  0  1  0  0  0  0  0  0  0  0  0
    8.0141  -12.5712   25.5760 C   0  0  0  0  0  0  0  0  0  0  0  0
    8.0671  -14.4689   27.1935 C   0  0  0  0  0  0  0  0  0  0  0  0
    9.3846  -15.0995   26.9873 C   0  0  2  0  0  0  0  0  0  0  0  0
    9.1086  -16.0982   25.8917 N   0  0  0  0  0  0  0  0  0  0  0  0
    9.9813  -15.7812   28.1097 C   0  0  0  0  0  0  0  0  0  0  0  0
   10.5559  -14.9920   29.1551 O   0  0  0  0  0  0  0  0  0  0  0  0
   10.0799  -17.0114   28.3219 O   0  0  0  0  0  0  0  0  0  0  0  0
  2  1  1  1
  2  3  1  0
  3  4  1  0
  5  6  1  0
  5  4  1  0
  7  6  1  0
  8  2  1  0
  9  8  2  0
 10 11  1  0
 11 13  1  0
 12 11  2  0
 14 13  1  6
 14 15  1  0
 15  8  1  0
 16 14  1  0
 16 17  2  0
 19 21  1  0
 19 18  1  1
 20 19  1  0
 22 21  1  1
 22 23  1  0
 23 16  1  0
 24 22  1  0
 25 24  1  0
 26 24  2  0
M  END
$$$$
