KNL.pdb
     RDKit          3D

 26 25  0  0  1  0  0  0  0  0999 V2000
    6.9670  -18.4644   21.8855 N   0  0  0  0  0  0  0  0  0  0  0  0
    7.7727  -18.4158   20.7181 C   0  0  1  0  0  0  0  0  0  0  0  0
    7.0587  -18.7134   19.4134 C   0  0  0  0  0  0  0  0  0  0  0  0
    6.4682  -20.0698   19.2985 C   0  0  0  0  0  0  0  0  0  0  0  0
    5.0384  -20.1465   19.6900 C   0  0  0  0  0  0  0  0  0  0  0  0
    4.4561  -21.5046   19.5564 C   0  0  0  0  0  0  0  0  0  0  0  0
    5.2124  -22.4762   18.8361 N   0  0  0  0  0  0  0  0  0  0  0  0
    8.3171  -17.0328   20.5592 C   0  0  0  0  0  0  0  0  0  0  0  0
    8.3813  -16.5544   19.4106 O   0  0  0  0  0  0  0  0  0  0  0  0
    8.3189  -12.3847   19.5420 N   0  0  0  0  0  0  0  0  0  0  0  0
    8.0215  -13.7623   19.8178 C   0  0  0  0  0  0  0  0  0  0  0  0
    7.9323  -14.5878   18.8777 O   0  0  0  0  0  0  0  0  0  0  0  0
    7.8369  -14.1232   21.2510 C   0  0  0  0  0  0  0  0  0  0  0  0
    9.0498  -14.9280   21.6846 C   0  0  2  0  0  0  0  0  0  0  0  0
    8.7273  -16.3507   21.7292 N   0  0  0  0  0  0  0  0  0  0  0  0
    9.3747  -14.5291   23.0780 C   0  0  0  0  0  0  0  0  0  0  0  0
    9.6659  -13.3180   23.3532 O   0  0  0  0  0  0  0  0  0  0  0  0
    7.6586  -12.2110   26.6602 C   0  0  0  0  0  0  0  0  0  0  0  0
    7.0782  -13.5788   26.4775 C   0  0  1  0  0  0  0  0  0  0  0  0
    5.5630  -13.4632   26.2782 C   0  0  0  0  0  0  0  0  0  0  0  0
    7.7272  -14.3738   25.4374 C   0  0  0  0  0  0  0  0  0  0  0  0
    9.0835  -14.9388   25.5691 C   0  0  2  0  0  0  0  0  0  0  0  0
    9.3885  -15.4044   24.1676 N   0  0  0  0  0  0  0  0  0  0  0  0
    9.2620  -16.0403   26.4831 C   0  0  0  0  0  0  0  0  0  0  0  0
    9.9504  -15.7964   27.7129 O   0  0  0  0  0  0  0  0  0  0  0  0
    8.8922  -17.2307   26.3631 O   0  0  0  0  0  0  0  0  0  0  0  0
  2  1  1  1
  2  3  1  0
  3  4  1  0
  5  6  1  0
  5  4  1  0
  7  6  1  0
  8  2  1  0
  9  8  2  0
 10 11  1  0
 11 13  1  0
 12 11  2  0
 14 13  1  1
 14 15  1  0
 15  8  1  0
 16 14  1  0
 16 17  2  0
 19 21  1  0
 19 18  1  6
 20 19  1  0
 22 21  1  6
 22 23  1  0
 23 16  1  0
 24 22  1  0
 25 24  1  0
 26 24  2  0
M  END
$$$$
