LAM.pdb
     RDKit          3D

 22 21  0  0  1  0  0  0  0  0999 V2000
    8.7619  -13.7100   18.6789 C   0  0  0  0  0  0  0  0  0  0  0  0
    7.8016  -13.4236   19.7960 C   0  0  2  0  0  0  0  0  0  0  0  0
    7.7011  -11.9596   20.1208 C   0  0  0  0  0  0  0  0  0  0  0  0
    8.1615  -14.2616   20.9898 C   0  0  0  0  0  0  0  0  0  0  0  0
    8.0334  -15.7269   20.5776 C   0  0  2  0  0  0  0  0  0  0  0  0
    6.6516  -16.0158   20.2309 N   0  0  0  0  0  0  0  0  0  0  0  0
    8.5050  -16.5787   21.6985 C   0  0  0  0  0  0  0  0  0  0  0  0
    7.7262  -16.7938   22.6459 O   0  0  0  0  0  0  0  0  0  0  0  0
   11.6346  -18.5353   22.4370 C   0  0  0  0  0  0  0  0  0  0  0  0
   10.3108  -17.8670   22.7537 C   0  0  2  0  0  0  0  0  0  0  0  0
    9.8152  -17.1006   21.6293 N   0  0  0  0  0  0  0  0  0  0  0  0
   10.5774  -16.9104   23.8663 C   0  0  0  0  0  0  0  0  0  0  0  0
   11.0167  -15.7610   23.6195 O   0  0  0  0  0  0  0  0  0  0  0  0
    8.3751  -11.6851   28.3206 C   0  0  0  0  0  0  0  0  0  0  0  0
    8.2357  -13.0692   27.2027 S   0  0  0  0  0  0  0  0  0  0  0  0
    9.5575  -14.2379   27.2633 C   0  0  0  0  0  0  0  0  0  0  0  0
    9.5300  -15.3678   26.3378 C   0  0  0  0  0  0  0  0  0  0  0  0
   10.5440  -16.4198   26.2911 C   0  0  2  0  0  0  0  0  0  0  0  0
   10.3246  -17.3298   25.1879 N   0  0  0  0  0  0  0  0  0  0  0  0
   10.8160  -17.2159   27.4831 C   0  0  0  0  0  0  0  0  0  0  0  0
   10.4111  -18.4184   27.5940 O   0  0  0  0  0  0  0  0  0  0  0  0
   11.5289  -16.6959   28.5483 O   0  0  0  0  0  0  0  0  0  0  0  0
  2  3  1  1
  2  1  1  0
  4  5  1  0
  4  2  1  0
  5  6  1  1
  7 11  1  0
  7  5  1  0
  8  7  2  0
 10  9  1  6
 10 12  1  0
 10 11  1  0
 12 19  1  0
 13 12  2  0
 14 15  1  0
 16 15  1  0
 17 16  1  0
 18 20  1  0
 18 17  1  1
 19 18  1  0
 20 22  1  0
 21 20  2  0
M  END
$$$$
