LAM.pdb
     RDKit          3D

 22 21  0  0  1  0  0  0  0  0999 V2000
    6.6788  -12.0165   24.2820 C   0  0  0  0  0  0  0  0  0  0  0  0
    6.2119  -12.7018   25.5329 C   0  0  2  0  0  0  0  0  0  0  0  0
    6.1328  -11.7751   26.7135 C   0  0  0  0  0  0  0  0  0  0  0  0
    7.0735  -13.9046   25.7934 C   0  0  0  0  0  0  0  0  0  0  0  0
    6.9006  -14.8577   24.6122 C   0  0  2  0  0  0  0  0  0  0  0  0
    5.5159  -15.2937   24.5373 N   0  0  0  0  0  0  0  0  0  0  0  0
    7.8260  -16.0053   24.7884 C   0  0  0  0  0  0  0  0  0  0  0  0
    8.0634  -16.4012   25.9448 O   0  0  0  0  0  0  0  0  0  0  0  0
    9.7388  -18.2692   22.4611 C   0  0  0  0  0  0  0  0  0  0  0  0
    9.3139  -17.6894   23.7963 C   0  0  2  0  0  0  0  0  0  0  0  0
    8.3886  -16.5875   23.6316 N   0  0  0  0  0  0  0  0  0  0  0  0
   10.5490  -17.1470   24.4323 C   0  0  0  0  0  0  0  0  0  0  0  0
   11.0999  -16.1197   23.9675 O   0  0  0  0  0  0  0  0  0  0  0  0
   10.9985  -13.3709   28.8509 C   0  0  0  0  0  0  0  0  0  0  0  0
   10.5157  -15.0550   29.1911 S   0  0  0  0  0  0  0  0  0  0  0  0
   10.6610  -16.1807   27.8389 C   0  0  0  0  0  0  0  0  0  0  0  0
   11.9976  -16.5916   27.4163 C   0  0  0  0  0  0  0  0  0  0  0  0
   12.2828  -17.3305   26.1877 C   0  0  2  0  0  0  0  0  0  0  0  0
   11.0735  -17.8140   25.5576 N   0  0  0  0  0  0  0  0  0  0  0  0
   13.2470  -18.4253   26.2091 C   0  0  0  0  0  0  0  0  0  0  0  0
   14.4690  -18.2377   26.5153 O   0  0  0  0  0  0  0  0  0  0  0  0
   12.8728  -19.7198   25.8966 O   0  0  0  0  0  0  0  0  0  0  0  0
  2  3  1  1
  2  1  1  0
  4  5  1  0
  4  2  1  0
  5  6  1  1
  7 11  1  0
  7  5  1  0
  8  7  2  0
 10  9  1  6
 10 12  1  0
 10 11  1  0
 12 19  1  0
 13 12  2  0
 14 15  1  0
 16 15  1  0
 17 16  1  0
 18 20  1  0
 18 17  1  1
 19 18  1  0
 20 22  1  0
 21 20  2  0
M  END
$$$$
