LAM.pdb
     RDKit          3D

 22 21  0  0  1  0  0  0  0  0999 V2000
    9.1436  -14.0365   18.9390 C   0  0  0  0  0  0  0  0  0  0  0  0
    7.9830  -13.4743   19.7065 C   0  0  2  0  0  0  0  0  0  0  0  0
    7.8792  -11.9787   19.5989 C   0  0  0  0  0  0  0  0  0  0  0  0
    8.0476  -13.9526   21.1291 C   0  0  0  0  0  0  0  0  0  0  0  0
    8.0991  -15.4790   21.0983 C   0  0  2  0  0  0  0  0  0  0  0  0
    6.8746  -15.9955   20.5093 N   0  0  0  0  0  0  0  0  0  0  0  0
    8.2908  -15.9760   22.4842 C   0  0  0  0  0  0  0  0  0  0  0  0
    7.3391  -15.8844   23.2820 O   0  0  0  0  0  0  0  0  0  0  0  0
   10.7780  -18.2037   24.1243 C   0  0  0  0  0  0  0  0  0  0  0  0
    9.6982  -17.1391   24.1275 C   0  0  2  0  0  0  0  0  0  0  0  0
    9.5455  -16.5273   22.8238 N   0  0  0  0  0  0  0  0  0  0  0  0
   10.1555  -16.0780   25.0703 C   0  0  0  0  0  0  0  0  0  0  0  0
   10.8858  -15.1424   24.6624 O   0  0  0  0  0  0  0  0  0  0  0  0
    6.1681  -11.5455   26.1959 C   0  0  0  0  0  0  0  0  0  0  0  0
    6.8047  -12.8782   27.1976 S   0  0  0  0  0  0  0  0  0  0  0  0
    8.5201  -13.2401   26.9894 C   0  0  0  0  0  0  0  0  0  0  0  0
    9.1131  -14.2942   27.8085 C   0  0  0  0  0  0  0  0  0  0  0  0
   10.2022  -15.1649   27.3693 C   0  0  2  0  0  0  0  0  0  0  0  0
    9.7485  -16.1556   26.4175 N   0  0  0  0  0  0  0  0  0  0  0  0
   11.0323  -15.8411   28.3605 C   0  0  0  0  0  0  0  0  0  0  0  0
   11.0461  -17.1098   28.4715 O   0  0  0  0  0  0  0  0  0  0  0  0
   11.8438  -15.1293   29.2255 O   0  0  0  0  0  0  0  0  0  0  0  0
  2  3  1  1
  2  1  1  0
  4  5  1  0
  4  2  1  0
  5  6  1  1
  7 11  1  0
  7  5  1  0
  8  7  2  0
 10  9  1  6
 10 12  1  0
 10 11  1  0
 12 19  1  0
 13 12  2  0
 14 15  1  0
 16 15  1  0
 17 16  1  0
 18 20  1  0
 18 17  1  1
 19 18  1  0
 20 22  1  0
 21 20  2  0
M  END
$$$$
