LAM.pdb
     RDKit          3D

 22 21  0  0  1  0  0  0  0  0999 V2000
    2.9489  -19.9133   21.2726 C   0  0  0  0  0  0  0  0  0  0  0  0
    4.0048  -19.0496   20.6471 C   0  0  2  0  0  0  0  0  0  0  0  0
    3.8422  -18.9109   19.1594 C   0  0  0  0  0  0  0  0  0  0  0  0
    5.3624  -19.5591   21.0395 C   0  0  0  0  0  0  0  0  0  0  0  0
    5.8516  -18.7080   22.2099 C   0  0  2  0  0  0  0  0  0  0  0  0
    4.7169  -18.0642   22.8511 N   0  0  0  0  0  0  0  0  0  0  0  0
    6.8273  -17.7127   21.6984 C   0  0  0  0  0  0  0  0  0  0  0  0
    7.8295  -18.1276   21.0869 O   0  0  0  0  0  0  0  0  0  0  0  0
    6.8807  -14.1089   20.9745 C   0  0  0  0  0  0  0  0  0  0  0  0
    7.5420  -15.3716   21.4917 C   0  0  2  0  0  0  0  0  0  0  0  0
    6.5654  -16.3453   21.9336 N   0  0  0  0  0  0  0  0  0  0  0  0
    8.3451  -14.9693   22.6822 C   0  0  0  0  0  0  0  0  0  0  0  0
    9.3830  -14.2783   22.5399 O   0  0  0  0  0  0  0  0  0  0  0  0
    7.3938  -11.5142   27.9054 C   0  0  0  0  0  0  0  0  0  0  0  0
    6.6294  -11.9015   26.3400 S   0  0  0  0  0  0  0  0  0  0  0  0
    6.7168  -13.5935   25.8436 C   0  0  0  0  0  0  0  0  0  0  0  0
    7.9398  -14.3398   26.1284 C   0  0  0  0  0  0  0  0  0  0  0  0
    8.7050  -15.0811   25.1275 C   0  0  2  0  0  0  0  0  0  0  0  0
    7.9096  -15.3831   23.9572 N   0  0  0  0  0  0  0  0  0  0  0  0
    9.4154  -16.2956   25.5135 C   0  0  0  0  0  0  0  0  0  0  0  0
    9.2013  -17.4107   24.9364 O   0  0  0  0  0  0  0  0  0  0  0  0
   10.3564  -16.2873   26.5273 O   0  0  0  0  0  0  0  0  0  0  0  0
  2  3  1  6
  2  1  1  0
  4  5  1  0
  4  2  1  0
  5  6  1  6
  7 11  1  0
  7  5  1  0
  8  7  2  0
 10  9  1  1
 10 12  1  0
 10 11  1  0
 12 19  1  0
 13 12  2  0
 14 15  1  0
 16 15  1  0
 17 16  1  0
 18 20  1  0
 18 17  1  1
 19 18  1  0
 20 22  1  0
 21 20  2  0
M  END
$$$$
