LAM.pdb
     RDKit          3D

 22 21  0  0  1  0  0  0  0  0999 V2000
    9.7729  -13.4462   18.5590 C   0  0  0  0  0  0  0  0  0  0  0  0
    8.3071  -13.4692   18.8798 C   0  0  2  0  0  0  0  0  0  0  0  0
    7.6796  -12.1038   18.8495 C   0  0  0  0  0  0  0  0  0  0  0  0
    8.0940  -14.1792   20.1864 C   0  0  0  0  0  0  0  0  0  0  0  0
    8.8157  -15.5229   20.1019 C   0  0  2  0  0  0  0  0  0  0  0  0
    8.0982  -16.4044   19.1957 N   0  0  0  0  0  0  0  0  0  0  0  0
    8.9074  -16.0996   21.4669 C   0  0  0  0  0  0  0  0  0  0  0  0
    7.8578  -16.2359   22.1229 O   0  0  0  0  0  0  0  0  0  0  0  0
   11.6208  -17.8234   23.4003 C   0  0  0  0  0  0  0  0  0  0  0  0
   10.2672  -17.1665   23.2125 C   0  0  2  0  0  0  0  0  0  0  0  0
   10.1836  -16.4637   21.9490 N   0  0  0  0  0  0  0  0  0  0  0  0
   10.1361  -16.1534   24.2990 C   0  0  0  0  0  0  0  0  0  0  0  0
   10.8197  -15.1014   24.2677 O   0  0  0  0  0  0  0  0  0  0  0  0
    7.0391  -10.9954   26.6757 C   0  0  0  0  0  0  0  0  0  0  0  0
    6.2797  -12.5641   27.0595 S   0  0  0  0  0  0  0  0  0  0  0  0
    7.3903  -13.8659   27.4940 C   0  0  0  0  0  0  0  0  0  0  0  0
    7.8371  -14.7785   26.4446 C   0  0  0  0  0  0  0  0  0  0  0  0
    9.1209  -15.4775   26.4517 C   0  0  2  0  0  0  0  0  0  0  0  0
    9.2326  -16.4089   25.3502 N   0  0  0  0  0  0  0  0  0  0  0  0
    9.5675  -16.1580   27.6625 C   0  0  0  0  0  0  0  0  0  0  0  0
    9.6465  -15.5545   28.7814 O   0  0  0  0  0  0  0  0  0  0  0  0
    9.9255  -17.4940   27.6466 O   0  0  0  0  0  0  0  0  0  0  0  0
  2  3  1  1
  2  1  1  0
  4  5  1  0
  4  2  1  0
  5  6  1  6
  7 11  1  0
  7  5  1  0
  8  7  2  0
 10  9  1  1
 10 12  1  0
 10 11  1  0
 12 19  1  0
 13 12  2  0
 14 15  1  0
 16 15  1  0
 17 16  1  0
 18 20  1  0
 18 17  1  1
 19 18  1  0
 20 22  1  0
 21 20  2  0
M  END
$$$$
