LAM.pdb
     RDKit          3D

 22 21  0  0  1  0  0  0  0  0999 V2000
    7.1045  -20.3145   18.7954 C   0  0  0  0  0  0  0  0  0  0  0  0
    7.2159  -18.9011   18.3034 C   0  0  2  0  0  0  0  0  0  0  0  0
    7.0935  -18.7897   16.8096 C   0  0  0  0  0  0  0  0  0  0  0  0
    8.4818  -18.2881   18.8313 C   0  0  0  0  0  0  0  0  0  0  0  0
    8.2162  -17.8551   20.2719 C   0  0  2  0  0  0  0  0  0  0  0  0
    6.7936  -17.9514   20.5546 N   0  0  0  0  0  0  0  0  0  0  0  0
    8.7163  -16.4687   20.4512 C   0  0  0  0  0  0  0  0  0  0  0  0
    9.9283  -16.2491   20.2686 O   0  0  0  0  0  0  0  0  0  0  0  0
    7.0994  -13.1183   20.9304 C   0  0  0  0  0  0  0  0  0  0  0  0
    8.2523  -14.1032   20.9241 C   0  0  2  0  0  0  0  0  0  0  0  0
    7.7877  -15.4709   20.8200 N   0  0  0  0  0  0  0  0  0  0  0  0
    8.9356  -13.9604   22.2420 C   0  0  0  0  0  0  0  0  0  0  0  0
    9.4894  -12.8779   22.5523 O   0  0  0  0  0  0  0  0  0  0  0  0
    6.0577  -11.1427   26.4981 C   0  0  0  0  0  0  0  0  0  0  0  0
    7.1332  -12.4922   26.9529 S   0  0  0  0  0  0  0  0  0  0  0  0
    6.8456  -14.0171   26.1108 C   0  0  0  0  0  0  0  0  0  0  0  0
    7.4309  -14.2007   24.7851 C   0  0  0  0  0  0  0  0  0  0  0  0
    8.7076  -14.8667   24.5328 C   0  0  2  0  0  0  0  0  0  0  0  0
    8.9413  -15.0640   23.1187 N   0  0  0  0  0  0  0  0  0  0  0  0
    9.0197  -16.1161   25.2184 C   0  0  0  0  0  0  0  0  0  0  0  0
    8.9859  -16.2118   26.4881 O   0  0  0  0  0  0  0  0  0  0  0  0
    9.3669  -17.2555   24.5151 O   0  0  0  0  0  0  0  0  0  0  0  0
  2  3  1  6
  2  1  1  0
  4  5  1  0
  4  2  1  0
  5  6  1  6
  7 11  1  0
  7  5  1  0
  8  7  2  0
 10  9  1  1
 10 12  1  0
 10 11  1  0
 12 19  1  0
 13 12  2  0
 14 15  1  0
 16 15  1  0
 17 16  1  0
 18 20  1  0
 18 17  1  6
 19 18  1  0
 20 22  1  0
 21 20  2  0
M  END
$$$$
