LAM.pdb
     RDKit          3D

 22 21  0  0  1  0  0  0  0  0999 V2000
    9.4443  -12.2186   19.2782 C   0  0  0  0  0  0  0  0  0  0  0  0
    8.3792  -13.0737   18.6564 C   0  0  2  0  0  0  0  0  0  0  0  0
    7.3236  -12.2716   17.9484 C   0  0  0  0  0  0  0  0  0  0  0  0
    7.8099  -13.9959   19.6967 C   0  0  0  0  0  0  0  0  0  0  0  0
    8.9841  -14.6381   20.4330 C   0  0  2  0  0  0  0  0  0  0  0  0
    9.7702  -15.4282   19.4998 N   0  0  0  0  0  0  0  0  0  0  0  0
    8.4520  -15.4709   21.5410 C   0  0  0  0  0  0  0  0  0  0  0  0
    7.5544  -14.9942   22.2604 O   0  0  0  0  0  0  0  0  0  0  0  0
    9.0452  -18.9826   22.7632 C   0  0  0  0  0  0  0  0  0  0  0  0
    8.5102  -17.5650   22.8237 C   0  0  2  0  0  0  0  0  0  0  0  0
    8.9939  -16.7625   21.7196 N   0  0  0  0  0  0  0  0  0  0  0  0
    9.0439  -16.9666   24.0811 C   0  0  0  0  0  0  0  0  0  0  0  0
   10.1977  -16.4735   24.1059 O   0  0  0  0  0  0  0  0  0  0  0  0
    6.6129  -11.1068   26.4623 C   0  0  0  0  0  0  0  0  0  0  0  0
    6.4853  -12.7989   27.0148 S   0  0  0  0  0  0  0  0  0  0  0  0
    7.7549  -13.8868   26.4477 C   0  0  0  0  0  0  0  0  0  0  0  0
    7.7135  -15.2845   26.8705 C   0  0  0  0  0  0  0  0  0  0  0  0
    8.6643  -16.3058   26.4350 C   0  0  2  0  0  0  0  0  0  0  0  0
    8.2243  -16.9708   25.2277 N   0  0  0  0  0  0  0  0  0  0  0  0
    9.1080  -17.3293   27.3754 C   0  0  0  0  0  0  0  0  0  0  0  0
    8.7019  -18.5340   27.2974 O   0  0  0  0  0  0  0  0  0  0  0  0
    9.9930  -17.0331   28.3964 O   0  0  0  0  0  0  0  0  0  0  0  0
  2  3  1  1
  2  1  1  0
  4  5  1  0
  4  2  1  0
  5  6  1  6
  7 11  1  0
  7  5  1  0
  8  7  2  0
 10  9  1  6
 10 12  1  0
 10 11  1  0
 12 19  1  0
 13 12  2  0
 14 15  1  0
 16 15  1  0
 17 16  1  0
 18 20  1  0
 18 17  1  1
 19 18  1  0
 20 22  1  0
 21 20  2  0
M  END
$$$$
