LAM.pdb
     RDKit          3D

 22 21  0  0  1  0  0  0  0  0999 V2000
    9.4412  -13.1660   19.0408 C   0  0  0  0  0  0  0  0  0  0  0  0
    8.0316  -13.2773   19.5437 C   0  0  2  0  0  0  0  0  0  0  0  0
    7.4311  -11.9469   19.9022 C   0  0  0  0  0  0  0  0  0  0  0  0
    7.9831  -14.2624   20.6769 C   0  0  0  0  0  0  0  0  0  0  0  0
    8.5360  -15.5880   20.1569 C   0  0  2  0  0  0  0  0  0  0  0  0
    7.5676  -16.2023   19.2637 N   0  0  0  0  0  0  0  0  0  0  0  0
    8.8416  -16.4630   21.3167 C   0  0  0  0  0  0  0  0  0  0  0  0
    7.9177  -16.7492   22.1010 O   0  0  0  0  0  0  0  0  0  0  0  0
   11.7648  -18.5578   22.3641 C   0  0  0  0  0  0  0  0  0  0  0  0
   10.4667  -17.8042   22.5794 C   0  0  2  0  0  0  0  0  0  0  0  0
   10.1672  -16.9250   21.4683 N   0  0  0  0  0  0  0  0  0  0  0  0
   10.6704  -16.9503   23.7850 C   0  0  0  0  0  0  0  0  0  0  0  0
   10.7480  -15.7030   23.6700 O   0  0  0  0  0  0  0  0  0  0  0  0
   10.7221  -13.6500   29.4267 C   0  0  0  0  0  0  0  0  0  0  0  0
   10.0926  -13.6802   27.7571 S   0  0  0  0  0  0  0  0  0  0  0  0
    9.0805  -15.0671   27.3458 C   0  0  0  0  0  0  0  0  0  0  0  0
    9.4902  -15.9220   26.2345 C   0  0  0  0  0  0  0  0  0  0  0  0
   10.6636  -16.7936   26.2542 C   0  0  2  0  0  0  0  0  0  0  0  0
   10.7719  -17.5776   25.0431 N   0  0  0  0  0  0  0  0  0  0  0  0
   10.8836  -17.6853   27.3879 C   0  0  0  0  0  0  0  0  0  0  0  0
   11.7997  -17.4673   28.2455 O   0  0  0  0  0  0  0  0  0  0  0  0
   10.1024  -18.8105   27.5804 O   0  0  0  0  0  0  0  0  0  0  0  0
  2  3  1  1
  2  1  1  0
  4  5  1  0
  4  2  1  0
  5  6  1  6
  7 11  1  0
  7  5  1  0
  8  7  2  0
 10  9  1  6
 10 12  1  0
 10 11  1  0
 12 19  1  0
 13 12  2  0
 14 15  1  0
 16 15  1  0
 17 16  1  0
 18 20  1  0
 18 17  1  1
 19 18  1  0
 20 22  1  0
 21 20  2  0
M  END
$$$$
