LAM.pdb
     RDKit          3D

 22 21  0  0  1  0  0  0  0  0999 V2000
    9.2008  -13.5413   18.6627 C   0  0  0  0  0  0  0  0  0  0  0  0
    7.8837  -13.4137   19.3706 C   0  0  2  0  0  0  0  0  0  0  0  0
    7.4046  -11.9923   19.4642 C   0  0  0  0  0  0  0  0  0  0  0  0
    7.9704  -14.0884   20.7100 C   0  0  0  0  0  0  0  0  0  0  0  0
    8.3171  -15.5556   20.4636 C   0  0  2  0  0  0  0  0  0  0  0  0
    7.2571  -16.1830   19.6917 N   0  0  0  0  0  0  0  0  0  0  0  0
    8.5081  -16.2253   21.7747 C   0  0  0  0  0  0  0  0  0  0  0  0
    7.5098  -16.4089   22.4959 O   0  0  0  0  0  0  0  0  0  0  0  0
   11.3229  -17.9898   23.5017 C   0  0  0  0  0  0  0  0  0  0  0  0
   10.0204  -17.2162   23.4377 C   0  0  2  0  0  0  0  0  0  0  0  0
    9.8155  -16.6193   22.1342 N   0  0  0  0  0  0  0  0  0  0  0  0
   10.1409  -16.1058   24.4259 C   0  0  0  0  0  0  0  0  0  0  0  0
   10.8343  -15.0946   24.1584 O   0  0  0  0  0  0  0  0  0  0  0  0
    6.1629  -11.6536   25.9728 C   0  0  0  0  0  0  0  0  0  0  0  0
    7.5917  -11.7466   27.0381 S   0  0  0  0  0  0  0  0  0  0  0  0
    7.9789  -13.3528   27.6603 C   0  0  0  0  0  0  0  0  0  0  0  0
    8.2542  -14.4217   26.7035 C   0  0  0  0  0  0  0  0  0  0  0  0
    9.5199  -15.1484   26.6211 C   0  0  2  0  0  0  0  0  0  0  0  0
    9.4611  -16.2237   25.6549 N   0  0  0  0  0  0  0  0  0  0  0  0
   10.1352  -15.6699   27.8369 C   0  0  0  0  0  0  0  0  0  0  0  0
   10.3982  -14.9190   28.8315 O   0  0  0  0  0  0  0  0  0  0  0  0
   10.4601  -17.0087   27.9617 O   0  0  0  0  0  0  0  0  0  0  0  0
  2  3  1  1
  2  1  1  0
  4  5  1  0
  4  2  1  0
  5  6  1  1
  7 11  1  0
  7  5  1  0
  8  7  2  0
 10  9  1  6
 10 12  1  0
 10 11  1  0
 12 19  1  0
 13 12  2  0
 14 15  1  0
 16 15  1  0
 17 16  1  0
 18 20  1  0
 18 17  1  1
 19 18  1  0
 20 22  1  0
 21 20  2  0
M  END
$$$$
