HQF.pdb
     RDKit          3D

 31 32  0  0  1  0  0  0  0  0999 V2000
   29.8709  -21.5429  -18.1528 N   0  0  0  0  0  0  0  0  0  0  0  0
   28.9557  -22.2152  -17.2584 C   0  0  1  0  0  0  0  0  0  0  0  0
   29.6738  -23.3201  -16.4959 C   0  0  0  0  0  0  0  0  0  0  0  0
   30.0870  -24.4350  -17.3533 C   0  0  0  0  0  0  0  0  0  0  0  0
   31.3383  -24.7293  -17.8644 C   0  0  0  0  0  0  0  0  0  0  0  0
   31.2422  -25.8582  -18.6034 N   0  0  0  0  0  0  0  0  0  0  0  0
   29.9708  -26.2732  -18.5667 C   0  0  0  0  0  0  0  0  0  0  0  0
   29.2843  -25.4123  -17.8136 N   0  0  0  0  0  0  0  0  0  0  0  0
   28.3630  -21.2724  -16.2946 C   0  0  0  0  0  0  0  0  0  0  0  0
   28.7436  -20.0637  -16.3069 O   0  0  0  0  0  0  0  0  0  0  0  0
   24.0435  -18.4897  -17.0774 N   0  0  0  0  0  0  0  0  0  0  0  0
   24.0260  -18.1333  -15.7178 C   0  0  0  0  0  0  0  0  0  0  0  0
   23.2804  -17.2031  -15.3330 O   0  0  0  0  0  0  0  0  0  0  0  0
   24.8870  -18.8659  -14.7846 C   0  0  0  0  0  0  0  0  0  0  0  0
   25.7358  -19.8414  -15.5789 C   0  0  0  0  0  0  0  0  0  0  0  0
   26.5951  -20.6639  -14.6405 C   0  0  2  0  0  0  0  0  0  0  0  0
   27.3883  -21.6315  -15.3482 N   0  0  0  0  0  0  0  0  0  0  0  0
   25.7072  -21.3277  -13.6514 C   0  0  0  0  0  0  0  0  0  0  0  0
   24.9025  -22.2231  -14.0035 O   0  0  0  0  0  0  0  0  0  0  0  0
   25.7492  -20.9666  -12.2993 N   0  0  0  0  0  0  0  0  0  0  0  0
   24.9318  -21.5752  -11.2630 C   0  0  1  0  0  0  0  0  0  0  0  0
   25.7312  -22.1617  -10.1675 C   0  0  0  0  0  0  0  0  0  0  0  0
   26.5188  -21.1288   -9.4731 C   0  0  0  0  0  0  0  0  0  0  0  0
   27.8698  -20.9322   -9.7836 C   0  0  0  0  0  0  0  0  0  0  0  0
   28.6263  -19.9671   -9.1780 C   0  0  0  0  0  0  0  0  0  0  0  0
   28.0728  -19.1394   -8.2228 C   0  0  0  0  0  0  0  0  0  0  0  0
   26.7581  -19.3192   -7.9104 C   0  0  0  0  0  0  0  0  0  0  0  0
   25.9887  -20.2921   -8.5186 C   0  0  0  0  0  0  0  0  0  0  0  0
   24.0086  -20.5448  -10.7714 C   0  0  0  0  0  0  0  0  0  0  0  0
   24.1544  -19.3266  -11.0183 O   0  0  0  0  0  0  0  0  0  0  0  0
   22.8998  -20.8768   -9.9887 O   0  0  0  0  0  0  0  0  0  0  0  0
  2  1  1  6
  3  2  1  0
  4  5  2  0
  4  3  1  0
  6  5  1  0
  7  8  2  0
  7  6  1  0
  8  4  1  0
  9 17  1  0
  9  2  1  0
 10  9  2  0
 11 12  1  0
 12 14  1  0
 13 12  2  0
 14 15  1  0
 16 15  1  6
 16 17  1  0
 18 16  1  0
 19 18  2  0
 20 18  1  0
 21 29  1  0
 21 20  1  0
 22 23  1  0
 21 22  1  1
 23 28  1  0
 24 23  2  0
 24 25  1  0
 25 26  2  0
 26 27  1  0
 28 27  2  0
 29 31  1  0
 30 29  2  0
M  END
$$$$
