HQF.pdb
     RDKit          3D

 31 32  0  0  1  0  0  0  0  0999 V2000
   30.1347  -25.8686  -19.7818 N   0  0  0  0  0  0  0  0  0  0  0  0
   30.4109  -26.6572  -18.6022 C   0  0  1  0  0  0  0  0  0  0  0  0
   29.1593  -27.3997  -18.1548 C   0  0  0  0  0  0  0  0  0  0  0  0
   28.1525  -26.5192  -17.5549 C   0  0  0  0  0  0  0  0  0  0  0  0
   28.2272  -25.1665  -17.2754 C   0  0  0  0  0  0  0  0  0  0  0  0
   27.0545  -24.7798  -16.7235 N   0  0  0  0  0  0  0  0  0  0  0  0
   26.2548  -25.8499  -16.6519 C   0  0  0  0  0  0  0  0  0  0  0  0
   26.9225  -26.8901  -17.1535 N   0  0  0  0  0  0  0  0  0  0  0  0
   31.4853  -27.6329  -18.8527 C   0  0  0  0  0  0  0  0  0  0  0  0
   31.6265  -28.1019  -20.0215 O   0  0  0  0  0  0  0  0  0  0  0  0
   37.2371  -27.5304  -17.4602 N   0  0  0  0  0  0  0  0  0  0  0  0
   37.1832  -28.8438  -17.9581 C   0  0  0  0  0  0  0  0  0  0  0  0
   38.2456  -29.4887  -18.1153 O   0  0  0  0  0  0  0  0  0  0  0  0
   35.8760  -29.4235  -18.2808 C   0  0  0  0  0  0  0  0  0  0  0  0
   34.7978  -28.4442  -17.8548 C   0  0  0  0  0  0  0  0  0  0  0  0
   33.4279  -29.0272  -18.1357 C   0  0  2  0  0  0  0  0  0  0  0  0
   32.3774  -28.0841  -17.8652 N   0  0  0  0  0  0  0  0  0  0  0  0
   33.2628  -30.2546  -17.3150 C   0  0  0  0  0  0  0  0  0  0  0  0
   33.2214  -30.1943  -16.0628 O   0  0  0  0  0  0  0  0  0  0  0  0
   33.1496  -31.5104  -17.9237 N   0  0  0  0  0  0  0  0  0  0  0  0
   32.8799  -32.7464  -17.2082 C   0  0  1  0  0  0  0  0  0  0  0  0
   31.5465  -33.3078  -17.5081 C   0  0  0  0  0  0  0  0  0  0  0  0
   30.4776  -32.4742  -16.9320 C   0  0  0  0  0  0  0  0  0  0  0  0
   30.2235  -32.4903  -15.5553 C   0  0  0  0  0  0  0  0  0  0  0  0
   29.2565  -31.7120  -14.9812 C   0  0  0  0  0  0  0  0  0  0  0  0
   28.4845  -30.8691  -15.7542 C   0  0  0  0  0  0  0  0  0  0  0  0
   28.7210  -30.8429  -17.0965 C   0  0  0  0  0  0  0  0  0  0  0  0
   29.6963  -31.6264  -17.6823 C   0  0  0  0  0  0  0  0  0  0  0  0
   33.9549  -33.6893  -17.5418 C   0  0  0  0  0  0  0  0  0  0  0  0
   34.8224  -33.4521  -18.4120 O   0  0  0  0  0  0  0  0  0  0  0  0
   34.0669  -34.9219  -16.8933 O   0  0  0  0  0  0  0  0  0  0  0  0
  2  1  1  6
  3  2  1  0
  4  5  2  0
  4  3  1  0
  6  5  1  0
  7  8  2  0
  7  6  1  0
  8  4  1  0
  9 17  1  0
  9  2  1  0
 10  9  2  0
 11 12  1  0
 12 14  1  0
 13 12  2  0
 14 15  1  0
 16 15  1  1
 16 17  1  0
 18 16  1  0
 19 18  2  0
 20 18  1  0
 21 29  1  0
 21 20  1  0
 22 23  1  0
 21 22  1  6
 23 28  1  0
 24 23  2  0
 24 25  1  0
 25 26  2  0
 26 27  1  0
 28 27  2  0
 29 31  1  0
 30 29  2  0
M  END
$$$$
