HQF.pdb
     RDKit          3D

 31 32  0  0  1  0  0  0  0  0999 V2000
   27.4924  -20.9671  -17.0729 N   0  0  0  0  0  0  0  0  0  0  0  0
   27.5900  -21.6650  -15.8107 C   0  0  1  0  0  0  0  0  0  0  0  0
   29.0017  -22.1969  -15.6058 C   0  0  0  0  0  0  0  0  0  0  0  0
   29.3291  -23.3153  -16.4951 C   0  0  0  0  0  0  0  0  0  0  0  0
   28.5455  -23.9276  -17.4568 C   0  0  0  0  0  0  0  0  0  0  0  0
   29.2690  -24.9162  -18.0301 N   0  0  0  0  0  0  0  0  0  0  0  0
   30.4765  -24.9364  -17.4543 C   0  0  0  0  0  0  0  0  0  0  0  0
   30.5036  -23.9714  -16.5336 N   0  0  0  0  0  0  0  0  0  0  0  0
   27.2404  -20.7822  -14.6850 C   0  0  0  0  0  0  0  0  0  0  0  0
   27.9555  -19.7597  -14.4635 O   0  0  0  0  0  0  0  0  0  0  0  0
   22.2680  -19.3475  -11.5411 N   0  0  0  0  0  0  0  0  0  0  0  0
   22.3032  -20.1583  -12.6888 C   0  0  0  0  0  0  0  0  0  0  0  0
   21.2662  -20.7602  -13.0515 O   0  0  0  0  0  0  0  0  0  0  0  0
   23.5613  -20.2761  -13.4319 C   0  0  0  0  0  0  0  0  0  0  0  0
   24.6169  -19.4470  -12.7239 C   0  0  0  0  0  0  0  0  0  0  0  0
   25.9166  -20.2214  -12.6441 C   0  0  2  0  0  0  0  0  0  0  0  0
   26.1491  -21.0032  -13.8278 N   0  0  0  0  0  0  0  0  0  0  0  0
   25.8741  -21.0867  -11.4372 C   0  0  0  0  0  0  0  0  0  0  0  0
   25.5768  -22.3022  -11.5231 O   0  0  0  0  0  0  0  0  0  0  0  0
   26.1660  -20.5620  -10.1723 N   0  0  0  0  0  0  0  0  0  0  0  0
   26.1693  -21.3389   -8.9439 C   0  0  1  0  0  0  0  0  0  0  0  0
   27.4904  -21.3676   -8.2827 C   0  0  0  0  0  0  0  0  0  0  0  0
   27.5510  -20.3983   -7.1754 C   0  0  0  0  0  0  0  0  0  0  0  0
   27.8069  -19.0446   -7.4249 C   0  0  0  0  0  0  0  0  0  0  0  0
   27.8463  -18.1117   -6.4256 C   0  0  0  0  0  0  0  0  0  0  0  0
   27.6311  -18.4805   -5.1135 C   0  0  0  0  0  0  0  0  0  0  0  0
   27.3806  -19.7955   -4.8556 C   0  0  0  0  0  0  0  0  0  0  0  0
   27.3394  -20.7424   -5.8605 C   0  0  0  0  0  0  0  0  0  0  0  0
   25.1342  -20.7768   -8.0672 C   0  0  0  0  0  0  0  0  0  0  0  0
   24.6047  -19.6608   -8.2680 O   0  0  0  0  0  0  0  0  0  0  0  0
   24.6787  -21.4713   -6.9435 O   0  0  0  0  0  0  0  0  0  0  0  0
  2  1  1  6
  3  2  1  0
  4  5  2  0
  4  3  1  0
  6  5  1  0
  7  8  2  0
  7  6  1  0
  8  4  1  0
  9 17  1  0
  9  2  1  0
 10  9  2  0
 11 12  1  0
 12 14  1  0
 13 12  2  0
 14 15  1  0
 16 15  1  6
 16 17  1  0
 18 16  1  0
 19 18  2  0
 20 18  1  0
 21 29  1  0
 21 20  1  0
 22 23  1  0
 21 22  1  1
 23 28  1  0
 24 23  2  0
 24 25  1  0
 25 26  2  0
 26 27  1  0
 28 27  2  0
 29 31  1  0
 30 29  2  0
M  END
$$$$
