HQF.pdb
     RDKit          3D

 31 32  0  0  1  0  0  0  0  0999 V2000
   25.0198  -17.3110  -15.9807 N   0  0  0  0  0  0  0  0  0  0  0  0
   26.1086  -17.6501  -15.0923 C   0  0  1  0  0  0  0  0  0  0  0  0
   26.7827  -16.3878  -14.5725 C   0  0  0  0  0  0  0  0  0  0  0  0
   27.8001  -15.8615  -15.4873 C   0  0  0  0  0  0  0  0  0  0  0  0
   28.2154  -16.3536  -16.7117 C   0  0  0  0  0  0  0  0  0  0  0  0
   29.1785  -15.5362  -17.1952 N   0  0  0  0  0  0  0  0  0  0  0  0
   29.3736  -14.5527  -16.3095 C   0  0  0  0  0  0  0  0  0  0  0  0
   28.5414  -14.7562  -15.2869 N   0  0  0  0  0  0  0  0  0  0  0  0
   25.6349  -18.4481  -13.9488 C   0  0  0  0  0  0  0  0  0  0  0  0
   24.6980  -17.9904  -13.2287 O   0  0  0  0  0  0  0  0  0  0  0  0
   24.9233  -24.4231  -14.0618 N   0  0  0  0  0  0  0  0  0  0  0  0
   24.3914  -24.1595  -12.7877 C   0  0  0  0  0  0  0  0  0  0  0  0
   23.7698  -25.0610  -12.1794 O   0  0  0  0  0  0  0  0  0  0  0  0
   24.5815  -22.8278  -12.2049 C   0  0  0  0  0  0  0  0  0  0  0  0
   25.3673  -21.9806  -13.1887 C   0  0  0  0  0  0  0  0  0  0  0  0
   25.5318  -20.5754  -12.6465 C   0  0  2  0  0  0  0  0  0  0  0  0
   26.1621  -19.7029  -13.5991 N   0  0  0  0  0  0  0  0  0  0  0  0
   26.3209  -20.6467  -11.3897 C   0  0  0  0  0  0  0  0  0  0  0  0
   27.4925  -21.0943  -11.3863 O   0  0  0  0  0  0  0  0  0  0  0  0
   25.7716  -20.2140  -10.1766 N   0  0  0  0  0  0  0  0  0  0  0  0
   26.3821  -20.4340   -8.8761 C   0  0  1  0  0  0  0  0  0  0  0  0
   26.9776  -19.2090   -8.3035 C   0  0  0  0  0  0  0  0  0  0  0  0
   27.5953  -19.4809   -6.9944 C   0  0  0  0  0  0  0  0  0  0  0  0
   28.8929  -20.0000   -6.9113 C   0  0  0  0  0  0  0  0  0  0  0  0
   29.5083  -20.2420   -5.7141 C   0  0  0  0  0  0  0  0  0  0  0  0
   28.8586  -19.9776   -4.5259 C   0  0  0  0  0  0  0  0  0  0  0  0
   27.5944  -19.4717   -4.5914 C   0  0  0  0  0  0  0  0  0  0  0  0
   26.9675  -19.2250   -5.7975 C   0  0  0  0  0  0  0  0  0  0  0  0
   25.3502  -20.9993   -7.9976 C   0  0  0  0  0  0  0  0  0  0  0  0
   24.1281  -20.7806   -8.1549 O   0  0  0  0  0  0  0  0  0  0  0  0
   25.6854  -21.8252   -6.9216 O   0  0  0  0  0  0  0  0  0  0  0  0
  2  1  1  6
  3  2  1  0
  4  5  2  0
  4  3  1  0
  6  5  1  0
  7  8  2  0
  7  6  1  0
  8  4  1  0
  9 17  1  0
  9  2  1  0
 10  9  2  0
 11 12  1  0
 12 14  1  0
 13 12  2  0
 14 15  1  0
 16 15  1  6
 16 17  1  0
 18 16  1  0
 19 18  2  0
 20 18  1  0
 21 29  1  0
 21 20  1  0
 22 23  1  0
 21 22  1  1
 23 28  1  0
 24 23  2  0
 24 25  1  0
 25 26  2  0
 26 27  1  0
 28 27  2  0
 29 31  1  0
 30 29  2  0
M  END
$$$$
