HQF.pdb
     RDKit          3D

 31 32  0  0  1  0  0  0  0  0999 V2000
   25.5566  -18.0306  -15.6364 N   0  0  0  0  0  0  0  0  0  0  0  0
   26.5668  -18.4056  -14.6728 C   0  0  1  0  0  0  0  0  0  0  0  0
   27.3819  -17.1887  -14.2571 C   0  0  0  0  0  0  0  0  0  0  0  0
   28.0858  -16.5585  -15.3779 C   0  0  0  0  0  0  0  0  0  0  0  0
   29.0887  -17.0708  -16.1813 C   0  0  0  0  0  0  0  0  0  0  0  0
   29.4325  -16.1275  -17.0876 N   0  0  0  0  0  0  0  0  0  0  0  0
   28.6746  -15.0464  -16.8718 C   0  0  0  0  0  0  0  0  0  0  0  0
   27.8687  -15.3143  -15.8430 N   0  0  0  0  0  0  0  0  0  0  0  0
   25.9617  -19.0114  -13.4745 C   0  0  0  0  0  0  0  0  0  0  0  0
   24.9634  -18.4437  -12.9388 O   0  0  0  0  0  0  0  0  0  0  0  0
   24.4315  -24.6479  -12.8220 N   0  0  0  0  0  0  0  0  0  0  0  0
   23.7710  -23.5899  -13.4702 C   0  0  0  0  0  0  0  0  0  0  0  0
   22.8423  -23.8410  -14.2726 O   0  0  0  0  0  0  0  0  0  0  0  0
   24.1916  -22.2147  -13.1858 C   0  0  0  0  0  0  0  0  0  0  0  0
   25.3156  -22.2572  -12.1670 C   0  0  0  0  0  0  0  0  0  0  0  0
   25.7354  -20.8486  -11.7996 C   0  0  2  0  0  0  0  0  0  0  0  0
   26.4263  -20.1958  -12.8779 N   0  0  0  0  0  0  0  0  0  0  0  0
   26.5896  -20.9149  -10.5858 C   0  0  0  0  0  0  0  0  0  0  0  0
   27.7379  -21.4175  -10.6299 O   0  0  0  0  0  0  0  0  0  0  0  0
   26.1295  -20.4160   -9.3611 N   0  0  0  0  0  0  0  0  0  0  0  0
   26.8355  -20.5629   -8.0993 C   0  0  1  0  0  0  0  0  0  0  0  0
   27.3744  -19.2860   -7.5874 C   0  0  0  0  0  0  0  0  0  0  0  0
   28.0932  -19.4842   -6.3172 C   0  0  0  0  0  0  0  0  0  0  0  0
   27.4681  -19.2152   -5.0937 C   0  0  0  0  0  0  0  0  0  0  0  0
   28.0948  -19.4106   -3.8939 C   0  0  0  0  0  0  0  0  0  0  0  0
   29.3885  -19.8883   -3.8484 C   0  0  0  0  0  0  0  0  0  0  0  0
   30.0098  -20.1548   -5.0322 C   0  0  0  0  0  0  0  0  0  0  0  0
   29.3821  -19.9597   -6.2472 C   0  0  0  0  0  0  0  0  0  0  0  0
   25.9057  -21.1821   -7.1464 C   0  0  0  0  0  0  0  0  0  0  0  0
   24.6627  -21.1443   -7.2860 O   0  0  0  0  0  0  0  0  0  0  0  0
   26.3690  -21.8577   -6.0144 O   0  0  0  0  0  0  0  0  0  0  0  0
  2  1  1  6
  3  2  1  0
  4  5  2  0
  4  3  1  0
  6  5  1  0
  7  8  2  0
  7  6  1  0
  8  4  1  0
  9 17  1  0
  9  2  1  0
 10  9  2  0
 11 12  1  0
 12 14  1  0
 13 12  2  0
 14 15  1  0
 16 15  1  6
 16 17  1  0
 18 16  1  0
 19 18  2  0
 20 18  1  0
 21 29  1  0
 21 20  1  0
 22 23  1  0
 21 22  1  1
 23 28  1  0
 24 23  2  0
 24 25  1  0
 25 26  2  0
 26 27  1  0
 28 27  2  0
 29 31  1  0
 30 29  2  0
M  END
$$$$
