HQF.pdb
     RDKit          3D

 31 32  0  0  1  0  0  0  0  0999 V2000
   26.6590  -19.4443  -15.4627 N   0  0  0  0  0  0  0  0  0  0  0  0
   27.5762  -19.0514  -14.4168 C   0  0  1  0  0  0  0  0  0  0  0  0
   28.1185  -17.6540  -14.6835 C   0  0  0  0  0  0  0  0  0  0  0  0
   28.7318  -17.5187  -16.0080 C   0  0  0  0  0  0  0  0  0  0  0  0
   28.8616  -18.4604  -17.0130 C   0  0  0  0  0  0  0  0  0  0  0  0
   29.4962  -17.8831  -18.0588 N   0  0  0  0  0  0  0  0  0  0  0  0
   29.7640  -16.6132  -17.7341 C   0  0  0  0  0  0  0  0  0  0  0  0
   29.3014  -16.4032  -16.5006 N   0  0  0  0  0  0  0  0  0  0  0  0
   26.9206  -19.0694  -13.0982 C   0  0  0  0  0  0  0  0  0  0  0  0
   27.0845  -18.0834  -12.3191 O   0  0  0  0  0  0  0  0  0  0  0  0
   22.4872  -21.8365  -13.2281 N   0  0  0  0  0  0  0  0  0  0  0  0
   22.4080  -20.4357  -13.3144 C   0  0  0  0  0  0  0  0  0  0  0  0
   21.6484  -19.9113  -14.1613 O   0  0  0  0  0  0  0  0  0  0  0  0
   23.2227  -19.6250  -12.4045 C   0  0  0  0  0  0  0  0  0  0  0  0
   23.9965  -20.5583  -11.4917 C   0  0  0  0  0  0  0  0  0  0  0  0
   25.4340  -20.0943  -11.3744 C   0  0  2  0  0  0  0  0  0  0  0  0
   26.1129  -20.1245  -12.6410 N   0  0  0  0  0  0  0  0  0  0  0  0
   26.1258  -20.9561  -10.3814 C   0  0  0  0  0  0  0  0  0  0  0  0
   26.4060  -22.1499  -10.6453 O   0  0  0  0  0  0  0  0  0  0  0  0
   26.4815  -20.4525   -9.1243 N   0  0  0  0  0  0  0  0  0  0  0  0
   27.0564  -21.2510   -8.0546 C   0  0  1  0  0  0  0  0  0  0  0  0
   28.3902  -20.7756   -7.6324 C   0  0  0  0  0  0  0  0  0  0  0  0
   28.3622  -20.2780   -6.2465 C   0  0  0  0  0  0  0  0  0  0  0  0
   27.9606  -18.9663   -5.9669 C   0  0  0  0  0  0  0  0  0  0  0  0
   27.8983  -18.4768   -4.6914 C   0  0  0  0  0  0  0  0  0  0  0  0
   28.2357  -19.2744   -3.6172 C   0  0  0  0  0  0  0  0  0  0  0  0
   28.6285  -20.5543   -3.8744 C   0  0  0  0  0  0  0  0  0  0  0  0
   28.6933  -21.0545   -5.1604 C   0  0  0  0  0  0  0  0  0  0  0  0
   26.0994  -21.2459   -6.9410 C   0  0  0  0  0  0  0  0  0  0  0  0
   25.1770  -20.4062   -6.8402 O   0  0  0  0  0  0  0  0  0  0  0  0
   26.1702  -22.1953   -5.9182 O   0  0  0  0  0  0  0  0  0  0  0  0
  2  1  1  6
  3  2  1  0
  4  5  2  0
  4  3  1  0
  6  5  1  0
  7  8  2  0
  7  6  1  0
  8  4  1  0
  9 17  1  0
  9  2  1  0
 10  9  2  0
 11 12  1  0
 12 14  1  0
 13 12  2  0
 14 15  1  0
 16 15  1  6
 16 17  1  0
 18 16  1  0
 19 18  2  0
 20 18  1  0
 21 29  1  0
 21 20  1  0
 22 23  1  0
 21 22  1  1
 23 28  1  0
 24 23  2  0
 24 25  1  0
 25 26  2  0
 26 27  1  0
 28 27  2  0
 29 31  1  0
 30 29  2  0
M  END
$$$$
