HQF.pdb
     RDKit          3D

 31 32  0  0  1  0  0  0  0  0999 V2000
   11.8460  -20.2055    1.5012 N   0  0  0  0  0  0  0  0  0  0  0  0
   12.8807  -20.6653    2.3999 C   0  0  1  0  0  0  0  0  0  0  0  0
   13.8971  -21.5147    1.6493 C   0  0  0  0  0  0  0  0  0  0  0  0
   13.3375  -22.7754    1.1529 C   0  0  0  0  0  0  0  0  0  0  0  0
   13.2309  -23.9977    1.7918 C   0  0  0  0  0  0  0  0  0  0  0  0
   12.6453  -24.8729    0.9428 N   0  0  0  0  0  0  0  0  0  0  0  0
   12.3854  -24.2319   -0.2024 C   0  0  0  0  0  0  0  0  0  0  0  0
   12.8046  -22.9727   -0.0671 N   0  0  0  0  0  0  0  0  0  0  0  0
   13.5759  -19.5335    3.0361 C   0  0  0  0  0  0  0  0  0  0  0  0
   13.7540  -18.4709    2.3690 O   0  0  0  0  0  0  0  0  0  0  0  0
   14.1500  -17.5463    9.3926 N   0  0  0  0  0  0  0  0  0  0  0  0
   15.2396  -17.4280    8.5126 C   0  0  0  0  0  0  0  0  0  0  0  0
   16.4047  -17.5720    8.9497 O   0  0  0  0  0  0  0  0  0  0  0  0
   14.9780  -17.1375    7.0997 C   0  0  0  0  0  0  0  0  0  0  0  0
   14.3290  -18.3566    6.4708 C   0  0  0  0  0  0  0  0  0  0  0  0
   14.6451  -18.4059    4.9899 C   0  0  2  0  0  0  0  0  0  0  0  0
   14.0617  -19.5557    4.3545 N   0  0  0  0  0  0  0  0  0  0  0  0
   16.1216  -18.4010    4.8247 C   0  0  0  0  0  0  0  0  0  0  0  0
   16.7961  -19.4425    5.0077 O   0  0  0  0  0  0  0  0  0  0  0  0
   16.7950  -17.2289    4.4598 N   0  0  0  0  0  0  0  0  0  0  0  0
   18.2268  -17.1462    4.2243 C   0  0  1  0  0  0  0  0  0  0  0  0
   18.5732  -16.2947    3.0676 C   0  0  0  0  0  0  0  0  0  0  0  0
   18.2630  -14.8804    3.3377 C   0  0  0  0  0  0  0  0  0  0  0  0
   19.2631  -13.9996    3.7671 C   0  0  0  0  0  0  0  0  0  0  0  0
   19.0184  -12.6751    4.0040 C   0  0  0  0  0  0  0  0  0  0  0  0
   17.7539  -12.1528    3.8243 C   0  0  0  0  0  0  0  0  0  0  0  0
   16.7701  -12.9988    3.4063 C   0  0  0  0  0  0  0  0  0  0  0  0
   17.0110  -14.3375    3.1653 C   0  0  0  0  0  0  0  0  0  0  0  0
   18.8473  -16.6601    5.4631 C   0  0  0  0  0  0  0  0  0  0  0  0
   18.2206  -16.0074    6.3276 O   0  0  0  0  0  0  0  0  0  0  0  0
   20.1936  -16.9053    5.7458 O   0  0  0  0  0  0  0  0  0  0  0  0
  2  1  1  6
  3  2  1  0
  4  5  2  0
  4  3  1  0
  6  5  1  0
  7  8  2  0
  7  6  1  0
  8  4  1  0
  9 17  1  0
  9  2  1  0
 10  9  2  0
 11 12  1  0
 12 14  1  0
 13 12  2  0
 14 15  1  0
 16 15  1  1
 16 17  1  0
 18 16  1  0
 19 18  2  0
 20 18  1  0
 21 29  1  0
 21 20  1  0
 22 23  1  0
 21 22  1  6
 23 28  1  0
 24 23  2  0
 24 25  1  0
 25 26  2  0
 26 27  1  0
 28 27  2  0
 29 31  1  0
 30 29  2  0
M  END
$$$$
