HQF.pdb
     RDKit          3D

 31 32  0  0  1  0  0  0  0  0999 V2000
   26.2739  -18.0711  -15.7318 N   0  0  0  0  0  0  0  0  0  0  0  0
   26.9256  -19.0486  -14.8897 C   0  0  1  0  0  0  0  0  0  0  0  0
   28.3951  -18.6954  -14.7054 C   0  0  0  0  0  0  0  0  0  0  0  0
   29.1505  -18.7064  -15.9616 C   0  0  0  0  0  0  0  0  0  0  0  0
   29.8115  -19.7545  -16.5766 C   0  0  0  0  0  0  0  0  0  0  0  0
   30.3676  -19.2951  -17.7208 N   0  0  0  0  0  0  0  0  0  0  0  0
   30.0724  -17.9952  -17.8349 C   0  0  0  0  0  0  0  0  0  0  0  0
   29.3411  -17.6502  -16.7738 N   0  0  0  0  0  0  0  0  0  0  0  0
   26.2807  -19.1284  -13.5680 C   0  0  0  0  0  0  0  0  0  0  0  0
   26.0784  -18.0585  -12.9196 O   0  0  0  0  0  0  0  0  0  0  0  0
   21.4587  -20.5959  -12.3046 N   0  0  0  0  0  0  0  0  0  0  0  0
   21.7632  -20.8091  -10.9490 C   0  0  0  0  0  0  0  0  0  0  0  0
   20.8901  -20.5893  -10.0781 O   0  0  0  0  0  0  0  0  0  0  0  0
   23.1030  -21.2857  -10.5927 C   0  0  0  0  0  0  0  0  0  0  0  0
   23.9422  -21.3481  -11.8556 C   0  0  0  0  0  0  0  0  0  0  0  0
   25.1004  -20.3763  -11.7566 C   0  0  2  0  0  0  0  0  0  0  0  0
   25.8689  -20.3317  -12.9704 N   0  0  0  0  0  0  0  0  0  0  0  0
   25.9505  -20.7749  -10.6052 C   0  0  0  0  0  0  0  0  0  0  0  0
   26.6711  -21.8002  -10.6579 O   0  0  0  0  0  0  0  0  0  0  0  0
   25.9657  -20.0119   -9.4313 N   0  0  0  0  0  0  0  0  0  0  0  0
   26.7678  -20.3257   -8.2605 C   0  0  1  0  0  0  0  0  0  0  0  0
   27.3135  -19.1242   -7.5960 C   0  0  0  0  0  0  0  0  0  0  0  0
   28.0561  -19.4835   -6.3758 C   0  0  0  0  0  0  0  0  0  0  0  0
   29.3564  -19.9963   -6.4564 C   0  0  0  0  0  0  0  0  0  0  0  0
   30.0857  -20.3179   -5.3450 C   0  0  0  0  0  0  0  0  0  0  0  0
   29.5544  -20.1443   -4.0835 C   0  0  0  0  0  0  0  0  0  0  0  0
   28.2891  -19.6456   -3.9897 C   0  0  0  0  0  0  0  0  0  0  0  0
   27.5475  -19.3188   -5.1084 C   0  0  0  0  0  0  0  0  0  0  0  0
   25.9269  -21.1153   -7.3521 C   0  0  0  0  0  0  0  0  0  0  0  0
   24.6790  -21.0240   -7.3279 O   0  0  0  0  0  0  0  0  0  0  0  0
   26.4863  -22.0256   -6.4517 O   0  0  0  0  0  0  0  0  0  0  0  0
  2  1  1  6
  3  2  1  0
  4  5  2  0
  4  3  1  0
  6  5  1  0
  7  8  2  0
  7  6  1  0
  8  4  1  0
  9 17  1  0
  9  2  1  0
 10  9  2  0
 11 12  1  0
 12 14  1  0
 13 12  2  0
 14 15  1  0
 16 15  1  6
 16 17  1  0
 18 16  1  0
 19 18  2  0
 20 18  1  0
 21 29  1  0
 21 20  1  0
 22 23  1  0
 21 22  1  1
 23 28  1  0
 24 23  2  0
 24 25  1  0
 25 26  2  0
 26 27  1  0
 28 27  2  0
 29 31  1  0
 30 29  2  0
M  END
$$$$
