HQF.pdb
     RDKit          3D

 31 32  0  0  1  0  0  0  0  0999 V2000
   25.4879  -21.5309  -16.4991 N   0  0  0  0  0  0  0  0  0  0  0  0
   25.7611  -22.0385  -15.1735 C   0  0  1  0  0  0  0  0  0  0  0  0
   27.2074  -22.5030  -15.0704 C   0  0  0  0  0  0  0  0  0  0  0  0
   27.4871  -23.6946  -15.8771 C   0  0  0  0  0  0  0  0  0  0  0  0
   28.2910  -23.8261  -16.9952 C   0  0  0  0  0  0  0  0  0  0  0  0
   28.2458  -25.1149  -17.4034 N   0  0  0  0  0  0  0  0  0  0  0  0
   27.4394  -25.7867  -16.5739 C   0  0  0  0  0  0  0  0  0  0  0  0
   26.9882  -24.9257  -15.6603 N   0  0  0  0  0  0  0  0  0  0  0  0
   25.5113  -21.0120  -14.1475 C   0  0  0  0  0  0  0  0  0  0  0  0
   25.2241  -19.8342  -14.5166 O   0  0  0  0  0  0  0  0  0  0  0  0
   21.7869  -19.8249  -13.4380 N   0  0  0  0  0  0  0  0  0  0  0  0
   21.8733  -21.0381  -12.7334 C   0  0  0  0  0  0  0  0  0  0  0  0
   21.0054  -21.9223  -12.9177 O   0  0  0  0  0  0  0  0  0  0  0  0
   22.9846  -21.2335  -11.7975 C   0  0  0  0  0  0  0  0  0  0  0  0
   23.7852  -19.9462  -11.7269 C   0  0  0  0  0  0  0  0  0  0  0  0
   25.2676  -20.2544  -11.7814 C   0  0  2  0  0  0  0  0  0  0  0  0
   25.5716  -21.2573  -12.7652 N   0  0  0  0  0  0  0  0  0  0  0  0
   25.7070  -20.6872  -10.4298 C   0  0  0  0  0  0  0  0  0  0  0  0
   25.4713  -21.8468  -10.0137 O   0  0  0  0  0  0  0  0  0  0  0  0
   26.3965  -19.8066   -9.5874 N   0  0  0  0  0  0  0  0  0  0  0  0
   26.8721  -20.1486   -8.2572 C   0  0  1  0  0  0  0  0  0  0  0  0
   27.8665  -19.1885   -7.7353 C   0  0  0  0  0  0  0  0  0  0  0  0
   28.2633  -19.5309   -6.3588 C   0  0  0  0  0  0  0  0  0  0  0  0
   27.6465  -18.9140   -5.2637 C   0  0  0  0  0  0  0  0  0  0  0  0
   27.9710  -19.2239   -3.9717 C   0  0  0  0  0  0  0  0  0  0  0  0
   28.9351  -20.1726   -3.6993 C   0  0  0  0  0  0  0  0  0  0  0  0
   29.5441  -20.7817   -4.7560 C   0  0  0  0  0  0  0  0  0  0  0  0
   29.2208  -20.4732   -6.0631 C   0  0  0  0  0  0  0  0  0  0  0  0
   25.6965  -20.2439   -7.3827 C   0  0  0  0  0  0  0  0  0  0  0  0
   24.7091  -19.4818   -7.4843 O   0  0  0  0  0  0  0  0  0  0  0  0
   25.6180  -21.2074   -6.3738 O   0  0  0  0  0  0  0  0  0  0  0  0
  2  1  1  6
  3  2  1  0
  4  5  2  0
  4  3  1  0
  6  5  1  0
  7  8  2  0
  7  6  1  0
  8  4  1  0
  9 17  1  0
  9  2  1  0
 10  9  2  0
 11 12  1  0
 12 14  1  0
 13 12  2  0
 14 15  1  0
 16 15  1  1
 16 17  1  0
 18 16  1  0
 19 18  2  0
 20 18  1  0
 21 29  1  0
 21 20  1  0
 22 23  1  0
 21 22  1  1
 23 28  1  0
 24 23  2  0
 24 25  1  0
 25 26  2  0
 26 27  1  0
 28 27  2  0
 29 31  1  0
 30 29  2  0
M  END
$$$$
