HQF.pdb
     RDKit          3D

 31 32  0  0  1  0  0  0  0  0999 V2000
   25.4663  -19.0251  -16.1411 N   0  0  0  0  0  0  0  0  0  0  0  0
   26.3868  -19.1545  -15.0340 C   0  0  1  0  0  0  0  0  0  0  0  0
   27.4106  -18.0280  -15.0602 C   0  0  0  0  0  0  0  0  0  0  0  0
   28.1710  -17.9716  -16.3122 C   0  0  0  0  0  0  0  0  0  0  0  0
   28.1053  -18.8047  -17.4147 C   0  0  0  0  0  0  0  0  0  0  0  0
   28.9944  -18.3652  -18.3345 N   0  0  0  0  0  0  0  0  0  0  0  0
   29.6093  -17.2861  -17.8373 C   0  0  0  0  0  0  0  0  0  0  0  0
   29.1084  -17.0570  -16.6223 N   0  0  0  0  0  0  0  0  0  0  0  0
   25.6764  -19.1290  -13.7442 C   0  0  0  0  0  0  0  0  0  0  0  0
   25.1138  -18.0549  -13.3760 O   0  0  0  0  0  0  0  0  0  0  0  0
   21.4328  -22.4501  -11.7038 N   0  0  0  0  0  0  0  0  0  0  0  0
   21.4159  -21.2933  -12.5022 C   0  0  0  0  0  0  0  0  0  0  0  0
   20.3860  -21.0098  -13.1565 O   0  0  0  0  0  0  0  0  0  0  0  0
   22.6124  -20.4476  -12.5453 C   0  0  0  0  0  0  0  0  0  0  0  0
   23.6510  -21.0364  -11.6085 C   0  0  0  0  0  0  0  0  0  0  0  0
   24.9011  -20.1804  -11.6169 C   0  0  2  0  0  0  0  0  0  0  0  0
   25.5804  -20.2349  -12.8825 N   0  0  0  0  0  0  0  0  0  0  0  0
   25.7903  -20.6374  -10.5179 C   0  0  0  0  0  0  0  0  0  0  0  0
   26.3590  -21.7542  -10.5683 O   0  0  0  0  0  0  0  0  0  0  0  0
   26.0136  -19.8282   -9.3973 N   0  0  0  0  0  0  0  0  0  0  0  0
   26.7734  -20.2390   -8.2284 C   0  0  1  0  0  0  0  0  0  0  0  0
   27.5419  -19.1326   -7.6216 C   0  0  0  0  0  0  0  0  0  0  0  0
   28.2442  -19.5782   -6.4060 C   0  0  0  0  0  0  0  0  0  0  0  0
   29.4966  -20.1979   -6.4917 C   0  0  0  0  0  0  0  0  0  0  0  0
   30.1895  -20.6025   -5.3841 C   0  0  0  0  0  0  0  0  0  0  0  0
   29.6674  -20.4098   -4.1215 C   0  0  0  0  0  0  0  0  0  0  0  0
   28.4486  -19.8074   -4.0227 C   0  0  0  0  0  0  0  0  0  0  0  0
   27.7439  -19.3963   -5.1375 C   0  0  0  0  0  0  0  0  0  0  0  0
   25.8257  -20.8301   -7.2753 C   0  0  0  0  0  0  0  0  0  0  0  0
   24.6105  -20.5320   -7.2503 O   0  0  0  0  0  0  0  0  0  0  0  0
   26.2389  -21.7726   -6.3302 O   0  0  0  0  0  0  0  0  0  0  0  0
  2  1  1  6
  3  2  1  0
  4  5  2  0
  4  3  1  0
  6  5  1  0
  7  8  2  0
  7  6  1  0
  8  4  1  0
  9 17  1  0
  9  2  1  0
 10  9  2  0
 11 12  1  0
 12 14  1  0
 13 12  2  0
 14 15  1  0
 16 15  1  6
 16 17  1  0
 18 16  1  0
 19 18  2  0
 20 18  1  0
 21 29  1  0
 21 20  1  0
 22 23  1  0
 21 22  1  1
 23 28  1  0
 24 23  2  0
 24 25  1  0
 25 26  2  0
 26 27  1  0
 28 27  2  0
 29 31  1  0
 30 29  2  0
M  END
$$$$
