VHF.pdb
     RDKit          3D

 29 30  0  0  1  0  0  0  0  0999 V2000
    7.7971  -12.9548   19.8184 C   0  0  0  0  0  0  0  0  0  0  0  0
    8.6549  -14.0585   19.2511 C   0  0  2  0  0  0  0  0  0  0  0  0
    9.1828  -13.7157   17.8793 C   0  0  0  0  0  0  0  0  0  0  0  0
    8.0384  -15.4172   19.3146 C   0  0  2  0  0  0  0  0  0  0  0  0
    6.9204  -15.3748   18.3439 N   0  0  0  0  0  0  0  0  0  0  0  0
    7.5050  -15.8223   20.6137 C   0  0  0  0  0  0  0  0  0  0  0  0
    6.3200  -15.4734   20.9590 O   0  0  0  0  0  0  0  0  0  0  0  0
    8.2120  -16.5910   21.5457 N   0  0  0  0  0  0  0  0  0  0  0  0
    7.6492  -16.8999   22.9135 C   0  0  1  0  0  0  0  0  0  0  0  0
    7.6460  -18.3787   22.9379 C   0  0  0  0  0  0  0  0  0  0  0  0
    7.3879  -19.1145   24.1565 C   0  0  0  0  0  0  0  0  0  0  0  0
    7.0396  -18.8368   25.4333 C   0  0  0  0  0  0  0  0  0  0  0  0
    6.8682  -19.9665   26.1587 N   0  0  0  0  0  0  0  0  0  0  0  0
    7.1120  -20.9607   25.3213 C   0  0  0  0  0  0  0  0  0  0  0  0
    7.4264  -20.5003   24.1128 N   0  0  0  0  0  0  0  0  0  0  0  0
    8.6923  -16.3804   23.8594 C   0  0  0  0  0  0  0  0  0  0  0  0
    9.9090  -16.4129   23.4573 O   0  0  0  0  0  0  0  0  0  0  0  0
    8.3722  -15.8736   25.1251 N   0  0  0  0  0  0  0  0  0  0  0  0
    9.4669  -15.4264   26.0024 C   0  0  1  0  0  0  0  0  0  0  0  0
    9.4296  -13.9139   26.0485 C   0  0  0  0  0  0  0  0  0  0  0  0
    8.1142  -13.4081   26.5059 C   0  0  0  0  0  0  0  0  0  0  0  0
    6.9987  -13.4948   25.6700 C   0  0  0  0  0  0  0  0  0  0  0  0
    5.7889  -13.0286   26.1229 C   0  0  0  0  0  0  0  0  0  0  0  0
    5.6876  -12.4866   27.3812 C   0  0  0  0  0  0  0  0  0  0  0  0
    6.7987  -12.4063   28.1995 C   0  0  0  0  0  0  0  0  0  0  0  0
    8.0218  -12.8659   27.7704 C   0  0  0  0  0  0  0  0  0  0  0  0
    9.2418  -16.0176   27.3358 C   0  0  0  0  0  0  0  0  0  0  0  0
    8.1681  -16.8666   27.5404 O   0  0  0  0  0  0  0  0  0  0  0  0
    9.9801  -15.7951   28.3237 O   0  0  0  0  0  0  0  0  0  0  0  0
  2  1  1  6
  2  3  1  0
  4  2  1  0
  4  5  1  6
  6  4  1  0
  7  6  2  0
  8  6  1  0
  9  8  1  0
  9 10  1  6
 10 11  1  0
 11 15  1  0
 12 11  2  0
 12 13  1  0
 13 14  1  0
 15 14  2  0
 16 17  2  0
 16  9  1  0
 18 16  1  0
 19 18  1  0
 19 20  1  1
 21 22  2  0
 21 20  1  0
 23 22  1  0
 24 23  2  0
 25 24  1  0
 25 26  2  0
 26 21  1  0
 27 19  1  0
 28 27  1  0
 29 27  2  0
M  END
$$$$
