VHF.pdb
     RDKit          3D

 29 30  0  0  1  0  0  0  0  0999 V2000
    7.0881  -14.3918   18.7030 C   0  0  0  0  0  0  0  0  0  0  0  0
    7.7217  -13.1776   19.3356 C   0  0  2  0  0  0  0  0  0  0  0  0
    8.3330  -12.2582   18.3065 C   0  0  0  0  0  0  0  0  0  0  0  0
    8.6470  -13.4806   20.4679 C   0  0  2  0  0  0  0  0  0  0  0  0
    9.8448  -14.0772   19.8329 N   0  0  0  0  0  0  0  0  0  0  0  0
    8.1472  -14.4137   21.4759 C   0  0  0  0  0  0  0  0  0  0  0  0
    7.0134  -14.2058   22.0381 O   0  0  0  0  0  0  0  0  0  0  0  0
    8.8343  -15.5604   21.8909 N   0  0  0  0  0  0  0  0  0  0  0  0
    8.2047  -16.5739   22.8181 C   0  0  1  0  0  0  0  0  0  0  0  0
    8.6672  -17.8612   22.2556 C   0  0  0  0  0  0  0  0  0  0  0  0
    8.0498  -18.4390   21.0816 C   0  0  0  0  0  0  0  0  0  0  0  0
    8.3881  -18.6808   19.7949 C   0  0  0  0  0  0  0  0  0  0  0  0
    7.3996  -19.3274   19.1342 N   0  0  0  0  0  0  0  0  0  0  0  0
    6.4337  -19.4914   20.0226 C   0  0  0  0  0  0  0  0  0  0  0  0
    6.7769  -18.9768   21.2010 N   0  0  0  0  0  0  0  0  0  0  0  0
    8.8790  -16.3261   24.1359 C   0  0  0  0  0  0  0  0  0  0  0  0
   10.1342  -16.0679   24.1069 O   0  0  0  0  0  0  0  0  0  0  0  0
    8.1861  -16.3644   25.3524 N   0  0  0  0  0  0  0  0  0  0  0  0
    8.9481  -16.2066   26.6024 C   0  0  1  0  0  0  0  0  0  0  0  0
    8.0534  -15.5022   27.5997 C   0  0  0  0  0  0  0  0  0  0  0  0
    7.7103  -14.1296   27.1599 C   0  0  0  0  0  0  0  0  0  0  0  0
    8.6445  -13.0985   27.2816 C   0  0  0  0  0  0  0  0  0  0  0  0
    8.3047  -11.8379   26.8559 C   0  0  0  0  0  0  0  0  0  0  0  0
    7.0617  -11.6043   26.3196 C   0  0  0  0  0  0  0  0  0  0  0  0
    6.1455  -12.6329   26.2041 C   0  0  0  0  0  0  0  0  0  0  0  0
    6.4605  -13.9045   26.6225 C   0  0  0  0  0  0  0  0  0  0  0  0
    9.3277  -17.5544   27.0684 C   0  0  0  0  0  0  0  0  0  0  0  0
   10.2281  -17.6948   28.1102 O   0  0  0  0  0  0  0  0  0  0  0  0
    8.8756  -18.6110   26.5686 O   0  0  0  0  0  0  0  0  0  0  0  0
  2  1  1  6
  2  3  1  0
  4  2  1  0
  4  5  1  6
  6  4  1  0
  7  6  2  0
  8  6  1  0
  9  8  1  0
  9 10  1  6
 10 11  1  0
 11 15  1  0
 12 11  2  0
 12 13  1  0
 13 14  1  0
 15 14  2  0
 16 17  2  0
 16  9  1  0
 18 16  1  0
 19 18  1  0
 19 20  1  1
 21 22  2  0
 21 20  1  0
 23 22  1  0
 24 23  2  0
 25 24  1  0
 25 26  2  0
 26 21  1  0
 27 19  1  0
 28 27  1  0
 29 27  2  0
M  END
$$$$
