VHF.pdb
     RDKit          3D

 29 30  0  0  1  0  0  0  0  0999 V2000
   14.2822  -14.2220   22.0930 C   0  0  0  0  0  0  0  0  0  0  0  0
   13.8858  -15.3705   21.1987 C   0  0  2  0  0  0  0  0  0  0  0  0
   15.0805  -16.0012   20.5256 C   0  0  0  0  0  0  0  0  0  0  0  0
   12.7779  -15.0606   20.2466 C   0  0  2  0  0  0  0  0  0  0  0  0
   13.3149  -13.9940   19.3701 N   0  0  0  0  0  0  0  0  0  0  0  0
   11.5316  -14.5828   20.8424 C   0  0  0  0  0  0  0  0  0  0  0  0
   11.3406  -13.3259   21.0117 O   0  0  0  0  0  0  0  0  0  0  0  0
   10.4901  -15.4208   21.2576 N   0  0  0  0  0  0  0  0  0  0  0  0
    9.1832  -14.8687   21.7776 C   0  0  1  0  0  0  0  0  0  0  0  0
    8.2112  -15.3172   20.7571 C   0  0  0  0  0  0  0  0  0  0  0  0
    8.0033  -14.5749   19.5328 C   0  0  0  0  0  0  0  0  0  0  0  0
    8.4691  -13.4396   18.9646 C   0  0  0  0  0  0  0  0  0  0  0  0
    7.9502  -13.2533   17.7286 N   0  0  0  0  0  0  0  0  0  0  0  0
    7.1516  -14.2876   17.5245 C   0  0  0  0  0  0  0  0  0  0  0  0
    7.1512  -15.1046   18.5751 N   0  0  0  0  0  0  0  0  0  0  0  0
    8.9569  -15.6202   23.0569 C   0  0  0  0  0  0  0  0  0  0  0  0
    9.8494  -16.4766   23.3934 O   0  0  0  0  0  0  0  0  0  0  0  0
    7.8322  -15.4069   23.8638 N   0  0  0  0  0  0  0  0  0  0  0  0
    7.6998  -16.1840   25.1075 C   0  0  1  0  0  0  0  0  0  0  0  0
    6.6723  -15.4898   25.9754 C   0  0  0  0  0  0  0  0  0  0  0  0
    7.0918  -14.1150   26.3347 C   0  0  0  0  0  0  0  0  0  0  0  0
    6.3388  -13.0174   25.9119 C   0  0  0  0  0  0  0  0  0  0  0  0
    6.7437  -11.7545   26.2683 C   0  0  0  0  0  0  0  0  0  0  0  0
    7.8743  -11.5835   27.0298 C   0  0  0  0  0  0  0  0  0  0  0  0
    8.6114  -12.6776   27.4425 C   0  0  0  0  0  0  0  0  0  0  0  0
    8.2277  -13.9530   27.0995 C   0  0  0  0  0  0  0  0  0  0  0  0
    7.2705  -17.5472   24.7398 C   0  0  0  0  0  0  0  0  0  0  0  0
    7.3084  -18.5592   25.6833 O   0  0  0  0  0  0  0  0  0  0  0  0
    6.8621  -17.8582   23.5966 O   0  0  0  0  0  0  0  0  0  0  0  0
  2  1  1  6
  2  3  1  0
  4  2  1  0
  4  5  1  6
  6  4  1  0
  7  6  2  0
  8  6  1  0
  9  8  1  0
  9 10  1  6
 10 11  1  0
 11 15  1  0
 12 11  2  0
 12 13  1  0
 13 14  1  0
 15 14  2  0
 16 17  2  0
 16  9  1  0
 18 16  1  0
 19 18  1  0
 19 20  1  1
 21 22  2  0
 21 20  1  0
 23 22  1  0
 24 23  2  0
 25 24  1  0
 25 26  2  0
 26 21  1  0
 27 19  1  0
 28 27  1  0
 29 27  2  0
M  END
$$$$
