VHF.pdb
     RDKit          3D

 29 30  0  0  1  0  0  0  0  0999 V2000
    7.4582  -12.2933   19.1251 C   0  0  0  0  0  0  0  0  0  0  0  0
    7.6907  -13.1800   20.3233 C   0  0  2  0  0  0  0  0  0  0  0  0
    8.4229  -12.4573   21.4276 C   0  0  0  0  0  0  0  0  0  0  0  0
    8.2880  -14.5106   20.0029 C   0  0  2  0  0  0  0  0  0  0  0  0
    7.4367  -15.0610   18.9228 N   0  0  0  0  0  0  0  0  0  0  0  0
    8.3272  -15.4792   21.0968 C   0  0  0  0  0  0  0  0  0  0  0  0
    7.2488  -16.0557   21.4838 O   0  0  0  0  0  0  0  0  0  0  0  0
    9.4934  -15.8417   21.7808 N   0  0  0  0  0  0  0  0  0  0  0  0
    9.5034  -16.9536   22.8039 C   0  0  1  0  0  0  0  0  0  0  0  0
   10.7095  -17.7256   22.4340 C   0  0  0  0  0  0  0  0  0  0  0  0
   11.1386  -18.8730   23.2037 C   0  0  0  0  0  0  0  0  0  0  0  0
   10.7112  -19.5639   24.2846 C   0  0  0  0  0  0  0  0  0  0  0  0
   11.5027  -20.6325   24.5363 N   0  0  0  0  0  0  0  0  0  0  0  0
   12.4346  -20.6067   23.5982 C   0  0  0  0  0  0  0  0  0  0  0  0
   12.2579  -19.5732   22.7785 N   0  0  0  0  0  0  0  0  0  0  0  0
    9.7360  -16.2445   24.1061 C   0  0  0  0  0  0  0  0  0  0  0  0
   10.5893  -15.2880   24.1025 O   0  0  0  0  0  0  0  0  0  0  0  0
    9.0583  -16.5920   25.2814 N   0  0  0  0  0  0  0  0  0  0  0  0
    9.5332  -16.0356   26.5593 C   0  0  1  0  0  0  0  0  0  0  0  0
    8.3200  -15.5755   27.3388 C   0  0  0  0  0  0  0  0  0  0  0  0
    7.8432  -14.2482   26.8848 C   0  0  0  0  0  0  0  0  0  0  0  0
    6.6370  -14.1348   26.1899 C   0  0  0  0  0  0  0  0  0  0  0  0
    6.2127  -12.8914   25.7902 C   0  0  0  0  0  0  0  0  0  0  0  0
    6.9704  -11.7813   26.0745 C   0  0  0  0  0  0  0  0  0  0  0  0
    8.1625  -11.9061   26.7631 C   0  0  0  0  0  0  0  0  0  0  0  0
    8.6102  -13.1396   27.1748 C   0  0  0  0  0  0  0  0  0  0  0  0
   10.2634  -17.1039   27.2688 C   0  0  0  0  0  0  0  0  0  0  0  0
   11.0017  -16.7998   28.3994 O   0  0  0  0  0  0  0  0  0  0  0  0
   10.2592  -18.3030   26.9047 O   0  0  0  0  0  0  0  0  0  0  0  0
  2  1  1  6
  2  3  1  0
  4  2  1  0
  4  5  1  6
  6  4  1  0
  7  6  2  0
  8  6  1  0
  9  8  1  0
  9 10  1  6
 10 11  1  0
 11 15  1  0
 12 11  2  0
 12 13  1  0
 13 14  1  0
 15 14  2  0
 16 17  2  0
 16  9  1  0
 18 16  1  0
 19 18  1  0
 19 20  1  1
 21 22  2  0
 21 20  1  0
 23 22  1  0
 24 23  2  0
 25 24  1  0
 25 26  2  0
 26 21  1  0
 27 19  1  0
 28 27  1  0
 29 27  2  0
M  END
$$$$
