VHF.pdb
     RDKit          3D

 29 30  0  0  1  0  0  0  0  0999 V2000
   12.3549  -14.1659   18.6326 C   0  0  0  0  0  0  0  0  0  0  0  0
   13.2931  -15.0019   19.4675 C   0  0  2  0  0  0  0  0  0  0  0  0
   14.2525  -15.7962   18.6152 C   0  0  0  0  0  0  0  0  0  0  0  0
   12.6212  -15.8297   20.5131 C   0  0  2  0  0  0  0  0  0  0  0  0
   12.0456  -16.9797   19.7781 N   0  0  0  0  0  0  0  0  0  0  0  0
   11.5477  -15.1768   21.2600 C   0  0  0  0  0  0  0  0  0  0  0  0
   11.7917  -14.1201   21.9447 O   0  0  0  0  0  0  0  0  0  0  0  0
   10.2239  -15.6306   21.2870 N   0  0  0  0  0  0  0  0  0  0  0  0
    9.1474  -14.9001   22.0555 C   0  0  1  0  0  0  0  0  0  0  0  0
    7.9580  -15.0723   21.1933 C   0  0  0  0  0  0  0  0  0  0  0  0
    7.8511  -14.4106   19.9112 C   0  0  0  0  0  0  0  0  0  0  0  0
    7.8899  -13.1448   19.4370 C   0  0  0  0  0  0  0  0  0  0  0  0
    7.7936  -13.1166   18.0873 N   0  0  0  0  0  0  0  0  0  0  0  0
    7.6949  -14.3823   17.7167 C   0  0  0  0  0  0  0  0  0  0  0  0
    7.7250  -15.1922   18.7724 N   0  0  0  0  0  0  0  0  0  0  0  0
    8.9853  -15.7097   23.3089 C   0  0  0  0  0  0  0  0  0  0  0  0
    9.2854  -16.9540   23.2397 O   0  0  0  0  0  0  0  0  0  0  0  0
    8.5343  -15.1500   24.5109 N   0  0  0  0  0  0  0  0  0  0  0  0
    8.4669  -16.0077   25.7058 C   0  0  1  0  0  0  0  0  0  0  0  0
    8.5709  -15.1112   26.9209 C   0  0  0  0  0  0  0  0  0  0  0  0
    7.7556  -13.8831   26.7719 C   0  0  0  0  0  0  0  0  0  0  0  0
    8.3518  -12.6896   26.3589 C   0  0  0  0  0  0  0  0  0  0  0  0
    7.5711  -11.5686   26.2181 C   0  0  0  0  0  0  0  0  0  0  0  0
    6.2242  -11.6303   26.4819 C   0  0  0  0  0  0  0  0  0  0  0  0
    5.6454  -12.8174   26.8900 C   0  0  0  0  0  0  0  0  0  0  0  0
    6.4045  -13.9545   27.0387 C   0  0  0  0  0  0  0  0  0  0  0  0
    7.1788  -16.7270   25.6684 C   0  0  0  0  0  0  0  0  0  0  0  0
    6.3049  -16.5202   24.6152 O   0  0  0  0  0  0  0  0  0  0  0  0
    6.8134  -17.5361   26.5528 O   0  0  0  0  0  0  0  0  0  0  0  0
  2  1  1  6
  2  3  1  0
  4  2  1  0
  4  5  1  6
  6  4  1  0
  7  6  2  0
  8  6  1  0
  9  8  1  0
  9 10  1  6
 10 11  1  0
 11 15  1  0
 12 11  2  0
 12 13  1  0
 13 14  1  0
 15 14  2  0
 16 17  2  0
 16  9  1  0
 18 16  1  0
 19 18  1  0
 19 20  1  1
 21 22  2  0
 21 20  1  0
 23 22  1  0
 24 23  2  0
 25 24  1  0
 25 26  2  0
 26 21  1  0
 27 19  1  0
 28 27  1  0
 29 27  2  0
M  END
$$$$
