VHF.pdb
     RDKit          3D

 29 30  0  0  1  0  0  0  0  0999 V2000
    7.6073  -12.5033   18.7997 C   0  0  0  0  0  0  0  0  0  0  0  0
    7.7657  -13.4253   19.9832 C   0  0  2  0  0  0  0  0  0  0  0  0
    8.2713  -12.6961   21.2041 C   0  0  0  0  0  0  0  0  0  0  0  0
    8.5278  -14.6770   19.6958 C   0  0  2  0  0  0  0  0  0  0  0  0
    7.7719  -15.3435   18.6103 N   0  0  0  0  0  0  0  0  0  0  0  0
    8.6640  -15.6174   20.8065 C   0  0  0  0  0  0  0  0  0  0  0  0
    7.6883  -16.3891   21.1185 O   0  0  0  0  0  0  0  0  0  0  0  0
    9.8197  -15.7477   21.5854 N   0  0  0  0  0  0  0  0  0  0  0  0
    9.9381  -16.7987   22.6645 C   0  0  1  0  0  0  0  0  0  0  0  0
   11.1250  -17.5712   22.2378 C   0  0  0  0  0  0  0  0  0  0  0  0
   11.0528  -18.5365   21.1626 C   0  0  0  0  0  0  0  0  0  0  0  0
   10.1116  -19.0237   20.3227 C   0  0  0  0  0  0  0  0  0  0  0  0
   10.6407  -19.9017   19.4389 N   0  0  0  0  0  0  0  0  0  0  0  0
   11.9290  -19.9603   19.7322 C   0  0  0  0  0  0  0  0  0  0  0  0
   12.2223  -19.1612   20.7553 N   0  0  0  0  0  0  0  0  0  0  0  0
   10.2637  -16.0124   23.9008 C   0  0  0  0  0  0  0  0  0  0  0  0
   10.4944  -14.7607   23.7492 O   0  0  0  0  0  0  0  0  0  0  0  0
   10.3125  -16.5984   25.1719 N   0  0  0  0  0  0  0  0  0  0  0  0
    9.5103  -16.0029   26.2535 C   0  0  1  0  0  0  0  0  0  0  0  0
    8.1074  -15.7960   25.7241 C   0  0  0  0  0  0  0  0  0  0  0  0
    7.5927  -14.4429   26.0394 C   0  0  0  0  0  0  0  0  0  0  0  0
    6.2392  -14.1472   25.8630 C   0  0  0  0  0  0  0  0  0  0  0  0
    5.7861  -12.8885   26.1735 C   0  0  0  0  0  0  0  0  0  0  0  0
    6.6593  -11.9409   26.6499 C   0  0  0  0  0  0  0  0  0  0  0  0
    7.9968  -12.2453   26.8204 C   0  0  0  0  0  0  0  0  0  0  0  0
    8.4763  -13.4982   26.5172 C   0  0  0  0  0  0  0  0  0  0  0  0
    9.5295  -16.9403   27.3932 C   0  0  0  0  0  0  0  0  0  0  0  0
    9.5235  -18.3050   27.1626 O   0  0  0  0  0  0  0  0  0  0  0  0
    9.5516  -16.5716   28.5907 O   0  0  0  0  0  0  0  0  0  0  0  0
  2  1  1  6
  2  3  1  0
  4  2  1  0
  4  5  1  6
  6  4  1  0
  7  6  2  0
  8  6  1  0
  9  8  1  0
  9 10  1  6
 10 11  1  0
 11 15  1  0
 12 11  2  0
 12 13  1  0
 13 14  1  0
 15 14  2  0
 16 17  2  0
 16  9  1  0
 18 16  1  0
 19 18  1  0
 19 20  1  6
 21 22  2  0
 21 20  1  0
 23 22  1  0
 24 23  2  0
 25 24  1  0
 25 26  2  0
 26 21  1  0
 27 19  1  0
 28 27  1  0
 29 27  2  0
M  END
$$$$
